
 OpenBabel03242517553D

 45 48  0  0  0  0  0  0  0  0999 V2000
   45.4790   30.1770   47.3340 C   0  0  0  0  0  0  0  0  0  0  0  0
   46.0600   31.2420   46.7350 C   0  0  0  0  0  0  0  0  0  0  0  0
   46.2480   32.3890   47.4810 C   0  0  0  0  0  0  0  0  0  0  0  0
   45.8740   32.4950   48.7990 C   0  0  0  0  0  0  0  0  0  0  0  0
   45.2850   31.4040   49.3970 C   0  0  0  0  0  0  0  0  0  0  0  0
   45.0910   30.2470   48.6570 C   0  0  0  0  0  0  0  0  0  0  0  0
   46.7050   33.2830   47.0770 H   0  0  0  0  0  0  0  0  0  0  0  0
   46.0180   33.3870   49.3860 H   0  0  0  0  0  0  0  0  0  0  0  0
   44.9530   31.3850   50.4340 H   0  0  0  0  0  0  0  0  0  0  0  0
   44.6330   29.3580   49.0750 H   0  0  0  0  0  0  0  0  0  0  0  0
   45.1680   28.7980   46.3110 S   0  0  0  0  0  0  0  0  0  0  0  0
   44.2660   29.0740   45.1770 O   0  0  0  0  0  0  0  0  0  0  0  0
   44.3860   27.8040   47.2040 O   0  0  0  0  0  0  0  0  0  0  0  0
   47.6850   27.8360   46.8400 C   0  0  0  0  0  3  0  0  0  0  0  0
   46.6110   27.8830   45.9460 C   0  0  0  0  0  0  0  0  0  0  0  0
   46.8270   27.1530   44.8010 C   0  0  0  0  0  0  0  0  0  0  0  0
   46.0130   27.1550   44.0600 H   0  0  0  0  0  0  0  0  0  0  0  0
   47.9900   26.4480   44.5660 C   0  0  0  0  0  0  0  0  0  0  0  0
   49.0110   26.4460   45.4950 C   0  0  0  0  0  0  0  0  0  0  0  0
   48.8720   27.1540   46.6700 C   0  0  0  0  0  3  0  0  0  0  0  0
   50.0460   25.6630   45.0000 O   0  0  0  0  0  0  0  0  0  0  0  0
   49.8140   25.3880   43.6390 C   0  0  0  0  0  3  0  0  0  0  0  0
   50.0930   24.3830   43.3140 H   0  0  0  0  0  0  0  0  0  0  0  0
   48.4180   25.6560   43.5010 O   0  0  0  0  0  0  0  0  0  0  0  0
   46.5110   31.3370   45.4200 O   0  0  0  0  0  0  0  0  0  0  0  0
   45.3090   34.2370   43.8010 C   0  0  0  0  0  0  0  0  0  0  0  0
   46.4660   34.7290   43.1660 C   0  0  0  0  0  0  0  0  0  0  0  0
   47.6490   34.0520   43.3020 C   0  0  0  0  0  0  0  0  0  0  0  0
   47.6080   32.9430   44.0560 N   0  0  0  0  0  0  0  0  0  0  0  0
   46.5270   32.4800   44.6530 C   0  0  0  0  0  0  0  0  0  0  0  0
   45.3730   33.1280   44.5260 N   0  0  0  0  0  0  0  0  0  0  0  0
   44.3790   34.7730   43.6900 H   0  0  0  0  0  0  0  0  0  0  0  0
   46.3380   35.6310   42.5930 H   0  0  0  0  0  0  0  0  0  0  0  0
   48.9080   34.4610   42.6640 C   0  0  0  0  0  0  0  0  0  0  0  0
   49.6640   34.6690   43.4360 H   0  0  0  0  0  0  0  0  0  0  0  0
   49.2980   33.6090   42.0470 H   0  0  0  0  0  0  0  0  0  0  0  0
   48.7330   35.6280   41.7360 C   0  0  0  0  0  0  0  0  0  0  0  0
   48.0020   36.3730   42.0410 H   0  0  0  0  0  0  0  0  0  0  0  0
   49.7270   36.1810   41.8010 H   0  0  0  0  0  0  0  0  0  0  0  0
   48.6020   35.2510   40.3310 C   0  0  0  0  0  3  0  0  0  0  0  0
   48.0380   34.3400   39.5500 C   0  0  0  0  0  3  0  0  0  0  0  0
   48.2300   34.2060   38.0500 C   0  0  0  0  0  0  0  0  0  0  0  0
   49.0610   34.9040   37.7370 H   0  0  0  0  0  0  0  0  0  0  0  0
   48.4870   33.1650   37.8790 H   0  0  0  0  0  0  0  0  0  0  0  0
   47.3150   34.5730   37.5460 H   0  0  0  0  0  0  0  0  0  0  0  0
  1  6  1  0  0  0  0
  2  1  2  0  0  0  0
  2  3  1  0  0  0  0
  3  4  2  0  0  0  0
  4  8  1  0  0  0  0
  4  5  1  0  0  0  0
  5  9  1  0  0  0  0
  6 10  1  0  0  0  0
  6  5  2  0  0  0  0
  7  3  1  0  0  0  0
 11 13  2  0  0  0  0
 11  1  1  0  0  0  0
 12 11  2  0  0  0  0
 15 11  1  0  0  0  0
 15 14  2  0  0  0  0
 16 15  1  0  0  0  0
 17 16  1  0  0  0  0
 18 16  2  0  0  0  0
 18 19  1  0  0  0  0
 19 20  2  0  0  0  0
 20 14  1  0  0  0  0
 21 19  1  0  0  0  0
 22 21  1  0  0  0  0
 23 22  1  0  0  0  0
 24 22  1  0  0  0  0
 24 18  1  0  0  0  0
 25  2  1  0  0  0  0
 26 31  1  0  0  0  0
 27 28  1  0  0  0  0
 27 26  2  0  0  0  0
 28 29  2  0  0  0  0
 29 30  1  0  0  0  0
 30 25  1  0  0  0  0
 31 30  2  0  0  0  0
 32 26  1  0  0  0  0
 33 27  1  0  0  0  0
 34 28  1  0  0  0  0
 34 35  1  0  0  0  0
 36 34  1  0  0  0  0
 37 39  1  0  0  0  0
 37 38  1  0  0  0  0
 37 34  1  0  0  0  0
 40 37  1  0  0  0  0
 41 40  2  0  0  0  0
 42 41  1  0  0  0  0
 43 42  1  0  0  0  0
 44 42  1  0  0  0  0
 45 42  1  0  0  0  0
M  END
>  <minimizedAffinity>
-5.57634115

>  <minimizedRMSD>
2.05506992

$$$$
