
 OpenBabel03242517553D

 45 48  0  0  0  0  0  0  0  0999 V2000
   45.4590   30.1720   47.2870 C   0  0  0  0  0  0  0  0  0  0  0  0
   46.0440   31.2380   46.6930 C   0  0  0  0  0  0  0  0  0  0  0  0
   46.2480   32.3770   47.4480 C   0  0  0  0  0  0  0  0  0  0  0  0
   45.8840   32.4740   48.7700 C   0  0  0  0  0  0  0  0  0  0  0  0
   45.2900   31.3830   49.3630 C   0  0  0  0  0  0  0  0  0  0  0  0
   45.0810   30.2340   48.6140 C   0  0  0  0  0  0  0  0  0  0  0  0
   46.7090   33.2710   47.0490 H   0  0  0  0  0  0  0  0  0  0  0  0
   46.0400   33.3590   49.3640 H   0  0  0  0  0  0  0  0  0  0  0  0
   44.9660   31.3570   50.4020 H   0  0  0  0  0  0  0  0  0  0  0  0
   44.6190   29.3450   49.0270 H   0  0  0  0  0  0  0  0  0  0  0  0
   45.1290   28.8050   46.2550 S   0  0  0  0  0  0  0  0  0  0  0  0
   44.1510   29.0750   45.1840 O   0  0  0  0  0  0  0  0  0  0  0  0
   44.4340   27.7690   47.1700 O   0  0  0  0  0  0  0  0  0  0  0  0
   47.3470   27.2560   46.7230 C   0  0  0  0  0  3  0  0  0  0  0  0
   46.5750   27.9450   45.7830 C   0  0  0  0  0  0  0  0  0  0  0  0
   47.0750   27.8620   44.5040 C   0  0  0  0  0  0  0  0  0  0  0  0
   46.5050   28.3870   43.7230 H   0  0  0  0  0  0  0  0  0  0  0  0
   48.2250   27.1650   44.1900 C   0  0  0  0  0  0  0  0  0  0  0  0
   48.9390   26.5070   45.1710 C   0  0  0  0  0  0  0  0  0  0  0  0
   48.5020   26.5420   46.4790 C   0  0  0  0  0  3  0  0  0  0  0  0
   50.0360   25.9000   44.5750 O   0  0  0  0  0  0  0  0  0  0  0  0
   50.1880   26.3930   43.2650 C   0  0  0  0  0  3  0  0  0  0  0  0
   50.5050   25.6560   42.5250 H   0  0  0  0  0  0  0  0  0  0  0  0
   48.9020   26.9510   42.9910 O   0  0  0  0  0  0  0  0  0  0  0  0
   46.4870   31.3410   45.3760 O   0  0  0  0  0  0  0  0  0  0  0  0
   45.3000   34.2570   43.7740 C   0  0  0  0  0  0  0  0  0  0  0  0
   46.4630   34.7550   43.1540 C   0  0  0  0  0  0  0  0  0  0  0  0
   47.6440   34.0770   43.2950 C   0  0  0  0  0  0  0  0  0  0  0  0
   47.5970   32.9600   44.0380 N   0  0  0  0  0  0  0  0  0  0  0  0
   46.5100   32.4910   44.6200 C   0  0  0  0  0  0  0  0  0  0  0  0
   45.3570   33.1410   44.4890 N   0  0  0  0  0  0  0  0  0  0  0  0
   44.3720   34.7930   43.6590 H   0  0  0  0  0  0  0  0  0  0  0  0
   46.3400   35.6620   42.5890 H   0  0  0  0  0  0  0  0  0  0  0  0
   48.9100   34.4910   42.6730 C   0  0  0  0  0  0  0  0  0  0  0  0
   49.6520   34.7130   43.4550 H   0  0  0  0  0  0  0  0  0  0  0  0
   49.3170   33.6380   42.0690 H   0  0  0  0  0  0  0  0  0  0  0  0
   48.7380   35.6490   41.7330 C   0  0  0  0  0  0  0  0  0  0  0  0
   48.0100   36.4000   42.0300 H   0  0  0  0  0  0  0  0  0  0  0  0
   49.7340   36.2000   41.7920 H   0  0  0  0  0  0  0  0  0  0  0  0
   48.6070   35.2580   40.3320 C   0  0  0  0  0  3  0  0  0  0  0  0
   48.0360   34.3440   39.5600 C   0  0  0  0  0  3  0  0  0  0  0  0
   48.2290   34.1920   38.0610 C   0  0  0  0  0  0  0  0  0  0  0  0
   49.0670   34.8780   37.7430 H   0  0  0  0  0  0  0  0  0  0  0  0
   48.4770   33.1470   37.9030 H   0  0  0  0  0  0  0  0  0  0  0  0
   47.3190   34.5620   37.5520 H   0  0  0  0  0  0  0  0  0  0  0  0
  1  6  1  0  0  0  0
  2  1  2  0  0  0  0
  2  3  1  0  0  0  0
  3  4  2  0  0  0  0
  4  5  1  0  0  0  0
  4  8  1  0  0  0  0
  5  9  1  0  0  0  0
  6 10  1  0  0  0  0
  6  5  2  0  0  0  0
  7  3  1  0  0  0  0
 11 13  2  0  0  0  0
 11  1  1  0  0  0  0
 12 11  2  0  0  0  0
 15 11  1  0  0  0  0
 15 14  2  0  0  0  0
 16 15  1  0  0  0  0
 17 16  1  0  0  0  0
 18 16  2  0  0  0  0
 18 19  1  0  0  0  0
 19 20  2  0  0  0  0
 20 14  1  0  0  0  0
 21 19  1  0  0  0  0
 22 21  1  0  0  0  0
 23 22  1  0  0  0  0
 24 22  1  0  0  0  0
 24 18  1  0  0  0  0
 25  2  1  0  0  0  0
 26 31  1  0  0  0  0
 27 28  1  0  0  0  0
 27 26  2  0  0  0  0
 28 29  2  0  0  0  0
 29 30  1  0  0  0  0
 30 25  1  0  0  0  0
 31 30  2  0  0  0  0
 32 26  1  0  0  0  0
 33 27  1  0  0  0  0
 34 28  1  0  0  0  0
 34 35  1  0  0  0  0
 36 34  1  0  0  0  0
 37 39  1  0  0  0  0
 37 38  1  0  0  0  0
 37 34  1  0  0  0  0
 40 37  1  0  0  0  0
 41 40  2  0  0  0  0
 42 41  1  0  0  0  0
 43 42  1  0  0  0  0
 44 42  1  0  0  0  0
 45 42  1  0  0  0  0
M  END
>  <minimizedAffinity>
-5.56539536

>  <minimizedRMSD>
1.75713289

$$$$
