
 OpenBabel03242517543D

 45 48  0  0  0  0  0  0  0  0999 V2000
   45.4620   30.1790   47.2830 C   0  0  0  0  0  0  0  0  0  0  0  0
   46.0820   31.2380   46.7100 C   0  0  0  0  0  0  0  0  0  0  0  0
   46.2930   32.3660   47.4790 C   0  0  0  0  0  0  0  0  0  0  0  0
   45.9040   32.4600   48.7930 C   0  0  0  0  0  0  0  0  0  0  0  0
   45.2750   31.3770   49.3650 C   0  0  0  0  0  0  0  0  0  0  0  0
   45.0580   30.2380   48.6020 C   0  0  0  0  0  0  0  0  0  0  0  0
   46.7800   33.2530   47.0960 H   0  0  0  0  0  0  0  0  0  0  0  0
   46.0650   33.3370   49.3980 H   0  0  0  0  0  0  0  0  0  0  0  0
   44.9290   31.3500   50.3960 H   0  0  0  0  0  0  0  0  0  0  0  0
   44.5700   29.3560   48.9980 H   0  0  0  0  0  0  0  0  0  0  0  0
   45.1260   28.8270   46.2330 S   0  0  0  0  0  0  0  0  0  0  0  0
   44.3600   29.1750   45.0220 O   0  0  0  0  0  0  0  0  0  0  0  0
   44.1810   27.9110   47.0470 O   0  0  0  0  0  0  0  0  0  0  0  0
   47.6280   27.8680   46.8370 C   0  0  0  0  0  3  0  0  0  0  0  0
   46.5110   27.7870   45.9990 C   0  0  0  0  0  0  0  0  0  0  0  0
   46.6370   26.8310   45.0180 C   0  0  0  0  0  0  0  0  0  0  0  0
   45.7850   26.7250   44.3290 H   0  0  0  0  0  0  0  0  0  0  0  0
   47.7580   26.0370   44.8820 C   0  0  0  0  0  0  0  0  0  0  0  0
   48.8260   26.1720   45.7470 C   0  0  0  0  0  0  0  0  0  0  0  0
   48.7760   27.1090   46.7580 C   0  0  0  0  0  3  0  0  0  0  0  0
   49.8000   25.2560   45.3770 O   0  0  0  0  0  0  0  0  0  0  0  0
   49.4870   24.7220   44.1120 C   0  0  0  0  0  3  0  0  0  0  0  0
   49.7090   23.6610   43.9860 H   0  0  0  0  0  0  0  0  0  0  0  0
   48.0970   25.0270   43.9830 O   0  0  0  0  0  0  0  0  0  0  0  0
   46.5540   31.3410   45.4040 O   0  0  0  0  0  0  0  0  0  0  0  0
   45.3230   34.2270   43.7800 C   0  0  0  0  0  0  0  0  0  0  0  0
   46.4750   34.7320   43.1480 C   0  0  0  0  0  0  0  0  0  0  0  0
   47.6660   34.0700   43.2880 C   0  0  0  0  0  0  0  0  0  0  0  0
   47.6360   32.9600   44.0420 N   0  0  0  0  0  0  0  0  0  0  0  0
   46.5580   32.4840   44.6360 C   0  0  0  0  0  0  0  0  0  0  0  0
   45.3980   33.1190   44.5050 N   0  0  0  0  0  0  0  0  0  0  0  0
   44.3870   34.7510   43.6660 H   0  0  0  0  0  0  0  0  0  0  0  0
   46.3390   35.6320   42.5740 H   0  0  0  0  0  0  0  0  0  0  0  0
   48.9220   34.4930   42.6540 C   0  0  0  0  0  0  0  0  0  0  0  0
   49.6710   34.7160   43.4280 H   0  0  0  0  0  0  0  0  0  0  0  0
   49.3270   33.6430   42.0430 H   0  0  0  0  0  0  0  0  0  0  0  0
   48.7350   35.6530   41.7190 C   0  0  0  0  0  0  0  0  0  0  0  0
   47.9990   36.3930   42.0210 H   0  0  0  0  0  0  0  0  0  0  0  0
   49.7240   36.2150   41.7780 H   0  0  0  0  0  0  0  0  0  0  0  0
   48.6030   35.2650   40.3170 C   0  0  0  0  0  3  0  0  0  0  0  0
   48.0430   34.3460   39.5430 C   0  0  0  0  0  3  0  0  0  0  0  0
   48.2330   34.2040   38.0430 C   0  0  0  0  0  0  0  0  0  0  0  0
   49.0600   34.9040   37.7250 H   0  0  0  0  0  0  0  0  0  0  0  0
   48.4950   33.1630   37.8790 H   0  0  0  0  0  0  0  0  0  0  0  0
   47.3150   34.5630   37.5380 H   0  0  0  0  0  0  0  0  0  0  0  0
  1  6  1  0  0  0  0
  2  1  2  0  0  0  0
  2  3  1  0  0  0  0
  3  4  2  0  0  0  0
  4  5  1  0  0  0  0
  4  8  1  0  0  0  0
  5  9  1  0  0  0  0
  6 10  1  0  0  0  0
  6  5  2  0  0  0  0
  7  3  1  0  0  0  0
 11 13  2  0  0  0  0
 11  1  1  0  0  0  0
 12 11  2  0  0  0  0
 15 11  1  0  0  0  0
 15 14  2  0  0  0  0
 16 15  1  0  0  0  0
 17 16  1  0  0  0  0
 18 16  2  0  0  0  0
 18 19  1  0  0  0  0
 19 20  2  0  0  0  0
 20 14  1  0  0  0  0
 21 19  1  0  0  0  0
 22 21  1  0  0  0  0
 23 22  1  0  0  0  0
 24 22  1  0  0  0  0
 24 18  1  0  0  0  0
 25  2  1  0  0  0  0
 26 31  1  0  0  0  0
 27 28  1  0  0  0  0
 27 26  2  0  0  0  0
 28 29  2  0  0  0  0
 29 30  1  0  0  0  0
 30 25  1  0  0  0  0
 31 30  2  0  0  0  0
 32 26  1  0  0  0  0
 33 27  1  0  0  0  0
 34 28  1  0  0  0  0
 34 35  1  0  0  0  0
 36 34  1  0  0  0  0
 37 39  1  0  0  0  0
 37 38  1  0  0  0  0
 37 34  1  0  0  0  0
 40 37  1  0  0  0  0
 41 40  2  0  0  0  0
 42 41  1  0  0  0  0
 43 42  1  0  0  0  0
 44 42  1  0  0  0  0
 45 42  1  0  0  0  0
M  END
>  <minimizedAffinity>
-5.57132339

>  <minimizedRMSD>
1.9698838

$$$$
