
 OpenBabel03242517543D

 45 48  0  0  0  0  0  0  0  0999 V2000
   45.4630   30.1750   47.2750 C   0  0  0  0  0  0  0  0  0  0  0  0
   46.0720   31.2380   46.6990 C   0  0  0  0  0  0  0  0  0  0  0  0
   46.2760   32.3690   47.4650 C   0  0  0  0  0  0  0  0  0  0  0  0
   45.8900   32.4620   48.7800 C   0  0  0  0  0  0  0  0  0  0  0  0
   45.2720   31.3750   49.3550 C   0  0  0  0  0  0  0  0  0  0  0  0
   45.0620   30.2340   48.5950 C   0  0  0  0  0  0  0  0  0  0  0  0
   46.7560   33.2590   47.0800 H   0  0  0  0  0  0  0  0  0  0  0  0
   46.0460   33.3420   49.3830 H   0  0  0  0  0  0  0  0  0  0  0  0
   44.9280   31.3470   50.3880 H   0  0  0  0  0  0  0  0  0  0  0  0
   44.5810   29.3470   48.9940 H   0  0  0  0  0  0  0  0  0  0  0  0
   45.1350   28.8190   46.2280 S   0  0  0  0  0  0  0  0  0  0  0  0
   44.2320   29.1250   45.1030 O   0  0  0  0  0  0  0  0  0  0  0  0
   44.3470   27.8170   47.1040 O   0  0  0  0  0  0  0  0  0  0  0  0
   47.0220   27.7840   44.5220 C   0  0  0  0  0  3  0  0  0  0  0  0
   46.5690   27.8980   45.8390 C   0  0  0  0  0  0  0  0  0  0  0  0
   47.3560   27.2250   46.7440 C   0  0  0  0  0  0  0  0  0  0  0  0
   47.0440   27.2810   47.7980 H   0  0  0  0  0  0  0  0  0  0  0  0
   48.4810   26.5120   46.3790 C   0  0  0  0  0  0  0  0  0  0  0  0
   48.8710   26.4430   45.0570 C   0  0  0  0  0  0  0  0  0  0  0  0
   48.1330   27.0910   44.0880 C   0  0  0  0  0  3  0  0  0  0  0  0
   50.0210   25.6690   44.9850 O   0  0  0  0  0  0  0  0  0  0  0  0
   50.2180   25.0080   46.2120 C   0  0  0  0  0  3  0  0  0  0  0  0
   51.2580   24.9260   46.5350 H   0  0  0  0  0  0  0  0  0  0  0  0
   49.4080   25.7710   47.1080 O   0  0  0  0  0  0  0  0  0  0  0  0
   46.5400   31.3430   45.3910 O   0  0  0  0  0  0  0  0  0  0  0  0
   45.3180   34.2360   43.7740 C   0  0  0  0  0  0  0  0  0  0  0  0
   46.4730   34.7410   43.1460 C   0  0  0  0  0  0  0  0  0  0  0  0
   47.6620   34.0770   43.2870 C   0  0  0  0  0  0  0  0  0  0  0  0
   47.6290   32.9650   44.0380 N   0  0  0  0  0  0  0  0  0  0  0  0
   46.5490   32.4890   44.6270 C   0  0  0  0  0  0  0  0  0  0  0  0
   45.3890   33.1250   44.4950 N   0  0  0  0  0  0  0  0  0  0  0  0
   44.3830   34.7620   43.6590 H   0  0  0  0  0  0  0  0  0  0  0  0
   46.3390   35.6440   42.5750 H   0  0  0  0  0  0  0  0  0  0  0  0
   48.9210   34.5000   42.6580 C   0  0  0  0  0  0  0  0  0  0  0  0
   49.6660   34.7260   43.4350 H   0  0  0  0  0  0  0  0  0  0  0  0
   49.3300   33.6500   42.0500 H   0  0  0  0  0  0  0  0  0  0  0  0
   48.7360   35.6580   41.7190 C   0  0  0  0  0  0  0  0  0  0  0  0
   48.0010   36.4000   42.0190 H   0  0  0  0  0  0  0  0  0  0  0  0
   49.7260   36.2180   41.7770 H   0  0  0  0  0  0  0  0  0  0  0  0
   48.6040   35.2670   40.3180 C   0  0  0  0  0  3  0  0  0  0  0  0
   48.0420   34.3470   39.5460 C   0  0  0  0  0  3  0  0  0  0  0  0
   48.2330   34.1990   38.0470 C   0  0  0  0  0  0  0  0  0  0  0  0
   49.0620   34.8960   37.7270 H   0  0  0  0  0  0  0  0  0  0  0  0
   48.4920   33.1580   37.8860 H   0  0  0  0  0  0  0  0  0  0  0  0
   47.3170   34.5590   37.5410 H   0  0  0  0  0  0  0  0  0  0  0  0
  1  6  1  0  0  0  0
  2  1  2  0  0  0  0
  2  3  1  0  0  0  0
  3  4  2  0  0  0  0
  4  5  1  0  0  0  0
  4  8  1  0  0  0  0
  5  9  1  0  0  0  0
  6 10  1  0  0  0  0
  6  5  2  0  0  0  0
  7  3  1  0  0  0  0
 11 13  2  0  0  0  0
 11  1  1  0  0  0  0
 12 11  2  0  0  0  0
 14 15  1  0  0  0  0
 15 11  1  0  0  0  0
 15 16  2  0  0  0  0
 16 17  1  0  0  0  0
 18 16  1  0  0  0  0
 18 24  1  0  0  0  0
 19 18  2  0  0  0  0
 20 14  2  0  0  0  0
 20 19  1  0  0  0  0
 21 19  1  0  0  0  0
 21 22  1  0  0  0  0
 22 23  1  0  0  0  0
 22 24  1  0  0  0  0
 25  2  1  0  0  0  0
 26 31  1  0  0  0  0
 27 28  1  0  0  0  0
 27 26  2  0  0  0  0
 28 29  2  0  0  0  0
 29 30  1  0  0  0  0
 30 25  1  0  0  0  0
 31 30  2  0  0  0  0
 32 26  1  0  0  0  0
 33 27  1  0  0  0  0
 34 28  1  0  0  0  0
 34 35  1  0  0  0  0
 36 34  1  0  0  0  0
 37 39  1  0  0  0  0
 37 38  1  0  0  0  0
 37 34  1  0  0  0  0
 40 37  1  0  0  0  0
 41 40  2  0  0  0  0
 42 41  1  0  0  0  0
 43 42  1  0  0  0  0
 44 42  1  0  0  0  0
 45 42  1  0  0  0  0
M  END
>  <minimizedAffinity>
-5.58907652

>  <minimizedRMSD>
1.98663485

$$$$
