
 OpenBabel03242517543D

 45 48  0  0  0  0  0  0  0  0999 V2000
   45.4610   30.1720   47.2910 C   0  0  0  0  0  0  0  0  0  0  0  0
   46.0520   31.2370   46.7000 C   0  0  0  0  0  0  0  0  0  0  0  0
   46.2560   32.3740   47.4570 C   0  0  0  0  0  0  0  0  0  0  0  0
   45.8890   32.4700   48.7770 C   0  0  0  0  0  0  0  0  0  0  0  0
   45.2900   31.3810   49.3670 C   0  0  0  0  0  0  0  0  0  0  0  0
   45.0800   30.2330   48.6160 C   0  0  0  0  0  0  0  0  0  0  0  0
   46.7220   33.2670   47.0600 H   0  0  0  0  0  0  0  0  0  0  0  0
   46.0450   33.3550   49.3730 H   0  0  0  0  0  0  0  0  0  0  0  0
   44.9620   31.3550   50.4050 H   0  0  0  0  0  0  0  0  0  0  0  0
   44.6130   29.3450   49.0270 H   0  0  0  0  0  0  0  0  0  0  0  0
   45.1310   28.8070   46.2550 S   0  0  0  0  0  0  0  0  0  0  0  0
   44.1560   29.0800   45.1830 O   0  0  0  0  0  0  0  0  0  0  0  0
   44.4320   27.7710   47.1680 O   0  0  0  0  0  0  0  0  0  0  0  0
   47.3540   27.2650   46.7270 C   0  0  0  0  0  3  0  0  0  0  0  0
   46.5770   27.9450   45.7850 C   0  0  0  0  0  0  0  0  0  0  0  0
   47.0710   27.8520   44.5050 C   0  0  0  0  0  0  0  0  0  0  0  0
   46.4970   28.3710   43.7210 H   0  0  0  0  0  0  0  0  0  0  0  0
   48.2210   27.1550   44.1920 C   0  0  0  0  0  0  0  0  0  0  0  0
   48.9400   26.5050   45.1750 C   0  0  0  0  0  0  0  0  0  0  0  0
   48.5080   26.5500   46.4840 C   0  0  0  0  0  3  0  0  0  0  0  0
   50.0350   25.8950   44.5790 O   0  0  0  0  0  0  0  0  0  0  0  0
   50.1830   26.3770   43.2640 C   0  0  0  0  0  3  0  0  0  0  0  0
   50.4960   25.6350   42.5290 H   0  0  0  0  0  0  0  0  0  0  0  0
   48.8930   26.9310   42.9920 O   0  0  0  0  0  0  0  0  0  0  0  0
   46.4990   31.3390   45.3840 O   0  0  0  0  0  0  0  0  0  0  0  0
   45.3050   34.2520   43.7820 C   0  0  0  0  0  0  0  0  0  0  0  0
   46.4650   34.7500   43.1570 C   0  0  0  0  0  0  0  0  0  0  0  0
   47.6470   34.0730   43.2950 C   0  0  0  0  0  0  0  0  0  0  0  0
   47.6040   32.9580   44.0400 N   0  0  0  0  0  0  0  0  0  0  0  0
   46.5190   32.4890   44.6260 C   0  0  0  0  0  0  0  0  0  0  0  0
   45.3660   33.1370   44.4980 N   0  0  0  0  0  0  0  0  0  0  0  0
   44.3750   34.7880   43.6700 H   0  0  0  0  0  0  0  0  0  0  0  0
   46.3400   35.6560   42.5910 H   0  0  0  0  0  0  0  0  0  0  0  0
   48.9100   34.4870   42.6680 C   0  0  0  0  0  0  0  0  0  0  0  0
   49.6560   34.7070   43.4460 H   0  0  0  0  0  0  0  0  0  0  0  0
   49.3130   33.6350   42.0600 H   0  0  0  0  0  0  0  0  0  0  0  0
   48.7350   35.6470   41.7300 C   0  0  0  0  0  0  0  0  0  0  0  0
   48.0070   36.3960   42.0310 H   0  0  0  0  0  0  0  0  0  0  0  0
   49.7300   36.2000   41.7890 H   0  0  0  0  0  0  0  0  0  0  0  0
   48.6020   35.2590   40.3290 C   0  0  0  0  0  3  0  0  0  0  0  0
   48.0390   34.3400   39.5560 C   0  0  0  0  0  3  0  0  0  0  0  0
   48.2280   34.1960   38.0560 C   0  0  0  0  0  0  0  0  0  0  0  0
   49.0550   34.8940   37.7360 H   0  0  0  0  0  0  0  0  0  0  0  0
   48.4880   33.1550   37.8930 H   0  0  0  0  0  0  0  0  0  0  0  0
   47.3100   34.5560   37.5520 H   0  0  0  0  0  0  0  0  0  0  0  0
  1  6  1  0  0  0  0
  2  1  2  0  0  0  0
  2  3  1  0  0  0  0
  3  4  2  0  0  0  0
  4  5  1  0  0  0  0
  4  8  1  0  0  0  0
  5  9  1  0  0  0  0
  6 10  1  0  0  0  0
  6  5  2  0  0  0  0
  7  3  1  0  0  0  0
 11 13  2  0  0  0  0
 11  1  1  0  0  0  0
 12 11  2  0  0  0  0
 15 11  1  0  0  0  0
 15 14  2  0  0  0  0
 16 15  1  0  0  0  0
 17 16  1  0  0  0  0
 18 16  2  0  0  0  0
 18 19  1  0  0  0  0
 19 20  2  0  0  0  0
 20 14  1  0  0  0  0
 21 19  1  0  0  0  0
 22 21  1  0  0  0  0
 23 22  1  0  0  0  0
 24 22  1  0  0  0  0
 24 18  1  0  0  0  0
 25  2  1  0  0  0  0
 26 31  1  0  0  0  0
 27 28  1  0  0  0  0
 27 26  2  0  0  0  0
 28 29  2  0  0  0  0
 29 30  1  0  0  0  0
 30 25  1  0  0  0  0
 31 30  2  0  0  0  0
 32 26  1  0  0  0  0
 33 27  1  0  0  0  0
 34 28  1  0  0  0  0
 34 35  1  0  0  0  0
 36 34  1  0  0  0  0
 37 39  1  0  0  0  0
 37 38  1  0  0  0  0
 37 34  1  0  0  0  0
 40 37  1  0  0  0  0
 41 40  2  0  0  0  0
 42 41  1  0  0  0  0
 43 42  1  0  0  0  0
 44 42  1  0  0  0  0
 45 42  1  0  0  0  0
M  END
>  <minimizedAffinity>
-5.56754589

>  <minimizedRMSD>
1.79747498

$$$$
