
 OpenBabel03242517553D

 45 48  0  0  0  0  0  0  0  0999 V2000
   45.4500   30.1580   47.2680 C   0  0  0  0  0  0  0  0  0  0  0  0
   46.0530   31.2200   46.6830 C   0  0  0  0  0  0  0  0  0  0  0  0
   46.2760   32.3480   47.4490 C   0  0  0  0  0  0  0  0  0  0  0  0
   45.9160   32.4380   48.7720 C   0  0  0  0  0  0  0  0  0  0  0  0
   45.3050   31.3510   49.3550 C   0  0  0  0  0  0  0  0  0  0  0  0
   45.0750   30.2130   48.5950 C   0  0  0  0  0  0  0  0  0  0  0  0
   46.7520   33.2370   47.0580 H   0  0  0  0  0  0  0  0  0  0  0  0
   46.0870   33.3150   49.3750 H   0  0  0  0  0  0  0  0  0  0  0  0
   44.9810   31.3210   50.3940 H   0  0  0  0  0  0  0  0  0  0  0  0
   44.5990   29.3280   49.0010 H   0  0  0  0  0  0  0  0  0  0  0  0
   45.0970   28.8070   46.2220 S   0  0  0  0  0  0  0  0  0  0  0  0
   44.1370   29.1080   45.1440 O   0  0  0  0  0  0  0  0  0  0  0  0
   44.3670   27.7820   47.1240 O   0  0  0  0  0  0  0  0  0  0  0  0
   46.7250   27.5040   44.4370 C   0  0  0  0  0  3  0  0  0  0  0  0
   46.5250   27.9140   45.7580 C   0  0  0  0  0  0  0  0  0  0  0  0
   47.5460   27.5430   46.6010 C   0  0  0  0  0  0  0  0  0  0  0  0
   47.4390   27.8400   47.6560 H   0  0  0  0  0  0  0  0  0  0  0  0
   48.6540   26.8370   46.1770 C   0  0  0  0  0  0  0  0  0  0  0  0
   48.7860   26.4640   44.8550 C   0  0  0  0  0  0  0  0  0  0  0  0
   47.8040   26.7990   43.9460 C   0  0  0  0  0  3  0  0  0  0  0  0
   49.9830   25.7740   44.7170 O   0  0  0  0  0  0  0  0  0  0  0  0
   50.4900   25.4560   45.9920 C   0  0  0  0  0  3  0  0  0  0  0  0
   51.5740   25.5260   46.0930 H   0  0  0  0  0  0  0  0  0  0  0  0
   49.7840   26.3640   46.8410 O   0  0  0  0  0  0  0  0  0  0  0  0
   46.4960   31.3270   45.3670 O   0  0  0  0  0  0  0  0  0  0  0  0
   45.3040   34.2470   43.7760 C   0  0  0  0  0  0  0  0  0  0  0  0
   46.4640   34.7490   43.1560 C   0  0  0  0  0  0  0  0  0  0  0  0
   47.6470   34.0720   43.2940 C   0  0  0  0  0  0  0  0  0  0  0  0
   47.6020   32.9530   44.0320 N   0  0  0  0  0  0  0  0  0  0  0  0
   46.5160   32.4810   44.6140 C   0  0  0  0  0  0  0  0  0  0  0  0
   45.3630   33.1290   44.4870 N   0  0  0  0  0  0  0  0  0  0  0  0
   44.3740   34.7830   43.6640 H   0  0  0  0  0  0  0  0  0  0  0  0
   46.3400   35.6580   42.5940 H   0  0  0  0  0  0  0  0  0  0  0  0
   48.9110   34.4900   42.6710 C   0  0  0  0  0  0  0  0  0  0  0  0
   49.6530   34.7120   43.4520 H   0  0  0  0  0  0  0  0  0  0  0  0
   49.3200   33.6380   42.0650 H   0  0  0  0  0  0  0  0  0  0  0  0
   48.7360   35.6490   41.7330 C   0  0  0  0  0  0  0  0  0  0  0  0
   48.0070   36.3980   42.0320 H   0  0  0  0  0  0  0  0  0  0  0  0
   49.7310   36.2010   41.7910 H   0  0  0  0  0  0  0  0  0  0  0  0
   48.6040   35.2590   40.3310 C   0  0  0  0  0  3  0  0  0  0  0  0
   48.0380   34.3410   39.5590 C   0  0  0  0  0  3  0  0  0  0  0  0
   48.2290   34.1940   38.0600 C   0  0  0  0  0  0  0  0  0  0  0  0
   49.0590   34.8880   37.7400 H   0  0  0  0  0  0  0  0  0  0  0  0
   48.4840   33.1520   37.8980 H   0  0  0  0  0  0  0  0  0  0  0  0
   47.3130   34.5570   37.5540 H   0  0  0  0  0  0  0  0  0  0  0  0
  1  6  1  0  0  0  0
  2  1  2  0  0  0  0
  2  3  1  0  0  0  0
  3  4  2  0  0  0  0
  4  5  1  0  0  0  0
  4  8  1  0  0  0  0
  5  9  1  0  0  0  0
  6 10  1  0  0  0  0
  6  5  2  0  0  0  0
  7  3  1  0  0  0  0
 11 13  2  0  0  0  0
 11  1  1  0  0  0  0
 12 11  2  0  0  0  0
 14 15  1  0  0  0  0
 15 11  1  0  0  0  0
 15 16  2  0  0  0  0
 16 17  1  0  0  0  0
 18 16  1  0  0  0  0
 18 24  1  0  0  0  0
 19 18  2  0  0  0  0
 20 14  2  0  0  0  0
 20 19  1  0  0  0  0
 21 19  1  0  0  0  0
 21 22  1  0  0  0  0
 22 23  1  0  0  0  0
 22 24  1  0  0  0  0
 25  2  1  0  0  0  0
 26 31  1  0  0  0  0
 27 28  1  0  0  0  0
 27 26  2  0  0  0  0
 28 29  2  0  0  0  0
 29 30  1  0  0  0  0
 30 25  1  0  0  0  0
 31 30  2  0  0  0  0
 32 26  1  0  0  0  0
 33 27  1  0  0  0  0
 34 28  1  0  0  0  0
 34 35  1  0  0  0  0
 36 34  1  0  0  0  0
 37 39  1  0  0  0  0
 37 38  1  0  0  0  0
 37 34  1  0  0  0  0
 40 37  1  0  0  0  0
 41 40  2  0  0  0  0
 42 41  1  0  0  0  0
 43 42  1  0  0  0  0
 44 42  1  0  0  0  0
 45 42  1  0  0  0  0
M  END
>  <minimizedAffinity>
-5.56225443

>  <minimizedRMSD>
1.76910484

$$$$
