
 OpenBabel03242514553D

 21 23  0  0  0  0  0  0  0  0999 V2000
   43.7420   33.5940   41.8080 C   0  0  0  0  0  3  0  0  0  0  0  0
   43.7040   34.9830   41.8590 C   0  0  0  0  0  0  0  0  0  0  0  0
   42.7120   35.6780   41.2040 C   0  0  0  0  0  0  0  0  0  0  0  0
   42.7210   36.7550   41.2710 H   0  0  0  0  0  0  0  0  0  0  0  0
   41.7380   35.0140   40.4870 C   0  0  0  0  0  0  0  0  0  0  0  0
   41.7640   33.6190   40.4270 C   0  0  0  0  0  0  0  0  0  0  0  0
   42.7630   32.9090   41.0850 C   0  0  0  0  0  3  0  0  0  0  0  0
   40.6740   33.1970   39.6420 O   0  0  0  0  0  0  0  0  0  0  0  0
   40.2690   34.3590   38.9180 C   0  0  0  0  0  3  0  0  0  0  0  0
   39.1930   34.4020   38.7460 H   0  0  0  0  0  0  0  0  0  0  0  0
   40.6300   35.4560   39.7370 O   0  0  0  0  0  0  0  0  0  0  0  0
   45.0020   35.7600   42.8090 S   0  0  0  0  0  0  0  0  0  0  0  0
   45.5960   34.6170   44.0880 C   0  0  0  0  0  0  0  0  0  0  0  0
   46.6760   33.8300   43.6840 C   0  0  0  0  0  0  0  0  0  0  0  0
   47.1870   32.9160   44.6330 C   0  0  0  0  0  0  0  0  0  0  0  0
   46.6080   32.8660   45.8510 N   0  0  0  0  0  0  0  0  0  0  0  0
   45.5660   33.6460   46.1970 C   0  0  0  0  0  0  0  0  0  0  0  0
   45.0610   34.5220   45.3150 N   0  0  0  0  0  0  0  0  0  0  0  0
   47.1410   33.8660   42.7150 H   0  0  0  0  0  0  0  0  0  0  0  0
   48.0200   32.2860   44.3700 H   0  0  0  0  0  0  0  0  0  0  0  0
   45.0810   33.6300   47.1590 H   0  0  0  0  0  0  0  0  0  0  0  0
  1  2  1  0  0  0  0
  2 12  1  0  0  0  0
  3  4  1  0  0  0  0
  3  2  2  0  0  0  0
  5  3  1  0  0  0  0
  6  5  2  0  0  0  0
  6  7  1  0  0  0  0
  7  1  2  0  0  0  0
  8  6  1  0  0  0  0
  9  8  1  0  0  0  0
  9 11  1  0  0  0  0
 10  9  1  0  0  0  0
 11  5  1  0  0  0  0
 12 13  1  0  0  0  0
 13 18  1  0  0  0  0
 14 13  2  0  0  0  0
 14 15  1  0  0  0  0
 15 16  2  0  0  0  0
 16 17  1  0  0  0  0
 17 21  1  0  0  0  0
 18 17  2  0  0  0  0
 19 14  1  0  0  0  0
 20 15  1  0  0  0  0
M  END
>  <minimizedAffinity>
-4.30492353

>  <minimizedRMSD>
0.351307631

$$$$
