
 OpenBabel03242514553D

 21 23  0  0  0  0  0  0  0  0999 V2000
   42.5640   35.3950   41.8110 C   0  0  0  0  0  3  0  0  0  0  0  0
   43.9360   35.1900   41.7060 C   0  0  0  0  0  0  0  0  0  0  0  0
   44.4510   34.4400   40.6740 C   0  0  0  0  0  0  0  0  0  0  0  0
   45.5220   34.3070   40.6320 H   0  0  0  0  0  0  0  0  0  0  0  0
   43.6250   33.8760   39.7230 C   0  0  0  0  0  0  0  0  0  0  0  0
   42.2450   34.0740   39.8160 C   0  0  0  0  0  0  0  0  0  0  0  0
   41.7140   34.8310   40.8560 C   0  0  0  0  0  3  0  0  0  0  0  0
   41.6380   33.4040   38.7380 O   0  0  0  0  0  0  0  0  0  0  0  0
   42.6250   32.4870   38.2680 C   0  0  0  0  0  3  0  0  0  0  0  0
   42.5890   32.3320   37.1900 H   0  0  0  0  0  0  0  0  0  0  0  0
   43.8700   33.0820   38.5870 O   0  0  0  0  0  0  0  0  0  0  0  0
   44.9320   35.9530   42.9770 S   0  0  0  0  0  0  0  0  0  0  0  0
   45.6140   34.6780   44.0740 C   0  0  0  0  0  0  0  0  0  0  0  0
   46.6680   33.9550   43.5130 C   0  0  0  0  0  0  0  0  0  0  0  0
   47.2440   32.9440   44.3130 C   0  0  0  0  0  0  0  0  0  0  0  0
   46.7470   32.7470   45.5540 N   0  0  0  0  0  0  0  0  0  0  0  0
   45.7270   33.4710   46.0540 C   0  0  0  0  0  0  0  0  0  0  0  0
   45.1620   34.4360   45.3140 N   0  0  0  0  0  0  0  0  0  0  0  0
   47.0670   34.1080   42.5250 H   0  0  0  0  0  0  0  0  0  0  0  0
   48.0600   32.3570   43.9260 H   0  0  0  0  0  0  0  0  0  0  0  0
   45.3060   33.3390   47.0380 H   0  0  0  0  0  0  0  0  0  0  0  0
  2  1  1  0  0  0  0
  2 12  1  0  0  0  0
  3  2  2  0  0  0  0
  4  3  1  0  0  0  0
  5  6  2  0  0  0  0
  5  3  1  0  0  0  0
  6  7  1  0  0  0  0
  7  1  2  0  0  0  0
  8  6  1  0  0  0  0
  9 11  1  0  0  0  0
  9  8  1  0  0  0  0
 10  9  1  0  0  0  0
 11  5  1  0  0  0  0
 12 13  1  0  0  0  0
 13 18  1  0  0  0  0
 14 13  2  0  0  0  0
 14 15  1  0  0  0  0
 15 16  2  0  0  0  0
 16 17  1  0  0  0  0
 17 21  1  0  0  0  0
 18 17  2  0  0  0  0
 19 14  1  0  0  0  0
 20 15  1  0  0  0  0
M  END
>  <minimizedAffinity>
-4.25251484

>  <minimizedRMSD>
0.91267544

$$$$
