
 OpenBabel03242514553D

 21 23  0  0  0  0  0  0  0  0999 V2000
   44.3240   34.5380   40.7590 C   0  0  0  0  0  3  0  0  0  0  0  0
   43.8190   35.3660   41.7550 C   0  0  0  0  0  0  0  0  0  0  0  0
   42.4650   35.6030   41.8440 C   0  0  0  0  0  0  0  0  0  0  0  0
   42.1180   36.2520   42.6340 H   0  0  0  0  0  0  0  0  0  0  0  0
   41.5840   35.0270   40.9520 C   0  0  0  0  0  0  0  0  0  0  0  0
   42.0780   34.1950   39.9450 C   0  0  0  0  0  0  0  0  0  0  0  0
   43.4440   33.9490   39.8470 C   0  0  0  0  0  3  0  0  0  0  0  0
   40.9850   33.7440   39.1810 O   0  0  0  0  0  0  0  0  0  0  0  0
   39.9200   34.6400   39.4930 C   0  0  0  0  0  3  0  0  0  0  0  0
   38.9410   34.1610   39.4890 H   0  0  0  0  0  0  0  0  0  0  0  0
   40.1850   35.0920   40.8090 O   0  0  0  0  0  0  0  0  0  0  0  0
   45.0280   36.0670   42.8670 S   0  0  0  0  0  0  0  0  0  0  0  0
   45.5870   34.8040   44.0440 C   0  0  0  0  0  0  0  0  0  0  0  0
   46.6440   34.0220   43.5750 C   0  0  0  0  0  0  0  0  0  0  0  0
   47.1270   33.0180   44.4420 C   0  0  0  0  0  0  0  0  0  0  0  0
   46.5450   32.8820   45.6540 N   0  0  0  0  0  0  0  0  0  0  0  0
   45.5260   33.6610   46.0650 C   0  0  0  0  0  0  0  0  0  0  0  0
   45.0490   34.6220   45.2600 N   0  0  0  0  0  0  0  0  0  0  0  0
   47.1100   34.1260   42.6110 H   0  0  0  0  0  0  0  0  0  0  0  0
   47.9410   32.3870   44.1260 H   0  0  0  0  0  0  0  0  0  0  0  0
   45.0400   33.5790   47.0230 H   0  0  0  0  0  0  0  0  0  0  0  0
  1  2  1  0  0  0  0
  2  3  2  0  0  0  0
  2 12  1  0  0  0  0
  3  4  1  0  0  0  0
  5  3  1  0  0  0  0
  6  5  2  0  0  0  0
  7  6  1  0  0  0  0
  7  1  2  0  0  0  0
  8  9  1  0  0  0  0
  8  6  1  0  0  0  0
  9 11  1  0  0  0  0
 10  9  1  0  0  0  0
 11  5  1  0  0  0  0
 12 13  1  0  0  0  0
 13 18  1  0  0  0  0
 14 13  2  0  0  0  0
 14 15  1  0  0  0  0
 15 16  2  0  0  0  0
 16 17  1  0  0  0  0
 17 21  1  0  0  0  0
 18 17  2  0  0  0  0
 19 14  1  0  0  0  0
 20 15  1  0  0  0  0
M  END
>  <minimizedAffinity>
-4.47135782

>  <minimizedRMSD>
0.52518785

$$$$
