
 OpenBabel03242514553D

 21 23  0  0  0  0  0  0  0  0999 V2000
   43.6860   33.6610   41.9230 C   0  0  0  0  0  3  0  0  0  0  0  0
   43.8110   35.0400   41.8030 C   0  0  0  0  0  0  0  0  0  0  0  0
   43.0210   35.7370   40.9170 C   0  0  0  0  0  0  0  0  0  0  0  0
   43.1520   36.8080   40.8580 H   0  0  0  0  0  0  0  0  0  0  0  0
   42.0920   35.0870   40.1310 C   0  0  0  0  0  0  0  0  0  0  0  0
   41.9560   33.7010   40.2410 C   0  0  0  0  0  0  0  0  0  0  0  0
   42.7500   32.9880   41.1340 C   0  0  0  0  0  3  0  0  0  0  0  0
   40.9530   33.2920   39.3420 O   0  0  0  0  0  0  0  0  0  0  0  0
   40.8070   34.3800   38.4300 C   0  0  0  0  0  3  0  0  0  0  0  0
   39.7840   34.5100   38.0780 H   0  0  0  0  0  0  0  0  0  0  0  0
   41.1730   35.5350   39.1620 O   0  0  0  0  0  0  0  0  0  0  0  0
   45.0360   35.8010   42.8580 S   0  0  0  0  0  0  0  0  0  0  0  0
   45.7220   34.5640   43.9950 C   0  0  0  0  0  0  0  0  0  0  0  0
   46.8060   33.8550   43.4720 C   0  0  0  0  0  0  0  0  0  0  0  0
   47.3870   32.8750   44.3060 C   0  0  0  0  0  0  0  0  0  0  0  0
   46.8660   32.6900   45.5390 N   0  0  0  0  0  0  0  0  0  0  0  0
   45.8180   33.3990   46.0010 C   0  0  0  0  0  0  0  0  0  0  0  0
   45.2480   34.3350   45.2290 N   0  0  0  0  0  0  0  0  0  0  0  0
   47.2240   33.9980   42.4910 H   0  0  0  0  0  0  0  0  0  0  0  0
   48.2250   32.3000   43.9500 H   0  0  0  0  0  0  0  0  0  0  0  0
   45.3780   33.2760   46.9780 H   0  0  0  0  0  0  0  0  0  0  0  0
  2  1  1  0  0  0  0
  2 12  1  0  0  0  0
  3  2  2  0  0  0  0
  4  3  1  0  0  0  0
  5  6  2  0  0  0  0
  5  3  1  0  0  0  0
  6  7  1  0  0  0  0
  7  1  2  0  0  0  0
  8  6  1  0  0  0  0
  9 11  1  0  0  0  0
  9  8  1  0  0  0  0
 10  9  1  0  0  0  0
 11  5  1  0  0  0  0
 12 13  1  0  0  0  0
 13 18  1  0  0  0  0
 14 13  2  0  0  0  0
 14 15  1  0  0  0  0
 15 16  2  0  0  0  0
 16 17  1  0  0  0  0
 17 21  1  0  0  0  0
 18 17  2  0  0  0  0
 19 14  1  0  0  0  0
 20 15  1  0  0  0  0
M  END
>  <minimizedAffinity>
-4.26729441

>  <minimizedRMSD>
0.543002963

$$$$
