
 OpenBabel03242514553D

 21 23  0  0  0  0  0  0  0  0999 V2000
   43.2230   35.5650   40.7550 C   0  0  0  0  0  3  0  0  0  0  0  0
   43.8120   34.7870   41.7460 C   0  0  0  0  0  0  0  0  0  0  0  0
   43.3950   33.4920   41.9560 C   0  0  0  0  0  0  0  0  0  0  0  0
   43.8810   32.9260   42.7370 H   0  0  0  0  0  0  0  0  0  0  0  0
   42.3890   32.9370   41.1910 C   0  0  0  0  0  0  0  0  0  0  0  0
   41.7890   33.7070   40.1920 C   0  0  0  0  0  0  0  0  0  0  0  0
   42.2030   35.0170   39.9720 C   0  0  0  0  0  3  0  0  0  0  0  0
   40.8050   32.9160   39.5680 O   0  0  0  0  0  0  0  0  0  0  0  0
   40.5620   31.8420   40.4760 C   0  0  0  0  0  3  0  0  0  0  0  0
   40.3240   30.9040   39.9760 H   0  0  0  0  0  0  0  0  0  0  0  0
   41.7760   31.6700   41.1850 O   0  0  0  0  0  0  0  0  0  0  0  0
   45.1050   35.5820   42.6880 S   0  0  0  0  0  0  0  0  0  0  0  0
   45.6460   34.4900   44.0330 C   0  0  0  0  0  0  0  0  0  0  0  0
   46.6870   33.6290   43.6780 C   0  0  0  0  0  0  0  0  0  0  0  0
   47.1560   32.7500   44.6790 C   0  0  0  0  0  0  0  0  0  0  0  0
   46.5770   32.8000   45.8980 N   0  0  0  0  0  0  0  0  0  0  0  0
   45.5740   33.6490   46.1960 C   0  0  0  0  0  0  0  0  0  0  0  0
   45.1110   34.4940   45.2630 N   0  0  0  0  0  0  0  0  0  0  0  0
   47.1510   33.5860   42.7080 H   0  0  0  0  0  0  0  0  0  0  0  0
   47.9570   32.0660   44.4550 H   0  0  0  0  0  0  0  0  0  0  0  0
   45.0910   33.7140   47.1570 H   0  0  0  0  0  0  0  0  0  0  0  0
  1  2  1  0  0  0  0
  2  3  2  0  0  0  0
  2 12  1  0  0  0  0
  3  4  1  0  0  0  0
  5  3  1  0  0  0  0
  6  5  2  0  0  0  0
  7  6  1  0  0  0  0
  7  1  2  0  0  0  0
  8  6  1  0  0  0  0
  8  9  1  0  0  0  0
  9 11  1  0  0  0  0
 10  9  1  0  0  0  0
 11  5  1  0  0  0  0
 12 13  1  0  0  0  0
 13 18  1  0  0  0  0
 14 13  2  0  0  0  0
 14 15  1  0  0  0  0
 15 16  2  0  0  0  0
 16 17  1  0  0  0  0
 17 21  1  0  0  0  0
 18 17  2  0  0  0  0
 19 14  1  0  0  0  0
 20 15  1  0  0  0  0
M  END
>  <minimizedAffinity>
-4.03725767

>  <minimizedRMSD>
0.557521939

$$$$
