
 OpenBabel03242513403D

 42 46  0  0  0  0  0  0  0  0999 V2000
   47.7590   31.0910   46.1160 C   0  0  0  0  0  0  0  0  0  0  0  0
   47.0000   32.1170   45.6230 C   0  0  0  0  0  0  0  0  0  0  0  0
   45.9650   32.5830   46.3970 C   0  0  0  0  0  0  0  0  0  0  0  0
   45.6690   32.0630   47.6340 C   0  0  0  0  0  0  0  0  0  0  0  0
   44.7600   32.2790   48.6130 N   0  0  0  0  0  0  0  0  0  0  0  0
   44.9630   31.4280   49.6410 C   0  0  0  0  0  0  0  0  0  0  0  0
   46.0150   30.6680   49.2960 N   0  0  0  0  0  0  0  0  0  0  0  0
   46.4650   31.0370   48.0720 C   0  0  0  0  0  0  0  0  0  0  0  0
   47.5070   30.5280   47.3530 C   0  0  0  0  0  0  0  0  0  0  0  0
   48.5850   30.7180   45.4980 H   0  0  0  0  0  0  0  0  0  0  0  0
   45.3380   33.4020   46.0370 H   0  0  0  0  0  0  0  0  0  0  0  0
   44.0070   33.0220   48.5500 H   0  0  0  0  0  0  0  0  0  0  0  0
   44.4080   31.3480   50.5690 H   0  0  0  0  0  0  0  0  0  0  0  0
   47.0860   34.4070   42.7700 C   0  0  0  0  0  0  0  0  0  0  0  0
   47.8620   33.7310   41.8370 C   0  0  0  0  0  0  0  0  0  0  0  0
   48.3440   32.4810   42.2190 C   0  0  0  0  0  0  0  0  0  0  0  0
   48.0510   31.9850   43.4450 N   0  0  0  0  0  0  0  0  0  0  0  0
   47.2920   32.6950   44.3040 C   0  0  0  0  0  0  0  0  0  0  0  0
   46.8010   33.9000   43.9910 N   0  0  0  0  0  0  0  0  0  0  0  0
   46.6640   35.3840   42.5700 H   0  0  0  0  0  0  0  0  0  0  0  0
   48.9360   31.9660   41.5030 H   0  0  0  0  0  0  0  0  0  0  0  0
   48.1060   34.3900   40.5290 C   0  0  0  0  0  0  0  0  0  0  0  0
   48.6280   35.6190   40.8350 F   0  0  0  0  0  0  0  0  0  0  0  0
   46.9060   34.5190   39.8850 F   0  0  0  0  0  0  0  0  0  0  0  0
   48.9870   33.5840   39.8140 F   0  0  0  0  0  0  0  0  0  0  0  0
   48.2650   29.4920   47.8630 O   0  0  0  0  0  0  0  0  0  0  0  0
   50.0050   28.2240   49.2900 O   0  0  0  0  0  0  0  0  0  0  0  0
   49.4950   29.6390   48.9950 P   0  0  2  0  0  0  0  0  0  0  0  0
   48.7770   30.2030   50.4420 O   0  0  0  0  0  0  0  0  0  0  0  0
   48.8060   29.5370   51.1560 H   0  0  0  0  0  0  0  0  0  0  0  0
   50.7370   30.6450   48.5520 O   0  0  0  0  0  0  0  0  0  0  0  0
   52.8700   31.2180   49.6480 C   0  0  0  0  0  0  0  0  0  0  0  0
   51.5520   31.4390   49.3040 C   0  0  0  0  0  0  0  0  0  0  0  0
   50.9810   32.6230   49.7870 C   0  0  0  0  0  0  0  0  0  0  0  0
   49.9480   32.9350   49.5970 H   0  0  0  0  0  0  0  0  0  0  0  0
   51.7290   33.5030   50.5650 C   0  0  0  0  0  0  0  0  0  0  0  0
   53.0350   33.2260   50.8720 C   0  0  0  0  0  0  0  0  0  0  0  0
   53.6120   32.0750   50.4110 C   0  0  0  0  0  0  0  0  0  0  0  0
   53.5530   34.2610   51.6580 O   0  0  0  0  0  0  0  0  0  0  0  0
   52.6950   35.3720   51.4880 C   0  0  0  0  0  0  0  0  0  0  0  0
   52.6170   35.9910   52.3870 H   0  0  0  0  0  0  0  0  0  0  0  0
   51.4560   34.7330   51.1810 O   0  0  0  0  0  0  0  0  0  0  0  0
  1  9  1  0  0  0  0
  2  1  2  0  0  0  0
  2  3  1  0  0  0  0
  3  4  2  0  0  0  0
  4  8  1  0  0  0  0
  4  5  1  0  0  0  0
  5  6  1  0  0  0  0
  6 13  1  0  0  0  0
  7  6  2  0  0  0  0
  8  7  1  0  0  0  0
  9 26  1  0  0  0  0
  9  8  2  0  0  0  0
 10  1  1  0  0  0  0
 11  3  1  0  0  0  0
 12  5  1  0  0  0  0
 14 19  1  0  0  0  0
 15 16  1  0  0  0  0
 15 14  2  0  0  0  0
 16 17  2  0  0  0  0
 17 18  1  0  0  0  0
 18  2  1  0  0  0  0
 19 18  2  0  0  0  0
 20 14  1  0  0  0  0
 21 16  1  0  0  0  0
 22 23  1  0  0  0  0
 22 15  1  0  0  0  0
 24 22  1  0  0  0  0
 25 22  1  0  0  0  0
 26 28  1  0  0  0  0
 28 27  2  1  0  0  0
 28 29  1  0  0  0  0
 29 30  1  0  0  0  0
 31 28  1  0  0  0  0
 31 33  1  0  0  0  0
 32 38  1  0  0  0  0
 33 32  2  0  0  0  0
 33 34  1  0  0  0  0
 34 36  2  0  0  0  0
 35 34  1  0  0  0  0
 36 37  1  0  0  0  0
 36 42  1  0  0  0  0
 37 39  1  0  0  0  0
 38 37  2  0  0  0  0
 40 39  1  0  0  0  0
 40 41  1  0  0  0  0
 42 40  1  0  0  0  0
M  END
>  <minimizedAffinity>
-6.51669264

>  <minimizedRMSD>
3.37451053

$$$$
