
 OpenBabel03242520273D

 40 43  0  0  0  0  0  0  0  0999 V2000
   37.6550   33.6350   39.8870 C   0  0  0  0  0  0  0  0  0  0  0  0
   38.1670   32.3170   40.1050 C   0  0  0  0  0  0  0  0  0  0  0  0
   39.4890   32.1860   40.4780 C   0  0  0  0  0  0  0  0  0  0  0  0
   40.2460   33.3230   40.6190 N   0  0  0  0  0  0  0  0  0  0  0  0
   39.7500   34.5550   40.4100 C   0  0  0  0  0  0  0  0  0  0  0  0
   38.4660   34.7090   40.0470 N   0  0  0  0  0  0  0  0  0  0  0  0
   36.6200   33.7670   39.5940 H   0  0  0  0  0  0  0  0  0  0  0  0
   40.3870   35.4120   40.5350 H   0  0  0  0  0  0  0  0  0  0  0  0
   37.2510   31.2700   39.9150 N   0  0  0  0  0  0  0  0  0  0  0  0
   36.3170   30.8180   40.9320 C   0  0  0  0  0  0  0  0  0  0  0  0
   35.4010   29.7830   40.3870 C   0  0  0  0  0  0  0  0  0  0  0  0
   36.1050   28.7090   39.7390 N   0  0  0  0  0  0  0  0  0  0  0  0
   37.0780   29.1120   38.7710 C   0  0  0  0  0  0  0  0  0  0  0  0
   37.2310   30.5930   38.6230 C   0  0  0  0  0  0  0  0  0  0  0  0
   36.9440   30.3260   41.7240 H   0  0  0  0  0  0  0  0  0  0  0  0
   35.7530   31.6220   41.4050 H   0  0  0  0  0  0  0  0  0  0  0  0
   34.6320   30.2410   39.7370 H   0  0  0  0  0  0  0  0  0  0  0  0
   34.8470   29.3320   41.2320 H   0  0  0  0  0  0  0  0  0  0  0  0
   35.4480   27.9860   39.4110 H   0  0  0  0  0  0  0  0  0  0  0  0
   38.0740   28.6830   38.9210 H   0  0  0  0  0  0  0  0  0  0  0  0
   36.7110   28.7210   37.7780 H   0  0  0  0  0  0  0  0  0  0  0  0
   36.3200   30.9650   38.1040 H   0  0  0  0  0  0  0  0  0  0  0  0
   38.1270   30.8020   38.0300 H   0  0  0  0  0  0  0  0  0  0  0  0
   39.9620   30.9100   40.6830 O   0  0  0  0  0  0  0  0  0  0  0  0
   41.3230   29.2080   42.1740 O   0  0  0  0  0  0  0  0  0  0  0  0
   40.4270   30.4340   42.2710 P   0  0  1  0  0  0  0  0  0  0  0  0
   41.2370   31.7190   42.9720 O   0  0  0  0  0  0  0  0  0  0  0  0
   40.8450   32.5880   42.7090 H   0  0  0  0  0  0  0  0  0  0  0  0
   39.0220   30.0310   43.1090 O   0  0  0  0  0  0  0  0  0  0  0  0
   37.3770   28.4510   43.6290 C   0  0  0  0  0  3  0  0  0  0  0  0
   38.4560   28.7740   42.8310 C   0  0  0  0  0  0  0  0  0  0  0  0
   38.9400   27.9370   41.8430 C   0  0  0  0  0  0  0  0  0  0  0  0
   39.7740   28.2400   41.2610 H   0  0  0  0  0  0  0  0  0  0  0  0
   38.2690   26.7390   41.7020 C   0  0  0  0  0  0  0  0  0  0  0  0
   37.1860   26.3610   42.4680 C   0  0  0  0  0  0  0  0  0  0  0  0
   36.7360   27.2380   43.4480 C   0  0  0  0  0  3  0  0  0  0  0  0
   36.7600   25.0880   42.0500 O   0  0  0  0  0  0  0  0  0  0  0  0
   37.3410   24.8700   40.7700 C   0  0  0  0  0  3  0  0  0  0  0  0
   37.5750   23.8050   40.6930 H   0  0  0  0  0  0  0  0  0  0  0  0
   38.5190   25.6930   40.7990 O   0  0  0  0  0  0  0  0  0  0  0  0
  1  6  2  0  0  0  0
  1  2  1  0  0  0  0
  2  3  2  0  0  0  0
  3  4  1  0  0  0  0
  3 24  1  0  0  0  0
  5  8  1  0  0  0  0
  5  4  2  0  0  0  0
  6  5  1  0  0  0  0
  7  1  1  0  0  0  0
  9  2  1  0  0  0  0
  9 10  1  0  0  0  0
 10 16  1  0  0  0  0
 10 15  1  0  0  0  0
 11 10  1  0  0  0  0
 11 18  1  0  0  0  0
 12 11  1  0  0  0  0
 13 20  1  0  0  0  0
 13 12  1  0  0  0  0
 14 13  1  0  0  0  0
 14  9  1  0  0  0  0
 17 11  1  0  0  0  0
 19 12  1  0  0  0  0
 21 13  1  0  0  0  0
 22 14  1  0  0  0  0
 23 14  1  0  0  0  0
 24 26  1  0  0  0  0
 26 25  2  6  0  0  0
 26 27  1  0  0  0  0
 26 29  1  0  0  0  0
 28 27  1  0  0  0  0
 31 29  1  0  0  0  0
 31 30  2  0  0  0  0
 32 31  1  0  0  0  0
 33 32  1  0  0  0  0
 34 32  2  0  0  0  0
 34 35  1  0  0  0  0
 35 36  2  0  0  0  0
 36 30  1  0  0  0  0
 37 35  1  0  0  0  0
 38 40  1  0  0  0  0
 38 37  1  0  0  0  0
 39 38  1  0  0  0  0
 40 34  1  0  0  0  0
M  END
>  <minimizedAffinity>
-6.07869768

$$$$

 OpenBabel03242520273D

 40 43  0  0  0  0  0  0  0  0999 V2000
   37.9130   31.5890   37.6620 C   0  0  0  0  0  0  0  0  0  0  0  0
   38.1240   31.8070   39.0600 C   0  0  0  0  0  0  0  0  0  0  0  0
   37.5630   30.9140   39.9500 C   0  0  0  0  0  0  0  0  0  0  0  0
   36.8300   29.8650   39.4520 N   0  0  0  0  0  0  0  0  0  0  0  0
   36.6400   29.6750   38.1350 C   0  0  0  0  0  0  0  0  0  0  0  0
   37.1770   30.5290   37.2490 N   0  0  0  0  0  0  0  0  0  0  0  0
   38.3430   32.2740   36.9400 H   0  0  0  0  0  0  0  0  0  0  0  0
   36.0580   28.8350   37.7990 H   0  0  0  0  0  0  0  0  0  0  0  0
   38.9000   32.9300   39.3890 N   0  0  0  0  0  0  0  0  0  0  0  0
   40.3480   32.9740   39.2790 C   0  0  0  0  0  0  0  0  0  0  0  0
   40.8610   34.3350   39.5810 C   0  0  0  0  0  0  0  0  0  0  0  0
   40.3660   34.8470   40.8310 N   0  0  0  0  0  0  0  0  0  0  0  0
   38.9490   34.7690   41.0060 C   0  0  0  0  0  0  0  0  0  0  0  0
   38.2170   34.1260   39.8700 C   0  0  0  0  0  0  0  0  0  0  0  0
   40.7340   32.2860   40.0790 H   0  0  0  0  0  0  0  0  0  0  0  0
   40.7310   32.6210   38.3220 H   0  0  0  0  0  0  0  0  0  0  0  0
   40.6720   35.0230   38.7350 H   0  0  0  0  0  0  0  0  0  0  0  0
   41.9620   34.2760   39.6770 H   0  0  0  0  0  0  0  0  0  0  0  0
   40.7730   35.7710   41.0350 H   0  0  0  0  0  0  0  0  0  0  0  0
   38.6310   34.2800   41.9320 H   0  0  0  0  0  0  0  0  0  0  0  0
   38.5830   35.8340   41.0690 H   0  0  0  0  0  0  0  0  0  0  0  0
   38.2370   34.8450   39.0210 H   0  0  0  0  0  0  0  0  0  0  0  0
   37.1870   33.9220   40.1780 H   0  0  0  0  0  0  0  0  0  0  0  0
   37.7790   31.1420   41.2890 O   0  0  0  0  0  0  0  0  0  0  0  0
   39.9140   29.6110   41.0210 O   0  0  0  0  0  0  0  0  0  0  0  0
   39.1300   30.4020   42.0580 P   0  0  1  0  0  0  0  0  0  0  0  0
   40.0670   31.6170   42.7240 O   0  0  0  0  0  0  0  0  0  0  0  0
   39.5130   32.3510   43.0870 H   0  0  0  0  0  0  0  0  0  0  0  0
   38.5300   29.3460   43.2260 O   0  0  0  0  0  0  0  0  0  0  0  0
   39.4650   27.2170   43.4920 C   0  0  0  0  0  3  0  0  0  0  0  0
   38.4880   27.9820   42.8850 C   0  0  0  0  0  0  0  0  0  0  0  0
   37.5500   27.4550   42.0170 C   0  0  0  0  0  0  0  0  0  0  0  0
   36.8240   28.0930   41.5810 H   0  0  0  0  0  0  0  0  0  0  0  0
   37.6500   26.0970   41.7910 C   0  0  0  0  0  0  0  0  0  0  0  0
   38.6020   25.2830   42.3680 C   0  0  0  0  0  0  0  0  0  0  0  0
   39.5250   25.8590   43.2340 C   0  0  0  0  0  3  0  0  0  0  0  0
   38.4060   23.9660   41.9130 O   0  0  0  0  0  0  0  0  0  0  0  0
   37.0920   23.9210   41.3700 C   0  0  0  0  0  3  0  0  0  0  0  0
   37.1110   23.2330   40.5210 H   0  0  0  0  0  0  0  0  0  0  0  0
   36.8540   25.2810   40.9710 O   0  0  0  0  0  0  0  0  0  0  0  0
  1  2  1  0  0  0  0
  2  9  1  0  0  0  0
  2  3  2  0  0  0  0
  3 24  1  0  0  0  0
  4  3  1  0  0  0  0
  5  4  2  0  0  0  0
  6  1  2  0  0  0  0
  6  5  1  0  0  0  0
  7  1  1  0  0  0  0
  8  5  1  0  0  0  0
  9 14  1  0  0  0  0
 10  9  1  0  0  0  0
 10 11  1  0  0  0  0
 10 15  1  0  0  0  0
 11 18  1  0  0  0  0
 11 12  1  0  0  0  0
 12 13  1  0  0  0  0
 12 19  1  0  0  0  0
 13 21  1  0  0  0  0
 13 20  1  0  0  0  0
 14 23  1  0  0  0  0
 14 13  1  0  0  0  0
 16 10  1  0  0  0  0
 17 11  1  0  0  0  0
 22 14  1  0  0  0  0
 24 26  1  0  0  0  0
 26 25  2  6  0  0  0
 26 27  1  0  0  0  0
 26 29  1  0  0  0  0
 27 28  1  0  0  0  0
 31 29  1  0  0  0  0
 31 30  2  0  0  0  0
 32 31  1  0  0  0  0
 33 32  1  0  0  0  0
 34 32  2  0  0  0  0
 34 35  1  0  0  0  0
 35 36  2  0  0  0  0
 36 30  1  0  0  0  0
 37 35  1  0  0  0  0
 38 37  1  0  0  0  0
 39 38  1  0  0  0  0
 40 38  1  0  0  0  0
 40 34  1  0  0  0  0
M  END
>  <minimizedAffinity>
-5.9467802

$$$$

 OpenBabel03242520273D

 40 43  0  0  0  0  0  0  0  0999 V2000
   38.9030   28.1100   43.4020 C   0  0  0  0  0  0  0  0  0  0  0  0
   38.8700   28.8250   42.1630 C   0  0  0  0  0  0  0  0  0  0  0  0
   37.7070   28.7900   41.4210 C   0  0  0  0  0  0  0  0  0  0  0  0
   36.6420   28.0710   41.9050 N   0  0  0  0  0  0  0  0  0  0  0  0
   36.6890   27.4030   43.0710 C   0  0  0  0  0  0  0  0  0  0  0  0
   37.8090   27.4230   43.8120 N   0  0  0  0  0  0  0  0  0  0  0  0
   39.8020   28.1210   44.0050 H   0  0  0  0  0  0  0  0  0  0  0  0
   35.8250   26.8560   43.4040 H   0  0  0  0  0  0  0  0  0  0  0  0
   40.0500   29.5060   41.8250 N   0  0  0  0  0  0  0  0  0  0  0  0
   41.1220   28.9240   41.0360 C   0  0  0  0  0  0  0  0  0  0  0  0
   42.1730   29.9330   40.7440 C   0  0  0  0  0  0  0  0  0  0  0  0
   42.6360   30.6060   41.9290 N   0  0  0  0  0  0  0  0  0  0  0  0
   41.6090   31.1440   42.7670 C   0  0  0  0  0  0  0  0  0  0  0  0
   40.2160   30.8790   42.2890 C   0  0  0  0  0  0  0  0  0  0  0  0
   41.5860   28.1360   41.6880 H   0  0  0  0  0  0  0  0  0  0  0  0
   40.7860   28.4420   40.1180 H   0  0  0  0  0  0  0  0  0  0  0  0
   41.8380   30.6360   39.9600 H   0  0  0  0  0  0  0  0  0  0  0  0
   43.0490   29.4070   40.3190 H   0  0  0  0  0  0  0  0  0  0  0  0
   43.3940   31.2660   41.7030 H   0  0  0  0  0  0  0  0  0  0  0  0
   41.6700   30.8380   43.8160 H   0  0  0  0  0  0  0  0  0  0  0  0
   41.7510   32.2630   42.7550 H   0  0  0  0  0  0  0  0  0  0  0  0
   40.0500   31.5210   41.3950 H   0  0  0  0  0  0  0  0  0  0  0  0
   39.5100   31.1370   43.0860 H   0  0  0  0  0  0  0  0  0  0  0  0
   37.6970   29.4850   40.2340 O   0  0  0  0  0  0  0  0  0  0  0  0
   35.2800   29.5780   39.1750 O   0  0  0  0  0  0  0  0  0  0  0  0
   36.3300   30.4550   39.8420 P   0  0  1  0  0  0  0  0  0  0  0  0
   35.7490   31.1160   41.2640 O   0  0  0  0  0  0  0  0  0  0  0  0
   36.4810   31.3540   41.8850 H   0  0  0  0  0  0  0  0  0  0  0  0
   36.8420   31.6340   38.7530 O   0  0  0  0  0  0  0  0  0  0  0  0
   37.5100   33.6170   39.7990 C   0  0  0  0  0  3  0  0  0  0  0  0
   37.9060   32.4570   39.1640 C   0  0  0  0  0  0  0  0  0  0  0  0
   39.2320   32.1310   38.9510 C   0  0  0  0  0  0  0  0  0  0  0  0
   39.4760   31.2240   38.4560 H   0  0  0  0  0  0  0  0  0  0  0  0
   40.1500   33.0500   39.4170 C   0  0  0  0  0  0  0  0  0  0  0  0
   39.8150   34.2240   40.0580 C   0  0  0  0  0  0  0  0  0  0  0  0
   38.4680   34.5080   40.2500 C   0  0  0  0  0  3  0  0  0  0  0  0
   40.9970   34.9100   40.3910 O   0  0  0  0  0  0  0  0  0  0  0  0
   42.0520   33.9590   40.3010 C   0  0  0  0  0  3  0  0  0  0  0  0
   42.9380   34.4860   39.9380 H   0  0  0  0  0  0  0  0  0  0  0  0
   41.5520   33.0040   39.3510 O   0  0  0  0  0  0  0  0  0  0  0  0
  1  6  1  0  0  0  0
  1  7  1  0  0  0  0
  2  1  2  0  0  0  0
  3  4  2  0  0  0  0
  3  2  1  0  0  0  0
  4  5  1  0  0  0  0
  5  8  1  0  0  0  0
  5  6  2  0  0  0  0
  9  2  1  0  0  0  0
  9 14  1  0  0  0  0
 10 15  1  0  0  0  0
 10  9  1  0  0  0  0
 11 10  1  0  0  0  0
 11 12  1  0  0  0  0
 12 13  1  0  0  0  0
 13 20  1  0  0  0  0
 14 13  1  0  0  0  0
 14 23  1  0  0  0  0
 16 10  1  0  0  0  0
 17 11  1  0  0  0  0
 18 11  1  0  0  0  0
 19 12  1  0  0  0  0
 21 13  1  0  0  0  0
 22 14  1  0  0  0  0
 24  3  1  0  0  0  0
 26 25  2  6  0  0  0
 26 24  1  0  0  0  0
 26 27  1  0  0  0  0
 27 28  1  0  0  0  0
 29 31  1  0  0  0  0
 29 26  1  0  0  0  0
 30 36  1  0  0  0  0
 31 30  2  0  0  0  0
 32 31  1  0  0  0  0
 32 34  2  0  0  0  0
 33 32  1  0  0  0  0
 34 35  1  0  0  0  0
 35 36  2  0  0  0  0
 35 37  1  0  0  0  0
 38 37  1  0  0  0  0
 39 38  1  0  0  0  0
 40 34  1  0  0  0  0
 40 38  1  0  0  0  0
M  END
>  <minimizedAffinity>
-5.9022398

$$$$

 OpenBabel03242520273D

 40 43  0  0  0  0  0  0  0  0999 V2000
   37.7540   26.7100   42.6590 C   0  0  0  0  0  0  0  0  0  0  0  0
   37.7490   27.4280   41.4220 C   0  0  0  0  0  0  0  0  0  0  0  0
   37.7020   28.8060   41.4690 C   0  0  0  0  0  0  0  0  0  0  0  0
   37.6620   29.4190   42.6970 N   0  0  0  0  0  0  0  0  0  0  0  0
   37.6680   28.7300   43.8510 C   0  0  0  0  0  0  0  0  0  0  0  0
   37.7130   27.3880   43.8320 N   0  0  0  0  0  0  0  0  0  0  0  0
   37.7910   25.6270   42.6520 H   0  0  0  0  0  0  0  0  0  0  0  0
   37.6360   29.2610   44.7860 H   0  0  0  0  0  0  0  0  0  0  0  0
   37.7940   26.6380   40.2620 N   0  0  0  0  0  0  0  0  0  0  0  0
   36.6150   26.1850   39.5450 C   0  0  0  0  0  0  0  0  0  0  0  0
   36.9950   25.4770   38.2950 C   0  0  0  0  0  0  0  0  0  0  0  0
   37.9600   24.4350   38.5220 N   0  0  0  0  0  0  0  0  0  0  0  0
   39.1110   24.8220   39.2770 C   0  0  0  0  0  0  0  0  0  0  0  0
   39.0990   26.2450   39.7420 C   0  0  0  0  0  0  0  0  0  0  0  0
   36.1190   25.4350   40.2170 H   0  0  0  0  0  0  0  0  0  0  0  0
   35.8930   26.9750   39.3360 H   0  0  0  0  0  0  0  0  0  0  0  0
   37.3180   26.1950   37.5190 H   0  0  0  0  0  0  0  0  0  0  0  0
   36.0900   24.9860   37.8880 H   0  0  0  0  0  0  0  0  0  0  0  0
   38.1690   23.9330   37.6470 H   0  0  0  0  0  0  0  0  0  0  0  0
   39.3240   24.1860   40.1420 H   0  0  0  0  0  0  0  0  0  0  0  0
   39.9920   24.7140   38.5800 H   0  0  0  0  0  0  0  0  0  0  0  0
   39.2700   26.8820   38.8460 H   0  0  0  0  0  0  0  0  0  0  0  0
   39.9000   26.3880   40.4750 H   0  0  0  0  0  0  0  0  0  0  0  0
   37.6980   29.4760   40.2670 O   0  0  0  0  0  0  0  0  0  0  0  0
   35.2910   29.4950   39.1800 O   0  0  0  0  0  0  0  0  0  0  0  0
   36.3170   30.4090   39.8330 P   0  0  1  0  0  0  0  0  0  0  0  0
   35.7070   31.0990   41.2300 O   0  0  0  0  0  0  0  0  0  0  0  0
   36.4280   31.3670   41.8520 H   0  0  0  0  0  0  0  0  0  0  0  0
   36.8200   31.5670   38.7170 O   0  0  0  0  0  0  0  0  0  0  0  0
   37.4760   33.5700   39.7330 C   0  0  0  0  0  3  0  0  0  0  0  0
   37.8780   32.4060   39.1080 C   0  0  0  0  0  0  0  0  0  0  0  0
   39.2060   32.0920   38.8870 C   0  0  0  0  0  0  0  0  0  0  0  0
   39.4550   31.1820   38.4010 H   0  0  0  0  0  0  0  0  0  0  0  0
   40.1180   33.0260   39.3330 C   0  0  0  0  0  0  0  0  0  0  0  0
   39.7770   34.2050   39.9630 C   0  0  0  0  0  0  0  0  0  0  0  0
   38.4280   34.4770   40.1630 C   0  0  0  0  0  3  0  0  0  0  0  0
   40.9540   34.9080   40.2760 O   0  0  0  0  0  0  0  0  0  0  0  0
   42.0180   33.9660   40.1880 C   0  0  0  0  0  3  0  0  0  0  0  0
   42.8950   34.4990   39.8110 H   0  0  0  0  0  0  0  0  0  0  0  0
   41.5200   32.9940   39.2550 O   0  0  0  0  0  0  0  0  0  0  0  0
  1  6  1  0  0  0  0
  2  3  1  0  0  0  0
  2  1  2  0  0  0  0
  3  4  2  0  0  0  0
  4  5  1  0  0  0  0
  5  8  1  0  0  0  0
  6  5  2  0  0  0  0
  7  1  1  0  0  0  0
  9  2  1  0  0  0  0
 10 15  1  0  0  0  0
 10  9  1  0  0  0  0
 11 12  1  0  0  0  0
 11 10  1  0  0  0  0
 12 13  1  0  0  0  0
 13 14  1  0  0  0  0
 13 20  1  0  0  0  0
 14  9  1  0  0  0  0
 14 23  1  0  0  0  0
 16 10  1  0  0  0  0
 17 11  1  0  0  0  0
 18 11  1  0  0  0  0
 19 12  1  0  0  0  0
 21 13  1  0  0  0  0
 22 14  1  0  0  0  0
 24  3  1  0  0  0  0
 26 25  2  6  0  0  0
 26 24  1  0  0  0  0
 26 27  1  0  0  0  0
 27 28  1  0  0  0  0
 29 31  1  0  0  0  0
 29 26  1  0  0  0  0
 30 36  1  0  0  0  0
 31 30  2  0  0  0  0
 32 31  1  0  0  0  0
 32 34  2  0  0  0  0
 33 32  1  0  0  0  0
 34 35  1  0  0  0  0
 35 36  2  0  0  0  0
 35 37  1  0  0  0  0
 38 37  1  0  0  0  0
 39 38  1  0  0  0  0
 40 34  1  0  0  0  0
 40 38  1  0  0  0  0
M  END
>  <minimizedAffinity>
-5.89513159

$$$$

 OpenBabel03242520273D

 40 43  0  0  0  0  0  0  0  0999 V2000
   36.7750   29.6810   36.5250 C   0  0  0  0  0  0  0  0  0  0  0  0
   37.4370   29.5940   37.7900 C   0  0  0  0  0  0  0  0  0  0  0  0
   36.7170   29.1290   38.8720 C   0  0  0  0  0  0  0  0  0  0  0  0
   35.4040   28.7740   38.6820 N   0  0  0  0  0  0  0  0  0  0  0  0
   34.7960   28.8630   37.4860 C   0  0  0  0  0  0  0  0  0  0  0  0
   35.4750   29.3120   36.4180 N   0  0  0  0  0  0  0  0  0  0  0  0
   37.3160   30.0420   35.6590 H   0  0  0  0  0  0  0  0  0  0  0  0
   33.7640   28.5720   37.3930 H   0  0  0  0  0  0  0  0  0  0  0  0
   38.7820   29.9980   37.8000 N   0  0  0  0  0  0  0  0  0  0  0  0
   39.2110   31.3820   37.6970 C   0  0  0  0  0  0  0  0  0  0  0  0
   40.6840   31.4930   37.8630 C   0  0  0  0  0  0  0  0  0  0  0  0
   41.4060   30.6040   36.9920 N   0  0  0  0  0  0  0  0  0  0  0  0
   40.9750   29.2400   37.0170 C   0  0  0  0  0  0  0  0  0  0  0  0
   39.8130   28.9720   37.9200 C   0  0  0  0  0  0  0  0  0  0  0  0
   38.9680   31.6990   36.6470 H   0  0  0  0  0  0  0  0  0  0  0  0
   38.6950   32.0580   38.3780 H   0  0  0  0  0  0  0  0  0  0  0  0
   40.9700   31.3740   38.9240 H   0  0  0  0  0  0  0  0  0  0  0  0
   40.9860   32.5210   37.5850 H   0  0  0  0  0  0  0  0  0  0  0  0
   42.4230   30.7350   37.0960 H   0  0  0  0  0  0  0  0  0  0  0  0
   40.7450   28.8170   36.0350 H   0  0  0  0  0  0  0  0  0  0  0  0
   41.8460   28.6460   37.4210 H   0  0  0  0  0  0  0  0  0  0  0  0
   40.1880   29.0450   38.9650 H   0  0  0  0  0  0  0  0  0  0  0  0
   39.4260   27.9680   37.7170 H   0  0  0  0  0  0  0  0  0  0  0  0
   37.3740   29.0520   40.0780 O   0  0  0  0  0  0  0  0  0  0  0  0
   38.0530   31.3770   41.1310 O   0  0  0  0  0  0  0  0  0  0  0  0
   37.0530   30.2400   41.2830 P   0  0  1  0  0  0  0  0  0  0  0  0
   35.4860   30.7820   41.0620 O   0  0  0  0  0  0  0  0  0  0  0  0
   34.8820   30.0520   40.7790 H   0  0  0  0  0  0  0  0  0  0  0  0
   37.2690   29.5070   42.7850 O   0  0  0  0  0  0  0  0  0  0  0  0
   37.0400   27.1970   42.4970 C   0  0  0  0  0  3  0  0  0  0  0  0
   37.8890   28.2450   42.7900 C   0  0  0  0  0  0  0  0  0  0  0  0
   39.2320   28.0710   43.0660 C   0  0  0  0  0  0  0  0  0  0  0  0
   39.8360   28.9160   43.2840 H   0  0  0  0  0  0  0  0  0  0  0  0
   39.6800   26.7660   43.0300 C   0  0  0  0  0  0  0  0  0  0  0  0
   38.8800   25.6800   42.7430 C   0  0  0  0  0  0  0  0  0  0  0  0
   37.5350   25.9050   42.4730 C   0  0  0  0  0  3  0  0  0  0  0  0
   39.6660   24.5140   42.7960 O   0  0  0  0  0  0  0  0  0  0  0  0
   41.0210   24.9410   42.7270 C   0  0  0  0  0  3  0  0  0  0  0  0
   41.6110   24.2610   43.3470 H   0  0  0  0  0  0  0  0  0  0  0  0
   40.9740   26.2730   43.2620 O   0  0  0  0  0  0  0  0  0  0  0  0
  1  2  1  0  0  0  0
  2  9  1  0  0  0  0
  2  3  2  0  0  0  0
  3 24  1  0  0  0  0
  4  3  1  0  0  0  0
  5  4  2  0  0  0  0
  6  1  2  0  0  0  0
  6  5  1  0  0  0  0
  7  1  1  0  0  0  0
  8  5  1  0  0  0  0
  9 14  1  0  0  0  0
 10  9  1  0  0  0  0
 10 11  1  0  0  0  0
 10 16  1  0  0  0  0
 11 17  1  0  0  0  0
 12 13  1  0  0  0  0
 12 19  1  0  0  0  0
 12 11  1  0  0  0  0
 13 21  1  0  0  0  0
 13 14  1  0  0  0  0
 14 22  1  0  0  0  0
 15 10  1  0  0  0  0
 18 11  1  0  0  0  0
 20 13  1  0  0  0  0
 23 14  1  0  0  0  0
 24 26  1  0  0  0  0
 26 25  2  6  0  0  0
 26 29  1  0  0  0  0
 27 26  1  0  0  0  0
 28 27  1  0  0  0  0
 29 31  1  0  0  0  0
 30 31  1  0  0  0  0
 31 32  2  0  0  0  0
 32 33  1  0  0  0  0
 34 32  1  0  0  0  0
 34 40  1  0  0  0  0
 35 37  1  0  0  0  0
 35 34  2  0  0  0  0
 36 30  2  0  0  0  0
 36 35  1  0  0  0  0
 38 37  1  0  0  0  0
 38 40  1  0  0  0  0
 38 39  1  0  0  0  0
M  END
>  <minimizedAffinity>
-5.77191496

$$$$

 OpenBabel03242520273D

 40 43  0  0  0  0  0  0  0  0999 V2000
   39.5930   27.6960   42.8530 C   0  0  0  0  0  0  0  0  0  0  0  0
   39.4900   28.8540   42.0200 C   0  0  0  0  0  0  0  0  0  0  0  0
   38.3490   29.6250   42.1140 C   0  0  0  0  0  0  0  0  0  0  0  0
   37.3710   29.2420   42.9980 N   0  0  0  0  0  0  0  0  0  0  0  0
   37.4830   28.1500   43.7750 C   0  0  0  0  0  0  0  0  0  0  0  0
   38.5840   27.3850   43.7030 N   0  0  0  0  0  0  0  0  0  0  0  0
   40.4780   27.0730   42.8010 H   0  0  0  0  0  0  0  0  0  0  0  0
   36.6860   27.8960   44.4520 H   0  0  0  0  0  0  0  0  0  0  0  0
   40.5860   29.0940   41.1760 N   0  0  0  0  0  0  0  0  0  0  0  0
   41.6500   30.0360   41.4780 C   0  0  0  0  0  0  0  0  0  0  0  0
   42.7220   29.9710   40.4520 C   0  0  0  0  0  0  0  0  0  0  0  0
   42.2130   30.0950   39.1120 N   0  0  0  0  0  0  0  0  0  0  0  0
   41.1230   29.2260   38.7900 C   0  0  0  0  0  0  0  0  0  0  0  0
   40.6660   28.3570   39.9190 C   0  0  0  0  0  0  0  0  0  0  0  0
   41.1820   31.0550   41.4100 H   0  0  0  0  0  0  0  0  0  0  0  0
   42.0670   29.9270   42.4790 H   0  0  0  0  0  0  0  0  0  0  0  0
   43.3430   29.0660   40.5890 H   0  0  0  0  0  0  0  0  0  0  0  0
   43.4040   30.8280   40.6110 H   0  0  0  0  0  0  0  0  0  0  0  0
   42.9820   30.0920   38.4260 H   0  0  0  0  0  0  0  0  0  0  0  0
   40.2450   29.7310   38.3760 H   0  0  0  0  0  0  0  0  0  0  0  0
   41.5030   28.5370   37.9810 H   0  0  0  0  0  0  0  0  0  0  0  0
   41.4510   27.5840   40.0740 H   0  0  0  0  0  0  0  0  0  0  0  0
   39.7130   27.8910   39.6480 H   0  0  0  0  0  0  0  0  0  0  0  0
   38.2700   30.7340   41.3040 O   0  0  0  0  0  0  0  0  0  0  0  0
   36.7330   29.8320   39.3540 O   0  0  0  0  0  0  0  0  0  0  0  0
   36.8570   30.9770   40.3500 P   0  0  1  0  0  0  0  0  0  0  0  0
   35.5440   31.0200   41.3850 O   0  0  0  0  0  0  0  0  0  0  0  0
   35.7640   31.4700   42.2380 H   0  0  0  0  0  0  0  0  0  0  0  0
   37.0570   32.4240   39.5110 O   0  0  0  0  0  0  0  0  0  0  0  0
   38.3140   34.2050   40.3610 C   0  0  0  0  0  3  0  0  0  0  0  0
   38.3140   33.0460   39.6110 C   0  0  0  0  0  0  0  0  0  0  0  0
   39.4510   32.5390   39.0100 C   0  0  0  0  0  0  0  0  0  0  0  0
   39.3900   31.6430   38.4450 H   0  0  0  0  0  0  0  0  0  0  0  0
   40.6030   33.2730   39.2070 C   0  0  0  0  0  0  0  0  0  0  0  0
   40.6640   34.4360   39.9450 C   0  0  0  0  0  0  0  0  0  0  0  0
   39.4940   34.9070   40.5300 C   0  0  0  0  0  3  0  0  0  0  0  0
   41.9890   34.9110   39.9320 O   0  0  0  0  0  0  0  0  0  0  0  0
   42.8010   33.8190   39.5140 C   0  0  0  0  0  3  0  0  0  0  0  0
   43.6210   34.2310   38.9200 H   0  0  0  0  0  0  0  0  0  0  0  0
   41.9000   33.0200   38.7310 O   0  0  0  0  0  0  0  0  0  0  0  0
  1  6  1  0  0  0  0
  2  3  1  0  0  0  0
  2  1  2  0  0  0  0
  3  4  2  0  0  0  0
  4  5  1  0  0  0  0
  5  8  1  0  0  0  0
  6  5  2  0  0  0  0
  7  1  1  0  0  0  0
  9 10  1  0  0  0  0
  9  2  1  0  0  0  0
 10 16  1  0  0  0  0
 11 17  1  0  0  0  0
 11 18  1  0  0  0  0
 11 10  1  0  0  0  0
 12 11  1  0  0  0  0
 13 12  1  0  0  0  0
 13 14  1  0  0  0  0
 14 22  1  0  0  0  0
 14  9  1  0  0  0  0
 15 10  1  0  0  0  0
 19 12  1  0  0  0  0
 20 13  1  0  0  0  0
 21 13  1  0  0  0  0
 23 14  1  0  0  0  0
 24  3  1  0  0  0  0
 26 25  2  6  0  0  0
 26 24  1  0  0  0  0
 26 27  1  0  0  0  0
 27 28  1  0  0  0  0
 29 31  1  0  0  0  0
 29 26  1  0  0  0  0
 30 36  1  0  0  0  0
 31 30  2  0  0  0  0
 32 34  2  0  0  0  0
 32 31  1  0  0  0  0
 33 32  1  0  0  0  0
 34 35  1  0  0  0  0
 35 36  2  0  0  0  0
 37 35  1  0  0  0  0
 38 37  1  0  0  0  0
 39 38  1  0  0  0  0
 40 34  1  0  0  0  0
 40 38  1  0  0  0  0
M  END
>  <minimizedAffinity>
-5.736269

$$$$

 OpenBabel03242520273D

 40 43  0  0  0  0  0  0  0  0999 V2000
   36.7460   29.9700   36.6270 C   0  0  0  0  0  0  0  0  0  0  0  0
   37.2790   29.8030   37.9440 C   0  0  0  0  0  0  0  0  0  0  0  0
   36.8370   28.7340   38.6960 C   0  0  0  0  0  0  0  0  0  0  0  0
   35.9080   27.8860   38.1460 N   0  0  0  0  0  0  0  0  0  0  0  0
   35.4160   28.0560   36.9060 C   0  0  0  0  0  0  0  0  0  0  0  0
   35.8320   29.0880   36.1540 N   0  0  0  0  0  0  0  0  0  0  0  0
   37.0760   30.8000   36.0150 H   0  0  0  0  0  0  0  0  0  0  0  0
   34.6910   27.3600   36.5230 H   0  0  0  0  0  0  0  0  0  0  0  0
   38.2200   30.7660   38.3440 N   0  0  0  0  0  0  0  0  0  0  0  0
   37.8720   32.0110   39.0070 C   0  0  0  0  0  0  0  0  0  0  0  0
   39.0930   32.7550   39.4120 C   0  0  0  0  0  0  0  0  0  0  0  0
   40.0210   32.9260   38.3260 N   0  0  0  0  0  0  0  0  0  0  0  0
   40.3460   31.7330   37.6060 C   0  0  0  0  0  0  0  0  0  0  0  0
   39.6320   30.5070   38.0810 C   0  0  0  0  0  0  0  0  0  0  0  0
   37.3440   32.6310   38.2330 H   0  0  0  0  0  0  0  0  0  0  0  0
   37.1970   31.8890   39.8540 H   0  0  0  0  0  0  0  0  0  0  0  0
   39.5600   32.2910   40.3010 H   0  0  0  0  0  0  0  0  0  0  0  0
   38.7890   33.7710   39.7300 H   0  0  0  0  0  0  0  0  0  0  0  0
   40.8350   33.4830   38.6230 H   0  0  0  0  0  0  0  0  0  0  0  0
   40.2120   31.8040   36.5220 H   0  0  0  0  0  0  0  0  0  0  0  0
   41.4480   31.5560   37.7780 H   0  0  0  0  0  0  0  0  0  0  0  0
   40.0740   30.2310   39.0640 H   0  0  0  0  0  0  0  0  0  0  0  0
   39.7780   29.7030   37.3520 H   0  0  0  0  0  0  0  0  0  0  0  0
   37.3620   28.5930   39.9600 O   0  0  0  0  0  0  0  0  0  0  0  0
   37.1930   30.2670   41.9960 O   0  0  0  0  0  0  0  0  0  0  0  0
   36.4440   29.1310   41.3140 P   0  0  1  0  0  0  0  0  0  0  0  0
   34.9540   29.6420   40.7510 O   0  0  0  0  0  0  0  0  0  0  0  0
   34.6310   29.0780   40.0060 H   0  0  0  0  0  0  0  0  0  0  0  0
   36.3120   27.8340   42.3810 O   0  0  0  0  0  0  0  0  0  0  0  0
   37.4220   25.8250   41.9250 C   0  0  0  0  0  3  0  0  0  0  0  0
   37.4630   27.0470   42.5670 C   0  0  0  0  0  0  0  0  0  0  0  0
   38.5400   27.4620   43.3280 C   0  0  0  0  0  0  0  0  0  0  0  0
   38.5130   28.4120   43.7990 H   0  0  0  0  0  0  0  0  0  0  0  0
   39.5880   26.5670   43.4080 C   0  0  0  0  0  0  0  0  0  0  0  0
   39.6050   25.3350   42.7890 C   0  0  0  0  0  0  0  0  0  0  0  0
   38.4980   24.9620   42.0340 C   0  0  0  0  0  3  0  0  0  0  0  0
   40.8230   24.6970   43.0860 O   0  0  0  0  0  0  0  0  0  0  0  0
   41.7010   25.7110   43.5600 C   0  0  0  0  0  3  0  0  0  0  0  0
   42.3360   25.2610   44.3280 H   0  0  0  0  0  0  0  0  0  0  0  0
   40.8050   26.6980   44.0960 O   0  0  0  0  0  0  0  0  0  0  0  0
  1  2  1  0  0  0  0
  2  9  1  0  0  0  0
  2  3  2  0  0  0  0
  3 24  1  0  0  0  0
  4  3  1  0  0  0  0
  5  4  2  0  0  0  0
  6  1  2  0  0  0  0
  6  5  1  0  0  0  0
  7  1  1  0  0  0  0
  8  5  1  0  0  0  0
  9 10  1  0  0  0  0
 10 11  1  0  0  0  0
 10 16  1  0  0  0  0
 11 18  1  0  0  0  0
 11 17  1  0  0  0  0
 12 19  1  0  0  0  0
 12 11  1  0  0  0  0
 13 21  1  0  0  0  0
 13 14  1  0  0  0  0
 13 12  1  0  0  0  0
 14  9  1  0  0  0  0
 14 22  1  0  0  0  0
 15 10  1  0  0  0  0
 20 13  1  0  0  0  0
 23 14  1  0  0  0  0
 24 26  1  0  0  0  0
 26 25  2  1  0  0  0
 26 29  1  0  0  0  0
 27 26  1  0  0  0  0
 28 27  1  0  0  0  0
 29 31  1  0  0  0  0
 30 36  2  0  0  0  0
 30 31  1  0  0  0  0
 31 32  2  0  0  0  0
 32 34  1  0  0  0  0
 32 33  1  0  0  0  0
 34 40  1  0  0  0  0
 35 37  1  0  0  0  0
 35 34  2  0  0  0  0
 36 35  1  0  0  0  0
 37 38  1  0  0  0  0
 38 40  1  0  0  0  0
 38 39  1  0  0  0  0
M  END
>  <minimizedAffinity>
-5.71525908

$$$$

 OpenBabel03242520273D

 40 43  0  0  0  0  0  0  0  0999 V2000
   37.2270   30.8200   36.4580 C   0  0  0  0  0  0  0  0  0  0  0  0
   37.4010   30.5400   37.8500 C   0  0  0  0  0  0  0  0  0  0  0  0
   36.9580   29.3250   38.3300 C   0  0  0  0  0  0  0  0  0  0  0  0
   36.3740   28.4460   37.4520 N   0  0  0  0  0  0  0  0  0  0  0  0
   36.2170   28.7240   36.1460 C   0  0  0  0  0  0  0  0  0  0  0  0
   36.6400   29.9000   35.6540 N   0  0  0  0  0  0  0  0  0  0  0  0
   37.5650   31.7660   36.0530 H   0  0  0  0  0  0  0  0  0  0  0  0
   35.7530   27.9990   35.5000 H   0  0  0  0  0  0  0  0  0  0  0  0
   38.0190   31.5540   38.6000 N   0  0  0  0  0  0  0  0  0  0  0  0
   37.3340   32.7480   39.0650 C   0  0  0  0  0  0  0  0  0  0  0  0
   38.2220   33.5630   39.9330 C   0  0  0  0  0  0  0  0  0  0  0  0
   39.4950   33.8360   39.3200 N   0  0  0  0  0  0  0  0  0  0  0  0
   40.1770   32.6950   38.7940 C   0  0  0  0  0  0  0  0  0  0  0  0
   39.4310   31.4050   38.9340 C   0  0  0  0  0  0  0  0  0  0  0  0
   37.1180   33.3540   38.1440 H   0  0  0  0  0  0  0  0  0  0  0  0
   36.3850   32.5490   39.5630 H   0  0  0  0  0  0  0  0  0  0  0  0
   38.3220   33.1040   40.9350 H   0  0  0  0  0  0  0  0  0  0  0  0
   37.7360   34.5430   40.1010 H   0  0  0  0  0  0  0  0  0  0  0  0
   40.0700   34.4400   39.9240 H   0  0  0  0  0  0  0  0  0  0  0  0
   40.4900   32.7920   37.7490 H   0  0  0  0  0  0  0  0  0  0  0  0
   41.1240   32.5910   39.3990 H   0  0  0  0  0  0  0  0  0  0  0  0
   39.4570   31.1290   40.0110 H   0  0  0  0  0  0  0  0  0  0  0  0
   39.9240   30.6400   38.3270 H   0  0  0  0  0  0  0  0  0  0  0  0
   37.1360   29.0770   39.6720 O   0  0  0  0  0  0  0  0  0  0  0  0
   36.0730   30.7450   41.4220 O   0  0  0  0  0  0  0  0  0  0  0  0
   35.8400   29.3940   40.7610 P   0  0  1  0  0  0  0  0  0  0  0  0
   34.4190   29.3900   39.8780 O   0  0  0  0  0  0  0  0  0  0  0  0
   34.4330   28.7090   39.1620 H   0  0  0  0  0  0  0  0  0  0  0  0
   35.8630   28.1880   41.9380 O   0  0  0  0  0  0  0  0  0  0  0  0
   37.9450   28.4280   42.9780 C   0  0  0  0  0  3  0  0  0  0  0  0
   37.1130   27.6160   42.2340 C   0  0  0  0  0  0  0  0  0  0  0  0
   37.4760   26.3490   41.8150 C   0  0  0  0  0  0  0  0  0  0  0  0
   36.7930   25.7700   41.2450 H   0  0  0  0  0  0  0  0  0  0  0  0
   38.7390   25.9400   42.1920 C   0  0  0  0  0  0  0  0  0  0  0  0
   39.6130   26.7060   42.9340 C   0  0  0  0  0  0  0  0  0  0  0  0
   39.2030   27.9740   43.3310 C   0  0  0  0  0  3  0  0  0  0  0  0
   40.8000   25.9770   43.1290 O   0  0  0  0  0  0  0  0  0  0  0  0
   40.4880   24.6190   42.8390 C   0  0  0  0  0  3  0  0  0  0  0  0
   41.3730   24.1700   42.3810 H   0  0  0  0  0  0  0  0  0  0  0  0
   39.3860   24.7230   41.9230 O   0  0  0  0  0  0  0  0  0  0  0  0
  1  2  1  0  0  0  0
  2  3  2  0  0  0  0
  2  9  1  0  0  0  0
  3 24  1  0  0  0  0
  4  3  1  0  0  0  0
  5  4  2  0  0  0  0
  6  5  1  0  0  0  0
  6  1  2  0  0  0  0
  7  1  1  0  0  0  0
  8  5  1  0  0  0  0
  9 14  1  0  0  0  0
  9 10  1  0  0  0  0
 10 16  1  0  0  0  0
 10 11  1  0  0  0  0
 11 18  1  0  0  0  0
 11 17  1  0  0  0  0
 12 19  1  0  0  0  0
 12 11  1  0  0  0  0
 13 14  1  0  0  0  0
 13 12  1  0  0  0  0
 13 21  1  0  0  0  0
 14 22  1  0  0  0  0
 15 10  1  0  0  0  0
 20 13  1  0  0  0  0
 23 14  1  0  0  0  0
 24 26  1  0  0  0  0
 26 25  2  1  0  0  0
 26 29  1  0  0  0  0
 27 26  1  0  0  0  0
 28 27  1  0  0  0  0
 29 31  1  0  0  0  0
 30 36  1  0  0  0  0
 31 30  2  0  0  0  0
 32 34  2  0  0  0  0
 32 31  1  0  0  0  0
 33 32  1  0  0  0  0
 34 35  1  0  0  0  0
 35 37  1  0  0  0  0
 35 36  2  0  0  0  0
 38 37  1  0  0  0  0
 39 38  1  0  0  0  0
 40 34  1  0  0  0  0
 40 38  1  0  0  0  0
M  END
>  <minimizedAffinity>
-5.58065653

$$$$

 OpenBabel03242520273D

 40 43  0  0  0  0  0  0  0  0999 V2000
   36.8310   30.4820   37.9740 C   0  0  0  0  0  0  0  0  0  0  0  0
   37.8400   30.2680   38.9650 C   0  0  0  0  0  0  0  0  0  0  0  0
   37.6780   29.2170   39.8440 C   0  0  0  0  0  0  0  0  0  0  0  0
   36.5590   28.4300   39.7250 N   0  0  0  0  0  0  0  0  0  0  0  0
   35.6190   28.6440   38.7880 C   0  0  0  0  0  0  0  0  0  0  0  0
   35.7540   29.6600   37.9200 N   0  0  0  0  0  0  0  0  0  0  0  0
   36.9330   31.2990   37.2700 H   0  0  0  0  0  0  0  0  0  0  0  0
   34.7620   27.9960   38.7380 H   0  0  0  0  0  0  0  0  0  0  0  0
   38.9160   31.1700   38.9400 N   0  0  0  0  0  0  0  0  0  0  0  0
   38.9770   32.3790   39.7430 C   0  0  0  0  0  0  0  0  0  0  0  0
   40.2920   33.0530   39.5860 C   0  0  0  0  0  0  0  0  0  0  0  0
   40.6430   33.2650   38.2070 N   0  0  0  0  0  0  0  0  0  0  0  0
   40.5390   32.1130   37.3660 C   0  0  0  0  0  0  0  0  0  0  0  0
   40.0410   30.8820   38.0570 C   0  0  0  0  0  0  0  0  0  0  0  0
   38.1960   33.0660   39.3190 H   0  0  0  0  0  0  0  0  0  0  0  0
   38.7470   32.2230   40.7970 H   0  0  0  0  0  0  0  0  0  0  0  0
   41.0790   32.5160   40.1480 H   0  0  0  0  0  0  0  0  0  0  0  0
   40.2240   34.0550   40.0520 H   0  0  0  0  0  0  0  0  0  0  0  0
   41.5350   33.7730   38.1300 H   0  0  0  0  0  0  0  0  0  0  0  0
   39.9370   32.2600   36.4640 H   0  0  0  0  0  0  0  0  0  0  0  0
   41.5870   31.8880   37.0140 H   0  0  0  0  0  0  0  0  0  0  0  0
   40.8600   30.5270   38.7210 H   0  0  0  0  0  0  0  0  0  0  0  0
   39.7970   30.1250   37.3050 H   0  0  0  0  0  0  0  0  0  0  0  0
   38.6600   29.0300   40.7890 O   0  0  0  0  0  0  0  0  0  0  0  0
   39.2120   30.4200   42.9650 O   0  0  0  0  0  0  0  0  0  0  0  0
   38.2950   29.3230   42.4460 P   0  0  1  0  0  0  0  0  0  0  0  0
   36.6890   29.7820   42.5420 O   0  0  0  0  0  0  0  0  0  0  0  0
   36.1280   29.2910   41.8920 H   0  0  0  0  0  0  0  0  0  0  0  0
   38.6010   27.8970   43.2900 O   0  0  0  0  0  0  0  0  0  0  0  0
   39.9230   26.2980   42.2090 C   0  0  0  0  0  3  0  0  0  0  0  0
   38.6470   26.7110   42.5360 C   0  0  0  0  0  0  0  0  0  0  0  0
   37.5120   26.0200   42.1540 C   0  0  0  0  0  0  0  0  0  0  0  0
   36.5570   26.3870   42.4350 H   0  0  0  0  0  0  0  0  0  0  0  0
   37.7350   24.8760   41.4170 C   0  0  0  0  0  0  0  0  0  0  0  0
   38.9850   24.4140   41.0610 C   0  0  0  0  0  0  0  0  0  0  0  0
   40.0960   25.1420   41.4680 C   0  0  0  0  0  3  0  0  0  0  0  0
   38.8340   23.2300   40.3160 O   0  0  0  0  0  0  0  0  0  0  0  0
   37.5100   22.7680   40.5610 C   0  0  0  0  0  3  0  0  0  0  0  0
   37.1480   22.3060   39.6390 H   0  0  0  0  0  0  0  0  0  0  0  0
   36.7980   23.9720   40.8900 O   0  0  0  0  0  0  0  0  0  0  0  0
  1  2  1  0  0  0  0
  2  3  2  0  0  0  0
  3 24  1  0  0  0  0
  4  3  1  0  0  0  0
  5  4  2  0  0  0  0
  6  1  2  0  0  0  0
  6  5  1  0  0  0  0
  7  1  1  0  0  0  0
  8  5  1  0  0  0  0
  9  2  1  0  0  0  0
  9 10  1  0  0  0  0
 10 16  1  0  0  0  0
 11 10  1  0  0  0  0
 11 18  1  0  0  0  0
 11 17  1  0  0  0  0
 12 11  1  0  0  0  0
 13 14  1  0  0  0  0
 13 12  1  0  0  0  0
 14 22  1  0  0  0  0
 14  9  1  0  0  0  0
 15 10  1  0  0  0  0
 19 12  1  0  0  0  0
 20 13  1  0  0  0  0
 21 13  1  0  0  0  0
 23 14  1  0  0  0  0
 24 26  1  0  0  0  0
 26 27  1  0  0  0  0
 26 25  2  1  0  0  0
 26 29  1  0  0  0  0
 28 27  1  0  0  0  0
 30 31  1  0  0  0  0
 31 29  1  0  0  0  0
 32 33  1  0  0  0  0
 32 31  2  0  0  0  0
 34 32  1  0  0  0  0
 35 34  2  0  0  0  0
 35 36  1  0  0  0  0
 36 30  2  0  0  0  0
 37 38  1  0  0  0  0
 37 35  1  0  0  0  0
 38 40  1  0  0  0  0
 39 38  1  0  0  0  0
 40 34  1  0  0  0  0
M  END
>  <minimizedAffinity>
-5.51095486

$$$$
