
 OpenBabel03242520263D

 40 43  0  0  0  0  0  0  0  0999 V2000
   45.1440   35.6530   43.5420 C   0  0  0  0  0  0  0  0  0  0  0  0
   46.0620   34.5550   43.5560 C   0  0  0  0  0  0  0  0  0  0  0  0
   46.1780   33.8170   44.7160 C   0  0  0  0  0  0  0  0  0  0  0  0
   45.4100   34.1720   45.7970 N   0  0  0  0  0  0  0  0  0  0  0  0
   44.5520   35.2060   45.7690 C   0  0  0  0  0  0  0  0  0  0  0  0
   44.4210   35.9390   44.6520 N   0  0  0  0  0  0  0  0  0  0  0  0
   45.0320   36.2490   42.6440 H   0  0  0  0  0  0  0  0  0  0  0  0
   43.9730   35.4410   46.6450 H   0  0  0  0  0  0  0  0  0  0  0  0
   46.7650   34.3370   42.3600 N   0  0  0  0  0  0  0  0  0  0  0  0
   47.9420   35.0900   41.9640 C   0  0  0  0  0  0  0  0  0  0  0  0
   48.5260   34.5410   40.7130 C   0  0  0  0  0  0  0  0  0  0  0  0
   47.5540   34.4070   39.6620 N   0  0  0  0  0  0  0  0  0  0  0  0
   46.3510   33.7230   40.0250 C   0  0  0  0  0  0  0  0  0  0  0  0
   46.2890   33.2940   41.4570 C   0  0  0  0  0  0  0  0  0  0  0  0
   47.5770   36.1280   41.7360 H   0  0  0  0  0  0  0  0  0  0  0  0
   48.7010   35.1680   42.7420 H   0  0  0  0  0  0  0  0  0  0  0  0
   49.0690   33.5990   40.9130 H   0  0  0  0  0  0  0  0  0  0  0  0
   49.2910   35.2530   40.3470 H   0  0  0  0  0  0  0  0  0  0  0  0
   47.9950   34.0680   38.7950 H   0  0  0  0  0  0  0  0  0  0  0  0
   45.4300   34.2680   39.7950 H   0  0  0  0  0  0  0  0  0  0  0  0
   46.3270   32.7830   39.4010 H   0  0  0  0  0  0  0  0  0  0  0  0
   47.0010   32.4470   41.5750 H   0  0  0  0  0  0  0  0  0  0  0  0
   45.2680   32.9760   41.6910 H   0  0  0  0  0  0  0  0  0  0  0  0
   47.0670   32.7670   44.7070 O   0  0  0  0  0  0  0  0  0  0  0  0
   45.1970   31.0760   43.9190 O   0  0  0  0  0  0  0  0  0  0  0  0
   46.4600   31.1560   44.7650 P   0  0  1  0  0  0  0  0  0  0  0  0
   47.6500   30.1410   44.1710 O   0  0  0  0  0  0  0  0  0  0  0  0
   48.5540   30.4400   44.4380 H   0  0  0  0  0  0  0  0  0  0  0  0
   46.0760   30.8190   46.3700 O   0  0  0  0  0  0  0  0  0  0  0  0
   47.5870   29.3090   47.3250 C   0  0  0  0  0  3  0  0  0  0  0  0
   47.1540   30.6180   47.2510 C   0  0  0  0  0  0  0  0  0  0  0  0
   47.7280   31.6430   47.9800 C   0  0  0  0  0  0  0  0  0  0  0  0
   47.3510   32.6300   47.8820 H   0  0  0  0  0  0  0  0  0  0  0  0
   48.7760   31.2720   48.7970 C   0  0  0  0  0  0  0  0  0  0  0  0
   49.2530   29.9830   48.9120 C   0  0  0  0  0  0  0  0  0  0  0  0
   48.6440   28.9870   48.1590 C   0  0  0  0  0  3  0  0  0  0  0  0
   50.3200   29.9760   49.8290 O   0  0  0  0  0  0  0  0  0  0  0  0
   50.7390   31.3290   49.9660 C   0  0  0  0  0  3  0  0  0  0  0  0
   51.0570   31.4690   51.0040 H   0  0  0  0  0  0  0  0  0  0  0  0
   49.5530   32.0750   49.6490 O   0  0  0  0  0  0  0  0  0  0  0  0
  1  2  2  0  0  0  0
  1  6  1  0  0  0  0
  2  3  1  0  0  0  0
  3  4  2  0  0  0  0
  5  4  1  0  0  0  0
  5  8  1  0  0  0  0
  6  5  2  0  0  0  0
  7  1  1  0  0  0  0
  9  2  1  0  0  0  0
 10  9  1  0  0  0  0
 10 16  1  0  0  0  0
 11 17  1  0  0  0  0
 11 10  1  0  0  0  0
 12 13  1  0  0  0  0
 12 11  1  0  0  0  0
 13 14  1  0  0  0  0
 14 22  1  0  0  0  0
 14 23  1  0  0  0  0
 14  9  1  0  0  0  0
 15 10  1  0  0  0  0
 18 11  1  0  0  0  0
 19 12  1  0  0  0  0
 20 13  1  0  0  0  0
 21 13  1  0  0  0  0
 24  3  1  0  0  0  0
 24 26  1  0  0  0  0
 26 25  2  6  0  0  0
 26 29  1  0  0  0  0
 27 28  1  0  0  0  0
 27 26  1  0  0  0  0
 29 31  1  0  0  0  0
 30 36  1  0  0  0  0
 31 30  2  0  0  0  0
 31 32  1  0  0  0  0
 32 34  2  0  0  0  0
 33 32  1  0  0  0  0
 34 35  1  0  0  0  0
 34 40  1  0  0  0  0
 35 37  1  0  0  0  0
 36 35  2  0  0  0  0
 37 38  1  0  0  0  0
 38 39  1  0  0  0  0
 40 38  1  0  0  0  0
M  END
>  <minimizedAffinity>
-5.49784231

>  <minimizedRMSD>
1.6922853

$$$$
