
 OpenBabel03242520263D

 40 43  0  0  0  0  0  0  0  0999 V2000
   45.1400   35.6520   43.5080 C   0  0  0  0  0  0  0  0  0  0  0  0
   46.0650   34.5610   43.5300 C   0  0  0  0  0  0  0  0  0  0  0  0
   46.1820   33.8300   44.6950 C   0  0  0  0  0  0  0  0  0  0  0  0
   45.4080   34.1850   45.7720 N   0  0  0  0  0  0  0  0  0  0  0  0
   44.5440   35.2150   45.7350 C   0  0  0  0  0  0  0  0  0  0  0  0
   44.4110   35.9410   44.6140 N   0  0  0  0  0  0  0  0  0  0  0  0
   45.0270   36.2430   42.6070 H   0  0  0  0  0  0  0  0  0  0  0  0
   43.9610   35.4500   46.6090 H   0  0  0  0  0  0  0  0  0  0  0  0
   46.7720   34.3400   42.3380 N   0  0  0  0  0  0  0  0  0  0  0  0
   47.9480   35.0970   41.9430 C   0  0  0  0  0  0  0  0  0  0  0  0
   48.5390   34.5450   40.6960 C   0  0  0  0  0  0  0  0  0  0  0  0
   47.5700   34.4030   39.6420 N   0  0  0  0  0  0  0  0  0  0  0  0
   46.3700   33.7150   40.0040 C   0  0  0  0  0  0  0  0  0  0  0  0
   46.3040   33.2920   41.4380 C   0  0  0  0  0  0  0  0  0  0  0  0
   47.5800   36.1320   41.7090 H   0  0  0  0  0  0  0  0  0  0  0  0
   48.7040   35.1800   42.7240 H   0  0  0  0  0  0  0  0  0  0  0  0
   49.0850   33.6050   40.9020 H   0  0  0  0  0  0  0  0  0  0  0  0
   49.3010   35.2590   40.3300 H   0  0  0  0  0  0  0  0  0  0  0  0
   48.0160   34.0620   38.7780 H   0  0  0  0  0  0  0  0  0  0  0  0
   45.4470   34.2550   39.7690 H   0  0  0  0  0  0  0  0  0  0  0  0
   46.3510   32.7720   39.3840 H   0  0  0  0  0  0  0  0  0  0  0  0
   47.0190   32.4480   41.5620 H   0  0  0  0  0  0  0  0  0  0  0  0
   45.2830   32.9710   41.6690 H   0  0  0  0  0  0  0  0  0  0  0  0
   47.0760   32.7850   44.6950 O   0  0  0  0  0  0  0  0  0  0  0  0
   45.2530   31.0510   43.8930 O   0  0  0  0  0  0  0  0  0  0  0  0
   46.4800   31.1720   44.7840 P   0  0  1  0  0  0  0  0  0  0  0  0
   47.7000   30.1480   44.2730 O   0  0  0  0  0  0  0  0  0  0  0  0
   48.5910   30.4640   44.5640 H   0  0  0  0  0  0  0  0  0  0  0  0
   46.0360   30.8860   46.3840 O   0  0  0  0  0  0  0  0  0  0  0  0
   47.3140   32.1350   47.8960 C   0  0  0  0  0  3  0  0  0  0  0  0
   47.0690   30.8950   47.3390 C   0  0  0  0  0  0  0  0  0  0  0  0
   47.7760   29.7600   47.6910 C   0  0  0  0  0  0  0  0  0  0  0  0
   47.5430   28.8330   47.2280 H   0  0  0  0  0  0  0  0  0  0  0  0
   48.7550   29.9440   48.6450 C   0  0  0  0  0  0  0  0  0  0  0  0
   49.0450   31.1570   49.2350 C   0  0  0  0  0  0  0  0  0  0  0  0
   48.3070   32.2690   48.8490 C   0  0  0  0  0  3  0  0  0  0  0  0
   50.0940   30.9730   50.1550 O   0  0  0  0  0  0  0  0  0  0  0  0
   50.1680   29.5730   50.4020 C   0  0  0  0  0  3  0  0  0  0  0  0
   51.2220   29.3230   50.5510 H   0  0  0  0  0  0  0  0  0  0  0  0
   49.6310   28.9980   49.2010 O   0  0  0  0  0  0  0  0  0  0  0  0
  1  2  2  0  0  0  0
  1  6  1  0  0  0  0
  2  3  1  0  0  0  0
  3 24  1  0  0  0  0
  3  4  2  0  0  0  0
  5  4  1  0  0  0  0
  5  8  1  0  0  0  0
  6  5  2  0  0  0  0
  7  1  1  0  0  0  0
  9  2  1  0  0  0  0
 10  9  1  0  0  0  0
 10 16  1  0  0  0  0
 11 17  1  0  0  0  0
 11 10  1  0  0  0  0
 12 13  1  0  0  0  0
 12 11  1  0  0  0  0
 13 14  1  0  0  0  0
 14 22  1  0  0  0  0
 14 23  1  0  0  0  0
 14  9  1  0  0  0  0
 15 10  1  0  0  0  0
 18 11  1  0  0  0  0
 19 12  1  0  0  0  0
 20 13  1  0  0  0  0
 21 13  1  0  0  0  0
 24 26  1  0  0  0  0
 26 25  2  6  0  0  0
 26 29  1  0  0  0  0
 27 28  1  0  0  0  0
 27 26  1  0  0  0  0
 29 31  1  0  0  0  0
 30 36  1  0  0  0  0
 31 32  1  0  0  0  0
 31 30  2  0  0  0  0
 32 34  2  0  0  0  0
 33 32  1  0  0  0  0
 34 40  1  0  0  0  0
 34 35  1  0  0  0  0
 35 37  1  0  0  0  0
 36 35  2  0  0  0  0
 37 38  1  0  0  0  0
 38 39  1  0  0  0  0
 40 38  1  0  0  0  0
M  END
>  <minimizedAffinity>
-5.66957712

>  <minimizedRMSD>
1.64288735

$$$$
