
 OpenBabel03242520263D

 40 43  0  0  0  0  0  0  0  0999 V2000
   45.1130   35.6390   43.4680 C   0  0  0  0  0  0  0  0  0  0  0  0
   46.0330   34.5440   43.4850 C   0  0  0  0  0  0  0  0  0  0  0  0
   46.1690   33.8250   44.6560 C   0  0  0  0  0  0  0  0  0  0  0  0
   45.4170   34.1960   45.7430 N   0  0  0  0  0  0  0  0  0  0  0  0
   44.5570   35.2280   45.7110 C   0  0  0  0  0  0  0  0  0  0  0  0
   44.4060   35.9420   44.5840 N   0  0  0  0  0  0  0  0  0  0  0  0
   44.9850   36.2200   42.5630 H   0  0  0  0  0  0  0  0  0  0  0  0
   43.9910   35.4760   46.5930 H   0  0  0  0  0  0  0  0  0  0  0  0
   46.7170   34.3070   42.2820 N   0  0  0  0  0  0  0  0  0  0  0  0
   47.8890   35.0530   41.8580 C   0  0  0  0  0  0  0  0  0  0  0  0
   48.4540   34.4850   40.6060 C   0  0  0  0  0  0  0  0  0  0  0  0
   47.4650   34.3370   39.5720 N   0  0  0  0  0  0  0  0  0  0  0  0
   46.2680   33.6600   39.9630 C   0  0  0  0  0  0  0  0  0  0  0  0
   46.2270   33.2520   41.4020 C   0  0  0  0  0  0  0  0  0  0  0  0
   47.5220   36.0870   41.6200 H   0  0  0  0  0  0  0  0  0  0  0  0
   48.6600   35.1400   42.6230 H   0  0  0  0  0  0  0  0  0  0  0  0
   48.9980   33.5440   40.8110 H   0  0  0  0  0  0  0  0  0  0  0  0
   49.2130   35.1910   40.2180 H   0  0  0  0  0  0  0  0  0  0  0  0
   47.8930   33.9850   38.7030 H   0  0  0  0  0  0  0  0  0  0  0  0
   45.3430   34.2020   39.7390 H   0  0  0  0  0  0  0  0  0  0  0  0
   46.2320   32.7100   39.3540 H   0  0  0  0  0  0  0  0  0  0  0  0
   46.9390   32.4060   41.5220 H   0  0  0  0  0  0  0  0  0  0  0  0
   45.2090   32.9380   41.6560 H   0  0  0  0  0  0  0  0  0  0  0  0
   47.0590   32.7760   44.6500 O   0  0  0  0  0  0  0  0  0  0  0  0
   45.2280   31.0380   43.8740 O   0  0  0  0  0  0  0  0  0  0  0  0
   46.4580   31.1660   44.7610 P   0  0  1  0  0  0  0  0  0  0  0  0
   47.6740   30.1320   44.2610 O   0  0  0  0  0  0  0  0  0  0  0  0
   48.5660   30.4480   44.5460 H   0  0  0  0  0  0  0  0  0  0  0  0
   46.0150   30.9020   46.3650 O   0  0  0  0  0  0  0  0  0  0  0  0
   47.3010   32.1360   47.8810 C   0  0  0  0  0  3  0  0  0  0  0  0
   47.0510   30.9010   47.3160 C   0  0  0  0  0  0  0  0  0  0  0  0
   47.7570   29.7630   47.6560 C   0  0  0  0  0  0  0  0  0  0  0  0
   47.5200   28.8400   47.1880 H   0  0  0  0  0  0  0  0  0  0  0  0
   48.7410   29.9370   48.6070 C   0  0  0  0  0  0  0  0  0  0  0  0
   49.0360   31.1450   49.2060 C   0  0  0  0  0  0  0  0  0  0  0  0
   48.2990   32.2620   48.8320 C   0  0  0  0  0  3  0  0  0  0  0  0
   50.0880   30.9510   50.1200 O   0  0  0  0  0  0  0  0  0  0  0  0
   50.1590   29.5500   50.3560 C   0  0  0  0  0  3  0  0  0  0  0  0
   51.2130   29.2970   50.5000 H   0  0  0  0  0  0  0  0  0  0  0  0
   49.6160   28.9840   49.1530 O   0  0  0  0  0  0  0  0  0  0  0  0
  1  2  2  0  0  0  0
  1  6  1  0  0  0  0
  2  3  1  0  0  0  0
  3  4  2  0  0  0  0
  5  4  1  0  0  0  0
  5  8  1  0  0  0  0
  6  5  2  0  0  0  0
  7  1  1  0  0  0  0
  9  2  1  0  0  0  0
 10  9  1  0  0  0  0
 10 16  1  0  0  0  0
 11 17  1  0  0  0  0
 11 10  1  0  0  0  0
 12 13  1  0  0  0  0
 12 11  1  0  0  0  0
 13 14  1  0  0  0  0
 14 22  1  0  0  0  0
 14 23  1  0  0  0  0
 14  9  1  0  0  0  0
 15 10  1  0  0  0  0
 18 11  1  0  0  0  0
 19 12  1  0  0  0  0
 20 13  1  0  0  0  0
 21 13  1  0  0  0  0
 24  3  1  0  0  0  0
 24 26  1  0  0  0  0
 26 25  2  6  0  0  0
 26 29  1  0  0  0  0
 27 28  1  0  0  0  0
 27 26  1  0  0  0  0
 29 31  1  0  0  0  0
 30 36  1  0  0  0  0
 31 32  1  0  0  0  0
 31 30  2  0  0  0  0
 32 34  2  0  0  0  0
 33 32  1  0  0  0  0
 34 40  1  0  0  0  0
 34 35  1  0  0  0  0
 35 37  1  0  0  0  0
 36 35  2  0  0  0  0
 37 38  1  0  0  0  0
 38 39  1  0  0  0  0
 40 38  1  0  0  0  0
M  END
>  <minimizedAffinity>
-5.67051983

>  <minimizedRMSD>
1.57685924

$$$$
