
 OpenBabel03242520263D

 40 43  0  0  0  0  0  0  0  0999 V2000
   45.1330   35.6860   43.3200 C   0  0  0  0  0  0  0  0  0  0  0  0
   46.0310   34.5730   43.3550 C   0  0  0  0  0  0  0  0  0  0  0  0
   46.1520   33.8700   44.5360 C   0  0  0  0  0  0  0  0  0  0  0  0
   45.4060   34.2720   45.6170 N   0  0  0  0  0  0  0  0  0  0  0  0
   44.5660   35.3200   45.5680 C   0  0  0  0  0  0  0  0  0  0  0  0
   44.4310   36.0200   44.4300 N   0  0  0  0  0  0  0  0  0  0  0  0
   45.0180   36.2550   42.4050 H   0  0  0  0  0  0  0  0  0  0  0  0
   44.0050   35.5920   46.4450 H   0  0  0  0  0  0  0  0  0  0  0  0
   46.7120   34.3050   42.1560 N   0  0  0  0  0  0  0  0  0  0  0  0
   47.9000   35.0200   41.7240 C   0  0  0  0  0  0  0  0  0  0  0  0
   48.4550   34.4220   40.4810 C   0  0  0  0  0  0  0  0  0  0  0  0
   47.4650   34.2800   39.4470 N   0  0  0  0  0  0  0  0  0  0  0  0
   46.2530   33.6340   39.8460 C   0  0  0  0  0  0  0  0  0  0  0  0
   46.2010   33.2470   41.2910 C   0  0  0  0  0  0  0  0  0  0  0  0
   47.5550   36.0580   41.4700 H   0  0  0  0  0  0  0  0  0  0  0  0
   48.6720   35.1020   42.4890 H   0  0  0  0  0  0  0  0  0  0  0  0
   48.9790   33.4740   40.7010 H   0  0  0  0  0  0  0  0  0  0  0  0
   49.2290   35.1060   40.0840 H   0  0  0  0  0  0  0  0  0  0  0  0
   47.8870   33.9060   38.5850 H   0  0  0  0  0  0  0  0  0  0  0  0
   45.3400   34.1920   39.6130 H   0  0  0  0  0  0  0  0  0  0  0  0
   46.1990   32.6770   39.2500 H   0  0  0  0  0  0  0  0  0  0  0  0
   46.8960   32.3880   41.4240 H   0  0  0  0  0  0  0  0  0  0  0  0
   45.1770   32.9590   41.5470 H   0  0  0  0  0  0  0  0  0  0  0  0
   47.0210   32.8040   44.5480 O   0  0  0  0  0  0  0  0  0  0  0  0
   45.1660   31.0790   43.8010 O   0  0  0  0  0  0  0  0  0  0  0  0
   46.3890   31.2090   44.6970 P   0  0  1  0  0  0  0  0  0  0  0  0
   47.5900   30.1390   44.2360 O   0  0  0  0  0  0  0  0  0  0  0  0
   48.4850   30.4470   44.5210 H   0  0  0  0  0  0  0  0  0  0  0  0
   45.9270   30.9970   46.3030 O   0  0  0  0  0  0  0  0  0  0  0  0
   47.1960   32.2620   47.8090 C   0  0  0  0  0  3  0  0  0  0  0  0
   46.9530   31.0160   47.2650 C   0  0  0  0  0  0  0  0  0  0  0  0
   47.6560   29.8850   47.6340 C   0  0  0  0  0  0  0  0  0  0  0  0
   47.4260   28.9520   47.1800 H   0  0  0  0  0  0  0  0  0  0  0  0
   48.6300   30.0790   48.5920 C   0  0  0  0  0  0  0  0  0  0  0  0
   48.9180   31.2980   49.1700 C   0  0  0  0  0  0  0  0  0  0  0  0
   48.1830   32.4060   48.7670 C   0  0  0  0  0  3  0  0  0  0  0  0
   49.9600   31.1230   50.0980 O   0  0  0  0  0  0  0  0  0  0  0  0
   50.0310   29.7260   50.3620 C   0  0  0  0  0  3  0  0  0  0  0  0
   51.0840   29.4770   50.5220 H   0  0  0  0  0  0  0  0  0  0  0  0
   49.5020   29.1370   49.1650 O   0  0  0  0  0  0  0  0  0  0  0  0
  1  2  2  0  0  0  0
  1  6  1  0  0  0  0
  2  3  1  0  0  0  0
  3 24  1  0  0  0  0
  3  4  2  0  0  0  0
  5  4  1  0  0  0  0
  5  8  1  0  0  0  0
  6  5  2  0  0  0  0
  7  1  1  0  0  0  0
  9  2  1  0  0  0  0
 10  9  1  0  0  0  0
 10 16  1  0  0  0  0
 11 17  1  0  0  0  0
 11 10  1  0  0  0  0
 12 13  1  0  0  0  0
 12 11  1  0  0  0  0
 13 14  1  0  0  0  0
 14 22  1  0  0  0  0
 14 23  1  0  0  0  0
 14  9  1  0  0  0  0
 15 10  1  0  0  0  0
 18 11  1  0  0  0  0
 19 12  1  0  0  0  0
 20 13  1  0  0  0  0
 21 13  1  0  0  0  0
 24 26  1  0  0  0  0
 26 25  2  6  0  0  0
 26 29  1  0  0  0  0
 27 28  1  0  0  0  0
 27 26  1  0  0  0  0
 29 31  1  0  0  0  0
 30 36  1  0  0  0  0
 31 32  1  0  0  0  0
 31 30  2  0  0  0  0
 32 34  2  0  0  0  0
 33 32  1  0  0  0  0
 34 40  1  0  0  0  0
 34 35  1  0  0  0  0
 35 37  1  0  0  0  0
 36 35  2  0  0  0  0
 37 38  1  0  0  0  0
 38 39  1  0  0  0  0
 40 38  1  0  0  0  0
M  END
>  <minimizedAffinity>
-5.6958642

>  <minimizedRMSD>
1.55995512

$$$$
