
 OpenBabel03252502233D

 36 39  0  0  1  0  0  0  0  0999 V2000
   46.7990   34.5910   42.2990 N   0  0  0  0  0  0  0  0  0  0  0  0
   48.2550   34.5330   42.3540 C   0  0  0  0  0  0  0  0  0  0  0  0
   48.7080   35.3140   41.1110 C   0  0  0  0  0  0  0  0  0  0  0  0
   48.2840   34.6200   39.8580 C   0  0  0  0  0  0  0  0  0  0  0  0
   46.9280   34.0070   39.9190 C   0  0  0  0  0  0  0  0  0  0  0  0
   46.0720   34.4570   41.0600 C   0  0  1  0  0  0  0  0  0  0  0  0
   48.6600   35.0180   43.2410 H   0  0  0  0  0  0  0  0  0  0  0  0
   48.6580   33.5130   42.2050 H   0  0  0  0  0  0  0  0  0  0  0  0
   48.3960   36.3790   41.1550 H   0  0  0  0  0  0  0  0  0  0  0  0
   49.8300   35.3320   41.1890 H   0  0  0  0  0  0  0  0  0  0  0  0
   48.3990   35.3430   39.0170 H   0  0  0  0  0  0  0  0  0  0  0  0
   49.0380   33.8130   39.6530 H   0  0  0  0  0  0  0  0  0  0  0  0
   46.3950   34.2910   38.9870 H   0  0  0  0  0  0  0  0  0  0  0  0
   46.9710   32.8900   39.9170 H   0  0  0  0  0  0  0  0  0  0  0  0
   45.6220   35.4520   40.8630 H   0  0  0  0  0  0  0  0  0  0  0  0
   44.4620   36.0080   44.8440 C   0  0  0  0  0  0  0  0  0  0  0  0
   45.1700   35.9010   43.6290 C   0  0  0  0  0  0  0  0  0  0  0  0
   46.0390   34.7880   43.4920 C   0  0  0  0  0  0  0  0  0  0  0  0
   46.1330   33.9110   44.5240 N   0  0  0  0  0  0  0  0  0  0  0  0
   45.4250   34.0670   45.6730 C   0  0  0  0  0  0  0  0  0  0  0  0
   44.5940   35.1150   45.8260 N   0  0  0  0  0  0  0  0  0  0  0  0
   43.7970   36.8540   44.9580 H   0  0  0  0  0  0  0  0  0  0  0  0
   45.0810   36.6110   42.8170 H   0  0  0  0  0  0  0  0  0  0  0  0
   45.6050   33.2870   46.4050 H   0  0  0  0  0  0  0  0  0  0  0  0
   45.0720   33.5000   41.2390 O   0  0  0  0  0  0  0  0  0  0  0  0
   42.9900   32.5660   41.5280 C   0  0  0  0  0  3  0  0  0  0  0  0
   43.7280   33.6540   41.0540 C   0  0  0  0  0  0  0  0  0  0  0  0
   43.0150   34.6900   40.4850 C   0  0  0  0  0  0  0  0  0  0  0  0
   43.6470   35.4960   40.1400 H   0  0  0  0  0  0  0  0  0  0  0  0
   41.6380   34.6450   40.3950 C   0  0  0  0  0  0  0  0  0  0  0  0
   40.9420   33.5730   40.8660 C   0  0  0  0  0  0  0  0  0  0  0  0
   41.6150   32.4960   41.4510 C   0  0  0  0  0  3  0  0  0  0  0  0
   39.5770   33.8290   40.6290 O   0  0  0  0  0  0  0  0  0  0  0  0
   39.5210   34.9350   39.7320 C   0  0  0  0  0  3  0  0  0  0  0  0
   38.6870   35.6170   39.9840 H   0  0  0  0  0  0  0  0  0  0  0  0
   40.7780   35.5950   39.8580 O   0  0  0  0  0  0  0  0  0  0  0  0
  1  2  1  0  0  0  0
  1 18  1  0  0  0  0
  2  7  1  0  0  0  0
  3  9  1  0  0  0  0
  3 10  1  0  0  0  0
  3  2  1  0  0  0  0
  4  5  1  0  0  0  0
  4  3  1  0  0  0  0
  5  6  1  0  0  0  0
  6 15  1  6  0  0  0
  6 25  1  0  0  0  0
  6  1  1  0  0  0  0
  8  2  1  0  0  0  0
 11  4  1  0  0  0  0
 12  4  1  0  0  0  0
 13  5  1  0  0  0  0
 14  5  1  0  0  0  0
 16 22  1  0  0  0  0
 16 21  1  0  0  0  0
 17 16  2  0  0  0  0
 18 17  1  0  0  0  0
 18 19  2  0  0  0  0
 19 20  1  0  0  0  0
 20 21  2  0  0  0  0
 20 24  1  0  0  0  0
 23 17  1  0  0  0  0
 27 25  1  0  0  0  0
 27 26  2  0  0  0  0
 28 27  1  0  0  0  0
 29 28  1  0  0  0  0
 30 28  2  0  0  0  0
 30 31  1  0  0  0  0
 31 32  2  0  0  0  0
 32 26  1  0  0  0  0
 33 31  1  0  0  0  0
 34 36  1  0  0  0  0
 34 35  1  0  0  0  0
 34 33  1  0  0  0  0
 36 30  1  0  0  0  0
M  END
>  <minimizedAffinity>
-6.38425875

>  <minimizedRMSD>
0.709532022

$$$$
