
 OpenBabel03252502253D

 36 39  0  0  1  0  0  0  0  0999 V2000
   37.0270   30.6780   39.3380 N   0  0  0  0  0  0  0  0  0  0  0  0
   37.1000   29.9250   38.0920 C   0  0  0  0  0  0  0  0  0  0  0  0
   35.6360   29.6010   37.7640 C   0  0  0  0  0  0  0  0  0  0  0  0
   35.0420   28.6960   38.7940 C   0  0  0  0  0  0  0  0  0  0  0  0
   35.4610   28.9930   40.1920 C   0  0  0  0  0  0  0  0  0  0  0  0
   36.1130   30.3240   40.3970 C   0  0  1  0  0  0  0  0  0  0  0  0
   37.5240   30.5070   37.2750 H   0  0  0  0  0  0  0  0  0  0  0  0
   37.5860   28.9360   38.2070 H   0  0  0  0  0  0  0  0  0  0  0  0
   35.0380   30.5190   37.5840 H   0  0  0  0  0  0  0  0  0  0  0  0
   35.6830   29.0810   36.7670 H   0  0  0  0  0  0  0  0  0  0  0  0
   33.9360   28.7100   38.6570 H   0  0  0  0  0  0  0  0  0  0  0  0
   35.3540   27.6480   38.5370 H   0  0  0  0  0  0  0  0  0  0  0  0
   34.5440   28.9870   40.8200 H   0  0  0  0  0  0  0  0  0  0  0  0
   36.1230   28.1970   40.6110 H   0  0  0  0  0  0  0  0  0  0  0  0
   35.3650   31.1420   40.4390 H   0  0  0  0  0  0  0  0  0  0  0  0
   38.2390   34.1610   39.9300 C   0  0  0  0  0  0  0  0  0  0  0  0
   37.3230   33.1060   39.7300 C   0  0  0  0  0  0  0  0  0  0  0  0
   37.8720   31.8110   39.5470 C   0  0  0  0  0  0  0  0  0  0  0  0
   39.2220   31.6700   39.5760 N   0  0  0  0  0  0  0  0  0  0  0  0
   40.0550   32.7250   39.7730 C   0  0  0  0  0  0  0  0  0  0  0  0
   39.5580   33.9640   39.9480 N   0  0  0  0  0  0  0  0  0  0  0  0
   37.8310   35.1530   40.0690 H   0  0  0  0  0  0  0  0  0  0  0  0
   36.2500   33.2390   39.7100 H   0  0  0  0  0  0  0  0  0  0  0  0
   41.1050   32.4570   39.7700 H   0  0  0  0  0  0  0  0  0  0  0  0
   36.8300   30.2610   41.5930 O   0  0  0  0  0  0  0  0  0  0  0  0
   36.9470   28.4910   43.0580 C   0  0  0  0  0  3  0  0  0  0  0  0
   37.5880   29.2260   42.0560 C   0  0  0  0  0  0  0  0  0  0  0  0
   38.8550   28.8100   41.6940 C   0  0  0  0  0  0  0  0  0  0  0  0
   39.2920   29.4210   40.9160 H   0  0  0  0  0  0  0  0  0  0  0  0
   39.4490   27.7210   42.2970 C   0  0  0  0  0  0  0  0  0  0  0  0
   38.8020   27.0210   43.2710 C   0  0  0  0  0  0  0  0  0  0  0  0
   37.5180   27.4000   43.6760 C   0  0  0  0  0  3  0  0  0  0  0  0
   39.6630   25.9830   43.6790 O   0  0  0  0  0  0  0  0  0  0  0  0
   40.9470   26.2850   43.1340 C   0  0  0  0  0  3  0  0  0  0  0  0
   41.4620   25.3690   42.7890 H   0  0  0  0  0  0  0  0  0  0  0  0
   40.7060   27.1770   42.0510 O   0  0  0  0  0  0  0  0  0  0  0  0
  1 18  1  0  0  0  0
  1  6  1  0  0  0  0
  2  8  1  0  0  0  0
  2  1  1  0  0  0  0
  3  2  1  0  0  0  0
  3  4  1  0  0  0  0
  4  5  1  0  0  0  0
  5  6  1  0  0  0  0
  5 14  1  0  0  0  0
  5 13  1  0  0  0  0
  6 15  1  1  0  0  0
  6 25  1  0  0  0  0
  7  2  1  0  0  0  0
  9  3  1  0  0  0  0
 10  3  1  0  0  0  0
 11  4  1  0  0  0  0
 12  4  1  0  0  0  0
 16 21  1  0  0  0  0
 16 22  1  0  0  0  0
 17 16  2  0  0  0  0
 18 19  2  0  0  0  0
 18 17  1  0  0  0  0
 19 20  1  0  0  0  0
 20 21  2  0  0  0  0
 23 17  1  0  0  0  0
 24 20  1  0  0  0  0
 25 27  1  0  0  0  0
 26 32  1  0  0  0  0
 27 26  2  0  0  0  0
 28 27  1  0  0  0  0
 28 30  2  0  0  0  0
 29 28  1  0  0  0  0
 30 31  1  0  0  0  0
 31 32  2  0  0  0  0
 31 33  1  0  0  0  0
 34 33  1  0  0  0  0
 35 34  1  0  0  0  0
 36 30  1  0  0  0  0
 36 34  1  0  0  0  0
M  END
>  <minimizedAffinity>
-5.7140255

$$$$

 OpenBabel03252502253D

 36 39  0  0  1  0  0  0  0  0999 V2000
   39.4060   26.3550   42.4710 N   0  0  0  0  0  0  0  0  0  0  0  0
   39.4340   24.9930   42.9900 C   0  0  0  0  0  0  0  0  0  0  0  0
   38.5300   24.2070   42.0290 C   0  0  0  0  0  0  0  0  0  0  0  0
   37.1170   24.6830   42.1120 C   0  0  0  0  0  0  0  0  0  0  0  0
   36.9690   26.1580   42.2620 C   0  0  0  0  0  0  0  0  0  0  0  0
   38.1970   26.9590   41.9640 C   0  0  1  0  0  0  0  0  0  0  0  0
   40.4320   24.5570   42.9710 H   0  0  0  0  0  0  0  0  0  0  0  0
   38.9450   24.8910   43.9790 H   0  0  0  0  0  0  0  0  0  0  0  0
   38.9340   24.1980   40.9950 H   0  0  0  0  0  0  0  0  0  0  0  0
   38.6070   23.1420   42.3850 H   0  0  0  0  0  0  0  0  0  0  0  0
   36.5720   24.2770   41.2280 H   0  0  0  0  0  0  0  0  0  0  0  0
   36.6470   24.1800   43.0000 H   0  0  0  0  0  0  0  0  0  0  0  0
   36.1910   26.4860   41.5400 H   0  0  0  0  0  0  0  0  0  0  0  0
   36.5860   26.4410   43.2720 H   0  0  0  0  0  0  0  0  0  0  0  0
   38.3520   27.0770   40.8720 H   0  0  0  0  0  0  0  0  0  0  0  0
   42.4190   28.2950   43.5230 C   0  0  0  0  0  0  0  0  0  0  0  0
   41.2490   27.5160   43.6500 C   0  0  0  0  0  0  0  0  0  0  0  0
   40.5970   27.1430   42.4480 C   0  0  0  0  0  0  0  0  0  0  0  0
   41.1300   27.5530   41.2680 N   0  0  0  0  0  0  0  0  0  0  0  0
   42.2610   28.3040   41.2080 C   0  0  0  0  0  0  0  0  0  0  0  0
   42.8980   28.6700   42.3360 N   0  0  0  0  0  0  0  0  0  0  0  0
   42.9240   28.5850   44.4340 H   0  0  0  0  0  0  0  0  0  0  0  0
   40.8400   27.1980   44.6000 H   0  0  0  0  0  0  0  0  0  0  0  0
   42.5650   28.5540   40.1980 H   0  0  0  0  0  0  0  0  0  0  0  0
   38.0410   28.2070   42.5700 O   0  0  0  0  0  0  0  0  0  0  0  0
   36.6690   29.6730   41.4470 C   0  0  0  0  0  3  0  0  0  0  0  0
   37.9460   29.4230   41.9580 C   0  0  0  0  0  0  0  0  0  0  0  0
   38.8940   30.4110   41.7740 C   0  0  0  0  0  0  0  0  0  0  0  0
   39.8570   30.1530   42.1920 H   0  0  0  0  0  0  0  0  0  0  0  0
   38.5850   31.5840   41.1170 C   0  0  0  0  0  0  0  0  0  0  0  0
   37.3310   31.8030   40.6280 C   0  0  0  0  0  0  0  0  0  0  0  0
   36.3340   30.8350   40.7870 C   0  0  0  0  0  3  0  0  0  0  0  0
   37.3380   33.0730   40.0210 O   0  0  0  0  0  0  0  0  0  0  0  0
   38.7070   33.4560   39.8970 C   0  0  0  0  0  3  0  0  0  0  0  0
   38.8420   34.5360   40.0950 H   0  0  0  0  0  0  0  0  0  0  0  0
   39.4140   32.6680   40.8500 O   0  0  0  0  0  0  0  0  0  0  0  0
  1  2  1  0  0  0  0
  2  8  1  0  0  0  0
  3  4  1  0  0  0  0
  3 10  1  0  0  0  0
  3  2  1  0  0  0  0
  4  5  1  0  0  0  0
  4 12  1  0  0  0  0
  5 14  1  0  0  0  0
  6 15  1  6  0  0  0
  6  5  1  0  0  0  0
  6  1  1  0  0  0  0
  6 25  1  0  0  0  0
  7  2  1  0  0  0  0
  9  3  1  0  0  0  0
 11  4  1  0  0  0  0
 13  5  1  0  0  0  0
 16 17  1  0  0  0  0
 16 22  1  0  0  0  0
 17 23  1  0  0  0  0
 18  1  1  0  0  0  0
 18 17  2  0  0  0  0
 19 18  1  0  0  0  0
 20 19  2  0  0  0  0
 20 21  1  0  0  0  0
 21 16  2  0  0  0  0
 24 20  1  0  0  0  0
 26 27  1  0  0  0  0
 27 25  1  0  0  0  0
 28 27  2  0  0  0  0
 28 29  1  0  0  0  0
 30 28  1  0  0  0  0
 31 32  1  0  0  0  0
 31 30  2  0  0  0  0
 32 26  2  0  0  0  0
 33 31  1  0  0  0  0
 34 33  1  0  0  0  0
 34 35  1  0  0  0  0
 34 36  1  0  0  0  0
 36 30  1  0  0  0  0
M  END
>  <minimizedAffinity>
-5.37920475

$$$$

 OpenBabel03252502253D

 36 39  0  0  1  0  0  0  0  0999 V2000
   37.3560   25.3890   41.2540 N   0  0  0  0  0  0  0  0  0  0  0  0
   37.2750   24.0930   41.9160 C   0  0  0  0  0  0  0  0  0  0  0  0
   37.8770   23.1140   40.8970 C   0  0  0  0  0  0  0  0  0  0  0  0
   37.0340   23.0360   39.6660 C   0  0  0  0  0  0  0  0  0  0  0  0
   36.4620   24.3380   39.2240 C   0  0  0  0  0  0  0  0  0  0  0  0
   37.0760   25.5520   39.8480 C   0  0  1  0  0  0  0  0  0  0  0  0
   37.8630   24.0530   42.8320 H   0  0  0  0  0  0  0  0  0  0  0  0
   36.2350   23.7400   42.0620 H   0  0  0  0  0  0  0  0  0  0  0  0
   38.9440   23.3370   40.6890 H   0  0  0  0  0  0  0  0  0  0  0  0
   37.8810   22.1240   41.4320 H   0  0  0  0  0  0  0  0  0  0  0  0
   37.6380   22.5330   38.8750 H   0  0  0  0  0  0  0  0  0  0  0  0
   36.1910   22.3250   39.8840 H   0  0  0  0  0  0  0  0  0  0  0  0
   36.6340   24.4200   38.1300 H   0  0  0  0  0  0  0  0  0  0  0  0
   35.3540   24.3800   39.3630 H   0  0  0  0  0  0  0  0  0  0  0  0
   38.0460   25.8070   39.3730 H   0  0  0  0  0  0  0  0  0  0  0  0
   37.3280   28.2300   43.6790 C   0  0  0  0  0  0  0  0  0  0  0  0
   36.8770   27.0750   43.0050 C   0  0  0  0  0  0  0  0  0  0  0  0
   37.7230   26.5550   41.9930 C   0  0  0  0  0  0  0  0  0  0  0  0
   38.8950   27.1920   41.7390 N   0  0  0  0  0  0  0  0  0  0  0  0
   39.2760   28.3040   42.4220 C   0  0  0  0  0  0  0  0  0  0  0  0
   38.4900   28.8150   43.3870 N   0  0  0  0  0  0  0  0  0  0  0  0
   36.6890   28.6340   44.4520 H   0  0  0  0  0  0  0  0  0  0  0  0
   35.9390   26.5800   43.2220 H   0  0  0  0  0  0  0  0  0  0  0  0
   40.2360   28.7000   42.1080 H   0  0  0  0  0  0  0  0  0  0  0  0
   36.1720   26.6040   39.6980 O   0  0  0  0  0  0  0  0  0  0  0  0
   35.6420   28.8200   40.0180 C   0  0  0  0  0  3  0  0  0  0  0  0
   36.4450   27.8940   39.3460 C   0  0  0  0  0  0  0  0  0  0  0  0
   37.3680   28.4030   38.4540 C   0  0  0  0  0  0  0  0  0  0  0  0
   37.9550   27.6350   37.9700 H   0  0  0  0  0  0  0  0  0  0  0  0
   37.4840   29.7620   38.2420 C   0  0  0  0  0  0  0  0  0  0  0  0
   36.6880   30.6440   38.9110 C   0  0  0  0  0  0  0  0  0  0  0  0
   35.7370   30.1810   39.8260 C   0  0  0  0  0  3  0  0  0  0  0  0
   37.0470   31.9360   38.4800 O   0  0  0  0  0  0  0  0  0  0  0  0
   37.8570   31.7650   37.3180 C   0  0  0  0  0  3  0  0  0  0  0  0
   38.6860   32.4970   37.2950 H   0  0  0  0  0  0  0  0  0  0  0  0
   38.3520   30.4320   37.3870 O   0  0  0  0  0  0  0  0  0  0  0  0
  1  2  1  0  0  0  0
  1 18  1  0  0  0  0
  2  8  1  0  0  0  0
  2  7  1  0  0  0  0
  3 10  1  0  0  0  0
  3  2  1  0  0  0  0
  4 12  1  0  0  0  0
  4  3  1  0  0  0  0
  5 14  1  0  0  0  0
  5  4  1  0  0  0  0
  5  6  1  0  0  0  0
  6 15  1  6  0  0  0
  6  1  1  0  0  0  0
  9  3  1  0  0  0  0
 11  4  1  0  0  0  0
 13  5  1  0  0  0  0
 16 22  1  0  0  0  0
 17 23  1  0  0  0  0
 17 16  2  0  0  0  0
 18 17  1  0  0  0  0
 19 18  2  0  0  0  0
 19 20  1  0  0  0  0
 20 21  2  0  0  0  0
 21 16  1  0  0  0  0
 24 20  1  0  0  0  0
 25  6  1  0  0  0  0
 27 25  1  0  0  0  0
 27 26  2  0  0  0  0
 28 27  1  0  0  0  0
 29 28  1  0  0  0  0
 30 28  2  0  0  0  0
 30 31  1  0  0  0  0
 31 32  2  0  0  0  0
 32 26  1  0  0  0  0
 33 31  1  0  0  0  0
 34 36  1  0  0  0  0
 34 33  1  0  0  0  0
 35 34  1  0  0  0  0
 36 30  1  0  0  0  0
M  END
>  <minimizedAffinity>
-5.22186804

$$$$

 OpenBabel03252502253D

 36 39  0  0  1  0  0  0  0  0999 V2000
   38.1350   29.7010   41.6290 N   0  0  0  0  0  0  0  0  0  0  0  0
   38.5110   29.5950   43.0340 C   0  0  0  0  0  0  0  0  0  0  0  0
   38.6010   28.0830   43.2840 C   0  0  0  0  0  0  0  0  0  0  0  0
   37.2640   27.4340   43.1330 C   0  0  0  0  0  0  0  0  0  0  0  0
   36.4380   27.9720   42.0170 C   0  0  0  0  0  0  0  0  0  0  0  0
   37.1740   28.8120   41.0220 C   0  0  1  0  0  0  0  0  0  0  0  0
   39.4800   30.0460   43.2440 H   0  0  0  0  0  0  0  0  0  0  0  0
   37.7200   29.9460   43.7250 H   0  0  0  0  0  0  0  0  0  0  0  0
   39.3960   27.6080   42.6710 H   0  0  0  0  0  0  0  0  0  0  0  0
   38.9600   27.9990   44.3480 H   0  0  0  0  0  0  0  0  0  0  0  0
   37.4300   26.3330   43.0620 H   0  0  0  0  0  0  0  0  0  0  0  0
   36.7100   27.5820   44.0990 H   0  0  0  0  0  0  0  0  0  0  0  0
   36.0280   27.1020   41.4600 H   0  0  0  0  0  0  0  0  0  0  0  0
   35.5510   28.5410   42.3870 H   0  0  0  0  0  0  0  0  0  0  0  0
   37.7480   28.1870   40.3070 H   0  0  0  0  0  0  0  0  0  0  0  0
   40.1340   31.4190   38.9830 C   0  0  0  0  0  0  0  0  0  0  0  0
   39.6080   30.3560   39.7480 C   0  0  0  0  0  0  0  0  0  0  0  0
   38.7210   30.7050   40.7990 C   0  0  0  0  0  0  0  0  0  0  0  0
   38.4400   32.0180   40.9990 N   0  0  0  0  0  0  0  0  0  0  0  0
   38.9800   32.9990   40.2290 C   0  0  0  0  0  0  0  0  0  0  0  0
   39.8230   32.6930   39.2260 N   0  0  0  0  0  0  0  0  0  0  0  0
   40.8120   31.1630   38.1790 H   0  0  0  0  0  0  0  0  0  0  0  0
   39.8440   29.3150   39.5720 H   0  0  0  0  0  0  0  0  0  0  0  0
   38.6620   33.9960   40.5090 H   0  0  0  0  0  0  0  0  0  0  0  0
   36.2290   29.5830   40.3430 O   0  0  0  0  0  0  0  0  0  0  0  0
   34.4730   28.9540   38.9970 C   0  0  0  0  0  3  0  0  0  0  0  0
   35.7890   29.4220   39.0610 C   0  0  0  0  0  0  0  0  0  0  0  0
   36.4300   29.6440   37.8580 C   0  0  0  0  0  0  0  0  0  0  0  0
   37.4420   30.0030   37.9800 H   0  0  0  0  0  0  0  0  0  0  0  0
   35.7930   29.4130   36.6560 C   0  0  0  0  0  0  0  0  0  0  0  0
   34.5090   28.9570   36.6210 C   0  0  0  0  0  0  0  0  0  0  0  0
   33.8140   28.7160   37.8100 C   0  0  0  0  0  3  0  0  0  0  0  0
   34.1520   28.8250   35.2650 O   0  0  0  0  0  0  0  0  0  0  0  0
   35.3630   28.9200   34.5160 C   0  0  0  0  0  3  0  0  0  0  0  0
   35.2120   29.4840   33.5770 H   0  0  0  0  0  0  0  0  0  0  0  0
   36.2920   29.5830   35.3690 O   0  0  0  0  0  0  0  0  0  0  0  0
  1  2  1  0  0  0  0
  2  7  1  0  0  0  0
  2  3  1  0  0  0  0
  2  8  1  0  0  0  0
  3 10  1  0  0  0  0
  4  3  1  0  0  0  0
  4 12  1  0  0  0  0
  5 14  1  0  0  0  0
  5  4  1  0  0  0  0
  6 15  1  6  0  0  0
  6  1  1  0  0  0  0
  6  5  1  0  0  0  0
  9  3  1  0  0  0  0
 11  4  1  0  0  0  0
 13  5  1  0  0  0  0
 16 21  2  0  0  0  0
 16 17  1  0  0  0  0
 17 18  2  0  0  0  0
 18 19  1  0  0  0  0
 18  1  1  0  0  0  0
 20 24  1  0  0  0  0
 20 19  2  0  0  0  0
 21 20  1  0  0  0  0
 22 16  1  0  0  0  0
 23 17  1  0  0  0  0
 25  6  1  0  0  0  0
 26 27  1  0  0  0  0
 27 25  1  0  0  0  0
 28 29  1  0  0  0  0
 28 27  2  0  0  0  0
 30 28  1  0  0  0  0
 31 30  2  0  0  0  0
 31 32  1  0  0  0  0
 32 26  2  0  0  0  0
 33 31  1  0  0  0  0
 34 33  1  0  0  0  0
 34 36  1  0  0  0  0
 35 34  1  0  0  0  0
 36 30  1  0  0  0  0
M  END
>  <minimizedAffinity>
-5.1707902

$$$$

 OpenBabel03252502253D

 36 39  0  0  1  0  0  0  0  0999 V2000
   38.1030   30.1460   41.1210 N   0  0  0  0  0  0  0  0  0  0  0  0
   39.2550   30.8480   40.5680 C   0  0  0  0  0  0  0  0  0  0  0  0
   39.0260   32.3140   40.9640 C   0  0  0  0  0  0  0  0  0  0  0  0
   37.8100   32.8660   40.2960 C   0  0  0  0  0  0  0  0  0  0  0  0
   36.6670   31.9140   40.2070 C   0  0  0  0  0  0  0  0  0  0  0  0
   36.7730   30.7040   41.0800 C   0  0  1  0  0  0  0  0  0  0  0  0
   40.1970   30.5100   40.9980 H   0  0  0  0  0  0  0  0  0  0  0  0
   39.2720   30.8570   39.4610 H   0  0  0  0  0  0  0  0  0  0  0  0
   39.0270   32.4500   42.0660 H   0  0  0  0  0  0  0  0  0  0  0  0
   39.9490   32.8460   40.6010 H   0  0  0  0  0  0  0  0  0  0  0  0
   37.5460   33.8190   40.8110 H   0  0  0  0  0  0  0  0  0  0  0  0
   38.1090   33.1710   39.2570 H   0  0  0  0  0  0  0  0  0  0  0  0
   35.7560   32.4620   40.5290 H   0  0  0  0  0  0  0  0  0  0  0  0
   36.4720   31.5890   39.1570 H   0  0  0  0  0  0  0  0  0  0  0  0
   36.5080   30.9360   42.1320 H   0  0  0  0  0  0  0  0  0  0  0  0
   38.7820   26.5140   41.6620 C   0  0  0  0  0  0  0  0  0  0  0  0
   38.6500   27.7350   40.9680 C   0  0  0  0  0  0  0  0  0  0  0  0
   38.2630   28.8650   41.7320 C   0  0  0  0  0  0  0  0  0  0  0  0
   38.0460   28.7030   43.0630 N   0  0  0  0  0  0  0  0  0  0  0  0
   38.1880   27.4990   43.6770 C   0  0  0  0  0  0  0  0  0  0  0  0
   38.5550   26.4120   42.9730 N   0  0  0  0  0  0  0  0  0  0  0  0
   39.0760   25.6460   41.0880 H   0  0  0  0  0  0  0  0  0  0  0  0
   38.8280   27.8450   39.9060 H   0  0  0  0  0  0  0  0  0  0  0  0
   37.9810   27.5260   44.7400 H   0  0  0  0  0  0  0  0  0  0  0  0
   35.9070   29.7380   40.5640 O   0  0  0  0  0  0  0  0  0  0  0  0
   34.2950   29.0780   39.0610 C   0  0  0  0  0  3  0  0  0  0  0  0
   35.6150   29.4960   39.2530 C   0  0  0  0  0  0  0  0  0  0  0  0
   36.4050   29.5980   38.1250 C   0  0  0  0  0  0  0  0  0  0  0  0
   37.4120   29.9250   38.3450 H   0  0  0  0  0  0  0  0  0  0  0  0
   35.9060   29.3010   36.8740 C   0  0  0  0  0  0  0  0  0  0  0  0
   34.6150   28.8960   36.7140 C   0  0  0  0  0  0  0  0  0  0  0  0
   33.7720   28.7750   37.8230 C   0  0  0  0  0  3  0  0  0  0  0  0
   34.4160   28.6740   35.3370 O   0  0  0  0  0  0  0  0  0  0  0  0
   35.7110   28.6620   34.7380 C   0  0  0  0  0  3  0  0  0  0  0  0
   35.7010   29.1570   33.7490 H   0  0  0  0  0  0  0  0  0  0  0  0
   36.5630   29.3510   35.6490 O   0  0  0  0  0  0  0  0  0  0  0  0
  1 18  1  0  0  0  0
  2  3  1  0  0  0  0
  2  7  1  0  0  0  0
  2  1  1  0  0  0  0
  3  9  1  0  0  0  0
  4 11  1  0  0  0  0
  4  3  1  0  0  0  0
  5  4  1  0  0  0  0
  5 13  1  0  0  0  0
  5  6  1  0  0  0  0
  6  1  1  0  0  0  0
  6 15  1  1  0  0  0
  8  2  1  0  0  0  0
 10  3  1  0  0  0  0
 12  4  1  0  0  0  0
 14  5  1  0  0  0  0
 16 21  1  0  0  0  0
 17 16  2  0  0  0  0
 17 18  1  0  0  0  0
 18 19  2  0  0  0  0
 19 20  1  0  0  0  0
 20 24  1  0  0  0  0
 21 20  2  0  0  0  0
 22 16  1  0  0  0  0
 23 17  1  0  0  0  0
 25  6  1  0  0  0  0
 26 27  1  0  0  0  0
 27 25  1  0  0  0  0
 28 29  1  0  0  0  0
 28 27  2  0  0  0  0
 30 28  1  0  0  0  0
 31 30  2  0  0  0  0
 31 32  1  0  0  0  0
 32 26  2  0  0  0  0
 33 31  1  0  0  0  0
 34 33  1  0  0  0  0
 34 36  1  0  0  0  0
 35 34  1  0  0  0  0
 36 30  1  0  0  0  0
M  END
>  <minimizedAffinity>
-5.11602402

$$$$

 OpenBabel03252502253D

 36 39  0  0  1  0  0  0  0  0999 V2000
   37.0260   27.5930   40.1010 N   0  0  0  0  0  0  0  0  0  0  0  0
   38.2310   26.7730   40.0880 C   0  0  0  0  0  0  0  0  0  0  0  0
   37.9170   25.6300   41.0650 C   0  0  0  0  0  0  0  0  0  0  0  0
   37.7470   26.1450   42.4560 C   0  0  0  0  0  0  0  0  0  0  0  0
   37.0280   27.4460   42.5500 C   0  0  0  0  0  0  0  0  0  0  0  0
   36.2940   27.8640   41.3150 C   0  0  1  0  0  0  0  0  0  0  0  0
   38.4390   26.3500   39.1060 H   0  0  0  0  0  0  0  0  0  0  0  0
   39.1110   27.2820   40.5270 H   0  0  0  0  0  0  0  0  0  0  0  0
   37.0650   25.0090   40.7160 H   0  0  0  0  0  0  0  0  0  0  0  0
   38.8160   24.9570   41.0030 H   0  0  0  0  0  0  0  0  0  0  0  0
   37.2700   25.3380   43.0590 H   0  0  0  0  0  0  0  0  0  0  0  0
   38.7740   26.2670   42.8950 H   0  0  0  0  0  0  0  0  0  0  0  0
   36.2680   27.3460   43.3550 H   0  0  0  0  0  0  0  0  0  0  0  0
   37.7020   28.2770   42.8710 H   0  0  0  0  0  0  0  0  0  0  0  0
   35.3280   27.3280   41.2140 H   0  0  0  0  0  0  0  0  0  0  0  0
   36.8040   29.3190   36.7960 C   0  0  0  0  0  0  0  0  0  0  0  0
   37.3940   28.7910   37.9650 C   0  0  0  0  0  0  0  0  0  0  0  0
   36.5240   28.1590   38.8890 C   0  0  0  0  0  0  0  0  0  0  0  0
   35.2000   28.1010   38.5960 N   0  0  0  0  0  0  0  0  0  0  0  0
   34.6880   28.6290   37.4530 C   0  0  0  0  0  0  0  0  0  0  0  0
   35.4930   29.2350   36.5610 N   0  0  0  0  0  0  0  0  0  0  0  0
   37.4580   29.8040   36.0850 H   0  0  0  0  0  0  0  0  0  0  0  0
   38.4530   28.8470   38.1800 H   0  0  0  0  0  0  0  0  0  0  0  0
   33.6150   28.5070   37.3590 H   0  0  0  0  0  0  0  0  0  0  0  0
   36.0780   29.2410   41.4000 O   0  0  0  0  0  0  0  0  0  0  0  0
   38.1700   30.0120   41.9680 C   0  0  0  0  0  3  0  0  0  0  0  0
   36.9960   30.2390   41.2440 C   0  0  0  0  0  0  0  0  0  0  0  0
   36.9370   31.4020   40.5020 C   0  0  0  0  0  0  0  0  0  0  0  0
   36.0040   31.5150   39.9680 H   0  0  0  0  0  0  0  0  0  0  0  0
   37.9930   32.2910   40.4820 C   0  0  0  0  0  0  0  0  0  0  0  0
   39.1270   32.0460   41.1970 C   0  0  0  0  0  0  0  0  0  0  0  0
   39.2380   30.8830   41.9650 C   0  0  0  0  0  3  0  0  0  0  0  0
   40.0020   33.1260   40.9700 O   0  0  0  0  0  0  0  0  0  0  0  0
   39.2270   34.1520   40.3520 C   0  0  0  0  0  3  0  0  0  0  0  0
   39.8080   34.6790   39.5720 H   0  0  0  0  0  0  0  0  0  0  0  0
   38.0940   33.4960   39.7940 O   0  0  0  0  0  0  0  0  0  0  0  0
  1  6  1  0  0  0  0
  2  1  1  0  0  0  0
  2  8  1  0  0  0  0
  2  3  1  0  0  0  0
  3  4  1  0  0  0  0
  4  5  1  0  0  0  0
  4 12  1  0  0  0  0
  4 11  1  0  0  0  0
  5 14  1  0  0  0  0
  5 13  1  0  0  0  0
  6 15  1  6  0  0  0
  6 25  1  0  0  0  0
  6  5  1  0  0  0  0
  7  2  1  0  0  0  0
  9  3  1  0  0  0  0
 10  3  1  0  0  0  0
 16 17  1  0  0  0  0
 17 23  1  0  0  0  0
 17 18  2  0  0  0  0
 18  1  1  0  0  0  0
 19 18  1  0  0  0  0
 20 19  2  0  0  0  0
 21 16  2  0  0  0  0
 21 20  1  0  0  0  0
 22 16  1  0  0  0  0
 24 20  1  0  0  0  0
 27 25  1  0  0  0  0
 27 26  2  0  0  0  0
 28 27  1  0  0  0  0
 29 28  1  0  0  0  0
 30 28  2  0  0  0  0
 30 31  1  0  0  0  0
 31 32  2  0  0  0  0
 32 26  1  0  0  0  0
 33 31  1  0  0  0  0
 34 33  1  0  0  0  0
 35 34  1  0  0  0  0
 36 34  1  0  0  0  0
 36 30  1  0  0  0  0
M  END
>  <minimizedAffinity>
-5.10327291

$$$$

 OpenBabel03252502253D

 36 39  0  0  1  0  0  0  0  0999 V2000
   37.5050   29.1140   40.7030 N   0  0  0  0  0  0  0  0  0  0  0  0
   38.4300   27.9900   40.7710 C   0  0  0  0  0  0  0  0  0  0  0  0
   38.6420   27.7710   42.2770 C   0  0  0  0  0  0  0  0  0  0  0  0
   39.3250   28.9450   42.8980 C   0  0  0  0  0  0  0  0  0  0  0  0
   38.8800   30.2670   42.3770 C   0  0  0  0  0  0  0  0  0  0  0  0
   37.6090   30.2500   41.5870 C   0  0  1  0  0  0  0  0  0  0  0  0
   38.0170   27.0800   40.3380 H   0  0  0  0  0  0  0  0  0  0  0  0
   39.4380   28.2280   40.3790 H   0  0  0  0  0  0  0  0  0  0  0  0
   37.7010   27.4840   42.7900 H   0  0  0  0  0  0  0  0  0  0  0  0
   39.2990   26.8600   42.3340 H   0  0  0  0  0  0  0  0  0  0  0  0
   39.2160   28.8520   44.0040 H   0  0  0  0  0  0  0  0  0  0  0  0
   40.4260   28.8310   42.7050 H   0  0  0  0  0  0  0  0  0  0  0  0
   38.7020   30.9250   43.2540 H   0  0  0  0  0  0  0  0  0  0  0  0
   39.6740   30.7710   41.7740 H   0  0  0  0  0  0  0  0  0  0  0  0
   36.7190   30.2020   42.2490 H   0  0  0  0  0  0  0  0  0  0  0  0
   34.1210   29.0640   39.1230 C   0  0  0  0  0  0  0  0  0  0  0  0
   35.0920   29.0490   40.1470 C   0  0  0  0  0  0  0  0  0  0  0  0
   36.4490   29.1230   39.7410 C   0  0  0  0  0  0  0  0  0  0  0  0
   36.7230   29.2020   38.4140 N   0  0  0  0  0  0  0  0  0  0  0  0
   35.7440   29.2120   37.4720 C   0  0  0  0  0  0  0  0  0  0  0  0
   34.4500   29.1430   37.8320 N   0  0  0  0  0  0  0  0  0  0  0  0
   33.0830   29.0080   39.4220 H   0  0  0  0  0  0  0  0  0  0  0  0
   34.8530   28.9860   41.2010 H   0  0  0  0  0  0  0  0  0  0  0  0
   36.1180   29.2790   36.4560 H   0  0  0  0  0  0  0  0  0  0  0  0
   37.5770   31.4130   40.8160 O   0  0  0  0  0  0  0  0  0  0  0  0
   38.8420   33.3270   40.6390 C   0  0  0  0  0  3  0  0  0  0  0  0
   38.6230   32.0230   40.1860 C   0  0  0  0  0  0  0  0  0  0  0  0
   39.4690   31.5580   39.1980 C   0  0  0  0  0  0  0  0  0  0  0  0
   39.2440   30.5450   38.8940 H   0  0  0  0  0  0  0  0  0  0  0  0
   40.4780   32.3500   38.6900 C   0  0  0  0  0  0  0  0  0  0  0  0
   40.6700   33.6180   39.1500 C   0  0  0  0  0  0  0  0  0  0  0  0
   39.8420   34.1380   40.1500 C   0  0  0  0  0  3  0  0  0  0  0  0
   41.7620   34.1560   38.4420 O   0  0  0  0  0  0  0  0  0  0  0  0
   42.0040   33.2790   37.3430 C   0  0  0  0  0  3  0  0  0  0  0  0
   43.0870   33.1600   37.1540 H   0  0  0  0  0  0  0  0  0  0  0  0
   41.4070   32.0370   37.7030 O   0  0  0  0  0  0  0  0  0  0  0  0
  1  2  1  0  0  0  0
  1  6  1  0  0  0  0
  2  3  1  0  0  0  0
  3 10  1  0  0  0  0
  3  9  1  0  0  0  0
  3  4  1  0  0  0  0
  4 11  1  0  0  0  0
  5  4  1  0  0  0  0
  5 13  1  0  0  0  0
  6 15  1  1  0  0  0
  6  5  1  0  0  0  0
  7  2  1  0  0  0  0
  8  2  1  0  0  0  0
 12  4  1  0  0  0  0
 14  5  1  0  0  0  0
 16 22  1  0  0  0  0
 16 17  1  0  0  0  0
 17 23  1  0  0  0  0
 18 17  2  0  0  0  0
 18  1  1  0  0  0  0
 19 18  1  0  0  0  0
 20 21  1  0  0  0  0
 20 19  2  0  0  0  0
 21 16  2  0  0  0  0
 24 20  1  0  0  0  0
 25  6  1  0  0  0  0
 27 26  1  0  0  0  0
 27 25  1  0  0  0  0
 28 27  2  0  0  0  0
 29 28  1  0  0  0  0
 30 31  2  0  0  0  0
 30 28  1  0  0  0  0
 31 32  1  0  0  0  0
 32 26  2  0  0  0  0
 33 31  1  0  0  0  0
 34 36  1  0  0  0  0
 34 33  1  0  0  0  0
 35 34  1  0  0  0  0
 36 30  1  0  0  0  0
M  END
>  <minimizedAffinity>
-5.03755665

$$$$

 OpenBabel03252502253D

 36 39  0  0  1  0  0  0  0  0999 V2000
   37.1420   26.9020   40.7150 N   0  0  0  0  0  0  0  0  0  0  0  0
   37.4360   26.0130   39.5980 C   0  0  0  0  0  0  0  0  0  0  0  0
   36.5380   24.7920   39.8450 C   0  0  0  0  0  0  0  0  0  0  0  0
   36.9360   24.0780   41.0960 C   0  0  0  0  0  0  0  0  0  0  0  0
   37.3300   24.9720   42.2200 C   0  0  0  0  0  0  0  0  0  0  0  0
   36.9500   26.4110   42.0580 C   0  0  1  0  0  0  0  0  0  0  0  0
   37.1780   26.4500   38.6350 H   0  0  0  0  0  0  0  0  0  0  0  0
   38.4680   25.6090   39.6190 H   0  0  0  0  0  0  0  0  0  0  0  0
   35.4600   25.0560   39.8100 H   0  0  0  0  0  0  0  0  0  0  0  0
   36.7090   24.1350   38.9480 H   0  0  0  0  0  0  0  0  0  0  0  0
   36.1080   23.3800   41.3630 H   0  0  0  0  0  0  0  0  0  0  0  0
   37.8040   23.4140   40.8390 H   0  0  0  0  0  0  0  0  0  0  0  0
   36.8120   24.6050   43.1310 H   0  0  0  0  0  0  0  0  0  0  0  0
   38.4230   24.9090   42.4440 H   0  0  0  0  0  0  0  0  0  0  0  0
   35.8780   26.5770   42.2910 H   0  0  0  0  0  0  0  0  0  0  0  0
   37.8350   30.4130   39.6450 C   0  0  0  0  0  0  0  0  0  0  0  0
   38.0340   29.0240   39.8000 C   0  0  0  0  0  0  0  0  0  0  0  0
   37.0330   28.3110   40.5070 C   0  0  0  0  0  0  0  0  0  0  0  0
   35.9630   28.9980   40.9830 N   0  0  0  0  0  0  0  0  0  0  0  0
   35.8260   30.3380   40.8030 C   0  0  0  0  0  0  0  0  0  0  0  0
   36.7630   31.0370   40.1360 N   0  0  0  0  0  0  0  0  0  0  0  0
   38.5940   30.9660   39.1080 H   0  0  0  0  0  0  0  0  0  0  0  0
   38.8940   28.4940   39.4120 H   0  0  0  0  0  0  0  0  0  0  0  0
   34.9210   30.7460   41.2390 H   0  0  0  0  0  0  0  0  0  0  0  0
   37.7550   27.1570   42.9200 O   0  0  0  0  0  0  0  0  0  0  0  0
   39.7290   28.3390   42.8850 C   0  0  0  0  0  3  0  0  0  0  0  0
   39.1120   27.0960   43.0540 C   0  0  0  0  0  0  0  0  0  0  0  0
   39.9380   26.0230   43.3230 C   0  0  0  0  0  0  0  0  0  0  0  0
   39.3970   25.0940   43.4410 H   0  0  0  0  0  0  0  0  0  0  0  0
   41.3060   26.1800   43.4180 C   0  0  0  0  0  0  0  0  0  0  0  0
   41.8820   27.4040   43.2490 C   0  0  0  0  0  0  0  0  0  0  0  0
   41.0910   28.5240   42.9750 C   0  0  0  0  0  3  0  0  0  0  0  0
   43.2720   27.2330   43.4060 O   0  0  0  0  0  0  0  0  0  0  0  0
   43.5150   25.8280   43.3640 C   0  0  0  0  0  3  0  0  0  0  0  0
   44.2990   25.5340   44.0850 H   0  0  0  0  0  0  0  0  0  0  0  0
   42.2700   25.2120   43.6800 O   0  0  0  0  0  0  0  0  0  0  0  0
  1  6  1  0  0  0  0
  2  8  1  0  0  0  0
  2  3  1  0  0  0  0
  2  1  1  0  0  0  0
  3  4  1  0  0  0  0
  4 11  1  0  0  0  0
  4  5  1  0  0  0  0
  5 14  1  0  0  0  0
  5 13  1  0  0  0  0
  6  5  1  0  0  0  0
  6 15  1  1  0  0  0
  6 25  1  0  0  0  0
  7  2  1  0  0  0  0
  9  3  1  0  0  0  0
 10  3  1  0  0  0  0
 12  4  1  0  0  0  0
 16 17  2  0  0  0  0
 16 21  1  0  0  0  0
 17 18  1  0  0  0  0
 18  1  1  0  0  0  0
 18 19  2  0  0  0  0
 20 19  1  0  0  0  0
 20 24  1  0  0  0  0
 21 20  2  0  0  0  0
 22 16  1  0  0  0  0
 23 17  1  0  0  0  0
 25 27  1  0  0  0  0
 26 32  2  0  0  0  0
 26 27  1  0  0  0  0
 27 28  2  0  0  0  0
 28 30  1  0  0  0  0
 28 29  1  0  0  0  0
 30 36  1  0  0  0  0
 31 33  1  0  0  0  0
 31 30  2  0  0  0  0
 32 31  1  0  0  0  0
 34 33  1  0  0  0  0
 34 36  1  0  0  0  0
 34 35  1  0  0  0  0
M  END
>  <minimizedAffinity>
-5.02663755

$$$$

 OpenBabel03252502253D

 36 39  0  0  1  0  0  0  0  0999 V2000
   37.6300   30.4030   38.5240 N   0  0  0  0  0  0  0  0  0  0  0  0
   37.5460   31.7480   37.9670 C   0  0  0  0  0  0  0  0  0  0  0  0
   38.1710   32.6400   39.0500 C   0  0  0  0  0  0  0  0  0  0  0  0
   37.3500   32.6250   40.2970 C   0  0  0  0  0  0  0  0  0  0  0  0
   36.7780   31.2950   40.6450 C   0  0  0  0  0  0  0  0  0  0  0  0
   37.3740   30.1310   39.9180 C   0  0  1  0  0  0  0  0  0  0  0  0
   38.1180   31.8570   37.0470 H   0  0  0  0  0  0  0  0  0  0  0  0
   36.5060   32.1160   37.8680 H   0  0  0  0  0  0  0  0  0  0  0  0
   39.2410   32.3970   39.2210 H   0  0  0  0  0  0  0  0  0  0  0  0
   38.1730   33.6690   38.5940 H   0  0  0  0  0  0  0  0  0  0  0  0
   37.9710   33.0610   41.1150 H   0  0  0  0  0  0  0  0  0  0  0  0
   36.5080   33.3550   40.1520 H   0  0  0  0  0  0  0  0  0  0  0  0
   36.9680   31.1260   41.7270 H   0  0  0  0  0  0  0  0  0  0  0  0
   35.6680   31.2690   40.5230 H   0  0  0  0  0  0  0  0  0  0  0  0
   38.3500   29.8350   40.3540 H   0  0  0  0  0  0  0  0  0  0  0  0
   37.5530   27.7760   35.8700 C   0  0  0  0  0  0  0  0  0  0  0  0
   37.1220   28.8780   36.6390 C   0  0  0  0  0  0  0  0  0  0  0  0
   37.9780   29.2970   37.6890 C   0  0  0  0  0  0  0  0  0  0  0  0
   39.1390   28.6220   37.8860 N   0  0  0  0  0  0  0  0  0  0  0  0
   39.5020   27.5660   37.1110 C   0  0  0  0  0  0  0  0  0  0  0  0
   38.7060   27.1500   36.1090 N   0  0  0  0  0  0  0  0  0  0  0  0
   36.9070   27.4480   35.0670 H   0  0  0  0  0  0  0  0  0  0  0  0
   36.1920   29.4040   36.4670 H   0  0  0  0  0  0  0  0  0  0  0  0
   40.4540   27.1290   37.3880 H   0  0  0  0  0  0  0  0  0  0  0  0
   36.4650   29.0750   40.0000 O   0  0  0  0  0  0  0  0  0  0  0  0
   36.8390   27.8020   41.8800 C   0  0  0  0  0  3  0  0  0  0  0  0
   36.6880   27.8200   40.4900 C   0  0  0  0  0  0  0  0  0  0  0  0
   36.7860   26.6070   39.8370 C   0  0  0  0  0  0  0  0  0  0  0  0
   36.6600   26.6930   38.7670 H   0  0  0  0  0  0  0  0  0  0  0  0
   37.0190   25.4390   40.5330 C   0  0  0  0  0  0  0  0  0  0  0  0
   37.1610   25.4480   41.8880 C   0  0  0  0  0  0  0  0  0  0  0  0
   37.0720   26.6490   42.5980 C   0  0  0  0  0  3  0  0  0  0  0  0
   37.3860   24.1170   42.2910 O   0  0  0  0  0  0  0  0  0  0  0  0
   37.6780   23.3790   41.1060 C   0  0  0  0  0  3  0  0  0  0  0  0
   37.2250   22.3700   41.1390 H   0  0  0  0  0  0  0  0  0  0  0  0
   37.1440   24.1470   40.0320 O   0  0  0  0  0  0  0  0  0  0  0  0
  1  6  1  0  0  0  0
  2  1  1  0  0  0  0
  2  3  1  0  0  0  0
  3  9  1  0  0  0  0
  3  4  1  0  0  0  0
  4  5  1  0  0  0  0
  4 11  1  0  0  0  0
  5 13  1  0  0  0  0
  6 25  1  0  0  0  0
  6 15  1  1  0  0  0
  6  5  1  0  0  0  0
  7  2  1  0  0  0  0
  8  2  1  0  0  0  0
 10  3  1  0  0  0  0
 12  4  1  0  0  0  0
 14  5  1  0  0  0  0
 16 21  2  0  0  0  0
 16 17  1  0  0  0  0
 17 18  2  0  0  0  0
 18 19  1  0  0  0  0
 18  1  1  0  0  0  0
 20 24  1  0  0  0  0
 20 19  2  0  0  0  0
 21 20  1  0  0  0  0
 22 16  1  0  0  0  0
 23 17  1  0  0  0  0
 25 27  1  0  0  0  0
 26 32  1  0  0  0  0
 27 26  2  0  0  0  0
 28 27  1  0  0  0  0
 28 30  2  0  0  0  0
 29 28  1  0  0  0  0
 30 31  1  0  0  0  0
 31 33  1  0  0  0  0
 31 32  2  0  0  0  0
 34 35  1  0  0  0  0
 34 33  1  0  0  0  0
 36 30  1  0  0  0  0
 36 34  1  0  0  0  0
M  END
>  <minimizedAffinity>
-4.9934845

$$$$
