
 OpenBabel03252502233D

 36 39  0  0  1  0  0  0  0  0999 V2000
   46.8860   34.6270   42.2950 N   0  0  0  0  0  0  0  0  0  0  0  0
   48.3420   34.6500   42.3690 C   0  0  0  0  0  0  0  0  0  0  0  0
   48.7670   35.4430   41.1240 C   0  0  0  0  0  0  0  0  0  0  0  0
   48.3990   34.7140   39.8730 C   0  0  0  0  0  0  0  0  0  0  0  0
   47.0780   34.0280   39.9230 C   0  0  0  0  0  0  0  0  0  0  0  0
   46.1830   34.4410   41.0490 C   0  0  1  0  0  0  0  0  0  0  0  0
   48.7080   35.1650   43.2570 H   0  0  0  0  0  0  0  0  0  0  0  0
   48.8020   33.6520   42.2360 H   0  0  0  0  0  0  0  0  0  0  0  0
   48.3970   36.4890   41.1530 H   0  0  0  0  0  0  0  0  0  0  0  0
   49.8860   35.5240   41.2160 H   0  0  0  0  0  0  0  0  0  0  0  0
   48.4850   35.4350   39.0260 H   0  0  0  0  0  0  0  0  0  0  0  0
   49.1990   33.9480   39.6860 H   0  0  0  0  0  0  0  0  0  0  0  0
   46.5420   34.2730   38.9820 H   0  0  0  0  0  0  0  0  0  0  0  0
   47.1830   32.9150   39.9330 H   0  0  0  0  0  0  0  0  0  0  0  0
   45.6820   35.4080   40.8360 H   0  0  0  0  0  0  0  0  0  0  0  0
   44.4620   35.9540   44.8080 C   0  0  0  0  0  0  0  0  0  0  0  0
   45.1930   35.8760   43.6030 C   0  0  0  0  0  0  0  0  0  0  0  0
   46.1000   34.7930   43.4760 C   0  0  0  0  0  0  0  0  0  0  0  0
   46.2060   33.9140   44.5060 N   0  0  0  0  0  0  0  0  0  0  0  0
   45.4740   34.0410   45.6440 C   0  0  0  0  0  0  0  0  0  0  0  0
   44.6070   35.0600   45.7870 N   0  0  0  0  0  0  0  0  0  0  0  0
   43.7680   36.7770   44.9150 H   0  0  0  0  0  0  0  0  0  0  0  0
   45.0940   36.5870   42.7930 H   0  0  0  0  0  0  0  0  0  0  0  0
   45.6670   33.2640   46.3750 H   0  0  0  0  0  0  0  0  0  0  0  0
   45.2350   33.4310   41.2240 O   0  0  0  0  0  0  0  0  0  0  0  0
   43.0970   32.6760   41.6100 C   0  0  0  0  0  3  0  0  0  0  0  0
   43.9450   33.4130   40.7780 C   0  0  0  0  0  0  0  0  0  0  0  0
   43.3740   33.9970   39.6650 C   0  0  0  0  0  0  0  0  0  0  0  0
   44.0850   34.5500   39.0680 H   0  0  0  0  0  0  0  0  0  0  0  0
   42.0280   33.8510   39.3940 C   0  0  0  0  0  0  0  0  0  0  0  0
   41.2220   33.1280   40.2200 C   0  0  0  0  0  0  0  0  0  0  0  0
   41.7510   32.5160   41.3620 C   0  0  0  0  0  3  0  0  0  0  0  0
   39.9240   33.1700   39.6770 O   0  0  0  0  0  0  0  0  0  0  0  0
   40.0570   33.6790   38.3500 C   0  0  0  0  0  3  0  0  0  0  0  0
   39.2210   34.3570   38.0940 H   0  0  0  0  0  0  0  0  0  0  0  0
   41.3020   34.3690   38.3260 O   0  0  0  0  0  0  0  0  0  0  0  0
  1  2  1  0  0  0  0
  1 18  1  0  0  0  0
  2  7  1  0  0  0  0
  3  9  1  0  0  0  0
  3 10  1  0  0  0  0
  3  2  1  0  0  0  0
  4  5  1  0  0  0  0
  4  3  1  0  0  0  0
  5 14  1  0  0  0  0
  5  6  1  0  0  0  0
  6 15  1  6  0  0  0
  6 25  1  0  0  0  0
  6  1  1  0  0  0  0
  8  2  1  0  0  0  0
 11  4  1  0  0  0  0
 12  4  1  0  0  0  0
 13  5  1  0  0  0  0
 16 22  1  0  0  0  0
 16 21  1  0  0  0  0
 17 16  2  0  0  0  0
 18 17  1  0  0  0  0
 18 19  2  0  0  0  0
 19 20  1  0  0  0  0
 20 21  2  0  0  0  0
 20 24  1  0  0  0  0
 23 17  1  0  0  0  0
 27 25  1  0  0  0  0
 27 26  2  0  0  0  0
 28 27  1  0  0  0  0
 29 28  1  0  0  0  0
 30 28  2  0  0  0  0
 30 31  1  0  0  0  0
 31 32  2  0  0  0  0
 32 26  1  0  0  0  0
 33 31  1  0  0  0  0
 34 33  1  0  0  0  0
 35 34  1  0  0  0  0
 36 34  1  0  0  0  0
 36 30  1  0  0  0  0
M  END
>  <minimizedAffinity>
-6.11299562

>  <minimizedRMSD>
0.875428438

$$$$
