
 OpenBabel03252502233D

 36 39  0  0  1  0  0  0  0  0999 V2000
   46.8070   34.5880   42.3110 N   0  0  0  0  0  0  0  0  0  0  0  0
   48.2640   34.5820   42.3580 C   0  0  0  0  0  0  0  0  0  0  0  0
   48.6810   35.3570   41.0990 C   0  0  0  0  0  0  0  0  0  0  0  0
   48.2750   34.6260   39.8610 C   0  0  0  0  0  0  0  0  0  0  0  0
   46.9420   33.9660   39.9410 C   0  0  0  0  0  0  0  0  0  0  0  0
   46.0770   34.4060   41.0800 C   0  0  1  0  0  0  0  0  0  0  0  0
   48.6570   35.0960   43.2340 H   0  0  0  0  0  0  0  0  0  0  0  0
   48.7020   33.5740   42.2240 H   0  0  0  0  0  0  0  0  0  0  0  0
   48.3320   36.4100   41.1260 H   0  0  0  0  0  0  0  0  0  0  0  0
   49.8020   35.4160   41.1690 H   0  0  0  0  0  0  0  0  0  0  0  0
   48.3590   35.3380   39.0070 H   0  0  0  0  0  0  0  0  0  0  0  0
   49.0560   33.8430   39.6640 H   0  0  0  0  0  0  0  0  0  0  0  0
   46.3930   34.2150   39.0080 H   0  0  0  0  0  0  0  0  0  0  0  0
   47.0240   32.8520   39.9580 H   0  0  0  0  0  0  0  0  0  0  0  0
   45.5900   35.3810   40.8690 H   0  0  0  0  0  0  0  0  0  0  0  0
   44.4690   35.9910   44.8650 C   0  0  0  0  0  0  0  0  0  0  0  0
   45.1770   35.8900   43.6480 C   0  0  0  0  0  0  0  0  0  0  0  0
   46.0470   34.7790   43.5060 C   0  0  0  0  0  0  0  0  0  0  0  0
   46.1430   33.8970   44.5340 N   0  0  0  0  0  0  0  0  0  0  0  0
   45.4360   34.0480   45.6850 C   0  0  0  0  0  0  0  0  0  0  0  0
   44.6040   35.0940   45.8420 N   0  0  0  0  0  0  0  0  0  0  0  0
   43.8040   36.8350   44.9830 H   0  0  0  0  0  0  0  0  0  0  0  0
   45.0870   36.6030   42.8390 H   0  0  0  0  0  0  0  0  0  0  0  0
   45.6170   33.2650   46.4120 H   0  0  0  0  0  0  0  0  0  0  0  0
   45.1120   33.4170   41.2820 O   0  0  0  0  0  0  0  0  0  0  0  0
   43.3850   32.4000   40.1540 C   0  0  0  0  0  3  0  0  0  0  0  0
   43.7870   33.4690   40.9610 C   0  0  0  0  0  0  0  0  0  0  0  0
   42.8170   34.3890   41.3050 C   0  0  0  0  0  0  0  0  0  0  0  0
   43.1950   35.1860   41.9290 H   0  0  0  0  0  0  0  0  0  0  0  0
   41.5150   34.2520   40.8670 C   0  0  0  0  0  0  0  0  0  0  0  0
   41.1480   33.2020   40.0810 C   0  0  0  0  0  0  0  0  0  0  0  0
   42.0920   32.2400   39.7030 C   0  0  0  0  0  3  0  0  0  0  0  0
   39.7740   33.3460   39.8080 O   0  0  0  0  0  0  0  0  0  0  0  0
   39.4210   34.6710   40.2000 C   0  0  0  0  0  3  0  0  0  0  0  0
   38.4190   34.6980   40.6680 H   0  0  0  0  0  0  0  0  0  0  0  0
   40.4280   35.0820   41.1200 O   0  0  0  0  0  0  0  0  0  0  0  0
  1  2  1  0  0  0  0
  1 18  1  0  0  0  0
  2  7  1  0  0  0  0
  3  9  1  0  0  0  0
  3 10  1  0  0  0  0
  3  2  1  0  0  0  0
  4  5  1  0  0  0  0
  4  3  1  0  0  0  0
  5 14  1  0  0  0  0
  5  6  1  0  0  0  0
  6 15  1  6  0  0  0
  6 25  1  0  0  0  0
  6  1  1  0  0  0  0
  8  2  1  0  0  0  0
 11  4  1  0  0  0  0
 12  4  1  0  0  0  0
 13  5  1  0  0  0  0
 16 22  1  0  0  0  0
 16 21  1  0  0  0  0
 17 16  2  0  0  0  0
 18 17  1  0  0  0  0
 18 19  2  0  0  0  0
 19 20  1  0  0  0  0
 20 21  2  0  0  0  0
 20 24  1  0  0  0  0
 23 17  1  0  0  0  0
 26 27  1  0  0  0  0
 27 25  1  0  0  0  0
 27 28  2  0  0  0  0
 28 29  1  0  0  0  0
 30 36  1  0  0  0  0
 30 28  1  0  0  0  0
 31 30  2  0  0  0  0
 32 31  1  0  0  0  0
 32 26  2  0  0  0  0
 33 31  1  0  0  0  0
 33 34  1  0  0  0  0
 34 35  1  0  0  0  0
 34 36  1  0  0  0  0
M  END
>  <minimizedAffinity>
-6.13350582

>  <minimizedRMSD>
0.674163163

$$$$
