
 OpenBabel03252502233D

 36 39  0  0  1  0  0  0  0  0999 V2000
   46.8180   34.5990   42.3170 N   0  0  0  0  0  0  0  0  0  0  0  0
   48.2740   34.5610   42.3730 C   0  0  0  0  0  0  0  0  0  0  0  0
   48.7170   35.3490   41.1310 C   0  0  0  0  0  0  0  0  0  0  0  0
   48.3030   34.6510   39.8780 C   0  0  0  0  0  0  0  0  0  0  0  0
   46.9560   34.0180   39.9370 C   0  0  0  0  0  0  0  0  0  0  0  0
   46.0920   34.4560   41.0780 C   0  0  1  0  0  0  0  0  0  0  0  0
   48.6720   35.0510   43.2610 H   0  0  0  0  0  0  0  0  0  0  0  0
   48.6910   33.5460   42.2230 H   0  0  0  0  0  0  0  0  0  0  0  0
   48.3900   36.4090   41.1750 H   0  0  0  0  0  0  0  0  0  0  0  0
   49.8380   35.3830   41.2090 H   0  0  0  0  0  0  0  0  0  0  0  0
   48.4080   35.3760   39.0370 H   0  0  0  0  0  0  0  0  0  0  0  0
   49.0680   33.8540   39.6720 H   0  0  0  0  0  0  0  0  0  0  0  0
   46.4190   34.2970   39.0050 H   0  0  0  0  0  0  0  0  0  0  0  0
   47.0140   32.9030   39.9340 H   0  0  0  0  0  0  0  0  0  0  0  0
   45.6290   35.4450   40.8820 H   0  0  0  0  0  0  0  0  0  0  0  0
   44.4730   35.9920   44.8700 C   0  0  0  0  0  0  0  0  0  0  0  0
   45.1850   35.8960   43.6550 C   0  0  0  0  0  0  0  0  0  0  0  0
   46.0540   34.7850   43.5100 C   0  0  0  0  0  0  0  0  0  0  0  0
   46.1460   33.8980   44.5340 N   0  0  0  0  0  0  0  0  0  0  0  0
   45.4350   34.0430   45.6830 C   0  0  0  0  0  0  0  0  0  0  0  0
   44.6030   35.0890   45.8430 N   0  0  0  0  0  0  0  0  0  0  0  0
   43.8080   36.8360   44.9900 H   0  0  0  0  0  0  0  0  0  0  0  0
   45.0980   36.6140   42.8500 H   0  0  0  0  0  0  0  0  0  0  0  0
   45.6120   33.2570   46.4070 H   0  0  0  0  0  0  0  0  0  0  0  0
   45.1060   33.4850   41.2550 O   0  0  0  0  0  0  0  0  0  0  0  0
   43.3000   32.4400   40.2850 C   0  0  0  0  0  3  0  0  0  0  0  0
   43.7810   33.5770   40.9420 C   0  0  0  0  0  0  0  0  0  0  0  0
   42.8750   34.5940   41.1700 C   0  0  0  0  0  0  0  0  0  0  0  0
   43.3110   35.4410   41.6800 H   0  0  0  0  0  0  0  0  0  0  0  0
   41.5600   34.4820   40.7660 C   0  0  0  0  0  0  0  0  0  0  0  0
   41.1160   33.3630   40.1270 C   0  0  0  0  0  0  0  0  0  0  0  0
   41.9940   32.3040   39.8720 C   0  0  0  0  0  3  0  0  0  0  0  0
   39.7490   33.5570   39.8500 O   0  0  0  0  0  0  0  0  0  0  0  0
   39.4840   34.9410   40.0670 C   0  0  0  0  0  3  0  0  0  0  0  0
   38.4940   35.0930   40.5360 H   0  0  0  0  0  0  0  0  0  0  0  0
   40.5290   35.4050   40.9160 O   0  0  0  0  0  0  0  0  0  0  0  0
  1  2  1  0  0  0  0
  1 18  1  0  0  0  0
  2  7  1  0  0  0  0
  3  9  1  0  0  0  0
  3 10  1  0  0  0  0
  3  2  1  0  0  0  0
  4  5  1  0  0  0  0
  4  3  1  0  0  0  0
  5  6  1  0  0  0  0
  6 15  1  6  0  0  0
  6 25  1  0  0  0  0
  6  1  1  0  0  0  0
  8  2  1  0  0  0  0
 11  4  1  0  0  0  0
 12  4  1  0  0  0  0
 13  5  1  0  0  0  0
 14  5  1  0  0  0  0
 16 22  1  0  0  0  0
 16 21  1  0  0  0  0
 17 16  2  0  0  0  0
 18 17  1  0  0  0  0
 18 19  2  0  0  0  0
 19 20  1  0  0  0  0
 20 21  2  0  0  0  0
 20 24  1  0  0  0  0
 23 17  1  0  0  0  0
 26 27  1  0  0  0  0
 27 28  2  0  0  0  0
 27 25  1  0  0  0  0
 28 29  1  0  0  0  0
 30 36  1  0  0  0  0
 30 28  1  0  0  0  0
 31 30  2  0  0  0  0
 32 31  1  0  0  0  0
 32 26  2  0  0  0  0
 33 34  1  0  0  0  0
 33 31  1  0  0  0  0
 34 35  1  0  0  0  0
 34 36  1  0  0  0  0
M  END
>  <minimizedAffinity>
-6.14864922

>  <minimizedRMSD>
0.708536327

$$$$
