
 OpenBabel03252508513D

 31 34  0  0  1  0  0  0  0  0999 V2000
   45.6530   34.0510   40.8860 C   0  0  0  0  0  0  0  0  0  0  0  0
   46.3570   34.6190   41.9460 C   0  0  0  0  0  0  0  0  0  0  0  0
   47.7250   34.8380   41.7620 C   0  0  0  0  0  0  0  0  0  0  0  0
   48.2810   34.4850   40.5690 N   0  0  0  0  0  0  0  0  0  0  0  0
   47.5690   33.9410   39.5750 C   0  0  0  0  0  0  0  0  0  0  0  0
   46.2460   33.7250   39.7380 N   0  0  0  0  0  0  0  0  0  0  0  0
   48.2640   35.2720   42.5700 H   0  0  0  0  0  0  0  0  0  0  0  0
   47.9920   33.6560   38.6200 H   0  0  0  0  0  0  0  0  0  0  0  0
   45.6540   34.9590   43.1850 C   0  0  0  0  0  0  0  0  0  0  0  0
   45.1320   36.2200   43.4310 C   0  0  0  0  0  0  0  0  0  0  0  0
   44.5720   36.0940   44.6850 C   0  0  0  0  0  0  0  0  0  0  0  0
   44.7420   34.8400   45.1690 N   0  0  0  0  0  0  0  0  0  0  0  0
   45.3980   34.1770   44.2420 N   0  0  0  0  0  0  0  0  0  0  0  0
   45.1400   37.1240   42.8100 H   0  0  0  0  0  0  0  0  0  0  0  0
   44.0560   36.8820   45.2360 H   0  0  0  0  0  0  0  0  0  0  0  0
   44.3960   34.5210   46.1040 H   0  0  0  0  0  0  0  0  0  0  0  0
   44.3060   33.8290   41.0490 O   0  0  0  0  0  0  0  0  0  0  0  0
   43.2810   34.6150   40.6010 C   0  0  0  0  0  0  0  0  0  0  0  0
   43.2040   35.8850   40.6310 O   0  0  0  0  0  0  0  0  0  0  0  0
   39.5230   31.9710   38.3330 C   0  0  0  0  0  0  0  0  0  0  0  0
   39.4640   31.9710   39.8460 C   0  0  0  0  0  2  0  0  0  0  0  0
   40.3330   33.0410   40.3010 N   0  0  0  0  0  0  0  0  0  0  0  0
   40.8450   34.2310   40.9390 C   0  0  0  0  0  0  0  0  0  0  0  0
   40.3760   34.8350   41.9630 O   0  0  0  0  0  0  0  0  0  0  0  0
   41.9510   34.3110   39.9520 C   0  0  2  0  0  3  0  0  0  0  0  0
   41.6770   32.8490   39.7880 C   0  0  2  0  0  3  0  0  0  0  0  0
   41.3020   32.3440   38.0750 S   0  0  0  0  0  0  0  0  0  0  0  0
   39.1900   30.6010   37.7860 C   0  0  0  0  0  2  0  0  0  0  0  0
   38.4370   30.0910   38.4240 H   0  0  0  0  0  0  0  0  0  0  0  0
   38.6300   32.9960   37.7010 C   0  0  0  0  0  2  0  0  0  0  0  0
   39.0540   34.0190   37.6700 H   0  0  0  0  0  0  0  0  0  0  0  0
  1 17  1  0  0  0  0
  1  2  1  0  0  0  0
  2  9  1  0  0  0  0
  3  2  2  0  0  0  0
  3  7  1  0  0  0  0
  4  3  1  0  0  0  0
  5  6  1  0  0  0  0
  5  4  2  0  0  0  0
  6  1  2  0  0  0  0
  8  5  1  0  0  0  0
  9 10  1  0  0  0  0
  9 13  2  0  0  0  0
 10 11  2  0  0  0  0
 11 12  1  0  0  0  0
 11 15  1  0  0  0  0
 12 16  1  0  0  0  0
 13 12  1  0  0  0  0
 14 10  1  0  0  0  0
 18 19  2  0  0  0  0
 18 17  1  0  0  0  0
 20 21  1  0  0  0  0
 21 22  1  0  0  0  0
 22 23  1  0  0  0  0
 23 24  2  0  0  0  0
 25 18  1  1  0  0  0
 25 23  1  0  0  0  0
 26 27  1  6  0  0  0
 26 25  1  0  0  0  0
 26 22  1  0  0  0  0
 27 20  1  0  0  0  0
 28 20  1  0  0  0  0
 28 29  1  0  0  0  0
 30 20  1  0  0  0  0
 31 30  1  0  0  0  0
M  END
>  <minimizedAffinity>
-6.05741787

>  <minimizedRMSD>
1.72296119

$$$$
