
 OpenBabel03242523553D

 48 52  0  0  1  0  0  0  0  0999 V2000
   42.8130   34.4630   38.7440 C   0  0  1  0  0  0  0  0  0  0  0  0
   42.9900   35.1540   40.0910 C   0  0  1  0  0  0  0  0  0  0  0  0
   41.7140   35.4260   40.6190 O   0  0  0  0  0  0  0  0  0  0  0  0
   40.7900   35.7760   39.6340 C   0  0  0  0  0  0  0  0  0  0  0  0
   40.4350   34.5970   38.7480 C   0  0  2  0  0  0  0  0  0  0  0  0
   41.6190   33.5740   38.8810 C   0  0  1  0  0  0  0  0  0  0  0  0
   43.6830   33.8100   38.5170 H   0  0  0  0  0  0  0  0  0  0  0  0
   43.6040   36.0560   40.0390 H   0  0  0  0  0  0  0  0  0  0  0  0
   41.0950   36.6640   39.0450 H   0  0  0  0  0  0  0  0  0  0  0  0
   39.8810   36.0670   40.1750 H   0  0  0  0  0  0  0  0  0  0  0  0
   39.4910   34.1030   39.0330 H   0  0  0  0  0  0  0  0  0  0  0  0
   41.4090   33.2990   39.9640 H   0  0  0  0  0  0  0  0  0  0  0  0
   42.6150   35.4040   37.7260 O   0  0  0  0  0  0  0  0  0  0  0  0
   43.2700   35.3460   37.0020 H   0  0  0  0  0  0  0  0  0  0  0  0
   40.4470   34.9980   37.4190 O   0  0  0  0  0  0  0  0  0  0  0  0
   40.3660   35.9590   37.3020 H   0  0  0  0  0  0  0  0  0  0  0  0
   43.5050   34.1620   40.9460 O   0  0  0  0  0  0  0  0  0  0  0  0
   44.6110   34.2960   41.6850 C   0  0  0  0  0  0  0  0  0  0  0  0
   45.8750   34.4190   41.0880 C   0  0  0  0  0  0  0  0  0  0  0  0
   46.9840   34.5570   41.9070 C   0  0  0  0  0  0  0  0  0  0  0  0
   46.8170   34.5690   43.2790 N   0  0  0  0  0  0  0  0  0  0  0  0
   45.5820   34.4480   43.8220 C   0  0  0  0  0  0  0  0  0  0  0  0
   44.4870   34.3120   43.0300 N   0  0  0  0  0  0  0  0  0  0  0  0
   46.0080   34.4090   40.0250 H   0  0  0  0  0  0  0  0  0  0  0  0
   45.4520   34.4580   44.8940 H   0  0  0  0  0  0  0  0  0  0  0  0
   48.3640   34.6730   41.3470 C   0  0  0  0  0  0  0  0  0  0  0  0
   49.0640   36.0220   41.5190 C   0  0  0  0  0  0  0  0  0  0  0  0
   49.5100   34.7080   42.1950 C   0  0  0  0  0  0  0  0  0  0  0  0
   48.4300   34.2340   40.3180 H   0  0  0  0  0  0  0  0  0  0  0  0
   48.5360   36.7690   42.1290 H   0  0  0  0  0  0  0  0  0  0  0  0
   49.7070   36.3930   40.7010 H   0  0  0  0  0  0  0  0  0  0  0  0
   49.4340   34.7420   43.3010 H   0  0  0  0  0  0  0  0  0  0  0  0
   50.5040   34.3420   41.8640 H   0  0  0  0  0  0  0  0  0  0  0  0
   41.4510   32.6340   37.9300 O   0  0  0  0  0  0  0  0  0  0  0  0
   40.4810   31.6960   37.8380 C   0  0  0  0  0  0  0  0  0  0  0  0
   39.2110   32.0140   37.8870 O   0  0  0  0  0  0  0  0  0  0  0  0
   43.6250   29.9500   36.6960 C   0  0  0  0  0  0  0  0  0  0  0  0
   42.6430   29.2640   35.7970 C   0  0  0  0  0  2  0  0  0  0  0  0
   41.3280   29.5000   36.2970 N   0  0  0  0  0  0  0  0  0  0  0  0
   39.9480   29.8310   36.2710 C   0  0  0  0  0  0  0  0  0  0  0  0
   38.9950   29.7890   35.4390 O   0  0  0  0  0  0  0  0  0  0  0  0
   40.0530   30.2750   37.6830 C   0  0  1  0  0  3  0  0  0  0  0  0
   41.2140   29.3120   37.7040 C   0  0  2  0  0  3  0  0  0  0  0  0
   42.7710   30.0770   38.2930 S   0  0  0  0  0  0  0  0  0  0  0  0
   44.1580   31.2470   36.1960 C   0  0  0  0  0  2  0  0  0  0  0  0
   43.6650   31.6020   35.2690 H   0  0  0  0  0  0  0  0  0  0  0  0
   44.7530   28.9350   36.9190 C   0  0  0  0  0  2  0  0  0  0  0  0
   45.2280   29.0770   37.9230 H   0  0  0  0  0  0  0  0  0  0  0  0
  1  7  1  6  0  0  0
  1  6  1  0  0  0  0
  1  2  1  0  0  0  0
  2  8  1  6  0  0  0
  2  3  1  0  0  0  0
  2 17  1  0  0  0  0
  4 10  1  0  0  0  0
  4  3  1  0  0  0  0
  5  6  1  0  0  0  0
  5 11  1  1  0  0  0
  5  4  1  0  0  0  0
  6 12  1  1  0  0  0
  9  4  1  0  0  0  0
 13  1  1  0  0  0  0
 14 13  1  0  0  0  0
 15  5  1  0  0  0  0
 16 15  1  0  0  0  0
 17 18  1  0  0  0  0
 18 23  1  0  0  0  0
 19 18  2  0  0  0  0
 19 20  1  0  0  0  0
 20 21  2  0  0  0  0
 21 22  1  0  0  0  0
 22 25  1  0  0  0  0
 23 22  2  0  0  0  0
 24 19  1  0  0  0  0
 26 27  1  0  0  0  0
 26 20  1  0  0  0  0
 26 28  1  0  0  0  0
 27 30  1  0  0  0  0
 27 28  1  0  0  0  0
 28 32  1  0  0  0  0
 29 26  1  0  0  0  0
 31 27  1  0  0  0  0
 33 28  1  0  0  0  0
 34  6  1  0  0  0  0
 35 36  2  0  0  0  0
 35 34  1  0  0  0  0
 37 47  1  0  0  0  0
 37 44  1  0  0  0  0
 38 39  1  0  0  0  0
 38 37  1  0  0  0  0
 39 43  1  0  0  0  0
 40 39  1  0  0  0  0
 40 42  1  0  0  0  0
 41 40  2  0  0  0  0
 42 43  1  0  0  0  0
 42 35  1  6  0  0  0
 43 44  1  1  0  0  0
 45 37  1  0  0  0  0
 46 45  1  0  0  0  0
 47 48  1  0  0  0  0
M  END
>  <minimizedAffinity>
-6.22162056

>  <minimizedRMSD>
2.57934022

$$$$
