
 OpenBabel03252505593D

 39 42  0  0  1  0  0  0  0  0999 V2000
   36.5720   31.2300   40.4240 C   0  0  0  0  0  0  0  0  0  0  0  0
   37.8310   31.8430   40.5810 C   0  0  0  0  0  0  0  0  0  0  0  0
   38.7670   31.2370   41.4480 C   0  0  0  0  0  0  0  0  0  0  0  0
   38.3780   30.0990   42.0700 N   0  0  0  0  0  0  0  0  0  0  0  0
   37.1810   29.5450   41.9030 C   0  0  0  0  0  0  0  0  0  0  0  0
   36.2730   30.1010   41.0840 N   0  0  0  0  0  0  0  0  0  0  0  0
   35.8250   31.6510   39.7760 H   0  0  0  0  0  0  0  0  0  0  0  0
   38.1530   33.0680   39.8170 C   0  0  0  0  0  0  0  0  0  0  0  0
   38.3590   34.0270   40.7900 F   0  0  0  0  0  0  0  0  0  0  0  0
   36.9810   33.4360   39.1230 F   0  0  0  0  0  0  0  0  0  0  0  0
   39.1880   32.9060   39.0200 F   0  0  0  0  0  0  0  0  0  0  0  0
   36.7860   28.3790   42.5470 O   0  0  0  0  0  0  0  0  0  0  0  0
   37.4480   27.9100   43.6790 C   0  0  0  0  0  0  0  0  0  0  0  0
   36.6830   27.5880   44.4450 H   0  0  0  0  0  0  0  0  0  0  0  0
   38.1030   28.6880   44.1470 H   0  0  0  0  0  0  0  0  0  0  0  0
   38.2510   26.7580   43.2880 C   0  0  0  0  0  0  0  0  0  0  0  0
   39.5330   26.4010   43.6730 C   0  0  0  0  0  0  0  0  0  0  0  0
   40.0630   25.2590   43.1590 C   0  0  0  0  0  0  0  0  0  0  0  0
   39.3930   24.4860   42.3090 N   0  0  0  0  0  0  0  0  0  0  0  0
   38.1550   24.8380   41.9400 C   0  0  0  0  0  0  0  0  0  0  0  0
   37.5660   25.9660   42.4160 N   0  0  0  0  0  0  0  0  0  0  0  0
   39.9850   27.0990   44.3680 H   0  0  0  0  0  0  0  0  0  0  0  0
   41.0800   25.0040   43.4830 H   0  0  0  0  0  0  0  0  0  0  0  0
   37.4930   23.9050   40.9870 C   0  0  0  0  0  0  0  0  0  0  0  0
   37.9750   22.6280   41.1240 F   0  0  0  0  0  0  0  0  0  0  0  0
   37.7090   24.3280   39.6660 F   0  0  0  0  0  0  0  0  0  0  0  0
   36.1280   23.8490   41.1730 F   0  0  0  0  0  0  0  0  0  0  0  0
   40.0460   31.7590   41.8340 C   0  0  0  0  0  2  0  0  0  0  0  0
   41.1860   30.9040   41.4230 C   0  0  1  0  0  0  0  0  0  0  0  0
   41.0920   30.3280   40.0260 C   0  0  0  0  0  2  0  0  0  0  0  0
   41.8460   31.1170   39.1100 N   0  0  0  0  0  0  0  0  0  0  0  0
   42.2910   31.9170   38.0230 C   0  0  0  0  0  0  0  0  0  0  0  0
   41.8980   32.3620   36.9140 O   0  0  0  0  0  0  0  0  0  0  0  0
   43.6360   32.1820   38.5980 C   0  0  0  0  0  3  0  0  0  0  0  0
   44.4970   31.8070   38.0220 H   0  0  0  0  0  0  0  0  0  0  0  0
   43.2170   31.2060   39.6390 C   0  0  1  0  0  3  0  0  0  0  0  0
   42.7100   31.9770   41.2320 S   0  0  0  0  0  0  0  0  0  0  0  0
   41.5720   29.7630   42.3260 C   0  0  0  0  0  2  0  0  0  0  0  0
   42.2900   30.0580   43.1140 H   0  0  0  0  0  0  0  0  0  0  0  0
  1  2  2  0  0  0  0
  1  6  1  0  0  0  0
  2  3  1  0  0  0  0
  3 28  1  0  0  0  0
  3  4  2  0  0  0  0
  5  4  1  0  0  0  0
  5 12  1  0  0  0  0
  6  5  2  0  0  0  0
  7  1  1  0  0  0  0
  8  2  1  0  0  0  0
  8  9  1  0  0  0  0
 10  8  1  0  0  0  0
 11  8  1  0  0  0  0
 12 13  1  0  0  0  0
 13 15  1  0  0  0  0
 13 14  1  0  0  0  0
 16 17  1  0  0  0  0
 16 13  1  0  0  0  0
 17 22  1  0  0  0  0
 18 23  1  0  0  0  0
 18 17  2  0  0  0  0
 19 18  1  0  0  0  0
 20 19  2  0  0  0  0
 20 21  1  0  0  0  0
 21 16  2  0  0  0  0
 24 25  1  0  0  0  0
 24 27  1  0  0  0  0
 24 20  1  0  0  0  0
 26 24  1  0  0  0  0
 29 28  1  1  0  0  0
 29 38  1  0  0  0  0
 30 29  1  0  0  0  0
 31 36  1  0  0  0  0
 31 30  1  0  0  0  0
 32 34  1  0  0  0  0
 32 31  1  0  0  0  0
 33 32  2  0  0  0  0
 35 34  1  0  0  0  0
 36 34  1  6  0  0  0
 36 37  1  0  0  0  0
 37 29  1  0  0  0  0
 38 39  1  0  0  0  0
M  END
>  <minimizedAffinity>
-6.18396759

$$$$

 OpenBabel03252505593D

 39 42  0  0  1  0  0  0  0  0999 V2000
   37.9080   30.8620   38.4200 C   0  0  0  0  0  0  0  0  0  0  0  0
   37.3320   30.4390   39.6340 C   0  0  0  0  0  0  0  0  0  0  0  0
   37.1090   29.0580   39.8240 C   0  0  0  0  0  0  0  0  0  0  0  0
   37.4710   28.2340   38.8120 N   0  0  0  0  0  0  0  0  0  0  0  0
   38.0110   28.6630   37.6760 C   0  0  0  0  0  0  0  0  0  0  0  0
   38.2330   29.9720   37.4700 N   0  0  0  0  0  0  0  0  0  0  0  0
   38.0980   31.9010   38.2250 H   0  0  0  0  0  0  0  0  0  0  0  0
   37.0130   31.4330   40.6820 C   0  0  0  0  0  0  0  0  0  0  0  0
   36.9210   32.6290   39.9950 F   0  0  0  0  0  0  0  0  0  0  0  0
   38.1480   31.5280   41.5140 F   0  0  0  0  0  0  0  0  0  0  0  0
   35.9180   31.1300   41.3460 F   0  0  0  0  0  0  0  0  0  0  0  0
   38.3750   27.8130   36.6390 O   0  0  0  0  0  0  0  0  0  0  0  0
   37.4380   27.0200   35.9810 C   0  0  0  0  0  0  0  0  0  0  0  0
   37.0590   26.2310   36.6930 H   0  0  0  0  0  0  0  0  0  0  0  0
   37.8670   26.5040   35.0850 H   0  0  0  0  0  0  0  0  0  0  0  0
   36.3290   27.8750   35.5740 C   0  0  0  0  0  0  0  0  0  0  0  0
   34.9720   27.7390   35.8200 C   0  0  0  0  0  0  0  0  0  0  0  0
   34.1330   28.6900   35.3260 C   0  0  0  0  0  0  0  0  0  0  0  0
   34.5740   29.7310   34.6250 N   0  0  0  0  0  0  0  0  0  0  0  0
   35.8870   29.8550   34.3920 C   0  0  0  0  0  0  0  0  0  0  0  0
   36.7800   28.9410   34.8560 N   0  0  0  0  0  0  0  0  0  0  0  0
   34.7240   26.8590   36.4000 H   0  0  0  0  0  0  0  0  0  0  0  0
   33.0650   28.5540   35.5360 H   0  0  0  0  0  0  0  0  0  0  0  0
   36.2750   31.0540   33.6000 C   0  0  0  0  0  0  0  0  0  0  0  0
   37.0230   30.7070   32.5040 F   0  0  0  0  0  0  0  0  0  0  0  0
   37.0220   31.9390   34.3940 F   0  0  0  0  0  0  0  0  0  0  0  0
   35.1780   31.7540   33.1410 F   0  0  0  0  0  0  0  0  0  0  0  0
   36.4330   28.4390   40.9280 C   0  0  0  0  0  2  0  0  0  0  0  0
   37.3470   27.9570   41.9910 C   0  0  1  0  0  0  0  0  0  0  0  0
   36.9540   26.6460   42.6380 C   0  0  0  0  0  2  0  0  0  0  0  0
   37.6760   25.5650   42.0540 N   0  0  0  0  0  0  0  0  0  0  0  0
   38.0730   24.3580   41.4190 C   0  0  0  0  0  0  0  0  0  0  0  0
   37.5930   23.2770   40.9910 O   0  0  0  0  0  0  0  0  0  0  0  0
   39.5140   24.7150   41.3480 C   0  0  0  0  0  3  0  0  0  0  0  0
   40.2070   24.0630   41.9030 H   0  0  0  0  0  0  0  0  0  0  0  0
   39.1080   25.8910   42.1630 C   0  0  1  0  0  3  0  0  0  0  0  0
   38.9760   27.4590   41.2080 S   0  0  0  0  0  0  0  0  0  0  0  0
   37.6800   28.9010   43.1150 C   0  0  0  0  0  2  0  0  0  0  0  0
   38.5460   29.5510   42.8930 H   0  0  0  0  0  0  0  0  0  0  0  0
  1  2  1  0  0  0  0
  2  3  2  0  0  0  0
  2  8  1  0  0  0  0
  3 28  1  0  0  0  0
  4  3  1  0  0  0  0
  5  4  2  0  0  0  0
  6  5  1  0  0  0  0
  6  1  2  0  0  0  0
  7  1  1  0  0  0  0
  8 11  1  0  0  0  0
  8 10  1  0  0  0  0
  9  8  1  0  0  0  0
 12  5  1  0  0  0  0
 13 12  1  0  0  0  0
 13 14  1  0  0  0  0
 15 13  1  0  0  0  0
 16 17  1  0  0  0  0
 16 13  1  0  0  0  0
 17 22  1  0  0  0  0
 18 23  1  0  0  0  0
 18 17  2  0  0  0  0
 19 18  1  0  0  0  0
 20 19  2  0  0  0  0
 20 21  1  0  0  0  0
 21 16  2  0  0  0  0
 24 20  1  0  0  0  0
 24 26  1  0  0  0  0
 25 24  1  0  0  0  0
 27 24  1  0  0  0  0
 29 28  1  6  0  0  0
 29 30  1  0  0  0  0
 29 38  1  0  0  0  0
 31 36  1  0  0  0  0
 31 30  1  0  0  0  0
 32 31  1  0  0  0  0
 33 32  2  0  0  0  0
 34 32  1  0  0  0  0
 34 35  1  0  0  0  0
 34 36  1  0  0  0  0
 36 37  1  6  0  0  0
 37 29  1  0  0  0  0
 39 38  1  0  0  0  0
M  END
>  <minimizedAffinity>
-6.12921286

$$$$

 OpenBabel03252505593D

 39 42  0  0  1  0  0  0  0  0999 V2000
   39.4510   31.8700   41.4810 C   0  0  0  0  0  0  0  0  0  0  0  0
   38.3770   31.8930   40.5690 C   0  0  0  0  0  0  0  0  0  0  0  0
   37.4340   30.8430   40.6200 C   0  0  0  0  0  0  0  0  0  0  0  0
   37.6350   29.8830   41.5540 N   0  0  0  0  0  0  0  0  0  0  0  0
   38.6590   29.8880   42.4000 C   0  0  0  0  0  0  0  0  0  0  0  0
   39.5720   30.8740   42.3730 N   0  0  0  0  0  0  0  0  0  0  0  0
   40.1960   32.6440   41.4830 H   0  0  0  0  0  0  0  0  0  0  0  0
   38.2440   33.0170   39.6180 C   0  0  0  0  0  0  0  0  0  0  0  0
   36.8830   33.2430   39.5510 F   0  0  0  0  0  0  0  0  0  0  0  0
   38.6390   32.5320   38.3540 F   0  0  0  0  0  0  0  0  0  0  0  0
   38.9290   34.0780   39.9930 F   0  0  0  0  0  0  0  0  0  0  0  0
   38.8640   28.8980   43.3530 O   0  0  0  0  0  0  0  0  0  0  0  0
   37.9170   27.9030   43.5870 C   0  0  0  0  0  0  0  0  0  0  0  0
   37.0100   28.1000   42.9460 H   0  0  0  0  0  0  0  0  0  0  0  0
   37.5870   27.8680   44.6560 H   0  0  0  0  0  0  0  0  0  0  0  0
   38.5050   26.6230   43.2100 C   0  0  0  0  0  0  0  0  0  0  0  0
   39.7150   26.0610   43.5830 C   0  0  0  0  0  0  0  0  0  0  0  0
   40.0330   24.8350   43.0880 C   0  0  0  0  0  0  0  0  0  0  0  0
   39.2240   24.1700   42.2660 N   0  0  0  0  0  0  0  0  0  0  0  0
   38.0560   24.7200   41.9090 C   0  0  0  0  0  0  0  0  0  0  0  0
   37.6780   25.9430   42.3680 N   0  0  0  0  0  0  0  0  0  0  0  0
   40.2920   26.6850   44.2540 H   0  0  0  0  0  0  0  0  0  0  0  0
   40.9970   24.4170   43.4010 H   0  0  0  0  0  0  0  0  0  0  0  0
   37.2270   23.8950   40.9890 C   0  0  0  0  0  0  0  0  0  0  0  0
   35.9070   23.9080   41.3610 F   0  0  0  0  0  0  0  0  0  0  0  0
   37.6820   22.5670   40.9870 F   0  0  0  0  0  0  0  0  0  0  0  0
   37.2900   24.3430   39.6860 F   0  0  0  0  0  0  0  0  0  0  0  0
   36.3460   30.6190   39.7130 C   0  0  0  0  0  2  0  0  0  0  0  0
   36.6340   29.5960   38.6790 C   0  0  1  0  0  0  0  0  0  0  0  0
   37.9810   29.7230   38.0000 C   0  0  0  0  0  2  0  0  0  0  0  0
   38.9260   28.8390   38.5970 N   0  0  0  0  0  0  0  0  0  0  0  0
   40.0550   28.2540   39.2310 C   0  0  0  0  0  0  0  0  0  0  0  0
   41.2130   28.5460   39.6260 O   0  0  0  0  0  0  0  0  0  0  0  0
   39.4470   26.9040   39.3630 C   0  0  0  0  0  3  0  0  0  0  0  0
   39.9510   26.0860   38.8260 H   0  0  0  0  0  0  0  0  0  0  0  0
   38.3470   27.4860   38.5480 C   0  0  1  0  0  3  0  0  0  0  0  0
   36.8470   27.9320   39.5170 S   0  0  0  0  0  0  0  0  0  0  0  0
   35.6230   29.3990   37.5810 C   0  0  0  0  0  2  0  0  0  0  0  0
   34.8330   28.6720   37.8450 H   0  0  0  0  0  0  0  0  0  0  0  0
  1  7  1  0  0  0  0
  1  6  1  0  0  0  0
  2  3  1  0  0  0  0
  2  1  2  0  0  0  0
  3  4  2  0  0  0  0
  4  5  1  0  0  0  0
  5 12  1  0  0  0  0
  6  5  2  0  0  0  0
  8 11  1  0  0  0  0
  8  2  1  0  0  0  0
  9  8  1  0  0  0  0
 10  8  1  0  0  0  0
 12 13  1  0  0  0  0
 13 15  1  0  0  0  0
 14 13  1  0  0  0  0
 16 17  1  0  0  0  0
 16 13  1  0  0  0  0
 17 22  1  0  0  0  0
 18 23  1  0  0  0  0
 18 17  2  0  0  0  0
 19 18  1  0  0  0  0
 20 19  2  0  0  0  0
 20 21  1  0  0  0  0
 21 16  2  0  0  0  0
 24 25  1  0  0  0  0
 24 20  1  0  0  0  0
 26 24  1  0  0  0  0
 27 24  1  0  0  0  0
 28  3  1  0  0  0  0
 29 38  1  6  0  0  0
 29 37  1  0  0  0  0
 29 28  1  0  0  0  0
 30 31  1  0  0  0  0
 30 29  1  0  0  0  0
 31 32  1  0  0  0  0
 32 34  1  0  0  0  0
 32 33  2  0  0  0  0
 35 34  1  0  0  0  0
 36 31  1  0  0  0  0
 36 34  1  1  0  0  0
 36 37  1  0  0  0  0
 38 39  1  0  0  0  0
M  END
>  <minimizedAffinity>
-6.10492277

$$$$

 OpenBabel03252505593D

 39 42  0  0  1  0  0  0  0  0999 V2000
   37.7010   31.5790   37.6900 C   0  0  0  0  0  0  0  0  0  0  0  0
   37.6090   31.4790   39.0930 C   0  0  0  0  0  0  0  0  0  0  0  0
   36.8530   30.4180   39.6400 C   0  0  0  0  0  0  0  0  0  0  0  0
   36.2660   29.5690   38.7640 N   0  0  0  0  0  0  0  0  0  0  0  0
   36.3690   29.6900   37.4440 C   0  0  0  0  0  0  0  0  0  0  0  0
   37.0830   30.6890   36.8980 N   0  0  0  0  0  0  0  0  0  0  0  0
   38.2630   32.3660   37.2240 H   0  0  0  0  0  0  0  0  0  0  0  0
   38.3270   32.4480   39.9480 C   0  0  0  0  0  0  0  0  0  0  0  0
   37.3320   33.2870   40.4150 F   0  0  0  0  0  0  0  0  0  0  0  0
   39.1420   33.2200   39.0940 F   0  0  0  0  0  0  0  0  0  0  0  0
   39.0080   31.8630   40.9110 F   0  0  0  0  0  0  0  0  0  0  0  0
   35.7610   28.8180   36.5500 O   0  0  0  0  0  0  0  0  0  0  0  0
   34.5970   28.1280   36.8800 C   0  0  0  0  0  0  0  0  0  0  0  0
   34.5240   28.0450   38.0040 H   0  0  0  0  0  0  0  0  0  0  0  0
   34.5770   27.0930   36.4540 H   0  0  0  0  0  0  0  0  0  0  0  0
   33.4610   28.8920   36.3780 C   0  0  0  0  0  0  0  0  0  0  0  0
   33.1860   29.3240   35.0920 C   0  0  0  0  0  0  0  0  0  0  0  0
   32.0400   30.0270   34.8830 C   0  0  0  0  0  0  0  0  0  0  0  0
   31.1890   30.3060   35.8680 N   0  0  0  0  0  0  0  0  0  0  0  0
   31.4630   29.8850   37.1090 C   0  0  0  0  0  0  0  0  0  0  0  0
   32.5910   29.1780   37.3860 N   0  0  0  0  0  0  0  0  0  0  0  0
   33.9420   29.0420   34.3700 H   0  0  0  0  0  0  0  0  0  0  0  0
   31.8500   30.3560   33.8540 H   0  0  0  0  0  0  0  0  0  0  0  0
   30.4480   30.2480   38.1340 C   0  0  0  0  0  0  0  0  0  0  0  0
   30.8180   29.8090   39.3800 F   0  0  0  0  0  0  0  0  0  0  0  0
   29.2050   29.6830   37.8080 F   0  0  0  0  0  0  0  0  0  0  0  0
   30.2580   31.6120   38.2210 F   0  0  0  0  0  0  0  0  0  0  0  0
   36.5400   30.2100   41.0240 C   0  0  0  0  0  2  0  0  0  0  0  0
   37.3070   29.1040   41.6470 C   0  0  1  0  0  0  0  0  0  0  0  0
   36.5460   27.8080   41.8250 C   0  0  0  0  0  2  0  0  0  0  0  0
   36.8410   26.9060   40.7610 N   0  0  0  0  0  0  0  0  0  0  0  0
   36.7840   26.0050   39.6640 C   0  0  0  0  0  0  0  0  0  0  0  0
   35.9530   25.3710   38.9640 O   0  0  0  0  0  0  0  0  0  0  0  0
   38.2560   25.9470   39.4660 C   0  0  0  0  0  3  0  0  0  0  0  0
   38.7290   24.9620   39.6040 H   0  0  0  0  0  0  0  0  0  0  0  0
   38.3040   26.7500   40.7180 C   0  0  1  0  0  3  0  0  0  0  0  0
   38.6360   28.5400   40.4500 S   0  0  0  0  0  0  0  0  0  0  0  0
   37.9950   29.3750   42.9580 C   0  0  0  0  0  2  0  0  0  0  0  0
   39.0120   29.7920   42.8360 H   0  0  0  0  0  0  0  0  0  0  0  0
  1  2  1  0  0  0  0
  2  3  2  0  0  0  0
  2  8  1  0  0  0  0
  3 28  1  0  0  0  0
  4  3  1  0  0  0  0
  5  4  2  0  0  0  0
  6  5  1  0  0  0  0
  6  1  2  0  0  0  0
  7  1  1  0  0  0  0
  8  9  1  0  0  0  0
  8 11  1  0  0  0  0
 10  8  1  0  0  0  0
 12 13  1  0  0  0  0
 12  5  1  0  0  0  0
 13 14  1  0  0  0  0
 15 13  1  0  0  0  0
 16 13  1  0  0  0  0
 16 21  1  0  0  0  0
 17 16  2  0  0  0  0
 18 17  1  0  0  0  0
 18 19  2  0  0  0  0
 19 20  1  0  0  0  0
 20 21  2  0  0  0  0
 20 24  1  0  0  0  0
 22 17  1  0  0  0  0
 23 18  1  0  0  0  0
 24 27  1  0  0  0  0
 24 25  1  0  0  0  0
 26 24  1  0  0  0  0
 29 28  1  6  0  0  0
 29 30  1  0  0  0  0
 29 38  1  0  0  0  0
 31 30  1  0  0  0  0
 32 31  1  0  0  0  0
 33 32  2  0  0  0  0
 34 35  1  0  0  0  0
 34 32  1  0  0  0  0
 36 34  1  6  0  0  0
 36 31  1  0  0  0  0
 37 36  1  0  0  0  0
 37 29  1  0  0  0  0
 39 38  1  0  0  0  0
M  END
>  <minimizedAffinity>
-5.95579624

$$$$

 OpenBabel03252505593D

 39 42  0  0  1  0  0  0  0  0999 V2000
   37.1220   30.4610   40.5500 C   0  0  0  0  0  0  0  0  0  0  0  0
   37.4970   29.5310   41.5400 C   0  0  0  0  0  0  0  0  0  0  0  0
   36.7550   28.3340   41.6480 C   0  0  0  0  0  0  0  0  0  0  0  0
   35.7280   28.1690   40.7810 N   0  0  0  0  0  0  0  0  0  0  0  0
   35.3970   29.0670   39.8590 C   0  0  0  0  0  0  0  0  0  0  0  0
   36.0850   30.2140   39.7340 N   0  0  0  0  0  0  0  0  0  0  0  0
   37.6530   31.3870   40.4270 H   0  0  0  0  0  0  0  0  0  0  0  0
   38.6630   29.8080   42.4050 C   0  0  0  0  0  0  0  0  0  0  0  0
   38.9880   31.1210   42.1230 F   0  0  0  0  0  0  0  0  0  0  0  0
   39.7260   29.0140   41.9250 F   0  0  0  0  0  0  0  0  0  0  0  0
   38.4060   29.5990   43.6790 F   0  0  0  0  0  0  0  0  0  0  0  0
   34.3380   28.8940   38.9750 O   0  0  0  0  0  0  0  0  0  0  0  0
   34.5420   28.8040   37.6000 C   0  0  0  0  0  0  0  0  0  0  0  0
   34.8320   27.7440   37.3410 H   0  0  0  0  0  0  0  0  0  0  0  0
   35.3540   29.4850   37.2410 H   0  0  0  0  0  0  0  0  0  0  0  0
   33.2870   29.1360   36.9360 C   0  0  0  0  0  0  0  0  0  0  0  0
   32.9700   29.1220   35.5870 C   0  0  0  0  0  0  0  0  0  0  0  0
   31.7090   29.4770   35.2210 C   0  0  0  0  0  0  0  0  0  0  0  0
   30.7850   29.8320   36.1110 N   0  0  0  0  0  0  0  0  0  0  0  0
   31.1000   29.8440   37.4130 C   0  0  0  0  0  0  0  0  0  0  0  0
   32.3410   29.5000   37.8460 N   0  0  0  0  0  0  0  0  0  0  0  0
   33.7930   28.8170   34.9530 H   0  0  0  0  0  0  0  0  0  0  0  0
   31.4890   29.4570   34.1470 H   0  0  0  0  0  0  0  0  0  0  0  0
   29.9960   30.2540   38.3230 C   0  0  0  0  0  0  0  0  0  0  0  0
   30.2060   29.7990   39.5990 F   0  0  0  0  0  0  0  0  0  0  0  0
   28.7720   29.7460   37.8600 F   0  0  0  0  0  0  0  0  0  0  0  0
   29.8600   31.6250   38.3940 F   0  0  0  0  0  0  0  0  0  0  0  0
   36.8980   27.3210   42.6540 C   0  0  0  0  0  2  0  0  0  0  0  0
   37.7980   26.2120   42.2580 C   0  0  1  0  0  0  0  0  0  0  0  0
   37.1560   24.8420   42.2090 C   0  0  0  0  0  2  0  0  0  0  0  0
   36.7840   24.5130   40.8740 N   0  0  0  0  0  0  0  0  0  0  0  0
   36.0970   24.1350   39.6880 C   0  0  0  0  0  0  0  0  0  0  0  0
   34.9810   23.7020   39.3040 O   0  0  0  0  0  0  0  0  0  0  0  0
   37.2370   24.4210   38.7790 C   0  0  0  0  0  3  0  0  0  0  0  0
   37.6430   23.5640   38.2190 H   0  0  0  0  0  0  0  0  0  0  0  0
   37.9920   24.6460   40.0410 C   0  0  1  0  0  3  0  0  0  0  0  0
   38.2580   26.4210   40.4520 S   0  0  0  0  0  0  0  0  0  0  0  0
   39.0890   26.0480   43.0140 C   0  0  0  0  0  2  0  0  0  0  0  0
   39.9160   26.6500   42.5960 H   0  0  0  0  0  0  0  0  0  0  0  0
  1  2  1  0  0  0  0
  2  3  2  0  0  0  0
  2  8  1  0  0  0  0
  3 28  1  0  0  0  0
  4  3  1  0  0  0  0
  5  4  2  0  0  0  0
  6  5  1  0  0  0  0
  6  1  2  0  0  0  0
  7  1  1  0  0  0  0
  8 11  1  0  0  0  0
  9  8  1  0  0  0  0
 10  8  1  0  0  0  0
 12  5  1  0  0  0  0
 13 12  1  0  0  0  0
 14 13  1  0  0  0  0
 15 13  1  0  0  0  0
 16 13  1  0  0  0  0
 16 21  1  0  0  0  0
 17 16  2  0  0  0  0
 18 17  1  0  0  0  0
 18 19  2  0  0  0  0
 19 20  1  0  0  0  0
 20 21  2  0  0  0  0
 20 24  1  0  0  0  0
 22 17  1  0  0  0  0
 23 18  1  0  0  0  0
 24 27  1  0  0  0  0
 24 25  1  0  0  0  0
 26 24  1  0  0  0  0
 29 28  1  1  0  0  0
 29 38  1  0  0  0  0
 30 29  1  0  0  0  0
 31 30  1  0  0  0  0
 32 31  1  0  0  0  0
 33 32  2  0  0  0  0
 34 32  1  0  0  0  0
 35 34  1  0  0  0  0
 36 34  1  6  0  0  0
 36 37  1  0  0  0  0
 36 31  1  0  0  0  0
 37 29  1  0  0  0  0
 39 38  1  0  0  0  0
M  END
>  <minimizedAffinity>
-5.90678358

$$$$

 OpenBabel03252505593D

 39 42  0  0  1  0  0  0  0  0999 V2000
   36.8300   30.7940   38.4640 C   0  0  0  0  0  0  0  0  0  0  0  0
   36.2280   29.8770   39.3480 C   0  0  0  0  0  0  0  0  0  0  0  0
   36.6250   29.8980   40.7040 C   0  0  0  0  0  0  0  0  0  0  0  0
   37.5640   30.8080   41.0540 N   0  0  0  0  0  0  0  0  0  0  0  0
   38.1150   31.6590   40.1960 C   0  0  0  0  0  0  0  0  0  0  0  0
   37.7560   31.6610   38.9010 N   0  0  0  0  0  0  0  0  0  0  0  0
   36.5640   30.8200   37.4230 H   0  0  0  0  0  0  0  0  0  0  0  0
   35.1850   28.9540   38.8530 C   0  0  0  0  0  0  0  0  0  0  0  0
   34.9940   29.3350   37.5390 F   0  0  0  0  0  0  0  0  0  0  0  0
   33.9980   29.2700   39.5460 F   0  0  0  0  0  0  0  0  0  0  0  0
   35.5290   27.6900   38.9820 F   0  0  0  0  0  0  0  0  0  0  0  0
   39.0820   32.5880   40.5600 O   0  0  0  0  0  0  0  0  0  0  0  0
   39.4920   33.5950   39.6890 C   0  0  0  0  0  0  0  0  0  0  0  0
   39.0660   34.5800   40.0390 H   0  0  0  0  0  0  0  0  0  0  0  0
   39.1480   33.4210   38.6390 H   0  0  0  0  0  0  0  0  0  0  0  0
   40.9490   33.6590   39.7280 C   0  0  0  0  0  0  0  0  0  0  0  0
   41.8370   34.1610   38.7900 C   0  0  0  0  0  0  0  0  0  0  0  0
   43.1660   34.1050   39.0720 C   0  0  0  0  0  0  0  0  0  0  0  0
   43.6300   33.5900   40.2080 N   0  0  0  0  0  0  0  0  0  0  0  0
   42.7650   33.1060   41.1090 C   0  0  0  0  0  0  0  0  0  0  0  0
   41.4230   33.1310   40.8900 N   0  0  0  0  0  0  0  0  0  0  0  0
   41.3530   34.5570   37.9060 H   0  0  0  0  0  0  0  0  0  0  0  0
   43.8440   34.5090   38.3100 H   0  0  0  0  0  0  0  0  0  0  0  0
   43.3860   32.5540   42.3440 C   0  0  0  0  0  0  0  0  0  0  0  0
   43.9680   33.5430   43.0940 F   0  0  0  0  0  0  0  0  0  0  0  0
   44.3670   31.6060   42.0110 F   0  0  0  0  0  0  0  0  0  0  0  0
   42.4670   31.9150   43.1500 F   0  0  0  0  0  0  0  0  0  0  0  0
   36.2250   28.9790   41.7310 C   0  0  0  0  0  2  0  0  0  0  0  0
   37.3390   28.1520   42.2550 C   0  0  1  0  0  0  0  0  0  0  0  0
   36.9340   26.8180   42.8440 C   0  0  0  0  0  2  0  0  0  0  0  0
   37.1140   25.7760   41.8890 N   0  0  0  0  0  0  0  0  0  0  0  0
   36.9540   24.6740   41.0060 C   0  0  0  0  0  0  0  0  0  0  0  0
   36.1150   23.7930   40.6880 O   0  0  0  0  0  0  0  0  0  0  0  0
   38.3000   24.8030   40.3900 C   0  0  0  0  0  3  0  0  0  0  0  0
   38.9840   23.9510   40.5270 H   0  0  0  0  0  0  0  0  0  0  0  0
   38.5130   25.8400   41.4350 C   0  0  1  0  0  3  0  0  0  0  0  0
   38.3900   27.5690   40.8160 S   0  0  0  0  0  0  0  0  0  0  0  0
   38.2800   28.7850   43.2460 C   0  0  0  0  0  2  0  0  0  0  0  0
   39.1200   29.3190   42.7660 H   0  0  0  0  0  0  0  0  0  0  0  0
  1  6  2  0  0  0  0
  1  2  1  0  0  0  0
  2  3  2  0  0  0  0
  3  4  1  0  0  0  0
  3 28  1  0  0  0  0
  5 12  1  0  0  0  0
  5  4  2  0  0  0  0
  6  5  1  0  0  0  0
  7  1  1  0  0  0  0
  8 11  1  0  0  0  0
  8  2  1  0  0  0  0
  8 10  1  0  0  0  0
  9  8  1  0  0  0  0
 13 16  1  0  0  0  0
 13 14  1  0  0  0  0
 13 12  1  0  0  0  0
 15 13  1  0  0  0  0
 16 21  1  0  0  0  0
 17 18  1  0  0  0  0
 17 16  2  0  0  0  0
 18 19  2  0  0  0  0
 19 20  1  0  0  0  0
 20 24  1  0  0  0  0
 21 20  2  0  0  0  0
 22 17  1  0  0  0  0
 23 18  1  0  0  0  0
 24 25  1  0  0  0  0
 24 27  1  0  0  0  0
 26 24  1  0  0  0  0
 29 28  1  6  0  0  0
 29 30  1  0  0  0  0
 29 38  1  0  0  0  0
 31 30  1  0  0  0  0
 32 31  1  0  0  0  0
 33 32  2  0  0  0  0
 34 35  1  0  0  0  0
 34 32  1  0  0  0  0
 36 34  1  6  0  0  0
 36 31  1  0  0  0  0
 37 36  1  0  0  0  0
 37 29  1  0  0  0  0
 39 38  1  0  0  0  0
M  END
>  <minimizedAffinity>
-5.88800669

$$$$

 OpenBabel03252505593D

 39 42  0  0  1  0  0  0  0  0999 V2000
   39.8040   24.7850   39.9270 C   0  0  0  0  0  0  0  0  0  0  0  0
   38.6160   25.0820   40.6240 C   0  0  0  0  0  0  0  0  0  0  0  0
   38.0700   26.3780   40.4940 C   0  0  0  0  0  0  0  0  0  0  0  0
   38.7380   27.2470   39.6980 N   0  0  0  0  0  0  0  0  0  0  0  0
   39.8590   26.9380   39.0540 C   0  0  0  0  0  0  0  0  0  0  0  0
   40.3990   25.7120   39.1610 N   0  0  0  0  0  0  0  0  0  0  0  0
   40.2600   23.8140   39.9930 H   0  0  0  0  0  0  0  0  0  0  0  0
   37.9580   24.0350   41.4350 C   0  0  0  0  0  0  0  0  0  0  0  0
   38.4080   24.2710   42.7200 F   0  0  0  0  0  0  0  0  0  0  0  0
   38.5070   22.8000   41.0320 F   0  0  0  0  0  0  0  0  0  0  0  0
   36.6460   24.0680   41.3300 F   0  0  0  0  0  0  0  0  0  0  0  0
   40.5420   27.8340   38.2430 O   0  0  0  0  0  0  0  0  0  0  0  0
   39.8710   28.6860   37.3680 C   0  0  0  0  0  0  0  0  0  0  0  0
   38.7890   28.3710   37.3050 H   0  0  0  0  0  0  0  0  0  0  0  0
   40.3010   28.6640   36.3350 H   0  0  0  0  0  0  0  0  0  0  0  0
   39.9480   30.0390   37.9070 C   0  0  0  0  0  0  0  0  0  0  0  0
   41.0380   30.8870   38.0150 C   0  0  0  0  0  0  0  0  0  0  0  0
   40.8410   32.1180   38.5590 C   0  0  0  0  0  0  0  0  0  0  0  0
   39.6470   32.5230   38.9850 N   0  0  0  0  0  0  0  0  0  0  0  0
   38.5990   31.6970   38.8770 C   0  0  0  0  0  0  0  0  0  0  0  0
   38.7260   30.4530   38.3430 N   0  0  0  0  0  0  0  0  0  0  0  0
   41.9580   30.4580   37.6380 H   0  0  0  0  0  0  0  0  0  0  0  0
   41.7230   32.7660   38.6320 H   0  0  0  0  0  0  0  0  0  0  0  0
   37.3100   32.2470   39.3810 C   0  0  0  0  0  0  0  0  0  0  0  0
   36.3100   31.3100   39.3190 F   0  0  0  0  0  0  0  0  0  0  0  0
   36.9290   33.3630   38.6200 F   0  0  0  0  0  0  0  0  0  0  0  0
   37.3990   32.6650   40.6930 F   0  0  0  0  0  0  0  0  0  0  0  0
   36.9460   26.9140   41.2050 C   0  0  0  0  0  2  0  0  0  0  0  0
   37.3170   27.6390   42.4440 C   0  0  1  0  0  0  0  0  0  0  0  0
   38.7650   27.5060   42.8630 C   0  0  0  0  0  2  0  0  0  0  0  0
   39.5160   28.6370   42.4290 N   0  0  0  0  0  0  0  0  0  0  0  0
   40.4680   29.5170   41.8470 C   0  0  0  0  0  0  0  0  0  0  0  0
   41.5620   29.5000   41.2280 O   0  0  0  0  0  0  0  0  0  0  0  0
   39.7320   30.7580   42.2030 C   0  0  0  0  0  3  0  0  0  0  0  0
   40.2490   31.4550   42.8830 H   0  0  0  0  0  0  0  0  0  0  0  0
   38.8400   29.8350   42.9540 C   0  0  1  0  0  3  0  0  0  0  0  0
   37.2420   29.4830   42.1120 S   0  0  0  0  0  0  0  0  0  0  0  0
   36.4940   27.3900   43.6800 C   0  0  0  0  0  2  0  0  0  0  0  0
   35.6100   28.0510   43.7530 H   0  0  0  0  0  0  0  0  0  0  0  0
  1  7  1  0  0  0  0
  1  2  1  0  0  0  0
  2  8  1  0  0  0  0
  3  2  2  0  0  0  0
  3 28  1  0  0  0  0
  4  3  1  0  0  0  0
  5  6  1  0  0  0  0
  5  4  2  0  0  0  0
  6  1  2  0  0  0  0
  8  9  1  0  0  0  0
 10  8  1  0  0  0  0
 11  8  1  0  0  0  0
 12  5  1  0  0  0  0
 13 16  1  0  0  0  0
 13 12  1  0  0  0  0
 14 13  1  0  0  0  0
 15 13  1  0  0  0  0
 16 17  2  0  0  0  0
 16 21  1  0  0  0  0
 17 18  1  0  0  0  0
 18 23  1  0  0  0  0
 18 19  2  0  0  0  0
 20 19  1  0  0  0  0
 20 24  1  0  0  0  0
 21 20  2  0  0  0  0
 22 17  1  0  0  0  0
 24 27  1  0  0  0  0
 25 24  1  0  0  0  0
 26 24  1  0  0  0  0
 29 28  1  6  0  0  0
 29 30  1  0  0  0  0
 29 38  1  0  0  0  0
 31 30  1  0  0  0  0
 31 36  1  0  0  0  0
 32 34  1  0  0  0  0
 32 31  1  0  0  0  0
 33 32  2  0  0  0  0
 34 35  1  0  0  0  0
 34 36  1  0  0  0  0
 36 37  1  6  0  0  0
 37 29  1  0  0  0  0
 38 39  1  0  0  0  0
M  END
>  <minimizedAffinity>
-5.83651638

$$$$

 OpenBabel03252505593D

 39 42  0  0  1  0  0  0  0  0999 V2000
   39.7620   26.5840   43.3410 C   0  0  0  0  0  0  0  0  0  0  0  0
   38.8260   25.9240   42.5210 C   0  0  0  0  0  0  0  0  0  0  0  0
   37.9600   26.7100   41.7280 C   0  0  0  0  0  0  0  0  0  0  0  0
   38.0980   28.0530   41.8170 N   0  0  0  0  0  0  0  0  0  0  0  0
   38.9900   28.6480   42.6020 C   0  0  0  0  0  0  0  0  0  0  0  0
   39.8260   27.9240   43.3670 N   0  0  0  0  0  0  0  0  0  0  0  0
   40.4420   26.0330   43.9640 H   0  0  0  0  0  0  0  0  0  0  0  0
   38.7950   24.4460   42.4810 C   0  0  0  0  0  0  0  0  0  0  0  0
   39.6810   24.0640   43.4710 F   0  0  0  0  0  0  0  0  0  0  0  0
   39.3670   24.0590   41.2520 F   0  0  0  0  0  0  0  0  0  0  0  0
   37.5830   23.9630   42.6550 F   0  0  0  0  0  0  0  0  0  0  0  0
   39.1240   30.0270   42.6930 O   0  0  0  0  0  0  0  0  0  0  0  0
   40.3610   30.6530   42.5500 C   0  0  0  0  0  0  0  0  0  0  0  0
   41.1300   29.8820   42.2530 H   0  0  0  0  0  0  0  0  0  0  0  0
   40.7060   31.1420   43.4950 H   0  0  0  0  0  0  0  0  0  0  0  0
   40.2430   31.6490   41.4910 C   0  0  0  0  0  0  0  0  0  0  0  0
   41.1920   32.5250   40.9920 C   0  0  0  0  0  0  0  0  0  0  0  0
   40.8260   33.3630   39.9850 C   0  0  0  0  0  0  0  0  0  0  0  0
   39.5960   33.3630   39.4750 N   0  0  0  0  0  0  0  0  0  0  0  0
   38.6840   32.5140   39.9640 C   0  0  0  0  0  0  0  0  0  0  0  0
   38.9850   31.6500   40.9690 N   0  0  0  0  0  0  0  0  0  0  0  0
   42.1570   32.4390   41.4770 H   0  0  0  0  0  0  0  0  0  0  0  0
   41.5990   34.0450   39.6120 H   0  0  0  0  0  0  0  0  0  0  0  0
   37.3430   32.5950   39.3230 C   0  0  0  0  0  0  0  0  0  0  0  0
   37.3930   32.2030   38.0100 F   0  0  0  0  0  0  0  0  0  0  0  0
   36.8560   33.9100   39.3820 F   0  0  0  0  0  0  0  0  0  0  0  0
   36.4140   31.7940   39.9540 F   0  0  0  0  0  0  0  0  0  0  0  0
   36.8690   26.2420   40.9230 C   0  0  0  0  0  2  0  0  0  0  0  0
   37.0390   26.5130   39.4750 C   0  0  1  0  0  0  0  0  0  0  0  0
   38.4520   26.3740   38.9520 C   0  0  0  0  0  2  0  0  0  0  0  0
   38.6370   25.0970   38.3470 N   0  0  0  0  0  0  0  0  0  0  0  0
   39.0910   23.8040   37.9710 C   0  0  0  0  0  0  0  0  0  0  0  0
   40.0320   22.9990   38.1890 O   0  0  0  0  0  0  0  0  0  0  0  0
   37.9580   23.5310   37.0490 C   0  0  0  0  0  3  0  0  0  0  0  0
   38.2160   23.3810   35.9880 H   0  0  0  0  0  0  0  0  0  0  0  0
   37.5930   24.9480   37.3200 C   0  0  1  0  0  3  0  0  0  0  0  0
   36.1950   25.1510   38.5010 S   0  0  0  0  0  0  0  0  0  0  0  0
   36.5130   27.8170   38.9360 C   0  0  0  0  0  2  0  0  0  0  0  0
   35.4510   27.7640   38.6340 H   0  0  0  0  0  0  0  0  0  0  0  0
  1  6  1  0  0  0  0
  1  7  1  0  0  0  0
  2  1  2  0  0  0  0
  3  4  2  0  0  0  0
  3  2  1  0  0  0  0
  4  5  1  0  0  0  0
  5 12  1  0  0  0  0
  5  6  2  0  0  0  0
  8  2  1  0  0  0  0
  8 11  1  0  0  0  0
  8  9  1  0  0  0  0
 10  8  1  0  0  0  0
 13 12  1  0  0  0  0
 13 15  1  0  0  0  0
 14 13  1  0  0  0  0
 16 13  1  0  0  0  0
 17 22  1  0  0  0  0
 17 16  1  0  0  0  0
 18 17  2  0  0  0  0
 19 20  2  0  0  0  0
 19 18  1  0  0  0  0
 20 21  1  0  0  0  0
 21 16  2  0  0  0  0
 23 18  1  0  0  0  0
 24 26  1  0  0  0  0
 24 27  1  0  0  0  0
 24 20  1  0  0  0  0
 25 24  1  0  0  0  0
 28  3  1  0  0  0  0
 29 38  1  6  0  0  0
 29 28  1  0  0  0  0
 30 29  1  0  0  0  0
 31 30  1  0  0  0  0
 32 33  2  0  0  0  0
 32 31  1  0  0  0  0
 34 32  1  0  0  0  0
 35 34  1  0  0  0  0
 36 34  1  1  0  0  0
 36 31  1  0  0  0  0
 36 37  1  0  0  0  0
 37 29  1  0  0  0  0
 39 38  1  0  0  0  0
M  END
>  <minimizedAffinity>
-5.81896877

$$$$

 OpenBabel03252505593D

 39 42  0  0  1  0  0  0  0  0999 V2000
   38.5800   27.0840   43.3230 C   0  0  0  0  0  0  0  0  0  0  0  0
   38.2810   26.1420   42.3190 C   0  0  0  0  0  0  0  0  0  0  0  0
   37.4940   26.5600   41.2230 C   0  0  0  0  0  0  0  0  0  0  0  0
   37.0820   27.8490   41.2210 N   0  0  0  0  0  0  0  0  0  0  0  0
   37.3790   28.7150   42.1850 C   0  0  0  0  0  0  0  0  0  0  0  0
   38.1260   28.3440   43.2380 N   0  0  0  0  0  0  0  0  0  0  0  0
   39.1750   26.8180   44.1780 H   0  0  0  0  0  0  0  0  0  0  0  0
   38.8210   24.7690   42.4150 C   0  0  0  0  0  0  0  0  0  0  0  0
   37.6990   23.9750   42.5550 F   0  0  0  0  0  0  0  0  0  0  0  0
   39.5280   24.6920   43.6330 F   0  0  0  0  0  0  0  0  0  0  0  0
   39.5600   24.4450   41.3750 F   0  0  0  0  0  0  0  0  0  0  0  0
   36.9490   30.0360   42.1800 O   0  0  0  0  0  0  0  0  0  0  0  0
   36.5440   30.6680   41.0070 C   0  0  0  0  0  0  0  0  0  0  0  0
   35.5280   31.1330   41.1710 H   0  0  0  0  0  0  0  0  0  0  0  0
   36.4660   29.9610   40.1430 H   0  0  0  0  0  0  0  0  0  0  0  0
   37.5100   31.7170   40.7010 C   0  0  0  0  0  0  0  0  0  0  0  0
   37.3240   32.9320   40.0630 C   0  0  0  0  0  0  0  0  0  0  0  0
   38.4040   33.7440   39.9030 C   0  0  0  0  0  0  0  0  0  0  0  0
   39.6160   33.4070   40.3380 N   0  0  0  0  0  0  0  0  0  0  0  0
   39.7870   32.2300   40.9530 C   0  0  0  0  0  0  0  0  0  0  0  0
   38.7510   31.3720   41.1450 N   0  0  0  0  0  0  0  0  0  0  0  0
   36.3010   33.1050   39.7530 H   0  0  0  0  0  0  0  0  0  0  0  0
   38.2250   34.6990   39.3940 H   0  0  0  0  0  0  0  0  0  0  0  0
   41.1790   31.9520   41.4000 C   0  0  0  0  0  0  0  0  0  0  0  0
   41.7620   30.9750   40.6340 F   0  0  0  0  0  0  0  0  0  0  0  0
   41.1840   31.5360   42.7410 F   0  0  0  0  0  0  0  0  0  0  0  0
   41.9860   33.0680   41.3220 F   0  0  0  0  0  0  0  0  0  0  0  0
   36.9830   25.7350   40.1670 C   0  0  0  0  0  2  0  0  0  0  0  0
   37.7340   25.8660   38.8950 C   0  0  1  0  0  0  0  0  0  0  0  0
   36.9870   26.5500   37.7700 C   0  0  0  0  0  2  0  0  0  0  0  0
   37.3570   27.9230   37.6890 N   0  0  0  0  0  0  0  0  0  0  0  0
   37.3790   29.3430   37.6350 C   0  0  0  0  0  0  0  0  0  0  0  0
   36.6000   30.3290   37.5700 O   0  0  0  0  0  0  0  0  0  0  0  0
   38.8600   29.4540   37.6800 C   0  0  0  0  0  3  0  0  0  0  0  0
   39.3430   29.9130   36.8030 H   0  0  0  0  0  0  0  0  0  0  0  0
   38.8240   27.9710   37.5610 C   0  0  1  0  0  3  0  0  0  0  0  0
   39.1380   27.0830   39.1420 S   0  0  0  0  0  0  0  0  0  0  0  0
   38.3420   24.6210   38.3040 C   0  0  0  0  0  2  0  0  0  0  0  0
   39.3560   24.4090   38.6900 H   0  0  0  0  0  0  0  0  0  0  0  0
  1  7  1  0  0  0  0
  2  8  1  0  0  0  0
  2  1  2  0  0  0  0
  3  2  1  0  0  0  0
  4  3  2  0  0  0  0
  4  5  1  0  0  0  0
  5  6  2  0  0  0  0
  6  1  1  0  0  0  0
  8  9  1  0  0  0  0
  8 10  1  0  0  0  0
 11  8  1  0  0  0  0
 12  5  1  0  0  0  0
 13 14  1  0  0  0  0
 13 12  1  0  0  0  0
 15 13  1  0  0  0  0
 16 13  1  0  0  0  0
 16 21  1  0  0  0  0
 17 16  2  0  0  0  0
 18 17  1  0  0  0  0
 18 19  2  0  0  0  0
 19 20  1  0  0  0  0
 20 21  2  0  0  0  0
 20 24  1  0  0  0  0
 22 17  1  0  0  0  0
 23 18  1  0  0  0  0
 24 26  1  0  0  0  0
 25 24  1  0  0  0  0
 27 24  1  0  0  0  0
 28  3  1  0  0  0  0
 29 38  1  6  0  0  0
 29 37  1  0  0  0  0
 29 28  1  0  0  0  0
 30 29  1  0  0  0  0
 31 30  1  0  0  0  0
 32 34  1  0  0  0  0
 32 31  1  0  0  0  0
 33 32  2  0  0  0  0
 35 34  1  0  0  0  0
 36 34  1  1  0  0  0
 36 31  1  0  0  0  0
 36 37  1  0  0  0  0
 38 39  1  0  0  0  0
M  END
>  <minimizedAffinity>
-5.78306293

$$$$
