
 OpenBabel03252505573D

 39 42  0  0  1  0  0  0  0  0999 V2000
   44.8150   35.0530   45.1770 C   0  0  0  0  0  0  0  0  0  0  0  0
   45.7380   34.8230   44.1380 C   0  0  0  0  0  0  0  0  0  0  0  0
   46.6960   33.7990   44.3090 C   0  0  0  0  0  0  0  0  0  0  0  0
   46.6520   33.1080   45.4720 N   0  0  0  0  0  0  0  0  0  0  0  0
   45.7690   33.3490   46.4350 C   0  0  0  0  0  0  0  0  0  0  0  0
   44.8480   34.3180   46.2990 N   0  0  0  0  0  0  0  0  0  0  0  0
   44.0670   35.8210   45.0970 H   0  0  0  0  0  0  0  0  0  0  0  0
   45.6620   35.6220   42.8960 C   0  0  0  0  0  0  0  0  0  0  0  0
   45.1250   36.8290   43.3030 F   0  0  0  0  0  0  0  0  0  0  0  0
   44.6980   35.0050   42.0720 F   0  0  0  0  0  0  0  0  0  0  0  0
   46.8320   35.7470   42.3050 F   0  0  0  0  0  0  0  0  0  0  0  0
   45.7330   32.6400   47.6290 O   0  0  0  0  0  0  0  0  0  0  0  0
   45.2800   31.3240   47.6830 C   0  0  0  0  0  0  0  0  0  0  0  0
   44.6950   31.0970   46.7450 H   0  0  0  0  0  0  0  0  0  0  0  0
   44.6130   31.1360   48.5620 H   0  0  0  0  0  0  0  0  0  0  0  0
   46.4440   30.4480   47.7500 C   0  0  0  0  0  0  0  0  0  0  0  0
   46.6560   29.2140   47.1570 C   0  0  0  0  0  0  0  0  0  0  0  0
   47.8480   28.5940   47.3760 C   0  0  0  0  0  0  0  0  0  0  0  0
   48.8000   29.1350   48.1320 N   0  0  0  0  0  0  0  0  0  0  0  0
   48.5860   30.3280   48.7020 C   0  0  0  0  0  0  0  0  0  0  0  0
   47.4180   31.0000   48.5240 N   0  0  0  0  0  0  0  0  0  0  0  0
   45.8190   28.8700   46.5640 H   0  0  0  0  0  0  0  0  0  0  0  0
   47.9850   27.6190   46.8940 H   0  0  0  0  0  0  0  0  0  0  0  0
   49.7140   30.8420   49.5260 C   0  0  0  0  0  0  0  0  0  0  0  0
   49.7330   32.2130   49.5440 F   0  0  0  0  0  0  0  0  0  0  0  0
   50.9380   30.3820   49.0140 F   0  0  0  0  0  0  0  0  0  0  0  0
   49.6410   30.4160   50.8360 F   0  0  0  0  0  0  0  0  0  0  0  0
   47.7870   33.4860   43.4320 C   0  0  0  0  0  2  0  0  0  0  0  0
   47.5340   32.3090   42.5660 C   0  0  1  0  0  0  0  0  0  0  0  0
   46.6680   32.5690   41.3530 C   0  0  0  0  0  2  0  0  0  0  0  0
   47.4760   32.7700   40.1970 N   0  0  0  0  0  0  0  0  0  0  0  0
   48.0990   33.2700   39.0210 C   0  0  0  0  0  0  0  0  0  0  0  0
   48.0070   34.2130   38.1950 O   0  0  0  0  0  0  0  0  0  0  0  0
   49.1240   32.1960   38.9500 C   0  0  0  0  0  3  0  0  0  0  0  0
   49.0950   31.5520   38.0550 H   0  0  0  0  0  0  0  0  0  0  0  0
   48.3560   31.5950   40.0720 C   0  0  1  0  0  3  0  0  0  0  0  0
   49.1370   31.8220   41.7240 S   0  0  0  0  0  0  0  0  0  0  0  0
   46.9920   31.0620   43.2140 C   0  0  0  0  0  2  0  0  0  0  0  0
   47.7850   30.3980   43.6070 H   0  0  0  0  0  0  0  0  0  0  0  0
  1  6  1  0  0  0  0
  2  3  1  0  0  0  0
  2  1  2  0  0  0  0
  3  4  2  0  0  0  0
  4  5  1  0  0  0  0
  5 12  1  0  0  0  0
  6  5  2  0  0  0  0
  7  1  1  0  0  0  0
  8  9  1  0  0  0  0
  8  2  1  0  0  0  0
 10  8  1  0  0  0  0
 11  8  1  0  0  0  0
 12 13  1  0  0  0  0
 13 16  1  0  0  0  0
 13 15  1  0  0  0  0
 14 13  1  0  0  0  0
 16 21  1  0  0  0  0
 17 18  1  0  0  0  0
 17 16  2  0  0  0  0
 18 19  2  0  0  0  0
 19 20  1  0  0  0  0
 20 24  1  0  0  0  0
 21 20  2  0  0  0  0
 22 17  1  0  0  0  0
 23 18  1  0  0  0  0
 24 25  1  0  0  0  0
 24 27  1  0  0  0  0
 26 24  1  0  0  0  0
 28  3  1  0  0  0  0
 29 38  1  1  0  0  0
 29 28  1  0  0  0  0
 30 29  1  0  0  0  0
 31 30  1  0  0  0  0
 32 31  1  0  0  0  0
 33 32  2  0  0  0  0
 34 32  1  0  0  0  0
 35 34  1  0  0  0  0
 36 34  1  6  0  0  0
 36 31  1  0  0  0  0
 36 37  1  0  0  0  0
 37 29  1  0  0  0  0
 38 39  1  0  0  0  0
M  END
>  <minimizedAffinity>
-6.21766806

>  <minimizedRMSD>
0.770867467

$$$$
