
 OpenBabel03242515073D

 42 45  0  0  1  0  0  0  0  0999 V2000
   36.4160   29.9110   39.6640 C   0  0  0  0  0  0  0  0  0  0  0  0
   37.5430   29.1270   39.9260 C   0  0  0  0  0  0  0  0  0  0  0  0
   38.7510   29.7600   40.2300 C   0  0  0  0  0  0  0  0  0  0  0  0
   38.7500   31.1120   40.2520 N   0  0  0  0  0  0  0  0  0  0  0  0
   37.6600   31.8550   39.9980 C   0  0  0  0  0  0  0  0  0  0  0  0
   36.5110   31.2460   39.7090 N   0  0  0  0  0  0  0  0  0  0  0  0
   37.4930   28.0650   39.8970 H   0  0  0  0  0  0  0  0  0  0  0  0
   37.8210   33.2920   40.0600 C   0  0  0  0  0  0  0  0  0  0  0  0
   38.7020   33.7440   40.8440 O   0  0  0  0  0  0  0  0  0  0  0  0
   36.9830   34.1080   39.2410 N   0  0  0  0  0  0  0  0  0  0  0  0
   36.0470   34.4380   39.5660 H   0  0  0  0  0  0  0  0  0  0  0  0
   37.3050   34.3820   38.2970 H   0  0  0  0  0  0  0  0  0  0  0  0
   34.9010   29.0460   39.2800 S   0  0  0  0  0  0  0  0  0  0  0  0
   34.4930   29.0820   37.5270 C   0  0  0  0  0  0  0  0  0  0  0  0
   34.5210   30.1540   37.1890 H   0  0  0  0  0  0  0  0  0  0  0  0
   35.2730   28.5430   36.9350 H   0  0  0  0  0  0  0  0  0  0  0  0
   33.1330   28.5550   37.2140 C   0  0  0  0  0  0  0  0  0  0  0  0
   32.5950   28.3530   38.1410 H   0  0  0  0  0  0  0  0  0  0  0  0
   33.2630   27.5900   36.6560 H   0  0  0  0  0  0  0  0  0  0  0  0
   30.8650   29.9930   38.6370 Cl  0  0  0  0  0  0  0  0  0  0  0  0
   31.2900   30.2490   36.9700 C   0  0  0  0  0  0  0  0  0  0  0  0
   32.3490   29.5350   36.4160 C   0  0  0  0  0  0  0  0  0  0  0  0
   32.6260   29.7880   35.1010 C   0  0  0  0  0  0  0  0  0  0  0  0
   31.9520   30.6860   34.2710 C   0  0  0  0  0  0  0  0  0  0  0  0
   30.9150   31.3710   34.8490 C   0  0  0  0  0  0  0  0  0  0  0  0
   30.0140   32.5230   33.8690 Cl  0  0  0  0  0  0  0  0  0  0  0  0
   30.5940   31.1550   36.1660 C   0  0  0  0  0  0  0  0  0  0  0  0
   33.4590   29.2170   34.6920 H   0  0  0  0  0  0  0  0  0  0  0  0
   32.2710   30.7950   33.2400 H   0  0  0  0  0  0  0  0  0  0  0  0
   29.7630   31.7200   36.5900 H   0  0  0  0  0  0  0  0  0  0  0  0
   39.9270   28.9080   40.5030 C   0  0  0  0  0  2  0  0  0  0  0  0
   39.9450   28.5710   41.9620 C   0  0  2  0  0  0  0  0  0  0  0  0
   39.8570   27.1300   42.3010 C   0  0  0  0  0  2  0  0  0  0  0  0
   38.4850   26.8100   42.6160 N   0  0  0  0  0  0  0  0  0  0  0  0
   37.1920   26.1990   42.6520 C   0  0  0  0  0  0  0  0  0  0  0  0
   36.8070   25.0610   42.2640 O   0  0  0  0  0  0  0  0  0  0  0  0
   36.5460   27.3780   43.2890 C   0  0  0  0  0  3  0  0  0  0  0  0
   36.0310   28.0520   42.5890 H   0  0  0  0  0  0  0  0  0  0  0  0
   37.9690   27.7340   43.6210 C   0  0  2  0  0  3  0  0  0  0  0  0
   38.5390   29.2980   42.8520 S   0  0  0  0  0  0  0  0  0  0  0  0
   41.2120   29.1620   42.5670 C   0  0  0  0  0  2  0  0  0  0  0  0
   41.0020   29.5800   43.5900 H   0  0  0  0  0  0  0  0  0  0  0  0
  1  6  2  0  0  0  0
  1  2  1  0  0  0  0
  2  3  2  0  0  0  0
  3  4  1  0  0  0  0
  3 31  1  0  0  0  0
  5  8  1  0  0  0  0
  5  4  2  0  0  0  0
  6  5  1  0  0  0  0
  7  2  1  0  0  0  0
  8  9  2  0  0  0  0
 10 11  1  0  0  0  0
 10  8  1  0  0  0  0
 12 10  1  0  0  0  0
 13  1  1  0  0  0  0
 14 13  1  0  0  0  0
 15 14  1  0  0  0  0
 16 14  1  0  0  0  0
 17 14  1  0  0  0  0
 17 18  1  0  0  0  0
 19 17  1  0  0  0  0
 21 20  1  0  0  0  0
 22 21  1  0  0  0  0
 22 17  1  0  0  0  0
 23 22  2  0  0  0  0
 24 25  2  0  0  0  0
 24 23  1  0  0  0  0
 25 27  1  0  0  0  0
 26 25  1  0  0  0  0
 27 30  1  0  0  0  0
 27 21  2  0  0  0  0
 28 23  1  0  0  0  0
 29 24  1  0  0  0  0
 32 31  1  6  0  0  0
 32 33  1  0  0  0  0
 32 41  1  0  0  0  0
 32 40  1  0  0  0  0
 33 34  1  0  0  0  0
 34 35  1  0  0  0  0
 34 39  1  0  0  0  0
 35 37  1  0  0  0  0
 36 35  2  0  0  0  0
 37 39  1  0  0  0  0
 38 37  1  0  0  0  0
 39 40  1  6  0  0  0
 41 42  1  0  0  0  0
M  END
>  <minimizedAffinity>
-6.5851779

$$$$

 OpenBabel03242515073D

 42 45  0  0  1  0  0  0  0  0999 V2000
   36.3290   29.3790   37.2720 C   0  0  0  0  0  0  0  0  0  0  0  0
   37.2670   28.3610   37.4650 C   0  0  0  0  0  0  0  0  0  0  0  0
   37.9870   28.3240   38.6620 C   0  0  0  0  0  0  0  0  0  0  0  0
   37.7240   29.2890   39.5700 N   0  0  0  0  0  0  0  0  0  0  0  0
   36.8190   30.2630   39.3730 C   0  0  0  0  0  0  0  0  0  0  0  0
   36.1370   30.2950   38.2300 N   0  0  0  0  0  0  0  0  0  0  0  0
   37.4380   27.6230   36.7190 H   0  0  0  0  0  0  0  0  0  0  0  0
   36.6530   31.2260   40.4420 C   0  0  0  0  0  0  0  0  0  0  0  0
   37.3540   32.2760   40.3920 O   0  0  0  0  0  0  0  0  0  0  0  0
   35.7160   30.9360   41.4800 N   0  0  0  0  0  0  0  0  0  0  0  0
   35.9870   30.3940   42.3310 H   0  0  0  0  0  0  0  0  0  0  0  0
   34.7410   31.2680   41.3920 H   0  0  0  0  0  0  0  0  0  0  0  0
   35.4410   29.3770   35.7220 S   0  0  0  0  0  0  0  0  0  0  0  0
   33.7690   28.7240   35.8680 C   0  0  0  0  0  0  0  0  0  0  0  0
   33.7710   27.6770   35.4580 H   0  0  0  0  0  0  0  0  0  0  0  0
   33.4770   28.6410   36.9440 H   0  0  0  0  0  0  0  0  0  0  0  0
   32.7500   29.4980   35.1020 C   0  0  0  0  0  0  0  0  0  0  0  0
   32.2250   28.8330   34.4150 H   0  0  0  0  0  0  0  0  0  0  0  0
   33.2940   30.2760   34.5040 H   0  0  0  0  0  0  0  0  0  0  0  0
   31.4820   32.1060   34.1880 Cl  0  0  0  0  0  0  0  0  0  0  0  0
   31.1120   31.3130   35.6920 C   0  0  0  0  0  0  0  0  0  0  0  0
   31.7530   30.1210   36.0140 C   0  0  0  0  0  0  0  0  0  0  0  0
   31.4130   29.5550   37.2100 C   0  0  0  0  0  0  0  0  0  0  0  0
   30.4920   30.0580   38.1320 C   0  0  0  0  0  0  0  0  0  0  0  0
   29.8800   31.2340   37.7840 C   0  0  0  0  0  0  0  0  0  0  0  0
   28.7050   31.9350   38.8910 Cl  0  0  0  0  0  0  0  0  0  0  0  0
   30.1850   31.8450   36.5930 C   0  0  0  0  0  0  0  0  0  0  0  0
   31.9280   28.6220   37.4380 H   0  0  0  0  0  0  0  0  0  0  0  0
   30.3100   29.5120   39.0500 H   0  0  0  0  0  0  0  0  0  0  0  0
   29.6780   32.7790   36.3510 H   0  0  0  0  0  0  0  0  0  0  0  0
   38.9720   27.2370   38.8400 C   0  0  0  0  0  2  0  0  0  0  0  0
   38.3910   26.2110   39.7640 C   0  0  2  0  0  0  0  0  0  0  0  0
   37.1930   26.6290   40.5310 C   0  0  0  0  0  2  0  0  0  0  0  0
   37.6090   27.0510   41.8480 N   0  0  0  0  0  0  0  0  0  0  0  0
   37.8010   27.7980   43.0530 C   0  0  0  0  0  0  0  0  0  0  0  0
   37.1580   28.7760   43.5280 O   0  0  0  0  0  0  0  0  0  0  0  0
   38.9830   26.9990   43.4740 C   0  0  0  0  0  3  0  0  0  0  0  0
   39.9540   27.4530   43.2280 H   0  0  0  0  0  0  0  0  0  0  0  0
   38.4370   26.0220   42.4690 C   0  0  2  0  0  3  0  0  0  0  0  0
   39.5630   25.7090   41.0560 S   0  0  0  0  0  0  0  0  0  0  0  0
   38.0650   24.9690   38.9450 C   0  0  0  0  0  2  0  0  0  0  0  0
   38.3120   24.0390   39.5270 H   0  0  0  0  0  0  0  0  0  0  0  0
  1  2  2  0  0  0  0
  1  6  1  0  0  0  0
  2  3  1  0  0  0  0
  3 31  1  0  0  0  0
  3  4  2  0  0  0  0
  5  4  1  0  0  0  0
  5  8  1  0  0  0  0
  6  5  2  0  0  0  0
  7  2  1  0  0  0  0
  8 10  1  0  0  0  0
  9  8  2  0  0  0  0
 10 11  1  0  0  0  0
 12 10  1  0  0  0  0
 13 14  1  0  0  0  0
 13  1  1  0  0  0  0
 14 16  1  0  0  0  0
 15 14  1  0  0  0  0
 17 14  1  0  0  0  0
 17 22  1  0  0  0  0
 18 17  1  0  0  0  0
 19 17  1  0  0  0  0
 20 21  1  0  0  0  0
 21 22  2  0  0  0  0
 21 27  1  0  0  0  0
 22 23  1  0  0  0  0
 23 28  1  0  0  0  0
 23 24  2  0  0  0  0
 24 29  1  0  0  0  0
 25 24  1  0  0  0  0
 25 26  1  0  0  0  0
 27 25  2  0  0  0  0
 30 27  1  0  0  0  0
 32 31  1  6  0  0  0
 32 33  1  0  0  0  0
 32 40  1  0  0  0  0
 33 34  1  0  0  0  0
 34 39  1  0  0  0  0
 34 35  1  0  0  0  0
 35 37  1  0  0  0  0
 35 36  2  0  0  0  0
 38 37  1  0  0  0  0
 39 40  1  6  0  0  0
 39 37  1  0  0  0  0
 41 42  1  0  0  0  0
 41 32  1  0  0  0  0
M  END
>  <minimizedAffinity>
-6.41105032

$$$$

 OpenBabel03242515073D

 42 45  0  0  1  0  0  0  0  0999 V2000
   39.2240   31.0110   41.6780 C   0  0  0  0  0  0  0  0  0  0  0  0
   38.1220   30.1660   41.5270 C   0  0  0  0  0  0  0  0  0  0  0  0
   36.9890   30.6450   40.8630 C   0  0  0  0  0  0  0  0  0  0  0  0
   37.0350   31.9140   40.4020 N   0  0  0  0  0  0  0  0  0  0  0  0
   38.1020   32.7180   40.5540 C   0  0  0  0  0  0  0  0  0  0  0  0
   39.1780   32.2570   41.1880 N   0  0  0  0  0  0  0  0  0  0  0  0
   38.1340   29.1730   41.9070 H   0  0  0  0  0  0  0  0  0  0  0  0
   37.9960   34.0530   40.0050 C   0  0  0  0  0  0  0  0  0  0  0  0
   38.8630   34.8990   40.3640 O   0  0  0  0  0  0  0  0  0  0  0  0
   36.9290   34.3350   39.0980 N   0  0  0  0  0  0  0  0  0  0  0  0
   35.9930   34.6550   39.4320 H   0  0  0  0  0  0  0  0  0  0  0  0
   37.0820   34.2200   38.0820 H   0  0  0  0  0  0  0  0  0  0  0  0
   40.6420   30.3450   42.5370 S   0  0  0  0  0  0  0  0  0  0  0  0
   40.8410   28.5710   42.2990 C   0  0  0  0  0  0  0  0  0  0  0  0
   40.3930   28.3050   41.3030 H   0  0  0  0  0  0  0  0  0  0  0  0
   41.9260   28.3070   42.2390 H   0  0  0  0  0  0  0  0  0  0  0  0
   40.1510   27.7440   43.3310 C   0  0  0  0  0  0  0  0  0  0  0  0
   39.6180   28.3940   44.0260 H   0  0  0  0  0  0  0  0  0  0  0  0
   40.9390   27.1810   43.8970 H   0  0  0  0  0  0  0  0  0  0  0  0
   37.2470   28.0200   44.1870 Cl  0  0  0  0  0  0  0  0  0  0  0  0
   37.8180   26.8570   43.0260 C   0  0  0  0  0  0  0  0  0  0  0  0
   39.1710   26.8150   42.7060 C   0  0  0  0  0  0  0  0  0  0  0  0
   39.5470   25.8760   41.7860 C   0  0  0  0  0  0  0  0  0  0  0  0
   38.7070   24.9640   41.1450 C   0  0  0  0  0  0  0  0  0  0  0  0
   37.3800   25.0320   41.4830 C   0  0  0  0  0  0  0  0  0  0  0  0
   36.2550   23.9160   40.7190 Cl  0  0  0  0  0  0  0  0  0  0  0  0
   36.9490   25.9560   42.4020 C   0  0  0  0  0  0  0  0  0  0  0  0
   40.6110   25.8650   41.5530 H   0  0  0  0  0  0  0  0  0  0  0  0
   39.1300   24.2660   40.4310 H   0  0  0  0  0  0  0  0  0  0  0  0
   35.8870   25.9810   42.6460 H   0  0  0  0  0  0  0  0  0  0  0  0
   35.8380   29.7300   40.7170 C   0  0  0  0  0  2  0  0  0  0  0  0
   35.8720   29.1340   39.3430 C   0  0  2  0  0  0  0  0  0  0  0  0
   36.6470   27.8790   39.1950 C   0  0  0  0  0  2  0  0  0  0  0  0
   37.9620   28.2010   38.6930 N   0  0  0  0  0  0  0  0  0  0  0  0
   39.3780   28.2950   38.5160 C   0  0  0  0  0  0  0  0  0  0  0  0
   40.3160   27.5900   38.9840 O   0  0  0  0  0  0  0  0  0  0  0  0
   39.2850   29.4800   37.6220 C   0  0  0  0  0  3  0  0  0  0  0  0
   39.4460   30.4450   38.1220 H   0  0  0  0  0  0  0  0  0  0  0  0
   37.8560   29.0300   37.4960 C   0  0  2  0  0  3  0  0  0  0  0  0
   36.6400   30.2470   38.1310 S   0  0  0  0  0  0  0  0  0  0  0  0
   34.4350   28.9030   38.8920 C   0  0  0  0  0  2  0  0  0  0  0  0
   34.3210   29.1510   37.8010 H   0  0  0  0  0  0  0  0  0  0  0  0
  1 13  1  0  0  0  0
  2  1  1  0  0  0  0
  2  7  1  0  0  0  0
  3  2  2  0  0  0  0
  4  5  2  0  0  0  0
  4  3  1  0  0  0  0
  5  6  1  0  0  0  0
  6  1  2  0  0  0  0
  8  9  2  0  0  0  0
  8  5  1  0  0  0  0
 10 11  1  0  0  0  0
 10  8  1  0  0  0  0
 12 10  1  0  0  0  0
 14 13  1  0  0  0  0
 14 17  1  0  0  0  0
 15 14  1  0  0  0  0
 16 14  1  0  0  0  0
 17 19  1  0  0  0  0
 17 18  1  0  0  0  0
 21 20  1  0  0  0  0
 22 21  1  0  0  0  0
 22 17  1  0  0  0  0
 23 22  2  0  0  0  0
 24 25  2  0  0  0  0
 24 23  1  0  0  0  0
 25 27  1  0  0  0  0
 26 25  1  0  0  0  0
 27 30  1  0  0  0  0
 27 21  2  0  0  0  0
 28 23  1  0  0  0  0
 29 24  1  0  0  0  0
 31  3  1  0  0  0  0
 32 41  1  6  0  0  0
 32 31  1  0  0  0  0
 33 32  1  0  0  0  0
 34 33  1  0  0  0  0
 35 34  1  0  0  0  0
 35 36  2  0  0  0  0
 37 38  1  0  0  0  0
 37 35  1  0  0  0  0
 39 37  1  1  0  0  0
 39 40  1  0  0  0  0
 39 34  1  0  0  0  0
 40 32  1  0  0  0  0
 42 41  1  0  0  0  0
M  END
>  <minimizedAffinity>
-6.39791059

$$$$

 OpenBabel03242515073D

 42 45  0  0  1  0  0  0  0  0999 V2000
   39.7970   29.9930   40.6500 C   0  0  0  0  0  0  0  0  0  0  0  0
   39.2980   29.0860   39.7110 C   0  0  0  0  0  0  0  0  0  0  0  0
   39.2680   29.4560   38.3640 C   0  0  0  0  0  0  0  0  0  0  0  0
   39.7320   30.6860   38.0520 N   0  0  0  0  0  0  0  0  0  0  0  0
   40.2090   31.5500   38.9650 C   0  0  0  0  0  0  0  0  0  0  0  0
   40.2350   31.1930   40.2470 N   0  0  0  0  0  0  0  0  0  0  0  0
   38.9450   28.1270   40.0070 H   0  0  0  0  0  0  0  0  0  0  0  0
   40.6680   32.8320   38.4720 C   0  0  0  0  0  0  0  0  0  0  0  0
   40.7430   33.7800   39.3040 O   0  0  0  0  0  0  0  0  0  0  0  0
   41.0060   32.9490   37.0890 N   0  0  0  0  0  0  0  0  0  0  0  0
   40.2930   33.1950   36.3670 H   0  0  0  0  0  0  0  0  0  0  0  0
   41.9820   32.7870   36.7890 H   0  0  0  0  0  0  0  0  0  0  0  0
   39.8090   29.4650   42.3570 S   0  0  0  0  0  0  0  0  0  0  0  0
   38.1680   29.0740   42.9860 C   0  0  0  0  0  0  0  0  0  0  0  0
   37.8190   29.9450   43.6030 H   0  0  0  0  0  0  0  0  0  0  0  0
   37.4420   28.9730   42.1410 H   0  0  0  0  0  0  0  0  0  0  0  0
   38.1310   27.8670   43.8620 C   0  0  0  0  0  0  0  0  0  0  0  0
   37.2110   27.8690   44.4490 H   0  0  0  0  0  0  0  0  0  0  0  0
   39.0040   27.9280   44.5620 H   0  0  0  0  0  0  0  0  0  0  0  0
   40.6730   26.2080   44.0210 Cl  0  0  0  0  0  0  0  0  0  0  0  0
   39.2890   25.7840   43.0560 C   0  0  0  0  0  0  0  0  0  0  0  0
   38.1740   26.6170   43.0550 C   0  0  0  0  0  0  0  0  0  0  0  0
   37.1240   26.2210   42.2750 C   0  0  0  0  0  0  0  0  0  0  0  0
   37.0680   25.0710   41.4860 C   0  0  0  0  0  0  0  0  0  0  0  0
   38.1820   24.2740   41.5100 C   0  0  0  0  0  0  0  0  0  0  0  0
   38.1910   22.8040   40.5410 Cl  0  0  0  0  0  0  0  0  0  0  0  0
   39.2660   24.6250   42.2770 C   0  0  0  0  0  0  0  0  0  0  0  0
   36.2640   26.8900   42.2920 H   0  0  0  0  0  0  0  0  0  0  0  0
   36.1720   24.8680   40.9080 H   0  0  0  0  0  0  0  0  0  0  0  0
   40.1340   23.9660   42.2700 H   0  0  0  0  0  0  0  0  0  0  0  0
   38.7360   28.4780   37.3920 C   0  0  0  0  0  2  0  0  0  0  0  0
   37.2780   28.7540   37.1850 C   0  0  2  0  0  0  0  0  0  0  0  0
   36.8080   30.1040   37.5790 C   0  0  0  0  0  2  0  0  0  0  0  0
   36.2330   30.0280   38.9020 N   0  0  0  0  0  0  0  0  0  0  0  0
   35.9210   30.2620   40.2780 C   0  0  0  0  0  0  0  0  0  0  0  0
   36.1380   31.2660   41.0120 O   0  0  0  0  0  0  0  0  0  0  0  0
   35.2850   28.9300   40.4600 C   0  0  0  0  0  3  0  0  0  0  0  0
   35.9390   28.1670   40.9060 H   0  0  0  0  0  0  0  0  0  0  0  0
   35.2370   28.9630   38.9580 C   0  0  2  0  0  3  0  0  0  0  0  0
   36.2240   27.6410   38.1570 S   0  0  0  0  0  0  0  0  0  0  0  0
   36.9560   28.5100   35.7160 C   0  0  0  0  0  2  0  0  0  0  0  0
   35.9510   28.0140   35.6120 H   0  0  0  0  0  0  0  0  0  0  0  0
  1 13  1  0  0  0  0
  2  7  1  0  0  0  0
  2  1  2  0  0  0  0
  3  2  1  0  0  0  0
  4  3  2  0  0  0  0
  4  5  1  0  0  0  0
  5  6  2  0  0  0  0
  6  1  1  0  0  0  0
  8  5  1  0  0  0  0
  8  9  2  0  0  0  0
 10  8  1  0  0  0  0
 11 10  1  0  0  0  0
 12 10  1  0  0  0  0
 13 14  1  0  0  0  0
 14 15  1  0  0  0  0
 14 17  1  0  0  0  0
 16 14  1  0  0  0  0
 17 18  1  0  0  0  0
 17 19  1  0  0  0  0
 21 20  1  0  0  0  0
 22 21  1  0  0  0  0
 22 17  1  0  0  0  0
 23 28  1  0  0  0  0
 23 22  2  0  0  0  0
 24 25  2  0  0  0  0
 24 23  1  0  0  0  0
 25 27  1  0  0  0  0
 26 25  1  0  0  0  0
 27 21  2  0  0  0  0
 29 24  1  0  0  0  0
 30 27  1  0  0  0  0
 31  3  1  0  0  0  0
 32 41  1  6  0  0  0
 32 31  1  0  0  0  0
 32 33  1  0  0  0  0
 32 40  1  0  0  0  0
 33 34  1  0  0  0  0
 34 39  1  0  0  0  0
 34 35  1  0  0  0  0
 35 37  1  0  0  0  0
 35 36  2  0  0  0  0
 37 38  1  0  0  0  0
 39 40  1  6  0  0  0
 39 37  1  0  0  0  0
 42 41  1  0  0  0  0
M  END
>  <minimizedAffinity>
-6.30572081

$$$$

 OpenBabel03242515073D

 42 45  0  0  1  0  0  0  0  0999 V2000
   39.8430   30.2950   42.1000 C   0  0  0  0  0  0  0  0  0  0  0  0
   40.2180   29.1210   42.7590 C   0  0  0  0  0  0  0  0  0  0  0  0
   39.2620   28.1210   42.9570 C   0  0  0  0  0  0  0  0  0  0  0  0
   38.0160   28.3580   42.4900 N   0  0  0  0  0  0  0  0  0  0  0  0
   37.6670   29.4920   41.8570 C   0  0  0  0  0  0  0  0  0  0  0  0
   38.5820   30.4410   41.6720 N   0  0  0  0  0  0  0  0  0  0  0  0
   41.2130   28.9810   43.1080 H   0  0  0  0  0  0  0  0  0  0  0  0
   36.2920   29.5960   41.4170 C   0  0  0  0  0  0  0  0  0  0  0  0
   35.7100   28.5280   41.0740 O   0  0  0  0  0  0  0  0  0  0  0  0
   35.6790   30.8850   41.3950 N   0  0  0  0  0  0  0  0  0  0  0  0
   35.7430   31.5120   40.5630 H   0  0  0  0  0  0  0  0  0  0  0  0
   35.1560   31.2140   42.2250 H   0  0  0  0  0  0  0  0  0  0  0  0
   41.1070   31.5370   41.8780 S   0  0  0  0  0  0  0  0  0  0  0  0
   41.6330   31.7080   40.1650 C   0  0  0  0  0  0  0  0  0  0  0  0
   42.6720   32.1380   40.1640 H   0  0  0  0  0  0  0  0  0  0  0  0
   41.7060   30.7040   39.6780 H   0  0  0  0  0  0  0  0  0  0  0  0
   40.7750   32.6250   39.3590 C   0  0  0  0  0  0  0  0  0  0  0  0
   41.3480   33.0200   38.5180 H   0  0  0  0  0  0  0  0  0  0  0  0
   40.4740   33.4780   40.0220 H   0  0  0  0  0  0  0  0  0  0  0  0
   38.0670   33.9290   39.8170 Cl  0  0  0  0  0  0  0  0  0  0  0  0
   38.2970   32.4210   38.9800 C   0  0  0  0  0  0  0  0  0  0  0  0
   39.5830   31.9120   38.8260 C   0  0  0  0  0  0  0  0  0  0  0  0
   39.6870   30.7240   38.1570 C   0  0  0  0  0  0  0  0  0  0  0  0
   38.6330   29.9810   37.6210 C   0  0  0  0  0  0  0  0  0  0  0  0
   37.3810   30.5120   37.7900 C   0  0  0  0  0  0  0  0  0  0  0  0
   35.9980   29.6360   37.1430 Cl  0  0  0  0  0  0  0  0  0  0  0  0
   37.2190   31.7020   38.4550 C   0  0  0  0  0  0  0  0  0  0  0  0
   40.7040   30.3480   38.0500 H   0  0  0  0  0  0  0  0  0  0  0  0
   38.8490   29.0490   37.1110 H   0  0  0  0  0  0  0  0  0  0  0  0
   36.2080   32.0920   38.5700 H   0  0  0  0  0  0  0  0  0  0  0  0
   39.6860   26.8910   43.6570 C   0  0  0  0  0  2  0  0  0  0  0  0
   40.1690   25.9040   42.6380 C   0  0  2  0  0  0  0  0  0  0  0  0
   39.7900   26.1810   41.2310 C   0  0  0  0  0  2  0  0  0  0  0  0
   38.6220   25.3980   40.9020 N   0  0  0  0  0  0  0  0  0  0  0  0
   37.3270   24.9880   40.4550 C   0  0  0  0  0  0  0  0  0  0  0  0
   36.4980   25.5610   39.6940 O   0  0  0  0  0  0  0  0  0  0  0  0
   37.3680   23.7040   41.2060 C   0  0  0  0  0  3  0  0  0  0  0  0
   36.8500   23.7240   42.1760 H   0  0  0  0  0  0  0  0  0  0  0  0
   38.8430   23.9950   41.2400 C   0  0  2  0  0  3  0  0  0  0  0  0
   39.5100   24.2370   42.9310 S   0  0  0  0  0  0  0  0  0  0  0  0
   41.6850   25.8140   42.7510 C   0  0  0  0  0  2  0  0  0  0  0  0
   42.0260   24.7500   42.6190 H   0  0  0  0  0  0  0  0  0  0  0  0
  1  2  1  0  0  0  0
  2  3  2  0  0  0  0
  2  7  1  0  0  0  0
  3 31  1  0  0  0  0
  4  3  1  0  0  0  0
  5  4  2  0  0  0  0
  6  5  1  0  0  0  0
  6  1  2  0  0  0  0
  8  5  1  0  0  0  0
  9  8  2  0  0  0  0
 10  8  1  0  0  0  0
 10 12  1  0  0  0  0
 11 10  1  0  0  0  0
 13  1  1  0  0  0  0
 14 13  1  0  0  0  0
 15 14  1  0  0  0  0
 16 14  1  0  0  0  0
 17 19  1  0  0  0  0
 17 14  1  0  0  0  0
 18 17  1  0  0  0  0
 21 20  1  0  0  0  0
 22 21  1  0  0  0  0
 22 17  1  0  0  0  0
 23 22  2  0  0  0  0
 24 25  2  0  0  0  0
 24 23  1  0  0  0  0
 25 27  1  0  0  0  0
 26 25  1  0  0  0  0
 27 30  1  0  0  0  0
 27 21  2  0  0  0  0
 28 23  1  0  0  0  0
 29 24  1  0  0  0  0
 32 41  1  1  0  0  0
 32 40  1  0  0  0  0
 32 31  1  0  0  0  0
 33 32  1  0  0  0  0
 34 33  1  0  0  0  0
 34 39  1  0  0  0  0
 35 34  1  0  0  0  0
 35 37  1  0  0  0  0
 36 35  2  0  0  0  0
 37 38  1  0  0  0  0
 39 37  1  1  0  0  0
 39 40  1  0  0  0  0
 42 41  1  0  0  0  0
M  END
>  <minimizedAffinity>
-6.21227026

$$$$

 OpenBabel03242515073D

 42 45  0  0  1  0  0  0  0  0999 V2000
   40.0180   30.8890   41.4520 C   0  0  0  0  0  0  0  0  0  0  0  0
   41.2690   31.0320   40.8450 C   0  0  0  0  0  0  0  0  0  0  0  0
   41.5000   32.1410   40.0250 C   0  0  0  0  0  0  0  0  0  0  0  0
   40.4830   33.0170   39.8720 N   0  0  0  0  0  0  0  0  0  0  0  0
   39.2840   32.8680   40.4620 C   0  0  0  0  0  0  0  0  0  0  0  0
   39.0690   31.8100   41.2400 N   0  0  0  0  0  0  0  0  0  0  0  0
   42.0390   30.3150   40.9970 H   0  0  0  0  0  0  0  0  0  0  0  0
   38.2960   33.8930   40.1980 C   0  0  0  0  0  0  0  0  0  0  0  0
   38.6810   35.0950   40.2410 O   0  0  0  0  0  0  0  0  0  0  0  0
   36.9570   33.4900   39.9070 N   0  0  0  0  0  0  0  0  0  0  0  0
   36.2510   33.3390   40.6620 H   0  0  0  0  0  0  0  0  0  0  0  0
   36.6730   33.3410   38.9240 H   0  0  0  0  0  0  0  0  0  0  0  0
   39.7810   29.4520   42.4860 S   0  0  0  0  0  0  0  0  0  0  0  0
   38.1100   29.3230   43.1410 C   0  0  0  0  0  0  0  0  0  0  0  0
   38.0140   30.0530   43.9900 H   0  0  0  0  0  0  0  0  0  0  0  0
   37.3640   29.6370   42.3690 H   0  0  0  0  0  0  0  0  0  0  0  0
   37.7760   27.9720   43.6790 C   0  0  0  0  0  0  0  0  0  0  0  0
   36.7680   27.9820   44.0970 H   0  0  0  0  0  0  0  0  0  0  0  0
   38.5040   27.7450   44.5010 H   0  0  0  0  0  0  0  0  0  0  0  0
   35.9320   28.3530   41.2920 Cl  0  0  0  0  0  0  0  0  0  0  0  0
   37.0330   27.0180   41.4740 C   0  0  0  0  0  0  0  0  0  0  0  0
   37.8330   26.9400   42.6100 C   0  0  0  0  0  0  0  0  0  0  0  0
   38.6740   25.8640   42.6840 C   0  0  0  0  0  0  0  0  0  0  0  0
   38.8020   24.8470   41.7370 C   0  0  0  0  0  0  0  0  0  0  0  0
   38.0000   24.9550   40.6310 C   0  0  0  0  0  0  0  0  0  0  0  0
   38.1010   23.7120   39.3890 Cl  0  0  0  0  0  0  0  0  0  0  0  0
   37.1360   26.0150   40.5060 C   0  0  0  0  0  0  0  0  0  0  0  0
   39.2900   25.8270   43.5820 H   0  0  0  0  0  0  0  0  0  0  0  0
   39.5090   24.0440   41.9140 H   0  0  0  0  0  0  0  0  0  0  0  0
   36.5140   26.0670   39.6120 H   0  0  0  0  0  0  0  0  0  0  0  0
   42.8310   32.2670   39.3960 C   0  0  0  0  0  2  0  0  0  0  0  0
   42.6530   32.3310   37.9100 C   0  0  2  0  0  0  0  0  0  0  0  0
   41.4370   31.6770   37.3700 C   0  0  0  0  0  2  0  0  0  0  0  0
   41.7880   30.3560   36.9060 N   0  0  0  0  0  0  0  0  0  0  0  0
   41.8190   28.9430   36.6840 C   0  0  0  0  0  0  0  0  0  0  0  0
   40.9390   28.0580   36.8790 O   0  0  0  0  0  0  0  0  0  0  0  0
   43.2130   28.9580   36.1670 C   0  0  0  0  0  3  0  0  0  0  0  0
   43.9800   28.6950   36.9100 H   0  0  0  0  0  0  0  0  0  0  0  0
   42.9300   30.4250   36.0010 C   0  0  2  0  0  3  0  0  0  0  0  0
   44.0040   31.5060   37.0220 S   0  0  0  0  0  0  0  0  0  0  0  0
   42.6730   33.7970   37.4950 C   0  0  0  0  0  2  0  0  0  0  0  0
   43.2300   33.9230   36.5270 H   0  0  0  0  0  0  0  0  0  0  0  0
  1 13  1  0  0  0  0
  2  7  1  0  0  0  0
  2  1  2  0  0  0  0
  3  2  1  0  0  0  0
  4  3  2  0  0  0  0
  4  5  1  0  0  0  0
  5  6  2  0  0  0  0
  6  1  1  0  0  0  0
  8  9  2  0  0  0  0
  8  5  1  0  0  0  0
 10  8  1  0  0  0  0
 10 11  1  0  0  0  0
 12 10  1  0  0  0  0
 13 14  1  0  0  0  0
 14 17  1  0  0  0  0
 14 15  1  0  0  0  0
 16 14  1  0  0  0  0
 17 18  1  0  0  0  0
 17 19  1  0  0  0  0
 20 21  1  0  0  0  0
 21 22  1  0  0  0  0
 22 23  2  0  0  0  0
 22 17  1  0  0  0  0
 23 28  1  0  0  0  0
 24 29  1  0  0  0  0
 24 23  1  0  0  0  0
 25 24  2  0  0  0  0
 26 25  1  0  0  0  0
 27 25  1  0  0  0  0
 27 21  2  0  0  0  0
 30 27  1  0  0  0  0
 31  3  1  0  0  0  0
 32 41  1  6  0  0  0
 32 31  1  0  0  0  0
 33 32  1  0  0  0  0
 34 33  1  0  0  0  0
 35 36  2  0  0  0  0
 35 34  1  0  0  0  0
 37 35  1  0  0  0  0
 37 38  1  0  0  0  0
 39 37  1  1  0  0  0
 39 34  1  0  0  0  0
 39 40  1  0  0  0  0
 40 32  1  0  0  0  0
 42 41  1  0  0  0  0
M  END
>  <minimizedAffinity>
-6.17496252

$$$$

 OpenBabel03242515073D

 42 45  0  0  1  0  0  0  0  0999 V2000
   39.2610   30.1800   41.2650 C   0  0  0  0  0  0  0  0  0  0  0  0
   39.8450   29.7710   40.0630 C   0  0  0  0  0  0  0  0  0  0  0  0
   39.8780   30.6640   38.9890 C   0  0  0  0  0  0  0  0  0  0  0  0
   39.3350   31.8850   39.1860 N   0  0  0  0  0  0  0  0  0  0  0  0
   38.7760   32.2680   40.3470 C   0  0  0  0  0  0  0  0  0  0  0  0
   38.7460   31.4130   41.3670 N   0  0  0  0  0  0  0  0  0  0  0  0
   40.2610   28.7980   39.9580 H   0  0  0  0  0  0  0  0  0  0  0  0
   38.2350   33.6100   40.4000 C   0  0  0  0  0  0  0  0  0  0  0  0
   37.2900   33.8870   39.6080 O   0  0  0  0  0  0  0  0  0  0  0  0
   38.7950   34.5340   41.3340 N   0  0  0  0  0  0  0  0  0  0  0  0
   39.6180   35.1300   41.0930 H   0  0  0  0  0  0  0  0  0  0  0  0
   38.3800   34.6180   42.2770 H   0  0  0  0  0  0  0  0  0  0  0  0
   39.2460   28.9950   42.6020 S   0  0  0  0  0  0  0  0  0  0  0  0
   37.6190   28.7870   43.3420 C   0  0  0  0  0  0  0  0  0  0  0  0
   37.7620   28.5590   44.4330 H   0  0  0  0  0  0  0  0  0  0  0  0
   37.0440   29.7450   43.2920 H   0  0  0  0  0  0  0  0  0  0  0  0
   36.8290   27.6660   42.7550 C   0  0  0  0  0  0  0  0  0  0  0  0
   35.9290   27.5000   43.3500 H   0  0  0  0  0  0  0  0  0  0  0  0
   37.4650   26.7430   42.8000 H   0  0  0  0  0  0  0  0  0  0  0  0
   37.5740   25.6300   40.6240 Cl  0  0  0  0  0  0  0  0  0  0  0  0
   36.7110   27.1070   40.3050 C   0  0  0  0  0  0  0  0  0  0  0  0
   36.4220   27.9710   41.3570 C   0  0  0  0  0  0  0  0  0  0  0  0
   35.7410   29.1110   41.0330 C   0  0  0  0  0  0  0  0  0  0  0  0
   35.3160   29.4870   39.7570 C   0  0  0  0  0  0  0  0  0  0  0  0
   35.6180   28.6130   38.7450 C   0  0  0  0  0  0  0  0  0  0  0  0
   35.1160   29.0130   37.1060 Cl  0  0  0  0  0  0  0  0  0  0  0  0
   36.3000   27.4530   39.0150 C   0  0  0  0  0  0  0  0  0  0  0  0
   35.5260   29.7700   41.8740 H   0  0  0  0  0  0  0  0  0  0  0  0
   34.7830   30.4220   39.6310 H   0  0  0  0  0  0  0  0  0  0  0  0
   36.5220   26.7830   38.1840 H   0  0  0  0  0  0  0  0  0  0  0  0
   40.5020   30.2050   37.7300 C   0  0  0  0  0  2  0  0  0  0  0  0
   41.8650   30.8180   37.6210 C   0  0  2  0  0  0  0  0  0  0  0  0
   42.7430   30.6720   38.8080 C   0  0  0  0  0  2  0  0  0  0  0  0
   42.6620   31.8790   39.5960 N   0  0  0  0  0  0  0  0  0  0  0  0
   42.5040   32.8050   40.6750 C   0  0  0  0  0  0  0  0  0  0  0  0
   42.5430   32.6290   41.9250 O   0  0  0  0  0  0  0  0  0  0  0  0
   42.2910   33.9680   39.7720 C   0  0  0  0  0  3  0  0  0  0  0  0
   41.2370   34.2310   39.6050 H   0  0  0  0  0  0  0  0  0  0  0  0
   42.9110   33.0470   38.7580 C   0  0  2  0  0  3  0  0  0  0  0  0
   41.7920   32.6150   37.3710 S   0  0  0  0  0  0  0  0  0  0  0  0
   42.5540   30.2220   36.4000 C   0  0  0  0  0  2  0  0  0  0  0  0
   43.1460   31.0110   35.8590 H   0  0  0  0  0  0  0  0  0  0  0  0
  1  6  1  0  0  0  0
  1 13  1  0  0  0  0
  2  1  2  0  0  0  0
  3  4  2  0  0  0  0
  3  2  1  0  0  0  0
  4  5  1  0  0  0  0
  5  8  1  0  0  0  0
  5  6  2  0  0  0  0
  7  2  1  0  0  0  0
  8 10  1  0  0  0  0
  9  8  2  0  0  0  0
 10 12  1  0  0  0  0
 11 10  1  0  0  0  0
 13 14  1  0  0  0  0
 14 15  1  0  0  0  0
 16 14  1  0  0  0  0
 17 19  1  0  0  0  0
 17 14  1  0  0  0  0
 17 18  1  0  0  0  0
 21 20  1  0  0  0  0
 21 22  1  0  0  0  0
 22 17  1  0  0  0  0
 23 22  2  0  0  0  0
 23 28  1  0  0  0  0
 24 23  1  0  0  0  0
 25 27  1  0  0  0  0
 25 24  2  0  0  0  0
 26 25  1  0  0  0  0
 27 21  2  0  0  0  0
 29 24  1  0  0  0  0
 30 27  1  0  0  0  0
 31  3  1  0  0  0  0
 32 41  1  6  0  0  0
 32 31  1  0  0  0  0
 32 33  1  0  0  0  0
 33 34  1  0  0  0  0
 34 35  1  0  0  0  0
 35 36  2  0  0  0  0
 37 35  1  0  0  0  0
 38 37  1  0  0  0  0
 39 40  1  6  0  0  0
 39 34  1  0  0  0  0
 39 37  1  0  0  0  0
 40 32  1  0  0  0  0
 42 41  1  0  0  0  0
M  END
>  <minimizedAffinity>
-6.11364126

$$$$

 OpenBabel03242515073D

 42 45  0  0  1  0  0  0  0  0999 V2000
   37.9950   26.9020   40.0120 C   0  0  0  0  0  0  0  0  0  0  0  0
   39.2170   27.5610   40.1750 C   0  0  0  0  0  0  0  0  0  0  0  0
   39.2130   28.9210   40.4970 C   0  0  0  0  0  0  0  0  0  0  0  0
   38.0090   29.5190   40.6330 N   0  0  0  0  0  0  0  0  0  0  0  0
   36.8410   28.8740   40.4740 C   0  0  0  0  0  0  0  0  0  0  0  0
   36.8500   27.5790   40.1660 N   0  0  0  0  0  0  0  0  0  0  0  0
   40.1390   27.0450   40.0580 H   0  0  0  0  0  0  0  0  0  0  0  0
   35.6350   29.6550   40.6520 C   0  0  0  0  0  0  0  0  0  0  0  0
   34.5540   29.1590   40.2250 O   0  0  0  0  0  0  0  0  0  0  0  0
   35.7350   30.9280   41.2920 N   0  0  0  0  0  0  0  0  0  0  0  0
   35.9360   31.8000   40.7550 H   0  0  0  0  0  0  0  0  0  0  0  0
   35.6070   30.9930   42.3160 H   0  0  0  0  0  0  0  0  0  0  0  0
   38.0630   25.1650   39.5990 S   0  0  0  0  0  0  0  0  0  0  0  0
   38.5120   24.1250   40.9990 C   0  0  0  0  0  0  0  0  0  0  0  0
   37.8710   23.2020   40.9630 H   0  0  0  0  0  0  0  0  0  0  0  0
   39.5700   23.7780   40.9010 H   0  0  0  0  0  0  0  0  0  0  0  0
   38.2870   24.7690   42.3250 C   0  0  0  0  0  0  0  0  0  0  0  0
   37.9310   24.0240   43.0390 H   0  0  0  0  0  0  0  0  0  0  0  0
   37.4940   25.5500   42.1930 H   0  0  0  0  0  0  0  0  0  0  0  0
   38.0510   27.4190   43.7960 Cl  0  0  0  0  0  0  0  0  0  0  0  0
   39.5500   26.5730   43.5410 C   0  0  0  0  0  0  0  0  0  0  0  0
   39.5450   25.3640   42.8520 C   0  0  0  0  0  0  0  0  0  0  0  0
   40.7590   24.7560   42.6890 C   0  0  0  0  0  0  0  0  0  0  0  0
   41.9900   25.2320   43.1450 C   0  0  0  0  0  0  0  0  0  0  0  0
   41.9580   26.4240   43.8190 C   0  0  0  0  0  0  0  0  0  0  0  0
   43.4690   27.0930   44.4260 Cl  0  0  0  0  0  0  0  0  0  0  0  0
   40.7660   27.0780   44.0100 C   0  0  0  0  0  0  0  0  0  0  0  0
   40.7270   23.8120   42.1470 H   0  0  0  0  0  0  0  0  0  0  0  0
   42.8860   24.6530   42.9500 H   0  0  0  0  0  0  0  0  0  0  0  0
   40.7810   28.0240   44.5510 H   0  0  0  0  0  0  0  0  0  0  0  0
   40.5190   29.5930   40.6640 C   0  0  0  0  0  2  0  0  0  0  0  0
   40.7670   30.4590   39.4670 C   0  0  2  0  0  0  0  0  0  0  0  0
   40.4070   31.8900   39.6110 C   0  0  0  0  0  2  0  0  0  0  0  0
   39.0980   32.0990   39.0370 N   0  0  0  0  0  0  0  0  0  0  0  0
   37.7350   32.4790   38.8320 C   0  0  0  0  0  0  0  0  0  0  0  0
   37.0110   33.3140   39.4450 O   0  0  0  0  0  0  0  0  0  0  0  0
   37.5470   31.5500   37.6860 C   0  0  0  0  0  3  0  0  0  0  0  0
   37.0730   30.5930   37.9460 H   0  0  0  0  0  0  0  0  0  0  0  0
   39.0500   31.5620   37.6810 C   0  0  2  0  0  3  0  0  0  0  0  0
   39.8040   29.9260   38.0230 S   0  0  0  0  0  0  0  0  0  0  0  0
   42.2390   30.3370   39.0950 C   0  0  0  0  0  2  0  0  0  0  0  0
   42.3610   30.3140   37.9770 H   0  0  0  0  0  0  0  0  0  0  0  0
  1  6  2  0  0  0  0
  1  2  1  0  0  0  0
  2  3  2  0  0  0  0
  3  4  1  0  0  0  0
  3 31  1  0  0  0  0
  5  4  2  0  0  0  0
  5  8  1  0  0  0  0
  6  5  1  0  0  0  0
  7  2  1  0  0  0  0
  8 10  1  0  0  0  0
  9  8  2  0  0  0  0
 10 12  1  0  0  0  0
 11 10  1  0  0  0  0
 13  1  1  0  0  0  0
 13 14  1  0  0  0  0
 14 17  1  0  0  0  0
 15 14  1  0  0  0  0
 16 14  1  0  0  0  0
 17 22  1  0  0  0  0
 17 18  1  0  0  0  0
 19 17  1  0  0  0  0
 21 20  1  0  0  0  0
 21 27  1  0  0  0  0
 22 21  2  0  0  0  0
 23 22  1  0  0  0  0
 23 24  2  0  0  0  0
 24 25  1  0  0  0  0
 25 27  2  0  0  0  0
 25 26  1  0  0  0  0
 27 30  1  0  0  0  0
 28 23  1  0  0  0  0
 29 24  1  0  0  0  0
 32 41  1  6  0  0  0
 32 33  1  0  0  0  0
 32 31  1  0  0  0  0
 34 33  1  0  0  0  0
 35 34  1  0  0  0  0
 35 36  2  0  0  0  0
 37 38  1  0  0  0  0
 37 35  1  0  0  0  0
 39 37  1  1  0  0  0
 39 40  1  0  0  0  0
 39 34  1  0  0  0  0
 40 32  1  0  0  0  0
 42 41  1  0  0  0  0
M  END
>  <minimizedAffinity>
-6.05443907

$$$$

 OpenBabel03242515073D

 42 45  0  0  1  0  0  0  0  0999 V2000
   37.5390   29.9230   41.7260 C   0  0  0  0  0  0  0  0  0  0  0  0
   36.5440   29.2280   41.0340 C   0  0  0  0  0  0  0  0  0  0  0  0
   36.0260   29.7800   39.8590 C   0  0  0  0  0  0  0  0  0  0  0  0
   36.5310   30.9690   39.4620 N   0  0  0  0  0  0  0  0  0  0  0  0
   37.4890   31.6280   40.1360 C   0  0  0  0  0  0  0  0  0  0  0  0
   37.9780   31.0980   41.2550 N   0  0  0  0  0  0  0  0  0  0  0  0
   36.1790   28.2940   41.3870 H   0  0  0  0  0  0  0  0  0  0  0  0
   37.9250   32.8930   39.5820 C   0  0  0  0  0  0  0  0  0  0  0  0
   39.1250   32.9750   39.1980 O   0  0  0  0  0  0  0  0  0  0  0  0
   36.9820   33.9630   39.5030 N   0  0  0  0  0  0  0  0  0  0  0  0
   36.8390   34.6300   40.2930 H   0  0  0  0  0  0  0  0  0  0  0  0
   36.4230   34.0850   38.6420 H   0  0  0  0  0  0  0  0  0  0  0  0
   38.1610   29.1680   43.2210 S   0  0  0  0  0  0  0  0  0  0  0  0
   39.4870   27.9890   42.9170 C   0  0  0  0  0  0  0  0  0  0  0  0
   39.5270   27.7930   41.8110 H   0  0  0  0  0  0  0  0  0  0  0  0
   40.4750   28.4350   43.1950 H   0  0  0  0  0  0  0  0  0  0  0  0
   39.2920   26.6750   43.5940 C   0  0  0  0  0  0  0  0  0  0  0  0
   38.5850   26.7880   44.4180 H   0  0  0  0  0  0  0  0  0  0  0  0
   40.2830   26.3560   44.0110 H   0  0  0  0  0  0  0  0  0  0  0  0
   41.3190   25.0720   41.9930 Cl  0  0  0  0  0  0  0  0  0  0  0  0
   39.5950   24.8710   41.8670 C   0  0  0  0  0  0  0  0  0  0  0  0
   38.7550   25.6590   42.6470 C   0  0  0  0  0  0  0  0  0  0  0  0
   37.4140   25.4460   42.4960 C   0  0  0  0  0  0  0  0  0  0  0  0
   36.8140   24.5210   41.6400 C   0  0  0  0  0  0  0  0  0  0  0  0
   37.6700   23.7620   40.8860 C   0  0  0  0  0  0  0  0  0  0  0  0
   36.9930   22.5720   39.7800 Cl  0  0  0  0  0  0  0  0  0  0  0  0
   39.0280   23.9350   40.9980 C   0  0  0  0  0  0  0  0  0  0  0  0
   36.7780   26.0760   43.1190 H   0  0  0  0  0  0  0  0  0  0  0  0
   35.7320   24.4490   41.6120 H   0  0  0  0  0  0  0  0  0  0  0  0
   39.6770   23.3120   40.3820 H   0  0  0  0  0  0  0  0  0  0  0  0
   34.9750   29.0240   39.1470 C   0  0  0  0  0  2  0  0  0  0  0  0
   35.6320   28.0650   38.2030 C   0  0  2  0  0  0  0  0  0  0  0  0
   36.7350   28.6130   37.3780 C   0  0  0  0  0  2  0  0  0  0  0  0
   36.2120   28.9660   36.0790 N   0  0  0  0  0  0  0  0  0  0  0  0
   35.8760   29.6700   34.8800 C   0  0  0  0  0  0  0  0  0  0  0  0
   36.3750   30.7130   34.3690 O   0  0  0  0  0  0  0  0  0  0  0  0
   34.7800   28.7310   34.5200 C   0  0  0  0  0  3  0  0  0  0  0  0
   33.7750   29.0690   34.8080 H   0  0  0  0  0  0  0  0  0  0  0  0
   35.4840   27.8390   35.5040 C   0  0  2  0  0  3  0  0  0  0  0  0
   34.4700   27.4100   36.9710 S   0  0  0  0  0  0  0  0  0  0  0  0
   36.1410   26.8800   39.0140 C   0  0  0  0  0  2  0  0  0  0  0  0
   35.9810   25.9200   38.4490 H   0  0  0  0  0  0  0  0  0  0  0  0
  1 13  1  0  0  0  0
  2  7  1  0  0  0  0
  2  1  2  0  0  0  0
  3  2  1  0  0  0  0
  4  3  2  0  0  0  0
  4  5  1  0  0  0  0
  5  6  2  0  0  0  0
  6  1  1  0  0  0  0
  8  5  1  0  0  0  0
  9  8  2  0  0  0  0
 10  8  1  0  0  0  0
 10 11  1  0  0  0  0
 12 10  1  0  0  0  0
 14 16  1  0  0  0  0
 14 13  1  0  0  0  0
 14 17  1  0  0  0  0
 15 14  1  0  0  0  0
 17 19  1  0  0  0  0
 17 18  1  0  0  0  0
 21 20  1  0  0  0  0
 21 22  1  0  0  0  0
 22 17  1  0  0  0  0
 23 22  2  0  0  0  0
 23 28  1  0  0  0  0
 24 23  1  0  0  0  0
 25 27  1  0  0  0  0
 25 24  2  0  0  0  0
 26 25  1  0  0  0  0
 27 21  2  0  0  0  0
 29 24  1  0  0  0  0
 30 27  1  0  0  0  0
 31  3  1  0  0  0  0
 32 41  1  1  0  0  0
 32 31  1  0  0  0  0
 33 32  1  0  0  0  0
 34 33  1  0  0  0  0
 35 34  1  0  0  0  0
 36 35  2  0  0  0  0
 37 38  1  0  0  0  0
 37 35  1  0  0  0  0
 39 37  1  6  0  0  0
 39 34  1  0  0  0  0
 39 40  1  0  0  0  0
 40 32  1  0  0  0  0
 42 41  1  0  0  0  0
M  END
>  <minimizedAffinity>
-6.05308247

$$$$
