
 OpenBabel03242518553D

 45 48  0  0  1  0  0  0  0  0999 V2000
   45.7960   31.1990   46.5160 C   0  0  2  0  0  0  0  0  0  0  0  0
   45.6860   30.5160   47.8410 C   0  0  0  0  0  0  0  0  0  0  0  0
   44.9180   29.2580   47.6190 C   0  0  0  0  0  0  0  0  0  0  0  0
   44.4020   29.0490   46.2390 C   0  0  0  0  0  0  0  0  0  0  0  0
   45.5220   29.1330   45.2400 C   0  0  0  0  0  0  0  0  0  0  0  0
   46.4230   30.2410   45.5230 C   0  0  2  0  0  0  0  0  0  0  0  0
   44.7780   31.3760   46.1140 H   0  0  0  0  0  0  0  0  0  0  0  0
   46.6370   30.3480   48.3580 H   0  0  0  0  0  0  0  0  0  0  0  0
   45.1280   31.2340   48.5220 H   0  0  0  0  0  0  0  0  0  0  0  0
   45.4330   28.3270   47.9710 H   0  0  0  0  0  0  0  0  0  0  0  0
   44.0060   29.3040   48.2820 H   0  0  0  0  0  0  0  0  0  0  0  0
   43.9670   28.0200   46.2170 H   0  0  0  0  0  0  0  0  0  0  0  0
   43.5440   29.7270   45.9890 H   0  0  0  0  0  0  0  0  0  0  0  0
   45.9450   28.1180   45.1340 H   0  0  0  0  0  0  0  0  0  0  0  0
   45.0220   29.3250   44.2450 H   0  0  0  0  0  0  0  0  0  0  0  0
   46.6930   30.8040   44.6280 H   0  0  0  0  0  0  0  0  0  0  0  0
   47.6550   29.6300   46.0990 C   0  0  0  0  0  0  0  0  0  0  0  0
   47.5540   28.5760   46.4160 H   0  0  0  0  0  0  0  0  0  0  0  0
   47.9260   30.2250   47.0010 H   0  0  0  0  0  0  0  0  0  0  0  0
   49.4430   30.1100   41.2940 C   0  0  0  0  0  0  0  0  0  0  0  0
   48.6480   28.9210   41.7740 C   0  0  0  0  0  2  0  0  0  0  0  0
   48.8560   28.7870   43.2000 N   0  0  0  0  0  0  0  0  0  0  0  0
   49.1770   28.3940   44.5300 C   0  0  0  0  0  0  0  0  0  0  0  0
   49.6000   27.2750   44.9710 O   0  0  0  0  0  0  0  0  0  0  0  0
   48.8470   29.7030   45.1430 C   0  0  1  0  0  3  0  0  0  0  0  0
   48.3280   30.0340   43.7640 C   0  0  1  0  0  3  0  0  0  0  0  0
   49.4100   31.1640   42.7990 S   0  0  0  0  0  0  0  0  0  0  0  0
   48.7010   30.8870   40.2270 C   0  0  0  0  0  2  0  0  0  0  0  0
   48.2240   30.2400   39.4640 H   0  0  0  0  0  0  0  0  0  0  0  0
   50.8400   29.7590   40.8790 C   0  0  0  0  0  2  0  0  0  0  0  0
   50.8200   28.6820   40.5400 H   0  0  0  0  0  0  0  0  0  0  0  0
   46.4870   32.5110   46.5620 C   0  0  0  0  0  0  0  0  0  0  0  0
   47.4360   32.7530   47.3500 O   0  0  0  0  0  0  0  0  0  0  0  0
   44.6280   35.3290   45.1680 C   0  0  0  0  0  0  0  0  0  0  0  0
   45.1320   35.4640   43.8510 C   0  0  0  0  0  0  0  0  0  0  0  0
   46.1180   34.5670   43.4770 C   0  0  0  0  0  0  0  0  0  0  0  0
   46.4740   33.6810   44.4090 N   0  0  0  0  0  0  0  0  0  0  0  0
   46.0120   33.5480   45.6340 C   0  0  0  0  0  0  0  0  0  0  0  0
   45.0550   34.4040   46.0240 N   0  0  0  0  0  0  0  0  0  0  0  0
   43.8440   36.0200   45.5050 H   0  0  0  0  0  0  0  0  0  0  0  0
   44.7380   36.2380   43.2110 H   0  0  0  0  0  0  0  0  0  0  0  0
   46.6360   34.6940   42.1250 C   0  0  0  0  0  0  0  0  0  0  0  0
   47.2940   33.5240   41.7640 F   0  0  0  0  0  0  0  0  0  0  0  0
   47.5290   35.7170   42.1380 F   0  0  0  0  0  0  0  0  0  0  0  0
   45.6260   34.8580   41.1840 F   0  0  0  0  0  0  0  0  0  0  0  0
  1  7  1  6  0  0  0
  1 32  1  0  0  0  0
  1  2  1  0  0  0  0
  2  8  1  0  0  0  0
  2  9  1  0  0  0  0
  3  2  1  0  0  0  0
  3 10  1  0  0  0  0
  3 11  1  0  0  0  0
  4  3  1  0  0  0  0
  5  6  1  0  0  0  0
  5  4  1  0  0  0  0
  6 16  1  6  0  0  0
  6 17  1  0  0  0  0
  6  1  1  0  0  0  0
 12  4  1  0  0  0  0
 13  4  1  0  0  0  0
 14  5  1  0  0  0  0
 15  5  1  0  0  0  0
 17 18  1  0  0  0  0
 17 19  1  0  0  0  0
 20 21  1  0  0  0  0
 20 27  1  0  0  0  0
 21 22  1  0  0  0  0
 22 26  1  0  0  0  0
 22 23  1  0  0  0  0
 23 24  2  0  0  0  0
 23 25  1  0  0  0  0
 25 17  1  1  0  0  0
 26 27  1  6  0  0  0
 26 25  1  0  0  0  0
 28 20  1  0  0  0  0
 29 28  1  0  0  0  0
 30 20  1  0  0  0  0
 31 30  1  0  0  0  0
 32 33  2  0  0  0  0
 34 40  1  0  0  0  0
 34 39  1  0  0  0  0
 35 34  2  0  0  0  0
 36 35  1  0  0  0  0
 36 37  2  0  0  0  0
 37 38  1  0  0  0  0
 38 39  2  0  0  0  0
 38 32  1  0  0  0  0
 41 35  1  0  0  0  0
 42 44  1  0  0  0  0
 42 36  1  0  0  0  0
 43 42  1  0  0  0  0
 45 42  1  0  0  0  0
M  END
>  <minimizedAffinity>
-5.31035566

>  <minimizedRMSD>
1.73716962

$$$$
