
 OpenBabel03242519103D

 50 54  0  0  1  0  0  0  0  0999 V2000
   48.5510   31.8490   37.3360 C   0  0  0  0  0  0  0  0  0  0  0  0
   47.9910   32.8860   38.1130 C   0  0  0  0  0  0  0  0  0  0  0  0
   46.7950   33.3610   37.6160 C   0  0  0  0  0  0  0  0  0  0  0  0
   46.1630   32.9160   36.4900 C   0  0  0  0  0  0  0  0  0  0  0  0
   46.7480   31.8980   35.7610 C   0  0  0  0  0  0  0  0  0  0  0  0
   47.9350   31.3830   36.2020 C   0  0  0  0  0  0  0  0  0  0  0  0
   46.3350   34.1580   38.1850 H   0  0  0  0  0  0  0  0  0  0  0  0
   45.2200   33.3250   36.1420 H   0  0  0  0  0  0  0  0  0  0  0  0
   46.2720   31.5230   34.8640 H   0  0  0  0  0  0  0  0  0  0  0  0
   49.4260   30.6690   34.3880 C   0  0  0  0  0  0  0  0  0  0  0  0
   49.7200   31.8870   34.1600 O   0  0  0  0  0  0  0  0  0  0  0  0
   48.5120   30.3330   35.4240 N   0  0  0  0  0  0  0  0  0  0  0  0
   48.2320   29.3660   35.6560 H   0  0  0  0  0  0  0  0  0  0  0  0
   48.7360   30.9340   30.2810 C   0  0  0  0  0  0  0  0  0  0  0  0
   50.0730   30.2550   30.2850 C   0  0  0  0  0  2  0  0  0  0  0  0
   50.4690   29.9890   31.6360 N   0  0  0  0  0  0  0  0  0  0  0  0
   51.1650   29.9140   32.8750 C   0  0  0  0  0  0  0  0  0  0  0  0
   52.3760   30.1360   33.2120 O   0  0  0  0  0  0  0  0  0  0  0  0
   49.9690   29.4820   33.6440 C   0  0  2  0  0  3  0  0  0  0  0  0
   49.4060   29.2200   32.3020 C   0  0  1  0  0  3  0  0  0  0  0  0
   48.0030   30.3000   31.8230 S   0  0  0  0  0  0  0  0  0  0  0  0
   48.7870   32.4250   30.2410 C   0  0  0  0  0  2  0  0  0  0  0  0
   49.7360   32.8770   30.5450 H   0  0  0  0  0  0  0  0  0  0  0  0
   47.9810   30.4030   29.0740 C   0  0  0  0  0  2  0  0  0  0  0  0
   47.7760   29.3180   29.1650 H   0  0  0  0  0  0  0  0  0  0  0  0
   48.5710   33.4060   39.2820 N   0  0  0  0  0  0  0  0  0  0  0  0
   49.4940   33.8220   39.0170 H   0  0  0  0  0  0  0  0  0  0  0  0
   47.4600   34.5790   42.4500 N   0  0  0  0  0  0  0  0  0  0  0  0
   47.3700   34.6780   40.9940 C   0  0  0  0  0  0  0  0  0  0  0  0
   48.1360   33.4480   40.6360 C   0  0  2  0  0  0  0  0  0  0  0  0
   49.3630   33.5490   41.5220 C   0  0  0  0  0  0  0  0  0  0  0  0
   48.8230   34.2360   42.7540 C   0  0  0  0  0  0  0  0  0  0  0  0
   47.8950   35.5710   40.6100 H   0  0  0  0  0  0  0  0  0  0  0  0
   46.3150   34.6110   40.6580 H   0  0  0  0  0  0  0  0  0  0  0  0
   47.5110   32.5720   40.9060 H   0  0  0  0  0  0  0  0  0  0  0  0
   49.7800   32.5510   41.7650 H   0  0  0  0  0  0  0  0  0  0  0  0
   50.0820   34.2290   41.0360 H   0  0  0  0  0  0  0  0  0  0  0  0
   48.8450   33.5390   43.6350 H   0  0  0  0  0  0  0  0  0  0  0  0
   49.3960   35.1320   43.0330 H   0  0  0  0  0  0  0  0  0  0  0  0
   44.5550   35.8460   44.4290 C   0  0  0  0  0  0  0  0  0  0  0  0
   45.4860   35.7440   43.4010 C   0  0  0  0  0  0  0  0  0  0  0  0
   46.4790   34.7620   43.4360 C   0  0  0  0  0  0  0  0  0  0  0  0
   46.4640   33.9420   44.5120 N   0  0  0  0  0  0  0  0  0  0  0  0
   45.5780   34.0240   45.5110 C   0  0  0  0  0  0  0  0  0  0  0  0
   44.6150   34.9920   45.4570 N   0  0  0  0  0  0  0  0  0  0  0  0
   43.8270   36.6350   44.3140 H   0  0  0  0  0  0  0  0  0  0  0  0
   45.5430   36.3730   42.5170 H   0  0  0  0  0  0  0  0  0  0  0  0
   45.5990   33.3430   46.3640 H   0  0  0  0  0  0  0  0  0  0  0  0
   50.8100   30.8540   38.1460 N   0  0  0  0  0  0  0  0  0  0  0  0
   49.8070   31.3000   37.7960 C   0  0  0  0  0  0  0  0  0  0  0  0
  1 50  1  0  0  0  0
  1  2  1  0  0  0  0
  2 26  1  0  0  0  0
  3  2  2  0  0  0  0
  3  7  1  0  0  0  0
  4  3  1  0  0  0  0
  5  6  1  0  0  0  0
  5  4  2  0  0  0  0
  6  1  2  0  0  0  0
  8  4  1  0  0  0  0
  9  5  1  0  0  0  0
 10 12  1  0  0  0  0
 11 10  2  0  0  0  0
 12 13  1  0  0  0  0
 12  6  1  0  0  0  0
 14 15  1  0  0  0  0
 14 21  1  0  0  0  0
 15 16  1  0  0  0  0
 16 20  1  0  0  0  0
 16 17  1  0  0  0  0
 17 18  2  0  0  0  0
 17 19  1  0  0  0  0
 19 10  1  6  0  0  0
 20 21  1  1  0  0  0
 20 19  1  0  0  0  0
 22 14  1  0  0  0  0
 22 23  1  0  0  0  0
 24 25  1  0  0  0  0
 24 14  1  0  0  0  0
 26 30  1  0  0  0  0
 27 26  1  0  0  0  0
 28 32  1  0  0  0  0
 28 42  1  0  0  0  0
 29 28  1  0  0  0  0
 30 35  1  1  0  0  0
 30 29  1  0  0  0  0
 30 31  1  0  0  0  0
 31 36  1  0  0  0  0
 31 32  1  0  0  0  0
 32 39  1  0  0  0  0
 32 38  1  0  0  0  0
 33 29  1  0  0  0  0
 34 29  1  0  0  0  0
 37 31  1  0  0  0  0
 40 45  1  0  0  0  0
 41 42  1  0  0  0  0
 41 40  2  0  0  0  0
 42 43  2  0  0  0  0
 43 44  1  0  0  0  0
 44 48  1  0  0  0  0
 45 44  2  0  0  0  0
 46 40  1  0  0  0  0
 47 41  1  0  0  0  0
 50 49  3  0  0  0  0
M  END
>  <minimizedAffinity>
-5.97744465

>  <minimizedRMSD>
1.00129795

$$$$
