
 OpenBabel03252507163D

 32 36  0  0  1  0  0  0  0  0999 V2000
   44.2200   35.5620   43.0870 C   0  0  0  0  0  0  0  0  0  0  0  0
   45.1290   34.5680   42.6630 C   0  0  0  0  0  0  0  0  0  0  0  0
   45.8710   33.9000   43.6260 C   0  0  0  0  0  0  0  0  0  0  0  0
   45.7030   34.2170   44.9200 N   0  0  0  0  0  0  0  0  0  0  0  0
   44.8180   35.1830   45.3180 C   0  0  0  0  0  0  0  0  0  0  0  0
   44.1040   35.8270   44.4050 N   0  0  0  0  0  0  0  0  0  0  0  0
   43.6190   36.1070   42.3600 H   0  0  0  0  0  0  0  0  0  0  0  0
   44.7070   35.4130   46.3680 H   0  0  0  0  0  0  0  0  0  0  0  0
   46.8070   32.8770   43.1830 C   0  0  0  0  0  0  0  0  0  0  0  0
   46.3560   31.5980   42.9600 C   0  0  0  0  0  0  0  0  0  0  0  0
   47.2690   30.6530   42.5400 C   0  0  0  0  0  0  0  0  0  0  0  0
   48.6150   30.9230   42.3330 C   0  0  0  0  0  0  0  0  0  0  0  0
   48.9940   32.2230   42.5770 C   0  0  0  0  0  0  0  0  0  0  0  0
   48.1040   33.1530   42.9880 N   0  0  0  0  0  0  0  0  0  0  0  0
   45.3220   31.3370   43.1050 H   0  0  0  0  0  0  0  0  0  0  0  0
   46.8810   29.6590   42.3740 H   0  0  0  0  0  0  0  0  0  0  0  0
   49.2810   30.1330   42.0040 H   0  0  0  0  0  0  0  0  0  0  0  0
   50.0360   32.4800   42.4290 H   0  0  0  0  0  0  0  0  0  0  0  0
   45.2530   34.2850   41.2680 C   0  0  0  0  0  0  0  0  0  0  0  0
   46.3860   34.4840   40.7230 O   0  0  0  0  0  0  0  0  0  0  0  0
   40.6260   34.5660   39.1900 C   0  0  0  0  0  0  0  0  0  0  0  0
   41.0560   33.2290   39.6500 C   0  0  0  0  0  0  0  0  0  0  0  0
   42.2040   33.2990   40.4560 N   0  0  1  0  0  0  0  0  0  0  0  0
   43.2490   32.9300   41.3470 C   0  0  1  0  0  0  0  0  0  0  0  0
   43.3040   32.2220   42.3800 O   0  0  0  0  0  0  0  0  0  0  0  0
   44.1220   33.7750   40.4390 C   0  0  1  0  0  0  0  0  0  0  0  0
   42.8990   34.6050   40.4710 C   0  0  1  0  0  0  0  0  0  0  0  0
   42.2840   35.3310   38.9330 S   0  0  0  0  0  0  0  0  0  0  0  0
   39.8330   34.5270   37.9120 C   0  0  0  0  0  0  0  0  0  0  0  0
   39.5800   33.4640   37.6380 H   0  0  0  0  0  0  0  0  0  0  0  0
   39.9730   35.3550   40.2790 C   0  0  0  0  0  0  0  0  0  0  0  0
   38.8710   35.4270   40.1550 H   0  0  0  0  0  0  0  0  0  0  0  0
  1  6  1  0  0  0  0
  2  1  2  0  0  0  0
  2  3  1  0  0  0  0
  3  4  2  0  0  0  0
  4  5  1  0  0  0  0
  5  8  1  0  0  0  0
  6  5  2  0  0  0  0
  7  1  1  0  0  0  0
  9  3  1  0  0  0  0
 10 15  1  0  0  0  0
 10  9  2  0  0  0  0
 11 10  1  0  0  0  0
 12 11  2  0  0  0  0
 12 13  1  0  0  0  0
 13 14  2  0  0  0  0
 14  9  1  0  0  0  0
 16 11  1  0  0  0  0
 17 12  1  0  0  0  0
 18 13  1  0  0  0  0
 19  2  1  0  0  0  0
 20 19  2  0  0  0  0
 21 22  1  0  0  0  0
 21 31  1  0  0  0  0
 23 22  1  6  0  0  0
 23 27  1  0  0  0  0
 23 24  1  0  0  0  0
 24 25  1  1  0  0  0
 26 27  1  0  0  0  0
 26 19  1  1  0  0  0
 26 24  1  0  0  0  0
 27 28  1  1  0  0  0
 27 24  1  0  0  0  0
 28 21  1  0  0  0  0
 29 21  1  0  0  0  0
 30 29  1  0  0  0  0
 32 31  1  0  0  0  0
M  END
>  <minimizedAffinity>
-5.59261799

>  <minimizedRMSD>
1.60439551

$$$$
