
 OpenBabel03252501403D

 48 53  0  0  1  0  0  0  0  0999 V2000
   44.3570   34.4700   41.7010 C   0  0  0  0  0  0  0  0  0  0  0  0
   44.2290   33.2710   42.1550 O   0  0  0  0  0  0  0  0  0  0  0  0
   45.2260   35.2630   42.5080 N   0  0  0  0  0  0  0  0  0  0  0  0
   45.4800   36.2250   42.2890 H   0  0  0  0  0  0  0  0  0  0  0  0
   45.6670   34.4880   43.6440 C   0  0  0  0  0  0  0  0  0  0  0  0
   45.1880   34.5730   44.9140 C   0  0  0  0  0  0  0  0  0  0  0  0
   45.7450   33.7430   45.8520 C   0  0  0  0  0  0  0  0  0  0  0  0
   46.7310   32.9000   45.4430 N   0  0  0  0  0  0  0  0  0  0  0  0
   47.1820   32.8390   44.1840 C   0  0  0  0  0  0  0  0  0  0  0  0
   46.6430   33.6520   43.2410 N   0  0  0  0  0  0  0  0  0  0  0  0
   45.3810   33.7920   46.8670 H   0  0  0  0  0  0  0  0  0  0  0  0
   44.1640   35.5030   45.1560 N   0  0  0  0  0  0  0  0  0  0  0  0
   43.4370   35.0500   45.7490 H   0  0  0  0  0  0  0  0  0  0  0  0
   44.1050   36.4830   44.8210 H   0  0  0  0  0  0  0  0  0  0  0  0
   48.2650   31.8620   43.9020 C   0  0  0  0  0  2  0  0  0  0  0  0
   48.1370   31.3560   42.4890 C   0  0  1  0  0  0  0  0  0  0  0  0
   48.2270   32.3930   41.4560 C   0  0  0  0  0  2  0  0  0  0  0  0
   48.8930   31.9740   40.3020 N   0  0  1  0  0  0  0  0  0  0  0  0
   49.4700   32.0420   39.0260 C   0  0  1  0  0  0  0  0  0  0  0  0
   49.3090   32.5750   37.8980 O   0  0  0  0  0  1  0  0  0  0  0  0
   50.5200   31.1030   39.5640 C   0  0  0  0  0  3  0  0  0  0  0  0
   51.2160   31.5930   40.2660 H   0  0  0  0  0  0  0  0  0  0  0  0
   49.3210   30.5890   40.2850 C   0  0  1  0  0  0  0  0  0  0  0  0
   49.5080   30.2470   42.0550 S   0  0  0  0  0  0  0  0  0  0  0  0
   46.8700   30.5690   42.3150 C   0  0  0  0  0  2  0  0  0  0  0  0
   45.9860   31.2030   42.0850 H   0  0  0  0  0  0  0  0  0  0  0  0
   43.7540   35.0090   40.5640 O   0  0  0  0  0  0  0  0  0  0  0  0
   43.0220   32.4140   39.3140 Cl  0  0  0  0  0  0  0  0  0  0  0  0
   41.9240   33.6730   39.8520 C   0  0  0  0  0  0  0  0  0  0  0  0
   42.3610   34.8620   40.4300 C   0  0  0  0  0  0  0  0  0  0  0  0
   41.4650   35.8070   40.8300 C   0  0  0  0  0  0  0  0  0  0  0  0
   40.1000   35.6610   40.6980 C   0  0  0  0  0  0  0  0  0  0  0  0
   39.6290   34.4640   40.1160 C   0  0  0  0  0  0  0  0  0  0  0  0
   37.9090   34.1870   39.9060 Cl  0  0  0  0  0  0  0  0  0  0  0  0
   40.5670   33.5290   39.7220 C   0  0  0  0  0  0  0  0  0  0  0  0
   41.8400   36.7200   41.2760 H   0  0  0  0  0  0  0  0  0  0  0  0
   39.4070   36.4210   41.0210 H   0  0  0  0  0  0  0  0  0  0  0  0
   40.0090   31.3820   41.3000 F   0  0  0  0  0  0  0  0  0  0  0  0
   39.8140   31.2160   39.9500 C   0  0  0  0  0  0  0  0  0  0  0  0
   40.0880   32.2890   39.1190 C   0  0  0  0  0  0  0  0  0  0  0  0
   39.8770   32.0800   37.7530 C   0  0  0  0  0  0  0  0  0  0  0  0
   39.4190   30.8490   37.3160 C   0  0  0  0  0  0  0  0  0  0  0  0
   39.1600   29.8020   38.2150 C   0  0  0  0  0  0  0  0  0  0  0  0
   39.3590   29.9740   39.5790 C   0  0  0  0  0  0  0  0  0  0  0  0
   40.0900   32.9110   37.1120 H   0  0  0  0  0  0  0  0  0  0  0  0
   39.2700   30.7340   36.2470 H   0  0  0  0  0  0  0  0  0  0  0  0
   38.8000   28.8460   37.8440 H   0  0  0  0  0  0  0  0  0  0  0  0
   39.1690   29.1970   40.2770 H   0  0  0  0  0  0  0  0  0  0  0  0
  1  2  2  0  0  0  0
  1  3  1  0  0  0  0
  3  5  1  0  0  0  0
  4  3  1  0  0  0  0
  5  6  1  0  0  0  0
  6 12  1  0  0  0  0
  6  7  2  0  0  0  0
  7 11  1  0  0  0  0
  8  7  1  0  0  0  0
  9  8  2  0  0  0  0
 10  5  2  0  0  0  0
 10  9  1  0  0  0  0
 12 13  1  0  0  0  0
 14 12  1  0  0  0  0
 15  9  1  0  0  0  0
 16 25  1  6  0  0  0
 16 15  1  0  0  0  0
 17 16  1  0  0  0  0
 18 17  1  1  0  0  0
 19 20  1  6  0  0  0
 19 21  1  0  0  0  0
 19 23  1  0  0  0  0
 19 18  1  0  0  0  0
 21 22  1  0  0  0  0
 23 21  1  1  0  0  0
 23 18  1  0  0  0  0
 23 24  1  0  0  0  0
 24 16  1  0  0  0  0
 26 25  1  0  0  0  0
 27  1  1  0  0  0  0
 28 29  1  0  0  0  0
 29 30  1  0  0  0  0
 30 27  1  0  0  0  0
 30 31  2  0  0  0  0
 31 36  1  0  0  0  0
 32 31  1  0  0  0  0
 32 37  1  0  0  0  0
 33 32  2  0  0  0  0
 34 33  1  0  0  0  0
 35 29  2  0  0  0  0
 35 33  1  0  0  0  0
 39 38  1  0  0  0  0
 40 35  1  0  0  0  0
 40 39  2  0  0  0  0
 41 40  1  0  0  0  0
 42 41  2  0  0  0  0
 42 43  1  0  0  0  0
 43 44  2  0  0  0  0
 44 39  1  0  0  0  0
 44 48  1  0  0  0  0
 45 41  1  0  0  0  0
 46 42  1  0  0  0  0
 47 43  1  0  0  0  0
M  END
>  <minimizedAffinity>
-6.5223341

>  <minimizedRMSD>
0.710258305

$$$$
