
 OpenBabel03252502463D

 48 52  0  0  1  0  0  0  0  0999 V2000
   47.4030   35.2730   41.9540 C   0  0  0  0  0  0  0  0  0  0  0  0
   47.5140   35.9090   42.8630 H   0  0  0  0  0  0  0  0  0  0  0  0
   46.9480   35.9500   41.1790 H   0  0  0  0  0  0  0  0  0  0  0  0
   48.7390   34.7420   41.5620 C   0  0  1  0  0  0  0  0  0  0  0  0
   49.9010   35.0220   42.4670 C   0  0  0  0  0  0  0  0  0  0  0  0
   49.2900   33.6590   42.3550 C   0  0  2  0  0  0  0  0  0  0  0  0
   48.9560   34.8470   40.4990 H   0  0  0  0  0  0  0  0  0  0  0  0
   49.6620   35.6500   43.3690 H   0  0  0  0  0  0  0  0  0  0  0  0
   50.8920   35.2510   42.0470 H   0  0  0  0  0  0  0  0  0  0  0  0
   48.9040   33.2810   43.2910 H   0  0  0  0  0  0  0  0  0  0  0  0
   50.1250   32.7370   41.5820 N   0  0  0  0  0  0  0  0  0  0  0  0
   49.5480   32.2940   40.3780 C   0  0  0  0  0  0  0  0  0  0  0  0
   50.5500   31.3370   39.7610 C   0  0  0  0  0  0  0  0  0  0  0  0
   50.7650   30.1920   40.5720 N   0  0  0  0  0  0  0  0  0  0  0  0
   50.5480   30.4180   41.9880 C   0  0  0  0  0  0  0  0  0  0  0  0
   50.9280   31.8640   42.3340 C   0  0  0  0  0  0  0  0  0  0  0  0
   48.5850   31.7440   40.4990 H   0  0  0  0  0  0  0  0  0  0  0  0
   49.4610   33.1510   39.6720 H   0  0  0  0  0  0  0  0  0  0  0  0
   50.1480   31.0590   38.7650 H   0  0  0  0  0  0  0  0  0  0  0  0
   51.5170   31.8840   39.5650 H   0  0  0  0  0  0  0  0  0  0  0  0
   51.6600   29.7110   40.3540 H   0  0  0  0  0  0  0  0  0  0  0  0
   51.1570   29.6790   42.5390 H   0  0  0  0  0  0  0  0  0  0  0  0
   49.4620   30.3350   42.2080 H   0  0  0  0  0  0  0  0  0  0  0  0
   52.0030   32.0340   42.0460 H   0  0  0  0  0  0  0  0  0  0  0  0
   50.8400   32.0380   43.4090 H   0  0  0  0  0  0  0  0  0  0  0  0
   46.5350   34.0860   42.2740 C   0  0  0  0  0  0  0  0  0  0  0  0
   46.9690   33.1090   42.1270 H   0  0  0  0  0  0  0  0  0  0  0  0
   45.6710   34.1370   41.5450 H   0  0  0  0  0  0  0  0  0  0  0  0
   44.5370   35.5920   45.0650 C   0  0  0  0  0  0  0  0  0  0  0  0
   45.1120   35.4030   43.7770 C   0  0  0  0  0  0  0  0  0  0  0  0
   45.9120   34.3030   43.6130 C   0  0  0  0  0  0  0  0  0  0  0  0
   46.1180   33.4600   44.6620 N   0  0  0  0  0  0  0  0  0  0  0  0
   45.5790   33.6500   45.8420 C   0  0  0  0  0  0  0  0  0  0  0  0
   44.7840   34.7180   46.0550 N   0  0  0  0  0  0  0  0  0  0  0  0
   43.9020   36.4670   45.1950 H   0  0  0  0  0  0  0  0  0  0  0  0
   44.8740   36.1440   43.0230 H   0  0  0  0  0  0  0  0  0  0  0  0
   45.7500   32.7810   47.0220 C   0  0  0  0  0  2  0  0  0  0  0  0
   46.3090   31.4430   46.7400 C   0  0  1  0  0  0  0  0  0  0  0  0
   46.4640   30.7020   48.0800 C   0  0  0  0  0  2  0  0  0  0  0  0
   46.6270   29.2920   47.7120 N   0  0  0  0  0  0  0  0  0  0  0  0
   46.9130   27.9100   47.3800 C   0  0  0  0  0  0  0  0  0  0  0  0
   48.0240   27.3900   47.6620 O   0  0  0  0  0  0  0  0  0  0  0  0
   45.6080   27.6510   46.7660 C   0  0  0  0  0  3  0  0  0  0  0  0
   45.6100   27.5430   45.6640 H   0  0  0  0  0  0  0  0  0  0  0  0
   45.2360   28.9920   47.2990 C   0  0  2  0  0  3  0  0  0  0  0  0
   45.0900   30.2840   45.9890 S   0  0  0  0  0  0  0  0  0  0  0  0
   47.5960   31.4030   46.0170 C   0  0  0  0  0  2  0  0  0  0  0  0
   47.5650   30.7350   45.1050 H   0  0  0  0  0  0  0  0  0  0  0  0
  1 26  1  0  0  0  0
  1  2  1  0  0  0  0
  3  1  1  0  0  0  0
  4  7  1  6  0  0  0
  4  1  1  0  0  0  0
  4  6  1  0  0  0  0
  4  5  1  0  0  0  0
  5  8  1  0  0  0  0
  6  5  1  0  0  0  0
  6 10  1  1  0  0  0
  9  5  1  0  0  0  0
 11 16  1  0  0  0  0
 11  6  1  0  0  0  0
 12 17  1  0  0  0  0
 12 11  1  0  0  0  0
 13 12  1  0  0  0  0
 13 14  1  0  0  0  0
 14 15  1  0  0  0  0
 15 23  1  0  0  0  0
 15 16  1  0  0  0  0
 15 22  1  0  0  0  0
 16 25  1  0  0  0  0
 18 12  1  0  0  0  0
 19 13  1  0  0  0  0
 20 13  1  0  0  0  0
 21 14  1  0  0  0  0
 24 16  1  0  0  0  0
 26 31  1  0  0  0  0
 27 26  1  0  0  0  0
 28 26  1  0  0  0  0
 29 35  1  0  0  0  0
 29 34  1  0  0  0  0
 30 29  2  0  0  0  0
 31 30  1  0  0  0  0
 31 32  2  0  0  0  0
 32 33  1  0  0  0  0
 33 34  2  0  0  0  0
 33 37  1  0  0  0  0
 36 30  1  0  0  0  0
 38 47  1  6  0  0  0
 38 37  1  0  0  0  0
 38 39  1  0  0  0  0
 40 39  1  0  0  0  0
 41 42  2  0  0  0  0
 41 40  1  0  0  0  0
 43 45  1  0  0  0  0
 43 41  1  0  0  0  0
 44 43  1  0  0  0  0
 45 46  1  6  0  0  0
 45 40  1  0  0  0  0
 46 38  1  0  0  0  0
 48 47  1  0  0  0  0
M  END
>  <minimizedAffinity>
-5.30226946

>  <minimizedRMSD>
0.673984349

$$$$
