
 OpenBabel03242511513D

 30 33  0  0  1  0  0  0  0  0999 V2000
   37.7580   30.2690   38.6420 C   0  0  1  0  0  0  0  0  0  0  0  0
   37.3950   29.1820   39.5820 C   0  0  2  0  0  0  0  0  0  0  0  0
   36.3500   29.7940   38.7560 C   0  0  0  0  0  0  0  0  0  0  0  0
   38.3040   30.0090   37.7180 H   0  0  0  0  0  0  0  0  0  0  0  0
   37.7930   28.1870   39.2300 H   0  0  0  0  0  0  0  0  0  0  0  0
   35.6250   30.5270   39.1200 H   0  0  0  0  0  0  0  0  0  0  0  0
   35.9060   29.1850   37.9130 H   0  0  0  0  0  0  0  0  0  0  0  0
   39.4950   31.8880   39.3620 C   0  0  0  0  0  0  0  0  0  0  0  0
   38.1420   31.6160   39.1510 C   0  0  0  0  0  0  0  0  0  0  0  0
   37.1960   32.6180   39.4160 C   0  0  0  0  0  0  0  0  0  0  0  0
   37.6690   33.8240   39.8740 N   0  0  0  0  0  0  0  0  0  0  0  0
   38.9830   34.0530   40.0650 C   0  0  0  0  0  0  0  0  0  0  0  0
   39.9150   33.0720   39.8070 N   0  0  0  0  0  0  0  0  0  0  0  0
   40.2520   31.1510   39.1720 H   0  0  0  0  0  0  0  0  0  0  0  0
   36.1480   32.4190   39.2570 H   0  0  0  0  0  0  0  0  0  0  0  0
   39.1470   35.0610   40.4280 H   0  0  0  0  0  0  0  0  0  0  0  0
   37.4260   29.4640   41.0190 C   0  0  0  0  0  0  0  0  0  0  0  0
   36.3970   29.8900   41.4630 O   0  0  0  0  0  0  0  0  0  0  0  0
   39.6430   26.3870   42.3440 C   0  0  0  0  0  0  0  0  0  0  0  0
   40.2940   27.5450   42.9530 C   0  0  0  0  0  2  0  0  0  0  0  0
   39.5320   28.7140   42.8620 N   0  0  0  0  0  0  0  0  0  0  0  0
   39.1660   30.0450   42.6560 C   0  0  0  0  0  0  0  0  0  0  0  0
   39.7360   31.1870   42.6430 O   0  0  0  0  0  0  0  0  0  0  0  0
   37.7630   29.6420   42.4380 C   0  0  2  0  0  3  0  0  0  0  0  0
   38.1930   28.4150   43.1940 C   0  0  1  0  0  3  0  0  0  0  0  0
   37.8910   26.8520   42.3270 S   0  0  0  0  0  0  0  0  0  0  0  0
   40.1410   26.0190   40.9710 C   0  0  0  0  0  2  0  0  0  0  0  0
   41.0100   26.6900   40.7180 H   0  0  0  0  0  0  0  0  0  0  0  0
   39.7520   25.1770   43.2730 C   0  0  0  0  0  2  0  0  0  0  0  0
   40.7940   24.7860   43.2470 H   0  0  0  0  0  0  0  0  0  0  0  0
  1  4  1  6  0  0  0
  1  3  1  0  0  0  0
  1  9  1  0  0  0  0
  1  2  1  0  0  0  0
  2  5  1  6  0  0  0
  2 17  1  0  0  0  0
  3  6  1  0  0  0  0
  3  2  1  0  0  0  0
  7  3  1  0  0  0  0
  8 13  1  0  0  0  0
  9  8  2  0  0  0  0
  9 10  1  0  0  0  0
 10 11  2  0  0  0  0
 11 12  1  0  0  0  0
 12 16  1  0  0  0  0
 13 12  2  0  0  0  0
 14  8  1  0  0  0  0
 15 10  1  0  0  0  0
 17 18  2  0  0  0  0
 19 20  1  0  0  0  0
 19 29  1  0  0  0  0
 21 20  1  0  0  0  0
 21 25  1  0  0  0  0
 22 21  1  0  0  0  0
 23 22  2  0  0  0  0
 24 17  1  6  0  0  0
 24 22  1  0  0  0  0
 24 25  1  0  0  0  0
 25 26  1  6  0  0  0
 26 19  1  0  0  0  0
 27 19  1  0  0  0  0
 28 27  1  0  0  0  0
 30 29  1  0  0  0  0
M  END
>  <minimizedAffinity>
-5.22891474

$$$$

 OpenBabel03242511513D

 30 33  0  0  1  0  0  0  0  0999 V2000
   37.3320   28.4370   43.3830 C   0  0  1  0  0  0  0  0  0  0  0  0
   36.4160   28.0370   42.2900 C   0  0  2  0  0  0  0  0  0  0  0  0
   36.4650   27.2320   43.5140 C   0  0  0  0  0  0  0  0  0  0  0  0
   37.0690   29.3160   43.9990 H   0  0  0  0  0  0  0  0  0  0  0  0
   35.5510   28.7560   42.1970 H   0  0  0  0  0  0  0  0  0  0  0  0
   36.9860   26.2750   43.6030 H   0  0  0  0  0  0  0  0  0  0  0  0
   35.5790   27.2670   44.2150 H   0  0  0  0  0  0  0  0  0  0  0  0
   39.5370   29.3730   42.7340 C   0  0  0  0  0  0  0  0  0  0  0  0
   38.8070   28.2910   43.2300 C   0  0  0  0  0  0  0  0  0  0  0  0
   39.4860   27.1120   43.5750 C   0  0  0  0  0  0  0  0  0  0  0  0
   40.8490   27.0970   43.3980 N   0  0  0  0  0  0  0  0  0  0  0  0
   41.5210   28.1610   42.9170 C   0  0  0  0  0  0  0  0  0  0  0  0
   40.8600   29.3190   42.5770 N   0  0  0  0  0  0  0  0  0  0  0  0
   39.0580   30.2940   42.4590 H   0  0  0  0  0  0  0  0  0  0  0  0
   38.9340   26.2700   43.9590 H   0  0  0  0  0  0  0  0  0  0  0  0
   42.5820   27.9460   42.8540 H   0  0  0  0  0  0  0  0  0  0  0  0
   36.9960   27.4980   41.0570 C   0  0  0  0  0  0  0  0  0  0  0  0
   36.9980   26.3010   40.9920 O   0  0  0  0  0  0  0  0  0  0  0  0
   37.7790   30.9930   39.2370 C   0  0  0  0  0  0  0  0  0  0  0  0
   38.9790   30.2050   38.9600 C   0  0  0  0  0  2  0  0  0  0  0  0
   38.8240   28.8480   39.2580 N   0  0  0  0  0  0  0  0  0  0  0  0
   39.0680   27.5580   39.7350 C   0  0  0  0  0  0  0  0  0  0  0  0
   40.0800   26.8480   40.0530 O   0  0  0  0  0  0  0  0  0  0  0  0
   37.6210   27.2720   39.7470 C   0  0  2  0  0  3  0  0  0  0  0  0
   37.5750   28.4090   38.7650 C   0  0  1  0  0  3  0  0  0  0  0  0
   36.4530   29.7570   39.2260 S   0  0  0  0  0  0  0  0  0  0  0  0
   37.8090   31.7760   40.5230 C   0  0  0  0  0  2  0  0  0  0  0  0
   38.8270   31.6550   40.9890 H   0  0  0  0  0  0  0  0  0  0  0  0
   37.4910   31.9350   38.0660 C   0  0  0  0  0  2  0  0  0  0  0  0
   38.2220   32.7750   38.0820 H   0  0  0  0  0  0  0  0  0  0  0  0
  1  3  1  0  0  0  0
  1  4  1  1  0  0  0
  2  5  1  6  0  0  0
  2  1  1  0  0  0  0
  2  3  1  0  0  0  0
  3  6  1  0  0  0  0
  3  7  1  0  0  0  0
  8  9  1  0  0  0  0
  9  1  1  0  0  0  0
  9 10  2  0  0  0  0
 10 15  1  0  0  0  0
 11 10  1  0  0  0  0
 12 11  2  0  0  0  0
 13  8  2  0  0  0  0
 13 12  1  0  0  0  0
 14  8  1  0  0  0  0
 16 12  1  0  0  0  0
 17  2  1  0  0  0  0
 18 17  2  0  0  0  0
 19 27  1  0  0  0  0
 20 19  1  0  0  0  0
 20 21  1  0  0  0  0
 21 22  1  0  0  0  0
 22 24  1  0  0  0  0
 22 23  2  0  0  0  0
 24 17  1  1  0  0  0
 25 26  1  1  0  0  0
 25 21  1  0  0  0  0
 25 24  1  0  0  0  0
 26 19  1  0  0  0  0
 27 28  1  0  0  0  0
 29 30  1  0  0  0  0
 29 19  1  0  0  0  0
M  END
>  <minimizedAffinity>
-5.00981331

$$$$

 OpenBabel03242511513D

 30 33  0  0  1  0  0  0  0  0999 V2000
   36.9480   26.7790   42.9230 C   0  0  1  0  0  0  0  0  0  0  0  0
   37.6350   28.0580   43.2200 C   0  0  2  0  0  0  0  0  0  0  0  0
   36.4380   28.0670   42.3740 C   0  0  0  0  0  0  0  0  0  0  0  0
   36.3520   26.3010   43.7210 H   0  0  0  0  0  0  0  0  0  0  0  0
   37.4900   28.3610   44.2970 H   0  0  0  0  0  0  0  0  0  0  0  0
   36.4530   28.1620   41.2850 H   0  0  0  0  0  0  0  0  0  0  0  0
   35.4860   28.5050   42.7950 H   0  0  0  0  0  0  0  0  0  0  0  0
   37.1240   25.6820   40.7050 C   0  0  0  0  0  0  0  0  0  0  0  0
   37.5750   25.7710   42.0230 C   0  0  0  0  0  0  0  0  0  0  0  0
   38.6060   24.9200   42.4490 C   0  0  0  0  0  0  0  0  0  0  0  0
   39.1130   24.0360   41.5270 N   0  0  0  0  0  0  0  0  0  0  0  0
   38.6530   23.9780   40.2620 C   0  0  0  0  0  0  0  0  0  0  0  0
   37.6420   24.8110   39.8380 N   0  0  0  0  0  0  0  0  0  0  0  0
   36.3380   26.3150   40.3360 H   0  0  0  0  0  0  0  0  0  0  0  0
   38.9630   24.9790   43.4640 H   0  0  0  0  0  0  0  0  0  0  0  0
   39.1830   23.2190   39.6960 H   0  0  0  0  0  0  0  0  0  0  0  0
   38.9440   28.3040   42.6090 C   0  0  0  0  0  0  0  0  0  0  0  0
   39.8740   27.9030   43.2500 O   0  0  0  0  0  0  0  0  0  0  0  0
   37.7790   30.9010   39.7740 C   0  0  0  0  0  0  0  0  0  0  0  0
   39.0590   31.4510   40.2140 C   0  0  0  0  0  2  0  0  0  0  0  0
   39.7940   30.5640   41.0070 N   0  0  0  0  0  0  0  0  0  0  0  0
   40.5810   30.0460   42.0370 C   0  0  0  0  0  0  0  0  0  0  0  0
   41.4110   30.4880   42.9010 O   0  0  0  0  0  0  0  0  0  0  0  0
   40.0790   28.6870   41.7590 C   0  0  2  0  0  3  0  0  0  0  0  0
   39.7540   29.2820   40.4170 C   0  0  1  0  0  3  0  0  0  0  0  0
   38.0200   29.1100   39.9170 S   0  0  0  0  0  0  0  0  0  0  0  0
   36.5770   31.3710   40.5500 C   0  0  0  0  0  2  0  0  0  0  0  0
   36.9160   32.1490   41.2910 H   0  0  0  0  0  0  0  0  0  0  0  0
   37.5730   31.1840   38.2840 C   0  0  0  0  0  2  0  0  0  0  0  0
   37.3220   32.2600   38.1460 H   0  0  0  0  0  0  0  0  0  0  0  0
  1  2  1  0  0  0  0
  1  4  1  1  0  0  0
  2  5  1  1  0  0  0
  3  7  1  0  0  0  0
  3  1  1  0  0  0  0
  3  2  1  0  0  0  0
  6  3  1  0  0  0  0
  8  9  1  0  0  0  0
  9 10  2  0  0  0  0
  9  1  1  0  0  0  0
 10 15  1  0  0  0  0
 11 10  1  0  0  0  0
 12 11  2  0  0  0  0
 13 12  1  0  0  0  0
 13  8  2  0  0  0  0
 14  8  1  0  0  0  0
 16 12  1  0  0  0  0
 17  2  1  0  0  0  0
 17 18  2  0  0  0  0
 19 26  1  0  0  0  0
 19 20  1  0  0  0  0
 19 27  1  0  0  0  0
 20 21  1  0  0  0  0
 21 22  1  0  0  0  0
 22 23  2  0  0  0  0
 24 22  1  0  0  0  0
 24 17  1  1  0  0  0
 25 26  1  1  0  0  0
 25 21  1  0  0  0  0
 25 24  1  0  0  0  0
 27 28  1  0  0  0  0
 29 19  1  0  0  0  0
 30 29  1  0  0  0  0
M  END
>  <minimizedAffinity>
-4.91600847

$$$$

 OpenBabel03242511513D

 30 33  0  0  1  0  0  0  0  0999 V2000
   37.4660   27.0590   39.3370 C   0  0  1  0  0  0  0  0  0  0  0  0
   37.8650   26.0430   40.3390 C   0  0  2  0  0  0  0  0  0  0  0  0
   36.5630   25.9230   39.6750 C   0  0  0  0  0  0  0  0  0  0  0  0
   37.9490   27.0400   38.3430 H   0  0  0  0  0  0  0  0  0  0  0  0
   38.6910   25.3820   39.9470 H   0  0  0  0  0  0  0  0  0  0  0  0
   35.6090   26.1910   40.1350 H   0  0  0  0  0  0  0  0  0  0  0  0
   36.4200   25.0920   38.9220 H   0  0  0  0  0  0  0  0  0  0  0  0
   38.0550   29.4610   39.5390 C   0  0  0  0  0  0  0  0  0  0  0  0
   37.1220   28.4460   39.7570 C   0  0  0  0  0  0  0  0  0  0  0  0
   35.8920   28.7680   40.3520 C   0  0  0  0  0  0  0  0  0  0  0  0
   35.6830   30.0840   40.6900 N   0  0  0  0  0  0  0  0  0  0  0  0
   36.6070   31.0380   40.4650 C   0  0  0  0  0  0  0  0  0  0  0  0
   37.8150   30.7270   39.8810 N   0  0  0  0  0  0  0  0  0  0  0  0
   39.0080   29.2600   39.0870 H   0  0  0  0  0  0  0  0  0  0  0  0
   35.1630   27.9930   40.5250 H   0  0  0  0  0  0  0  0  0  0  0  0
   36.2500   32.0050   40.8010 H   0  0  0  0  0  0  0  0  0  0  0  0
   37.9130   26.4380   41.7500 C   0  0  0  0  0  0  0  0  0  0  0  0
   36.9450   26.1270   42.3840 O   0  0  0  0  0  0  0  0  0  0  0  0
   41.8460   26.0400   42.4650 C   0  0  0  0  0  0  0  0  0  0  0  0
   41.5510   27.3710   42.9920 C   0  0  0  0  0  2  0  0  0  0  0  0
   40.1810   27.6240   43.1080 N   0  0  0  0  0  0  0  0  0  0  0  0
   38.9390   28.2590   43.0420 C   0  0  0  0  0  0  0  0  0  0  0  0
   38.4960   29.4550   42.9750 O   0  0  0  0  0  0  0  0  0  0  0  0
   38.2520   26.9540   43.0820 C   0  0  2  0  0  3  0  0  0  0  0  0
   39.5530   26.4960   43.6790 C   0  0  1  0  0  3  0  0  0  0  0  0
   40.3310   25.1060   42.8120 S   0  0  0  0  0  0  0  0  0  0  0  0
   42.2140   25.9950   41.0060 C   0  0  0  0  0  2  0  0  0  0  0  0
   42.2700   27.0520   40.6210 H   0  0  0  0  0  0  0  0  0  0  0  0
   42.9500   25.3830   43.2960 C   0  0  0  0  0  2  0  0  0  0  0  0
   43.9270   25.8550   43.0480 H   0  0  0  0  0  0  0  0  0  0  0  0
  1  4  1  6  0  0  0
  1  3  1  0  0  0  0
  1  9  1  0  0  0  0
  1  2  1  0  0  0  0
  2  5  1  6  0  0  0
  2 17  1  0  0  0  0
  3  6  1  0  0  0  0
  3  2  1  0  0  0  0
  7  3  1  0  0  0  0
  8  9  2  0  0  0  0
  8 13  1  0  0  0  0
  9 10  1  0  0  0  0
 10 15  1  0  0  0  0
 10 11  2  0  0  0  0
 12 11  1  0  0  0  0
 12 16  1  0  0  0  0
 13 12  2  0  0  0  0
 14  8  1  0  0  0  0
 17 18  2  0  0  0  0
 19 26  1  0  0  0  0
 19 20  1  0  0  0  0
 19 29  1  0  0  0  0
 20 21  1  0  0  0  0
 21 25  1  0  0  0  0
 22 24  1  0  0  0  0
 22 21  1  0  0  0  0
 23 22  2  0  0  0  0
 24 17  1  6  0  0  0
 24 25  1  0  0  0  0
 25 26  1  6  0  0  0
 27 19  1  0  0  0  0
 28 27  1  0  0  0  0
 30 29  1  0  0  0  0
M  END
>  <minimizedAffinity>
-4.82094574

$$$$

 OpenBabel03242511513D

 30 33  0  0  1  0  0  0  0  0999 V2000
   38.3870   29.1500   37.8730 C   0  0  1  0  0  0  0  0  0  0  0  0
   37.5820   28.0200   38.3940 C   0  0  2  0  0  0  0  0  0  0  0  0
   37.2460   28.5990   37.0900 C   0  0  0  0  0  0  0  0  0  0  0  0
   39.4040   28.9430   37.4940 H   0  0  0  0  0  0  0  0  0  0  0  0
   38.1680   27.0570   38.3790 H   0  0  0  0  0  0  0  0  0  0  0  0
   36.4110   29.2840   36.9140 H   0  0  0  0  0  0  0  0  0  0  0  0
   37.4590   27.9910   36.1610 H   0  0  0  0  0  0  0  0  0  0  0  0
   39.2230   30.8490   39.4760 C   0  0  0  0  0  0  0  0  0  0  0  0
   38.2930   30.5000   38.4950 C   0  0  0  0  0  0  0  0  0  0  0  0
   37.3130   31.4330   38.1230 C   0  0  0  0  0  0  0  0  0  0  0  0
   37.3290   32.6510   38.7600 N   0  0  0  0  0  0  0  0  0  0  0  0
   38.2430   32.9540   39.7030 C   0  0  0  0  0  0  0  0  0  0  0  0
   39.2060   32.0420   40.0710 N   0  0  0  0  0  0  0  0  0  0  0  0
   39.9900   30.1670   39.7910 H   0  0  0  0  0  0  0  0  0  0  0  0
   36.5890   31.1750   37.3660 H   0  0  0  0  0  0  0  0  0  0  0  0
   38.0850   33.9590   40.0790 H   0  0  0  0  0  0  0  0  0  0  0  0
   36.6940   28.2650   39.5340 C   0  0  0  0  0  0  0  0  0  0  0  0
   35.5400   28.4020   39.2430 O   0  0  0  0  0  0  0  0  0  0  0  0
   39.3840   27.7160   42.4670 C   0  0  0  0  0  0  0  0  0  0  0  0
   38.6590   28.9070   42.9070 C   0  0  0  0  0  2  0  0  0  0  0  0
   37.4850   29.1330   42.1830 N   0  0  0  0  0  0  0  0  0  0  0  0
   36.4720   29.7710   41.4650 C   0  0  0  0  0  0  0  0  0  0  0  0
   36.0120   30.9550   41.3350 O   0  0  0  0  0  0  0  0  0  0  0  0
   36.0790   28.4880   40.8490 C   0  0  2  0  0  3  0  0  0  0  0  0
   36.7920   27.9110   42.0400 C   0  0  1  0  0  3  0  0  0  0  0  0
   38.1100   26.7340   41.6320 S   0  0  0  0  0  0  0  0  0  0  0  0
   40.5680   27.9790   41.5730 C   0  0  0  0  0  2  0  0  0  0  0  0
   40.7090   29.0930   41.4910 H   0  0  0  0  0  0  0  0  0  0  0  0
   39.8260   26.8950   43.6800 C   0  0  0  0  0  2  0  0  0  0  0  0
   40.6800   27.4070   44.1780 H   0  0  0  0  0  0  0  0  0  0  0  0
  1  4  1  6  0  0  0
  1  2  1  0  0  0  0
  1  9  1  0  0  0  0
  2  5  1  6  0  0  0
  2 17  1  0  0  0  0
  3  1  1  0  0  0  0
  3  2  1  0  0  0  0
  6  3  1  0  0  0  0
  7  3  1  0  0  0  0
  8 14  1  0  0  0  0
  8 13  1  0  0  0  0
  9  8  2  0  0  0  0
 10  9  1  0  0  0  0
 10 11  2  0  0  0  0
 11 12  1  0  0  0  0
 12 13  2  0  0  0  0
 12 16  1  0  0  0  0
 15 10  1  0  0  0  0
 18 17  2  0  0  0  0
 19 20  1  0  0  0  0
 19 29  1  0  0  0  0
 21 20  1  0  0  0  0
 22 21  1  0  0  0  0
 23 22  2  0  0  0  0
 24 17  1  6  0  0  0
 24 22  1  0  0  0  0
 24 25  1  0  0  0  0
 25 26  1  6  0  0  0
 25 21  1  0  0  0  0
 26 19  1  0  0  0  0
 27 19  1  0  0  0  0
 28 27  1  0  0  0  0
 29 30  1  0  0  0  0
M  END
>  <minimizedAffinity>
-4.81522751

$$$$

 OpenBabel03242511513D

 30 33  0  0  1  0  0  0  0  0999 V2000
   40.2450   26.0960   40.6200 C   0  0  1  0  0  0  0  0  0  0  0  0
   40.5450   27.1480   41.6200 C   0  0  2  0  0  0  0  0  0  0  0  0
   41.2500   25.8650   41.6960 C   0  0  0  0  0  0  0  0  0  0  0  0
   40.6280   26.2200   39.5910 H   0  0  0  0  0  0  0  0  0  0  0  0
   41.1120   28.0050   41.1560 H   0  0  0  0  0  0  0  0  0  0  0  0
   41.0130   25.0710   42.4090 H   0  0  0  0  0  0  0  0  0  0  0  0
   42.3470   25.8380   41.4260 H   0  0  0  0  0  0  0  0  0  0  0  0
   37.8920   25.8760   39.8640 C   0  0  0  0  0  0  0  0  0  0  0  0
   38.9400   25.3780   40.6410 C   0  0  0  0  0  0  0  0  0  0  0  0
   38.7310   24.2190   41.4040 C   0  0  0  0  0  0  0  0  0  0  0  0
   37.4880   23.6370   41.3370 N   0  0  0  0  0  0  0  0  0  0  0  0
   36.4990   24.1460   40.5760 C   0  0  0  0  0  0  0  0  0  0  0  0
   36.6980   25.2830   39.8260 N   0  0  0  0  0  0  0  0  0  0  0  0
   38.0080   26.7590   39.2650 H   0  0  0  0  0  0  0  0  0  0  0  0
   39.5330   23.8240   42.0070 H   0  0  0  0  0  0  0  0  0  0  0  0
   35.6020   23.5430   40.6610 H   0  0  0  0  0  0  0  0  0  0  0  0
   39.5270   27.4630   42.6260 C   0  0  0  0  0  0  0  0  0  0  0  0
   39.6850   26.9150   43.6800 O   0  0  0  0  0  0  0  0  0  0  0  0
   37.5030   30.2240   40.5240 C   0  0  0  0  0  0  0  0  0  0  0  0
   36.4370   29.4310   41.1320 C   0  0  0  0  0  2  0  0  0  0  0  0
   36.8960   28.5750   42.1380 N   0  0  0  0  0  0  0  0  0  0  0  0
   37.0870   27.4400   42.9280 C   0  0  0  0  0  0  0  0  0  0  0  0
   36.4600   26.3600   43.1910 O   0  0  0  0  0  0  0  0  0  0  0  0
   38.3830   27.9670   43.3980 C   0  0  2  0  0  3  0  0  0  0  0  0
   37.7960   29.2810   42.9660 C   0  0  1  0  0  3  0  0  0  0  0  0
   38.8100   30.2060   41.7800 S   0  0  0  0  0  0  0  0  0  0  0  0
   37.9960   29.7230   39.1920 C   0  0  0  0  0  2  0  0  0  0  0  0
   37.3570   28.8490   38.8840 H   0  0  0  0  0  0  0  0  0  0  0  0
   37.0600   31.6830   40.3940 C   0  0  0  0  0  2  0  0  0  0  0  0
   36.3240   31.7710   39.5630 H   0  0  0  0  0  0  0  0  0  0  0  0
  1  4  1  6  0  0  0
  1  9  1  0  0  0  0
  1  2  1  0  0  0  0
  1  3  1  0  0  0  0
  2  5  1  6  0  0  0
  2  3  1  0  0  0  0
  2 17  1  0  0  0  0
  3  6  1  0  0  0  0
  7  3  1  0  0  0  0
  8  9  1  0  0  0  0
  9 10  2  0  0  0  0
 10 15  1  0  0  0  0
 11 10  1  0  0  0  0
 12 16  1  0  0  0  0
 12 11  2  0  0  0  0
 13  8  2  0  0  0  0
 13 12  1  0  0  0  0
 14  8  1  0  0  0  0
 17 18  2  0  0  0  0
 19 20  1  0  0  0  0
 19 26  1  0  0  0  0
 20 21  1  0  0  0  0
 21 22  1  0  0  0  0
 21 25  1  0  0  0  0
 22 23  2  0  0  0  0
 22 24  1  0  0  0  0
 24 17  1  6  0  0  0
 25 26  1  6  0  0  0
 25 24  1  0  0  0  0
 27 19  1  0  0  0  0
 28 27  1  0  0  0  0
 29 19  1  0  0  0  0
 30 29  1  0  0  0  0
M  END
>  <minimizedAffinity>
-4.74854994

$$$$

 OpenBabel03242511513D

 30 33  0  0  1  0  0  0  0  0999 V2000
   38.6590   31.1650   38.3450 C   0  0  1  0  0  0  0  0  0  0  0  0
   37.5580   30.4550   39.0390 C   0  0  2  0  0  0  0  0  0  0  0  0
   37.2590   31.6710   38.2760 C   0  0  0  0  0  0  0  0  0  0  0  0
   39.0790   30.7190   37.4260 H   0  0  0  0  0  0  0  0  0  0  0  0
   37.3200   29.4750   38.5340 H   0  0  0  0  0  0  0  0  0  0  0  0
   37.0820   32.6520   38.7230 H   0  0  0  0  0  0  0  0  0  0  0  0
   36.6850   31.5690   37.3070 H   0  0  0  0  0  0  0  0  0  0  0  0
   39.3420   33.1320   39.6930 C   0  0  0  0  0  0  0  0  0  0  0  0
   39.6910   31.9080   39.1210 C   0  0  0  0  0  0  0  0  0  0  0  0
   40.9930   31.4170   39.3040 C   0  0  0  0  0  0  0  0  0  0  0  0
   41.8560   32.1870   40.0460 N   0  0  0  0  0  0  0  0  0  0  0  0
   41.4850   33.3640   40.5840 C   0  0  0  0  0  0  0  0  0  0  0  0
   40.2080   33.8500   40.4080 N   0  0  0  0  0  0  0  0  0  0  0  0
   38.3570   33.5450   39.5800 H   0  0  0  0  0  0  0  0  0  0  0  0
   41.2740   30.4730   38.8670 H   0  0  0  0  0  0  0  0  0  0  0  0
   42.3080   33.8130   41.1300 H   0  0  0  0  0  0  0  0  0  0  0  0
   37.5130   30.5020   40.5030 C   0  0  0  0  0  0  0  0  0  0  0  0
   36.7140   31.2760   40.9500 O   0  0  0  0  0  0  0  0  0  0  0  0
   37.8450   26.6040   41.4160 C   0  0  0  0  0  0  0  0  0  0  0  0
   38.8710   27.2240   42.2520 C   0  0  0  0  0  2  0  0  0  0  0  0
   38.7600   28.6160   42.3150 N   0  0  0  0  0  0  0  0  0  0  0  0
   39.0860   29.9730   42.3170 C   0  0  0  0  0  0  0  0  0  0  0  0
   40.1180   30.6940   42.5330 O   0  0  0  0  0  0  0  0  0  0  0  0
   37.7000   30.3230   41.9490 C   0  0  2  0  0  3  0  0  0  0  0  0
   37.4050   28.9590   42.5100 C   0  0  1  0  0  3  0  0  0  0  0  0
   36.5300   27.8510   41.3720 S   0  0  0  0  0  0  0  0  0  0  0  0
   38.2940   26.2110   40.0340 C   0  0  0  0  0  2  0  0  0  0  0  0
   39.4000   26.4070   39.9510 H   0  0  0  0  0  0  0  0  0  0  0  0
   37.2530   25.3880   42.1310 C   0  0  0  0  0  2  0  0  0  0  0  0
   37.9860   24.5510   42.1010 H   0  0  0  0  0  0  0  0  0  0  0  0
  1  4  1  6  0  0  0
  1  2  1  0  0  0  0
  1  9  1  0  0  0  0
  2  5  1  6  0  0  0
  2 17  1  0  0  0  0
  3  1  1  0  0  0  0
  3  6  1  0  0  0  0
  3  2  1  0  0  0  0
  7  3  1  0  0  0  0
  8 13  1  0  0  0  0
  9 10  1  0  0  0  0
  9  8  2  0  0  0  0
 10 11  2  0  0  0  0
 11 12  1  0  0  0  0
 12 16  1  0  0  0  0
 13 12  2  0  0  0  0
 14  8  1  0  0  0  0
 15 10  1  0  0  0  0
 17 18  2  0  0  0  0
 19 29  1  0  0  0  0
 19 20  1  0  0  0  0
 20 21  1  0  0  0  0
 21 22  1  0  0  0  0
 21 25  1  0  0  0  0
 22 23  2  0  0  0  0
 24 17  1  6  0  0  0
 24 22  1  0  0  0  0
 24 25  1  0  0  0  0
 25 26  1  6  0  0  0
 26 19  1  0  0  0  0
 27 19  1  0  0  0  0
 28 27  1  0  0  0  0
 30 29  1  0  0  0  0
M  END
>  <minimizedAffinity>
-4.73992872

$$$$

 OpenBabel03242511513D

 30 33  0  0  1  0  0  0  0  0999 V2000
   35.7160   29.6950   40.3620 C   0  0  1  0  0  0  0  0  0  0  0  0
   36.1800   29.8500   38.9630 C   0  0  2  0  0  0  0  0  0  0  0  0
   35.0950   28.9090   39.2590 C   0  0  0  0  0  0  0  0  0  0  0  0
   35.1080   30.5020   40.8100 H   0  0  0  0  0  0  0  0  0  0  0  0
   35.8760   30.8490   38.5390 H   0  0  0  0  0  0  0  0  0  0  0  0
   35.2160   27.8250   39.3160 H   0  0  0  0  0  0  0  0  0  0  0  0
   34.0490   29.1720   38.9190 H   0  0  0  0  0  0  0  0  0  0  0  0
   37.4140   29.8060   42.1680 C   0  0  0  0  0  0  0  0  0  0  0  0
   36.5740   29.0210   41.3770 C   0  0  0  0  0  0  0  0  0  0  0  0
   36.5580   27.6310   41.5710 C   0  0  0  0  0  0  0  0  0  0  0  0
   37.3860   27.1230   42.5430 N   0  0  0  0  0  0  0  0  0  0  0  0
   38.1850   27.9110   43.2880 C   0  0  0  0  0  0  0  0  0  0  0  0
   38.2040   29.2750   43.1020 N   0  0  0  0  0  0  0  0  0  0  0  0
   37.4570   30.8730   42.0540 H   0  0  0  0  0  0  0  0  0  0  0  0
   35.9120   27.0140   40.9670 H   0  0  0  0  0  0  0  0  0  0  0  0
   38.7560   27.3190   43.9950 H   0  0  0  0  0  0  0  0  0  0  0  0
   37.5010   29.3250   38.6060 C   0  0  0  0  0  0  0  0  0  0  0  0
   37.4820   28.2430   38.0910 O   0  0  0  0  0  0  0  0  0  0  0  0
   39.6850   32.5010   39.7400 C   0  0  0  0  0  0  0  0  0  0  0  0
   40.4740   31.3710   40.2280 C   0  0  0  0  0  2  0  0  0  0  0  0
   40.0530   30.1440   39.7070 N   0  0  0  0  0  0  0  0  0  0  0  0
   39.6830   28.8010   39.6110 C   0  0  0  0  0  0  0  0  0  0  0  0
   39.8700   27.7230   40.2700 O   0  0  0  0  0  0  0  0  0  0  0  0
   38.9310   29.0810   38.3730 C   0  0  2  0  0  3  0  0  0  0  0  0
   39.8270   30.2860   38.3210 C   0  0  1  0  0  3  0  0  0  0  0  0
   38.9530   31.8710   38.2060 S   0  0  0  0  0  0  0  0  0  0  0  0
   38.6380   33.0120   40.6950 C   0  0  0  0  0  2  0  0  0  0  0  0
   38.7370   32.4480   41.6650 H   0  0  0  0  0  0  0  0  0  0  0  0
   40.6110   33.6470   39.3300 C   0  0  0  0  0  2  0  0  0  0  0  0
   41.0160   34.1380   40.2430 H   0  0  0  0  0  0  0  0  0  0  0  0
  1  4  1  1  0  0  0
  1  9  1  0  0  0  0
  2  5  1  6  0  0  0
  2  3  1  0  0  0  0
  2  1  1  0  0  0  0
  3  6  1  0  0  0  0
  3  1  1  0  0  0  0
  7  3  1  0  0  0  0
  8 13  1  0  0  0  0
  9 10  1  0  0  0  0
  9  8  2  0  0  0  0
 10 11  2  0  0  0  0
 11 12  1  0  0  0  0
 12 16  1  0  0  0  0
 13 12  2  0  0  0  0
 14  8  1  0  0  0  0
 15 10  1  0  0  0  0
 17  2  1  0  0  0  0
 18 17  2  0  0  0  0
 19 20  1  0  0  0  0
 19 27  1  0  0  0  0
 21 20  1  0  0  0  0
 22 21  1  0  0  0  0
 22 23  2  0  0  0  0
 24 17  1  1  0  0  0
 24 22  1  0  0  0  0
 25 26  1  1  0  0  0
 25 24  1  0  0  0  0
 25 21  1  0  0  0  0
 26 19  1  0  0  0  0
 27 28  1  0  0  0  0
 29 19  1  0  0  0  0
 29 30  1  0  0  0  0
M  END
>  <minimizedAffinity>
-4.7243166

$$$$

 OpenBabel03242511513D

 30 33  0  0  1  0  0  0  0  0999 V2000
   35.7950   28.0940   39.7010 C   0  0  1  0  0  0  0  0  0  0  0  0
   35.7620   28.6820   41.0610 C   0  0  2  0  0  0  0  0  0  0  0  0
   34.8870   29.2310   40.0200 C   0  0  0  0  0  0  0  0  0  0  0  0
   35.3270   27.1060   39.5400 H   0  0  0  0  0  0  0  0  0  0  0  0
   35.2810   27.9790   41.8000 H   0  0  0  0  0  0  0  0  0  0  0  0
   35.0790   30.1630   39.4810 H   0  0  0  0  0  0  0  0  0  0  0  0
   33.7750   29.0420   40.0980 H   0  0  0  0  0  0  0  0  0  0  0  0
   37.0290   29.4510   38.0310 C   0  0  0  0  0  0  0  0  0  0  0  0
   36.9740   28.2970   38.8140 C   0  0  0  0  0  0  0  0  0  0  0  0
   38.0330   27.3780   38.7470 C   0  0  0  0  0  0  0  0  0  0  0  0
   39.0730   27.6770   37.9000 N   0  0  0  0  0  0  0  0  0  0  0  0
   39.0920   28.8010   37.1580 C   0  0  0  0  0  0  0  0  0  0  0  0
   38.0560   29.7060   37.2190 N   0  0  0  0  0  0  0  0  0  0  0  0
   36.2420   30.1810   38.0510 H   0  0  0  0  0  0  0  0  0  0  0  0
   38.0030   26.4830   39.3480 H   0  0  0  0  0  0  0  0  0  0  0  0
   39.9950   28.8490   36.5590 H   0  0  0  0  0  0  0  0  0  0  0  0
   36.9160   29.4650   41.5090 C   0  0  0  0  0  0  0  0  0  0  0  0
   36.7810   30.6510   41.4070 O   0  0  0  0  0  0  0  0  0  0  0  0
   39.2910   26.3990   42.5590 C   0  0  0  0  0  0  0  0  0  0  0  0
   40.2140   27.3120   41.8880 C   0  0  0  0  0  2  0  0  0  0  0  0
   39.6710   28.5830   41.6770 N   0  0  0  0  0  0  0  0  0  0  0  0
   39.3130   29.7880   41.0690 C   0  0  0  0  0  0  0  0  0  0  0  0
   39.7190   30.5090   40.0970 O   0  0  0  0  0  0  0  0  0  0  0  0
   38.2010   29.9570   42.0240 C   0  0  2  0  0  3  0  0  0  0  0  0
   39.0130   29.0020   42.8530 C   0  0  1  0  0  3  0  0  0  0  0  0
   38.1200   27.5140   43.3790 S   0  0  0  0  0  0  0  0  0  0  0  0
   38.5940   25.4140   41.6580 C   0  0  0  0  0  2  0  0  0  0  0  0
   39.0070   25.5320   40.6170 H   0  0  0  0  0  0  0  0  0  0  0  0
   40.0180   25.6500   43.6780 C   0  0  0  0  0  2  0  0  0  0  0  0
   40.6830   24.8780   43.2310 H   0  0  0  0  0  0  0  0  0  0  0  0
  1  4  1  6  0  0  0
  1  3  1  0  0  0  0
  1  2  1  0  0  0  0
  2 17  1  0  0  0  0
  2  5  1  1  0  0  0
  3  7  1  0  0  0  0
  3  2  1  0  0  0  0
  6  3  1  0  0  0  0
  8 14  1  0  0  0  0
  8  9  1  0  0  0  0
  9  1  1  0  0  0  0
 10  9  2  0  0  0  0
 10 15  1  0  0  0  0
 11 10  1  0  0  0  0
 12 13  1  0  0  0  0
 12 11  2  0  0  0  0
 13  8  2  0  0  0  0
 16 12  1  0  0  0  0
 18 17  2  0  0  0  0
 19 26  1  0  0  0  0
 19 29  1  0  0  0  0
 20 19  1  0  0  0  0
 21 20  1  0  0  0  0
 21 25  1  0  0  0  0
 22 21  1  0  0  0  0
 22 24  1  0  0  0  0
 23 22  2  0  0  0  0
 24 17  1  6  0  0  0
 24 25  1  0  0  0  0
 25 26  1  6  0  0  0
 27 19  1  0  0  0  0
 28 27  1  0  0  0  0
 30 29  1  0  0  0  0
M  END
>  <minimizedAffinity>
-4.70779228

$$$$
