
 OpenBabel03252503563D

 23 26  0  0  1  0  0  0  0  0999 V2000
   46.7170   32.6900   45.8490 C   0  0  0  0  0  2  0  0  0  0  0  0
   46.5770   31.2750   45.3490 C   0  0  2  0  0  0  0  0  0  0  0  0
   46.3850   30.3180   46.4790 C   0  0  0  0  0  2  0  0  0  0  0  0
   47.6100   29.6460   46.7530 N   0  0  2  0  0  0  0  0  0  0  0  0
   48.7440   29.0840   47.3970 C   0  0  2  0  0  0  0  0  0  0  0  0
   49.1270   28.7640   48.5500 O   0  0  0  0  0  1  0  0  0  0  0  0
   49.5170   28.9380   46.1360 C   0  0  0  0  0  3  0  0  0  0  0  0
   49.9650   27.9520   45.9530 H   0  0  0  0  0  0  0  0  0  0  0  0
   48.1560   29.1410   45.5210 C   0  0  1  0  0  0  0  0  0  0  0  0
   48.0520   30.6650   44.4970 S   0  0  0  0  0  0  0  0  0  0  0  0
   45.4060   31.0960   44.4070 C   0  0  0  0  0  2  0  0  0  0  0  0
   45.7020   31.2360   43.3630 H   0  0  0  0  0  0  0  0  0  0  0  0
   46.8450   34.7640   42.8340 C   0  0  0  0  0  0  0  0  0  0  0  0
   45.6810   35.5300   42.8930 C   0  0  0  0  0  0  0  0  0  0  0  0
   44.8410   35.3200   44.0000 C   0  0  0  0  0  0  0  0  0  0  0  0
   45.2120   34.3960   44.9290 N   0  0  0  0  0  0  0  0  0  0  0  0
   46.3570   33.6780   44.8210 C   0  0  0  0  0  0  0  0  0  0  0  0
   47.1570   33.8740   43.7730 N   0  0  0  0  0  0  0  0  0  0  0  0
   45.3910   36.2590   42.1590 H   0  0  0  0  0  0  0  0  0  0  0  0
   43.9260   35.8750   44.1130 H   0  0  0  0  0  0  0  0  0  0  0  0
   47.6640   35.0200   41.6850 C   0  0  0  0  0  0  0  0  0  0  0  0
   48.6570   35.7960   41.6190 O   0  0  0  0  0  0  0  0  0  0  0  0
   47.4720   34.5280   40.7190 H   0  0  0  0  0  0  0  0  0  0  0  0
  2 11  1  6  0  0  0
  2  1  1  0  0  0  0
  2  3  1  0  0  0  0
  4  3  1  6  0  0  0
  4  5  1  0  0  0  0
  5  6  1  1  0  0  0
  7  5  1  0  0  0  0
  8  7  1  0  0  0  0
  9 10  1  1  0  0  0
  9  7  1  0  0  0  0
  9  4  1  0  0  0  0
  9  5  1  0  0  0  0
 10  2  1  0  0  0  0
 12 11  1  0  0  0  0
 13 14  2  0  0  0  0
 13 18  1  0  0  0  0
 14 15  1  0  0  0  0
 15 20  1  0  0  0  0
 15 16  2  0  0  0  0
 17 16  1  0  0  0  0
 17  1  1  0  0  0  0
 18 17  2  0  0  0  0
 19 14  1  0  0  0  0
 21 13  1  0  0  0  0
 22 21  2  0  0  0  0
 23 21  1  0  0  0  0
M  END
>  <minimizedAffinity>
-3.9399395

>  <minimizedRMSD>
0.878358543

$$$$
