
 OpenBabel03242520563D

 44 47  0  0  1  0  0  0  0  0999 V2000
   51.1720   32.1040   51.1360 C   0  0  0  0  0  0  0  0  0  0  0  0
   51.3140   30.9290   51.8730 C   0  0  0  0  0  0  0  0  0  0  0  0
   50.5180   29.8240   51.4980 C   0  0  0  0  0  0  0  0  0  0  0  0
   49.6730   29.9820   50.4580 N   0  0  0  0  0  0  0  0  0  0  0  0
   49.5650   31.1380   49.7750 C   0  0  0  0  0  0  0  0  0  0  0  0
   50.3230   32.2190   50.1110 N   0  0  0  0  0  0  0  0  0  0  0  0
   51.7110   32.9850   51.3120 H   0  0  0  0  0  0  0  0  0  0  0  0
   48.6140   31.2640   48.6780 C   0  0  0  0  0  3  0  0  0  0  0  0
   47.5470   32.0420   48.7510 C   0  0  0  0  0  3  0  0  0  0  0  0
   46.6070   32.1210   47.5930 C   0  0  0  0  0  0  0  0  0  0  0  0
   45.6070   32.3930   47.9840 H   0  0  0  0  0  0  0  0  0  0  0  0
   46.5200   31.0840   47.2450 H   0  0  0  0  0  0  0  0  0  0  0  0
   46.6280   32.7330   45.3450 C   0  0  0  0  0  0  0  0  0  0  0  0
   45.9860   31.7710   44.8350 O   0  0  0  0  0  0  0  0  0  0  0  0
   47.0130   33.0860   46.6350 N   0  0  0  0  0  0  0  0  0  0  0  0
   47.5230   33.9570   46.7910 H   0  0  0  0  0  0  0  0  0  0  0  0
   44.8960   35.0850   44.4780 Cl  0  0  0  0  0  0  0  0  0  0  0  0
   46.2910   34.5760   43.5670 C   0  0  0  0  0  0  0  0  0  0  0  0
   46.9260   33.5020   44.1260 C   0  0  0  0  0  0  0  0  0  0  0  0
   48.0670   32.9610   43.5140 C   0  0  0  0  0  0  0  0  0  0  0  0
   48.5750   33.4910   42.3450 C   0  0  0  0  0  0  0  0  0  0  0  0
   47.9190   34.5790   41.7930 C   0  0  0  0  0  0  0  0  0  0  0  0
   48.4750   35.3400   40.3190 Cl  0  0  0  0  0  0  0  0  0  0  0  0
   46.8020   35.1020   42.4000 C   0  0  0  0  0  0  0  0  0  0  0  0
   48.6500   32.1150   43.8520 H   0  0  0  0  0  0  0  0  0  0  0  0
   49.4400   33.1280   41.8190 H   0  0  0  0  0  0  0  0  0  0  0  0
   46.2380   35.9590   42.0280 H   0  0  0  0  0  0  0  0  0  0  0  0
   50.5650   28.6080   52.1210 O   0  0  0  0  0  0  0  0  0  0  0  0
   51.4800   27.6400   51.5500 C   0  0  0  0  0  0  0  0  0  0  0  0
   52.1320   28.2020   50.4470 F   0  0  0  0  0  0  0  0  0  0  0  0
   52.4590   27.3530   52.5000 F   0  0  0  0  0  0  0  0  0  0  0  0
   50.8470   26.4530   51.1980 F   0  0  0  0  0  0  0  0  0  0  0  0
   52.1060   30.8460   53.0880 C   0  0  0  0  0  2  0  0  0  0  0  0
   53.5550   31.1540   53.1210 C   0  0  1  0  0  0  0  0  0  0  0  0
   53.9950   32.5600   53.0150 C   0  0  0  0  0  2  0  0  0  0  0  0
   54.3710   33.0860   54.3010 N   0  0  0  0  0  0  0  0  0  0  0  0
   54.5070   33.9480   55.4270 C   0  0  0  0  0  0  0  0  0  0  0  0
   54.3440   35.1840   55.6450 O   0  0  0  0  0  0  0  0  0  0  0  0
   54.9380   32.8640   56.3480 C   0  0  0  0  0  3  0  0  0  0  0  0
   54.0770   32.4810   56.9120 H   0  0  0  0  0  0  0  0  0  0  0  0
   55.2070   32.1380   55.0620 C   0  0  1  0  0  3  0  0  0  0  0  0
   54.1690   30.6480   54.7790 S   0  0  0  0  0  0  0  0  0  0  0  0
   54.2900   30.2540   52.1200 C   0  0  0  0  0  2  0  0  0  0  0  0
   55.3230   29.9980   52.5660 H   0  0  0  0  0  0  0  0  0  0  0  0
  1  7  1  0  0  0  0
  1  2  1  0  0  0  0
  2 33  1  0  0  0  0
  3  2  2  0  0  0  0
  3 28  1  0  0  0  0
  4  3  1  0  0  0  0
  5  6  1  0  0  0  0
  5  4  2  0  0  0  0
  6  1  2  0  0  0  0
  8  9  2  0  0  0  0
  8  5  1  0  0  0  0
 10 11  1  0  0  0  0
 10  9  1  0  0  0  0
 12 10  1  0  0  0  0
 13 15  1  0  0  0  0
 14 13  2  0  0  0  0
 15 16  1  0  0  0  0
 15 10  1  0  0  0  0
 18 19  1  0  0  0  0
 18 17  1  0  0  0  0
 19 13  1  0  0  0  0
 20 25  1  0  0  0  0
 20 19  2  0  0  0  0
 21 20  1  0  0  0  0
 22 21  2  0  0  0  0
 22 24  1  0  0  0  0
 23 22  1  0  0  0  0
 24 18  2  0  0  0  0
 26 21  1  0  0  0  0
 27 24  1  0  0  0  0
 29 28  1  0  0  0  0
 29 31  1  0  0  0  0
 30 29  1  0  0  0  0
 32 29  1  0  0  0  0
 33 34  1  0  0  0  0
 34 43  1  6  0  0  0
 34 42  1  0  0  0  0
 35 34  1  0  0  0  0
 35 36  1  0  0  0  0
 36 41  1  0  0  0  0
 36 37  1  0  0  0  0
 37 38  2  0  0  0  0
 37 39  1  0  0  0  0
 39 40  1  0  0  0  0
 41 42  1  1  0  0  0
 41 39  1  0  0  0  0
 43 44  1  0  0  0  0
M  END
>  <minimizedAffinity>
-7.09447145

>  <minimizedRMSD>
0.577424109

$$$$
