
 OpenBabel03252508513D

 31 34  0  0  1  0  0  0  0  0999 V2000
   45.8170   34.0600   41.0280 C   0  0  0  0  0  0  0  0  0  0  0  0
   46.4380   34.7430   42.0730 C   0  0  0  0  0  0  0  0  0  0  0  0
   47.7630   35.1410   41.8780 C   0  0  0  0  0  0  0  0  0  0  0  0
   48.3610   34.8400   40.6910 N   0  0  0  0  0  0  0  0  0  0  0  0
   47.7280   34.1820   39.7120 C   0  0  0  0  0  0  0  0  0  0  0  0
   46.4480   33.7910   39.8850 N   0  0  0  0  0  0  0  0  0  0  0  0
   48.2390   35.6630   42.6740 H   0  0  0  0  0  0  0  0  0  0  0  0
   48.1850   33.9350   38.7620 H   0  0  0  0  0  0  0  0  0  0  0  0
   45.6970   35.0110   43.3060 C   0  0  0  0  0  0  0  0  0  0  0  0
   45.0070   36.1950   43.5250 C   0  0  0  0  0  0  0  0  0  0  0  0
   44.4700   36.0220   44.7840 C   0  0  0  0  0  0  0  0  0  0  0  0
   44.8110   34.8150   45.2970 N   0  0  0  0  0  0  0  0  0  0  0  0
   45.5510   34.2280   44.3820 N   0  0  0  0  0  0  0  0  0  0  0  0
   44.8900   37.0760   42.8840 H   0  0  0  0  0  0  0  0  0  0  0  0
   43.8510   36.7450   45.3190 H   0  0  0  0  0  0  0  0  0  0  0  0
   44.5140   34.4740   46.2390 H   0  0  0  0  0  0  0  0  0  0  0  0
   44.5120   33.6600   41.2010 O   0  0  0  0  0  0  0  0  0  0  0  0
   43.3990   34.2190   40.6410 C   0  0  0  0  0  0  0  0  0  0  0  0
   43.1390   35.4560   40.4890 O   0  0  0  0  0  0  0  0  0  0  0  0
   38.8680   31.8470   40.2950 C   0  0  0  0  0  0  0  0  0  0  0  0
   38.7780   33.3380   40.5450 C   0  0  0  0  0  0  0  0  0  0  0  0
   40.0830   33.8970   40.2380 N   0  0  0  0  0  0  0  0  0  0  0  0
   41.1530   34.6830   39.6730 C   0  0  0  0  0  0  0  0  0  0  0  0
   41.0730   35.8290   39.1130 O   0  0  0  0  0  0  0  0  0  0  0  0
   42.1430   33.6370   40.0340 C   0  0  2  0  0  0  0  0  0  0  0  0
   41.1060   33.2510   41.0400 C   0  0  2  0  0  0  0  0  0  0  0  0
   40.5600   31.5140   40.9250 S   0  0  0  0  0  0  0  0  0  0  0  0
   37.8440   31.1070   41.1240 C   0  0  0  0  0  0  0  0  0  0  0  0
   36.9180   31.7060   41.2420 H   0  0  0  0  0  0  0  0  0  0  0  0
   38.7150   31.4750   38.8520 C   0  0  0  0  0  0  0  0  0  0  0  0
   39.6370   31.5830   38.2480 H   0  0  0  0  0  0  0  0  0  0  0  0
  1 17  1  0  0  0  0
  1  2  1  0  0  0  0
  2  9  1  0  0  0  0
  3  2  2  0  0  0  0
  3  7  1  0  0  0  0
  4  3  1  0  0  0  0
  5  6  1  0  0  0  0
  5  4  2  0  0  0  0
  6  1  2  0  0  0  0
  8  5  1  0  0  0  0
  9 10  1  0  0  0  0
  9 13  2  0  0  0  0
 10 11  2  0  0  0  0
 11 12  1  0  0  0  0
 11 15  1  0  0  0  0
 12 16  1  0  0  0  0
 13 12  1  0  0  0  0
 14 10  1  0  0  0  0
 18 17  1  0  0  0  0
 19 18  2  0  0  0  0
 20 21  1  0  0  0  0
 20 27  1  0  0  0  0
 20 28  1  0  0  0  0
 22 21  1  0  0  0  0
 22 26  1  0  0  0  0
 23 25  1  0  0  0  0
 23 22  1  0  0  0  0
 24 23  2  0  0  0  0
 25 18  1  1  0  0  0
 25 26  1  0  0  0  0
 26 27  1  6  0  0  0
 28 29  1  0  0  0  0
 30 20  1  0  0  0  0
 31 30  1  0  0  0  0
M  END
>  <minimizedAffinity>
-6.43187857

>  <minimizedRMSD>
1.24827135

$$$$
