
 OpenBabel03242523543D

 48 52  0  0  1  0  0  0  0  0999 V2000
   42.8020   34.4870   38.7580 C   0  0  1  0  0  0  0  0  0  0  0  0
   42.9750   35.1760   40.1070 C   0  0  1  0  0  0  0  0  0  0  0  0
   41.6970   35.4450   40.6320 O   0  0  0  0  0  0  0  0  0  0  0  0
   40.7750   35.7960   39.6450 C   0  0  0  0  0  0  0  0  0  0  0  0
   40.4240   34.6190   38.7560 C   0  0  2  0  0  0  0  0  0  0  0  0
   41.6090   33.5970   38.8900 C   0  0  1  0  0  0  0  0  0  0  0  0
   43.6730   33.8350   38.5330 H   0  0  0  0  0  0  0  0  0  0  0  0
   43.5880   36.0780   40.0590 H   0  0  0  0  0  0  0  0  0  0  0  0
   41.0820   36.6860   39.0590 H   0  0  0  0  0  0  0  0  0  0  0  0
   39.8650   36.0860   40.1840 H   0  0  0  0  0  0  0  0  0  0  0  0
   39.4790   34.1240   39.0360 H   0  0  0  0  0  0  0  0  0  0  0  0
   41.3960   33.3190   39.9720 H   0  0  0  0  0  0  0  0  0  0  0  0
   42.6060   35.4310   37.7420 O   0  0  0  0  0  0  0  0  0  0  0  0
   43.2640   35.3740   37.0190 H   0  0  0  0  0  0  0  0  0  0  0  0
   40.4400   35.0230   37.4270 O   0  0  0  0  0  0  0  0  0  0  0  0
   40.3590   35.9840   37.3130 H   0  0  0  0  0  0  0  0  0  0  0  0
   43.4880   34.1820   40.9610 O   0  0  0  0  0  0  0  0  0  0  0  0
   44.5990   34.3110   41.6950 C   0  0  0  0  0  0  0  0  0  0  0  0
   45.8590   34.4300   41.0900 C   0  0  0  0  0  0  0  0  0  0  0  0
   46.9740   34.5620   41.9030 C   0  0  0  0  0  0  0  0  0  0  0  0
   46.8150   34.5720   43.2760 N   0  0  0  0  0  0  0  0  0  0  0  0
   45.5830   34.4540   43.8260 C   0  0  0  0  0  0  0  0  0  0  0  0
   44.4830   34.3240   43.0400 N   0  0  0  0  0  0  0  0  0  0  0  0
   45.9860   34.4220   40.0270 H   0  0  0  0  0  0  0  0  0  0  0  0
   45.4590   34.4630   44.8990 H   0  0  0  0  0  0  0  0  0  0  0  0
   48.3510   34.6750   41.3350 C   0  0  0  0  0  0  0  0  0  0  0  0
   49.0610   36.0170   41.5160 C   0  0  0  0  0  0  0  0  0  0  0  0
   49.5030   34.6940   42.1760 C   0  0  0  0  0  0  0  0  0  0  0  0
   48.4070   34.2460   40.3010 H   0  0  0  0  0  0  0  0  0  0  0  0
   48.5420   36.7620   42.1370 H   0  0  0  0  0  0  0  0  0  0  0  0
   49.7010   36.3920   40.6980 H   0  0  0  0  0  0  0  0  0  0  0  0
   49.4340   34.7180   43.2830 H   0  0  0  0  0  0  0  0  0  0  0  0
   50.4920   34.3250   41.8350 H   0  0  0  0  0  0  0  0  0  0  0  0
   41.4440   32.6590   37.9360 O   0  0  0  0  0  0  0  0  0  0  0  0
   40.4870   31.7070   37.8500 C   0  0  0  0  0  0  0  0  0  0  0  0
   39.2140   32.0040   37.9240 O   0  0  0  0  0  0  0  0  0  0  0  0
   43.7220   29.9570   37.0050 C   0  0  0  0  0  0  0  0  0  0  0  0
   42.8190   29.2480   36.0410 C   0  0  0  0  0  2  0  0  0  0  0  0
   41.4680   29.4870   36.4270 N   0  0  0  0  0  0  0  0  0  0  0  0
   40.0920   29.8100   36.2810 C   0  0  0  0  0  0  0  0  0  0  0  0
   39.2120   29.7450   35.3740 O   0  0  0  0  0  0  0  0  0  0  0  0
   40.0800   30.2800   37.6880 C   0  0  1  0  0  3  0  0  0  0  0  0
   41.2390   29.3250   37.8230 C   0  0  2  0  0  3  0  0  0  0  0  0
   42.7380   30.1100   38.5230 S   0  0  0  0  0  0  0  0  0  0  0  0
   44.2900   31.2460   36.5240 C   0  0  0  0  0  2  0  0  0  0  0  0
   43.8720   31.5810   35.5530 H   0  0  0  0  0  0  0  0  0  0  0  0
   44.8320   28.9520   37.3390 C   0  0  0  0  0  2  0  0  0  0  0  0
   45.2220   29.1150   38.3760 H   0  0  0  0  0  0  0  0  0  0  0  0
  1  7  1  6  0  0  0
  1  6  1  0  0  0  0
  1  2  1  0  0  0  0
  2  8  1  6  0  0  0
  2  3  1  0  0  0  0
  2 17  1  0  0  0  0
  4 10  1  0  0  0  0
  4  3  1  0  0  0  0
  5  6  1  0  0  0  0
  5 11  1  1  0  0  0
  5  4  1  0  0  0  0
  6 12  1  1  0  0  0
  9  4  1  0  0  0  0
 13  1  1  0  0  0  0
 14 13  1  0  0  0  0
 15  5  1  0  0  0  0
 16 15  1  0  0  0  0
 17 18  1  0  0  0  0
 18 23  1  0  0  0  0
 19 18  2  0  0  0  0
 19 20  1  0  0  0  0
 20 21  2  0  0  0  0
 21 22  1  0  0  0  0
 22 25  1  0  0  0  0
 23 22  2  0  0  0  0
 24 19  1  0  0  0  0
 26 27  1  0  0  0  0
 26 20  1  0  0  0  0
 26 28  1  0  0  0  0
 27 30  1  0  0  0  0
 27 28  1  0  0  0  0
 28 32  1  0  0  0  0
 29 26  1  0  0  0  0
 31 27  1  0  0  0  0
 33 28  1  0  0  0  0
 34  6  1  0  0  0  0
 35 36  2  0  0  0  0
 35 34  1  0  0  0  0
 37 47  1  0  0  0  0
 37 44  1  0  0  0  0
 38 39  1  0  0  0  0
 38 37  1  0  0  0  0
 39 43  1  0  0  0  0
 40 39  1  0  0  0  0
 40 42  1  0  0  0  0
 41 40  2  0  0  0  0
 42 43  1  0  0  0  0
 42 35  1  6  0  0  0
 43 44  1  1  0  0  0
 45 37  1  0  0  0  0
 46 45  1  0  0  0  0
 47 48  1  0  0  0  0
M  END
>  <minimizedAffinity>
-6.17974281

>  <minimizedRMSD>
0.659584701

$$$$
