
 OpenBabel03242523543D

 48 52  0  0  1  0  0  0  0  0999 V2000
   42.8260   34.5070   38.8010 C   0  0  1  0  0  0  0  0  0  0  0  0
   42.9180   35.1910   40.1600 C   0  0  1  0  0  0  0  0  0  0  0  0
   41.6110   35.3910   40.6420 O   0  0  0  0  0  0  0  0  0  0  0  0
   40.7080   35.7060   39.6260 C   0  0  0  0  0  0  0  0  0  0  0  0
   40.4460   34.5210   38.7160 C   0  0  2  0  0  0  0  0  0  0  0  0
   41.6750   33.5580   38.8840 C   0  0  1  0  0  0  0  0  0  0  0  0
   43.7360   33.9010   38.6010 H   0  0  0  0  0  0  0  0  0  0  0  0
   43.4860   36.1230   40.1410 H   0  0  0  0  0  0  0  0  0  0  0  0
   40.9890   36.6150   39.0580 H   0  0  0  0  0  0  0  0  0  0  0  0
   39.7650   35.9450   40.1350 H   0  0  0  0  0  0  0  0  0  0  0  0
   39.5180   33.9770   38.9600 H   0  0  0  0  0  0  0  0  0  0  0  0
   41.4390   33.2590   39.9550 H   0  0  0  0  0  0  0  0  0  0  0  0
   42.6190   35.4490   37.7850 O   0  0  0  0  0  0  0  0  0  0  0  0
   43.3030   35.4320   37.0860 H   0  0  0  0  0  0  0  0  0  0  0  0
   40.4880   34.9380   37.3920 O   0  0  0  0  0  0  0  0  0  0  0  0
   40.3630   35.8940   37.2820 H   0  0  0  0  0  0  0  0  0  0  0  0
   43.4500   34.2150   41.0240 O   0  0  0  0  0  0  0  0  0  0  0  0
   44.5730   34.3630   41.7360 C   0  0  0  0  0  0  0  0  0  0  0  0
   45.8240   34.4550   41.1090 C   0  0  0  0  0  0  0  0  0  0  0  0
   46.9520   34.6090   41.9000 C   0  0  0  0  0  0  0  0  0  0  0  0
   46.8130   34.6670   43.2740 N   0  0  0  0  0  0  0  0  0  0  0  0
   45.5890   34.5740   43.8460 C   0  0  0  0  0  0  0  0  0  0  0  0
   44.4770   34.4230   43.0820 N   0  0  0  0  0  0  0  0  0  0  0  0
   45.9350   34.4100   40.0450 H   0  0  0  0  0  0  0  0  0  0  0  0
   45.4820   34.6200   44.9200 H   0  0  0  0  0  0  0  0  0  0  0  0
   48.3210   34.6950   41.3080 C   0  0  0  0  0  0  0  0  0  0  0  0
   49.0720   36.0120   41.5040 C   0  0  0  0  0  0  0  0  0  0  0  0
   49.4880   34.6630   42.1270 C   0  0  0  0  0  0  0  0  0  0  0  0
   48.3450   34.2860   40.2650 H   0  0  0  0  0  0  0  0  0  0  0  0
   48.5870   36.7570   42.1500 H   0  0  0  0  0  0  0  0  0  0  0  0
   49.7070   36.3860   40.6810 H   0  0  0  0  0  0  0  0  0  0  0  0
   49.4410   34.6650   43.2350 H   0  0  0  0  0  0  0  0  0  0  0  0
   50.4590   34.2730   41.7590 H   0  0  0  0  0  0  0  0  0  0  0  0
   41.5910   32.6220   37.9170 O   0  0  0  0  0  0  0  0  0  0  0  0
   41.2820   31.3110   38.0420 C   0  0  0  0  0  0  0  0  0  0  0  0
   40.5540   30.8680   39.0370 O   0  0  0  0  0  0  0  0  0  0  0  0
   44.8660   30.9540   36.9170 C   0  0  0  0  0  0  0  0  0  0  0  0
   44.1980   30.2200   35.7930 C   0  0  0  0  0  2  0  0  0  0  0  0
   42.8620   29.9100   36.1840 N   0  0  0  0  0  0  0  0  0  0  0  0
   41.4520   29.7860   36.0770 C   0  0  0  0  0  0  0  0  0  0  0  0
   40.5980   29.6390   35.1540 O   0  0  0  0  0  0  0  0  0  0  0  0
   41.3530   29.9030   37.5520 C   0  0  1  0  0  3  0  0  0  0  0  0
   42.7660   29.3760   37.5020 C   0  0  2  0  0  3  0  0  0  0  0  0
   43.9600   30.4340   38.4020 S   0  0  0  0  0  0  0  0  0  0  0  0
   44.9580   32.4300   36.7550 C   0  0  0  0  0  2  0  0  0  0  0  0
   44.4080   32.8150   35.8720 H   0  0  0  0  0  0  0  0  0  0  0  0
   46.2560   30.3210   37.0470 C   0  0  0  0  0  2  0  0  0  0  0  0
   46.6220   30.3700   38.1050 H   0  0  0  0  0  0  0  0  0  0  0  0
  1  7  1  6  0  0  0
  1  6  1  0  0  0  0
  1  2  1  0  0  0  0
  2  8  1  6  0  0  0
  2  3  1  0  0  0  0
  2 17  1  0  0  0  0
  4 10  1  0  0  0  0
  4  3  1  0  0  0  0
  5  6  1  0  0  0  0
  5 11  1  1  0  0  0
  5  4  1  0  0  0  0
  6 12  1  1  0  0  0
  9  4  1  0  0  0  0
 13  1  1  0  0  0  0
 14 13  1  0  0  0  0
 15  5  1  0  0  0  0
 16 15  1  0  0  0  0
 17 18  1  0  0  0  0
 18 23  1  0  0  0  0
 19 18  2  0  0  0  0
 19 20  1  0  0  0  0
 20 21  2  0  0  0  0
 21 22  1  0  0  0  0
 22 25  1  0  0  0  0
 23 22  2  0  0  0  0
 24 19  1  0  0  0  0
 26 27  1  0  0  0  0
 26 20  1  0  0  0  0
 26 28  1  0  0  0  0
 27 28  1  0  0  0  0
 27 30  1  0  0  0  0
 28 32  1  0  0  0  0
 29 26  1  0  0  0  0
 31 27  1  0  0  0  0
 33 28  1  0  0  0  0
 34 35  1  0  0  0  0
 34  6  1  0  0  0  0
 35 36  2  0  0  0  0
 37 47  1  0  0  0  0
 37 44  1  0  0  0  0
 38 39  1  0  0  0  0
 38 37  1  0  0  0  0
 39 43  1  0  0  0  0
 40 39  1  0  0  0  0
 40 42  1  0  0  0  0
 41 40  2  0  0  0  0
 42 35  1  6  0  0  0
 43 42  1  0  0  0  0
 43 44  1  1  0  0  0
 45 37  1  0  0  0  0
 46 45  1  0  0  0  0
 47 48  1  0  0  0  0
M  END
>  <minimizedAffinity>
-6.16009188

>  <minimizedRMSD>
3.36903167

$$$$
