
 OpenBabel03242523543D

 48 52  0  0  1  0  0  0  0  0999 V2000
   42.8730   34.5210   38.7930 C   0  0  1  0  0  0  0  0  0  0  0  0
   42.9260   35.1610   40.1750 C   0  0  1  0  0  0  0  0  0  0  0  0
   41.6080   35.2960   40.6500 O   0  0  0  0  0  0  0  0  0  0  0  0
   40.7030   35.6100   39.6360 C   0  0  0  0  0  0  0  0  0  0  0  0
   40.4950   34.4470   38.6840 C   0  0  2  0  0  0  0  0  0  0  0  0
   41.7580   33.5260   38.8330 C   0  0  1  0  0  0  0  0  0  0  0  0
   43.8070   33.9560   38.5820 H   0  0  0  0  0  0  0  0  0  0  0  0
   43.4590   36.1140   40.1920 H   0  0  0  0  0  0  0  0  0  0  0  0
   40.9550   36.5480   39.1010 H   0  0  0  0  0  0  0  0  0  0  0  0
   39.7480   35.7960   40.1430 H   0  0  0  0  0  0  0  0  0  0  0  0
   39.5860   33.8610   38.9000 H   0  0  0  0  0  0  0  0  0  0  0  0
   41.5240   33.1830   39.8910 H   0  0  0  0  0  0  0  0  0  0  0  0
   42.6390   35.4870   37.8070 O   0  0  0  0  0  0  0  0  0  0  0  0
   43.3300   35.5200   37.1140 H   0  0  0  0  0  0  0  0  0  0  0  0
   40.5320   34.9100   37.3750 O   0  0  0  0  0  0  0  0  0  0  0  0
   40.3720   35.8640   37.2960 H   0  0  0  0  0  0  0  0  0  0  0  0
   43.4880   34.1780   41.0110 O   0  0  0  0  0  0  0  0  0  0  0  0
   44.6050   34.3390   41.7280 C   0  0  0  0  0  0  0  0  0  0  0  0
   45.8590   34.4380   41.1070 C   0  0  0  0  0  0  0  0  0  0  0  0
   46.9810   34.6060   41.9020 C   0  0  0  0  0  0  0  0  0  0  0  0
   46.8350   34.6700   43.2750 N   0  0  0  0  0  0  0  0  0  0  0  0
   45.6090   34.5700   43.8410 C   0  0  0  0  0  0  0  0  0  0  0  0
   44.5020   34.4060   43.0730 N   0  0  0  0  0  0  0  0  0  0  0  0
   45.9760   34.3880   40.0430 H   0  0  0  0  0  0  0  0  0  0  0  0
   45.4970   34.6210   44.9140 H   0  0  0  0  0  0  0  0  0  0  0  0
   48.3520   34.7000   41.3170 C   0  0  0  0  0  0  0  0  0  0  0  0
   49.0840   36.0310   41.4910 C   0  0  0  0  0  0  0  0  0  0  0  0
   49.5150   34.7010   42.1430 C   0  0  0  0  0  0  0  0  0  0  0  0
   48.3890   34.2710   40.2820 H   0  0  0  0  0  0  0  0  0  0  0  0
   48.5840   36.7820   42.1190 H   0  0  0  0  0  0  0  0  0  0  0  0
   49.7190   36.3980   40.6640 H   0  0  0  0  0  0  0  0  0  0  0  0
   49.4610   34.7240   43.2500 H   0  0  0  0  0  0  0  0  0  0  0  0
   50.4940   34.3180   41.7880 H   0  0  0  0  0  0  0  0  0  0  0  0
   41.7180   32.6200   37.8350 O   0  0  0  0  0  0  0  0  0  0  0  0
   41.5480   31.2810   37.9210 C   0  0  0  0  0  0  0  0  0  0  0  0
   40.8880   30.7360   38.9120 O   0  0  0  0  0  0  0  0  0  0  0  0
   45.1620   31.2940   36.8370 C   0  0  0  0  0  0  0  0  0  0  0  0
   44.5780   30.5420   35.6800 C   0  0  0  0  0  2  0  0  0  0  0  0
   43.2720   30.0960   36.0410 N   0  0  0  0  0  0  0  0  0  0  0  0
   41.8810   29.8470   35.9090 C   0  0  0  0  0  0  0  0  0  0  0  0
   41.0540   29.6550   34.9700 O   0  0  0  0  0  0  0  0  0  0  0  0
   41.7550   29.9040   37.3850 C   0  0  1  0  0  3  0  0  0  0  0  0
   43.2110   29.5120   37.3390 C   0  0  2  0  0  3  0  0  0  0  0  0
   44.2920   30.6430   38.2910 S   0  0  0  0  0  0  0  0  0  0  0  0
   45.1190   32.7790   36.7240 C   0  0  0  0  0  2  0  0  0  0  0  0
   44.5460   33.1420   35.8480 H   0  0  0  0  0  0  0  0  0  0  0  0
   46.6030   30.7890   36.9670 C   0  0  0  0  0  2  0  0  0  0  0  0
   46.9510   30.8350   38.0310 H   0  0  0  0  0  0  0  0  0  0  0  0
  1  7  1  6  0  0  0
  1  6  1  0  0  0  0
  1  2  1  0  0  0  0
  2  8  1  1  0  0  0
  2  3  1  0  0  0  0
  2 17  1  0  0  0  0
  4 10  1  0  0  0  0
  4  3  1  0  0  0  0
  5  6  1  0  0  0  0
  5 11  1  1  0  0  0
  5  4  1  0  0  0  0
  6 12  1  1  0  0  0
  9  4  1  0  0  0  0
 13  1  1  0  0  0  0
 14 13  1  0  0  0  0
 15  5  1  0  0  0  0
 16 15  1  0  0  0  0
 17 18  1  0  0  0  0
 18 23  1  0  0  0  0
 19 18  2  0  0  0  0
 19 20  1  0  0  0  0
 20 21  2  0  0  0  0
 21 22  1  0  0  0  0
 22 25  1  0  0  0  0
 23 22  2  0  0  0  0
 24 19  1  0  0  0  0
 26 27  1  0  0  0  0
 26 20  1  0  0  0  0
 26 28  1  0  0  0  0
 27 30  1  0  0  0  0
 27 28  1  0  0  0  0
 28 32  1  0  0  0  0
 29 26  1  0  0  0  0
 31 27  1  0  0  0  0
 33 28  1  0  0  0  0
 34 35  1  0  0  0  0
 34  6  1  0  0  0  0
 35 36  2  0  0  0  0
 37 47  1  0  0  0  0
 37 44  1  0  0  0  0
 38 39  1  0  0  0  0
 38 37  1  0  0  0  0
 39 43  1  0  0  0  0
 40 39  1  0  0  0  0
 40 42  1  0  0  0  0
 41 40  2  0  0  0  0
 42 35  1  6  0  0  0
 43 42  1  0  0  0  0
 43 44  1  1  0  0  0
 45 37  1  0  0  0  0
 46 45  1  0  0  0  0
 47 48  1  0  0  0  0
M  END
>  <minimizedAffinity>
-6.19188404

>  <minimizedRMSD>
2.01512527

$$$$
