
 OpenBabel03242518553D

 45 48  0  0  1  0  0  0  0  0999 V2000
   45.8560   31.1910   46.7200 C   0  0  2  0  0  0  0  0  0  0  0  0
   46.0980   30.3560   47.9360 C   0  0  0  0  0  0  0  0  0  0  0  0
   45.2900   29.1130   47.7770 C   0  0  0  0  0  0  0  0  0  0  0  0
   44.4240   29.0530   46.5690 C   0  0  0  0  0  0  0  0  0  0  0  0
   45.2380   29.2810   45.3260 C   0  0  0  0  0  0  0  0  0  0  0  0
   46.1900   30.3700   45.4890 C   0  0  2  0  0  0  0  0  0  0  0  0
   44.7690   31.3880   46.6260 H   0  0  0  0  0  0  0  0  0  0  0  0
   47.1510   30.1530   48.1590 H   0  0  0  0  0  0  0  0  0  0  0  0
   45.7470   30.9760   48.8200 H   0  0  0  0  0  0  0  0  0  0  0  0
   45.8740   28.1610   47.8680 H   0  0  0  0  0  0  0  0  0  0  0  0
   44.5880   29.0580   48.6590 H   0  0  0  0  0  0  0  0  0  0  0  0
   43.9920   28.0230   46.5410 H   0  0  0  0  0  0  0  0  0  0  0  0
   43.5350   29.7340   46.6380 H   0  0  0  0  0  0  0  0  0  0  0  0
   45.6110   28.2960   44.9920 H   0  0  0  0  0  0  0  0  0  0  0  0
   44.4930   29.5740   44.5300 H   0  0  0  0  0  0  0  0  0  0  0  0
   46.2160   31.0410   44.6280 H   0  0  0  0  0  0  0  0  0  0  0  0
   47.5260   29.7290   45.6420 C   0  0  0  0  0  0  0  0  0  0  0  0
   47.5570   28.8630   46.3300 H   0  0  0  0  0  0  0  0  0  0  0  0
   48.2180   30.5010   46.0470 H   0  0  0  0  0  0  0  0  0  0  0  0
   51.5290   29.5020   42.4100 C   0  0  0  0  0  0  0  0  0  0  0  0
   50.8210   30.7840   42.7740 C   0  0  0  0  0  2  0  0  0  0  0  0
   49.4570   30.4580   43.1330 N   0  0  0  0  0  0  0  0  0  0  0  0
   48.0470   30.3100   43.2550 C   0  0  0  0  0  0  0  0  0  0  0  0
   47.1060   30.9080   42.6360 O   0  0  0  0  0  0  0  0  0  0  0  0
   48.1090   29.2650   44.3050 C   0  0  1  0  0  3  0  0  0  0  0  0
   49.5860   29.5800   44.3000 C   0  0  1  0  0  3  0  0  0  0  0  0
   50.6290   28.3080   43.4800 S   0  0  0  0  0  0  0  0  0  0  0  0
   52.9630   29.4940   42.8960 C   0  0  0  0  0  2  0  0  0  0  0  0
   53.4930   30.4500   42.7110 H   0  0  0  0  0  0  0  0  0  0  0  0
   51.4150   29.1570   40.9560 C   0  0  0  0  0  2  0  0  0  0  0  0
   51.2870   30.1300   40.3960 H   0  0  0  0  0  0  0  0  0  0  0  0
   46.5430   32.5060   46.7360 C   0  0  0  0  0  0  0  0  0  0  0  0
   47.3960   32.8170   47.6060 O   0  0  0  0  0  0  0  0  0  0  0  0
   44.8100   35.1240   44.8710 C   0  0  0  0  0  0  0  0  0  0  0  0
   45.5280   35.2190   43.6540 C   0  0  0  0  0  0  0  0  0  0  0  0
   46.6090   34.3680   43.5100 C   0  0  0  0  0  0  0  0  0  0  0  0
   46.8440   33.5560   44.5430 N   0  0  0  0  0  0  0  0  0  0  0  0
   46.1830   33.4600   45.6780 C   0  0  0  0  0  0  0  0  0  0  0  0
   45.1300   34.2750   45.8440 N   0  0  0  0  0  0  0  0  0  0  0  0
   43.9450   35.7820   45.0260 H   0  0  0  0  0  0  0  0  0  0  0  0
   45.2110   35.9330   42.9090 H   0  0  0  0  0  0  0  0  0  0  0  0
   47.3470   34.4550   42.2610 C   0  0  0  0  0  0  0  0  0  0  0  0
   48.5280   33.7270   42.3630 F   0  0  0  0  0  0  0  0  0  0  0  0
   47.6500   35.7640   42.0710 F   0  0  0  0  0  0  0  0  0  0  0  0
   46.6540   33.8890   41.1970 F   0  0  0  0  0  0  0  0  0  0  0  0
  1  7  1  6  0  0  0
  1 32  1  0  0  0  0
  1  2  1  0  0  0  0
  2  8  1  0  0  0  0
  2  9  1  0  0  0  0
  3 10  1  0  0  0  0
  3  2  1  0  0  0  0
  3 11  1  0  0  0  0
  4 13  1  0  0  0  0
  4  3  1  0  0  0  0
  5  6  1  0  0  0  0
  5  4  1  0  0  0  0
  6 16  1  6  0  0  0
  6 17  1  0  0  0  0
  6  1  1  0  0  0  0
 12  4  1  0  0  0  0
 14  5  1  0  0  0  0
 15  5  1  0  0  0  0
 17 19  1  0  0  0  0
 17 18  1  0  0  0  0
 20 21  1  0  0  0  0
 20 28  1  0  0  0  0
 20 27  1  0  0  0  0
 21 22  1  0  0  0  0
 22 23  1  0  0  0  0
 22 26  1  0  0  0  0
 23 25  1  0  0  0  0
 24 23  2  0  0  0  0
 25 17  1  1  0  0  0
 26 27  1  6  0  0  0
 26 25  1  0  0  0  0
 29 28  1  0  0  0  0
 30 20  1  0  0  0  0
 31 30  1  0  0  0  0
 32 33  2  0  0  0  0
 34 40  1  0  0  0  0
 34 39  1  0  0  0  0
 35 34  2  0  0  0  0
 36 35  1  0  0  0  0
 36 37  2  0  0  0  0
 37 38  1  0  0  0  0
 38 39  2  0  0  0  0
 38 32  1  0  0  0  0
 41 35  1  0  0  0  0
 42 43  1  0  0  0  0
 42 36  1  0  0  0  0
 44 42  1  0  0  0  0
 45 42  1  0  0  0  0
M  END
>  <minimizedAffinity>
-5.37513733

>  <minimizedRMSD>
0.984600008

$$$$
