
 OpenBabel03242512273D

 25 28  0  0  1  0  0  0  0  0999 V2000
   45.9000   32.7860   46.7700 C   0  0  0  0  0  0  0  0  0  0  0  0
   45.1150   33.0820   47.7030 O   0  0  0  0  0  0  0  0  0  0  0  0
   44.9450   35.1310   44.1630 C   0  0  0  0  0  0  0  0  0  0  0  0
   45.9850   34.9790   43.2240 C   0  0  0  0  0  0  0  0  0  0  0  0
   47.0250   34.0650   43.4820 C   0  0  0  0  0  0  0  0  0  0  0  0
   46.9620   33.3730   44.6410 N   0  0  0  0  0  0  0  0  0  0  0  0
   45.9580   33.5360   45.5240 C   0  0  0  0  0  0  0  0  0  0  0  0
   44.9690   34.4080   45.2750 N   0  0  0  0  0  0  0  0  0  0  0  0
   43.9070   36.0530   43.8910 N   0  0  0  0  0  0  0  0  0  0  0  0
   46.0080   35.5470   42.3050 H   0  0  0  0  0  0  0  0  0  0  0  0
   47.8080   33.9550   42.7670 H   0  0  0  0  0  0  0  0  0  0  0  0
   44.2330   37.0030   44.2120 H   0  0  0  0  0  0  0  0  0  0  0  0
   43.0000   35.7730   43.4450 H   0  0  0  0  0  0  0  0  0  0  0  0
   48.1720   28.4930   46.1840 C   0  0  0  0  0  0  0  0  0  0  0  0
   47.3380   28.4660   47.4180 C   0  0  0  0  0  2  0  0  0  0  0  0
   46.8130   29.7380   47.6880 N   0  0  2  0  0  0  0  0  0  0  0  0
   46.3860   30.9600   48.2850 C   0  0  1  0  0  0  0  0  0  0  0  0
   45.9020   31.1820   49.4330 O   0  0  0  0  0  1  0  0  0  0  0  0
   46.7870   31.6090   47.0030 C   0  0  1  0  0  3  0  0  0  0  0  0
   46.2670   30.3050   46.4720 C   0  0  1  0  0  0  0  0  0  0  0  0
   47.1480   29.5710   45.1110 S   0  0  0  0  0  0  0  0  0  0  0  0
   48.4090   27.1590   45.5700 C   0  0  0  0  0  2  0  0  0  0  0  0
   48.2960   27.1580   44.4740 H   0  0  0  0  0  0  0  0  0  0  0  0
   49.4980   29.1980   46.3750 C   0  0  0  0  0  2  0  0  0  0  0  0
   49.8100   29.1500   47.4390 H   0  0  0  0  0  0  0  0  0  0  0  0
  1  2  2  0  0  0  0
  3  8  1  0  0  0  0
  4  5  1  0  0  0  0
  4  3  2  0  0  0  0
  5  6  2  0  0  0  0
  6  7  1  0  0  0  0
  7  1  1  0  0  0  0
  8  7  2  0  0  0  0
  9  3  1  0  0  0  0
  9 12  1  0  0  0  0
 10  4  1  0  0  0  0
 11  5  1  0  0  0  0
 13  9  1  0  0  0  0
 14 24  1  0  0  0  0
 14 15  1  0  0  0  0
 16 15  1  1  0  0  0
 16 17  1  0  0  0  0
 17 18  1  1  0  0  0
 19  1  1  6  0  0  0
 19 17  1  0  0  0  0
 20 21  1  6  0  0  0
 20 19  1  0  0  0  0
 20 16  1  0  0  0  0
 20 17  1  0  0  0  0
 21 14  1  0  0  0  0
 22 14  1  0  0  0  0
 23 22  1  0  0  0  0
 24 25  1  0  0  0  0
M  END
>  <minimizedAffinity>
-5.07724905

>  <minimizedRMSD>
1.21635926

$$$$
