
 OpenBabel03252508503D

 31 34  0  0  1  0  0  0  0  0999 V2000
   46.1040   34.1410   41.0660 C   0  0  0  0  0  0  0  0  0  0  0  0
   46.6310   34.8500   42.1440 C   0  0  0  0  0  0  0  0  0  0  0  0
   47.9340   35.3410   42.0110 C   0  0  0  0  0  0  0  0  0  0  0  0
   48.5990   35.0980   40.8470 N   0  0  0  0  0  0  0  0  0  0  0  0
   48.0560   34.4120   39.8350 C   0  0  0  0  0  0  0  0  0  0  0  0
   46.7990   33.9320   39.9480 N   0  0  0  0  0  0  0  0  0  0  0  0
   48.3380   35.8830   42.8320 H   0  0  0  0  0  0  0  0  0  0  0  0
   48.5680   34.2090   38.9030 H   0  0  0  0  0  0  0  0  0  0  0  0
   45.8220   35.0500   43.3470 C   0  0  0  0  0  0  0  0  0  0  0  0
   45.0790   36.2010   43.5700 C   0  0  0  0  0  0  0  0  0  0  0  0
   44.4890   35.9660   44.7940 C   0  0  0  0  0  0  0  0  0  0  0  0
   44.8500   34.7550   45.2840 N   0  0  0  0  0  0  0  0  0  0  0  0
   45.6550   34.2260   44.3890 N   0  0  0  0  0  0  0  0  0  0  0  0
   44.9600   37.0980   42.9510 H   0  0  0  0  0  0  0  0  0  0  0  0
   43.8190   36.6480   45.3200 H   0  0  0  0  0  0  0  0  0  0  0  0
   44.5210   34.3720   46.2000 H   0  0  0  0  0  0  0  0  0  0  0  0
   44.8240   33.6510   41.1790 O   0  0  0  0  0  0  0  0  0  0  0  0
   43.6680   34.2700   40.7950 C   0  0  0  0  0  0  0  0  0  0  0  0
   43.5080   35.4910   40.4710 O   0  0  0  0  0  0  0  0  0  0  0  0
   39.1050   33.4240   38.6220 C   0  0  0  0  0  0  0  0  0  0  0  0
   40.1370   32.3480   38.3520 C   0  0  0  0  0  2  0  0  0  0  0  0
   41.2040   32.5360   39.3190 N   0  0  0  0  0  0  0  0  0  0  0  0
   42.1670   32.3290   40.3730 C   0  0  0  0  0  0  0  0  0  0  0  0
   42.6490   31.2200   40.7880 O   0  0  0  0  0  0  0  0  0  0  0  0
   42.2450   33.7910   40.6210 C   0  0  2  0  0  3  0  0  0  0  0  0
   41.7460   33.8780   39.2140 C   0  0  2  0  0  3  0  0  0  0  0  0
   40.2050   34.8370   39.0230 S   0  0  0  0  0  0  0  0  0  0  0  0
   38.3060   33.7180   37.3730 C   0  0  0  0  0  2  0  0  0  0  0  0
   38.1680   32.8010   36.7620 H   0  0  0  0  0  0  0  0  0  0  0  0
   38.1750   33.0890   39.7480 C   0  0  0  0  0  2  0  0  0  0  0  0
   38.5820   33.2930   40.7570 H   0  0  0  0  0  0  0  0  0  0  0  0
  1 17  1  0  0  0  0
  1  2  1  0  0  0  0
  2  9  1  0  0  0  0
  3  2  2  0  0  0  0
  3  7  1  0  0  0  0
  4  3  1  0  0  0  0
  5  6  1  0  0  0  0
  5  4  2  0  0  0  0
  6  1  2  0  0  0  0
  8  5  1  0  0  0  0
  9 10  1  0  0  0  0
  9 13  2  0  0  0  0
 10 11  2  0  0  0  0
 11 12  1  0  0  0  0
 11 15  1  0  0  0  0
 12 16  1  0  0  0  0
 13 12  1  0  0  0  0
 14 10  1  0  0  0  0
 18 17  1  0  0  0  0
 19 18  2  0  0  0  0
 20 27  1  0  0  0  0
 20 30  1  0  0  0  0
 21 20  1  0  0  0  0
 21 22  1  0  0  0  0
 22 23  1  0  0  0  0
 23 25  1  0  0  0  0
 23 24  2  0  0  0  0
 25 18  1  6  0  0  0
 26 27  1  1  0  0  0
 26 22  1  0  0  0  0
 26 25  1  0  0  0  0
 28 20  1  0  0  0  0
 29 28  1  0  0  0  0
 30 31  1  0  0  0  0
M  END
>  <minimizedAffinity>
-6.23827362

>  <minimizedRMSD>
1.42876446

$$$$
