
 OpenBabel03242519103D

 50 54  0  0  1  0  0  0  0  0999 V2000
   48.8590   32.2730   37.0330 C   0  0  0  0  0  0  0  0  0  0  0  0
   48.1760   32.8780   38.1110 C   0  0  0  0  0  0  0  0  0  0  0  0
   46.8500   33.1460   37.8410 C   0  0  0  0  0  0  0  0  0  0  0  0
   46.2010   32.8780   36.6690 C   0  0  0  0  0  0  0  0  0  0  0  0
   46.9090   32.2850   35.6410 C   0  0  0  0  0  0  0  0  0  0  0  0
   48.2290   31.9930   35.8460 C   0  0  0  0  0  0  0  0  0  0  0  0
   46.2940   33.6110   38.6440 H   0  0  0  0  0  0  0  0  0  0  0  0
   45.1530   33.1090   36.5090 H   0  0  0  0  0  0  0  0  0  0  0  0
   46.4240   32.0600   34.7010 H   0  0  0  0  0  0  0  0  0  0  0  0
   48.5970   31.7560   33.4320 C   0  0  0  0  0  0  0  0  0  0  0  0
   47.6870   32.6200   33.2160 O   0  0  0  0  0  0  0  0  0  0  0  0
   48.9300   31.3810   34.7620 N   0  0  0  0  0  0  0  0  0  0  0  0
   49.6560   30.6870   35.0020 H   0  0  0  0  0  0  0  0  0  0  0  0
   46.6670   28.3490   31.9850 C   0  0  0  0  0  0  0  0  0  0  0  0
   47.3460   28.8250   30.7350 C   0  0  0  0  0  2  0  0  0  0  0  0
   48.1510   29.9710   31.0360 N   0  0  0  0  0  0  0  0  0  0  0  0
   48.7490   31.2630   31.0610 C   0  0  0  0  0  0  0  0  0  0  0  0
   48.7320   32.2500   30.2520 O   0  0  0  0  0  0  0  0  0  0  0  0
   49.4050   31.0500   32.3790 C   0  0  2  0  0  3  0  0  0  0  0  0
   49.0780   29.6300   32.1250 C   0  0  1  0  0  3  0  0  0  0  0  0
   47.8400   28.9020   33.2660 S   0  0  0  0  0  0  0  0  0  0  0  0
   45.2910   28.8860   32.1980 C   0  0  0  0  0  2  0  0  0  0  0  0
   45.0410   29.7890   31.6360 H   0  0  0  0  0  0  0  0  0  0  0  0
   46.6340   26.8330   31.9130 C   0  0  0  0  0  2  0  0  0  0  0  0
   47.6530   26.4000   31.9310 H   0  0  0  0  0  0  0  0  0  0  0  0
   48.7620   33.1900   39.3480 N   0  0  0  0  0  0  0  0  0  0  0  0
   49.7770   33.3820   39.1760 H   0  0  0  0  0  0  0  0  0  0  0  0
   47.5560   34.4690   42.4400 N   0  0  0  0  0  0  0  0  0  0  0  0
   47.5820   34.5800   40.9820 C   0  0  0  0  0  0  0  0  0  0  0  0
   48.2380   33.2760   40.6690 C   0  0  2  0  0  0  0  0  0  0  0  0
   49.4010   33.2440   41.6410 C   0  0  0  0  0  0  0  0  0  0  0  0
   48.8480   33.9820   42.8380 C   0  0  0  0  0  0  0  0  0  0  0  0
   48.2250   35.4120   40.6450 H   0  0  0  0  0  0  0  0  0  0  0  0
   46.5530   34.6260   40.5710 H   0  0  0  0  0  0  0  0  0  0  0  0
   47.5050   32.4710   40.8850 H   0  0  0  0  0  0  0  0  0  0  0  0
   49.6910   32.2070   41.9040 H   0  0  0  0  0  0  0  0  0  0  0  0
   50.2210   33.8440   41.2150 H   0  0  0  0  0  0  0  0  0  0  0  0
   48.7330   33.2850   43.7110 H   0  0  0  0  0  0  0  0  0  0  0  0
   49.4920   34.8120   43.1650 H   0  0  0  0  0  0  0  0  0  0  0  0
   44.6260   35.9970   44.1830 C   0  0  0  0  0  0  0  0  0  0  0  0
   45.6080   35.7960   43.2210 C   0  0  0  0  0  0  0  0  0  0  0  0
   46.5300   34.7530   43.3540 C   0  0  0  0  0  0  0  0  0  0  0  0
   46.3960   33.9810   44.4560 N   0  0  0  0  0  0  0  0  0  0  0  0
   45.4570   34.1590   45.3930 C   0  0  0  0  0  0  0  0  0  0  0  0
   44.5650   35.1840   45.2430 N   0  0  0  0  0  0  0  0  0  0  0  0
   43.9600   36.8260   43.9940 H   0  0  0  0  0  0  0  0  0  0  0  0
   45.7610   36.3840   42.3200 H   0  0  0  0  0  0  0  0  0  0  0  0
   45.3810   33.5130   46.2690 H   0  0  0  0  0  0  0  0  0  0  0  0
   51.3700   31.7130   37.3910 N   0  0  0  0  0  0  0  0  0  0  0  0
   50.2550   31.9630   37.2420 C   0  0  0  0  0  0  0  0  0  0  0  0
  1 50  1  0  0  0  0
  1  2  1  0  0  0  0
  2 26  1  0  0  0  0
  3  2  2  0  0  0  0
  3  7  1  0  0  0  0
  4  3  1  0  0  0  0
  5  6  1  0  0  0  0
  5  4  2  0  0  0  0
  6  1  2  0  0  0  0
  8  4  1  0  0  0  0
  9  5  1  0  0  0  0
 10 12  1  0  0  0  0
 11 10  2  0  0  0  0
 12 13  1  0  0  0  0
 12  6  1  0  0  0  0
 14 22  1  0  0  0  0
 14 21  1  0  0  0  0
 15 16  1  0  0  0  0
 15 14  1  0  0  0  0
 16 17  1  0  0  0  0
 16 20  1  0  0  0  0
 17 19  1  0  0  0  0
 18 17  2  0  0  0  0
 19 10  1  1  0  0  0
 20 19  1  0  0  0  0
 20 21  1  1  0  0  0
 23 22  1  0  0  0  0
 24 25  1  0  0  0  0
 24 14  1  0  0  0  0
 26 30  1  0  0  0  0
 27 26  1  0  0  0  0
 28 32  1  0  0  0  0
 28 42  1  0  0  0  0
 29 28  1  0  0  0  0
 30 35  1  1  0  0  0
 30 29  1  0  0  0  0
 30 31  1  0  0  0  0
 31 36  1  0  0  0  0
 31 32  1  0  0  0  0
 32 39  1  0  0  0  0
 32 38  1  0  0  0  0
 33 29  1  0  0  0  0
 34 29  1  0  0  0  0
 37 31  1  0  0  0  0
 40 45  1  0  0  0  0
 41 42  1  0  0  0  0
 41 40  2  0  0  0  0
 42 43  2  0  0  0  0
 43 44  1  0  0  0  0
 44 48  1  0  0  0  0
 45 44  2  0  0  0  0
 46 40  1  0  0  0  0
 47 41  1  0  0  0  0
 50 49  3  0  0  0  0
M  END
>  <minimizedAffinity>
-6.39335775

>  <minimizedRMSD>
2.28109217

$$$$
