
 OpenBabel03242518553D

 45 48  0  0  1  0  0  0  0  0999 V2000
   45.8770   31.3180   46.2800 C   0  0  2  0  0  0  0  0  0  0  0  0
   45.3070   30.7050   47.5190 C   0  0  0  0  0  0  0  0  0  0  0  0
   44.7790   29.3640   47.1370 C   0  0  0  0  0  0  0  0  0  0  0  0
   44.8590   29.0240   45.6910 C   0  0  0  0  0  0  0  0  0  0  0  0
   46.2720   29.1650   45.1940 C   0  0  0  0  0  0  0  0  0  0  0  0
   46.9090   30.3730   45.6970 C   0  0  2  0  0  0  0  0  0  0  0  0
   45.0860   31.3670   45.5040 H   0  0  0  0  0  0  0  0  0  0  0  0
   45.9900   30.6650   48.3750 H   0  0  0  0  0  0  0  0  0  0  0  0
   44.4780   31.4000   47.8640 H   0  0  0  0  0  0  0  0  0  0  0  0
   45.1810   28.5120   47.7440 H   0  0  0  0  0  0  0  0  0  0  0  0
   43.6810   29.3550   47.3920 H   0  0  0  0  0  0  0  0  0  0  0  0
   44.5430   27.9570   45.5990 H   0  0  0  0  0  0  0  0  0  0  0  0
   44.1210   29.5960   45.0680 H   0  0  0  0  0  0  0  0  0  0  0  0
   46.7730   28.1940   45.3540 H   0  0  0  0  0  0  0  0  0  0  0  0
   46.1870   29.2470   44.0710 H   0  0  0  0  0  0  0  0  0  0  0  0
   47.4660   30.9090   44.9260 H   0  0  0  0  0  0  0  0  0  0  0  0
   47.8580   29.9260   46.7560 C   0  0  0  0  0  0  0  0  0  0  0  0
   47.4510   29.9280   47.7840 H   0  0  0  0  0  0  0  0  0  0  0  0
   48.7240   30.6250   46.7380 H   0  0  0  0  0  0  0  0  0  0  0  0
   48.7830   25.1490   48.4440 C   0  0  0  0  0  0  0  0  0  0  0  0
   49.4580   26.3780   49.0010 C   0  0  0  0  0  2  0  0  0  0  0  0
   49.4850   27.3860   47.9630 N   0  0  0  0  0  0  0  0  0  0  0  0
   49.8050   28.3550   46.9710 C   0  0  0  0  0  0  0  0  0  0  0  0
   50.9320   28.8600   46.6550 O   0  0  0  0  0  0  0  0  0  0  0  0
   48.4110   28.5240   46.4920 C   0  0  1  0  0  3  0  0  0  0  0  0
   48.0710   27.6500   47.6750 C   0  0  1  0  0  3  0  0  0  0  0  0
   47.6300   25.9210   47.2370 S   0  0  0  0  0  0  0  0  0  0  0  0
   47.9080   24.4720   49.4770 C   0  0  0  0  0  2  0  0  0  0  0  0
   48.3870   24.3930   50.4740 H   0  0  0  0  0  0  0  0  0  0  0  0
   49.7360   24.1980   47.7880 C   0  0  0  0  0  2  0  0  0  0  0  0
   50.7400   24.3420   48.2850 H   0  0  0  0  0  0  0  0  0  0  0  0
   46.3990   32.6950   46.4660 C   0  0  0  0  0  0  0  0  0  0  0  0
   47.1340   33.0190   47.4320 O   0  0  0  0  0  0  0  0  0  0  0  0
   44.6900   35.4590   44.7980 C   0  0  0  0  0  0  0  0  0  0  0  0
   45.3140   35.5390   43.5280 C   0  0  0  0  0  0  0  0  0  0  0  0
   46.3240   34.6270   43.2810 C   0  0  0  0  0  0  0  0  0  0  0  0
   46.5890   33.7780   44.2760 N   0  0  0  0  0  0  0  0  0  0  0  0
   46.0170   33.6940   45.4590 C   0  0  0  0  0  0  0  0  0  0  0  0
   45.0330   34.5670   45.7250 N   0  0  0  0  0  0  0  0  0  0  0  0
   43.8840   36.1640   45.0350 H   0  0  0  0  0  0  0  0  0  0  0  0
   44.9840   36.2890   42.8260 H   0  0  0  0  0  0  0  0  0  0  0  0
   46.9640   34.6990   41.9780 C   0  0  0  0  0  0  0  0  0  0  0  0
   47.7590   33.5750   41.7840 F   0  0  0  0  0  0  0  0  0  0  0  0
   47.7550   35.8020   41.9870 F   0  0  0  0  0  0  0  0  0  0  0  0
   46.0450   34.6880   40.9360 F   0  0  0  0  0  0  0  0  0  0  0  0
  1  7  1  6  0  0  0
  1 32  1  0  0  0  0
  1  2  1  0  0  0  0
  2  9  1  0  0  0  0
  2  8  1  0  0  0  0
  3 11  1  0  0  0  0
  3  2  1  0  0  0  0
  3 10  1  0  0  0  0
  4  3  1  0  0  0  0
  5 14  1  0  0  0  0
  5  4  1  0  0  0  0
  5  6  1  0  0  0  0
  6 16  1  6  0  0  0
  6  1  1  0  0  0  0
  6 17  1  0  0  0  0
 12  4  1  0  0  0  0
 13  4  1  0  0  0  0
 15  5  1  0  0  0  0
 17 18  1  0  0  0  0
 19 17  1  0  0  0  0
 20 21  1  0  0  0  0
 20 28  1  0  0  0  0
 22 21  1  0  0  0  0
 23 22  1  0  0  0  0
 24 23  2  0  0  0  0
 25 17  1  1  0  0  0
 25 23  1  0  0  0  0
 25 26  1  0  0  0  0
 26 27  1  6  0  0  0
 26 22  1  0  0  0  0
 27 20  1  0  0  0  0
 28 29  1  0  0  0  0
 30 31  1  0  0  0  0
 30 20  1  0  0  0  0
 32 33  2  0  0  0  0
 34 40  1  0  0  0  0
 34 39  1  0  0  0  0
 35 34  2  0  0  0  0
 36 35  1  0  0  0  0
 36 37  2  0  0  0  0
 37 38  1  0  0  0  0
 38 39  2  0  0  0  0
 38 32  1  0  0  0  0
 41 35  1  0  0  0  0
 42 44  1  0  0  0  0
 42 36  1  0  0  0  0
 43 42  1  0  0  0  0
 45 42  1  0  0  0  0
M  END
>  <minimizedAffinity>
-5.72623682

>  <minimizedRMSD>
1.51966035

$$$$
