
 OpenBabel03252508503D

 31 34  0  0  1  0  0  0  0  0999 V2000
   45.8980   34.0930   41.0440 C   0  0  0  0  0  0  0  0  0  0  0  0
   46.5000   34.7580   42.1110 C   0  0  0  0  0  0  0  0  0  0  0  0
   47.8340   35.1460   41.9510 C   0  0  0  0  0  0  0  0  0  0  0  0
   48.4550   34.8530   40.7740 N   0  0  0  0  0  0  0  0  0  0  0  0
   47.8400   34.2120   39.7740 C   0  0  0  0  0  0  0  0  0  0  0  0
   46.5520   33.8310   39.9130 N   0  0  0  0  0  0  0  0  0  0  0  0
   48.2960   35.6550   42.7640 H   0  0  0  0  0  0  0  0  0  0  0  0
   48.3160   33.9710   38.8320 H   0  0  0  0  0  0  0  0  0  0  0  0
   45.7340   35.0200   43.3300 C   0  0  0  0  0  0  0  0  0  0  0  0
   45.0320   36.1990   43.5370 C   0  0  0  0  0  0  0  0  0  0  0  0
   44.4720   36.0200   44.7850 C   0  0  0  0  0  0  0  0  0  0  0  0
   44.8110   34.8150   45.3030 N   0  0  0  0  0  0  0  0  0  0  0  0
   45.5730   34.2330   44.4020 N   0  0  0  0  0  0  0  0  0  0  0  0
   44.9210   37.0800   42.8940 H   0  0  0  0  0  0  0  0  0  0  0  0
   43.8380   36.7380   45.3080 H   0  0  0  0  0  0  0  0  0  0  0  0
   44.4980   34.4700   46.2390 H   0  0  0  0  0  0  0  0  0  0  0  0
   44.5860   33.7030   41.1830 O   0  0  0  0  0  0  0  0  0  0  0  0
   43.4840   34.3200   40.6620 C   0  0  0  0  0  0  0  0  0  0  0  0
   43.3620   35.5420   40.3240 O   0  0  0  0  0  0  0  0  0  0  0  0
   39.4710   31.1790   40.1260 C   0  0  0  0  0  0  0  0  0  0  0  0
   39.5410   31.8840   41.4650 C   0  0  0  0  0  2  0  0  0  0  0  0
   40.4760   32.9840   41.3130 N   0  0  0  0  0  0  0  0  0  0  0  0
   41.0760   34.2970   41.2880 C   0  0  0  0  0  0  0  0  0  0  0  0
   40.7130   35.3360   41.9370 O   0  0  0  0  0  0  0  0  0  0  0  0
   42.0960   33.8370   40.3130 C   0  0  2  0  0  3  0  0  0  0  0  0
   41.7660   32.4890   40.8670 C   0  0  2  0  0  3  0  0  0  0  0  0
   41.2320   31.2720   39.6150 S   0  0  0  0  0  0  0  0  0  0  0  0
   39.0530   29.7360   40.3050 C   0  0  0  0  0  2  0  0  0  0  0  0
   38.3430   29.6310   41.1510 H   0  0  0  0  0  0  0  0  0  0  0  0
   38.5580   31.8490   39.1460 C   0  0  0  0  0  2  0  0  0  0  0  0
   39.0070   32.7120   38.6140 H   0  0  0  0  0  0  0  0  0  0  0  0
  1 17  1  0  0  0  0
  1  2  1  0  0  0  0
  2  9  1  0  0  0  0
  3  2  2  0  0  0  0
  3  7  1  0  0  0  0
  4  3  1  0  0  0  0
  5  6  1  0  0  0  0
  5  4  2  0  0  0  0
  6  1  2  0  0  0  0
  8  5  1  0  0  0  0
  9 10  1  0  0  0  0
  9 13  2  0  0  0  0
 10 11  2  0  0  0  0
 11 12  1  0  0  0  0
 11 15  1  0  0  0  0
 12 16  1  0  0  0  0
 13 12  1  0  0  0  0
 14 10  1  0  0  0  0
 18 17  1  0  0  0  0
 19 18  2  0  0  0  0
 20 28  1  0  0  0  0
 20 21  1  0  0  0  0
 22 21  1  0  0  0  0
 23 22  1  0  0  0  0
 23 24  2  0  0  0  0
 25 18  1  1  0  0  0
 25 26  1  0  0  0  0
 25 23  1  0  0  0  0
 26 27  1  6  0  0  0
 26 22  1  0  0  0  0
 27 20  1  0  0  0  0
 28 29  1  0  0  0  0
 30 20  1  0  0  0  0
 31 30  1  0  0  0  0
M  END
>  <minimizedAffinity>
-5.98957825

>  <minimizedRMSD>
1.59879291

$$$$
