
 OpenBabel03242523543D

 48 52  0  0  1  0  0  0  0  0999 V2000
   42.7450   34.4730   38.8600 C   0  0  1  0  0  0  0  0  0  0  0  0
   42.9040   35.2500   40.1620 C   0  0  1  0  0  0  0  0  0  0  0  0
   41.6220   35.5970   40.6280 O   0  0  0  0  0  0  0  0  0  0  0  0
   40.7410   35.9080   39.5920 C   0  0  0  0  0  0  0  0  0  0  0  0
   40.3740   34.6820   38.7760 C   0  0  2  0  0  0  0  0  0  0  0  0
   41.5190   33.6340   39.0180 C   0  0  1  0  0  0  0  0  0  0  0  0
   43.5990   33.7790   38.7070 H   0  0  0  0  0  0  0  0  0  0  0  0
   43.5490   36.1260   40.0700 H   0  0  0  0  0  0  0  0  0  0  0  0
   41.0950   36.7430   38.9550 H   0  0  0  0  0  0  0  0  0  0  0  0
   39.8270   36.2640   40.0810 H   0  0  0  0  0  0  0  0  0  0  0  0
   39.4050   34.2390   39.0620 H   0  0  0  0  0  0  0  0  0  0  0  0
   41.2660   33.4410   40.1090 H   0  0  0  0  0  0  0  0  0  0  0  0
   42.6110   35.3480   37.7750 O   0  0  0  0  0  0  0  0  0  0  0  0
   43.2860   35.2190   37.0780 H   0  0  0  0  0  0  0  0  0  0  0  0
   40.4410   34.9910   37.4240 O   0  0  0  0  0  0  0  0  0  0  0  0
   40.3960   35.9430   37.2400 H   0  0  0  0  0  0  0  0  0  0  0  0
   43.3590   34.3020   41.0990 O   0  0  0  0  0  0  0  0  0  0  0  0
   44.4970   34.4070   41.7930 C   0  0  0  0  0  0  0  0  0  0  0  0
   45.7390   34.4830   41.1450 C   0  0  0  0  0  0  0  0  0  0  0  0
   46.8840   34.5920   41.9180 C   0  0  0  0  0  0  0  0  0  0  0  0
   46.7720   34.6210   43.2950 N   0  0  0  0  0  0  0  0  0  0  0  0
   45.5560   34.5430   43.8880 C   0  0  0  0  0  0  0  0  0  0  0  0
   44.4270   34.4370   43.1410 N   0  0  0  0  0  0  0  0  0  0  0  0
   45.8300   34.4610   40.0780 H   0  0  0  0  0  0  0  0  0  0  0  0
   45.4700   34.5660   44.9640 H   0  0  0  0  0  0  0  0  0  0  0  0
   48.2430   34.6590   41.3030 C   0  0  0  0  0  0  0  0  0  0  0  0
   49.0190   35.9630   41.4920 C   0  0  0  0  0  0  0  0  0  0  0  0
   49.4240   34.6050   42.1010 C   0  0  0  0  0  0  0  0  0  0  0  0
   48.2430   34.2560   40.2570 H   0  0  0  0  0  0  0  0  0  0  0  0
   48.5570   36.7130   42.1500 H   0  0  0  0  0  0  0  0  0  0  0  0
   49.6460   36.3320   40.6600 H   0  0  0  0  0  0  0  0  0  0  0  0
   49.3960   34.6010   43.2090 H   0  0  0  0  0  0  0  0  0  0  0  0
   50.3830   34.2020   41.7140 H   0  0  0  0  0  0  0  0  0  0  0  0
   41.3480   32.6370   38.1270 O   0  0  0  0  0  0  0  0  0  0  0  0
   40.2710   31.8360   37.9580 C   0  0  0  0  0  0  0  0  0  0  0  0
   39.0640   32.3270   37.8270 O   0  0  0  0  0  0  0  0  0  0  0  0
   41.4400   30.0360   41.0610 C   0  0  0  0  0  0  0  0  0  0  0  0
   41.6160   28.9240   40.0700 C   0  0  0  0  0  2  0  0  0  0  0  0
   40.8960   29.2550   38.8840 N   0  0  0  0  0  0  0  0  0  0  0  0
   40.6450   29.4150   37.4960 C   0  0  0  0  0  0  0  0  0  0  0  0
   41.0480   28.9020   36.4120 O   0  0  0  0  0  0  0  0  0  0  0  0
   39.6640   30.4790   37.8210 C   0  0  1  0  0  3  0  0  0  0  0  0
   39.5820   29.7450   39.1360 C   0  0  2  0  0  3  0  0  0  0  0  0
   39.8770   30.8280   40.5850 S   0  0  0  0  0  0  0  0  0  0  0  0
   42.5830   30.9810   41.1740 C   0  0  0  0  0  2  0  0  0  0  0  0
   43.3770   30.8130   40.4180 H   0  0  0  0  0  0  0  0  0  0  0  0
   41.1530   29.3460   42.4000 C   0  0  0  0  0  2  0  0  0  0  0  0
   40.5020   29.9860   43.0500 H   0  0  0  0  0  0  0  0  0  0  0  0
  1  7  1  6  0  0  0
  1  6  1  0  0  0  0
  1  2  1  0  0  0  0
  2  8  1  6  0  0  0
  2  3  1  0  0  0  0
  2 17  1  0  0  0  0
  4 10  1  0  0  0  0
  4  3  1  0  0  0  0
  5  6  1  0  0  0  0
  5 11  1  1  0  0  0
  5  4  1  0  0  0  0
  6 12  1  1  0  0  0
  9  4  1  0  0  0  0
 13  1  1  0  0  0  0
 14 13  1  0  0  0  0
 15  5  1  0  0  0  0
 16 15  1  0  0  0  0
 17 18  1  0  0  0  0
 18 23  1  0  0  0  0
 19 18  2  0  0  0  0
 19 20  1  0  0  0  0
 20 21  2  0  0  0  0
 21 22  1  0  0  0  0
 22 25  1  0  0  0  0
 23 22  2  0  0  0  0
 24 19  1  0  0  0  0
 26 27  1  0  0  0  0
 26 20  1  0  0  0  0
 26 28  1  0  0  0  0
 27 28  1  0  0  0  0
 27 30  1  0  0  0  0
 28 32  1  0  0  0  0
 29 26  1  0  0  0  0
 31 27  1  0  0  0  0
 33 28  1  0  0  0  0
 34  6  1  0  0  0  0
 35 34  1  0  0  0  0
 36 35  2  0  0  0  0
 37 45  1  0  0  0  0
 37 47  1  0  0  0  0
 38 37  1  0  0  0  0
 39 43  1  0  0  0  0
 39 38  1  0  0  0  0
 40 42  1  0  0  0  0
 40 39  1  0  0  0  0
 41 40  2  0  0  0  0
 42 35  1  1  0  0  0
 42 43  1  0  0  0  0
 43 44  1  1  0  0  0
 44 37  1  0  0  0  0
 46 45  1  0  0  0  0
 47 48  1  0  0  0  0
M  END
>  <minimizedAffinity>
-6.18692923

>  <minimizedRMSD>
1.04703093

$$$$
