
 OpenBabel03252501413D

 48 53  0  0  1  0  0  0  0  0999 V2000
   44.4710   33.2520   41.9170 C   0  0  0  0  0  0  0  0  0  0  0  0
   43.9750   32.5320   42.8630 O   0  0  0  0  0  0  0  0  0  0  0  0
   45.3070   34.2960   42.4150 N   0  0  0  0  0  0  0  0  0  0  0  0
   45.8170   34.9460   41.8190 H   0  0  0  0  0  0  0  0  0  0  0  0
   45.3030   34.2670   43.8590 C   0  0  0  0  0  0  0  0  0  0  0  0
   44.5510   35.0470   44.6810 C   0  0  0  0  0  0  0  0  0  0  0  0
   44.6960   34.8610   46.0310 C   0  0  0  0  0  0  0  0  0  0  0  0
   45.5780   33.9130   46.4450 N   0  0  0  0  0  0  0  0  0  0  0  0
   46.3060   33.1590   45.6120 C   0  0  0  0  0  0  0  0  0  0  0  0
   46.1760   33.3290   44.2720 N   0  0  0  0  0  0  0  0  0  0  0  0
   44.1090   35.4690   46.7020 H   0  0  0  0  0  0  0  0  0  0  0  0
   43.6900   35.9780   44.0750 N   0  0  0  0  0  0  0  0  0  0  0  0
   42.7680   35.9410   44.5600 H   0  0  0  0  0  0  0  0  0  0  0  0
   43.8970   36.6110   43.2810 H   0  0  0  0  0  0  0  0  0  0  0  0
   47.2250   32.1680   46.2280 C   0  0  0  0  0  2  0  0  0  0  0  0
   46.4240   31.1260   46.9680 C   0  0  1  0  0  0  0  0  0  0  0  0
   45.2370   30.6450   46.2520 C   0  0  0  0  0  2  0  0  0  0  0  0
   44.9860   29.2840   46.4420 N   0  0  1  0  0  0  0  0  0  0  0  0
   44.3620   28.0370   46.3010 C   0  0  1  0  0  0  0  0  0  0  0  0
   43.2290   27.5110   46.1560 O   0  0  0  0  0  1  0  0  0  0  0  0
   45.7490   27.4480   46.4030 C   0  0  0  0  0  3  0  0  0  0  0  0
   46.3530   27.6160   45.4970 H   0  0  0  0  0  0  0  0  0  0  0  0
   45.8830   28.5940   47.3470 C   0  0  1  0  0  0  0  0  0  0  0  0
   47.3830   29.6020   47.2080 S   0  0  0  0  0  0  0  0  0  0  0  0
   46.0390   31.6170   48.3320 C   0  0  0  0  0  2  0  0  0  0  0  0
   45.1060   32.2210   48.3350 H   0  0  0  0  0  0  0  0  0  0  0  0
   44.2670   33.0990   40.5460 O   0  0  0  0  0  0  0  0  0  0  0  0
   42.3120   30.8600   40.5230 Cl  0  0  0  0  0  0  0  0  0  0  0  0
   42.0400   32.5040   39.9720 C   0  0  0  0  0  0  0  0  0  0  0  0
   43.0210   33.4920   40.0220 C   0  0  0  0  0  0  0  0  0  0  0  0
   42.7580   34.7530   39.5800 C   0  0  0  0  0  0  0  0  0  0  0  0
   41.5350   35.1350   39.0670 C   0  0  0  0  0  0  0  0  0  0  0  0
   40.5220   34.1550   39.0060 C   0  0  0  0  0  0  0  0  0  0  0  0
   38.9340   34.5460   38.3680 Cl  0  0  0  0  0  0  0  0  0  0  0  0
   40.8270   32.8860   39.4620 C   0  0  0  0  0  0  0  0  0  0  0  0
   43.5430   35.4950   39.6340 H   0  0  0  0  0  0  0  0  0  0  0  0
   41.3460   36.1390   38.7220 H   0  0  0  0  0  0  0  0  0  0  0  0
   39.1470   32.5380   41.5770 F   0  0  0  0  0  0  0  0  0  0  0  0
   38.9470   31.7150   40.4950 C   0  0  0  0  0  0  0  0  0  0  0  0
   39.7840   31.8670   39.4020 C   0  0  0  0  0  0  0  0  0  0  0  0
   39.5470   31.0120   38.3220 C   0  0  0  0  0  0  0  0  0  0  0  0
   38.5200   30.0870   38.3990 C   0  0  0  0  0  0  0  0  0  0  0  0
   37.7080   29.9860   39.5400 C   0  0  0  0  0  0  0  0  0  0  0  0
   37.9150   30.8200   40.6310 C   0  0  0  0  0  0  0  0  0  0  0  0
   40.1950   31.1300   37.4780 H   0  0  0  0  0  0  0  0  0  0  0  0
   38.3750   29.4450   37.5360 H   0  0  0  0  0  0  0  0  0  0  0  0
   36.9080   29.2510   39.5730 H   0  0  0  0  0  0  0  0  0  0  0  0
   37.3120   30.7620   41.5040 H   0  0  0  0  0  0  0  0  0  0  0  0
  1  3  1  0  0  0  0
  1  2  2  0  0  0  0
  3  5  1  0  0  0  0
  4  3  1  0  0  0  0
  5 10  2  0  0  0  0
  5  6  1  0  0  0  0
  6  7  2  0  0  0  0
  7  8  1  0  0  0  0
  7 11  1  0  0  0  0
  9 15  1  0  0  0  0
  9  8  2  0  0  0  0
 10  9  1  0  0  0  0
 12 13  1  0  0  0  0
 12  6  1  0  0  0  0
 14 12  1  0  0  0  0
 16 15  1  6  0  0  0
 16 24  1  0  0  0  0
 16 25  1  0  0  0  0
 17 16  1  0  0  0  0
 18 17  1  6  0  0  0
 18 23  1  0  0  0  0
 19 20  1  1  0  0  0
 19 21  1  0  0  0  0
 19 18  1  0  0  0  0
 19 23  1  0  0  0  0
 22 21  1  0  0  0  0
 23 21  1  6  0  0  0
 24 23  1  0  0  0  0
 25 26  1  0  0  0  0
 27  1  1  0  0  0  0
 29 30  1  0  0  0  0
 29 28  1  0  0  0  0
 30 27  1  0  0  0  0
 31 36  1  0  0  0  0
 31 30  2  0  0  0  0
 32 31  1  0  0  0  0
 33 32  2  0  0  0  0
 33 35  1  0  0  0  0
 34 33  1  0  0  0  0
 35 29  2  0  0  0  0
 37 32  1  0  0  0  0
 39 44  1  0  0  0  0
 39 38  1  0  0  0  0
 40 35  1  0  0  0  0
 40 39  2  0  0  0  0
 41 42  2  0  0  0  0
 41 40  1  0  0  0  0
 42 43  1  0  0  0  0
 43 47  1  0  0  0  0
 43 44  2  0  0  0  0
 44 48  1  0  0  0  0
 45 41  1  0  0  0  0
 46 42  1  0  0  0  0
M  END
>  <minimizedAffinity>
-6.720644

>  <minimizedRMSD>
1.72842157

$$$$
