
 OpenBabel03252501413D

 48 53  0  0  1  0  0  0  0  0999 V2000
   44.3200   34.3290   41.8860 C   0  0  0  0  0  0  0  0  0  0  0  0
   44.0600   33.1850   42.4180 O   0  0  0  0  0  0  0  0  0  0  0  0
   45.2660   35.0770   42.6490 N   0  0  0  0  0  0  0  0  0  0  0  0
   45.6230   35.9890   42.3690 H   0  0  0  0  0  0  0  0  0  0  0  0
   45.6140   34.3390   43.8400 C   0  0  0  0  0  0  0  0  0  0  0  0
   45.1520   34.5700   45.0980 C   0  0  0  0  0  0  0  0  0  0  0  0
   45.6090   33.7500   46.0960 C   0  0  0  0  0  0  0  0  0  0  0  0
   46.4860   32.7680   45.7540 N   0  0  0  0  0  0  0  0  0  0  0  0
   46.9230   32.5630   44.5050 C   0  0  0  0  0  0  0  0  0  0  0  0
   46.4820   33.3660   43.5040 N   0  0  0  0  0  0  0  0  0  0  0  0
   45.2550   33.9150   47.1030 H   0  0  0  0  0  0  0  0  0  0  0  0
   44.2480   35.6320   45.2670 N   0  0  0  0  0  0  0  0  0  0  0  0
   43.4730   35.3120   45.8870 H   0  0  0  0  0  0  0  0  0  0  0  0
   44.3040   36.5840   44.8620 H   0  0  0  0  0  0  0  0  0  0  0  0
   47.8810   31.4470   44.3010 C   0  0  0  0  0  2  0  0  0  0  0  0
   47.1910   30.3110   43.5880 C   0  0  1  0  0  0  0  0  0  0  0  0
   46.8710   30.5760   42.1810 C   0  0  0  0  0  2  0  0  0  0  0  0
   47.0160   29.4570   41.3580 N   0  0  2  0  0  0  0  0  0  0  0  0
   47.0340   28.6890   40.1860 C   0  0  1  0  0  0  0  0  0  0  0  0
   46.4410   28.5550   39.0840 O   0  0  0  0  0  1  0  0  0  0  0  0
   48.2020   27.9610   40.8030 C   0  0  0  0  0  3  0  0  0  0  0  0
   49.1260   28.5640   40.8160 H   0  0  0  0  0  0  0  0  0  0  0  0
   47.3860   28.2240   42.0230 C   0  0  1  0  0  0  0  0  0  0  0  0
   48.2620   28.8490   43.4800 S   0  0  0  0  0  0  0  0  0  0  0  0
   45.9530   29.8900   44.3250 C   0  0  0  0  0  2  0  0  0  0  0  0
   45.0580   30.4940   44.0620 H   0  0  0  0  0  0  0  0  0  0  0  0
   43.7850   34.8510   40.7080 O   0  0  0  0  0  0  0  0  0  0  0  0
   43.0120   32.2750   39.4420 Cl  0  0  0  0  0  0  0  0  0  0  0  0
   41.9390   33.5750   39.9310 C   0  0  0  0  0  0  0  0  0  0  0  0
   42.3940   34.7520   40.5210 C   0  0  0  0  0  0  0  0  0  0  0  0
   41.5180   35.7300   40.8810 C   0  0  0  0  0  0  0  0  0  0  0  0
   40.1540   35.6300   40.6960 C   0  0  0  0  0  0  0  0  0  0  0  0
   39.6650   34.4470   40.1020 C   0  0  0  0  0  0  0  0  0  0  0  0
   37.9450   34.2290   39.8260 Cl  0  0  0  0  0  0  0  0  0  0  0  0
   40.5840   33.4780   39.7490 C   0  0  0  0  0  0  0  0  0  0  0  0
   41.9070   36.6310   41.3360 H   0  0  0  0  0  0  0  0  0  0  0  0
   39.4760   36.4160   40.9890 H   0  0  0  0  0  0  0  0  0  0  0  0
   39.9010   31.3560   41.3130 F   0  0  0  0  0  0  0  0  0  0  0  0
   39.7470   31.1910   39.9580 C   0  0  0  0  0  0  0  0  0  0  0  0
   40.0860   32.2510   39.1330 C   0  0  0  0  0  0  0  0  0  0  0  0
   39.9150   32.0440   37.7620 C   0  0  0  0  0  0  0  0  0  0  0  0
   39.4320   30.8270   37.3130 C   0  0  0  0  0  0  0  0  0  0  0  0
   39.1080   29.7920   38.2050 C   0  0  0  0  0  0  0  0  0  0  0  0
   39.2650   29.9640   39.5750 C   0  0  0  0  0  0  0  0  0  0  0  0
   40.1770   32.8650   37.1260 H   0  0  0  0  0  0  0  0  0  0  0  0
   39.3170   30.7120   36.2400 H   0  0  0  0  0  0  0  0  0  0  0  0
   38.7300   28.8470   37.8250 H   0  0  0  0  0  0  0  0  0  0  0  0
   39.0260   29.1960   40.2680 H   0  0  0  0  0  0  0  0  0  0  0  0
  1  2  2  0  0  0  0
  1  3  1  0  0  0  0
  3  5  1  0  0  0  0
  4  3  1  0  0  0  0
  5  6  1  0  0  0  0
  6 12  1  0  0  0  0
  6  7  2  0  0  0  0
  7 11  1  0  0  0  0
  8  7  1  0  0  0  0
  9  8  2  0  0  0  0
 10  5  2  0  0  0  0
 10  9  1  0  0  0  0
 12 13  1  0  0  0  0
 14 12  1  0  0  0  0
 15  9  1  0  0  0  0
 16 15  1  1  0  0  0
 16 25  1  0  0  0  0
 17 16  1  0  0  0  0
 18 23  1  0  0  0  0
 18 17  1  1  0  0  0
 19 20  1  6  0  0  0
 19 21  1  0  0  0  0
 19 18  1  0  0  0  0
 19 23  1  0  0  0  0
 21 22  1  0  0  0  0
 23 21  1  6  0  0  0
 23 24  1  0  0  0  0
 24 16  1  0  0  0  0
 26 25  1  0  0  0  0
 27  1  1  0  0  0  0
 28 29  1  0  0  0  0
 29 30  1  0  0  0  0
 30 27  1  0  0  0  0
 30 31  2  0  0  0  0
 31 36  1  0  0  0  0
 32 31  1  0  0  0  0
 32 37  1  0  0  0  0
 33 32  2  0  0  0  0
 34 33  1  0  0  0  0
 35 29  2  0  0  0  0
 35 33  1  0  0  0  0
 39 38  1  0  0  0  0
 40 35  1  0  0  0  0
 40 39  2  0  0  0  0
 41 40  1  0  0  0  0
 42 41  2  0  0  0  0
 42 43  1  0  0  0  0
 43 44  2  0  0  0  0
 44 39  1  0  0  0  0
 44 48  1  0  0  0  0
 45 41  1  0  0  0  0
 46 42  1  0  0  0  0
 47 43  1  0  0  0  0
M  END
>  <minimizedAffinity>
-5.85737753

>  <minimizedRMSD>
0.562333226

$$$$
