
 OpenBabel03252505573D

 39 42  0  0  1  0  0  0  0  0999 V2000
   44.8660   35.0240   45.0380 C   0  0  0  0  0  0  0  0  0  0  0  0
   45.8190   34.7370   44.0420 C   0  0  0  0  0  0  0  0  0  0  0  0
   46.7730   33.7280   44.2990 C   0  0  0  0  0  0  0  0  0  0  0  0
   46.6970   33.1050   45.4980 N   0  0  0  0  0  0  0  0  0  0  0  0
   45.7860   33.3990   46.4200 C   0  0  0  0  0  0  0  0  0  0  0  0
   44.8670   34.3550   46.2010 N   0  0  0  0  0  0  0  0  0  0  0  0
   44.1190   35.7830   44.8920 H   0  0  0  0  0  0  0  0  0  0  0  0
   45.7780   35.4630   42.7540 C   0  0  0  0  0  0  0  0  0  0  0  0
   45.1070   36.6350   43.0480 F   0  0  0  0  0  0  0  0  0  0  0  0
   44.9430   34.7210   41.8930 F   0  0  0  0  0  0  0  0  0  0  0  0
   46.9780   35.6640   42.2500 F   0  0  0  0  0  0  0  0  0  0  0  0
   45.7160   32.7590   47.6520 O   0  0  0  0  0  0  0  0  0  0  0  0
   45.2730   31.4440   47.7670 C   0  0  0  0  0  0  0  0  0  0  0  0
   44.6610   31.1800   46.8560 H   0  0  0  0  0  0  0  0  0  0  0  0
   44.6360   31.2840   48.6730 H   0  0  0  0  0  0  0  0  0  0  0  0
   46.4450   30.5770   47.8280 C   0  0  0  0  0  0  0  0  0  0  0  0
   46.6520   29.3300   47.2610 C   0  0  0  0  0  0  0  0  0  0  0  0
   47.8520   28.7240   47.4660 C   0  0  0  0  0  0  0  0  0  0  0  0
   48.8180   29.2890   48.1870 N   0  0  0  0  0  0  0  0  0  0  0  0
   48.6100   30.4940   48.7320 C   0  0  0  0  0  0  0  0  0  0  0  0
   47.4330   31.1540   48.5650 N   0  0  0  0  0  0  0  0  0  0  0  0
   45.8030   28.9660   46.6950 H   0  0  0  0  0  0  0  0  0  0  0  0
   47.9860   27.7380   47.0060 H   0  0  0  0  0  0  0  0  0  0  0  0
   49.7530   31.0350   49.5160 C   0  0  0  0  0  0  0  0  0  0  0  0
   49.7860   32.4060   49.4670 F   0  0  0  0  0  0  0  0  0  0  0  0
   50.9650   30.5380   49.0130 F   0  0  0  0  0  0  0  0  0  0  0  0
   49.6910   30.6750   50.8460 F   0  0  0  0  0  0  0  0  0  0  0  0
   47.8900   33.3690   43.4730 C   0  0  0  0  0  2  0  0  0  0  0  0
   47.7380   32.0520   42.8080 C   0  0  1  0  0  0  0  0  0  0  0  0
   46.3660   31.7700   42.2350 C   0  0  0  0  0  2  0  0  0  0  0  0
   46.3400   32.0540   40.8390 N   0  0  0  0  0  0  0  0  0  0  0  0
   46.0410   32.5410   39.5380 C   0  0  0  0  0  0  0  0  0  0  0  0
   45.1860   33.2320   38.9270 O   0  0  0  0  0  0  0  0  0  0  0  0
   47.2270   31.9200   38.8910 C   0  0  0  0  0  3  0  0  0  0  0  0
   47.0200   31.1680   38.1110 H   0  0  0  0  0  0  0  0  0  0  0  0
   47.4270   31.2790   40.2180 C   0  0  1  0  0  3  0  0  0  0  0  0
   48.7560   32.0500   41.2320 S   0  0  0  0  0  0  0  0  0  0  0  0
   48.1370   30.8220   43.5790 C   0  0  0  0  0  2  0  0  0  0  0  0
   49.2080   30.5700   43.4700 H   0  0  0  0  0  0  0  0  0  0  0  0
  1  6  1  0  0  0  0
  2  3  1  0  0  0  0
  2  1  2  0  0  0  0
  3  4  2  0  0  0  0
  4  5  1  0  0  0  0
  5 12  1  0  0  0  0
  6  5  2  0  0  0  0
  7  1  1  0  0  0  0
  8  9  1  0  0  0  0
  8  2  1  0  0  0  0
 10  8  1  0  0  0  0
 11  8  1  0  0  0  0
 12 13  1  0  0  0  0
 13 16  1  0  0  0  0
 13 15  1  0  0  0  0
 14 13  1  0  0  0  0
 16 21  1  0  0  0  0
 17 18  1  0  0  0  0
 17 16  2  0  0  0  0
 18 19  2  0  0  0  0
 19 20  1  0  0  0  0
 20 24  1  0  0  0  0
 21 20  2  0  0  0  0
 22 17  1  0  0  0  0
 23 18  1  0  0  0  0
 24 27  1  0  0  0  0
 25 24  1  0  0  0  0
 26 24  1  0  0  0  0
 28  3  1  0  0  0  0
 29 28  1  1  0  0  0
 29 38  1  0  0  0  0
 30 29  1  0  0  0  0
 31 30  1  0  0  0  0
 32 31  1  0  0  0  0
 33 32  2  0  0  0  0
 34 32  1  0  0  0  0
 35 34  1  0  0  0  0
 36 34  1  6  0  0  0
 36 31  1  0  0  0  0
 36 37  1  0  0  0  0
 37 29  1  0  0  0  0
 39 38  1  0  0  0  0
M  END
>  <minimizedAffinity>
-6.01054668

>  <minimizedRMSD>
1.63839269

$$$$
