
 OpenBabel03242522523D

 29 31  0  0  1  0  0  0  0  0999 V2000
   37.3600   28.9140   40.8780 O   0  0  0  0  0  0  0  0  0  0  0  0
   35.1320   29.2580   39.5990 O   0  0  0  0  0  0  0  0  0  0  0  0
   36.3200   30.0120   40.2220 P   0  0  1  0  0  0  0  0  0  0  0  0
   35.6860   31.0700   41.3680 O   0  0  0  0  0  0  0  0  0  0  0  0
   35.4530   31.9320   40.9780 H   0  0  0  0  0  0  0  0  0  0  0  0
   37.0750   30.9100   39.0080 O   0  0  0  0  0  0  0  0  0  0  0  0
   40.0530   32.9820   39.2120 C   0  0  0  0  0  0  0  0  0  0  0  0
   39.1920   31.9070   38.9290 C   0  0  0  0  0  0  0  0  0  0  0  0
   37.8750   31.9920   39.3080 C   0  0  0  0  0  0  0  0  0  0  0  0
   37.4770   33.1210   39.9430 N   0  0  0  0  0  0  0  0  0  0  0  0
   38.2880   34.1490   40.2160 C   0  0  0  0  0  0  0  0  0  0  0  0
   39.5810   34.0780   39.8500 N   0  0  0  0  0  0  0  0  0  0  0  0
   41.1010   33.0120   38.9570 H   0  0  0  0  0  0  0  0  0  0  0  0
   39.7220   31.1230   38.4180 H   0  0  0  0  0  0  0  0  0  0  0  0
   37.8970   35.0040   40.7200 H   0  0  0  0  0  0  0  0  0  0  0  0
   37.3970   28.2830   42.0690 C   0  0  0  0  0  0  0  0  0  0  0  0
   37.2870   29.0660   43.0760 O   0  0  0  0  0  0  0  0  0  0  0  0
   41.0960   25.8690   42.0520 C   0  0  0  0  0  0  0  0  0  0  0  0
   40.1840   24.9700   42.9060 C   0  0  0  0  0  2  0  0  0  0  0  0
   38.8190   25.4620   42.6600 N   0  0  0  0  0  0  0  0  0  0  0  0
   37.4750   25.7870   42.3330 C   0  0  0  0  0  0  0  0  0  0  0  0
   36.7140   25.0050   41.6970 O   0  0  0  0  0  0  0  0  0  0  0  0
   37.5020   27.1180   42.9640 C   0  0  1  0  0  3  0  0  0  0  0  0
   38.8750   26.7630   43.3650 C   0  0  2  0  0  3  0  0  0  0  0  0
   40.2530   27.4690   42.4170 S   0  0  0  0  0  0  0  0  0  0  0  0
   42.4930   25.8430   42.5710 C   0  0  0  0  0  2  0  0  0  0  0  0
   42.5820   26.5460   43.4130 H   0  0  0  0  0  0  0  0  0  0  0  0
   40.9410   25.4770   40.6160 C   0  0  0  0  0  2  0  0  0  0  0  0
   41.8570   24.9910   40.1990 H   0  0  0  0  0  0  0  0  0  0  0  0
  1 16  1  0  0  0  0
  3  2  2  6  0  0  0
  3  1  1  0  0  0  0
  3  4  1  0  0  0  0
  5  4  1  0  0  0  0
  6  9  1  0  0  0  0
  6  3  1  0  0  0  0
  7 12  1  0  0  0  0
  8  7  2  0  0  0  0
  8  9  1  0  0  0  0
  9 10  2  0  0  0  0
 10 11  1  0  0  0  0
 11 15  1  0  0  0  0
 12 11  2  0  0  0  0
 13  7  1  0  0  0  0
 14  8  1  0  0  0  0
 16 17  2  0  0  0  0
 18 25  1  0  0  0  0
 18 26  1  0  0  0  0
 18 19  1  0  0  0  0
 20 19  1  0  0  0  0
 20 24  1  0  0  0  0
 21 20  1  0  0  0  0
 21 23  1  0  0  0  0
 22 21  2  0  0  0  0
 23 16  1  6  0  0  0
 23 24  1  0  0  0  0
 24 25  1  6  0  0  0
 26 27  1  0  0  0  0
 28 18  1  0  0  0  0
 29 28  1  0  0  0  0
M  END
>  <minimizedAffinity>
-5.50665331

$$$$

 OpenBabel03242522523D

 29 31  0  0  1  0  0  0  0  0999 V2000
   38.1960   30.2360   41.6730 O   0  0  0  0  0  0  0  0  0  0  0  0
   36.3840   28.8700   40.4200 O   0  0  0  0  0  0  0  0  0  0  0  0
   36.8540   30.3040   40.7180 P   0  0  1  0  0  0  0  0  0  0  0  0
   35.5700   31.1000   41.4600 O   0  0  0  0  0  0  0  0  0  0  0  0
   34.9770   31.5200   40.8090 H   0  0  0  0  0  0  0  0  0  0  0  0
   37.1960   31.0660   39.2500 O   0  0  0  0  0  0  0  0  0  0  0  0
   40.4050   32.0040   37.8230 C   0  0  0  0  0  0  0  0  0  0  0  0
   39.1940   31.3270   38.0570 C   0  0  0  0  0  0  0  0  0  0  0  0
   38.3690   31.7670   39.0620 C   0  0  0  0  0  0  0  0  0  0  0  0
   38.7740   32.8430   39.7800 N   0  0  0  0  0  0  0  0  0  0  0  0
   39.9230   33.4930   39.5650 C   0  0  0  0  0  0  0  0  0  0  0  0
   40.7410   33.0710   38.5840 N   0  0  0  0  0  0  0  0  0  0  0  0
   41.1190   31.7360   37.0610 H   0  0  0  0  0  0  0  0  0  0  0  0
   39.0790   30.5100   37.3680 H   0  0  0  0  0  0  0  0  0  0  0  0
   40.1700   34.3330   40.1740 H   0  0  0  0  0  0  0  0  0  0  0  0
   38.6910   29.2860   42.4920 C   0  0  0  0  0  0  0  0  0  0  0  0
   39.8930   29.5050   42.8760 O   0  0  0  0  0  0  0  0  0  0  0  0
   38.4990   25.4260   40.3530 C   0  0  0  0  0  0  0  0  0  0  0  0
   38.2380   24.9560   41.7940 C   0  0  0  0  0  2  0  0  0  0  0  0
   37.8870   26.1750   42.5400 N   0  0  0  0  0  0  0  0  0  0  0  0
   37.3840   27.2870   43.2660 C   0  0  0  0  0  0  0  0  0  0  0  0
   36.1880   27.3620   43.6670 O   0  0  0  0  0  0  0  0  0  0  0  0
   38.6540   28.0330   43.2660 C   0  0  1  0  0  3  0  0  0  0  0  0
   39.2020   26.8550   42.5700 C   0  0  2  0  0  3  0  0  0  0  0  0
   39.4400   26.9560   40.7730 S   0  0  0  0  0  0  0  0  0  0  0  0
   39.3390   24.4370   39.6200 C   0  0  0  0  0  2  0  0  0  0  0  0
   40.3990   24.6040   39.8700 H   0  0  0  0  0  0  0  0  0  0  0  0
   37.1840   25.7440   39.7110 C   0  0  0  0  0  2  0  0  0  0  0  0
   36.9110   25.0230   38.9030 H   0  0  0  0  0  0  0  0  0  0  0  0
  1 16  1  0  0  0  0
  3  2  2  6  0  0  0
  3  4  1  0  0  0  0
  3  1  1  0  0  0  0
  5  4  1  0  0  0  0
  6  3  1  0  0  0  0
  7  8  2  0  0  0  0
  7 12  1  0  0  0  0
  8  9  1  0  0  0  0
  9  6  1  0  0  0  0
  9 10  2  0  0  0  0
 11 10  1  0  0  0  0
 11 15  1  0  0  0  0
 12 11  2  0  0  0  0
 13  7  1  0  0  0  0
 14  8  1  0  0  0  0
 16 17  2  0  0  0  0
 18 25  1  0  0  0  0
 18 19  1  0  0  0  0
 19 20  1  0  0  0  0
 20 24  1  0  0  0  0
 20 21  1  0  0  0  0
 21 23  1  0  0  0  0
 21 22  2  0  0  0  0
 23 16  1  6  0  0  0
 24 25  1  6  0  0  0
 24 23  1  0  0  0  0
 26 27  1  0  0  0  0
 26 18  1  0  0  0  0
 28 18  1  0  0  0  0
 29 28  1  0  0  0  0
M  END
>  <minimizedAffinity>
-5.35672522

$$$$

 OpenBabel03242522523D

 29 31  0  0  1  0  0  0  0  0999 V2000
   36.7000   28.4620   40.5190 O   0  0  0  0  0  0  0  0  0  0  0  0
   34.4110   29.3230   39.6580 O   0  0  0  0  0  0  0  0  0  0  0  0
   35.7970   29.7880   40.1380 P   0  0  1  0  0  0  0  0  0  0  0  0
   35.5470   30.8030   41.4580 O   0  0  0  0  0  0  0  0  0  0  0  0
   35.4240   31.7300   41.1860 H   0  0  0  0  0  0  0  0  0  0  0  0
   36.5200   30.6740   38.8960 O   0  0  0  0  0  0  0  0  0  0  0  0
   39.7140   32.4080   38.8250 C   0  0  0  0  0  0  0  0  0  0  0  0
   38.7050   31.4570   38.5860 C   0  0  0  0  0  0  0  0  0  0  0  0
   37.4710   31.6370   39.1620 C   0  0  0  0  0  0  0  0  0  0  0  0
   37.2950   32.7340   39.9370 N   0  0  0  0  0  0  0  0  0  0  0  0
   38.2470   33.6440   40.1700 C   0  0  0  0  0  0  0  0  0  0  0  0
   39.4610   33.4790   39.6120 N   0  0  0  0  0  0  0  0  0  0  0  0
   40.7120   32.3570   38.4220 H   0  0  0  0  0  0  0  0  0  0  0  0
   39.0670   30.6770   37.9420 H   0  0  0  0  0  0  0  0  0  0  0  0
   38.0290   34.4820   40.7920 H   0  0  0  0  0  0  0  0  0  0  0  0
   37.1430   27.9590   41.6890 C   0  0  0  0  0  0  0  0  0  0  0  0
   36.2520   27.9180   42.6080 O   0  0  0  0  0  0  0  0  0  0  0  0
   41.0550   29.9530   42.1620 C   0  0  0  0  0  0  0  0  0  0  0  0
   41.3250   28.6360   42.9090 C   0  0  0  0  0  2  0  0  0  0  0  0
   40.2460   27.7270   42.4900 N   0  0  0  0  0  0  0  0  0  0  0  0
   39.3290   26.7620   41.9960 C   0  0  0  0  0  0  0  0  0  0  0  0
   39.6810   25.7820   41.2820 O   0  0  0  0  0  0  0  0  0  0  0  0
   38.1400   27.3820   42.6070 C   0  0  1  0  0  3  0  0  0  0  0  0
   39.0930   28.3500   43.1780 C   0  0  2  0  0  3  0  0  0  0  0  0
   39.2250   29.9840   42.3980 S   0  0  0  0  0  0  0  0  0  0  0  0
   41.7250   31.0940   42.8480 C   0  0  0  0  0  2  0  0  0  0  0  0
   41.0970   31.4350   43.6860 H   0  0  0  0  0  0  0  0  0  0  0  0
   41.4250   29.7690   40.7230 C   0  0  0  0  0  2  0  0  0  0  0  0
   42.3270   30.3600   40.4290 H   0  0  0  0  0  0  0  0  0  0  0  0
  1 16  1  0  0  0  0
  3  2  2  6  0  0  0
  3  1  1  0  0  0  0
  3  4  1  0  0  0  0
  5  4  1  0  0  0  0
  6  9  1  0  0  0  0
  6  3  1  0  0  0  0
  7 12  1  0  0  0  0
  8  7  2  0  0  0  0
  8  9  1  0  0  0  0
  9 10  2  0  0  0  0
 10 11  1  0  0  0  0
 11 15  1  0  0  0  0
 12 11  2  0  0  0  0
 13  7  1  0  0  0  0
 14  8  1  0  0  0  0
 16 17  2  0  0  0  0
 18 25  1  0  0  0  0
 18 26  1  0  0  0  0
 18 19  1  0  0  0  0
 20 19  1  0  0  0  0
 20 24  1  0  0  0  0
 21 20  1  0  0  0  0
 21 23  1  0  0  0  0
 22 21  2  0  0  0  0
 23 16  1  6  0  0  0
 23 24  1  0  0  0  0
 24 25  1  6  0  0  0
 26 27  1  0  0  0  0
 28 18  1  0  0  0  0
 29 28  1  0  0  0  0
M  END
>  <minimizedAffinity>
-5.28743982

$$$$

 OpenBabel03242522523D

 29 31  0  0  1  0  0  0  0  0999 V2000
   37.0390   28.6710   40.8270 O   0  0  0  0  0  0  0  0  0  0  0  0
   34.6040   29.0910   40.0420 O   0  0  0  0  0  0  0  0  0  0  0  0
   35.9540   29.7880   40.2850 P   0  0  1  0  0  0  0  0  0  0  0  0
   35.6790   31.0200   41.3990 O   0  0  0  0  0  0  0  0  0  0  0  0
   35.4230   31.8530   40.9640 H   0  0  0  0  0  0  0  0  0  0  0  0
   36.4680   30.4720   38.8290 O   0  0  0  0  0  0  0  0  0  0  0  0
   36.3970   28.6600   35.6790 C   0  0  0  0  0  0  0  0  0  0  0  0
   36.0050   29.4570   36.7700 C   0  0  0  0  0  0  0  0  0  0  0  0
   36.9040   29.6870   37.7830 C   0  0  0  0  0  0  0  0  0  0  0  0
   38.1320   29.1250   37.6700 N   0  0  0  0  0  0  0  0  0  0  0  0
   38.5140   28.3670   36.6360 C   0  0  0  0  0  0  0  0  0  0  0  0
   37.6430   28.1340   35.6380 N   0  0  0  0  0  0  0  0  0  0  0  0
   35.7670   28.4210   34.8370 H   0  0  0  0  0  0  0  0  0  0  0  0
   34.9930   29.7970   36.6460 H   0  0  0  0  0  0  0  0  0  0  0  0
   39.5010   27.9610   36.6220 H   0  0  0  0  0  0  0  0  0  0  0  0
   37.2060   28.0570   42.0160 C   0  0  0  0  0  0  0  0  0  0  0  0
   37.1420   28.8450   43.0220 O   0  0  0  0  0  0  0  0  0  0  0  0
   40.9560   25.7550   41.6300 C   0  0  0  0  0  0  0  0  0  0  0  0
   40.1690   24.8420   42.5870 C   0  0  0  0  0  2  0  0  0  0  0  0
   38.7710   25.2890   42.4830 N   0  0  0  0  0  0  0  0  0  0  0  0
   37.3910   25.5690   42.2990 C   0  0  0  0  0  0  0  0  0  0  0  0
   36.5910   24.7550   41.7570 O   0  0  0  0  0  0  0  0  0  0  0  0
   37.4430   26.9090   42.9080 C   0  0  1  0  0  3  0  0  0  0  0  0
   38.8610   26.6010   43.1630 C   0  0  2  0  0  3  0  0  0  0  0  0
   40.1070   27.3350   42.0650 S   0  0  0  0  0  0  0  0  0  0  0  0
   42.4000   25.7790   41.9960 C   0  0  0  0  0  2  0  0  0  0  0  0
   42.5570   26.4970   42.8160 H   0  0  0  0  0  0  0  0  0  0  0  0
   40.6610   25.3370   40.2240 C   0  0  0  0  0  2  0  0  0  0  0  0
   41.5420   24.8730   39.7170 H   0  0  0  0  0  0  0  0  0  0  0  0
  1 16  1  0  0  0  0
  3  2  2  6  0  0  0
  3  1  1  0  0  0  0
  3  4  1  0  0  0  0
  5  4  1  0  0  0  0
  6  3  1  0  0  0  0
  7  8  1  0  0  0  0
  8  9  2  0  0  0  0
  9  6  1  0  0  0  0
 10  9  1  0  0  0  0
 11 10  2  0  0  0  0
 12  7  2  0  0  0  0
 12 11  1  0  0  0  0
 13  7  1  0  0  0  0
 14  8  1  0  0  0  0
 15 11  1  0  0  0  0
 16 17  2  0  0  0  0
 18 26  1  0  0  0  0
 18 25  1  0  0  0  0
 18 19  1  0  0  0  0
 20 19  1  0  0  0  0
 20 24  1  0  0  0  0
 21 20  1  0  0  0  0
 21 23  1  0  0  0  0
 22 21  2  0  0  0  0
 23 16  1  6  0  0  0
 23 24  1  0  0  0  0
 24 25  1  6  0  0  0
 26 27  1  0  0  0  0
 28 18  1  0  0  0  0
 29 28  1  0  0  0  0
M  END
>  <minimizedAffinity>
-5.27696419

$$$$

 OpenBabel03242522523D

 29 31  0  0  1  0  0  0  0  0999 V2000
   37.1810   29.2440   39.8500 O   0  0  0  0  0  0  0  0  0  0  0  0
   38.1640   30.3810   41.9630 O   0  0  0  0  0  0  0  0  0  0  0  0
   36.8990   29.7020   41.4090 P   0  0  1  0  0  0  0  0  0  0  0  0
   35.6430   30.8160   41.5400 O   0  0  0  0  0  0  0  0  0  0  0  0
   35.1940   30.7580   42.4030 H   0  0  0  0  0  0  0  0  0  0  0  0
   36.5460   28.3640   42.3770 O   0  0  0  0  0  0  0  0  0  0  0  0
   38.2610   25.1630   42.2300 C   0  0  0  0  0  0  0  0  0  0  0  0
   37.3250   26.1880   42.0020 C   0  0  0  0  0  0  0  0  0  0  0  0
   37.4940   27.3960   42.6340 C   0  0  0  0  0  0  0  0  0  0  0  0
   38.5660   27.5310   43.4520 N   0  0  0  0  0  0  0  0  0  0  0  0
   39.4610   26.5630   43.6750 C   0  0  0  0  0  0  0  0  0  0  0  0
   39.3070   25.3750   43.0620 N   0  0  0  0  0  0  0  0  0  0  0  0
   38.2170   24.1830   41.7840 H   0  0  0  0  0  0  0  0  0  0  0  0
   36.5640   25.8590   41.3180 H   0  0  0  0  0  0  0  0  0  0  0  0
   40.2800   26.7490   44.3330 H   0  0  0  0  0  0  0  0  0  0  0  0
   37.4370   29.9380   38.7230 C   0  0  0  0  0  0  0  0  0  0  0  0
   37.2450   29.2710   37.6470 O   0  0  0  0  0  0  0  0  0  0  0  0
   41.3330   31.8420   39.5630 C   0  0  0  0  0  0  0  0  0  0  0  0
   40.7130   32.8880   38.6210 C   0  0  0  0  0  2  0  0  0  0  0  0
   39.2760   32.5690   38.5850 N   0  0  0  0  0  0  0  0  0  0  0  0
   37.8660   32.4100   38.6420 C   0  0  0  0  0  0  0  0  0  0  0  0
   37.1010   33.2580   39.1820 O   0  0  0  0  0  0  0  0  0  0  0  0
   37.8490   31.1160   37.9400 C   0  0  1  0  0  3  0  0  0  0  0  0
   39.3050   31.3040   37.8170 C   0  0  2  0  0  3  0  0  0  0  0  0
   40.3860   30.3830   38.9480 S   0  0  0  0  0  0  0  0  0  0  0  0
   42.7950   31.7060   39.3080 C   0  0  0  0  0  2  0  0  0  0  0  0
   42.9540   31.0330   38.4500 H   0  0  0  0  0  0  0  0  0  0  0  0
   40.9620   32.1890   40.9710 C   0  0  0  0  0  2  0  0  0  0  0  0
   41.8360   32.5320   41.5770 H   0  0  0  0  0  0  0  0  0  0  0  0
  1  3  1  0  0  0  0
  3  4  1  0  0  0  0
  3  2  2  1  0  0  0
  3  6  1  0  0  0  0
  4  5  1  0  0  0  0
  6  9  1  0  0  0  0
  7 12  1  0  0  0  0
  8  7  2  0  0  0  0
  8  9  1  0  0  0  0
  9 10  2  0  0  0  0
 10 11  1  0  0  0  0
 11 15  1  0  0  0  0
 12 11  2  0  0  0  0
 13  7  1  0  0  0  0
 14  8  1  0  0  0  0
 16  1  1  0  0  0  0
 17 16  2  0  0  0  0
 18 28  1  0  0  0  0
 19 18  1  0  0  0  0
 20 19  1  0  0  0  0
 20 21  1  0  0  0  0
 21 22  2  0  0  0  0
 23 21  1  0  0  0  0
 23 16  1  1  0  0  0
 24 23  1  0  0  0  0
 24 20  1  0  0  0  0
 24 25  1  1  0  0  0
 25 18  1  0  0  0  0
 26 18  1  0  0  0  0
 27 26  1  0  0  0  0
 28 29  1  0  0  0  0
M  END
>  <minimizedAffinity>
-5.23360968

$$$$

 OpenBabel03242522523D

 29 31  0  0  1  0  0  0  0  0999 V2000
   37.7940   29.1690   41.1430 O   0  0  0  0  0  0  0  0  0  0  0  0
   36.9160   30.5950   39.1630 O   0  0  0  0  0  0  0  0  0  0  0  0
   37.1650   30.6220   40.6820 P   0  0  1  0  0  0  0  0  0  0  0  0
   35.6870   30.9520   41.4170 O   0  0  0  0  0  0  0  0  0  0  0  0
   35.5330   31.9100   41.5110 H   0  0  0  0  0  0  0  0  0  0  0  0
   38.2390   31.8800   41.0220 O   0  0  0  0  0  0  0  0  0  0  0  0
   41.8200   31.5480   40.5030 C   0  0  0  0  0  0  0  0  0  0  0  0
   40.4540   31.7890   40.2700 C   0  0  0  0  0  0  0  0  0  0  0  0
   39.5660   31.6340   41.3050 C   0  0  0  0  0  0  0  0  0  0  0  0
   40.0620   31.2520   42.5070 N   0  0  0  0  0  0  0  0  0  0  0  0
   41.3590   31.0210   42.7380 C   0  0  0  0  0  0  0  0  0  0  0  0
   42.2410   31.1690   41.7320 N   0  0  0  0  0  0  0  0  0  0  0  0
   42.5950   31.6410   39.7590 H   0  0  0  0  0  0  0  0  0  0  0  0
   40.2920   32.0830   39.2490 H   0  0  0  0  0  0  0  0  0  0  0  0
   41.6720   30.7240   43.7140 H   0  0  0  0  0  0  0  0  0  0  0  0
   37.6060   28.3920   42.2280 C   0  0  0  0  0  0  0  0  0  0  0  0
   37.3820   29.0480   43.3050 O   0  0  0  0  0  0  0  0  0  0  0  0
   41.1170   25.7190   42.4240 C   0  0  0  0  0  0  0  0  0  0  0  0
   40.0330   24.7940   43.0040 C   0  0  0  0  0  2  0  0  0  0  0  0
   38.7540   25.4180   42.6300 N   0  0  0  0  0  0  0  0  0  0  0  0
   37.4990   25.8850   42.1580 C   0  0  0  0  0  0  0  0  0  0  0  0
   36.8020   25.2510   41.3170 O   0  0  0  0  0  0  0  0  0  0  0  0
   37.5040   27.1190   42.9620 C   0  0  1  0  0  3  0  0  0  0  0  0
   38.7750   26.6100   43.5070 C   0  0  2  0  0  3  0  0  0  0  0  0
   40.3220   27.3210   42.8770 S   0  0  0  0  0  0  0  0  0  0  0  0
   42.4130   25.5190   43.1330 C   0  0  0  0  0  2  0  0  0  0  0  0
   42.4100   26.1010   44.0680 H   0  0  0  0  0  0  0  0  0  0  0  0
   41.1660   25.5250   40.9410 C   0  0  0  0  0  2  0  0  0  0  0  0
   42.1050   25.0250   40.6000 H   0  0  0  0  0  0  0  0  0  0  0  0
  1 16  1  0  0  0  0
  3  2  2  6  0  0  0
  3  6  1  0  0  0  0
  3  1  1  0  0  0  0
  3  4  1  0  0  0  0
  4  5  1  0  0  0  0
  6  9  1  0  0  0  0
  7 12  1  0  0  0  0
  8  7  2  0  0  0  0
  8  9  1  0  0  0  0
  9 10  2  0  0  0  0
 10 11  1  0  0  0  0
 11 15  1  0  0  0  0
 12 11  2  0  0  0  0
 13  7  1  0  0  0  0
 14  8  1  0  0  0  0
 16 17  2  0  0  0  0
 18 25  1  0  0  0  0
 18 19  1  0  0  0  0
 18 26  1  0  0  0  0
 20 19  1  0  0  0  0
 20 24  1  0  0  0  0
 21 20  1  0  0  0  0
 21 23  1  0  0  0  0
 22 21  2  0  0  0  0
 23 16  1  6  0  0  0
 23 24  1  0  0  0  0
 24 25  1  6  0  0  0
 26 27  1  0  0  0  0
 28 18  1  0  0  0  0
 29 28  1  0  0  0  0
M  END
>  <minimizedAffinity>
-5.207335

$$$$

 OpenBabel03242522523D

 29 31  0  0  1  0  0  0  0  0999 V2000
   37.9710   29.2540   40.9810 O   0  0  0  0  0  0  0  0  0  0  0  0
   39.2440   30.3670   42.9470 O   0  0  0  0  0  0  0  0  0  0  0  0
   38.3600   29.1620   42.5810 P   0  0  1  0  0  0  0  0  0  0  0  0
   37.0070   29.2210   43.5810 O   0  0  0  0  0  0  0  0  0  0  0  0
   37.1550   28.7500   44.4220 H   0  0  0  0  0  0  0  0  0  0  0  0
   39.2230   27.7490   42.9120 O   0  0  0  0  0  0  0  0  0  0  0  0
   39.1630   24.2130   42.0750 C   0  0  0  0  0  0  0  0  0  0  0  0
   39.6270   25.5000   42.4010 C   0  0  0  0  0  0  0  0  0  0  0  0
   38.7140   26.5070   42.5970 C   0  0  0  0  0  0  0  0  0  0  0  0
   37.4020   26.1980   42.4630 N   0  0  0  0  0  0  0  0  0  0  0  0
   36.9500   24.9770   42.1540 C   0  0  0  0  0  0  0  0  0  0  0  0
   37.8350   23.9820   41.9590 N   0  0  0  0  0  0  0  0  0  0  0  0
   39.7970   23.3580   41.9020 H   0  0  0  0  0  0  0  0  0  0  0  0
   40.7010   25.5110   42.4580 H   0  0  0  0  0  0  0  0  0  0  0  0
   35.9000   24.8140   42.0670 H   0  0  0  0  0  0  0  0  0  0  0  0
   37.1200   30.0370   40.2880 C   0  0  0  0  0  0  0  0  0  0  0  0
   36.1400   30.4810   40.9820 O   0  0  0  0  0  0  0  0  0  0  0  0
   37.1780   27.9730   36.3830 C   0  0  0  0  0  0  0  0  0  0  0  0
   36.8200   29.4010   35.9350 C   0  0  0  0  0  2  0  0  0  0  0  0
   37.1550   30.2600   37.0830 N   0  0  0  0  0  0  0  0  0  0  0  0
   37.6120   31.1490   38.0910 C   0  0  0  0  0  0  0  0  0  0  0  0
   38.5840   31.9380   37.9230 O   0  0  0  0  0  0  0  0  0  0  0  0
   36.6150   30.7370   39.0940 C   0  0  1  0  0  3  0  0  0  0  0  0
   36.0930   29.8590   38.0320 C   0  0  2  0  0  3  0  0  0  0  0  0
   36.5100   28.0940   38.0990 S   0  0  0  0  0  0  0  0  0  0  0  0
   36.4420   26.9660   35.5670 C   0  0  0  0  0  2  0  0  0  0  0  0
   35.4240   26.8430   35.9710 H   0  0  0  0  0  0  0  0  0  0  0  0
   38.6680   27.8310   36.3780 C   0  0  0  0  0  2  0  0  0  0  0  0
   39.0340   27.1440   35.5780 H   0  0  0  0  0  0  0  0  0  0  0  0
  1  3  1  0  0  0  0
  3  6  1  0  0  0  0
  3  2  2  1  0  0  0
  3  4  1  0  0  0  0
  4  5  1  0  0  0  0
  7  8  1  0  0  0  0
  8 14  1  0  0  0  0
  8  9  2  0  0  0  0
  9  6  1  0  0  0  0
 10  9  1  0  0  0  0
 11 10  2  0  0  0  0
 12  7  2  0  0  0  0
 12 11  1  0  0  0  0
 13  7  1  0  0  0  0
 15 11  1  0  0  0  0
 16  1  1  0  0  0  0
 16 17  2  0  0  0  0
 18 25  1  0  0  0  0
 19 18  1  0  0  0  0
 19 20  1  0  0  0  0
 20 24  1  0  0  0  0
 20 21  1  0  0  0  0
 21 23  1  0  0  0  0
 22 21  2  0  0  0  0
 23 16  1  1  0  0  0
 24 25  1  1  0  0  0
 24 23  1  0  0  0  0
 26 27  1  0  0  0  0
 26 18  1  0  0  0  0
 28 18  1  0  0  0  0
 29 28  1  0  0  0  0
M  END
>  <minimizedAffinity>
-5.14091396

$$$$

 OpenBabel03242522523D

 29 31  0  0  1  0  0  0  0  0999 V2000
   39.7520   31.6780   39.7790 O   0  0  0  0  0  0  0  0  0  0  0  0
   41.0470   33.6240   38.6580 O   0  0  0  0  0  0  0  0  0  0  0  0
   41.1110   32.6120   39.8150 P   0  0  1  0  0  0  0  0  0  0  0  0
   41.2510   33.4990   41.2390 O   0  0  0  0  0  0  0  0  0  0  0  0
   42.1810   33.6850   41.4620 H   0  0  0  0  0  0  0  0  0  0  0  0
   42.4980   31.6680   39.6200 O   0  0  0  0  0  0  0  0  0  0  0  0
   42.6520   30.1770   36.3100 C   0  0  0  0  0  0  0  0  0  0  0  0
   42.2050   30.5290   37.5960 C   0  0  0  0  0  0  0  0  0  0  0  0
   42.9830   31.3570   38.3670 C   0  0  0  0  0  0  0  0  0  0  0  0
   44.1520   31.7910   37.8380 N   0  0  0  0  0  0  0  0  0  0  0  0
   44.5860   31.4620   36.6160 C   0  0  0  0  0  0  0  0  0  0  0  0
   43.8330   30.6510   35.8510 N   0  0  0  0  0  0  0  0  0  0  0  0
   42.1170   29.5350   35.6290 H   0  0  0  0  0  0  0  0  0  0  0  0
   41.2530   30.0740   37.8020 H   0  0  0  0  0  0  0  0  0  0  0  0
   45.5190   31.8470   36.2720 H   0  0  0  0  0  0  0  0  0  0  0  0
   38.4520   31.9410   40.0180 C   0  0  0  0  0  0  0  0  0  0  0  0
   38.2490   33.0480   40.6300 O   0  0  0  0  0  0  0  0  0  0  0  0
   36.9130   28.1620   41.7070 C   0  0  0  0  0  0  0  0  0  0  0  0
   35.6470   28.6870   41.0080 C   0  0  0  0  0  2  0  0  0  0  0  0
   36.1220   29.7300   40.0840 N   0  0  0  0  0  0  0  0  0  0  0  0
   36.5400   30.6240   39.0630 C   0  0  0  0  0  0  0  0  0  0  0  0
   36.4350   30.3590   37.8330 O   0  0  0  0  0  0  0  0  0  0  0  0
   37.0040   31.6740   39.9860 C   0  0  1  0  0  3  0  0  0  0  0  0
   36.5120   30.7810   41.0510 C   0  0  2  0  0  3  0  0  0  0  0  0
   37.7280   29.7960   41.9710 S   0  0  0  0  0  0  0  0  0  0  0  0
   36.5640   27.4980   42.9950 C   0  0  0  0  0  2  0  0  0  0  0  0
   36.4440   28.2620   43.7790 H   0  0  0  0  0  0  0  0  0  0  0  0
   37.6750   27.3130   40.7380 C   0  0  0  0  0  2  0  0  0  0  0  0
   37.6690   26.2300   41.0140 H   0  0  0  0  0  0  0  0  0  0  0  0
  1  3  1  0  0  0  0
  1 16  1  0  0  0  0
  3  2  2  6  0  0  0
  3  4  1  0  0  0  0
  4  5  1  0  0  0  0
  6  3  1  0  0  0  0
  7  8  1  0  0  0  0
  8 14  1  0  0  0  0
  8  9  2  0  0  0  0
  9  6  1  0  0  0  0
 10  9  1  0  0  0  0
 11 10  2  0  0  0  0
 12  7  2  0  0  0  0
 12 11  1  0  0  0  0
 13  7  1  0  0  0  0
 15 11  1  0  0  0  0
 16 17  2  0  0  0  0
 18 25  1  0  0  0  0
 18 26  1  0  0  0  0
 19 18  1  0  0  0  0
 20 19  1  0  0  0  0
 20 24  1  0  0  0  0
 21 23  1  0  0  0  0
 21 20  1  0  0  0  0
 22 21  2  0  0  0  0
 23 16  1  1  0  0  0
 23 24  1  0  0  0  0
 24 25  1  1  0  0  0
 26 27  1  0  0  0  0
 28 29  1  0  0  0  0
 28 18  1  0  0  0  0
M  END
>  <minimizedAffinity>
-5.03922224

$$$$

 OpenBabel03242522523D

 29 31  0  0  1  0  0  0  0  0999 V2000
   39.6080   31.8860   39.8640 O   0  0  0  0  0  0  0  0  0  0  0  0
   41.0740   33.5820   38.5620 O   0  0  0  0  0  0  0  0  0  0  0  0
   40.8900   32.9210   39.9390 P   0  0  1  0  0  0  0  0  0  0  0  0
   40.6580   34.1610   41.0540 O   0  0  0  0  0  0  0  0  0  0  0  0
   41.5020   34.4860   41.4170 H   0  0  0  0  0  0  0  0  0  0  0  0
   42.3110   32.0950   40.3260 O   0  0  0  0  0  0  0  0  0  0  0  0
   45.6280   33.4770   40.8670 C   0  0  0  0  0  0  0  0  0  0  0  0
   44.5280   32.8430   40.2610 C   0  0  0  0  0  0  0  0  0  0  0  0
   43.3560   32.7270   40.9670 C   0  0  0  0  0  0  0  0  0  0  0  0
   43.3260   33.2360   42.2220 N   0  0  0  0  0  0  0  0  0  0  0  0
   44.3660   33.8410   42.8060 C   0  0  0  0  0  0  0  0  0  0  0  0
   45.5210   33.9610   42.1260 N   0  0  0  0  0  0  0  0  0  0  0  0
   46.5890   33.6170   40.3990 H   0  0  0  0  0  0  0  0  0  0  0  0
   44.7790   32.5230   39.2660 H   0  0  0  0  0  0  0  0  0  0  0  0
   44.2620   34.2170   43.7990 H   0  0  0  0  0  0  0  0  0  0  0  0
   38.2770   32.0650   39.9840 C   0  0  0  0  0  0  0  0  0  0  0  0
   37.9460   33.2140   40.4430 O   0  0  0  0  0  0  0  0  0  0  0  0
   36.9770   28.2140   41.7110 C   0  0  0  0  0  0  0  0  0  0  0  0
   35.7080   28.6110   40.9360 C   0  0  0  0  0  2  0  0  0  0  0  0
   36.1400   29.6660   40.0060 N   0  0  0  0  0  0  0  0  0  0  0  0
   36.5330   30.5650   38.9790 C   0  0  0  0  0  0  0  0  0  0  0  0
   36.5120   30.2600   37.7540 O   0  0  0  0  0  0  0  0  0  0  0  0
   36.8600   31.6750   39.8910 C   0  0  1  0  0  3  0  0  0  0  0  0
   36.3920   30.7720   40.9570 C   0  0  2  0  0  3  0  0  0  0  0  0
   37.6380   29.9180   41.9640 S   0  0  0  0  0  0  0  0  0  0  0  0
   36.6210   27.5560   43.0000 C   0  0  0  0  0  2  0  0  0  0  0  0
   36.3970   28.3280   43.7540 H   0  0  0  0  0  0  0  0  0  0  0  0
   37.8550   27.4080   40.8060 C   0  0  0  0  0  2  0  0  0  0  0  0
   37.9260   26.3360   41.1130 H   0  0  0  0  0  0  0  0  0  0  0  0
  1  3  1  0  0  0  0
  1 16  1  0  0  0  0
  3  2  2  6  0  0  0
  3  6  1  0  0  0  0
  3  4  1  0  0  0  0
  4  5  1  0  0  0  0
  6  9  1  0  0  0  0
  7 12  1  0  0  0  0
  8  7  2  0  0  0  0
  8  9  1  0  0  0  0
  9 10  2  0  0  0  0
 10 11  1  0  0  0  0
 11 15  1  0  0  0  0
 12 11  2  0  0  0  0
 13  7  1  0  0  0  0
 14  8  1  0  0  0  0
 16 17  2  0  0  0  0
 18 25  1  0  0  0  0
 18 26  1  0  0  0  0
 19 18  1  0  0  0  0
 20 19  1  0  0  0  0
 20 24  1  0  0  0  0
 21 23  1  0  0  0  0
 21 20  1  0  0  0  0
 22 21  2  0  0  0  0
 23 16  1  1  0  0  0
 23 24  1  0  0  0  0
 24 25  1  1  0  0  0
 26 27  1  0  0  0  0
 28 29  1  0  0  0  0
 28 18  1  0  0  0  0
M  END
>  <minimizedAffinity>
-4.96628332

$$$$
