
 OpenBabel03252508513D

 31 34  0  0  1  0  0  0  0  0999 V2000
   45.9960   33.8490   41.2940 C   0  0  0  0  0  0  0  0  0  0  0  0
   46.5030   34.7230   42.2530 C   0  0  0  0  0  0  0  0  0  0  0  0
   47.7260   35.3410   41.9740 C   0  0  0  0  0  0  0  0  0  0  0  0
   48.3400   35.0510   40.7930 N   0  0  0  0  0  0  0  0  0  0  0  0
   47.8190   34.2040   39.8980 C   0  0  0  0  0  0  0  0  0  0  0  0
   46.6380   33.6010   40.1530 N   0  0  0  0  0  0  0  0  0  0  0  0
   48.1140   36.0090   42.7050 H   0  0  0  0  0  0  0  0  0  0  0  0
   48.2910   33.9620   38.9540 H   0  0  0  0  0  0  0  0  0  0  0  0
   45.7540   34.9590   43.4890 C   0  0  0  0  0  0  0  0  0  0  0  0
   45.0200   36.1150   43.7140 C   0  0  0  0  0  0  0  0  0  0  0  0
   44.4920   35.9170   44.9730 C   0  0  0  0  0  0  0  0  0  0  0  0
   44.8800   34.7220   45.4800 N   0  0  0  0  0  0  0  0  0  0  0  0
   45.6400   34.1660   44.5620 N   0  0  0  0  0  0  0  0  0  0  0  0
   44.8690   36.9930   43.0760 H   0  0  0  0  0  0  0  0  0  0  0  0
   43.8480   36.6140   45.5110 H   0  0  0  0  0  0  0  0  0  0  0  0
   44.5980   34.3650   46.4220 H   0  0  0  0  0  0  0  0  0  0  0  0
   44.7930   33.2320   41.5510 O   0  0  0  0  0  0  0  0  0  0  0  0
   43.5580   33.6250   41.1200 C   0  0  0  0  0  0  0  0  0  0  0  0
   42.8750   34.6250   41.5170 O   0  0  0  0  0  0  0  0  0  0  0  0
   39.2880   33.0390   38.3490 C   0  0  0  0  0  0  0  0  0  0  0  0
   40.2790   34.0290   37.7710 C   0  0  0  0  0  2  0  0  0  0  0  0
   41.5460   33.7950   38.4410 N   0  0  0  0  0  0  0  0  0  0  0  0
   42.9340   33.5070   38.7150 C   0  0  0  0  0  0  0  0  0  0  0  0
   43.9310   33.6430   37.9270 O   0  0  0  0  0  0  0  0  0  0  0  0
   42.5960   33.0740   40.0930 C   0  0  2  0  0  3  0  0  0  0  0  0
   41.3870   33.9260   39.8780 C   0  0  2  0  0  3  0  0  0  0  0  0
   39.8010   33.0520   40.1100 S   0  0  0  0  0  0  0  0  0  0  0  0
   37.8750   33.5590   38.2100 C   0  0  0  0  0  2  0  0  0  0  0  0
   37.7590   34.1530   37.2790 H   0  0  0  0  0  0  0  0  0  0  0  0
   39.3840   31.6750   37.7380 C   0  0  0  0  0  2  0  0  0  0  0  0
   40.1900   31.0380   38.1550 H   0  0  0  0  0  0  0  0  0  0  0  0
  1 17  1  0  0  0  0
  1  2  1  0  0  0  0
  2  9  1  0  0  0  0
  3  2  2  0  0  0  0
  3  7  1  0  0  0  0
  4  3  1  0  0  0  0
  5  6  1  0  0  0  0
  5  4  2  0  0  0  0
  6  1  2  0  0  0  0
  8  5  1  0  0  0  0
  9 10  1  0  0  0  0
  9 13  2  0  0  0  0
 10 11  2  0  0  0  0
 11 12  1  0  0  0  0
 11 15  1  0  0  0  0
 12 16  1  0  0  0  0
 13 12  1  0  0  0  0
 14 10  1  0  0  0  0
 18 19  2  0  0  0  0
 18 17  1  0  0  0  0
 20 27  1  0  0  0  0
 21 20  1  0  0  0  0
 21 22  1  0  0  0  0
 22 23  1  0  0  0  0
 22 26  1  0  0  0  0
 23 25  1  0  0  0  0
 24 23  2  0  0  0  0
 25 18  1  1  0  0  0
 26 25  1  0  0  0  0
 26 27  1  1  0  0  0
 28 20  1  0  0  0  0
 29 28  1  0  0  0  0
 30 31  1  0  0  0  0
 30 20  1  0  0  0  0
M  END
>  <minimizedAffinity>
-5.80638456

>  <minimizedRMSD>
0.57108891

$$$$
