
 OpenBabel03252501413D

 48 53  0  0  1  0  0  0  0  0999 V2000
   44.3790   34.5580   41.8480 C   0  0  0  0  0  0  0  0  0  0  0  0
   44.2690   33.3380   42.2460 O   0  0  0  0  0  0  0  0  0  0  0  0
   45.2300   35.3280   42.6960 N   0  0  0  0  0  0  0  0  0  0  0  0
   45.4680   36.3030   42.5240 H   0  0  0  0  0  0  0  0  0  0  0  0
   45.6770   34.5090   43.7990 C   0  0  0  0  0  0  0  0  0  0  0  0
   45.2100   34.5480   45.0750 C   0  0  0  0  0  0  0  0  0  0  0  0
   45.7720   33.6810   45.9760 C   0  0  0  0  0  0  0  0  0  0  0  0
   46.7500   32.8500   45.5270 N   0  0  0  0  0  0  0  0  0  0  0  0
   47.1910   32.8350   44.2620 C   0  0  0  0  0  0  0  0  0  0  0  0
   46.6460   33.6860   43.3560 N   0  0  0  0  0  0  0  0  0  0  0  0
   45.4170   33.6930   46.9960 H   0  0  0  0  0  0  0  0  0  0  0  0
   44.1920   35.4720   45.3620 N   0  0  0  0  0  0  0  0  0  0  0  0
   43.4680   35.0000   45.9440 H   0  0  0  0  0  0  0  0  0  0  0  0
   44.1340   36.4640   45.0640 H   0  0  0  0  0  0  0  0  0  0  0  0
   48.2670   31.8660   43.9350 C   0  0  0  0  0  2  0  0  0  0  0  0
   47.8680   31.0530   42.7300 C   0  0  1  0  0  0  0  0  0  0  0  0
   47.7670   31.8180   41.4820 C   0  0  0  0  0  2  0  0  0  0  0  0
   48.1980   31.1090   40.3580 N   0  0  1  0  0  0  0  0  0  0  0  0
   48.5210   30.8510   39.0190 C   0  0  1  0  0  0  0  0  0  0  0  0
   48.1530   31.1150   37.8450 O   0  0  0  0  0  1  0  0  0  0  0  0
   49.6500   30.0090   39.5620 C   0  0  0  0  0  3  0  0  0  0  0  0
   50.4700   30.6120   39.9880 H   0  0  0  0  0  0  0  0  0  0  0  0
   48.6060   29.7390   40.5910 C   0  0  1  0  0  0  0  0  0  0  0  0
   49.1250   29.8050   42.3260 S   0  0  0  0  0  0  0  0  0  0  0  0
   46.5860   30.3130   42.9830 C   0  0  0  0  0  2  0  0  0  0  0  0
   45.6790   30.9210   42.7760 H   0  0  0  0  0  0  0  0  0  0  0  0
   43.7730   35.1390   40.7330 O   0  0  0  0  0  0  0  0  0  0  0  0
   43.1830   32.5420   39.4130 Cl  0  0  0  0  0  0  0  0  0  0  0  0
   42.0200   33.7430   39.9470 C   0  0  0  0  0  0  0  0  0  0  0  0
   42.3910   34.9380   40.5600 C   0  0  0  0  0  0  0  0  0  0  0  0
   41.4480   35.8360   40.9550 C   0  0  0  0  0  0  0  0  0  0  0  0
   40.0930   35.6360   40.7840 C   0  0  0  0  0  0  0  0  0  0  0  0
   39.6880   34.4330   40.1660 C   0  0  0  0  0  0  0  0  0  0  0  0
   37.9870   34.0900   39.9060 Cl  0  0  0  0  0  0  0  0  0  0  0  0
   40.6740   33.5470   39.7780 C   0  0  0  0  0  0  0  0  0  0  0  0
   41.7720   36.7540   41.4290 H   0  0  0  0  0  0  0  0  0  0  0  0
   39.3610   36.3600   41.1040 H   0  0  0  0  0  0  0  0  0  0  0  0
   40.2500   31.3220   41.2900 F   0  0  0  0  0  0  0  0  0  0  0  0
   40.0560   31.1870   39.9360 C   0  0  0  0  0  0  0  0  0  0  0  0
   40.2630   32.3010   39.1390 C   0  0  0  0  0  0  0  0  0  0  0  0
   40.0550   32.1240   37.7680 C   0  0  0  0  0  0  0  0  0  0  0  0
   39.6650   30.8830   37.2940 C   0  0  0  0  0  0  0  0  0  0  0  0
   39.4730   29.7940   38.1600 C   0  0  0  0  0  0  0  0  0  0  0  0
   39.6700   29.9340   39.5280 C   0  0  0  0  0  0  0  0  0  0  0  0
   40.2150   32.9850   37.1530 H   0  0  0  0  0  0  0  0  0  0  0  0
   39.5160   30.7930   36.2230 H   0  0  0  0  0  0  0  0  0  0  0  0
   39.1660   28.8310   37.7610 H   0  0  0  0  0  0  0  0  0  0  0  0
   39.5300   29.1260   40.2010 H   0  0  0  0  0  0  0  0  0  0  0  0
  1  2  2  0  0  0  0
  1  3  1  0  0  0  0
  3  5  1  0  0  0  0
  4  3  1  0  0  0  0
  5  6  1  0  0  0  0
  6 12  1  0  0  0  0
  6  7  2  0  0  0  0
  7 11  1  0  0  0  0
  8  7  1  0  0  0  0
  9  8  2  0  0  0  0
 10  5  2  0  0  0  0
 10  9  1  0  0  0  0
 12 13  1  0  0  0  0
 14 12  1  0  0  0  0
 15  9  1  0  0  0  0
 16 25  1  1  0  0  0
 16 15  1  0  0  0  0
 17 16  1  0  0  0  0
 18 23  1  0  0  0  0
 18 17  1  1  0  0  0
 19 20  1  6  0  0  0
 19 21  1  0  0  0  0
 19 18  1  0  0  0  0
 19 23  1  0  0  0  0
 21 22  1  0  0  0  0
 23 21  1  1  0  0  0
 23 24  1  0  0  0  0
 24 16  1  0  0  0  0
 26 25  1  0  0  0  0
 27  1  1  0  0  0  0
 28 29  1  0  0  0  0
 29 30  1  0  0  0  0
 30 27  1  0  0  0  0
 30 31  2  0  0  0  0
 31 36  1  0  0  0  0
 32 31  1  0  0  0  0
 32 37  1  0  0  0  0
 33 32  2  0  0  0  0
 34 33  1  0  0  0  0
 35 29  2  0  0  0  0
 35 33  1  0  0  0  0
 39 38  1  0  0  0  0
 40 35  1  0  0  0  0
 40 39  2  0  0  0  0
 41 40  1  0  0  0  0
 42 41  2  0  0  0  0
 42 43  1  0  0  0  0
 43 44  2  0  0  0  0
 44 39  1  0  0  0  0
 44 48  1  0  0  0  0
 45 41  1  0  0  0  0
 46 42  1  0  0  0  0
 47 43  1  0  0  0  0
M  END
>  <minimizedAffinity>
-6.21322393

>  <minimizedRMSD>
0.867831349

$$$$
