
 OpenBabel03242512283D

 25 28  0  0  1  0  0  0  0  0999 V2000
   39.7630   31.0390   38.8760 C   0  0  0  0  0  0  0  0  0  0  0  0
   39.5610   30.4050   37.8130 O   0  0  0  0  0  0  0  0  0  0  0  0
   42.0980   33.6180   37.8270 C   0  0  0  0  0  0  0  0  0  0  0  0
   42.5380   34.1470   39.0570 C   0  0  0  0  0  0  0  0  0  0  0  0
   42.0330   33.6160   40.2600 C   0  0  0  0  0  0  0  0  0  0  0  0
   41.1360   32.6110   40.1610 N   0  0  0  0  0  0  0  0  0  0  0  0
   40.7300   32.1230   38.9730 C   0  0  0  0  0  0  0  0  0  0  0  0
   41.2130   32.6310   37.8290 N   0  0  0  0  0  0  0  0  0  0  0  0
   42.6140   34.1610   36.6260 N   0  0  0  0  0  0  0  0  0  0  0  0
   43.2570   34.9520   39.1060 H   0  0  0  0  0  0  0  0  0  0  0  0
   42.3710   34.0200   41.1870 H   0  0  0  0  0  0  0  0  0  0  0  0
   42.0320   35.0070   36.3840 H   0  0  0  0  0  0  0  0  0  0  0  0
   43.4320   33.7450   36.1200 H   0  0  0  0  0  0  0  0  0  0  0  0
   37.4210   28.2740   42.1650 C   0  0  0  0  0  0  0  0  0  0  0  0
   36.4520   29.1490   41.4480 C   0  0  0  0  0  2  0  0  0  0  0  0
   37.1250   30.0620   40.6230 N   0  0  2  0  0  0  0  0  0  0  0  0
   37.5880   31.2160   39.9260 C   0  0  1  0  0  0  0  0  0  0  0  0
   36.9460   32.2090   39.4750 O   0  0  0  0  0  1  0  0  0  0  0  0
   38.9500   30.6230   40.0570 C   0  0  1  0  0  3  0  0  0  0  0  0
   38.1500   29.3690   39.8690 C   0  0  1  0  0  0  0  0  0  0  0  0
   38.6280   27.9450   40.8240 S   0  0  0  0  0  0  0  0  0  0  0  0
   36.8360   27.0190   42.7070 C   0  0  0  0  0  2  0  0  0  0  0  0
   37.4650   26.1320   42.5280 H   0  0  0  0  0  0  0  0  0  0  0  0
   38.1730   28.9920   43.2650 C   0  0  0  0  0  2  0  0  0  0  0  0
   37.5760   29.8460   43.6460 H   0  0  0  0  0  0  0  0  0  0  0  0
  1  7  1  0  0  0  0
  2  1  2  0  0  0  0
  3  8  2  0  0  0  0
  3  4  1  0  0  0  0
  4 10  1  0  0  0  0
  4  5  2  0  0  0  0
  5 11  1  0  0  0  0
  6  5  1  0  0  0  0
  7  6  2  0  0  0  0
  8  7  1  0  0  0  0
  9  3  1  0  0  0  0
 12  9  1  0  0  0  0
 13  9  1  0  0  0  0
 14 22  1  0  0  0  0
 14 24  1  0  0  0  0
 15 14  1  0  0  0  0
 16 15  1  6  0  0  0
 17 18  1  6  0  0  0
 17 19  1  0  0  0  0
 17 16  1  0  0  0  0
 19  1  1  6  0  0  0
 20 17  1  0  0  0  0
 20 19  1  0  0  0  0
 20 16  1  0  0  0  0
 20 21  1  6  0  0  0
 21 14  1  0  0  0  0
 23 22  1  0  0  0  0
 24 25  1  0  0  0  0
M  END
>  <minimizedAffinity>
-5.25752354

$$$$

 OpenBabel03242512283D

 25 28  0  0  1  0  0  0  0  0999 V2000
   39.3340   31.3760   39.4290 C   0  0  0  0  0  0  0  0  0  0  0  0
   38.4030   32.2170   39.4200 O   0  0  0  0  0  0  0  0  0  0  0  0
   41.8930   32.7900   37.2710 C   0  0  0  0  0  0  0  0  0  0  0  0
   42.5410   31.6400   36.7760 C   0  0  0  0  0  0  0  0  0  0  0  0
   42.0980   30.3660   37.1820 C   0  0  0  0  0  0  0  0  0  0  0  0
   41.0580   30.3210   38.0420 N   0  0  0  0  0  0  0  0  0  0  0  0
   40.4550   31.4350   38.5020 C   0  0  0  0  0  0  0  0  0  0  0  0
   40.8790   32.6470   38.1130 N   0  0  0  0  0  0  0  0  0  0  0  0
   42.3480   34.0640   36.8550 N   0  0  0  0  0  0  0  0  0  0  0  0
   43.3720   31.7070   36.0890 H   0  0  0  0  0  0  0  0  0  0  0  0
   42.5930   29.5010   36.8030 H   0  0  0  0  0  0  0  0  0  0  0  0
   43.1490   34.3370   37.4840 H   0  0  0  0  0  0  0  0  0  0  0  0
   41.9190   34.5860   36.0540 H   0  0  0  0  0  0  0  0  0  0  0  0
   37.4990   28.0890   42.5540 C   0  0  0  0  0  0  0  0  0  0  0  0
   38.3010   29.1040   43.2920 C   0  0  0  0  0  2  0  0  0  0  0  0
   38.9670   29.9550   42.3970 N   0  0  1  0  0  0  0  0  0  0  0  0
   39.9140   30.7590   41.6970 C   0  0  1  0  0  0  0  0  0  0  0  0
   40.8530   31.4830   42.1390 O   0  0  0  0  0  1  0  0  0  0  0  0
   39.2360   30.2950   40.4530 C   0  0  1  0  0  3  0  0  0  0  0  0
   38.0480   30.3870   41.3640 C   0  0  1  0  0  0  0  0  0  0  0  0
   36.8030   29.1250   41.2110 S   0  0  0  0  0  0  0  0  0  0  0  0
   36.4350   27.4370   43.3630 C   0  0  0  0  0  2  0  0  0  0  0  0
   35.4760   27.3440   42.8280 H   0  0  0  0  0  0  0  0  0  0  0  0
   38.3470   27.0250   41.8920 C   0  0  0  0  0  2  0  0  0  0  0  0
   39.3110   26.9100   42.4300 H   0  0  0  0  0  0  0  0  0  0  0  0
  2  1  2  0  0  0  0
  3  8  1  0  0  0  0
  4  5  1  0  0  0  0
  4  3  2  0  0  0  0
  5  6  2  0  0  0  0
  6  7  1  0  0  0  0
  7  1  1  0  0  0  0
  8  7  2  0  0  0  0
  9  3  1  0  0  0  0
  9 12  1  0  0  0  0
 10  4  1  0  0  0  0
 11  5  1  0  0  0  0
 13  9  1  0  0  0  0
 14 15  1  0  0  0  0
 14 22  1  0  0  0  0
 16 15  1  6  0  0  0
 17 18  1  1  0  0  0
 17 16  1  0  0  0  0
 19  1  1  6  0  0  0
 19 20  1  0  0  0  0
 19 17  1  0  0  0  0
 20 21  1  1  0  0  0
 20 17  1  0  0  0  0
 20 16  1  0  0  0  0
 21 14  1  0  0  0  0
 23 22  1  0  0  0  0
 24 25  1  0  0  0  0
 24 14  1  0  0  0  0
M  END
>  <minimizedAffinity>
-5.22070837

$$$$

 OpenBabel03242512283D

 25 28  0  0  1  0  0  0  0  0999 V2000
   37.5220   30.3700   40.7660 C   0  0  0  0  0  0  0  0  0  0  0  0
   36.3490   30.7240   41.0310 O   0  0  0  0  0  0  0  0  0  0  0  0
   39.5530   32.1830   38.3590 C   0  0  0  0  0  0  0  0  0  0  0  0
   40.3640   32.9830   39.1890 C   0  0  0  0  0  0  0  0  0  0  0  0
   40.2190   32.9020   40.5870 C   0  0  0  0  0  0  0  0  0  0  0  0
   39.2870   32.0450   41.0600 N   0  0  0  0  0  0  0  0  0  0  0  0
   38.5220   31.2920   40.2470 C   0  0  0  0  0  0  0  0  0  0  0  0
   38.6640   31.3710   38.9150 N   0  0  0  0  0  0  0  0  0  0  0  0
   39.7100   32.2750   36.9550 N   0  0  0  0  0  0  0  0  0  0  0  0
   41.1010   33.6600   38.7810 H   0  0  0  0  0  0  0  0  0  0  0  0
   40.8360   33.5100   41.2080 H   0  0  0  0  0  0  0  0  0  0  0  0
   39.1230   33.0840   36.6210 H   0  0  0  0  0  0  0  0  0  0  0  0
   40.3200   31.6210   36.4080 H   0  0  0  0  0  0  0  0  0  0  0  0
   37.3550   25.4810   40.6700 C   0  0  0  0  0  0  0  0  0  0  0  0
   37.1650   25.9720   42.0630 C   0  0  0  0  0  2  0  0  0  0  0  0
   37.3740   27.3580   42.1330 N   0  0  2  0  0  0  0  0  0  0  0  0
   37.7750   28.6800   42.4820 C   0  0  1  0  0  0  0  0  0  0  0  0
   37.9380   29.2100   43.6200 O   0  0  0  0  0  1  0  0  0  0  0  0
   37.8510   28.9360   41.0150 C   0  0  1  0  0  3  0  0  0  0  0  0
   36.6720   28.0090   41.0460 C   0  0  1  0  0  0  0  0  0  0  0  0
   36.5330   26.8220   39.7280 S   0  0  0  0  0  0  0  0  0  0  0  0
   36.7460   24.1530   40.3950 C   0  0  0  0  0  2  0  0  0  0  0  0
   36.2090   24.1100   39.4340 H   0  0  0  0  0  0  0  0  0  0  0  0
   38.8050   25.4670   40.2350 C   0  0  0  0  0  2  0  0  0  0  0  0
   39.4710   25.3670   41.1180 H   0  0  0  0  0  0  0  0  0  0  0  0
  1  2  2  0  0  0  0
  3  8  2  0  0  0  0
  3  4  1  0  0  0  0
  4  5  2  0  0  0  0
  5  6  1  0  0  0  0
  5 11  1  0  0  0  0
  7  1  1  0  0  0  0
  7  6  2  0  0  0  0
  8  7  1  0  0  0  0
  9  3  1  0  0  0  0
 10  4  1  0  0  0  0
 12  9  1  0  0  0  0
 13  9  1  0  0  0  0
 14 15  1  0  0  0  0
 16 15  1  1  0  0  0
 16 17  1  0  0  0  0
 17 18  1  1  0  0  0
 19  1  1  1  0  0  0
 19 20  1  0  0  0  0
 19 17  1  0  0  0  0
 20 21  1  6  0  0  0
 20 16  1  0  0  0  0
 20 17  1  0  0  0  0
 21 14  1  0  0  0  0
 22 14  1  0  0  0  0
 23 22  1  0  0  0  0
 24 14  1  0  0  0  0
 24 25  1  0  0  0  0
M  END
>  <minimizedAffinity>
-5.17457151

$$$$

 OpenBabel03242512283D

 25 28  0  0  1  0  0  0  0  0999 V2000
   37.4250   27.8670   42.2350 C   0  0  0  0  0  0  0  0  0  0  0  0
   37.1650   28.2790   43.3910 O   0  0  0  0  0  0  0  0  0  0  0  0
   38.7110   24.4730   42.4200 C   0  0  0  0  0  0  0  0  0  0  0  0
   37.9770   23.8160   41.4110 C   0  0  0  0  0  0  0  0  0  0  0  0
   37.0330   24.5400   40.6570 C   0  0  0  0  0  0  0  0  0  0  0  0
   36.8820   25.8490   40.9540 N   0  0  0  0  0  0  0  0  0  0  0  0
   37.5940   26.4550   41.9240 C   0  0  0  0  0  0  0  0  0  0  0  0
   38.4930   25.7620   42.6390 N   0  0  0  0  0  0  0  0  0  0  0  0
   39.6570   23.7340   43.1690 N   0  0  0  0  0  0  0  0  0  0  0  0
   38.1200   22.7670   41.1960 H   0  0  0  0  0  0  0  0  0  0  0  0
   36.4820   24.0370   39.8960 H   0  0  0  0  0  0  0  0  0  0  0  0
   39.1390   23.2630   43.9580 H   0  0  0  0  0  0  0  0  0  0  0  0
   40.6760   23.7030   42.9260 H   0  0  0  0  0  0  0  0  0  0  0  0
   38.6390   31.9900   39.8970 C   0  0  0  0  0  0  0  0  0  0  0  0
   37.1570   31.8840   40.0120 C   0  0  0  0  0  2  0  0  0  0  0  0
   36.7890   30.6340   40.5310 N   0  0  1  0  0  0  0  0  0  0  0  0
   36.1850   29.3710   40.7980 C   0  0  1  0  0  0  0  0  0  0  0  0
   34.9780   29.0050   40.6920 O   0  0  0  0  0  1  0  0  0  0  0  0
   37.5520   28.9110   41.1760 C   0  0  1  0  0  3  0  0  0  0  0  0
   37.6170   30.3230   41.6790 C   0  0  1  0  0  0  0  0  0  0  0  0
   39.1540   31.1940   41.4670 S   0  0  0  0  0  0  0  0  0  0  0  0
   39.1510   33.3820   39.7840 C   0  0  0  0  0  2  0  0  0  0  0  0
   40.0360   33.5730   40.4130 H   0  0  0  0  0  0  0  0  0  0  0  0
   39.2120   31.1530   38.7740 C   0  0  0  0  0  2  0  0  0  0  0  0
   38.4500   30.9990   37.9810 H   0  0  0  0  0  0  0  0  0  0  0  0
  1  2  2  0  0  0  0
  3  8  1  0  0  0  0
  3  9  1  0  0  0  0
  4  3  2  0  0  0  0
  5  6  2  0  0  0  0
  5  4  1  0  0  0  0
  6  7  1  0  0  0  0
  7  1  1  0  0  0  0
  7  8  2  0  0  0  0
  9 12  1  0  0  0  0
 10  4  1  0  0  0  0
 11  5  1  0  0  0  0
 13  9  1  0  0  0  0
 14 15  1  0  0  0  0
 14 21  1  0  0  0  0
 16 15  1  6  0  0  0
 16 17  1  0  0  0  0
 16 20  1  0  0  0  0
 17 18  1  1  0  0  0
 17 19  1  0  0  0  0
 17 20  1  0  0  0  0
 19 20  1  0  0  0  0
 19  1  1  1  0  0  0
 20 21  1  1  0  0  0
 22 14  1  0  0  0  0
 22 23  1  0  0  0  0
 24 14  1  0  0  0  0
 25 24  1  0  0  0  0
M  END
>  <minimizedAffinity>
-5.16142464

$$$$

 OpenBabel03242512283D

 25 28  0  0  1  0  0  0  0  0999 V2000
   37.8480   29.8850   39.6060 C   0  0  0  0  0  0  0  0  0  0  0  0
   37.6890   29.3530   38.4820 O   0  0  0  0  0  0  0  0  0  0  0  0
   39.4130   33.0260   40.5510 C   0  0  0  0  0  0  0  0  0  0  0  0
   38.4560   33.9770   40.1420 C   0  0  0  0  0  0  0  0  0  0  0  0
   37.2610   33.5410   39.5370 C   0  0  0  0  0  0  0  0  0  0  0  0
   37.1010   32.2090   39.3800 N   0  0  0  0  0  0  0  0  0  0  0  0
   38.0310   31.3190   39.7790 C   0  0  0  0  0  0  0  0  0  0  0  0
   39.1680   31.7380   40.3550 N   0  0  0  0  0  0  0  0  0  0  0  0
   40.6100   33.4780   41.1570 N   0  0  0  0  0  0  0  0  0  0  0  0
   38.6120   35.0360   40.2800 H   0  0  0  0  0  0  0  0  0  0  0  0
   36.5420   34.2650   39.2300 H   0  0  0  0  0  0  0  0  0  0  0  0
   41.2870   33.7160   40.3850 H   0  0  0  0  0  0  0  0  0  0  0  0
   40.7310   33.5410   42.1970 H   0  0  0  0  0  0  0  0  0  0  0  0
   38.7830   26.0710   42.5250 C   0  0  0  0  0  0  0  0  0  0  0  0
   37.3320   26.1170   42.1910 C   0  0  0  0  0  2  0  0  0  0  0  0
   37.0210   27.2930   41.4940 N   0  0  2  0  0  0  0  0  0  0  0  0
   36.4400   28.5010   41.0080 C   0  0  1  0  0  0  0  0  0  0  0  0
   35.2240   28.8370   40.9030 O   0  0  0  0  0  1  0  0  0  0  0  0
   37.8390   28.9630   40.7800 C   0  0  1  0  0  3  0  0  0  0  0  0
   37.9990   27.5090   40.4470 C   0  0  1  0  0  0  0  0  0  0  0  0
   39.5050   26.7140   40.9670 S   0  0  0  0  0  0  0  0  0  0  0  0
   39.2970   24.7160   42.8590 C   0  0  0  0  0  2  0  0  0  0  0  0
   40.2660   24.4890   42.3860 H   0  0  0  0  0  0  0  0  0  0  0  0
   39.1740   27.0390   43.6210 C   0  0  0  0  0  2  0  0  0  0  0  0
   38.3030   27.2510   44.2760 H   0  0  0  0  0  0  0  0  0  0  0  0
  1  7  1  0  0  0  0
  2  1  2  0  0  0  0
  3  9  1  0  0  0  0
  4 10  1  0  0  0  0
  4  3  2  0  0  0  0
  5  4  1  0  0  0  0
  6  5  2  0  0  0  0
  6  7  1  0  0  0  0
  7  8  2  0  0  0  0
  8  3  1  0  0  0  0
  9 13  1  0  0  0  0
 11  5  1  0  0  0  0
 12  9  1  0  0  0  0
 14 22  1  0  0  0  0
 14 24  1  0  0  0  0
 15 14  1  0  0  0  0
 16 15  1  6  0  0  0
 17 18  1  6  0  0  0
 17 16  1  0  0  0  0
 19  1  1  6  0  0  0
 19 17  1  0  0  0  0
 20 19  1  0  0  0  0
 20 21  1  6  0  0  0
 20 17  1  0  0  0  0
 20 16  1  0  0  0  0
 21 14  1  0  0  0  0
 23 22  1  0  0  0  0
 24 25  1  0  0  0  0
M  END
>  <minimizedAffinity>
-5.09026337

$$$$

 OpenBabel03242512283D

 25 28  0  0  1  0  0  0  0  0999 V2000
   35.4790   29.2140   39.8070 C   0  0  0  0  0  0  0  0  0  0  0  0
   34.2290   29.2390   39.7110 O   0  0  0  0  0  0  0  0  0  0  0  0
   37.4930   31.6930   38.0720 C   0  0  0  0  0  0  0  0  0  0  0  0
   37.8580   32.5690   39.1140 C   0  0  0  0  0  0  0  0  0  0  0  0
   37.4130   32.3110   40.4260 C   0  0  0  0  0  0  0  0  0  0  0  0
   36.6440   31.2160   40.6100 N   0  0  0  0  0  0  0  0  0  0  0  0
   36.3080   30.3930   39.5980 C   0  0  0  0  0  0  0  0  0  0  0  0
   36.7340   30.6420   38.3500 N   0  0  0  0  0  0  0  0  0  0  0  0
   37.9470   31.9640   36.7600 N   0  0  0  0  0  0  0  0  0  0  0  0
   38.4740   33.4390   38.9360 H   0  0  0  0  0  0  0  0  0  0  0  0
   37.6930   32.9780   41.2080 H   0  0  0  0  0  0  0  0  0  0  0  0
   37.2700   32.6440   36.3230 H   0  0  0  0  0  0  0  0  0  0  0  0
   38.8130   31.5310   36.3580 H   0  0  0  0  0  0  0  0  0  0  0  0
   38.2660   25.7980   41.9310 C   0  0  0  0  0  0  0  0  0  0  0  0
   38.5720   25.8760   40.4750 C   0  0  0  0  0  2  0  0  0  0  0  0
   37.6690   26.7300   39.8240 N   0  0  2  0  0  0  0  0  0  0  0  0
   36.7380   27.3390   38.9330 C   0  0  1  0  0  0  0  0  0  0  0  0
   36.6690   27.2950   37.6700 O   0  0  0  0  0  1  0  0  0  0  0  0
   36.0880   27.8960   40.1540 C   0  0  1  0  0  3  0  0  0  0  0  0
   37.5240   27.9530   40.5870 C   0  0  1  0  0  0  0  0  0  0  0  0
   37.8790   27.5560   42.2850 S   0  0  0  0  0  0  0  0  0  0  0  0
   39.3850   25.2940   42.7710 C   0  0  0  0  0  2  0  0  0  0  0  0
   39.5310   25.8740   43.6960 H   0  0  0  0  0  0  0  0  0  0  0  0
   37.0140   25.0050   42.2370 C   0  0  0  0  0  2  0  0  0  0  0  0
   36.8220   24.2630   41.4330 H   0  0  0  0  0  0  0  0  0  0  0  0
  2  1  2  0  0  0  0
  3  8  2  0  0  0  0
  3  4  1  0  0  0  0
  4  5  2  0  0  0  0
  5  6  1  0  0  0  0
  5 11  1  0  0  0  0
  7  1  1  0  0  0  0
  7  6  2  0  0  0  0
  8  7  1  0  0  0  0
  9  3  1  0  0  0  0
 10  4  1  0  0  0  0
 12  9  1  0  0  0  0
 13  9  1  0  0  0  0
 14 24  1  0  0  0  0
 14 21  1  0  0  0  0
 14 22  1  0  0  0  0
 15 14  1  0  0  0  0
 16 15  1  6  0  0  0
 16 20  1  0  0  0  0
 17 18  1  6  0  0  0
 17 16  1  0  0  0  0
 17 19  1  0  0  0  0
 17 20  1  0  0  0  0
 19  1  1  6  0  0  0
 19 20  1  0  0  0  0
 20 21  1  1  0  0  0
 22 23  1  0  0  0  0
 25 24  1  0  0  0  0
M  END
>  <minimizedAffinity>
-5.06074667

$$$$

 OpenBabel03242512283D

 25 28  0  0  1  0  0  0  0  0999 V2000
   37.8490   29.1980   42.2300 C   0  0  0  0  0  0  0  0  0  0  0  0
   37.8780   29.3320   43.4760 O   0  0  0  0  0  0  0  0  0  0  0  0
   37.8630   32.2540   40.2620 C   0  0  0  0  0  0  0  0  0  0  0  0
   39.1220   32.2010   39.6290 C   0  0  0  0  0  0  0  0  0  0  0  0
   39.9760   31.1090   39.8760 C   0  0  0  0  0  0  0  0  0  0  0  0
   39.5290   30.1570   40.7240 N   0  0  0  0  0  0  0  0  0  0  0  0
   38.3220   30.2300   41.3170 C   0  0  0  0  0  0  0  0  0  0  0  0
   37.5100   31.2720   41.0800 N   0  0  0  0  0  0  0  0  0  0  0  0
   37.0140   33.3560   40.0050 N   0  0  0  0  0  0  0  0  0  0  0  0
   39.4520   32.9780   38.9550 H   0  0  0  0  0  0  0  0  0  0  0  0
   40.9260   31.0750   39.3940 H   0  0  0  0  0  0  0  0  0  0  0  0
   37.2920   34.1320   40.6630 H   0  0  0  0  0  0  0  0  0  0  0  0
   36.2630   33.3370   39.2740 H   0  0  0  0  0  0  0  0  0  0  0  0
   37.4690   24.9020   39.9200 C   0  0  0  0  0  0  0  0  0  0  0  0
   36.4800   25.8690   39.3670 C   0  0  0  0  0  2  0  0  0  0  0  0
   36.4630   27.0490   40.1270 N   0  0  1  0  0  0  0  0  0  0  0  0
   36.1020   28.2040   40.8790 C   0  0  1  0  0  0  0  0  0  0  0  0
   35.1330   29.0040   40.7310 O   0  0  0  0  0  1  0  0  0  0  0  0
   37.3000   27.9090   41.7170 C   0  0  1  0  0  3  0  0  0  0  0  0
   37.8220   27.4840   40.3760 C   0  0  1  0  0  0  0  0  0  0  0  0
   38.8530   26.0340   40.3250 S   0  0  0  0  0  0  0  0  0  0  0  0
   37.8820   23.8330   38.9720 C   0  0  0  0  0  2  0  0  0  0  0  0
   38.9680   23.6440   38.9750 H   0  0  0  0  0  0  0  0  0  0  0  0
   37.0240   24.2710   41.2220 C   0  0  0  0  0  2  0  0  0  0  0  0
   35.9160   24.2660   41.2880 H   0  0  0  0  0  0  0  0  0  0  0  0
  1  2  2  0  0  0  0
  3  8  1  0  0  0  0
  4  5  1  0  0  0  0
  4  3  2  0  0  0  0
  5  6  2  0  0  0  0
  6  7  1  0  0  0  0
  7  1  1  0  0  0  0
  8  7  2  0  0  0  0
  9  3  1  0  0  0  0
  9 12  1  0  0  0  0
 10  4  1  0  0  0  0
 11  5  1  0  0  0  0
 13  9  1  0  0  0  0
 14 21  1  0  0  0  0
 14 24  1  0  0  0  0
 15 14  1  0  0  0  0
 16 15  1  1  0  0  0
 16 20  1  0  0  0  0
 16 17  1  0  0  0  0
 17 18  1  6  0  0  0
 17 19  1  0  0  0  0
 19  1  1  6  0  0  0
 20 21  1  6  0  0  0
 20 17  1  0  0  0  0
 20 19  1  0  0  0  0
 22 23  1  0  0  0  0
 22 14  1  0  0  0  0
 24 25  1  0  0  0  0
M  END
>  <minimizedAffinity>
-4.94889832

$$$$

 OpenBabel03242512283D

 25 28  0  0  1  0  0  0  0  0999 V2000
   39.0140   30.1930   42.0120 C   0  0  0  0  0  0  0  0  0  0  0  0
   39.1450   30.1090   43.2560 O   0  0  0  0  0  0  0  0  0  0  0  0
   38.0950   33.1740   40.1470 C   0  0  0  0  0  0  0  0  0  0  0  0
   39.3440   33.7910   39.9280 C   0  0  0  0  0  0  0  0  0  0  0  0
   40.5140   33.1810   40.4210 C   0  0  0  0  0  0  0  0  0  0  0  0
   40.3660   32.0180   41.0910 N   0  0  0  0  0  0  0  0  0  0  0  0
   39.1620   31.4480   41.2890 C   0  0  0  0  0  0  0  0  0  0  0  0
   38.0490   32.0310   40.8180 N   0  0  0  0  0  0  0  0  0  0  0  0
   36.9280   33.7970   39.6460 N   0  0  0  0  0  0  0  0  0  0  0  0
   39.4310   34.7220   39.3880 H   0  0  0  0  0  0  0  0  0  0  0  0
   41.4550   33.6530   40.2510 H   0  0  0  0  0  0  0  0  0  0  0  0
   36.6160   34.5090   40.3590 H   0  0  0  0  0  0  0  0  0  0  0  0
   36.5020   33.5470   38.7210 H   0  0  0  0  0  0  0  0  0  0  0  0
   37.3810   25.6810   41.0550 C   0  0  0  0  0  0  0  0  0  0  0  0
   38.8600   25.7360   40.8860 C   0  0  0  0  0  2  0  0  0  0  0  0
   39.3220   27.0570   40.9940 N   0  0  2  0  0  0  0  0  0  0  0  0
   39.9710   28.3140   40.8210 C   0  0  1  0  0  0  0  0  0  0  0  0
   41.1420   28.5790   40.4210 O   0  0  0  0  0  1  0  0  0  0  0  0
   38.6950   28.9240   41.2950 C   0  0  1  0  0  3  0  0  0  0  0  0
   38.7130   27.6890   42.1470 C   0  0  1  0  0  0  0  0  0  0  0  0
   37.1580   26.8720   42.4310 S   0  0  0  0  0  0  0  0  0  0  0  0
   36.8490   24.3340   41.3930 C   0  0  0  0  0  2  0  0  0  0  0  0
   36.0900   24.3530   42.1910 H   0  0  0  0  0  0  0  0  0  0  0  0
   36.6230   26.2350   39.8690 C   0  0  0  0  0  2  0  0  0  0  0  0
   37.2330   26.1450   38.9460 H   0  0  0  0  0  0  0  0  0  0  0  0
  1  2  2  0  0  0  0
  3  8  1  0  0  0  0
  4  3  2  0  0  0  0
  4  5  1  0  0  0  0
  5  6  2  0  0  0  0
  6  7  1  0  0  0  0
  7  1  1  0  0  0  0
  8  7  2  0  0  0  0
  9  3  1  0  0  0  0
  9 12  1  0  0  0  0
 10  4  1  0  0  0  0
 11  5  1  0  0  0  0
 13  9  1  0  0  0  0
 14 22  1  0  0  0  0
 14 21  1  0  0  0  0
 15 14  1  0  0  0  0
 16 15  1  1  0  0  0
 16 20  1  0  0  0  0
 17 18  1  1  0  0  0
 17 16  1  0  0  0  0
 17 19  1  0  0  0  0
 17 20  1  0  0  0  0
 19  1  1  1  0  0  0
 19 20  1  0  0  0  0
 20 21  1  1  0  0  0
 22 23  1  0  0  0  0
 24 14  1  0  0  0  0
 25 24  1  0  0  0  0
M  END
>  <minimizedAffinity>
-4.91346025

$$$$

 OpenBabel03242512283D

 25 28  0  0  1  0  0  0  0  0999 V2000
   37.8060   32.0300   40.1920 C   0  0  0  0  0  0  0  0  0  0  0  0
   36.7810   32.7260   39.9990 O   0  0  0  0  0  0  0  0  0  0  0  0
   40.7060   32.5310   38.0610 C   0  0  0  0  0  0  0  0  0  0  0  0
   41.5980   33.2090   38.9170 C   0  0  0  0  0  0  0  0  0  0  0  0
   41.2050   33.4980   40.2380 C   0  0  0  0  0  0  0  0  0  0  0  0
   39.9700   33.1010   40.6140 N   0  0  0  0  0  0  0  0  0  0  0  0
   39.1350   32.4550   39.7770 C   0  0  0  0  0  0  0  0  0  0  0  0
   39.5120   32.1810   38.5190 N   0  0  0  0  0  0  0  0  0  0  0  0
   41.1140   32.2470   36.7360 N   0  0  0  0  0  0  0  0  0  0  0  0
   42.5800   33.5150   38.5880 H   0  0  0  0  0  0  0  0  0  0  0  0
   41.8840   34.0110   40.8800 H   0  0  0  0  0  0  0  0  0  0  0  0
   40.9080   33.0990   36.1500 H   0  0  0  0  0  0  0  0  0  0  0  0
   41.5390   31.3300   36.4560 H   0  0  0  0  0  0  0  0  0  0  0  0
   38.5870   28.0090   42.8680 C   0  0  0  0  0  0  0  0  0  0  0  0
   38.2900   27.6350   41.4570 C   0  0  0  0  0  2  0  0  0  0  0  0
   37.9030   28.7620   40.7170 N   0  0  2  0  0  0  0  0  0  0  0  0
   37.2580   29.6950   39.8540 C   0  0  1  0  0  0  0  0  0  0  0  0
   36.6990   29.5180   38.7330 O   0  0  0  0  0  1  0  0  0  0  0  0
   37.5950   30.7230   40.8810 C   0  0  1  0  0  3  0  0  0  0  0  0
   38.8140   29.8550   40.9870 C   0  0  1  0  0  0  0  0  0  0  0  0
   39.4840   29.5870   42.6140 S   0  0  0  0  0  0  0  0  0  0  0  0
   39.4070   27.0150   43.6110 C   0  0  0  0  0  2  0  0  0  0  0  0
   40.2080   27.4730   44.2120 H   0  0  0  0  0  0  0  0  0  0  0  0
   37.3470   28.3350   43.6720 C   0  0  0  0  0  2  0  0  0  0  0  0
   36.4650   27.8100   43.2500 H   0  0  0  0  0  0  0  0  0  0  0  0
  2  1  2  0  0  0  0
  3  8  2  0  0  0  0
  3  4  1  0  0  0  0
  4  5  2  0  0  0  0
  5  6  1  0  0  0  0
  5 11  1  0  0  0  0
  7  1  1  0  0  0  0
  7  6  2  0  0  0  0
  8  7  1  0  0  0  0
  9  3  1  0  0  0  0
 10  4  1  0  0  0  0
 12  9  1  0  0  0  0
 13  9  1  0  0  0  0
 14 22  1  0  0  0  0
 14 24  1  0  0  0  0
 15 14  1  0  0  0  0
 16 20  1  0  0  0  0
 16 15  1  6  0  0  0
 17 18  1  6  0  0  0
 17 16  1  0  0  0  0
 17 19  1  0  0  0  0
 17 20  1  0  0  0  0
 19  1  1  6  0  0  0
 19 20  1  0  0  0  0
 20 21  1  6  0  0  0
 21 14  1  0  0  0  0
 22 23  1  0  0  0  0
 25 24  1  0  0  0  0
M  END
>  <minimizedAffinity>
-4.90073538

$$$$
