
 OpenBabel03252502463D

 48 52  0  0  1  0  0  0  0  0999 V2000
   47.4250   35.2650   41.9830 C   0  0  0  0  0  0  0  0  0  0  0  0
   47.5480   35.9330   42.8670 H   0  0  0  0  0  0  0  0  0  0  0  0
   46.9480   35.9100   41.1940 H   0  0  0  0  0  0  0  0  0  0  0  0
   48.7590   34.7340   41.5820 C   0  0  1  0  0  0  0  0  0  0  0  0
   49.9280   35.0210   42.4740 C   0  0  0  0  0  0  0  0  0  0  0  0
   49.3180   33.6560   42.3760 C   0  0  2  0  0  0  0  0  0  0  0  0
   48.9660   34.8320   40.5160 H   0  0  0  0  0  0  0  0  0  0  0  0
   49.6970   35.6540   43.3750 H   0  0  0  0  0  0  0  0  0  0  0  0
   50.9150   35.2480   42.0430 H   0  0  0  0  0  0  0  0  0  0  0  0
   48.9420   33.2830   43.3180 H   0  0  0  0  0  0  0  0  0  0  0  0
   50.1470   32.7310   41.6020 N   0  0  0  0  0  0  0  0  0  0  0  0
   49.5650   32.2890   40.4000 C   0  0  0  0  0  0  0  0  0  0  0  0
   50.5620   31.3280   39.7800 C   0  0  0  0  0  0  0  0  0  0  0  0
   50.7750   30.1830   40.5910 N   0  0  0  0  0  0  0  0  0  0  0  0
   50.5620   30.4100   42.0070 C   0  0  0  0  0  0  0  0  0  0  0  0
   50.9490   31.8550   42.3520 C   0  0  0  0  0  0  0  0  0  0  0  0
   48.6010   31.7430   40.5230 H   0  0  0  0  0  0  0  0  0  0  0  0
   49.4790   33.1460   39.6930 H   0  0  0  0  0  0  0  0  0  0  0  0
   50.1560   31.0520   38.7860 H   0  0  0  0  0  0  0  0  0  0  0  0
   51.5300   31.8710   39.5810 H   0  0  0  0  0  0  0  0  0  0  0  0
   51.6680   29.6980   40.3710 H   0  0  0  0  0  0  0  0  0  0  0  0
   51.1710   29.6700   42.5570 H   0  0  0  0  0  0  0  0  0  0  0  0
   49.4770   30.3320   42.2300 H   0  0  0  0  0  0  0  0  0  0  0  0
   52.0240   32.0210   42.0610 H   0  0  0  0  0  0  0  0  0  0  0  0
   50.8650   32.0300   43.4260 H   0  0  0  0  0  0  0  0  0  0  0  0
   46.5760   34.0820   42.3600 C   0  0  0  0  0  0  0  0  0  0  0  0
   47.0400   33.1090   42.3060 H   0  0  0  0  0  0  0  0  0  0  0  0
   45.7400   34.0530   41.5980 H   0  0  0  0  0  0  0  0  0  0  0  0
   44.5660   35.8240   45.0010 C   0  0  0  0  0  0  0  0  0  0  0  0
   45.1990   35.5580   43.7550 C   0  0  0  0  0  0  0  0  0  0  0  0
   45.8950   34.3820   43.6550 C   0  0  0  0  0  0  0  0  0  0  0  0
   45.9520   33.5420   44.7240 N   0  0  0  0  0  0  0  0  0  0  0  0
   45.3630   33.8050   45.8660 C   0  0  0  0  0  0  0  0  0  0  0  0
   44.6640   34.9490   46.0160 N   0  0  0  0  0  0  0  0  0  0  0  0
   44.0130   36.7590   45.0810 H   0  0  0  0  0  0  0  0  0  0  0  0
   45.0810   36.3040   42.9780 H   0  0  0  0  0  0  0  0  0  0  0  0
   45.3740   32.9440   47.0640 C   0  0  0  0  0  2  0  0  0  0  0  0
   46.5270   32.0250   47.1670 C   0  0  1  0  0  0  0  0  0  0  0  0
   46.0180   30.6900   47.7370 C   0  0  0  0  0  2  0  0  0  0  0  0
   47.0830   29.7250   47.4380 N   0  0  0  0  0  0  0  0  0  0  0  0
   48.1660   28.7770   47.2710 C   0  0  0  0  0  0  0  0  0  0  0  0
   48.7530   28.2760   48.2660 O   0  0  0  0  0  0  0  0  0  0  0  0
   48.1250   28.7910   45.8060 C   0  0  0  0  0  3  0  0  0  0  0  0
   48.9740   29.3020   45.3090 H   0  0  0  0  0  0  0  0  0  0  0  0
   46.8790   29.5900   45.9780 C   0  0  2  0  0  3  0  0  0  0  0  0
   47.0870   31.3710   45.5390 S   0  0  0  0  0  0  0  0  0  0  0  0
   47.6720   32.4900   47.9770 C   0  0  0  0  0  2  0  0  0  0  0  0
   48.6550   32.4250   47.4200 H   0  0  0  0  0  0  0  0  0  0  0  0
  1 26  1  0  0  0  0
  1  2  1  0  0  0  0
  3  1  1  0  0  0  0
  4  7  1  6  0  0  0
  4  1  1  0  0  0  0
  4  6  1  0  0  0  0
  4  5  1  0  0  0  0
  5  8  1  0  0  0  0
  6  5  1  0  0  0  0
  6 10  1  1  0  0  0
  9  5  1  0  0  0  0
 11 16  1  0  0  0  0
 11  6  1  0  0  0  0
 12 17  1  0  0  0  0
 12 11  1  0  0  0  0
 13 12  1  0  0  0  0
 13 14  1  0  0  0  0
 14 15  1  0  0  0  0
 15 23  1  0  0  0  0
 15 16  1  0  0  0  0
 15 22  1  0  0  0  0
 16 25  1  0  0  0  0
 18 12  1  0  0  0  0
 19 13  1  0  0  0  0
 20 13  1  0  0  0  0
 21 14  1  0  0  0  0
 24 16  1  0  0  0  0
 26 31  1  0  0  0  0
 27 26  1  0  0  0  0
 28 26  1  0  0  0  0
 29 35  1  0  0  0  0
 29 34  1  0  0  0  0
 30 29  2  0  0  0  0
 31 30  1  0  0  0  0
 31 32  2  0  0  0  0
 32 33  1  0  0  0  0
 33 34  2  0  0  0  0
 33 37  1  0  0  0  0
 36 30  1  0  0  0  0
 38 37  1  6  0  0  0
 38 39  1  0  0  0  0
 38 47  1  0  0  0  0
 40 39  1  0  0  0  0
 41 40  1  0  0  0  0
 41 42  2  0  0  0  0
 43 45  1  0  0  0  0
 43 41  1  0  0  0  0
 44 43  1  0  0  0  0
 45 46  1  6  0  0  0
 45 40  1  0  0  0  0
 46 38  1  0  0  0  0
 48 47  1  0  0  0  0
M  END
>  <minimizedAffinity>
-5.66154909

>  <minimizedRMSD>
0.829079568

$$$$
