
 OpenBabel03242523543D

 48 52  0  0  1  0  0  0  0  0999 V2000
   42.0990   34.2350   39.6230 C   0  0  1  0  0  0  0  0  0  0  0  0
   43.1330   34.9190   40.5090 C   0  0  1  0  0  0  0  0  0  0  0  0
   42.4620   35.5020   41.6010 O   0  0  0  0  0  0  0  0  0  0  0  0
   41.2140   36.0190   41.2480 C   0  0  0  0  0  0  0  0  0  0  0  0
   40.2210   34.9200   40.9170 C   0  0  2  0  0  0  0  0  0  0  0  0
   41.0740   33.6550   40.5420 C   0  0  1  0  0  0  0  0  0  0  0  0
   42.5550   33.3870   39.0660 H   0  0  0  0  0  0  0  0  0  0  0  0
   43.7460   35.6500   39.9780 H   0  0  0  0  0  0  0  0  0  0  0  0
   41.2690   36.7860   40.4500 H   0  0  0  0  0  0  0  0  0  0  0  0
   40.8470   36.5360   42.1430 H   0  0  0  0  0  0  0  0  0  0  0  0
   39.5460   34.6730   41.7540 H   0  0  0  0  0  0  0  0  0  0  0  0
   41.4820   33.4810   41.5890 H   0  0  0  0  0  0  0  0  0  0  0  0
   41.5140   35.1540   38.7430 O   0  0  0  0  0  0  0  0  0  0  0  0
   41.6110   34.9150   37.8000 H   0  0  0  0  0  0  0  0  0  0  0  0
   39.5340   35.2540   39.7580 O   0  0  0  0  0  0  0  0  0  0  0  0
   39.5640   36.2010   39.5470 H   0  0  0  0  0  0  0  0  0  0  0  0
   43.8700   33.8690   41.0890 O   0  0  0  0  0  0  0  0  0  0  0  0
   44.9650   34.0340   41.8390 C   0  0  0  0  0  0  0  0  0  0  0  0
   46.2120   34.3020   41.2560 C   0  0  0  0  0  0  0  0  0  0  0  0
   47.3100   34.4650   42.0850 C   0  0  0  0  0  0  0  0  0  0  0  0
   47.1480   34.3580   43.4540 N   0  0  0  0  0  0  0  0  0  0  0  0
   45.9290   34.0970   43.9830 C   0  0  0  0  0  0  0  0  0  0  0  0
   44.8450   33.9360   43.1810 N   0  0  0  0  0  0  0  0  0  0  0  0
   46.3410   34.3860   40.1950 H   0  0  0  0  0  0  0  0  0  0  0  0
   45.8030   34.0140   45.0520 H   0  0  0  0  0  0  0  0  0  0  0  0
   48.6740   34.7340   41.5380 C   0  0  0  0  0  0  0  0  0  0  0  0
   49.1520   36.1860   41.5700 C   0  0  0  0  0  0  0  0  0  0  0  0
   49.7720   35.0390   42.3960 C   0  0  0  0  0  0  0  0  0  0  0  0
   48.8410   34.2010   40.5660 H   0  0  0  0  0  0  0  0  0  0  0  0
   48.4960   36.9030   42.0830 H   0  0  0  0  0  0  0  0  0  0  0  0
   49.7580   36.5620   40.7260 H   0  0  0  0  0  0  0  0  0  0  0  0
   49.6540   35.1810   43.4900 H   0  0  0  0  0  0  0  0  0  0  0  0
   50.8200   34.7990   42.1250 H   0  0  0  0  0  0  0  0  0  0  0  0
   40.2320   32.7430   40.0150 O   0  0  0  0  0  0  0  0  0  0  0  0
   39.4110   31.8850   40.6620 C   0  0  0  0  0  0  0  0  0  0  0  0
   38.2060   32.2380   41.0340 O   0  0  0  0  0  0  0  0  0  0  0  0
   39.0760   29.6470   37.6420 C   0  0  0  0  0  0  0  0  0  0  0  0
   37.9470   29.0990   38.4600 C   0  0  0  0  0  2  0  0  0  0  0  0
   38.1010   29.5470   39.8050 N   0  0  0  0  0  0  0  0  0  0  0  0
   37.7330   30.0860   41.0650 C   0  0  0  0  0  0  0  0  0  0  0  0
   36.6870   30.1700   41.7730 O   0  0  0  0  0  0  0  0  0  0  0  0
   39.1320   30.5430   41.2520 C   0  0  1  0  0  3  0  0  0  0  0  0
   39.4310   29.4140   40.2980 C   0  0  2  0  0  3  0  0  0  0  0  0
   40.4070   29.9450   38.8410 S   0  0  0  0  0  0  0  0  0  0  0  0
   38.7450   30.8330   36.8050 C   0  0  0  0  0  2  0  0  0  0  0  0
   37.7290   31.2370   36.9870 H   0  0  0  0  0  0  0  0  0  0  0  0
   39.5610   28.4770   36.7790 C   0  0  0  0  0  2  0  0  0  0  0  0
   40.6560   28.5680   36.5550 H   0  0  0  0  0  0  0  0  0  0  0  0
  1  7  1  6  0  0  0
  1  2  1  0  0  0  0
  1  6  1  0  0  0  0
  2  8  1  6  0  0  0
  2 17  1  0  0  0  0
  2  3  1  0  0  0  0
  4  3  1  0  0  0  0
  4 10  1  0  0  0  0
  5  4  1  0  0  0  0
  5 11  1  1  0  0  0
  6  5  1  0  0  0  0
  6 12  1  1  0  0  0
  9  4  1  0  0  0  0
 13  1  1  0  0  0  0
 14 13  1  0  0  0  0
 15  5  1  0  0  0  0
 16 15  1  0  0  0  0
 17 18  1  0  0  0  0
 18 23  1  0  0  0  0
 19 18  2  0  0  0  0
 19 20  1  0  0  0  0
 20 21  2  0  0  0  0
 21 22  1  0  0  0  0
 22 25  1  0  0  0  0
 23 22  2  0  0  0  0
 24 19  1  0  0  0  0
 26 27  1  0  0  0  0
 26 20  1  0  0  0  0
 26 28  1  0  0  0  0
 27 30  1  0  0  0  0
 27 28  1  0  0  0  0
 28 32  1  0  0  0  0
 29 26  1  0  0  0  0
 31 27  1  0  0  0  0
 33 28  1  0  0  0  0
 34  6  1  0  0  0  0
 34 35  1  0  0  0  0
 35 36  2  0  0  0  0
 37 38  1  0  0  0  0
 37 44  1  0  0  0  0
 38 39  1  0  0  0  0
 39 43  1  0  0  0  0
 39 40  1  0  0  0  0
 40 42  1  0  0  0  0
 40 41  2  0  0  0  0
 42 35  1  6  0  0  0
 43 44  1  6  0  0  0
 43 42  1  0  0  0  0
 45 46  1  0  0  0  0
 45 37  1  0  0  0  0
 47 37  1  0  0  0  0
 48 47  1  0  0  0  0
M  END
>  <minimizedAffinity>
-6.59445381

>  <minimizedRMSD>
2.06313372

$$$$
