
 OpenBabel03242520003D

 33 36  0  0  1  0  0  0  0  0999 V2000
   44.7310   33.0550   41.1210 Br  0  0  0  0  0  0  0  0  0  0  0  0
   46.3690   33.9960   40.9380 C   0  0  0  0  0  0  0  0  0  0  0  0
   46.9200   34.7490   41.9660 C   0  0  0  0  0  0  0  0  0  0  0  0
   48.1200   35.3900   41.7260 C   0  0  0  0  0  0  0  0  0  0  0  0
   48.7880   35.3210   40.5310 C   0  0  0  0  0  0  0  0  0  0  0  0
   48.2460   34.5700   39.4940 C   0  0  0  0  0  0  0  0  0  0  0  0
   47.0430   33.9330   39.7500 C   0  0  0  0  0  0  0  0  0  0  0  0
   48.4400   35.9340   42.5950 H   0  0  0  0  0  0  0  0  0  0  0  0
   49.7240   35.8590   40.4370 H   0  0  0  0  0  0  0  0  0  0  0  0
   48.7770   34.5220   38.5600 H   0  0  0  0  0  0  0  0  0  0  0  0
   44.5240   35.8460   44.6980 C   0  0  0  0  0  0  0  0  0  0  0  0
   45.2370   35.7910   43.5010 C   0  0  0  0  0  0  0  0  0  0  0  0
   46.1790   34.8000   43.2190 C   0  0  0  0  0  0  0  0  0  0  0  0
   46.3550   33.8830   44.2040 N   0  0  0  0  0  0  0  0  0  0  0  0
   45.6690   33.9340   45.3590 C   0  0  0  0  0  0  0  0  0  0  0  0
   44.7690   34.8930   45.6100 N   0  0  0  0  0  0  0  0  0  0  0  0
   43.8350   36.6700   44.7620 H   0  0  0  0  0  0  0  0  0  0  0  0
   45.0940   36.5210   42.7220 H   0  0  0  0  0  0  0  0  0  0  0  0
   45.8700   33.1560   46.1010 H   0  0  0  0  0  0  0  0  0  0  0  0
   46.5160   33.1530   38.6640 C   0  0  0  0  0  0  0  0  0  0  0  0
   45.3380   33.2320   38.2600 O   0  0  0  0  0  0  0  0  0  0  0  0
   45.4950   30.5160   34.3580 C   0  0  0  0  0  0  0  0  0  0  0  0
   45.5420   32.0480   34.4740 C   0  0  0  0  0  0  0  0  0  0  0  0
   46.4740   32.3460   35.5500 N   0  0  0  0  0  0  0  0  0  0  0  0
   47.5050   32.7140   36.4460 C   0  0  0  0  0  0  0  0  0  0  0  0
   48.5930   33.3290   36.2350 O   0  0  0  0  0  0  0  0  0  0  0  0
   46.8480   32.1290   37.6620 C   0  0  2  0  0  0  0  0  0  0  0  0
   45.7310   31.8500   36.7260 C   0  0  2  0  0  0  0  0  0  0  0  0
   45.5850   30.1060   36.1480 S   0  0  0  0  0  0  0  0  0  0  0  0
   46.6730   29.9840   33.6170 C   0  0  0  0  0  0  0  0  0  0  0  0
   47.5720   30.5660   33.8940 H   0  0  0  0  0  0  0  0  0  0  0  0
   44.1600   30.1600   33.7810 C   0  0  0  0  0  0  0  0  0  0  0  0
   43.8220   29.1430   34.0630 H   0  0  0  0  0  0  0  0  0  0  0  0
  2  1  1  0  0  0  0
  2  3  1  0  0  0  0
  3 13  1  0  0  0  0
  4  3  2  0  0  0  0
  4  8  1  0  0  0  0
  5  4  1  0  0  0  0
  6  7  1  0  0  0  0
  6  5  2  0  0  0  0
  7  2  2  0  0  0  0
  9  5  1  0  0  0  0
 10  6  1  0  0  0  0
 11 17  1  0  0  0  0
 11 16  1  0  0  0  0
 12 11  2  0  0  0  0
 13 12  1  0  0  0  0
 13 14  2  0  0  0  0
 14 15  1  0  0  0  0
 15 16  2  0  0  0  0
 15 19  1  0  0  0  0
 18 12  1  0  0  0  0
 20  7  1  0  0  0  0
 21 20  2  0  0  0  0
 22 23  1  0  0  0  0
 22 29  1  0  0  0  0
 23 24  1  0  0  0  0
 24 25  1  0  0  0  0
 24 28  1  0  0  0  0
 25 27  1  0  0  0  0
 26 25  2  0  0  0  0
 27 20  1  1  0  0  0
 28 29  1  6  0  0  0
 28 27  1  0  0  0  0
 30 31  1  0  0  0  0
 30 22  1  0  0  0  0
 32 33  1  0  0  0  0
 32 22  1  0  0  0  0
M  END
>  <minimizedAffinity>
-6.51443291

>  <minimizedRMSD>
2.61533976

$$$$
