
 OpenBabel03252503053D

 23 25  0  0  1  0  0  0  0  0999 V2000
   47.2150   32.9010   43.9860 C   0  0  0  0  0  2  0  0  0  0  0  0
   46.4060   31.6770   43.6510 C   0  0  2  0  0  0  0  0  0  0  0  0
   47.0200   30.8300   42.5750 C   0  0  0  0  0  2  0  0  0  0  0  0
   46.5150   31.2960   41.3080 N   0  0  0  0  0  0  0  0  0  0  0  0
   46.4350   31.7850   39.9640 C   0  0  0  0  0  0  0  0  0  0  0  0
   47.2930   31.7830   39.0400 O   0  0  0  0  0  0  0  0  0  0  0  0
   45.0160   32.2490   40.1400 C   0  0  0  0  0  3  0  0  0  0  0  0
   44.9370   33.3230   40.3790 H   0  0  0  0  0  0  0  0  0  0  0  0
   45.0620   31.3090   41.3170 C   0  0  2  0  0  3  0  0  0  0  0  0
   44.7940   32.1110   42.9310 S   0  0  0  0  0  0  0  0  0  0  0  0
   46.1700   30.8290   44.8560 C   0  0  0  0  0  2  0  0  0  0  0  0
   46.8830   31.0890   45.6620 H   0  0  0  0  0  0  0  0  0  0  0  0
   45.3420   36.0770   43.2210 C   0  0  0  0  0  0  0  0  0  0  0  0
   46.2280   35.0070   43.0720 C   0  0  0  0  0  0  0  0  0  0  0  0
   46.2930   34.0520   44.0980 C   0  0  0  0  0  0  0  0  0  0  0  0
   45.4930   34.2200   45.1810 N   0  0  0  0  0  0  0  0  0  0  0  0
   44.6470   35.2640   45.2990 C   0  0  0  0  0  0  0  0  0  0  0  0
   44.5840   36.1720   44.3230 N   0  0  0  0  0  0  0  0  0  0  0  0
   45.2570   36.8350   42.4610 H   0  0  0  0  0  0  0  0  0  0  0  0
   44.0280   35.3520   46.1870 H   0  0  0  0  0  0  0  0  0  0  0  0
   47.0610   34.8660   41.9030 C   0  0  0  0  0  0  0  0  0  0  0  0
   48.0910   35.5730   41.8330 O   0  0  0  0  0  0  0  0  0  0  0  0
   46.6240   34.1230   41.2380 H   0  0  0  0  0  0  0  0  0  0  0  0
  1 15  1  0  0  0  0
  2  1  1  1  0  0  0
  2 11  1  0  0  0  0
  3  2  1  0  0  0  0
  4  9  1  0  0  0  0
  4  3  1  0  0  0  0
  5  7  1  0  0  0  0
  5  4  1  0  0  0  0
  6  5  2  0  0  0  0
  7  8  1  0  0  0  0
  9  7  1  6  0  0  0
  9 10  1  0  0  0  0
 10  2  1  0  0  0  0
 11 12  1  0  0  0  0
 13 18  1  0  0  0  0
 14 13  2  0  0  0  0
 14 15  1  0  0  0  0
 15 16  2  0  0  0  0
 16 17  1  0  0  0  0
 17 20  1  0  0  0  0
 18 17  2  0  0  0  0
 19 13  1  0  0  0  0
 21 14  1  0  0  0  0
 22 21  2  0  0  0  0
 23 21  1  0  0  0  0
M  END
>  <minimizedAffinity>
-3.89465833

>  <minimizedRMSD>
2.43729877

$$$$
