
 OpenBabel03252503193D

 42 46  0  0  1  0  0  0  0  0999 V2000
   46.7120   32.4020   40.9990 C   0  0  0  0  0  0  0  0  0  0  0  0
   46.8490   31.3230   41.8330 C   0  0  0  0  0  0  0  0  0  0  0  0
   47.9810   31.5330   42.5300 N   0  0  0  0  0  0  0  0  0  0  0  0
   48.5120   32.7010   42.1330 C   0  0  0  0  0  0  0  0  0  0  0  0
   47.7360   33.2450   41.1880 N   0  0  0  0  0  0  0  0  0  0  0  0
   49.6930   33.3710   42.5570 N   0  0  0  0  0  0  0  0  0  0  0  0
   46.2070   30.4830   41.9250 H   0  0  0  0  0  0  0  0  0  0  0  0
   50.3900   33.8100   41.9350 H   0  0  0  0  0  0  0  0  0  0  0  0
   50.0360   33.5210   43.5380 H   0  0  0  0  0  0  0  0  0  0  0  0
   48.5980   30.7020   43.5500 C   0  0  0  0  0  0  0  0  0  0  0  0
   48.9800   31.3430   44.3830 H   0  0  0  0  0  0  0  0  0  0  0  0
   47.8230   30.0360   43.9820 H   0  0  0  0  0  0  0  0  0  0  0  0
   52.2920   27.1720   44.1620 C   0  0  0  0  0  0  0  0  0  0  0  0
   50.8320   26.9800   44.5050 C   0  0  0  0  0  2  0  0  0  0  0  0
   50.0830   27.8640   43.6260 N   0  0  0  0  0  0  0  0  0  0  0  0
   49.2560   28.5210   42.6590 C   0  0  0  0  0  0  0  0  0  0  0  0
   48.4380   27.8990   41.8980 O   0  0  0  0  0  0  0  0  0  0  0  0
   49.7540   29.8780   42.9710 C   0  0  2  0  0  3  0  0  0  0  0  0
   50.4870   29.2070   44.0750 C   0  0  2  0  0  3  0  0  0  0  0  0
   52.2910   28.9760   43.8080 S   0  0  0  0  0  0  0  0  0  0  0  0
   52.7230   26.3610   42.9820 C   0  0  0  0  0  2  0  0  0  0  0  0
   52.0880   25.4410   42.8410 H   0  0  0  0  0  0  0  0  0  0  0  0
   53.1140   26.9500   45.4030 C   0  0  0  0  0  2  0  0  0  0  0  0
   53.6570   27.8580   45.7440 H   0  0  0  0  0  0  0  0  0  0  0  0
   45.6040   32.6290   40.0220 C   0  0  0  0  0  0  0  0  0  0  0  0
   45.7650   33.1220   38.8690 O   0  0  0  0  0  0  0  0  0  0  0  0
   43.6340   31.1890   39.7470 C   0  0  0  0  0  0  0  0  0  0  0  0
   44.2680   32.2860   40.3640 C   0  0  0  0  0  0  0  0  0  0  0  0
   43.4800   32.9490   41.2870 C   0  0  0  0  0  0  0  0  0  0  0  0
   42.2350   32.5870   41.5700 N   0  0  0  0  0  0  0  0  0  0  0  0
   41.6690   31.5150   40.9430 C   0  0  0  0  0  0  0  0  0  0  0  0
   42.3750   30.8300   40.0410 N   0  0  0  0  0  0  0  0  0  0  0  0
   44.2380   30.6470   39.0110 H   0  0  0  0  0  0  0  0  0  0  0  0
   40.6540   31.2100   41.1660 H   0  0  0  0  0  0  0  0  0  0  0  0
   44.0440   34.0750   41.9580 C   0  0  0  0  0  0  0  0  0  0  0  0
   44.1850   35.3960   41.6770 C   0  0  0  0  0  0  0  0  0  0  0  0
   44.7700   36.2260   42.5200 C   0  0  0  0  0  0  0  0  0  0  0  0
   45.2240   35.7150   43.6740 C   0  0  0  0  0  0  0  0  0  0  0  0
   44.8020   33.9490   43.5680 S   0  0  0  0  0  0  0  0  0  0  0  0
   43.7660   35.6900   40.6920 H   0  0  0  0  0  0  0  0  0  0  0  0
   44.9150   37.2890   42.3600 H   0  0  0  0  0  0  0  0  0  0  0  0
   45.7390   36.1640   44.5380 H   0  0  0  0  0  0  0  0  0  0  0  0
  1  5  1  0  0  0  0
  1  2  2  0  0  0  0
  2  7  1  0  0  0  0
  2  3  1  0  0  0  0
  3 10  1  0  0  0  0
  4  3  1  0  0  0  0
  4  6  1  0  0  0  0
  5  4  2  0  0  0  0
  6  9  1  0  0  0  0
  8  6  1  0  0  0  0
 10 12  1  0  0  0  0
 10 11  1  0  0  0  0
 13 14  1  0  0  0  0
 13 23  1  0  0  0  0
 15 19  1  0  0  0  0
 15 14  1  0  0  0  0
 16 18  1  0  0  0  0
 16 15  1  0  0  0  0
 17 16  2  0  0  0  0
 18 10  1  1  0  0  0
 18 19  1  0  0  0  0
 19 20  1  6  0  0  0
 20 13  1  0  0  0  0
 21 13  1  0  0  0  0
 22 21  1  0  0  0  0
 23 24  1  0  0  0  0
 25 28  1  0  0  0  0
 25  1  1  0  0  0  0
 26 25  2  0  0  0  0
 27 32  2  0  0  0  0
 27 28  1  0  0  0  0
 28 29  2  0  0  0  0
 29 30  1  0  0  0  0
 29 35  1  0  0  0  0
 31 34  1  0  0  0  0
 31 30  2  0  0  0  0
 32 31  1  0  0  0  0
 33 27  1  0  0  0  0
 35 39  1  0  0  0  0
 36 35  2  0  0  0  0
 36 37  1  0  0  0  0
 37 38  2  0  0  0  0
 38 42  1  0  0  0  0
 39 38  1  0  0  0  0
 40 36  1  0  0  0  0
 41 37  1  0  0  0  0
M  END
>  <minimizedAffinity>
-3.24889827

>  <minimizedRMSD>
9.39851475

$$$$
