
 OpenBabel03252503213D

 42 46  0  0  1  0  0  0  0  0999 V2000
   41.0820   33.5880   39.0250 C   0  0  0  0  0  0  0  0  0  0  0  0
   40.2450   32.5020   39.0180 C   0  0  0  0  0  0  0  0  0  0  0  0
   39.2760   32.7740   39.9120 N   0  0  0  0  0  0  0  0  0  0  0  0
   39.5180   33.9840   40.4440 C   0  0  0  0  0  0  0  0  0  0  0  0
   40.6300   34.4940   39.9020 N   0  0  0  0  0  0  0  0  0  0  0  0
   38.7990   34.7220   41.4240 N   0  0  0  0  0  0  0  0  0  0  0  0
   40.3250   31.6200   38.4350 H   0  0  0  0  0  0  0  0  0  0  0  0
   39.2170   35.2210   42.2250 H   0  0  0  0  0  0  0  0  0  0  0  0
   37.7620   34.8740   41.4900 H   0  0  0  0  0  0  0  0  0  0  0  0
   38.1340   31.9640   40.3020 C   0  0  0  0  0  0  0  0  0  0  0  0
   37.5670   32.4750   41.1190 H   0  0  0  0  0  0  0  0  0  0  0  0
   37.4470   31.8790   39.4350 H   0  0  0  0  0  0  0  0  0  0  0  0
   37.1020   27.5760   42.7840 C   0  0  0  0  0  0  0  0  0  0  0  0
   36.2630   28.1750   41.6780 C   0  0  0  0  0  2  0  0  0  0  0  0
   37.1670   28.9600   40.8540 N   0  0  0  0  0  0  0  0  0  0  0  0
   38.0070   29.5610   39.8620 C   0  0  0  0  0  0  0  0  0  0  0  0
   38.0620   29.1570   38.6510 O   0  0  0  0  0  0  0  0  0  0  0  0
   38.5740   30.5750   40.7780 C   0  0  2  0  0  3  0  0  0  0  0  0
   37.5850   30.0480   41.7530 C   0  0  2  0  0  3  0  0  0  0  0  0
   38.2670   28.9690   43.0750 S   0  0  0  0  0  0  0  0  0  0  0  0
   37.8050   26.3250   42.3660 C   0  0  0  0  0  2  0  0  0  0  0  0
   37.2680   25.7910   41.5310 H   0  0  0  0  0  0  0  0  0  0  0  0
   36.2500   27.4310   44.0150 C   0  0  0  0  0  2  0  0  0  0  0  0
   36.5870   28.0590   44.8680 H   0  0  0  0  0  0  0  0  0  0  0  0
   42.3130   33.7610   38.1940 C   0  0  0  0  0  0  0  0  0  0  0  0
   42.6220   34.8340   37.6020 O   0  0  0  0  0  0  0  0  0  0  0  0
   43.1110   31.8210   36.9170 C   0  0  0  0  0  0  0  0  0  0  0  0
   43.2210   32.6810   38.0290 C   0  0  0  0  0  0  0  0  0  0  0  0
   44.2580   32.3650   38.8880 C   0  0  0  0  0  0  0  0  0  0  0  0
   45.0800   31.3430   38.6880 N   0  0  0  0  0  0  0  0  0  0  0  0
   44.9290   30.5410   37.5930 C   0  0  0  0  0  0  0  0  0  0  0  0
   43.9480   30.7900   36.7240 N   0  0  0  0  0  0  0  0  0  0  0  0
   42.2970   32.0510   36.2220 H   0  0  0  0  0  0  0  0  0  0  0  0
   45.5940   29.7040   37.4190 H   0  0  0  0  0  0  0  0  0  0  0  0
   44.4400   33.1850   40.0420 C   0  0  0  0  0  0  0  0  0  0  0  0
   45.1180   34.3280   40.3170 C   0  0  0  0  0  0  0  0  0  0  0  0
   45.1020   34.8730   41.5190 C   0  0  0  0  0  0  0  0  0  0  0  0
   44.3850   34.2520   42.4680 C   0  0  0  0  0  0  0  0  0  0  0  0
   43.6880   32.8050   41.6150 S   0  0  0  0  0  0  0  0  0  0  0  0
   45.6690   34.7420   39.4460 H   0  0  0  0  0  0  0  0  0  0  0  0
   45.6180   35.7820   41.8070 H   0  0  0  0  0  0  0  0  0  0  0  0
   44.2000   34.4770   43.5300 H   0  0  0  0  0  0  0  0  0  0  0  0
  1  5  1  0  0  0  0
  2  1  2  0  0  0  0
  2  3  1  0  0  0  0
  3 10  1  0  0  0  0
  3  4  1  0  0  0  0
  4  6  1  0  0  0  0
  5  4  2  0  0  0  0
  6  9  1  0  0  0  0
  6  8  1  0  0  0  0
  7  2  1  0  0  0  0
 10 11  1  0  0  0  0
 12 10  1  0  0  0  0
 13 20  1  0  0  0  0
 13 23  1  0  0  0  0
 14 13  1  0  0  0  0
 15 14  1  0  0  0  0
 15 19  1  0  0  0  0
 16 18  1  0  0  0  0
 16 15  1  0  0  0  0
 17 16  2  0  0  0  0
 18 10  1  6  0  0  0
 18 19  1  0  0  0  0
 19 20  1  1  0  0  0
 21 13  1  0  0  0  0
 22 21  1  0  0  0  0
 23 24  1  0  0  0  0
 25  1  1  0  0  0  0
 26 25  2  0  0  0  0
 27 28  1  0  0  0  0
 28 25  1  0  0  0  0
 28 29  2  0  0  0  0
 29 35  1  0  0  0  0
 30 29  1  0  0  0  0
 31 30  2  0  0  0  0
 32 27  2  0  0  0  0
 32 31  1  0  0  0  0
 33 27  1  0  0  0  0
 34 31  1  0  0  0  0
 35 36  2  0  0  0  0
 35 39  1  0  0  0  0
 36 37  1  0  0  0  0
 37 41  1  0  0  0  0
 37 38  2  0  0  0  0
 38 42  1  0  0  0  0
 39 38  1  0  0  0  0
 40 36  1  0  0  0  0
M  END
>  <minimizedAffinity>
-6.48388195

$$$$

 OpenBabel03252503213D

 42 46  0  0  1  0  0  0  0  0999 V2000
   38.0920   28.3490   42.1910 C   0  0  0  0  0  0  0  0  0  0  0  0
   38.9400   29.2080   41.5410 C   0  0  0  0  0  0  0  0  0  0  0  0
   38.1800   30.2400   41.1300 N   0  0  0  0  0  0  0  0  0  0  0  0
   36.9140   30.0150   41.5190 C   0  0  0  0  0  0  0  0  0  0  0  0
   36.8500   28.8500   42.1750 N   0  0  0  0  0  0  0  0  0  0  0  0
   35.7390   30.7950   41.3360 N   0  0  0  0  0  0  0  0  0  0  0  0
   39.9830   29.1000   41.3820 H   0  0  0  0  0  0  0  0  0  0  0  0
   34.8190   30.4330   41.0390 H   0  0  0  0  0  0  0  0  0  0  0  0
   35.6210   31.8300   41.4680 H   0  0  0  0  0  0  0  0  0  0  0  0
   38.5700   31.4290   40.3920 C   0  0  0  0  0  0  0  0  0  0  0  0
   39.0170   31.1360   39.4090 H   0  0  0  0  0  0  0  0  0  0  0  0
   37.6610   32.0240   40.1700 H   0  0  0  0  0  0  0  0  0  0  0  0
   43.1790   33.6940   40.7260 C   0  0  0  0  0  0  0  0  0  0  0  0
   42.1860   33.8910   39.6020 C   0  0  0  0  0  2  0  0  0  0  0  0
   40.8690   33.6500   40.1700 N   0  0  0  0  0  0  0  0  0  0  0  0
   39.5330   33.6600   40.6840 C   0  0  0  0  0  0  0  0  0  0  0  0
   38.7600   34.6740   40.6080 O   0  0  0  0  0  0  0  0  0  0  0  0
   39.5810   32.2670   41.1820 C   0  0  2  0  0  3  0  0  0  0  0  0
   40.9040   32.2170   40.5060 C   0  0  2  0  0  3  0  0  0  0  0  0
   42.3680   32.3040   41.6130 S   0  0  0  0  0  0  0  0  0  0  0  0
   43.3290   34.9080   41.5850 C   0  0  0  0  0  2  0  0  0  0  0  0
   43.0810   35.8580   41.0320 H   0  0  0  0  0  0  0  0  0  0  0  0
   44.4680   33.1770   40.1480 C   0  0  0  0  0  2  0  0  0  0  0  0
   44.7310   32.1530   40.4930 H   0  0  0  0  0  0  0  0  0  0  0  0
   38.4680   27.0500   42.8290 C   0  0  0  0  0  0  0  0  0  0  0  0
   38.9530   26.9460   43.9910 O   0  0  0  0  0  0  0  0  0  0  0  0
   37.0180   25.2160   42.0760 C   0  0  0  0  0  0  0  0  0  0  0  0
   38.2870   25.8290   42.1250 C   0  0  0  0  0  0  0  0  0  0  0  0
   39.2740   25.1390   41.4460 C   0  0  0  0  0  0  0  0  0  0  0  0
   39.0520   24.0000   40.8020 N   0  0  0  0  0  0  0  0  0  0  0  0
   37.8030   23.4500   40.7870 C   0  0  0  0  0  0  0  0  0  0  0  0
   36.8030   24.0650   41.4220 N   0  0  0  0  0  0  0  0  0  0  0  0
   36.2180   25.7440   42.6060 H   0  0  0  0  0  0  0  0  0  0  0  0
   37.6080   22.5200   40.2650 H   0  0  0  0  0  0  0  0  0  0  0  0
   40.5910   25.6890   41.4460 C   0  0  0  0  0  0  0  0  0  0  0  0
   41.2740   26.5610   40.6610 C   0  0  0  0  0  0  0  0  0  0  0  0
   42.5250   26.8920   40.9170 C   0  0  0  0  0  0  0  0  0  0  0  0
   43.1040   26.3320   41.9890 C   0  0  0  0  0  0  0  0  0  0  0  0
   41.8040   25.2680   42.6850 S   0  0  0  0  0  0  0  0  0  0  0  0
   40.6810   26.9530   39.8080 H   0  0  0  0  0  0  0  0  0  0  0  0
   43.1280   27.5800   40.3340 H   0  0  0  0  0  0  0  0  0  0  0  0
   44.1110   26.4240   42.4270 H   0  0  0  0  0  0  0  0  0  0  0  0
  1 25  1  0  0  0  0
  2  1  2  0  0  0  0
  3  4  1  0  0  0  0
  3  2  1  0  0  0  0
  4  5  2  0  0  0  0
  5  1  1  0  0  0  0
  6  9  1  0  0  0  0
  6  4  1  0  0  0  0
  7  2  1  0  0  0  0
  8  6  1  0  0  0  0
 10  3  1  0  0  0  0
 11 10  1  0  0  0  0
 12 10  1  0  0  0  0
 13 21  1  0  0  0  0
 13 20  1  0  0  0  0
 14 15  1  0  0  0  0
 14 13  1  0  0  0  0
 15 19  1  0  0  0  0
 15 16  1  0  0  0  0
 16 18  1  0  0  0  0
 17 16  2  0  0  0  0
 18 10  1  6  0  0  0
 19 18  1  0  0  0  0
 19 20  1  1  0  0  0
 22 21  1  0  0  0  0
 23 24  1  0  0  0  0
 23 13  1  0  0  0  0
 25 26  2  0  0  0  0
 27 28  1  0  0  0  0
 27 33  1  0  0  0  0
 28 25  1  0  0  0  0
 29 28  2  0  0  0  0
 30 29  1  0  0  0  0
 31 30  2  0  0  0  0
 31 32  1  0  0  0  0
 32 27  2  0  0  0  0
 34 31  1  0  0  0  0
 35 29  1  0  0  0  0
 35 39  1  0  0  0  0
 36 37  1  0  0  0  0
 36 35  2  0  0  0  0
 37 38  2  0  0  0  0
 38 42  1  0  0  0  0
 38 39  1  0  0  0  0
 40 36  1  0  0  0  0
 41 37  1  0  0  0  0
M  END
>  <minimizedAffinity>
-6.47716236

$$$$

 OpenBabel03252503213D

 42 46  0  0  1  0  0  0  0  0999 V2000
   37.0010   28.5480   41.7920 C   0  0  0  0  0  0  0  0  0  0  0  0
   37.4410   29.8360   41.9570 C   0  0  0  0  0  0  0  0  0  0  0  0
   37.1070   30.4900   40.8290 N   0  0  0  0  0  0  0  0  0  0  0  0
   36.4850   29.6280   40.0080 C   0  0  0  0  0  0  0  0  0  0  0  0
   36.4140   28.4270   40.5940 N   0  0  0  0  0  0  0  0  0  0  0  0
   35.9410   29.8200   38.7080 N   0  0  0  0  0  0  0  0  0  0  0  0
   37.9430   30.2520   42.7940 H   0  0  0  0  0  0  0  0  0  0  0  0
   36.0660   29.1830   37.9060 H   0  0  0  0  0  0  0  0  0  0  0  0
   35.3450   30.6130   38.3660 H   0  0  0  0  0  0  0  0  0  0  0  0
   37.3380   31.8800   40.4730 C   0  0  0  0  0  0  0  0  0  0  0  0
   37.1890   32.0190   39.3730 H   0  0  0  0  0  0  0  0  0  0  0  0
   36.5810   32.5080   40.9840 H   0  0  0  0  0  0  0  0  0  0  0  0
   42.2670   32.6280   39.1960 C   0  0  0  0  0  0  0  0  0  0  0  0
   41.0750   33.1830   38.4490 C   0  0  0  0  0  2  0  0  0  0  0  0
   40.0040   33.3150   39.4240 N   0  0  0  0  0  0  0  0  0  0  0  0
   38.9740   33.6950   40.3440 C   0  0  0  0  0  0  0  0  0  0  0  0
   38.5660   34.8970   40.4820 O   0  0  0  0  0  0  0  0  0  0  0  0
   38.7540   32.3240   40.8560 C   0  0  2  0  0  3  0  0  0  0  0  0
   39.7060   31.9200   39.7890 C   0  0  2  0  0  3  0  0  0  0  0  0
   41.4020   31.4940   40.3560 S   0  0  0  0  0  0  0  0  0  0  0  0
   43.0470   33.6840   39.9090 C   0  0  0  0  0  2  0  0  0  0  0  0
   42.9360   34.6970   39.4280 H   0  0  0  0  0  0  0  0  0  0  0  0
   43.0780   31.7830   38.2520 C   0  0  0  0  0  2  0  0  0  0  0  0
   43.1140   30.7080   38.5350 H   0  0  0  0  0  0  0  0  0  0  0  0
   37.1390   27.4330   42.7790 C   0  0  0  0  0  0  0  0  0  0  0  0
   36.2060   27.0360   43.5340 O   0  0  0  0  0  0  0  0  0  0  0  0
   39.3570   27.2190   43.8090 C   0  0  0  0  0  0  0  0  0  0  0  0
   38.3750   26.7480   42.9140 C   0  0  0  0  0  0  0  0  0  0  0  0
   38.7400   25.6060   42.2250 C   0  0  0  0  0  0  0  0  0  0  0  0
   39.9110   25.0020   42.3880 N   0  0  0  0  0  0  0  0  0  0  0  0
   40.8270   25.5010   43.2690 C   0  0  0  0  0  0  0  0  0  0  0  0
   40.5380   26.6010   43.9680 N   0  0  0  0  0  0  0  0  0  0  0  0
   39.0920   28.1230   44.3680 H   0  0  0  0  0  0  0  0  0  0  0  0
   41.7850   25.0180   43.4120 H   0  0  0  0  0  0  0  0  0  0  0  0
   37.8040   25.0610   41.2950 C   0  0  0  0  0  0  0  0  0  0  0  0
   36.7100   24.2630   41.3820 C   0  0  0  0  0  0  0  0  0  0  0  0
   36.0190   23.9130   40.3130 C   0  0  0  0  0  0  0  0  0  0  0  0
   36.4400   24.3780   39.1280 C   0  0  0  0  0  0  0  0  0  0  0  0
   37.9050   25.3730   39.5410 S   0  0  0  0  0  0  0  0  0  0  0  0
   36.4670   23.9480   42.4190 H   0  0  0  0  0  0  0  0  0  0  0  0
   35.1380   23.2810   40.3110 H   0  0  0  0  0  0  0  0  0  0  0  0
   36.0650   24.2490   38.1000 H   0  0  0  0  0  0  0  0  0  0  0  0
  1  2  2  0  0  0  0
  1 25  1  0  0  0  0
  2  7  1  0  0  0  0
  3  2  1  0  0  0  0
  4  5  2  0  0  0  0
  4  3  1  0  0  0  0
  5  1  1  0  0  0  0
  6  4  1  0  0  0  0
  8  6  1  0  0  0  0
  9  6  1  0  0  0  0
 10  3  1  0  0  0  0
 10 12  1  0  0  0  0
 11 10  1  0  0  0  0
 13 21  1  0  0  0  0
 13 20  1  0  0  0  0
 14 13  1  0  0  0  0
 14 15  1  0  0  0  0
 15 19  1  0  0  0  0
 15 16  1  0  0  0  0
 16 17  2  0  0  0  0
 16 18  1  0  0  0  0
 18 10  1  6  0  0  0
 19 20  1  1  0  0  0
 19 18  1  0  0  0  0
 22 21  1  0  0  0  0
 23 24  1  0  0  0  0
 23 13  1  0  0  0  0
 25 28  1  0  0  0  0
 25 26  2  0  0  0  0
 27 32  1  0  0  0  0
 27 33  1  0  0  0  0
 28 27  2  0  0  0  0
 29 30  2  0  0  0  0
 29 28  1  0  0  0  0
 30 31  1  0  0  0  0
 31 34  1  0  0  0  0
 31 32  2  0  0  0  0
 35 36  2  0  0  0  0
 35 29  1  0  0  0  0
 36 40  1  0  0  0  0
 37 36  1  0  0  0  0
 38 39  1  0  0  0  0
 38 37  2  0  0  0  0
 39 35  1  0  0  0  0
 41 37  1  0  0  0  0
 42 38  1  0  0  0  0
M  END
>  <minimizedAffinity>
-6.44271612

$$$$

 OpenBabel03252503213D

 42 46  0  0  1  0  0  0  0  0999 V2000
   36.8770   29.9220   39.9560 C   0  0  0  0  0  0  0  0  0  0  0  0
   37.9280   30.0660   39.0870 C   0  0  0  0  0  0  0  0  0  0  0  0
   38.1490   31.3900   38.9870 N   0  0  0  0  0  0  0  0  0  0  0  0
   37.2610   32.0270   39.7680 C   0  0  0  0  0  0  0  0  0  0  0  0
   36.4730   31.1300   40.3710 N   0  0  0  0  0  0  0  0  0  0  0  0
   37.0760   33.4160   40.0130 N   0  0  0  0  0  0  0  0  0  0  0  0
   38.4700   29.3040   38.5860 H   0  0  0  0  0  0  0  0  0  0  0  0
   36.1680   33.9060   40.0280 H   0  0  0  0  0  0  0  0  0  0  0  0
   37.8080   34.1430   40.2080 H   0  0  0  0  0  0  0  0  0  0  0  0
   39.1440   32.0970   38.1980 C   0  0  0  0  0  0  0  0  0  0  0  0
   39.3790   31.5140   37.2730 H   0  0  0  0  0  0  0  0  0  0  0  0
   38.7150   33.0660   37.8710 H   0  0  0  0  0  0  0  0  0  0  0  0
   44.0930   33.4960   38.3730 C   0  0  0  0  0  0  0  0  0  0  0  0
   42.9690   34.3240   37.7920 C   0  0  0  0  0  2  0  0  0  0  0  0
   41.7590   33.9240   38.4920 N   0  0  0  0  0  0  0  0  0  0  0  0
   40.5700   33.7680   39.2750 C   0  0  0  0  0  0  0  0  0  0  0  0
   40.0150   34.7290   39.9080 O   0  0  0  0  0  0  0  0  0  0  0  0
   40.4310   32.3200   39.0000 C   0  0  2  0  0  3  0  0  0  0  0  0
   41.5680   32.5280   38.0670 C   0  0  2  0  0  3  0  0  0  0  0  0
   43.1990   31.9140   38.6490 S   0  0  0  0  0  0  0  0  0  0  0  0
   44.6390   34.0700   39.6410 C   0  0  0  0  0  2  0  0  0  0  0  0
   44.4880   35.1840   39.7070 H   0  0  0  0  0  0  0  0  0  0  0  0
   45.1230   33.2580   37.3030 C   0  0  0  0  0  2  0  0  0  0  0  0
   45.2350   32.1880   37.0230 H   0  0  0  0  0  0  0  0  0  0  0  0
   36.2590   28.6320   40.3900 C   0  0  0  0  0  0  0  0  0  0  0  0
   35.4020   28.5330   41.3130 O   0  0  0  0  0  0  0  0  0  0  0  0
   35.9880   27.0080   38.5680 C   0  0  0  0  0  0  0  0  0  0  0  0
   36.6270   27.4140   39.7580 C   0  0  0  0  0  0  0  0  0  0  0  0
   37.5980   26.5370   40.2060 C   0  0  0  0  0  0  0  0  0  0  0  0
   37.9040   25.4100   39.5750 N   0  0  0  0  0  0  0  0  0  0  0  0
   37.2530   25.0640   38.4270 C   0  0  0  0  0  0  0  0  0  0  0  0
   36.3050   25.8670   37.9380 N   0  0  0  0  0  0  0  0  0  0  0  0
   35.2150   27.6860   38.1930 H   0  0  0  0  0  0  0  0  0  0  0  0
   37.4940   24.1470   37.9030 H   0  0  0  0  0  0  0  0  0  0  0  0
   38.2950   26.8710   41.4060 C   0  0  0  0  0  0  0  0  0  0  0  0
   38.0800   26.6790   42.7320 C   0  0  0  0  0  0  0  0  0  0  0  0
   38.9300   27.1150   43.6430 C   0  0  0  0  0  0  0  0  0  0  0  0
   40.0230   27.7590   43.2080 C   0  0  0  0  0  0  0  0  0  0  0  0
   39.8450   27.7540   41.3990 S   0  0  0  0  0  0  0  0  0  0  0  0
   37.1410   26.1320   42.9580 H   0  0  0  0  0  0  0  0  0  0  0  0
   38.8210   26.9960   44.7160 H   0  0  0  0  0  0  0  0  0  0  0  0
   40.8770   28.2180   43.7320 H   0  0  0  0  0  0  0  0  0  0  0  0
  1  5  1  0  0  0  0
  1 25  1  0  0  0  0
  2  1  2  0  0  0  0
  3  2  1  0  0  0  0
  3  4  1  0  0  0  0
  4  6  1  0  0  0  0
  4  5  2  0  0  0  0
  6  8  1  0  0  0  0
  6  9  1  0  0  0  0
  7  2  1  0  0  0  0
 10  3  1  0  0  0  0
 11 10  1  0  0  0  0
 12 10  1  0  0  0  0
 13 20  1  0  0  0  0
 13 21  1  0  0  0  0
 14 13  1  0  0  0  0
 14 15  1  0  0  0  0
 15 16  1  0  0  0  0
 16 17  2  0  0  0  0
 18 10  1  6  0  0  0
 18 16  1  0  0  0  0
 19 15  1  0  0  0  0
 19 20  1  1  0  0  0
 19 18  1  0  0  0  0
 21 22  1  0  0  0  0
 23 13  1  0  0  0  0
 24 23  1  0  0  0  0
 25 26  2  0  0  0  0
 27 28  1  0  0  0  0
 28 29  2  0  0  0  0
 28 25  1  0  0  0  0
 29 35  1  0  0  0  0
 30 29  1  0  0  0  0
 31 30  2  0  0  0  0
 32 31  1  0  0  0  0
 32 27  2  0  0  0  0
 33 27  1  0  0  0  0
 34 31  1  0  0  0  0
 35 36  2  0  0  0  0
 36 40  1  0  0  0  0
 36 37  1  0  0  0  0
 37 41  1  0  0  0  0
 38 37  2  0  0  0  0
 38 42  1  0  0  0  0
 39 35  1  0  0  0  0
 39 38  1  0  0  0  0
M  END
>  <minimizedAffinity>
-6.18566227

$$$$

 OpenBabel03252503213D

 42 46  0  0  1  0  0  0  0  0999 V2000
   40.3900   33.2810   40.3020 C   0  0  0  0  0  0  0  0  0  0  0  0
   40.4420   32.1620   41.0930 C   0  0  0  0  0  0  0  0  0  0  0  0
   39.1660   31.7720   41.2700 N   0  0  0  0  0  0  0  0  0  0  0  0
   38.3670   32.6250   40.6070 C   0  0  0  0  0  0  0  0  0  0  0  0
   39.1130   33.5590   40.0070 N   0  0  0  0  0  0  0  0  0  0  0  0
   36.9510   32.6530   40.4770 N   0  0  0  0  0  0  0  0  0  0  0  0
   41.3000   31.6850   41.4950 H   0  0  0  0  0  0  0  0  0  0  0  0
   36.3570   33.4920   40.5680 H   0  0  0  0  0  0  0  0  0  0  0  0
   36.3030   31.8520   40.2760 H   0  0  0  0  0  0  0  0  0  0  0  0
   38.6470   30.6440   42.0250 C   0  0  0  0  0  0  0  0  0  0  0  0
   39.3830   30.3440   42.8120 H   0  0  0  0  0  0  0  0  0  0  0  0
   37.7230   30.9620   42.5490 H   0  0  0  0  0  0  0  0  0  0  0  0
   37.7400   25.6130   41.4300 C   0  0  0  0  0  0  0  0  0  0  0  0
   36.9730   26.5390   42.3470 C   0  0  0  0  0  2  0  0  0  0  0  0
   37.0690   27.8680   41.7640 N   0  0  0  0  0  0  0  0  0  0  0  0
   36.9130   29.1540   41.1540 C   0  0  0  0  0  0  0  0  0  0  0  0
   35.7770   29.6520   40.8470 O   0  0  0  0  0  0  0  0  0  0  0  0
   38.3630   29.4470   41.1110 C   0  0  2  0  0  3  0  0  0  0  0  0
   38.5010   28.1870   41.8850 C   0  0  2  0  0  3  0  0  0  0  0  0
   39.1120   26.7340   40.9400 S   0  0  0  0  0  0  0  0  0  0  0  0
   36.9320   25.1570   40.2590 C   0  0  0  0  0  2  0  0  0  0  0  0
   35.8260   25.1680   40.4720 H   0  0  0  0  0  0  0  0  0  0  0  0
   38.3320   24.5000   42.2520 C   0  0  0  0  0  2  0  0  0  0  0  0
   39.4440   24.4950   42.2610 H   0  0  0  0  0  0  0  0  0  0  0  0
   41.5590   34.0830   39.8280 C   0  0  0  0  0  0  0  0  0  0  0  0
   41.5490   34.8030   38.7890 O   0  0  0  0  0  0  0  0  0  0  0  0
   42.9490   34.8960   41.6820 C   0  0  0  0  0  0  0  0  0  0  0  0
   42.7790   34.0660   40.5540 C   0  0  0  0  0  0  0  0  0  0  0  0
   43.8790   33.2820   40.2600 C   0  0  0  0  0  0  0  0  0  0  0  0
   44.9990   33.3040   40.9730 N   0  0  0  0  0  0  0  0  0  0  0  0
   45.1090   34.1270   42.0560 C   0  0  0  0  0  0  0  0  0  0  0  0
   44.0840   34.9110   42.3960 N   0  0  0  0  0  0  0  0  0  0  0  0
   42.0910   35.5270   41.9360 H   0  0  0  0  0  0  0  0  0  0  0  0
   46.0170   34.1540   42.6460 H   0  0  0  0  0  0  0  0  0  0  0  0
   43.7950   32.4120   39.1310 C   0  0  0  0  0  0  0  0  0  0  0  0
   43.3080   31.1650   38.9080 C   0  0  0  0  0  0  0  0  0  0  0  0
   43.3710   30.5980   37.7180 C   0  0  0  0  0  0  0  0  0  0  0  0
   43.9390   31.3030   36.7280 C   0  0  0  0  0  0  0  0  0  0  0  0
   44.4160   32.8680   37.5220 S   0  0  0  0  0  0  0  0  0  0  0  0
   42.8630   30.6910   39.8080 H   0  0  0  0  0  0  0  0  0  0  0  0
   43.0030   29.6080   37.4700 H   0  0  0  0  0  0  0  0  0  0  0  0
   44.1220   31.0830   35.6640 H   0  0  0  0  0  0  0  0  0  0  0  0
  1  2  2  0  0  0  0
  2  3  1  0  0  0  0
  2  7  1  0  0  0  0
  3 10  1  0  0  0  0
  4  3  1  0  0  0  0
  5  1  1  0  0  0  0
  5  4  2  0  0  0  0
  6  8  1  0  0  0  0
  6  4  1  0  0  0  0
  9  6  1  0  0  0  0
 10 12  1  0  0  0  0
 10 11  1  0  0  0  0
 13 23  1  0  0  0  0
 13 14  1  0  0  0  0
 15 19  1  0  0  0  0
 15 14  1  0  0  0  0
 16 15  1  0  0  0  0
 17 16  2  0  0  0  0
 18 16  1  0  0  0  0
 18 19  1  0  0  0  0
 18 10  1  1  0  0  0
 19 20  1  6  0  0  0
 20 13  1  0  0  0  0
 21 22  1  0  0  0  0
 21 13  1  0  0  0  0
 23 24  1  0  0  0  0
 25  1  1  0  0  0  0
 25 28  1  0  0  0  0
 26 25  2  0  0  0  0
 27 33  1  0  0  0  0
 27 32  1  0  0  0  0
 28 27  2  0  0  0  0
 29 28  1  0  0  0  0
 29 30  2  0  0  0  0
 30 31  1  0  0  0  0
 31 32  2  0  0  0  0
 31 34  1  0  0  0  0
 35 29  1  0  0  0  0
 36 35  2  0  0  0  0
 36 40  1  0  0  0  0
 37 36  1  0  0  0  0
 38 39  1  0  0  0  0
 38 37  2  0  0  0  0
 39 35  1  0  0  0  0
 41 37  1  0  0  0  0
 42 38  1  0  0  0  0
M  END
>  <minimizedAffinity>
-6.14108276

$$$$

 OpenBabel03252503213D

 42 46  0  0  1  0  0  0  0  0999 V2000
   40.8980   33.4120   39.1230 C   0  0  0  0  0  0  0  0  0  0  0  0
   39.9040   32.4680   39.0760 C   0  0  0  0  0  0  0  0  0  0  0  0
   38.9910   32.8450   39.9910 N   0  0  0  0  0  0  0  0  0  0  0  0
   39.4170   33.9780   40.5730 C   0  0  0  0  0  0  0  0  0  0  0  0
   40.5930   34.3360   40.0430 N   0  0  0  0  0  0  0  0  0  0  0  0
   38.8230   34.7740   41.5910 N   0  0  0  0  0  0  0  0  0  0  0  0
   39.8460   31.6110   38.4540 H   0  0  0  0  0  0  0  0  0  0  0  0
   39.3150   35.1670   42.4090 H   0  0  0  0  0  0  0  0  0  0  0  0
   37.8220   35.0790   41.6730 H   0  0  0  0  0  0  0  0  0  0  0  0
   37.7390   32.2030   40.3550 C   0  0  0  0  0  0  0  0  0  0  0  0
   37.4720   32.4630   41.4100 H   0  0  0  0  0  0  0  0  0  0  0  0
   36.9330   32.6040   39.7090 H   0  0  0  0  0  0  0  0  0  0  0  0
   38.4720   27.5740   42.4810 C   0  0  0  0  0  0  0  0  0  0  0  0
   37.4650   28.6020   42.9470 C   0  0  0  0  0  2  0  0  0  0  0  0
   37.1230   29.4000   41.7810 N   0  0  0  0  0  0  0  0  0  0  0  0
   36.5550   30.0830   40.6580 C   0  0  0  0  0  0  0  0  0  0  0  0
   35.3140   30.0280   40.3580 O   0  0  0  0  0  0  0  0  0  0  0  0
   37.8350   30.6800   40.2150 C   0  0  2  0  0  3  0  0  0  0  0  0
   38.3810   30.0990   41.4690 C   0  0  2  0  0  3  0  0  0  0  0  0
   39.4060   28.5870   41.2650 S   0  0  0  0  0  0  0  0  0  0  0  0
   37.8300   26.3790   41.8530 C   0  0  0  0  0  2  0  0  0  0  0  0
   36.7820   26.2080   42.2290 H   0  0  0  0  0  0  0  0  0  0  0  0
   39.4010   27.2560   43.6200 C   0  0  0  0  0  2  0  0  0  0  0  0
   40.4570   27.5490   43.4290 H   0  0  0  0  0  0  0  0  0  0  0  0
   42.1380   33.4310   38.2880 C   0  0  0  0  0  0  0  0  0  0  0  0
   42.1700   33.7870   37.0760 O   0  0  0  0  0  0  0  0  0  0  0  0
   44.2040   33.9750   39.4980 C   0  0  0  0  0  0  0  0  0  0  0  0
   43.3810   33.0330   38.8470 C   0  0  0  0  0  0  0  0  0  0  0  0
   43.9020   31.7520   38.8190 C   0  0  0  0  0  0  0  0  0  0  0  0
   45.0720   31.4320   39.3580 N   0  0  0  0  0  0  0  0  0  0  0  0
   45.8290   32.3850   39.9770 C   0  0  0  0  0  0  0  0  0  0  0  0
   45.3850   33.6420   40.0400 N   0  0  0  0  0  0  0  0  0  0  0  0
   43.8130   34.9980   39.5330 H   0  0  0  0  0  0  0  0  0  0  0  0
   46.7850   32.1360   40.4210 H   0  0  0  0  0  0  0  0  0  0  0  0
   43.1340   30.7350   38.1770 C   0  0  0  0  0  0  0  0  0  0  0  0
   42.2120   29.8240   38.5770 C   0  0  0  0  0  0  0  0  0  0  0  0
   41.6530   28.9820   37.7270 C   0  0  0  0  0  0  0  0  0  0  0  0
   42.0330   29.0600   36.4430 C   0  0  0  0  0  0  0  0  0  0  0  0
   43.2570   30.4040   36.4280 S   0  0  0  0  0  0  0  0  0  0  0  0
   41.9850   29.8640   39.6630 H   0  0  0  0  0  0  0  0  0  0  0  0
   40.9120   28.2310   37.9780 H   0  0  0  0  0  0  0  0  0  0  0  0
   41.7400   28.4960   35.5430 H   0  0  0  0  0  0  0  0  0  0  0  0
  1  5  1  0  0  0  0
  2  1  2  0  0  0  0
  2  3  1  0  0  0  0
  3 10  1  0  0  0  0
  3  4  1  0  0  0  0
  4  6  1  0  0  0  0
  5  4  2  0  0  0  0
  6  9  1  0  0  0  0
  6  8  1  0  0  0  0
  7  2  1  0  0  0  0
 10 11  1  0  0  0  0
 12 10  1  0  0  0  0
 13 14  1  0  0  0  0
 13 23  1  0  0  0  0
 15 14  1  0  0  0  0
 16 15  1  0  0  0  0
 17 16  2  0  0  0  0
 18 10  1  1  0  0  0
 18 16  1  0  0  0  0
 18 19  1  0  0  0  0
 19 20  1  6  0  0  0
 19 15  1  0  0  0  0
 20 13  1  0  0  0  0
 21 22  1  0  0  0  0
 21 13  1  0  0  0  0
 24 23  1  0  0  0  0
 25 28  1  0  0  0  0
 25  1  1  0  0  0  0
 26 25  2  0  0  0  0
 27 33  1  0  0  0  0
 27 32  1  0  0  0  0
 28 27  2  0  0  0  0
 29 28  1  0  0  0  0
 29 30  2  0  0  0  0
 30 31  1  0  0  0  0
 31 32  2  0  0  0  0
 31 34  1  0  0  0  0
 35 36  2  0  0  0  0
 35 29  1  0  0  0  0
 36 40  1  0  0  0  0
 37 41  1  0  0  0  0
 37 36  1  0  0  0  0
 38 37  2  0  0  0  0
 39 38  1  0  0  0  0
 39 35  1  0  0  0  0
 42 38  1  0  0  0  0
M  END
>  <minimizedAffinity>
-6.01305866

$$$$

 OpenBabel03252503213D

 42 46  0  0  1  0  0  0  0  0999 V2000
   37.2430   29.0990   39.2980 C   0  0  0  0  0  0  0  0  0  0  0  0
   38.3740   29.6860   38.7920 C   0  0  0  0  0  0  0  0  0  0  0  0
   38.3040   30.9850   39.1350 N   0  0  0  0  0  0  0  0  0  0  0  0
   37.1680   31.1790   39.8270 C   0  0  0  0  0  0  0  0  0  0  0  0
   36.5070   30.0210   39.9330 N   0  0  0  0  0  0  0  0  0  0  0  0
   36.6330   32.3610   40.4100 N   0  0  0  0  0  0  0  0  0  0  0  0
   39.1560   29.2290   38.2390 H   0  0  0  0  0  0  0  0  0  0  0  0
   35.6500   32.6690   40.3450 H   0  0  0  0  0  0  0  0  0  0  0  0
   37.1330   33.0870   40.9800 H   0  0  0  0  0  0  0  0  0  0  0  0
   39.2390   32.0610   38.8530 C   0  0  0  0  0  0  0  0  0  0  0  0
   39.8930   31.7780   37.9900 H   0  0  0  0  0  0  0  0  0  0  0  0
   38.6660   32.9590   38.5440 H   0  0  0  0  0  0  0  0  0  0  0  0
   43.5050   34.1180   40.8660 C   0  0  0  0  0  0  0  0  0  0  0  0
   42.5250   34.8380   39.9670 C   0  0  0  0  0  2  0  0  0  0  0  0
   41.2360   34.1950   40.1650 N   0  0  0  0  0  0  0  0  0  0  0  0
   39.8970   33.7850   40.4600 C   0  0  0  0  0  0  0  0  0  0  0  0
   39.0010   34.5800   40.9040 O   0  0  0  0  0  0  0  0  0  0  0  0
   40.1120   32.3720   40.0730 C   0  0  2  0  0  3  0  0  0  0  0  0
   41.4470   32.8430   39.6220 C   0  0  2  0  0  3  0  0  0  0  0  0
   42.8580   32.4040   40.7150 S   0  0  0  0  0  0  0  0  0  0  0  0
   43.4740   34.6160   42.2750 C   0  0  0  0  0  2  0  0  0  0  0  0
   43.1200   35.6830   42.3430 H   0  0  0  0  0  0  0  0  0  0  0  0
   44.8650   34.1500   40.2230 C   0  0  0  0  0  2  0  0  0  0  0  0
   45.2500   33.1450   39.9440 H   0  0  0  0  0  0  0  0  0  0  0  0
   36.8650   27.6570   39.1760 C   0  0  0  0  0  0  0  0  0  0  0  0
   35.6980   27.2510   38.9120 O   0  0  0  0  0  0  0  0  0  0  0  0
   38.3860   25.9660   38.2500 C   0  0  0  0  0  0  0  0  0  0  0  0
   37.8430   26.6440   39.3610 C   0  0  0  0  0  0  0  0  0  0  0  0
   38.3480   26.2280   40.5790 C   0  0  0  0  0  0  0  0  0  0  0  0
   39.2640   25.2740   40.6970 N   0  0  0  0  0  0  0  0  0  0  0  0
   39.7560   24.6490   39.5870 C   0  0  0  0  0  0  0  0  0  0  0  0
   39.3110   25.0040   38.3800 N   0  0  0  0  0  0  0  0  0  0  0  0
   38.0010   26.2780   37.2730 H   0  0  0  0  0  0  0  0  0  0  0  0
   40.5040   23.8700   39.6710 H   0  0  0  0  0  0  0  0  0  0  0  0
   37.8520   26.8610   41.7580 C   0  0  0  0  0  0  0  0  0  0  0  0
   36.7720   26.6930   42.5620 C   0  0  0  0  0  0  0  0  0  0  0  0
   36.5680   27.4560   43.6200 C   0  0  0  0  0  0  0  0  0  0  0  0
   37.4750   28.4120   43.8740 C   0  0  0  0  0  0  0  0  0  0  0  0
   38.6940   28.2270   42.5380 S   0  0  0  0  0  0  0  0  0  0  0  0
   36.1010   25.8680   42.2430 H   0  0  0  0  0  0  0  0  0  0  0  0
   35.7300   27.3770   44.3030 H   0  0  0  0  0  0  0  0  0  0  0  0
   37.5550   29.1730   44.6660 H   0  0  0  0  0  0  0  0  0  0  0  0
  1  5  1  0  0  0  0
  2  3  1  0  0  0  0
  2  1  2  0  0  0  0
  3  4  1  0  0  0  0
  4  5  2  0  0  0  0
  4  6  1  0  0  0  0
  6  9  1  0  0  0  0
  7  2  1  0  0  0  0
  8  6  1  0  0  0  0
 10  3  1  0  0  0  0
 11 10  1  0  0  0  0
 12 10  1  0  0  0  0
 13 21  1  0  0  0  0
 14 15  1  0  0  0  0
 14 13  1  0  0  0  0
 15 16  1  0  0  0  0
 16 17  2  0  0  0  0
 18 10  1  6  0  0  0
 18 16  1  0  0  0  0
 19 18  1  0  0  0  0
 19 15  1  0  0  0  0
 19 20  1  1  0  0  0
 20 13  1  0  0  0  0
 21 22  1  0  0  0  0
 23 13  1  0  0  0  0
 24 23  1  0  0  0  0
 25  1  1  0  0  0  0
 25 28  1  0  0  0  0
 26 25  2  0  0  0  0
 27 32  2  0  0  0  0
 27 28  1  0  0  0  0
 28 29  2  0  0  0  0
 29 30  1  0  0  0  0
 29 35  1  0  0  0  0
 31 34  1  0  0  0  0
 31 30  2  0  0  0  0
 32 31  1  0  0  0  0
 33 27  1  0  0  0  0
 35 39  1  0  0  0  0
 35 36  2  0  0  0  0
 36 37  1  0  0  0  0
 37 38  2  0  0  0  0
 37 41  1  0  0  0  0
 38 42  1  0  0  0  0
 39 38  1  0  0  0  0
 40 36  1  0  0  0  0
M  END
>  <minimizedAffinity>
-6.00238323

$$$$

 OpenBabel03252503213D

 42 46  0  0  1  0  0  0  0  0999 V2000
   40.5730   33.0400   38.7630 C   0  0  0  0  0  0  0  0  0  0  0  0
   39.6320   32.8550   39.7430 C   0  0  0  0  0  0  0  0  0  0  0  0
   38.6990   32.0410   39.2140 N   0  0  0  0  0  0  0  0  0  0  0  0
   39.0630   31.7430   37.9550 C   0  0  0  0  0  0  0  0  0  0  0  0
   40.2180   32.3540   37.6680 N   0  0  0  0  0  0  0  0  0  0  0  0
   38.4260   30.9280   36.9790 N   0  0  0  0  0  0  0  0  0  0  0  0
   39.6220   33.2590   40.7230 H   0  0  0  0  0  0  0  0  0  0  0  0
   38.2970   31.1730   35.9850 H   0  0  0  0  0  0  0  0  0  0  0  0
   37.9990   29.9770   37.1070 H   0  0  0  0  0  0  0  0  0  0  0  0
   37.4830   31.5250   39.8180 C   0  0  0  0  0  0  0  0  0  0  0  0
   37.3560   31.9560   40.8420 H   0  0  0  0  0  0  0  0  0  0  0  0
   36.6160   31.8620   39.2150 H   0  0  0  0  0  0  0  0  0  0  0  0
   38.1450   27.2440   42.5960 C   0  0  0  0  0  0  0  0  0  0  0  0
   37.2030   28.3750   42.9410 C   0  0  0  0  0  2  0  0  0  0  0  0
   36.8330   29.0010   41.6820 N   0  0  0  0  0  0  0  0  0  0  0  0
   36.2360   29.5310   40.4940 C   0  0  0  0  0  0  0  0  0  0  0  0
   34.9810   29.4860   40.2590 O   0  0  0  0  0  0  0  0  0  0  0  0
   37.5140   29.9950   39.9090 C   0  0  2  0  0  3  0  0  0  0  0  0
   38.0990   29.5870   41.2130 C   0  0  2  0  0  3  0  0  0  0  0  0
   39.0560   28.0180   41.1990 S   0  0  0  0  0  0  0  0  0  0  0  0
   37.4290   25.9970   42.1870 C   0  0  0  0  0  2  0  0  0  0  0  0
   36.3950   25.9320   42.6300 H   0  0  0  0  0  0  0  0  0  0  0  0
   39.1180   27.0610   43.7290 C   0  0  0  0  0  2  0  0  0  0  0  0
   40.1730   27.2740   43.4500 H   0  0  0  0  0  0  0  0  0  0  0  0
   41.8110   33.8710   38.8720 C   0  0  0  0  0  0  0  0  0  0  0  0
   42.1240   34.7850   38.0570 O   0  0  0  0  0  0  0  0  0  0  0  0
   42.5790   34.3590   41.1530 C   0  0  0  0  0  0  0  0  0  0  0  0
   42.7240   33.6560   39.9390 C   0  0  0  0  0  0  0  0  0  0  0  0
   43.7980   32.7860   39.9150 C   0  0  0  0  0  0  0  0  0  0  0  0
   44.6230   32.6220   40.9420 N   0  0  0  0  0  0  0  0  0  0  0  0
   44.4360   33.3290   42.0950 C   0  0  0  0  0  0  0  0  0  0  0  0
   43.4170   34.1870   42.1850 N   0  0  0  0  0  0  0  0  0  0  0  0
   41.7340   35.0550   41.1960 H   0  0  0  0  0  0  0  0  0  0  0  0
   45.1020   33.2040   42.9400 H   0  0  0  0  0  0  0  0  0  0  0  0
   44.0200   32.0340   38.7220 C   0  0  0  0  0  0  0  0  0  0  0  0
   43.6070   30.8310   38.2480 C   0  0  0  0  0  0  0  0  0  0  0  0
   43.9900   30.3820   37.0680 C   0  0  0  0  0  0  0  0  0  0  0  0
   44.8090   31.1620   36.3470 C   0  0  0  0  0  0  0  0  0  0  0  0
   45.0590   32.6250   37.3980 S   0  0  0  0  0  0  0  0  0  0  0  0
   42.9320   30.2860   38.9400 H   0  0  0  0  0  0  0  0  0  0  0  0
   43.6990   29.4340   36.6290 H   0  0  0  0  0  0  0  0  0  0  0  0
   45.2740   31.0410   35.3560 H   0  0  0  0  0  0  0  0  0  0  0  0
  1 25  1  0  0  0  0
  1  2  2  0  0  0  0
  2  7  1  0  0  0  0
  3  2  1  0  0  0  0
  3 10  1  0  0  0  0
  4  3  1  0  0  0  0
  5  4  2  0  0  0  0
  5  1  1  0  0  0  0
  6  9  1  0  0  0  0
  6  4  1  0  0  0  0
  8  6  1  0  0  0  0
 10 11  1  0  0  0  0
 12 10  1  0  0  0  0
 13 14  1  0  0  0  0
 13 23  1  0  0  0  0
 15 14  1  0  0  0  0
 16 15  1  0  0  0  0
 17 16  2  0  0  0  0
 18 10  1  1  0  0  0
 18 16  1  0  0  0  0
 18 19  1  0  0  0  0
 19 20  1  6  0  0  0
 19 15  1  0  0  0  0
 20 13  1  0  0  0  0
 21 13  1  0  0  0  0
 21 22  1  0  0  0  0
 24 23  1  0  0  0  0
 25 28  1  0  0  0  0
 26 25  2  0  0  0  0
 27 33  1  0  0  0  0
 27 32  1  0  0  0  0
 28 27  2  0  0  0  0
 29 28  1  0  0  0  0
 29 30  2  0  0  0  0
 30 31  1  0  0  0  0
 31 32  2  0  0  0  0
 31 34  1  0  0  0  0
 35 29  1  0  0  0  0
 36 35  2  0  0  0  0
 36 40  1  0  0  0  0
 37 36  1  0  0  0  0
 38 37  2  0  0  0  0
 38 39  1  0  0  0  0
 39 35  1  0  0  0  0
 41 37  1  0  0  0  0
 42 38  1  0  0  0  0
M  END
>  <minimizedAffinity>
-5.94944668

$$$$

 OpenBabel03252503213D

 42 46  0  0  1  0  0  0  0  0999 V2000
   37.2410   30.7490   40.8040 C   0  0  0  0  0  0  0  0  0  0  0  0
   38.5040   31.1890   41.1060 C   0  0  0  0  0  0  0  0  0  0  0  0
   38.6030   32.4250   40.5820 N   0  0  0  0  0  0  0  0  0  0  0  0
   37.4380   32.7250   39.9830 C   0  0  0  0  0  0  0  0  0  0  0  0
   36.5920   31.6970   40.1160 N   0  0  0  0  0  0  0  0  0  0  0  0
   37.0320   33.8980   39.2890 N   0  0  0  0  0  0  0  0  0  0  0  0
   39.2640   30.6760   41.6410 H   0  0  0  0  0  0  0  0  0  0  0  0
   36.5300   33.9170   38.3880 H   0  0  0  0  0  0  0  0  0  0  0  0
   37.1730   34.8990   39.5710 H   0  0  0  0  0  0  0  0  0  0  0  0
   39.7270   33.3450   40.6090 C   0  0  0  0  0  0  0  0  0  0  0  0
   39.6040   34.1180   39.8100 H   0  0  0  0  0  0  0  0  0  0  0  0
   39.7260   33.8800   41.5800 H   0  0  0  0  0  0  0  0  0  0  0  0
   43.2050   31.2400   37.4530 C   0  0  0  0  0  0  0  0  0  0  0  0
   42.6730   32.6520   37.3530 C   0  0  0  0  0  2  0  0  0  0  0  0
   42.2820   33.0400   38.6990 N   0  0  0  0  0  0  0  0  0  0  0  0
   42.0860   33.5910   40.0060 C   0  0  0  0  0  0  0  0  0  0  0  0
   42.7260   34.6070   40.4420 O   0  0  0  0  0  0  0  0  0  0  0  0
   41.0540   32.6060   40.4020 C   0  0  2  0  0  3  0  0  0  0  0  0
   41.1510   32.1450   38.9930 C   0  0  2  0  0  3  0  0  0  0  0  0
   42.0650   30.5720   38.7310 S   0  0  0  0  0  0  0  0  0  0  0  0
   44.6350   31.1880   37.8830 C   0  0  0  0  0  2  0  0  0  0  0  0
   45.1970   32.1270   37.6150 H   0  0  0  0  0  0  0  0  0  0  0  0
   42.9150   30.5210   36.1640 C   0  0  0  0  0  2  0  0  0  0  0  0
   42.2150   29.6640   36.2780 H   0  0  0  0  0  0  0  0  0  0  0  0
   36.6540   29.4250   41.1740 C   0  0  0  0  0  0  0  0  0  0  0  0
   35.4560   29.0930   40.9470 O   0  0  0  0  0  0  0  0  0  0  0  0
   37.4690   28.3580   43.2310 C   0  0  0  0  0  0  0  0  0  0  0  0
   37.4520   28.4460   41.8230 C   0  0  0  0  0  0  0  0  0  0  0  0
   38.2590   27.5180   41.1900 C   0  0  0  0  0  0  0  0  0  0  0  0
   38.9870   26.6220   41.8450 N   0  0  0  0  0  0  0  0  0  0  0  0
   38.9660   26.5810   43.2090 C   0  0  0  0  0  0  0  0  0  0  0  0
   38.2080   27.4480   43.8830 N   0  0  0  0  0  0  0  0  0  0  0  0
   36.8370   29.0820   43.7560 H   0  0  0  0  0  0  0  0  0  0  0  0
   39.5550   25.8540   43.7550 H   0  0  0  0  0  0  0  0  0  0  0  0
   38.3030   27.5370   39.7640 C   0  0  0  0  0  0  0  0  0  0  0  0
   39.0760   28.1470   38.8300 C   0  0  0  0  0  0  0  0  0  0  0  0
   38.8740   27.9690   37.5370 C   0  0  0  0  0  0  0  0  0  0  0  0
   37.8700   27.1570   37.1770 C   0  0  0  0  0  0  0  0  0  0  0  0
   37.1600   26.6060   38.7580 S   0  0  0  0  0  0  0  0  0  0  0  0
   39.8720   28.7910   39.2590 H   0  0  0  0  0  0  0  0  0  0  0  0
   39.4510   28.4240   36.7400 H   0  0  0  0  0  0  0  0  0  0  0  0
   37.4840   26.8370   36.1950 H   0  0  0  0  0  0  0  0  0  0  0  0
  1  2  2  0  0  0  0
  1 25  1  0  0  0  0
  2  7  1  0  0  0  0
  3 10  1  0  0  0  0
  3  2  1  0  0  0  0
  4  5  2  0  0  0  0
  4  3  1  0  0  0  0
  5  1  1  0  0  0  0
  6  9  1  0  0  0  0
  6  4  1  0  0  0  0
  8  6  1  0  0  0  0
 10 12  1  0  0  0  0
 11 10  1  0  0  0  0
 13 21  1  0  0  0  0
 13 20  1  0  0  0  0
 14 13  1  0  0  0  0
 14 15  1  0  0  0  0
 15 19  1  0  0  0  0
 15 16  1  0  0  0  0
 16 18  1  0  0  0  0
 16 17  2  0  0  0  0
 18 10  1  6  0  0  0
 19 20  1  1  0  0  0
 19 18  1  0  0  0  0
 22 21  1  0  0  0  0
 23 24  1  0  0  0  0
 23 13  1  0  0  0  0
 25 28  1  0  0  0  0
 26 25  2  0  0  0  0
 27 33  1  0  0  0  0
 27 32  1  0  0  0  0
 28 27  2  0  0  0  0
 29 28  1  0  0  0  0
 29 30  2  0  0  0  0
 30 31  1  0  0  0  0
 31 34  1  0  0  0  0
 31 32  2  0  0  0  0
 35 29  1  0  0  0  0
 36 40  1  0  0  0  0
 36 35  2  0  0  0  0
 37 36  1  0  0  0  0
 38 37  2  0  0  0  0
 38 39  1  0  0  0  0
 39 35  1  0  0  0  0
 41 37  1  0  0  0  0
 42 38  1  0  0  0  0
M  END
>  <minimizedAffinity>
-5.93368101

$$$$
