
 OpenBabel03242522203D

 48 52  0  0  1  0  0  0  0  0999 V2000
   42.4620   34.9110   40.2450 C   0  0  0  0  0  0  0  0  0  0  0  0
   42.1760   34.9040   38.9020 C   0  0  0  0  0  0  0  0  0  0  0  0
   41.1350   34.2300   38.2960 C   0  0  0  0  0  0  0  0  0  0  0  0
   40.3240   33.5090   39.1120 C   0  0  0  0  0  0  0  0  0  0  0  0
   40.6130   33.5180   40.4600 C   0  0  0  0  0  0  0  0  0  0  0  0
   41.6320   34.1820   41.0290 N   0  0  0  0  0  0  0  0  0  0  0  0
   42.8740   35.5070   38.3030 H   0  0  0  0  0  0  0  0  0  0  0  0
   41.0250   34.3130   37.2380 H   0  0  0  0  0  0  0  0  0  0  0  0
   39.6790   32.7020   41.3110 C   0  0  0  0  0  0  0  0  0  0  0  0
   38.3750   32.8860   40.8570 F   0  0  0  0  0  0  0  0  0  0  0  0
   39.8160   32.9170   42.6470 F   0  0  0  0  0  0  0  0  0  0  0  0
   39.9430   31.3450   41.1010 F   0  0  0  0  0  0  0  0  0  0  0  0
   43.5220   35.5830   40.9550 C   0  0  0  0  0  0  0  0  0  0  0  0
   44.5080   35.2280   40.5600 H   0  0  0  0  0  0  0  0  0  0  0  0
   43.5030   36.6780   40.6890 H   0  0  0  0  0  0  0  0  0  0  0  0
   43.5410   35.4170   42.4330 C   0  0  0  0  0  0  0  0  0  0  0  0
   43.4300   36.3440   43.0050 H   0  0  0  0  0  0  0  0  0  0  0  0
   42.6790   34.7630   42.7270 H   0  0  0  0  0  0  0  0  0  0  0  0
   46.7100   33.5410   42.8470 C   0  0  0  0  0  0  0  0  0  0  0  0
   46.8090   33.5820   44.1970 C   0  0  0  0  0  0  0  0  0  0  0  0
   45.2900   34.5310   44.6580 S   0  0  0  0  0  0  0  0  0  0  0  0
   44.7730   34.7090   42.8860 C   0  0  0  0  0  0  0  0  0  0  0  0
   45.6520   34.1440   42.4020 N   0  0  0  0  0  0  0  0  0  0  0  0
   47.5450   33.1910   44.8770 H   0  0  0  0  0  0  0  0  0  0  0  0
   48.8980   32.6360   39.9260 C   0  0  0  0  0  0  0  0  0  0  0  0
   47.9440   33.3200   40.6950 C   0  0  0  0  0  0  0  0  0  0  0  0
   47.6950   32.8820   41.9730 C   0  0  0  0  0  0  0  0  0  0  0  0
   48.4120   31.7810   42.4220 N   0  0  0  0  0  0  0  0  0  0  0  0
   49.3160   31.1600   41.6470 C   0  0  0  0  0  0  0  0  0  0  0  0
   49.5650   31.5830   40.3910 N   0  0  0  0  0  0  0  0  0  0  0  0
   49.0970   32.9720   38.9230 H   0  0  0  0  0  0  0  0  0  0  0  0
   49.8530   30.3060   42.0260 H   0  0  0  0  0  0  0  0  0  0  0  0
   47.2990   34.4260   40.0900 N   0  0  0  0  0  0  0  0  0  0  0  0
   47.4510   35.3360   40.5680 H   0  0  0  0  0  0  0  0  0  0  0  0
   46.6980   34.4140   39.2280 H   0  0  0  0  0  0  0  0  0  0  0  0
   38.9580   32.5890   38.4410 S   0  0  0  0  0  0  0  0  0  0  0  0
   39.3860   31.0590   37.6310 C   0  0  0  0  0  2  0  0  0  0  0  0
   38.7120   29.8220   38.1000 C   0  0  2  0  0  0  0  0  0  0  0  0
   37.6440   29.8590   39.0920 C   0  0  0  0  0  2  0  0  0  0  0  0
   38.0090   29.1140   40.3030 N   0  0  0  0  0  0  0  0  0  0  0  0
   38.1110   28.7660   41.6790 C   0  0  0  0  0  0  0  0  0  0  0  0
   37.4430   29.1220   42.7010 O   0  0  0  0  0  0  0  0  0  0  0  0
   39.2630   27.8540   41.4590 C   0  0  0  0  0  3  0  0  0  0  0  0
   40.2490   28.2840   41.6770 H   0  0  0  0  0  0  0  0  0  0  0  0
   38.7920   27.9010   40.0270 C   0  0  2  0  0  3  0  0  0  0  0  0
   39.9580   28.6820   38.8570 S   0  0  0  0  0  0  0  0  0  0  0  0
   38.2640   29.0050   36.8370 C   0  0  0  0  0  2  0  0  0  0  0  0
   39.2320   28.8020   36.3360 H   0  0  0  0  0  0  0  0  0  0  0  0
  1 13  1  0  0  0  0
  1  6  1  0  0  0  0
  2  1  2  0  0  0  0
  3  2  1  0  0  0  0
  3  4  2  0  0  0  0
  4  5  1  0  0  0  0
  5  6  2  0  0  0  0
  5  9  1  0  0  0  0
  7  2  1  0  0  0  0
  8  3  1  0  0  0  0
  9 11  1  0  0  0  0
 10  9  1  0  0  0  0
 12  9  1  0  0  0  0
 13 16  1  0  0  0  0
 14 13  1  0  0  0  0
 15 13  1  0  0  0  0
 16 18  1  0  0  0  0
 16 22  1  0  0  0  0
 16 17  1  0  0  0  0
 19 20  2  0  0  0  0
 20 21  1  0  0  0  0
 20 24  1  0  0  0  0
 22 21  1  0  0  0  0
 23 19  1  0  0  0  0
 23 22  2  0  0  0  0
 25 30  2  0  0  0  0
 25 26  1  0  0  0  0
 26 27  2  0  0  0  0
 27 28  1  0  0  0  0
 27 19  1  0  0  0  0
 29 32  1  0  0  0  0
 29 28  2  0  0  0  0
 30 29  1  0  0  0  0
 31 25  1  0  0  0  0
 33 34  1  0  0  0  0
 33 26  1  0  0  0  0
 35 33  1  0  0  0  0
 36  4  1  0  0  0  0
 37 38  1  0  0  0  0
 37 36  1  0  0  0  0
 38 47  1  6  0  0  0
 38 46  1  0  0  0  0
 38 39  1  0  0  0  0
 39 40  1  0  0  0  0
 40 41  1  0  0  0  0
 41 42  2  0  0  0  0
 43 44  1  0  0  0  0
 43 41  1  0  0  0  0
 45 46  1  6  0  0  0
 45 40  1  0  0  0  0
 45 43  1  0  0  0  0
 48 47  1  0  0  0  0
M  END
>  <minimizedAffinity>
-5.81433535

>  <minimizedRMSD>
3.84627128

$$$$
