
 OpenBabel03242511163D

 22 24  0  0  1  0  0  0  0  0999 V2000
   47.3710   32.7860   41.9760 C   0  0  0  0  0  2  0  0  0  0  0  0
   46.7440   33.6290   40.8950 C   0  0  1  0  0  0  0  0  0  0  0  0
   47.7630   34.3380   40.0500 C   0  0  0  0  0  2  0  0  0  0  0  0
   48.1410   33.4340   38.9760 N   0  0  0  0  0  0  0  0  0  0  0  0
   48.7890   32.5680   38.0470 C   0  0  0  0  0  0  0  0  0  0  0  0
   50.0000   32.2770   37.8370 O   0  0  0  0  0  0  0  0  0  0  0  0
   47.5310   32.1190   37.4000 C   0  0  0  0  0  3  0  0  0  0  0  0
   47.4610   32.3810   36.3050 H   0  0  0  0  0  0  0  0  0  0  0  0
   46.9060   33.1910   38.2150 C   0  0  1  0  0  3  0  0  0  0  0  0
   45.9030   32.6130   39.6450 S   0  0  0  0  0  0  0  0  0  0  0  0
   45.7650   34.6240   41.4240 C   0  0  0  0  0  2  0  0  0  0  0  0
   45.4020   35.1960   40.5210 H   0  0  0  0  0  0  0  0  0  0  0  0
   47.5030   33.8060   43.4610 S   0  0  0  0  0  0  0  0  0  0  0  0
   45.6890   32.7390   46.9430 C   0  0  0  0  0  0  0  0  0  0  0  0
   46.1190   33.5140   45.8440 C   0  0  0  0  0  0  0  0  0  0  0  0
   46.9270   32.8700   44.8790 C   0  0  0  0  0  0  0  0  0  0  0  0
   47.2370   31.5640   45.0640 N   0  0  0  0  0  0  0  0  0  0  0  0
   46.8070   30.8630   46.1250 C   0  0  0  0  0  0  0  0  0  0  0  0
   46.0330   31.4450   47.0680 N   0  0  0  0  0  0  0  0  0  0  0  0
   45.0810   33.3030   47.6280 H   0  0  0  0  0  0  0  0  0  0  0  0
   45.8530   34.5580   45.7260 H   0  0  0  0  0  0  0  0  0  0  0  0
   47.0500   29.8220   46.2810 H   0  0  0  0  0  0  0  0  0  0  0  0
  1 13  1  0  0  0  0
  2 11  1  1  0  0  0
  2  1  1  0  0  0  0
  3  2  1  0  0  0  0
  4  3  1  0  0  0  0
  5  4  1  0  0  0  0
  6  5  2  0  0  0  0
  7  5  1  0  0  0  0
  8  7  1  0  0  0  0
  9  7  1  6  0  0  0
  9  4  1  0  0  0  0
  9 10  1  0  0  0  0
 10  2  1  0  0  0  0
 12 11  1  0  0  0  0
 13 16  1  0  0  0  0
 14 19  1  0  0  0  0
 14 20  1  0  0  0  0
 15 14  2  0  0  0  0
 16 17  2  0  0  0  0
 16 15  1  0  0  0  0
 17 18  1  0  0  0  0
 18 22  1  0  0  0  0
 18 19  2  0  0  0  0
 21 15  1  0  0  0  0
M  END
>  <minimizedAffinity>
-3.62179112

>  <minimizedRMSD>
4.79840279

$$$$
