
 OpenBabel03242511163D

 22 24  0  0  1  0  0  0  0  0999 V2000
   45.6850   33.2650   39.6030 C   0  0  0  0  0  2  0  0  0  0  0  0
   44.9560   32.4360   40.6310 C   0  0  1  0  0  0  0  0  0  0  0  0
   44.5080   33.2460   41.8140 C   0  0  0  0  0  2  0  0  0  0  0  0
   43.2020   33.7980   41.4920 N   0  0  0  0  0  0  0  0  0  0  0  0
   42.0620   34.6080   41.2090 C   0  0  0  0  0  0  0  0  0  0  0  0
   41.8410   35.8480   41.2960 O   0  0  0  0  0  0  0  0  0  0  0  0
   41.2120   33.4720   40.7720 C   0  0  0  0  0  3  0  0  0  0  0  0
   40.2920   33.3210   41.4070 H   0  0  0  0  0  0  0  0  0  0  0  0
   42.3240   32.6360   41.2870 C   0  0  1  0  0  3  0  0  0  0  0  0
   43.3630   31.8250   40.0050 S   0  0  0  0  0  0  0  0  0  0  0  0
   45.7510   31.2670   41.1070 C   0  0  0  0  0  2  0  0  0  0  0  0
   45.1040   30.7610   41.8840 H   0  0  0  0  0  0  0  0  0  0  0  0
   47.4050   32.7150   39.5730 S   0  0  0  0  0  0  0  0  0  0  0  0
   49.9790   33.9130   42.4880 C   0  0  0  0  0  0  0  0  0  0  0  0
   49.2390   33.0820   41.6180 C   0  0  0  0  0  0  0  0  0  0  0  0
   48.3700   33.7200   40.7030 C   0  0  0  0  0  0  0  0  0  0  0  0
   48.3000   35.0740   40.7150 N   0  0  0  0  0  0  0  0  0  0  0  0
   49.0210   35.8270   41.5600 C   0  0  0  0  0  0  0  0  0  0  0  0
   49.8630   35.2520   42.4480 N   0  0  0  0  0  0  0  0  0  0  0  0
   50.6130   33.3500   43.1490 H   0  0  0  0  0  0  0  0  0  0  0  0
   49.3180   32.0020   41.6350 H   0  0  0  0  0  0  0  0  0  0  0  0
   48.9720   36.9060   41.5760 H   0  0  0  0  0  0  0  0  0  0  0  0
  2  1  1  6  0  0  0
  2 11  1  0  0  0  0
  2  3  1  0  0  0  0
  4  3  1  0  0  0  0
  5  6  2  0  0  0  0
  5  4  1  0  0  0  0
  7  5  1  0  0  0  0
  7  9  1  0  0  0  0
  7  8  1  0  0  0  0
  9 10  1  6  0  0  0
  9  4  1  0  0  0  0
 10  2  1  0  0  0  0
 11 12  1  0  0  0  0
 13  1  1  0  0  0  0
 13 16  1  0  0  0  0
 14 20  1  0  0  0  0
 15 21  1  0  0  0  0
 15 14  2  0  0  0  0
 16 17  2  0  0  0  0
 16 15  1  0  0  0  0
 17 18  1  0  0  0  0
 18 22  1  0  0  0  0
 18 19  2  0  0  0  0
 19 14  1  0  0  0  0
M  END
>  <minimizedAffinity>
-3.70765495

>  <minimizedRMSD>
7.07747078

$$$$
