
 OpenBabel03242511163D

 22 24  0  0  1  0  0  0  0  0999 V2000
   46.7860   32.9930   40.9350 C   0  0  0  0  0  2  0  0  0  0  0  0
   47.9990   33.5790   40.2570 C   0  0  1  0  0  0  0  0  0  0  0  0
   49.1940   32.6720   40.3220 C   0  0  0  0  0  2  0  0  0  0  0  0
   49.1220   31.7750   39.1800 N   0  0  0  0  0  0  0  0  0  0  0  0
   49.0350   30.6780   38.2730 C   0  0  0  0  0  0  0  0  0  0  0  0
   49.0830   29.4260   38.4240 O   0  0  0  0  0  0  0  0  0  0  0  0
   48.8640   31.5310   37.0680 C   0  0  0  0  0  3  0  0  0  0  0  0
   49.6890   31.4140   36.3080 H   0  0  0  0  0  0  0  0  0  0  0  0
   49.1870   32.6440   37.9950 C   0  0  1  0  0  3  0  0  0  0  0  0
   47.7690   33.7190   38.4590 S   0  0  0  0  0  0  0  0  0  0  0  0
   48.3720   34.9240   40.7860 C   0  0  0  0  0  2  0  0  0  0  0  0
   49.3000   35.2240   40.2160 H   0  0  0  0  0  0  0  0  0  0  0  0
   45.5870   34.3240   41.1610 S   0  0  0  0  0  0  0  0  0  0  0  0
   44.4760   35.9330   44.7290 C   0  0  0  0  0  0  0  0  0  0  0  0
   44.6760   35.7730   43.3400 C   0  0  0  0  0  0  0  0  0  0  0  0
   45.3070   34.5820   42.9140 C   0  0  0  0  0  0  0  0  0  0  0  0
   45.6790   33.6770   43.8520 N   0  0  0  0  0  0  0  0  0  0  0  0
   45.4710   33.8700   45.1640 C   0  0  0  0  0  0  0  0  0  0  0  0
   44.8690   34.9960   45.6090 N   0  0  0  0  0  0  0  0  0  0  0  0
   43.9910   36.8640   44.9670 H   0  0  0  0  0  0  0  0  0  0  0  0
   44.3660   36.5180   42.6160 H   0  0  0  0  0  0  0  0  0  0  0  0
   45.7640   33.1540   45.9190 H   0  0  0  0  0  0  0  0  0  0  0  0
  1 13  1  0  0  0  0
  2  3  1  0  0  0  0
  2 11  1  1  0  0  0
  2  1  1  0  0  0  0
  4  3  1  0  0  0  0
  5  6  2  0  0  0  0
  5  4  1  0  0  0  0
  7  5  1  0  0  0  0
  8  7  1  0  0  0  0
  9  7  1  6  0  0  0
  9 10  1  0  0  0  0
  9  4  1  0  0  0  0
 10  2  1  0  0  0  0
 12 11  1  0  0  0  0
 13 16  1  0  0  0  0
 14 20  1  0  0  0  0
 14 19  1  0  0  0  0
 15 14  2  0  0  0  0
 16 15  1  0  0  0  0
 16 17  2  0  0  0  0
 17 18  1  0  0  0  0
 18 19  2  0  0  0  0
 18 22  1  0  0  0  0
 21 15  1  0  0  0  0
M  END
>  <minimizedAffinity>
-4.03090096

>  <minimizedRMSD>
1.18393195

$$$$
