
 OpenBabel03242511163D

 22 24  0  0  1  0  0  0  0  0999 V2000
   48.2350   33.7260   41.8300 C   0  0  0  0  0  2  0  0  0  0  0  0
   48.3650   32.9890   40.5210 C   0  0  1  0  0  0  0  0  0  0  0  0
   49.6750   32.2640   40.3930 C   0  0  0  0  0  2  0  0  0  0  0  0
   49.5050   30.9510   40.9910 N   0  0  0  0  0  0  0  0  0  0  0  0
   49.5560   29.7570   41.7700 C   0  0  0  0  0  0  0  0  0  0  0  0
   50.3380   29.3470   42.6720 O   0  0  0  0  0  0  0  0  0  0  0  0
   48.3540   29.1520   41.1430 C   0  0  0  0  0  3  0  0  0  0  0  0
   48.5610   28.1840   40.6020 H   0  0  0  0  0  0  0  0  0  0  0  0
   48.4600   30.2900   40.1960 C   0  0  1  0  0  3  0  0  0  0  0  0
   47.1930   31.6070   40.4000 S   0  0  0  0  0  0  0  0  0  0  0  0
   48.1720   33.8710   39.3320 C   0  0  0  0  0  2  0  0  0  0  0  0
   48.3250   33.2020   38.4350 H   0  0  0  0  0  0  0  0  0  0  0  0
   46.7760   34.7860   41.7190 S   0  0  0  0  0  0  0  0  0  0  0  0
   44.4680   35.9350   44.8670 C   0  0  0  0  0  0  0  0  0  0  0  0
   45.0820   35.9210   43.5950 C   0  0  0  0  0  0  0  0  0  0  0  0
   45.9690   34.8550   43.3200 C   0  0  0  0  0  0  0  0  0  0  0  0
   46.1760   33.9220   44.2810 N   0  0  0  0  0  0  0  0  0  0  0  0
   45.5720   33.9740   45.4790 C   0  0  0  0  0  0  0  0  0  0  0  0
   44.7170   34.9780   45.7780 N   0  0  0  0  0  0  0  0  0  0  0  0
   43.8110   36.7770   44.9940 H   0  0  0  0  0  0  0  0  0  0  0  0
   44.8940   36.6830   42.8480 H   0  0  0  0  0  0  0  0  0  0  0  0
   45.7310   33.2350   46.2510 H   0  0  0  0  0  0  0  0  0  0  0  0
  2 11  1  6  0  0  0
  2  1  1  0  0  0  0
  3  2  1  0  0  0  0
  3  4  1  0  0  0  0
  4  5  1  0  0  0  0
  5  6  2  0  0  0  0
  7  5  1  0  0  0  0
  8  7  1  0  0  0  0
  9 10  1  1  0  0  0
  9  4  1  0  0  0  0
  9  7  1  0  0  0  0
 10  2  1  0  0  0  0
 12 11  1  0  0  0  0
 13  1  1  0  0  0  0
 13 16  1  0  0  0  0
 14 20  1  0  0  0  0
 14 19  1  0  0  0  0
 15 14  2  0  0  0  0
 16 15  1  0  0  0  0
 16 17  2  0  0  0  0
 17 18  1  0  0  0  0
 18 19  2  0  0  0  0
 18 22  1  0  0  0  0
 21 15  1  0  0  0  0
M  END
>  <minimizedAffinity>
-3.66382051

>  <minimizedRMSD>
1.44943213

$$$$
