
 OpenBabel03252506333D

 36 39  0  0  1  0  0  0  0  0999 V2000
   44.5090   35.5090   45.0960 C   0  0  0  0  0  0  0  0  0  0  0  0
   45.2060   35.4820   43.8580 C   0  0  0  0  0  0  0  0  0  0  0  0
   46.1570   34.5200   43.6490 C   0  0  0  0  0  0  0  0  0  0  0  0
   46.3600   33.6510   44.6670 N   0  0  0  0  0  0  0  0  0  0  0  0
   45.7150   33.6690   45.8240 C   0  0  0  0  0  0  0  0  0  0  0  0
   44.7780   34.5990   46.0610 N   0  0  0  0  0  0  0  0  0  0  0  0
   46.0440   32.6880   46.7890 N   0  0  0  0  0  0  0  0  0  0  0  0
   45.2130   32.3780   47.9630 C   0  0  0  0  0  0  0  0  0  0  0  0
   46.2610   32.1080   49.0150 C   0  0  0  0  0  0  0  0  0  0  0  0
   47.5820   32.0180   48.3110 C   0  0  0  0  0  0  0  0  0  0  0  0
   47.1860   31.8070   46.8640 C   0  0  1  0  0  0  0  0  0  0  0  0
   43.7440   36.2340   45.3450 H   0  0  0  0  0  0  0  0  0  0  0  0
   46.6600   34.5260   42.7140 H   0  0  0  0  0  0  0  0  0  0  0  0
   44.5750   31.5000   47.7320 H   0  0  0  0  0  0  0  0  0  0  0  0
   44.6130   33.2640   48.2220 H   0  0  0  0  0  0  0  0  0  0  0  0
   46.2490   32.9230   49.7700 H   0  0  0  0  0  0  0  0  0  0  0  0
   46.0010   31.1180   49.4710 H   0  0  0  0  0  0  0  0  0  0  0  0
   48.1330   31.1150   48.6310 H   0  0  0  0  0  0  0  0  0  0  0  0
   48.1950   32.9400   48.4200 H   0  0  0  0  0  0  0  0  0  0  0  0
   47.9900   32.1210   46.1670 H   0  0  0  0  0  0  0  0  0  0  0  0
   44.8230   36.5050   42.9250 N   0  0  0  0  0  0  0  0  0  0  0  0
   43.8010   36.7530   42.8320 H   0  0  0  0  0  0  0  0  0  0  0  0
   45.6240   36.9390   42.3910 H   0  0  0  0  0  0  0  0  0  0  0  0
   46.7140   30.0780   46.6380 S   0  0  0  0  0  0  0  0  0  0  0  0
   46.5280   29.7800   44.8590 C   0  0  0  0  0  2  0  0  0  0  0  0
   45.1060   29.4330   44.4950 C   0  0  2  0  0  0  0  0  0  0  0  0
   44.2860   29.3460   45.7580 C   0  0  0  0  0  2  0  0  0  0  0  0
   43.2840   28.3250   45.5450 N   0  0  0  0  0  0  0  0  0  0  0  0
   42.0880   27.5680   45.3810 C   0  0  0  0  0  0  0  0  0  0  0  0
   40.8650   27.7600   45.5650 O   0  0  0  0  0  0  0  0  0  0  0  0
   42.7940   26.3640   44.8750 C   0  0  0  0  0  3  0  0  0  0  0  0
   42.6840   26.1460   43.8050 H   0  0  0  0  0  0  0  0  0  0  0  0
   44.0240   27.0740   45.3160 C   0  0  1  0  0  3  0  0  0  0  0  0
   45.1070   27.6860   43.9610 S   0  0  0  0  0  0  0  0  0  0  0  0
   44.5270   30.3510   43.4690 C   0  0  0  0  0  2  0  0  0  0  0  0
   43.7710   29.9080   42.8110 H   0  0  0  0  0  0  0  0  0  0  0  0
  1 12  1  0  0  0  0
  1  6  1  0  0  0  0
  2  1  2  0  0  0  0
  3  2  1  0  0  0  0
  3  4  2  0  0  0  0
  4  5  1  0  0  0  0
  5  6  2  0  0  0  0
  5  7  1  0  0  0  0
  7 11  1  0  0  0  0
  7  8  1  0  0  0  0
  8 15  1  0  0  0  0
  8  9  1  0  0  0  0
  9 17  1  0  0  0  0
  9 16  1  0  0  0  0
 10 19  1  0  0  0  0
 10 18  1  0  0  0  0
 10  9  1  0  0  0  0
 11 20  1  6  0  0  0
 11 10  1  0  0  0  0
 13  3  1  0  0  0  0
 14  8  1  0  0  0  0
 21  2  1  0  0  0  0
 22 21  1  0  0  0  0
 23 21  1  0  0  0  0
 24 11  1  0  0  0  0
 25 24  1  0  0  0  0
 26 35  1  6  0  0  0
 26 25  1  0  0  0  0
 26 27  1  0  0  0  0
 28 27  1  0  0  0  0
 29 28  1  0  0  0  0
 29 30  2  0  0  0  0
 31 33  1  0  0  0  0
 31 29  1  0  0  0  0
 32 31  1  0  0  0  0
 33 34  1  6  0  0  0
 33 28  1  0  0  0  0
 34 26  1  0  0  0  0
 36 35  1  0  0  0  0
M  END
>  <minimizedAffinity>
-5.14970875

>  <minimizedRMSD>
1.44864893

$$$$
