
 OpenBabel03252506333D

 36 39  0  0  1  0  0  0  0  0999 V2000
   44.4690   35.6900   44.9880 C   0  0  0  0  0  0  0  0  0  0  0  0
   45.1390   35.6660   43.7370 C   0  0  0  0  0  0  0  0  0  0  0  0
   46.0760   34.6960   43.5000 C   0  0  0  0  0  0  0  0  0  0  0  0
   46.2910   33.8170   44.5070 N   0  0  0  0  0  0  0  0  0  0  0  0
   45.6690   33.8320   45.6760 C   0  0  0  0  0  0  0  0  0  0  0  0
   44.7470   34.7680   45.9410 N   0  0  0  0  0  0  0  0  0  0  0  0
   46.0080   32.8390   46.6260 N   0  0  0  0  0  0  0  0  0  0  0  0
   45.1980   32.5280   47.8140 C   0  0  0  0  0  0  0  0  0  0  0  0
   46.2660   32.2390   48.8430 C   0  0  0  0  0  0  0  0  0  0  0  0
   47.5700   32.1400   48.1110 C   0  0  0  0  0  0  0  0  0  0  0  0
   47.1430   31.9450   46.6700 C   0  0  1  0  0  0  0  0  0  0  0  0
   43.7160   36.4200   45.2590 H   0  0  0  0  0  0  0  0  0  0  0  0
   46.5600   34.7050   42.5550 H   0  0  0  0  0  0  0  0  0  0  0  0
   44.5470   31.6580   47.5900 H   0  0  0  0  0  0  0  0  0  0  0  0
   44.6130   33.4170   48.0930 H   0  0  0  0  0  0  0  0  0  0  0  0
   46.2770   33.0470   49.6040 H   0  0  0  0  0  0  0  0  0  0  0  0
   46.0050   31.2470   49.2960 H   0  0  0  0  0  0  0  0  0  0  0  0
   48.1190   31.2300   48.4120 H   0  0  0  0  0  0  0  0  0  0  0  0
   48.1950   33.0550   48.2150 H   0  0  0  0  0  0  0  0  0  0  0  0
   47.9350   32.2570   45.9590 H   0  0  0  0  0  0  0  0  0  0  0  0
   44.7480   36.7000   42.8200 N   0  0  0  0  0  0  0  0  0  0  0  0
   43.7260   36.9590   42.7500 H   0  0  0  0  0  0  0  0  0  0  0  0
   45.5420   37.1300   42.2730 H   0  0  0  0  0  0  0  0  0  0  0  0
   46.6480   30.2240   46.4400 S   0  0  0  0  0  0  0  0  0  0  0  0
   45.6560   30.1280   44.9260 C   0  0  0  0  0  2  0  0  0  0  0  0
   44.7070   28.9570   44.9500 C   0  0  2  0  0  0  0  0  0  0  0  0
   45.4260   27.7340   44.4320 C   0  0  0  0  0  2  0  0  0  0  0  0
   44.4470   26.9280   43.7360 N   0  0  0  0  0  0  0  0  0  0  0  0
   43.5600   25.9120   43.2820 C   0  0  0  0  0  0  0  0  0  0  0  0
   43.3720   24.6990   43.5280 O   0  0  0  0  0  0  0  0  0  0  0  0
   42.8500   26.8080   42.3330 C   0  0  0  0  0  3  0  0  0  0  0  0
   41.8320   27.1080   42.6110 H   0  0  0  0  0  0  0  0  0  0  0  0
   43.9580   27.7580   42.6240 C   0  0  1  0  0  3  0  0  0  0  0  0
   43.4890   29.2320   43.6170 S   0  0  0  0  0  0  0  0  0  0  0  0
   44.0680   28.7530   46.2850 C   0  0  0  0  0  2  0  0  0  0  0  0
   43.0660   28.3110   46.2660 H   0  0  0  0  0  0  0  0  0  0  0  0
  1 12  1  0  0  0  0
  1  6  1  0  0  0  0
  2  1  2  0  0  0  0
  3  2  1  0  0  0  0
  3  4  2  0  0  0  0
  4  5  1  0  0  0  0
  5  6  2  0  0  0  0
  5  7  1  0  0  0  0
  7 11  1  0  0  0  0
  7  8  1  0  0  0  0
  8 15  1  0  0  0  0
  8  9  1  0  0  0  0
  9 17  1  0  0  0  0
  9 16  1  0  0  0  0
 10 19  1  0  0  0  0
 10 18  1  0  0  0  0
 10  9  1  0  0  0  0
 11 20  1  6  0  0  0
 11 10  1  0  0  0  0
 13  3  1  0  0  0  0
 14  8  1  0  0  0  0
 21  2  1  0  0  0  0
 22 21  1  0  0  0  0
 23 21  1  0  0  0  0
 24 11  1  0  0  0  0
 25 24  1  0  0  0  0
 26 25  1  1  0  0  0
 26 35  1  0  0  0  0
 27 26  1  0  0  0  0
 28 27  1  0  0  0  0
 29 30  2  0  0  0  0
 29 28  1  0  0  0  0
 31 32  1  0  0  0  0
 31 29  1  0  0  0  0
 33 31  1  1  0  0  0
 33 34  1  0  0  0  0
 33 28  1  0  0  0  0
 34 26  1  0  0  0  0
 36 35  1  0  0  0  0
M  END
>  <minimizedAffinity>
-5.06806421

>  <minimizedRMSD>
0.769592643

$$$$
