
 OpenBabel03252506343D

 36 39  0  0  1  0  0  0  0  0999 V2000
   44.5020   35.7710   45.0140 C   0  0  0  0  0  0  0  0  0  0  0  0
   45.1000   35.6760   43.7290 C   0  0  0  0  0  0  0  0  0  0  0  0
   45.9420   34.6310   43.4610 C   0  0  0  0  0  0  0  0  0  0  0  0
   46.1410   33.7510   44.4700 N   0  0  0  0  0  0  0  0  0  0  0  0
   45.5870   33.8320   45.6710 C   0  0  0  0  0  0  0  0  0  0  0  0
   44.7580   34.8430   45.9660 N   0  0  0  0  0  0  0  0  0  0  0  0
   45.8970   32.8280   46.6190 N   0  0  0  0  0  0  0  0  0  0  0  0
   45.1310   32.6000   47.8540 C   0  0  0  0  0  0  0  0  0  0  0  0
   46.2260   32.2400   48.8300 C   0  0  0  0  0  0  0  0  0  0  0  0
   47.4770   32.0280   48.0320 C   0  0  0  0  0  0  0  0  0  0  0  0
   46.9590   31.8480   46.6200 C   0  0  1  0  0  0  0  0  0  0  0  0
   43.8250   36.5630   45.3110 H   0  0  0  0  0  0  0  0  0  0  0  0
   46.3730   34.5880   42.4910 H   0  0  0  0  0  0  0  0  0  0  0  0
   44.4020   31.7820   47.6800 H   0  0  0  0  0  0  0  0  0  0  0  0
   44.6340   33.5370   48.1470 H   0  0  0  0  0  0  0  0  0  0  0  0
   46.3430   33.0560   49.5750 H   0  0  0  0  0  0  0  0  0  0  0  0
   45.9130   31.2790   49.3140 H   0  0  0  0  0  0  0  0  0  0  0  0
   47.9680   31.0800   48.3190 H   0  0  0  0  0  0  0  0  0  0  0  0
   48.1780   32.8910   48.0850 H   0  0  0  0  0  0  0  0  0  0  0  0
   47.7330   32.0850   45.8620 H   0  0  0  0  0  0  0  0  0  0  0  0
   44.7420   36.7250   42.8160 N   0  0  0  0  0  0  0  0  0  0  0  0
   43.7420   37.0640   42.7960 H   0  0  0  0  0  0  0  0  0  0  0  0
   45.5370   37.0830   42.2200 H   0  0  0  0  0  0  0  0  0  0  0  0
   46.3170   30.1680   46.4470 S   0  0  0  0  0  0  0  0  0  0  0  0
   46.9990   29.4670   44.9210 C   0  0  0  0  0  2  0  0  0  0  0  0
   48.1440   28.5250   45.2010 C   0  0  2  0  0  0  0  0  0  0  0  0
   49.4090   29.3310   45.3760 C   0  0  0  0  0  2  0  0  0  0  0  0
   50.4990   28.5310   44.8620 N   0  0  0  0  0  0  0  0  0  0  0  0
   51.6800   27.7630   44.6640 C   0  0  0  0  0  0  0  0  0  0  0  0
   52.7150   27.5100   45.3220 O   0  0  0  0  0  0  0  0  0  0  0  0
   51.2820   27.3000   43.3110 C   0  0  0  0  0  3  0  0  0  0  0  0
   50.9830   26.2490   43.2210 H   0  0  0  0  0  0  0  0  0  0  0  0
   50.2070   28.3220   43.4350 C   0  0  1  0  0  3  0  0  0  0  0  0
   48.5070   27.6510   43.6380 S   0  0  0  0  0  0  0  0  0  0  0  0
   47.8680   27.5940   46.3350 C   0  0  0  0  0  2  0  0  0  0  0  0
   48.3640   26.6170   46.2760 H   0  0  0  0  0  0  0  0  0  0  0  0
  1 12  1  0  0  0  0
  1  6  1  0  0  0  0
  2  1  2  0  0  0  0
  3  2  1  0  0  0  0
  3  4  2  0  0  0  0
  4  5  1  0  0  0  0
  5  6  2  0  0  0  0
  5  7  1  0  0  0  0
  7 11  1  0  0  0  0
  7  8  1  0  0  0  0
  8 15  1  0  0  0  0
  8  9  1  0  0  0  0
  9 17  1  0  0  0  0
  9 16  1  0  0  0  0
 10 19  1  0  0  0  0
 10 18  1  0  0  0  0
 10  9  1  0  0  0  0
 11 20  1  6  0  0  0
 11 10  1  0  0  0  0
 13  3  1  0  0  0  0
 14  8  1  0  0  0  0
 21  2  1  0  0  0  0
 22 21  1  0  0  0  0
 23 21  1  0  0  0  0
 24 11  1  0  0  0  0
 25 24  1  0  0  0  0
 26 25  1  6  0  0  0
 26 27  1  0  0  0  0
 26 35  1  0  0  0  0
 28 27  1  0  0  0  0
 29 28  1  0  0  0  0
 29 30  2  0  0  0  0
 31 29  1  0  0  0  0
 32 31  1  0  0  0  0
 33 31  1  1  0  0  0
 33 34  1  0  0  0  0
 33 28  1  0  0  0  0
 34 26  1  0  0  0  0
 36 35  1  0  0  0  0
M  END
>  <minimizedAffinity>
-4.72415733

>  <minimizedRMSD>
3.90808392

$$$$
