
 OpenBabel03252506333D

 36 39  0  0  1  0  0  0  0  0999 V2000
   44.4860   35.6270   45.0650 C   0  0  0  0  0  0  0  0  0  0  0  0
   45.1500   35.6070   43.8100 C   0  0  0  0  0  0  0  0  0  0  0  0
   46.0810   34.6340   43.5630 C   0  0  0  0  0  0  0  0  0  0  0  0
   46.2960   33.7480   44.5630 N   0  0  0  0  0  0  0  0  0  0  0  0
   45.6810   33.7590   45.7360 C   0  0  0  0  0  0  0  0  0  0  0  0
   44.7650   34.6980   46.0110 N   0  0  0  0  0  0  0  0  0  0  0  0
   46.0200   32.7580   46.6780 N   0  0  0  0  0  0  0  0  0  0  0  0
   45.2150   32.4440   47.8680 C   0  0  0  0  0  0  0  0  0  0  0  0
   46.2860   32.1430   48.8890 C   0  0  0  0  0  0  0  0  0  0  0  0
   47.5870   32.0440   48.1500 C   0  0  0  0  0  0  0  0  0  0  0  0
   47.1510   31.8600   46.7110 C   0  0  1  0  0  0  0  0  0  0  0  0
   43.7370   36.3590   45.3450 H   0  0  0  0  0  0  0  0  0  0  0  0
   46.5600   34.6470   42.6150 H   0  0  0  0  0  0  0  0  0  0  0  0
   44.5590   31.5790   47.6420 H   0  0  0  0  0  0  0  0  0  0  0  0
   44.6360   33.3340   48.1550 H   0  0  0  0  0  0  0  0  0  0  0  0
   46.3060   32.9470   49.6560 H   0  0  0  0  0  0  0  0  0  0  0  0
   46.0230   31.1500   49.3370 H   0  0  0  0  0  0  0  0  0  0  0  0
   48.1330   31.1290   48.4430 H   0  0  0  0  0  0  0  0  0  0  0  0
   48.2170   32.9550   48.2560 H   0  0  0  0  0  0  0  0  0  0  0  0
   47.9410   32.1720   45.9970 H   0  0  0  0  0  0  0  0  0  0  0  0
   44.7590   36.6490   42.9020 N   0  0  0  0  0  0  0  0  0  0  0  0
   43.7380   36.9130   42.8390 H   0  0  0  0  0  0  0  0  0  0  0  0
   45.5520   37.0790   42.3530 H   0  0  0  0  0  0  0  0  0  0  0  0
   46.6480   30.1410   46.4720 S   0  0  0  0  0  0  0  0  0  0  0  0
   45.6680   30.0560   44.9490 C   0  0  0  0  0  2  0  0  0  0  0  0
   44.6890   28.9080   44.9760 C   0  0  2  0  0  0  0  0  0  0  0  0
   45.3820   27.6650   44.4750 C   0  0  0  0  0  2  0  0  0  0  0  0
   44.3890   26.8770   43.7780 N   0  0  0  0  0  0  0  0  0  0  0  0
   43.4790   25.8800   43.3240 C   0  0  0  0  0  0  0  0  0  0  0  0
   43.2590   24.6730   43.5780 O   0  0  0  0  0  0  0  0  0  0  0  0
   42.8010   26.7850   42.3620 C   0  0  0  0  0  3  0  0  0  0  0  0
   41.7880   27.1120   42.6290 H   0  0  0  0  0  0  0  0  0  0  0  0
   43.9300   27.7080   42.6540 C   0  0  1  0  0  3  0  0  0  0  0  0
   43.4890   29.2020   43.6300 S   0  0  0  0  0  0  0  0  0  0  0  0
   44.0360   28.7320   46.3060 C   0  0  0  0  0  2  0  0  0  0  0  0
   43.0210   28.3150   46.2840 H   0  0  0  0  0  0  0  0  0  0  0  0
  1 12  1  0  0  0  0
  1  6  1  0  0  0  0
  2  1  2  0  0  0  0
  3  2  1  0  0  0  0
  3  4  2  0  0  0  0
  4  5  1  0  0  0  0
  5  6  2  0  0  0  0
  5  7  1  0  0  0  0
  7 11  1  0  0  0  0
  7  8  1  0  0  0  0
  8 15  1  0  0  0  0
  8  9  1  0  0  0  0
  9 17  1  0  0  0  0
  9 16  1  0  0  0  0
 10 19  1  0  0  0  0
 10 18  1  0  0  0  0
 10  9  1  0  0  0  0
 11 20  1  6  0  0  0
 11 10  1  0  0  0  0
 13  3  1  0  0  0  0
 14  8  1  0  0  0  0
 21  2  1  0  0  0  0
 22 21  1  0  0  0  0
 23 21  1  0  0  0  0
 24 11  1  0  0  0  0
 25 24  1  0  0  0  0
 26 25  1  1  0  0  0
 26 35  1  0  0  0  0
 27 26  1  0  0  0  0
 28 27  1  0  0  0  0
 29 30  2  0  0  0  0
 29 28  1  0  0  0  0
 31 32  1  0  0  0  0
 31 29  1  0  0  0  0
 33 31  1  1  0  0  0
 33 34  1  0  0  0  0
 33 28  1  0  0  0  0
 34 26  1  0  0  0  0
 36 35  1  0  0  0  0
M  END
>  <minimizedAffinity>
-5.05085993

>  <minimizedRMSD>
0.655543506

$$$$
