
 OpenBabel03252508073D

 47 51  0  0  1  0  0  0  0  0999 V2000
   45.1960   35.2220   43.5670 C   0  0  0  0  0  0  0  0  0  0  0  0
   45.6370   33.9120   43.6720 C   0  0  0  0  0  0  0  0  0  0  0  0
   45.5650   33.2590   44.8780 C   0  0  0  0  0  0  0  0  0  0  0  0
   45.0410   33.9670   45.9420 N   0  0  0  0  0  0  0  0  0  0  0  0
   44.6180   35.2250   45.8330 C   0  0  0  0  0  0  0  0  0  0  0  0
   44.7030   35.8420   44.6360 N   0  0  0  0  0  0  0  0  0  0  0  0
   45.2380   35.7680   42.6350 H   0  0  0  0  0  0  0  0  0  0  0  0
   44.2110   35.7810   46.6560 H   0  0  0  0  0  0  0  0  0  0  0  0
   45.9680   31.9320   45.1510 C   0  0  0  0  0  0  0  0  0  0  0  0
   45.6420   30.8330   44.3510 C   0  0  0  0  0  0  0  0  0  0  0  0
   45.9750   29.5380   44.6490 C   0  0  0  0  0  0  0  0  0  0  0  0
   46.6730   29.2610   45.7990 C   0  0  0  0  0  0  0  0  0  0  0  0
   47.0200   30.3680   46.6320 C   0  0  0  0  0  0  0  0  0  0  0  0
   47.7150   30.0990   47.7800 C   0  0  0  0  0  0  0  0  0  0  0  0
   48.0810   31.1240   48.6270 C   0  0  0  0  0  0  0  0  0  0  0  0
   47.7380   32.4460   48.3020 C   0  0  0  0  0  0  0  0  0  0  0  0
   47.0220   32.6670   47.1100 C   0  0  0  0  0  0  0  0  0  0  0  0
   46.6680   31.6300   46.2910 C   0  0  0  0  0  0  0  0  0  0  0  0
   45.0910   31.0310   43.4420 H   0  0  0  0  0  0  0  0  0  0  0  0
   45.6990   28.7240   43.9960 H   0  0  0  0  0  0  0  0  0  0  0  0
   46.9570   28.2760   46.0810 H   0  0  0  0  0  0  0  0  0  0  0  0
   47.9810   29.0850   48.0330 H   0  0  0  0  0  0  0  0  0  0  0  0
   48.6330   30.8540   49.5280 H   0  0  0  0  0  0  0  0  0  0  0  0
   48.0690   33.1550   49.0180 H   0  0  0  0  0  0  0  0  0  0  0  0
   46.8780   33.7230   47.0290 H   0  0  0  0  0  0  0  0  0  0  0  0
   46.1300   33.3240   42.5410 O   0  0  0  0  0  0  0  0  0  0  0  0
   48.5090   32.2320   42.5830 O   0  0  0  0  0  0  0  0  0  0  0  0
   47.7480   33.3910   42.0460 P   0  0  1  0  0  0  0  0  0  0  0  0
   47.8600   33.3270   40.3590 O   0  0  0  0  0  0  0  0  0  0  0  0
   48.9410   32.5940   39.9140 C   0  0  0  0  0  2  0  0  0  0  0  0
   48.4660   31.8630   38.6600 C   0  0  2  0  0  0  0  0  0  0  0  0
   48.8890   32.5720   37.4070 C   0  0  0  0  0  2  0  0  0  0  0  0
   47.8240   32.4800   36.4400 N   0  0  0  0  0  0  0  0  0  0  0  0
   47.0300   32.2260   35.2840 C   0  0  0  0  0  0  0  0  0  0  0  0
   47.2480   31.8690   34.0790 O   0  0  0  0  0  0  0  0  0  0  0  0
   45.7460   32.5330   35.9790 C   0  0  0  0  0  3  0  0  0  0  0  0
   45.0910   33.2660   35.5020 H   0  0  0  0  0  0  0  0  0  0  0  0
   46.6370   33.1010   37.0500 C   0  0  1  0  0  3  0  0  0  0  0  0
   46.6520   32.1530   38.6180 S   0  0  0  0  0  0  0  0  0  0  0  0
   48.8000   30.4110   38.7050 C   0  0  0  0  0  2  0  0  0  0  0  0
   49.7600   30.2890   39.2630 H   0  0  0  0  0  0  0  0  0  0  0  0
   48.3990   34.8460   42.5750 O   0  0  0  0  0  0  0  0  0  0  0  0
   49.6310   35.3780   42.2280 C   0  0  0  0  0  0  0  0  0  0  0  0
   49.3600   36.4090   41.5860 O   0  0  0  0  0  0  0  0  0  0  0  0
   50.7040   34.5570   42.7300 N   0  0  0  0  0  0  0  0  0  0  0  0
   50.8730   34.5400   43.7750 H   0  0  0  0  0  0  0  0  0  0  0  0
   51.3750   33.9450   42.2070 H   0  0  0  0  0  0  0  0  0  0  0  0
  1  2  2  0  0  0  0
  1  6  1  0  0  0  0
  2  3  1  0  0  0  0
  3  9  1  0  0  0  0
  3  4  2  0  0  0  0
  5  4  1  0  0  0  0
  5  8  1  0  0  0  0
  6  5  2  0  0  0  0
  7  1  1  0  0  0  0
  9 18  1  0  0  0  0
 10 11  1  0  0  0  0
 10  9  2  0  0  0  0
 11 12  2  0  0  0  0
 12 21  1  0  0  0  0
 12 13  1  0  0  0  0
 13 14  1  0  0  0  0
 14 22  1  0  0  0  0
 14 15  2  0  0  0  0
 15 23  1  0  0  0  0
 16 15  1  0  0  0  0
 16 24  1  0  0  0  0
 17 16  2  0  0  0  0
 18 13  2  0  0  0  0
 18 17  1  0  0  0  0
 19 10  1  0  0  0  0
 20 11  1  0  0  0  0
 25 17  1  0  0  0  0
 26  2  1  0  0  0  0
 28 26  1  0  0  0  0
 28 42  1  0  0  0  0
 28 27  2  1  0  0  0
 29 28  1  0  0  0  0
 30 29  1  0  0  0  0
 31 40  1  6  0  0  0
 31 30  1  0  0  0  0
 32 31  1  0  0  0  0
 33 38  1  0  0  0  0
 33 32  1  0  0  0  0
 34 36  1  0  0  0  0
 34 33  1  0  0  0  0
 35 34  2  0  0  0  0
 37 36  1  0  0  0  0
 38 36  1  6  0  0  0
 38 39  1  0  0  0  0
 39 31  1  0  0  0  0
 40 41  1  0  0  0  0
 43 42  1  0  0  0  0
 43 45  1  0  0  0  0
 44 43  2  0  0  0  0
 45 46  1  0  0  0  0
 47 45  1  0  0  0  0
M  END
>  <minimizedAffinity>
-6.20632601

>  <minimizedRMSD>
2.49448991

$$$$
