
 OpenBabel03242519253D

 43 47  0  0  0  0  0  0  0  0999 V2000
   47.8780   33.7220   42.8960 C   0  0  0  0  0  0  0  0  0  0  0  0
   48.5780   34.9150   42.7000 C   0  0  0  0  0  0  0  0  0  0  0  0
   49.9430   34.8940   42.3710 C   0  0  0  0  0  0  0  0  0  0  0  0
   50.5100   33.6420   42.2600 N   0  0  0  0  0  0  0  0  0  0  0  0
   49.7920   32.4960   42.4600 C   0  0  0  0  0  0  0  0  0  0  0  0
   48.5010   32.5480   42.7710 N   0  0  0  0  0  0  0  0  0  0  0  0
   48.2180   35.9330   42.7650 H   0  0  0  0  0  0  0  0  0  0  0  0
   50.5450   35.7710   42.2060 H   0  0  0  0  0  0  0  0  0  0  0  0
   46.4520   33.8800   43.2430 C   0  0  0  0  0  0  0  0  0  0  0  0
   45.7560   34.8820   42.4390 C   0  0  0  0  0  0  0  0  0  0  0  0
   45.3320   36.0910   43.1920 C   0  0  0  0  0  0  0  0  0  0  0  0
   44.5510   35.7760   44.4560 C   0  0  0  0  0  0  0  0  0  0  0  0
   44.9780   34.5020   45.1440 C   0  0  0  0  0  0  0  0  0  0  0  0
   46.4000   34.1580   44.7560 C   0  0  0  0  0  0  0  0  0  0  0  0
   45.9960   32.8520   43.1350 H   0  0  0  0  0  0  0  0  0  0  0  0
   44.8230   34.4400   41.9880 H   0  0  0  0  0  0  0  0  0  0  0  0
   46.4190   35.2200   41.6220 H   0  0  0  0  0  0  0  0  0  0  0  0
   46.0950   36.8500   43.3820 H   0  0  0  0  0  0  0  0  0  0  0  0
   44.5740   36.6140   42.5340 H   0  0  0  0  0  0  0  0  0  0  0  0
   44.7570   36.6060   45.1850 H   0  0  0  0  0  0  0  0  0  0  0  0
   43.4540   35.7920   44.3070 H   0  0  0  0  0  0  0  0  0  0  0  0
   44.8790   34.5400   46.2280 H   0  0  0  0  0  0  0  0  0  0  0  0
   44.3510   33.6870   44.7000 H   0  0  0  0  0  0  0  0  0  0  0  0
   47.0550   35.0620   44.8980 H   0  0  0  0  0  0  0  0  0  0  0  0
   46.7390   33.2800   45.3180 H   0  0  0  0  0  0  0  0  0  0  0  0
   50.5440   31.2550   42.3100 C   0  0  0  0  0  0  0  0  0  0  0  0
   51.5490   31.2460   41.4030 N   0  0  0  0  0  0  0  0  0  0  0  0
   52.1360   30.0380   41.3910 C   0  0  0  0  0  0  0  0  0  0  0  0
   51.4720   29.2790   42.3210 N   0  0  0  0  0  0  0  0  0  0  0  0
   50.5110   30.0240   42.8710 N   0  0  0  0  0  0  0  0  0  0  0  0
   52.9600   29.6520   40.8110 H   0  0  0  0  0  0  0  0  0  0  0  0
   51.1310   27.4170   43.9140 C   0  0  0  0  0  3  0  0  0  0  0  0
   51.6620   27.9290   42.7300 C   0  0  0  0  0  0  0  0  0  0  0  0
   52.3960   27.0500   41.9570 C   0  0  0  0  0  0  0  0  0  0  0  0
   52.8080   27.4430   41.0400 H   0  0  0  0  0  0  0  0  0  0  0  0
   52.6150   25.7300   42.2970 C   0  0  0  0  0  0  0  0  0  0  0  0
   53.3000   24.7570   41.6610 N   0  0  0  0  0  0  0  0  0  0  0  0
   53.7870   24.8960   40.7540 H   0  0  0  0  0  0  0  0  0  0  0  0
   53.2100   23.6640   42.4070 N   0  0  0  0  0  0  0  0  0  0  0  0
   52.4730   23.9190   43.5240 C   0  0  0  0  0  0  0  0  0  0  0  0
   52.2210   23.2430   44.3200 H   0  0  0  0  0  0  0  0  0  0  0  0
   52.0780   25.2360   43.4840 C   0  0  0  0  0  0  0  0  0  0  0  0
   51.3470   26.1010   44.2580 C   0  0  0  0  0  3  0  0  0  0  0  0
  1  9  1  0  0  0  0
  2  7  1  0  0  0  0
  2  1  2  0  0  0  0
  3  2  1  0  0  0  0
  4  3  2  0  0  0  0
  4  5  1  0  0  0  0
  5  6  2  0  0  0  0
  6  1  1  0  0  0  0
  8  3  1  0  0  0  0
  9 14  1  0  0  0  0
 10 11  1  0  0  0  0
 10  9  1  0  0  0  0
 11 18  1  0  0  0  0
 11 12  1  0  0  0  0
 12 13  1  0  0  0  0
 12 20  1  0  0  0  0
 13 22  1  0  0  0  0
 14 24  1  0  0  0  0
 14 13  1  0  0  0  0
 14 25  1  0  0  0  0
 15  9  1  0  0  0  0
 16 10  1  0  0  0  0
 17 10  1  0  0  0  0
 19 11  1  0  0  0  0
 21 12  1  0  0  0  0
 23 13  1  0  0  0  0
 26  5  1  0  0  0  0
 26 30  2  0  0  0  0
 27 26  1  0  0  0  0
 28 27  2  0  0  0  0
 28 29  1  0  0  0  0
 29 33  1  0  0  0  0
 29 30  1  0  0  0  0
 31 28  1  0  0  0  0
 32 43  1  0  0  0  0
 33 32  2  0  0  0  0
 34 36  2  0  0  0  0
 34 33  1  0  0  0  0
 35 34  1  0  0  0  0
 36 42  1  0  0  0  0
 37 36  1  0  0  0  0
 37 39  1  0  0  0  0
 38 37  1  0  0  0  0
 39 40  2  0  0  0  0
 40 41  1  0  0  0  0
 42 40  1  0  0  0  0
 42 43  2  0  0  0  0
M  END
>  <minimizedAffinity>
-4.14761925

>  <minimizedRMSD>
0.149265751

$$$$
