
 OpenBabel03252505263D

 46 50  0  0  1  0  0  0  0  0999 V2000
   39.4440   31.1090   41.9320 F   0  0  0  0  0  0  0  0  0  0  0  0
   38.3230   30.9690   41.1600 C   0  0  0  0  0  0  0  0  0  0  0  0
   38.0810   31.9340   40.2030 C   0  0  0  0  0  0  0  0  0  0  0  0
   36.9520   31.7810   39.4340 C   0  0  0  0  0  0  0  0  0  0  0  0
   36.1170   30.7000   39.6340 C   0  0  0  0  0  0  0  0  0  0  0  0
   36.3670   29.7440   40.5900 C   0  0  0  0  0  0  0  0  0  0  0  0
   37.5190   29.9050   41.3700 C   0  0  0  0  0  0  0  0  0  0  0  0
   36.7450   32.5350   38.6720 H   0  0  0  0  0  0  0  0  0  0  0  0
   35.2520   30.6720   38.9740 H   0  0  0  0  0  0  0  0  0  0  0  0
   35.6860   28.9310   40.6980 H   0  0  0  0  0  0  0  0  0  0  0  0
   37.7210   28.8880   42.3360 N   0  0  0  0  0  0  0  0  0  0  0  0
   37.4280   28.8200   43.7320 C   0  0  0  0  0  0  0  0  0  0  0  0
   36.7180   27.4680   43.8840 C   0  0  0  0  0  0  0  0  0  0  0  0
   37.1660   26.6890   42.6850 C   0  0  0  0  0  0  0  0  0  0  0  0
   38.3140   27.5530   42.1770 C   0  0  2  0  0  0  0  0  0  0  0  0
   36.6300   29.5920   43.9340 H   0  0  0  0  0  0  0  0  0  0  0  0
   38.2420   28.9690   44.4280 H   0  0  0  0  0  0  0  0  0  0  0  0
   35.6240   27.5740   43.9770 H   0  0  0  0  0  0  0  0  0  0  0  0
   37.1270   26.9880   44.7850 H   0  0  0  0  0  0  0  0  0  0  0  0
   37.4710   25.6590   42.8870 H   0  0  0  0  0  0  0  0  0  0  0  0
   36.4040   26.6930   41.8670 H   0  0  0  0  0  0  0  0  0  0  0  0
   38.4310   27.4070   41.0760 H   0  0  0  0  0  0  0  0  0  0  0  0
   39.5950   27.3550   42.8670 C   0  0  0  0  0  0  0  0  0  0  0  0
   39.8960   28.0890   43.6210 H   0  0  0  0  0  0  0  0  0  0  0  0
   39.6760   26.3350   43.3400 H   0  0  0  0  0  0  0  0  0  0  0  0
   40.4330   27.3570   42.1180 H   0  0  0  0  0  0  0  0  0  0  0  0
   39.5040   35.3050   40.2770 C   0  0  0  0  0  0  0  0  0  0  0  0
   40.7720   35.1180   39.6750 C   0  0  0  0  0  0  0  0  0  0  0  0
   41.0850   33.8270   39.2660 C   0  0  0  0  0  0  0  0  0  0  0  0
   40.1810   32.8510   39.4630 N   0  0  0  0  0  0  0  0  0  0  0  0
   38.9920   33.0520   40.0330 C   0  0  0  0  0  0  0  0  0  0  0  0
   38.6440   34.2670   40.4420 N   0  0  0  0  0  0  0  0  0  0  0  0
   39.2930   36.3200   40.5830 H   0  0  0  0  0  0  0  0  0  0  0  0
   41.4670   35.9080   39.5320 H   0  0  0  0  0  0  0  0  0  0  0  0
   43.4800   34.1730   39.0000 C   0  0  0  0  0  3  0  0  0  0  0  0
   42.3480   33.4800   38.6320 C   0  0  0  0  0  0  0  0  0  0  0  0
   42.4900   32.4960   37.6820 C   0  0  0  0  0  0  0  0  0  0  0  0
   41.6290   31.9330   37.3690 H   0  0  0  0  0  0  0  0  0  0  0  0
   43.6870   32.1640   37.0800 C   0  0  0  0  0  0  0  0  0  0  0  0
   44.0700   31.2690   36.1520 N   0  0  0  0  0  0  0  0  0  0  0  0
   43.4060   30.6040   35.6960 H   0  0  0  0  0  0  0  0  0  0  0  0
   45.3850   31.4100   35.9610 N   0  0  0  0  0  0  0  0  0  0  0  0
   45.8640   32.3960   36.7610 C   0  0  0  0  0  0  0  0  0  0  0  0
   46.8810   32.7550   36.8460 H   0  0  0  0  0  0  0  0  0  0  0  0
   44.8040   32.8980   37.4880 C   0  0  0  0  0  0  0  0  0  0  0  0
   44.7320   33.9070   38.4450 C   0  0  0  0  0  3  0  0  0  0  0  0
  2  7  1  0  0  0  0
  2  1  1  0  0  0  0
  3  2  2  0  0  0  0
  4  5  2  0  0  0  0
  4  3  1  0  0  0  0
  5  6  1  0  0  0  0
  6 10  1  0  0  0  0
  6  7  2  0  0  0  0
  7 11  1  0  0  0  0
  8  4  1  0  0  0  0
  9  5  1  0  0  0  0
 11 12  1  0  0  0  0
 12 13  1  0  0  0  0
 12 16  1  0  0  0  0
 12 17  1  0  0  0  0
 13 18  1  0  0  0  0
 13 19  1  0  0  0  0
 14 20  1  0  0  0  0
 14 13  1  0  0  0  0
 15 22  1  6  0  0  0
 15 11  1  0  0  0  0
 15 14  1  0  0  0  0
 15 23  1  0  0  0  0
 21 14  1  0  0  0  0
 23 25  1  0  0  0  0
 23 24  1  0  0  0  0
 26 23  1  0  0  0  0
 27 32  1  0  0  0  0
 27 33  1  0  0  0  0
 28 27  2  0  0  0  0
 29 30  2  0  0  0  0
 29 28  1  0  0  0  0
 30 31  1  0  0  0  0
 31  3  1  0  0  0  0
 31 32  2  0  0  0  0
 34 28  1  0  0  0  0
 36 35  1  0  0  0  0
 36 29  1  0  0  0  0
 37 36  2  0  0  0  0
 38 37  1  0  0  0  0
 39 45  2  0  0  0  0
 39 37  1  0  0  0  0
 40 39  1  0  0  0  0
 41 40  1  0  0  0  0
 42 40  1  0  0  0  0
 42 43  2  0  0  0  0
 43 44  1  0  0  0  0
 43 45  1  0  0  0  0
 45 46  1  0  0  0  0
 46 35  2  0  0  0  0
M  END
>  <minimizedAffinity>
-7.31938696

$$$$

 OpenBabel03252505263D

 46 50  0  0  1  0  0  0  0  0999 V2000
   37.8400   30.9340   41.2280 F   0  0  0  0  0  0  0  0  0  0  0  0
   39.1510   30.7870   41.5910 C   0  0  0  0  0  0  0  0  0  0  0  0
   39.4880   29.6720   42.3330 C   0  0  0  0  0  0  0  0  0  0  0  0
   40.8080   29.5370   42.6910 C   0  0  0  0  0  0  0  0  0  0  0  0
   41.7320   30.4900   42.3110 C   0  0  0  0  0  0  0  0  0  0  0  0
   41.3860   31.5970   41.5740 C   0  0  0  0  0  0  0  0  0  0  0  0
   40.0400   31.7290   41.2110 C   0  0  0  0  0  0  0  0  0  0  0  0
   41.0930   28.6610   43.2780 H   0  0  0  0  0  0  0  0  0  0  0  0
   42.7480   30.2890   42.6460 H   0  0  0  0  0  0  0  0  0  0  0  0
   42.1430   32.3000   41.3100 H   0  0  0  0  0  0  0  0  0  0  0  0
   39.7480   32.8900   40.4520 N   0  0  0  0  0  0  0  0  0  0  0  0
   38.7590   33.1620   39.4590 C   0  0  0  0  0  0  0  0  0  0  0  0
   38.1490   34.4940   39.9150 C   0  0  0  0  0  0  0  0  0  0  0  0
   39.2080   35.0950   40.7880 C   0  0  0  0  0  0  0  0  0  0  0  0
   40.4030   34.2050   40.4670 C   0  0  2  0  0  0  0  0  0  0  0  0
   37.9370   32.4010   39.6020 H   0  0  0  0  0  0  0  0  0  0  0  0
   39.0660   33.1520   38.4220 H   0  0  0  0  0  0  0  0  0  0  0  0
   37.1710   34.3640   40.4080 H   0  0  0  0  0  0  0  0  0  0  0  0
   38.0380   35.1230   39.0190 H   0  0  0  0  0  0  0  0  0  0  0  0
   39.4120   36.1540   40.6110 H   0  0  0  0  0  0  0  0  0  0  0  0
   39.0020   34.9370   41.8750 H   0  0  0  0  0  0  0  0  0  0  0  0
   41.0970   34.1840   41.3400 H   0  0  0  0  0  0  0  0  0  0  0  0
   41.1260   34.5540   39.2360 C   0  0  0  0  0  0  0  0  0  0  0  0
   40.9390   33.9570   38.3390 H   0  0  0  0  0  0  0  0  0  0  0  0
   40.9950   35.6370   38.9520 H   0  0  0  0  0  0  0  0  0  0  0  0
   42.2330   34.4670   39.4100 H   0  0  0  0  0  0  0  0  0  0  0  0
   36.7840   27.9760   44.1230 C   0  0  0  0  0  0  0  0  0  0  0  0
   36.5850   26.8080   43.3460 C   0  0  0  0  0  0  0  0  0  0  0  0
   37.3980   26.6550   42.2300 C   0  0  0  0  0  0  0  0  0  0  0  0
   38.3090   27.6070   41.9590 N   0  0  0  0  0  0  0  0  0  0  0  0
   38.4780   28.6990   42.7060 C   0  0  0  0  0  0  0  0  0  0  0  0
   37.7260   28.8940   43.7840 N   0  0  0  0  0  0  0  0  0  0  0  0
   36.1360   28.0640   44.9830 H   0  0  0  0  0  0  0  0  0  0  0  0
   35.8580   26.0720   43.5840 H   0  0  0  0  0  0  0  0  0  0  0  0
   36.6730   25.6660   40.1270 C   0  0  0  0  0  3  0  0  0  0  0  0
   37.3120   25.5080   41.3370 C   0  0  0  0  0  0  0  0  0  0  0  0
   37.8320   24.2670   41.6220 C   0  0  0  0  0  0  0  0  0  0  0  0
   38.3380   24.1060   42.5570 H   0  0  0  0  0  0  0  0  0  0  0  0
   37.7520   23.1790   40.7760 C   0  0  0  0  0  0  0  0  0  0  0  0
   38.1680   21.9020   40.8270 N   0  0  0  0  0  0  0  0  0  0  0  0
   38.6870   21.5050   41.6420 H   0  0  0  0  0  0  0  0  0  0  0  0
   37.7970   21.3010   39.6920 N   0  0  0  0  0  0  0  0  0  0  0  0
   37.1390   22.1830   38.8980 C   0  0  0  0  0  0  0  0  0  0  0  0
   36.7120   22.0140   37.9180 H   0  0  0  0  0  0  0  0  0  0  0  0
   37.0930   23.3920   39.5620 C   0  0  0  0  0  0  0  0  0  0  0  0
   36.5440   24.6230   39.2100 C   0  0  0  0  0  3  0  0  0  0  0  0
  1  2  1  0  0  0  0
  2  3  1  0  0  0  0
  3  4  2  0  0  0  0
  3 31  1  0  0  0  0
  4  8  1  0  0  0  0
  5  9  1  0  0  0  0
  5  4  1  0  0  0  0
  6  5  2  0  0  0  0
  7  6  1  0  0  0  0
  7  2  2  0  0  0  0
 10  6  1  0  0  0  0
 11 15  1  0  0  0  0
 11  7  1  0  0  0  0
 12 16  1  0  0  0  0
 12 13  1  0  0  0  0
 12 11  1  0  0  0  0
 13 18  1  0  0  0  0
 13 14  1  0  0  0  0
 14 21  1  0  0  0  0
 15 14  1  0  0  0  0
 15 22  1  1  0  0  0
 17 12  1  0  0  0  0
 19 13  1  0  0  0  0
 20 14  1  0  0  0  0
 23 26  1  0  0  0  0
 23 15  1  0  0  0  0
 24 23  1  0  0  0  0
 25 23  1  0  0  0  0
 27 33  1  0  0  0  0
 28 34  1  0  0  0  0
 28 27  2  0  0  0  0
 29 28  1  0  0  0  0
 30 29  2  0  0  0  0
 30 31  1  0  0  0  0
 31 32  2  0  0  0  0
 32 27  1  0  0  0  0
 35 36  1  0  0  0  0
 36 37  2  0  0  0  0
 36 29  1  0  0  0  0
 37 38  1  0  0  0  0
 39 40  1  0  0  0  0
 39 37  1  0  0  0  0
 40 41  1  0  0  0  0
 42 40  1  0  0  0  0
 43 45  1  0  0  0  0
 43 42  2  0  0  0  0
 44 43  1  0  0  0  0
 45 39  2  0  0  0  0
 46 45  1  0  0  0  0
 46 35  2  0  0  0  0
M  END
>  <minimizedAffinity>
-7.03470755

$$$$

 OpenBabel03252505263D

 46 50  0  0  1  0  0  0  0  0999 V2000
   40.1760   29.5230   40.6450 F   0  0  0  0  0  0  0  0  0  0  0  0
   39.0140   30.2420   40.5680 C   0  0  0  0  0  0  0  0  0  0  0  0
   39.0290   31.4020   39.8180 C   0  0  0  0  0  0  0  0  0  0  0  0
   37.8560   32.1150   39.7490 C   0  0  0  0  0  0  0  0  0  0  0  0
   36.7300   31.6660   40.4100 C   0  0  0  0  0  0  0  0  0  0  0  0
   36.7260   30.5100   41.1540 C   0  0  0  0  0  0  0  0  0  0  0  0
   37.9230   29.7880   41.2200 C   0  0  0  0  0  0  0  0  0  0  0  0
   37.8490   33.0350   39.1610 H   0  0  0  0  0  0  0  0  0  0  0  0
   35.8550   32.3030   40.2910 H   0  0  0  0  0  0  0  0  0  0  0  0
   35.8260   30.2130   41.6420 H   0  0  0  0  0  0  0  0  0  0  0  0
   37.8540   28.6070   42.0010 N   0  0  0  0  0  0  0  0  0  0  0  0
   37.5150   27.2590   41.6740 C   0  0  0  0  0  0  0  0  0  0  0  0
   38.6510   26.4410   42.3020 C   0  0  0  0  0  0  0  0  0  0  0  0
   39.2030   27.3430   43.3620 C   0  0  0  0  0  0  0  0  0  0  0  0
   38.1240   28.4170   43.4340 C   0  0  2  0  0  0  0  0  0  0  0  0
   37.6580   27.1500   40.5600 H   0  0  0  0  0  0  0  0  0  0  0  0
   36.5260   26.9080   41.9350 H   0  0  0  0  0  0  0  0  0  0  0  0
   39.3930   26.1070   41.5560 H   0  0  0  0  0  0  0  0  0  0  0  0
   38.1910   25.5690   42.7900 H   0  0  0  0  0  0  0  0  0  0  0  0
   39.3880   26.8670   44.3280 H   0  0  0  0  0  0  0  0  0  0  0  0
   40.1290   27.8730   43.0300 H   0  0  0  0  0  0  0  0  0  0  0  0
   38.5750   29.3770   43.7830 H   0  0  0  0  0  0  0  0  0  0  0  0
   36.9510   28.0690   44.2470 C   0  0  0  0  0  0  0  0  0  0  0  0
   36.0420   27.7440   43.7320 H   0  0  0  0  0  0  0  0  0  0  0  0
   37.1860   27.2950   45.0320 H   0  0  0  0  0  0  0  0  0  0  0  0
   36.6320   28.9600   44.8530 H   0  0  0  0  0  0  0  0  0  0  0  0
   41.5380   32.0040   37.2230 C   0  0  0  0  0  0  0  0  0  0  0  0
   42.5640   32.6730   37.9350 C   0  0  0  0  0  0  0  0  0  0  0  0
   42.3450   32.8890   39.2900 C   0  0  0  0  0  0  0  0  0  0  0  0
   41.1930   32.4580   39.8340 N   0  0  0  0  0  0  0  0  0  0  0  0
   40.2400   31.8300   39.1420 C   0  0  0  0  0  0  0  0  0  0  0  0
   40.4010   31.5980   37.8440 N   0  0  0  0  0  0  0  0  0  0  0  0
   41.7410   31.8520   36.1730 H   0  0  0  0  0  0  0  0  0  0  0  0
   43.4640   33.0020   37.4790 H   0  0  0  0  0  0  0  0  0  0  0  0
   44.5230   33.9230   39.6210 C   0  0  0  0  0  3  0  0  0  0  0  0
   43.3050   33.5610   40.1530 C   0  0  0  0  0  0  0  0  0  0  0  0
   43.0760   33.8630   41.4750 C   0  0  0  0  0  0  0  0  0  0  0  0
   42.1380   33.5960   41.9250 H   0  0  0  0  0  0  0  0  0  0  0  0
   43.9860   34.5010   42.2940 C   0  0  0  0  0  0  0  0  0  0  0  0
   43.9960   34.8940   43.5800 N   0  0  0  0  0  0  0  0  0  0  0  0
   43.1910   34.7430   44.2270 H   0  0  0  0  0  0  0  0  0  0  0  0
   45.1760   35.4740   43.8250 N   0  0  0  0  0  0  0  0  0  0  0  0
   45.9380   35.4610   42.7020 C   0  0  0  0  0  0  0  0  0  0  0  0
   46.9380   35.8500   42.5670 H   0  0  0  0  0  0  0  0  0  0  0  0
   45.2060   34.8460   41.7060 C   0  0  0  0  0  0  0  0  0  0  0  0
   45.5030   34.5710   40.3740 C   0  0  0  0  0  3  0  0  0  0  0  0
  2  1  1  0  0  0  0
  2  7  1  0  0  0  0
  3  2  2  0  0  0  0
  4  3  1  0  0  0  0
  4  5  2  0  0  0  0
  5  6  1  0  0  0  0
  6  7  2  0  0  0  0
  6 10  1  0  0  0  0
  7 11  1  0  0  0  0
  8  4  1  0  0  0  0
  9  5  1  0  0  0  0
 11 15  1  0  0  0  0
 12 17  1  0  0  0  0
 12 11  1  0  0  0  0
 12 13  1  0  0  0  0
 13 19  1  0  0  0  0
 13 14  1  0  0  0  0
 14 15  1  0  0  0  0
 14 20  1  0  0  0  0
 15 22  1  1  0  0  0
 15 23  1  0  0  0  0
 16 12  1  0  0  0  0
 18 13  1  0  0  0  0
 21 14  1  0  0  0  0
 23 26  1  0  0  0  0
 23 25  1  0  0  0  0
 24 23  1  0  0  0  0
 27 32  2  0  0  0  0
 27 28  1  0  0  0  0
 28 29  2  0  0  0  0
 29 30  1  0  0  0  0
 29 36  1  0  0  0  0
 31  3  1  0  0  0  0
 31 30  2  0  0  0  0
 32 31  1  0  0  0  0
 33 27  1  0  0  0  0
 34 28  1  0  0  0  0
 35 36  2  0  0  0  0
 35 46  1  0  0  0  0
 36 37  1  0  0  0  0
 37 38  1  0  0  0  0
 37 39  2  0  0  0  0
 39 40  1  0  0  0  0
 40 42  1  0  0  0  0
 40 41  1  0  0  0  0
 43 42  2  0  0  0  0
 44 43  1  0  0  0  0
 45 39  1  0  0  0  0
 45 43  1  0  0  0  0
 46 45  2  0  0  0  0
M  END
>  <minimizedAffinity>
-6.95339394

$$$$

 OpenBabel03252505263D

 46 50  0  0  1  0  0  0  0  0999 V2000
   40.1850   30.4640   41.2670 F   0  0  0  0  0  0  0  0  0  0  0  0
   39.0970   31.1300   40.7710 C   0  0  0  0  0  0  0  0  0  0  0  0
   37.8480   30.6140   41.0530 C   0  0  0  0  0  0  0  0  0  0  0  0
   36.7640   31.2920   40.5480 C   0  0  0  0  0  0  0  0  0  0  0  0
   36.9490   32.4360   39.7970 C   0  0  0  0  0  0  0  0  0  0  0  0
   38.1970   32.9410   39.5220 C   0  0  0  0  0  0  0  0  0  0  0  0
   39.2970   32.2460   40.0390 C   0  0  0  0  0  0  0  0  0  0  0  0
   35.7680   30.8980   40.7610 H   0  0  0  0  0  0  0  0  0  0  0  0
   36.0270   32.8960   39.4460 H   0  0  0  0  0  0  0  0  0  0  0  0
   38.2770   33.8280   38.9360 H   0  0  0  0  0  0  0  0  0  0  0  0
   40.5550   32.8170   39.7210 N   0  0  0  0  0  0  0  0  0  0  0  0
   41.5020   32.5380   38.6900 C   0  0  0  0  0  0  0  0  0  0  0  0
   41.8230   33.9240   38.1130 C   0  0  0  0  0  0  0  0  0  0  0  0
   41.4530   34.8680   39.2150 C   0  0  0  0  0  0  0  0  0  0  0  0
   41.2800   33.9090   40.3870 C   0  0  2  0  0  0  0  0  0  0  0  0
   40.9400   32.0040   37.8700 H   0  0  0  0  0  0  0  0  0  0  0  0
   42.3760   31.9580   38.9480 H   0  0  0  0  0  0  0  0  0  0  0  0
   41.3050   34.1130   37.1570 H   0  0  0  0  0  0  0  0  0  0  0  0
   42.9120   33.9680   37.9650 H   0  0  0  0  0  0  0  0  0  0  0  0
   42.1840   35.6540   39.4190 H   0  0  0  0  0  0  0  0  0  0  0  0
   40.4490   35.3320   39.0580 H   0  0  0  0  0  0  0  0  0  0  0  0
   40.5590   34.3430   41.1210 H   0  0  0  0  0  0  0  0  0  0  0  0
   42.5260   33.5100   41.0560 C   0  0  0  0  0  0  0  0  0  0  0  0
   42.9480   32.5280   40.8220 H   0  0  0  0  0  0  0  0  0  0  0  0
   43.3490   34.2700   40.9210 H   0  0  0  0  0  0  0  0  0  0  0  0
   42.3710   33.4970   42.1680 H   0  0  0  0  0  0  0  0  0  0  0  0
   37.5920   28.3370   43.9070 C   0  0  0  0  0  0  0  0  0  0  0  0
   37.4390   27.0760   43.2820 C   0  0  0  0  0  0  0  0  0  0  0  0
   37.4300   27.0640   41.8930 C   0  0  0  0  0  0  0  0  0  0  0  0
   37.5660   28.2300   41.2370 N   0  0  0  0  0  0  0  0  0  0  0  0
   37.7090   29.4070   41.8480 C   0  0  0  0  0  0  0  0  0  0  0  0
   37.7240   29.4730   43.1740 N   0  0  0  0  0  0  0  0  0  0  0  0
   37.5950   28.3110   44.9870 H   0  0  0  0  0  0  0  0  0  0  0  0
   37.3340   26.1700   43.8260 H   0  0  0  0  0  0  0  0  0  0  0  0
   36.5740   25.9050   39.9300 C   0  0  0  0  0  3  0  0  0  0  0  0
   37.2820   25.8450   41.1110 C   0  0  0  0  0  0  0  0  0  0  0  0
   37.8060   24.6270   41.4730 C   0  0  0  0  0  0  0  0  0  0  0  0
   38.3650   24.5410   42.3870 H   0  0  0  0  0  0  0  0  0  0  0  0
   37.6670   23.4700   40.7320 C   0  0  0  0  0  0  0  0  0  0  0  0
   38.0740   22.1960   40.8710 N   0  0  0  0  0  0  0  0  0  0  0  0
   38.6360   21.8650   41.6860 H   0  0  0  0  0  0  0  0  0  0  0  0
   37.6320   21.5040   39.8160 N   0  0  0  0  0  0  0  0  0  0  0  0
   36.9360   22.3230   38.9870 C   0  0  0  0  0  0  0  0  0  0  0  0
   36.4510   22.0740   38.0520 H   0  0  0  0  0  0  0  0  0  0  0  0
   36.9400   23.5860   39.5440 C   0  0  0  0  0  0  0  0  0  0  0  0
   36.3830   24.7880   39.1170 C   0  0  0  0  0  3  0  0  0  0  0  0
  2  3  1  0  0  0  0
  2  1  1  0  0  0  0
  3 31  1  0  0  0  0
  4  8  1  0  0  0  0
  4  3  2  0  0  0  0
  5  4  1  0  0  0  0
  6  5  2  0  0  0  0
  6  7  1  0  0  0  0
  7  2  2  0  0  0  0
  9  5  1  0  0  0  0
 10  6  1  0  0  0  0
 11  7  1  0  0  0  0
 11 15  1  0  0  0  0
 12 17  1  0  0  0  0
 12 11  1  0  0  0  0
 13 12  1  0  0  0  0
 13 14  1  0  0  0  0
 14 20  1  0  0  0  0
 14 15  1  0  0  0  0
 15 23  1  0  0  0  0
 15 22  1  1  0  0  0
 16 12  1  0  0  0  0
 18 13  1  0  0  0  0
 19 13  1  0  0  0  0
 21 14  1  0  0  0  0
 23 26  1  0  0  0  0
 24 23  1  0  0  0  0
 25 23  1  0  0  0  0
 27 33  1  0  0  0  0
 28 34  1  0  0  0  0
 28 27  1  0  0  0  0
 29 28  2  0  0  0  0
 30 31  2  0  0  0  0
 30 29  1  0  0  0  0
 31 32  1  0  0  0  0
 32 27  2  0  0  0  0
 35 36  1  0  0  0  0
 36 37  2  0  0  0  0
 36 29  1  0  0  0  0
 37 38  1  0  0  0  0
 39 40  1  0  0  0  0
 39 37  1  0  0  0  0
 40 41  1  0  0  0  0
 42 40  1  0  0  0  0
 43 45  1  0  0  0  0
 43 42  2  0  0  0  0
 44 43  1  0  0  0  0
 45 39  2  0  0  0  0
 46 45  1  0  0  0  0
 46 35  2  0  0  0  0
M  END
>  <minimizedAffinity>
-6.86085844

$$$$

 OpenBabel03252505263D

 46 50  0  0  1  0  0  0  0  0999 V2000
   37.7670   31.5010   37.1950 F   0  0  0  0  0  0  0  0  0  0  0  0
   37.0960   31.0100   38.2810 C   0  0  0  0  0  0  0  0  0  0  0  0
   37.3230   31.6170   39.5010 C   0  0  0  0  0  0  0  0  0  0  0  0
   36.6430   31.1140   40.5840 C   0  0  0  0  0  0  0  0  0  0  0  0
   35.7790   30.0480   40.4280 C   0  0  0  0  0  0  0  0  0  0  0  0
   35.5610   29.4500   39.2100 C   0  0  0  0  0  0  0  0  0  0  0  0
   36.2560   29.9670   38.1100 C   0  0  0  0  0  0  0  0  0  0  0  0
   36.8090   31.5820   41.5570 H   0  0  0  0  0  0  0  0  0  0  0  0
   35.2920   29.7260   41.3460 H   0  0  0  0  0  0  0  0  0  0  0  0
   34.8830   28.6300   39.1500 H   0  0  0  0  0  0  0  0  0  0  0  0
   35.9890   29.3090   36.8830 N   0  0  0  0  0  0  0  0  0  0  0  0
   34.7690   28.9530   36.2320 C   0  0  0  0  0  0  0  0  0  0  0  0
   34.9700   29.4540   34.7960 C   0  0  0  0  0  0  0  0  0  0  0  0
   36.4580   29.5420   34.6490 C   0  0  0  0  0  0  0  0  0  0  0  0
   36.9270   28.7800   35.8830 C   0  0  2  0  0  0  0  0  0  0  0  0
   33.9650   29.6180   36.6630 H   0  0  0  0  0  0  0  0  0  0  0  0
   34.4420   27.9250   36.2960 H   0  0  0  0  0  0  0  0  0  0  0  0
   34.4360   30.4000   34.6000 H   0  0  0  0  0  0  0  0  0  0  0  0
   34.5980   28.6670   34.1230 H   0  0  0  0  0  0  0  0  0  0  0  0
   36.8590   29.1270   33.7210 H   0  0  0  0  0  0  0  0  0  0  0  0
   36.8370   30.5850   34.7800 H   0  0  0  0  0  0  0  0  0  0  0  0
   37.9330   29.1520   36.1910 H   0  0  0  0  0  0  0  0  0  0  0  0
   36.9330   27.3170   35.7480 C   0  0  0  0  0  0  0  0  0  0  0  0
   36.1090   26.7530   36.1950 H   0  0  0  0  0  0  0  0  0  0  0  0
   37.0240   26.9850   34.6740 H   0  0  0  0  0  0  0  0  0  0  0  0
   37.8590   26.8970   36.2260 H   0  0  0  0  0  0  0  0  0  0  0  0
   38.7040   34.9270   40.2300 C   0  0  0  0  0  0  0  0  0  0  0  0
   40.0430   34.8070   39.7850 C   0  0  0  0  0  0  0  0  0  0  0  0
   40.4150   33.5810   39.2470 C   0  0  0  0  0  0  0  0  0  0  0  0
   39.4980   32.5990   39.1840 N   0  0  0  0  0  0  0  0  0  0  0  0
   38.2410   32.7360   39.6110 C   0  0  0  0  0  0  0  0  0  0  0  0
   37.8350   33.8880   40.1330 N   0  0  0  0  0  0  0  0  0  0  0  0
   38.4490   35.8920   40.6420 H   0  0  0  0  0  0  0  0  0  0  0  0
   40.7470   35.6000   39.8470 H   0  0  0  0  0  0  0  0  0  0  0  0
   42.8190   33.9530   39.3340 C   0  0  0  0  0  3  0  0  0  0  0  0
   41.7540   33.3070   38.7470 C   0  0  0  0  0  0  0  0  0  0  0  0
   42.0310   32.4360   37.7180 C   0  0  0  0  0  0  0  0  0  0  0  0
   41.2250   31.9140   37.2350 H   0  0  0  0  0  0  0  0  0  0  0  0
   43.3000   32.1750   37.2430 C   0  0  0  0  0  0  0  0  0  0  0  0
   43.8110   31.3900   36.2780 N   0  0  0  0  0  0  0  0  0  0  0  0
   43.2220   30.7820   35.6670 H   0  0  0  0  0  0  0  0  0  0  0  0
   45.1390   31.5520   36.2750 N   0  0  0  0  0  0  0  0  0  0  0  0
   45.4970   32.4400   37.2370 C   0  0  0  0  0  0  0  0  0  0  0  0
   46.4890   32.7860   37.4930 H   0  0  0  0  0  0  0  0  0  0  0  0
   44.3440   32.8570   37.8720 C   0  0  0  0  0  0  0  0  0  0  0  0
   44.1360   33.7500   38.9200 C   0  0  0  0  0  3  0  0  0  0  0  0
  1  2  1  0  0  0  0
  2  3  1  0  0  0  0
  3 31  1  0  0  0  0
  3  4  2  0  0  0  0
  4  8  1  0  0  0  0
  5  4  1  0  0  0  0
  5  9  1  0  0  0  0
  6  5  2  0  0  0  0
  7  2  2  0  0  0  0
  7  6  1  0  0  0  0
 10  6  1  0  0  0  0
 11  7  1  0  0  0  0
 12 17  1  0  0  0  0
 12 16  1  0  0  0  0
 12 11  1  0  0  0  0
 13 12  1  0  0  0  0
 14 21  1  0  0  0  0
 14 13  1  0  0  0  0
 14 15  1  0  0  0  0
 15 22  1  1  0  0  0
 15 11  1  0  0  0  0
 18 13  1  0  0  0  0
 19 13  1  0  0  0  0
 20 14  1  0  0  0  0
 23 15  1  0  0  0  0
 23 24  1  0  0  0  0
 23 26  1  0  0  0  0
 25 23  1  0  0  0  0
 27 33  1  0  0  0  0
 28 34  1  0  0  0  0
 28 27  2  0  0  0  0
 29 28  1  0  0  0  0
 30 29  2  0  0  0  0
 30 31  1  0  0  0  0
 31 32  2  0  0  0  0
 32 27  1  0  0  0  0
 36 29  1  0  0  0  0
 36 35  2  0  0  0  0
 37 36  1  0  0  0  0
 38 37  1  0  0  0  0
 39 37  2  0  0  0  0
 39 45  1  0  0  0  0
 40 39  1  0  0  0  0
 41 40  1  0  0  0  0
 42 40  1  0  0  0  0
 42 43  2  0  0  0  0
 43 44  1  0  0  0  0
 43 45  1  0  0  0  0
 45 46  2  0  0  0  0
 46 35  1  0  0  0  0
M  END
>  <minimizedAffinity>
-6.77201223

$$$$

 OpenBabel03252505263D

 46 50  0  0  1  0  0  0  0  0999 V2000
   32.7430   29.4200   38.8760 F   0  0  0  0  0  0  0  0  0  0  0  0
   33.0370   29.2700   37.5480 C   0  0  0  0  0  0  0  0  0  0  0  0
   34.3430   28.9710   37.2130 C   0  0  0  0  0  0  0  0  0  0  0  0
   34.6250   28.8230   35.8760 C   0  0  0  0  0  0  0  0  0  0  0  0
   33.6260   28.9720   34.9350 C   0  0  0  0  0  0  0  0  0  0  0  0
   32.3300   29.2690   35.2790 C   0  0  0  0  0  0  0  0  0  0  0  0
   32.0480   29.4190   36.6420 C   0  0  0  0  0  0  0  0  0  0  0  0
   35.6530   28.5860   35.5910 H   0  0  0  0  0  0  0  0  0  0  0  0
   33.9540   28.8340   33.9060 H   0  0  0  0  0  0  0  0  0  0  0  0
   31.6010   29.3730   34.5080 H   0  0  0  0  0  0  0  0  0  0  0  0
   30.6950   29.7250   36.9330 N   0  0  0  0  0  0  0  0  0  0  0  0
   29.4790   29.0140   36.6970 C   0  0  0  0  0  0  0  0  0  0  0  0
   28.7640   29.0670   38.0540 C   0  0  0  0  0  0  0  0  0  0  0  0
   29.3820   30.2470   38.7410 C   0  0  0  0  0  0  0  0  0  0  0  0
   30.1250   30.9100   37.5880 C   0  0  2  0  0  0  0  0  0  0  0  0
   29.7590   27.9300   36.5580 H   0  0  0  0  0  0  0  0  0  0  0  0
   28.8640   29.3240   35.8650 H   0  0  0  0  0  0  0  0  0  0  0  0
   28.8460   28.1190   38.6120 H   0  0  0  0  0  0  0  0  0  0  0  0
   27.7060   29.2950   37.8540 H   0  0  0  0  0  0  0  0  0  0  0  0
   28.6760   30.9210   39.2320 H   0  0  0  0  0  0  0  0  0  0  0  0
   30.1720   29.9460   39.4720 H   0  0  0  0  0  0  0  0  0  0  0  0
   30.9990   31.4800   37.9870 H   0  0  0  0  0  0  0  0  0  0  0  0
   29.2990   31.7630   36.7230 C   0  0  0  0  0  0  0  0  0  0  0  0
   28.9690   31.3590   35.7610 H   0  0  0  0  0  0  0  0  0  0  0  0
   28.3850   32.1570   37.2530 H   0  0  0  0  0  0  0  0  0  0  0  0
   29.8660   32.6980   36.4610 H   0  0  0  0  0  0  0  0  0  0  0  0
   36.5050   27.5240   39.7870 C   0  0  0  0  0  0  0  0  0  0  0  0
   37.2960   28.6300   40.1830 C   0  0  0  0  0  0  0  0  0  0  0  0
   37.0480   29.8370   39.5410 C   0  0  0  0  0  0  0  0  0  0  0  0
   36.0890   29.8810   38.5980 N   0  0  0  0  0  0  0  0  0  0  0  0
   35.3560   28.8250   38.2420 C   0  0  0  0  0  0  0  0  0  0  0  0
   35.5540   27.6480   38.8250 N   0  0  0  0  0  0  0  0  0  0  0  0
   36.7240   26.6020   40.3060 H   0  0  0  0  0  0  0  0  0  0  0  0
   38.0470   28.5660   40.9310 H   0  0  0  0  0  0  0  0  0  0  0  0
   39.0160   30.9570   40.4340 C   0  0  0  0  0  3  0  0  0  0  0  0
   37.7780   31.0600   39.8400 C   0  0  0  0  0  0  0  0  0  0  0  0
   37.3100   32.3240   39.5660 C   0  0  0  0  0  0  0  0  0  0  0  0
   36.3480   32.4450   39.1020 H   0  0  0  0  0  0  0  0  0  0  0  0
   38.0010   33.4860   39.8480 C   0  0  0  0  0  0  0  0  0  0  0  0
   37.7630   34.7990   39.6820 N   0  0  0  0  0  0  0  0  0  0  0  0
   36.8870   35.1670   39.2500 H   0  0  0  0  0  0  0  0  0  0  0  0
   38.8160   35.4720   40.1570 N   0  0  0  0  0  0  0  0  0  0  0  0
   39.7430   34.6020   40.6330 C   0  0  0  0  0  0  0  0  0  0  0  0
   40.7020   34.8240   41.0810 H   0  0  0  0  0  0  0  0  0  0  0  0
   39.2520   33.3250   40.4510 C   0  0  0  0  0  0  0  0  0  0  0  0
   39.7850   32.0750   40.7550 C   0  0  0  0  0  3  0  0  0  0  0  0
  2  1  1  0  0  0  0
  3  2  1  0  0  0  0
  3 31  1  0  0  0  0
  4  3  2  0  0  0  0
  5  6  2  0  0  0  0
  5  4  1  0  0  0  0
  6  7  1  0  0  0  0
  7 11  1  0  0  0  0
  7  2  2  0  0  0  0
  8  4  1  0  0  0  0
  9  5  1  0  0  0  0
 10  6  1  0  0  0  0
 11 15  1  0  0  0  0
 12 11  1  0  0  0  0
 12 13  1  0  0  0  0
 13 18  1  0  0  0  0
 13 14  1  0  0  0  0
 14 20  1  0  0  0  0
 14 21  1  0  0  0  0
 15 22  1  1  0  0  0
 15 14  1  0  0  0  0
 16 12  1  0  0  0  0
 17 12  1  0  0  0  0
 19 13  1  0  0  0  0
 23 25  1  0  0  0  0
 23 15  1  0  0  0  0
 24 23  1  0  0  0  0
 26 23  1  0  0  0  0
 27 28  1  0  0  0  0
 27 33  1  0  0  0  0
 28 34  1  0  0  0  0
 29 36  1  0  0  0  0
 29 28  2  0  0  0  0
 30 29  1  0  0  0  0
 31 30  2  0  0  0  0
 31 32  1  0  0  0  0
 32 27  2  0  0  0  0
 35 46  1  0  0  0  0
 36 35  2  0  0  0  0
 37 36  1  0  0  0  0
 37 39  2  0  0  0  0
 38 37  1  0  0  0  0
 39 45  1  0  0  0  0
 40 39  1  0  0  0  0
 40 42  1  0  0  0  0
 41 40  1  0  0  0  0
 42 43  2  0  0  0  0
 43 44  1  0  0  0  0
 45 43  1  0  0  0  0
 45 46  2  0  0  0  0
M  END
>  <minimizedAffinity>
-6.77149439

$$$$

 OpenBabel03252505263D

 46 50  0  0  1  0  0  0  0  0999 V2000
   38.9080   30.6290   41.7600 F   0  0  0  0  0  0  0  0  0  0  0  0
   38.1350   30.2420   40.6990 C   0  0  0  0  0  0  0  0  0  0  0  0
   37.8470   31.1910   39.7380 C   0  0  0  0  0  0  0  0  0  0  0  0
   37.0690   30.7900   38.6780 C   0  0  0  0  0  0  0  0  0  0  0  0
   36.6120   29.4890   38.6060 C   0  0  0  0  0  0  0  0  0  0  0  0
   36.9040   28.5520   39.5680 C   0  0  0  0  0  0  0  0  0  0  0  0
   37.6960   28.9670   40.6460 C   0  0  0  0  0  0  0  0  0  0  0  0
   36.8320   31.5270   37.9080 H   0  0  0  0  0  0  0  0  0  0  0  0
   36.0050   29.2740   37.7280 H   0  0  0  0  0  0  0  0  0  0  0  0
   36.5220   27.5630   39.4590 H   0  0  0  0  0  0  0  0  0  0  0  0
   37.9620   27.9560   41.6030 N   0  0  0  0  0  0  0  0  0  0  0  0
   39.1670   27.3010   41.9970 C   0  0  0  0  0  0  0  0  0  0  0  0
   39.1350   27.3800   43.5290 C   0  0  0  0  0  0  0  0  0  0  0  0
   37.6850   27.5760   43.8490 C   0  0  0  0  0  0  0  0  0  0  0  0
   37.0350   27.2600   42.5070 C   0  0  2  0  0  0  0  0  0  0  0  0
   40.0180   27.9750   41.6880 H   0  0  0  0  0  0  0  0  0  0  0  0
   39.3530   26.3070   41.6130 H   0  0  0  0  0  0  0  0  0  0  0  0
   39.8000   28.1670   43.9250 H   0  0  0  0  0  0  0  0  0  0  0  0
   39.4480   26.3960   43.9100 H   0  0  0  0  0  0  0  0  0  0  0  0
   37.3000   26.9530   44.6600 H   0  0  0  0  0  0  0  0  0  0  0  0
   37.4360   28.6450   44.0570 H   0  0  0  0  0  0  0  0  0  0  0  0
   36.0670   27.8080   42.4230 H   0  0  0  0  0  0  0  0  0  0  0  0
   36.8490   25.8300   42.2270 C   0  0  0  0  0  0  0  0  0  0  0  0
   37.5590   25.3370   41.5550 H   0  0  0  0  0  0  0  0  0  0  0  0
   36.7910   25.2110   43.1670 H   0  0  0  0  0  0  0  0  0  0  0  0
   35.8450   25.6660   41.7500 H   0  0  0  0  0  0  0  0  0  0  0  0
   38.0050   34.8420   39.9350 C   0  0  0  0  0  0  0  0  0  0  0  0
   39.3910   35.0820   40.1030 C   0  0  0  0  0  0  0  0  0  0  0  0
   40.2180   33.9660   40.1400 C   0  0  0  0  0  0  0  0  0  0  0  0
   39.6630   32.7470   40.0180 N   0  0  0  0  0  0  0  0  0  0  0  0
   38.3530   32.5460   39.8610 C   0  0  0  0  0  0  0  0  0  0  0  0
   37.5190   33.5790   39.8190 N   0  0  0  0  0  0  0  0  0  0  0  0
   37.3920   35.7310   39.9100 H   0  0  0  0  0  0  0  0  0  0  0  0
   39.8020   36.0570   40.1960 H   0  0  0  0  0  0  0  0  0  0  0  0
   42.4660   33.3790   39.4140 C   0  0  0  0  0  3  0  0  0  0  0  0
   41.6610   34.0530   40.3060 C   0  0  0  0  0  0  0  0  0  0  0  0
   42.2820   34.7710   41.3010 C   0  0  0  0  0  0  0  0  0  0  0  0
   41.6870   35.3100   42.0160 H   0  0  0  0  0  0  0  0  0  0  0  0
   43.6510   34.8550   41.4590 C   0  0  0  0  0  0  0  0  0  0  0  0
   44.4730   35.4730   42.3260 N   0  0  0  0  0  0  0  0  0  0  0  0
   44.1270   36.0610   43.1160 H   0  0  0  0  0  0  0  0  0  0  0  0
   45.7310   35.1860   41.9780 N   0  0  0  0  0  0  0  0  0  0  0  0
   45.7350   34.3820   40.8840 C   0  0  0  0  0  0  0  0  0  0  0  0
   46.5860   33.9740   40.3560 H   0  0  0  0  0  0  0  0  0  0  0  0
   44.4210   34.1520   40.5290 C   0  0  0  0  0  0  0  0  0  0  0  0
   43.8580   33.4060   39.4970 C   0  0  0  0  0  3  0  0  0  0  0  0
  2  1  1  0  0  0  0
  3 31  1  0  0  0  0
  3  2  2  0  0  0  0
  4  3  1  0  0  0  0
  5  4  2  0  0  0  0
  5  6  1  0  0  0  0
  6  7  2  0  0  0  0
  7  2  1  0  0  0  0
  7 11  1  0  0  0  0
  8  4  1  0  0  0  0
  9  5  1  0  0  0  0
 10  6  1  0  0  0  0
 11 12  1  0  0  0  0
 11 15  1  0  0  0  0
 12 13  1  0  0  0  0
 13 14  1  0  0  0  0
 13 19  1  0  0  0  0
 13 18  1  0  0  0  0
 14 21  1  0  0  0  0
 14 20  1  0  0  0  0
 15 22  1  6  0  0  0
 15 14  1  0  0  0  0
 16 12  1  0  0  0  0
 17 12  1  0  0  0  0
 23 15  1  0  0  0  0
 23 25  1  0  0  0  0
 24 23  1  0  0  0  0
 26 23  1  0  0  0  0
 27 28  1  0  0  0  0
 28 29  2  0  0  0  0
 28 34  1  0  0  0  0
 29 36  1  0  0  0  0
 30 29  1  0  0  0  0
 31 30  2  0  0  0  0
 32 31  1  0  0  0  0
 32 27  2  0  0  0  0
 33 27  1  0  0  0  0
 35 46  2  0  0  0  0
 35 36  1  0  0  0  0
 36 37  2  0  0  0  0
 37 39  1  0  0  0  0
 37 38  1  0  0  0  0
 39 40  1  0  0  0  0
 40 41  1  0  0  0  0
 42 40  1  0  0  0  0
 43 42  2  0  0  0  0
 44 43  1  0  0  0  0
 45 43  1  0  0  0  0
 45 39  2  0  0  0  0
 46 45  1  0  0  0  0
M  END
>  <minimizedAffinity>
-6.75350571

$$$$

 OpenBabel03252505263D

 46 50  0  0  1  0  0  0  0  0999 V2000
   40.9170   31.3940   39.7520 F   0  0  0  0  0  0  0  0  0  0  0  0
   40.5820   32.7140   39.8910 C   0  0  0  0  0  0  0  0  0  0  0  0
   39.3180   33.0050   40.3650 C   0  0  0  0  0  0  0  0  0  0  0  0
   38.9930   34.3340   40.5000 C   0  0  0  0  0  0  0  0  0  0  0  0
   39.9120   35.3100   40.1690 C   0  0  0  0  0  0  0  0  0  0  0  0
   41.1670   35.0090   39.6980 C   0  0  0  0  0  0  0  0  0  0  0  0
   41.4920   33.6540   39.5620 C   0  0  0  0  0  0  0  0  0  0  0  0
   37.9980   34.5830   40.8740 H   0  0  0  0  0  0  0  0  0  0  0  0
   39.5560   36.3290   40.3120 H   0  0  0  0  0  0  0  0  0  0  0  0
   41.8340   35.8060   39.4580 H   0  0  0  0  0  0  0  0  0  0  0  0
   42.8000   33.4100   39.0730 N   0  0  0  0  0  0  0  0  0  0  0  0
   43.5190   33.9330   37.9570 C   0  0  0  0  0  0  0  0  0  0  0  0
   44.8730   34.3330   38.5580 C   0  0  0  0  0  0  0  0  0  0  0  0
   44.9740   33.5060   39.8020 C   0  0  0  0  0  0  0  0  0  0  0  0
   43.8390   32.5100   39.5930 C   0  0  2  0  0  0  0  0  0  0  0  0
   43.0240   34.9090   37.6800 H   0  0  0  0  0  0  0  0  0  0  0  0
   43.5970   33.3190   37.0700 H   0  0  0  0  0  0  0  0  0  0  0  0
   44.9560   35.4210   38.7250 H   0  0  0  0  0  0  0  0  0  0  0  0
   45.6510   34.0010   37.8540 H   0  0  0  0  0  0  0  0  0  0  0  0
   45.9380   33.0170   39.9600 H   0  0  0  0  0  0  0  0  0  0  0  0
   44.6990   34.0830   40.7190 H   0  0  0  0  0  0  0  0  0  0  0  0
   43.4620   32.1600   40.5840 H   0  0  0  0  0  0  0  0  0  0  0  0
   44.1630   31.3680   38.7280 C   0  0  0  0  0  0  0  0  0  0  0  0
   43.8120   31.3870   37.6920 H   0  0  0  0  0  0  0  0  0  0  0  0
   45.2690   31.1470   38.7040 H   0  0  0  0  0  0  0  0  0  0  0  0
   43.7240   30.4290   39.1610 H   0  0  0  0  0  0  0  0  0  0  0  0
   36.2270   31.0970   40.8170 C   0  0  0  0  0  0  0  0  0  0  0  0
   36.6960   29.8750   41.3580 C   0  0  0  0  0  0  0  0  0  0  0  0
   38.0680   29.7600   41.5450 C   0  0  0  0  0  0  0  0  0  0  0  0
   38.8540   30.7980   41.2080 N   0  0  0  0  0  0  0  0  0  0  0  0
   38.3900   31.9400   40.6990 C   0  0  0  0  0  0  0  0  0  0  0  0
   37.0860   32.1010   40.5010 N   0  0  0  0  0  0  0  0  0  0  0  0
   35.1570   31.1530   40.6850 H   0  0  0  0  0  0  0  0  0  0  0  0
   36.0510   29.0720   41.6160 H   0  0  0  0  0  0  0  0  0  0  0  0
   39.8630   28.7110   42.8120 C   0  0  0  0  0  3  0  0  0  0  0  0
   38.6970   28.5670   42.0920 C   0  0  0  0  0  0  0  0  0  0  0  0
   38.2010   27.2940   41.9380 C   0  0  0  0  0  0  0  0  0  0  0  0
   37.2940   27.1420   41.3830 H   0  0  0  0  0  0  0  0  0  0  0  0
   38.7970   26.1600   42.4560 C   0  0  0  0  0  0  0  0  0  0  0  0
   38.5140   24.8460   42.4410 N   0  0  0  0  0  0  0  0  0  0  0  0
   37.6760   24.4500   41.9600 H   0  0  0  0  0  0  0  0  0  0  0  0
   39.4710   24.2110   43.1260 N   0  0  0  0  0  0  0  0  0  0  0  0
   40.3790   25.1070   43.5880 C   0  0  0  0  0  0  0  0  0  0  0  0
   41.2680   24.9180   44.1750 H   0  0  0  0  0  0  0  0  0  0  0  0
   39.9770   26.3620   43.1770 C   0  0  0  0  0  0  0  0  0  0  0  0
   40.5330   27.6230   43.3720 C   0  0  0  0  0  3  0  0  0  0  0  0
  1  2  1  0  0  0  0
  2  3  1  0  0  0  0
  3  4  2  0  0  0  0
  3 31  1  0  0  0  0
  4  8  1  0  0  0  0
  5  9  1  0  0  0  0
  5  4  1  0  0  0  0
  6  5  2  0  0  0  0
  7  6  1  0  0  0  0
  7  2  2  0  0  0  0
 10  6  1  0  0  0  0
 11  7  1  0  0  0  0
 11 15  1  0  0  0  0
 12 13  1  0  0  0  0
 12 11  1  0  0  0  0
 13 18  1  0  0  0  0
 13 14  1  0  0  0  0
 14 20  1  0  0  0  0
 14 21  1  0  0  0  0
 15 14  1  0  0  0  0
 15 22  1  1  0  0  0
 16 12  1  0  0  0  0
 17 12  1  0  0  0  0
 19 13  1  0  0  0  0
 23 26  1  0  0  0  0
 23 15  1  0  0  0  0
 24 23  1  0  0  0  0
 25 23  1  0  0  0  0
 27 28  1  0  0  0  0
 28 29  2  0  0  0  0
 28 34  1  0  0  0  0
 29 36  1  0  0  0  0
 30 29  1  0  0  0  0
 31 30  2  0  0  0  0
 32 31  1  0  0  0  0
 32 27  2  0  0  0  0
 33 27  1  0  0  0  0
 35 46  1  0  0  0  0
 36 35  2  0  0  0  0
 37 36  1  0  0  0  0
 37 39  2  0  0  0  0
 38 37  1  0  0  0  0
 39 45  1  0  0  0  0
 40 39  1  0  0  0  0
 40 42  1  0  0  0  0
 41 40  1  0  0  0  0
 42 43  2  0  0  0  0
 43 44  1  0  0  0  0
 45 46  2  0  0  0  0
 45 43  1  0  0  0  0
M  END
>  <minimizedAffinity>
-6.69576216

$$$$

 OpenBabel03252505263D

 46 50  0  0  1  0  0  0  0  0999 V2000
   38.1180   28.3930   39.6570 F   0  0  0  0  0  0  0  0  0  0  0  0
   37.9840   28.2680   41.0130 C   0  0  0  0  0  0  0  0  0  0  0  0
   38.0660   29.4190   41.7720 C   0  0  0  0  0  0  0  0  0  0  0  0
   37.9300   29.2790   43.1330 C   0  0  0  0  0  0  0  0  0  0  0  0
   37.7210   28.0320   43.6860 C   0  0  0  0  0  0  0  0  0  0  0  0
   37.6410   26.8920   42.9210 C   0  0  0  0  0  0  0  0  0  0  0  0
   37.7800   27.0400   41.5360 C   0  0  0  0  0  0  0  0  0  0  0  0
   37.9930   30.1790   43.7490 H   0  0  0  0  0  0  0  0  0  0  0  0
   37.6270   28.0310   44.7700 H   0  0  0  0  0  0  0  0  0  0  0  0
   37.4780   25.9560   43.4050 H   0  0  0  0  0  0  0  0  0  0  0  0
   37.6870   25.8300   40.8040 N   0  0  0  0  0  0  0  0  0  0  0  0
   38.6030   24.7510   40.6150 C   0  0  0  0  0  0  0  0  0  0  0  0
   37.7530   23.5060   40.8990 C   0  0  0  0  0  0  0  0  0  0  0  0
   36.3460   23.9720   40.6820 C   0  0  0  0  0  0  0  0  0  0  0  0
   36.5760   25.3120   39.9930 C   0  0  2  0  0  0  0  0  0  0  0  0
   39.3420   24.8000   41.4660 H   0  0  0  0  0  0  0  0  0  0  0  0
   39.1480   24.7070   39.6820 H   0  0  0  0  0  0  0  0  0  0  0  0
   37.9440   23.0830   41.9000 H   0  0  0  0  0  0  0  0  0  0  0  0
   37.9980   22.7630   40.1240 H   0  0  0  0  0  0  0  0  0  0  0  0
   35.7180   23.2990   40.0940 H   0  0  0  0  0  0  0  0  0  0  0  0
   35.8270   24.2150   41.6410 H   0  0  0  0  0  0  0  0  0  0  0  0
   35.7140   25.9900   40.1990 H   0  0  0  0  0  0  0  0  0  0  0  0
   36.8430   25.2330   38.5500 C   0  0  0  0  0  0  0  0  0  0  0  0
   37.8780   25.3240   38.2090 H   0  0  0  0  0  0  0  0  0  0  0  0
   36.4170   24.2990   38.0850 H   0  0  0  0  0  0  0  0  0  0  0  0
   36.2940   26.0570   38.0190 H   0  0  0  0  0  0  0  0  0  0  0  0
   37.4790   32.6330   40.1240 C   0  0  0  0  0  0  0  0  0  0  0  0
   38.7910   33.1370   39.9550 C   0  0  0  0  0  0  0  0  0  0  0  0
   39.8310   32.3410   40.4200 C   0  0  0  0  0  0  0  0  0  0  0  0
   39.5330   31.1610   40.9930 N   0  0  0  0  0  0  0  0  0  0  0  0
   38.2880   30.7070   41.1410 C   0  0  0  0  0  0  0  0  0  0  0  0
   37.2580   31.4290   40.7130 N   0  0  0  0  0  0  0  0  0  0  0  0
   36.6950   33.2760   39.7510 H   0  0  0  0  0  0  0  0  0  0  0  0
   38.9970   34.0740   39.4990 H   0  0  0  0  0  0  0  0  0  0  0  0
   42.0920   32.3430   41.3230 C   0  0  0  0  0  3  0  0  0  0  0  0
   41.2310   32.7240   40.3170 C   0  0  0  0  0  0  0  0  0  0  0  0
   41.7590   33.4470   39.2730 C   0  0  0  0  0  0  0  0  0  0  0  0
   41.1180   33.7620   38.4690 H   0  0  0  0  0  0  0  0  0  0  0  0
   43.0870   33.8110   39.1730 C   0  0  0  0  0  0  0  0  0  0  0  0
   43.8210   34.4950   38.2780 N   0  0  0  0  0  0  0  0  0  0  0  0
   43.4180   34.9050   37.4070 H   0  0  0  0  0  0  0  0  0  0  0  0
   45.0820   34.5310   38.7210 N   0  0  0  0  0  0  0  0  0  0  0  0
   45.1750   33.8720   39.9040 C   0  0  0  0  0  0  0  0  0  0  0  0
   46.0510   33.7190   40.5190 H   0  0  0  0  0  0  0  0  0  0  0  0
   43.9160   33.4000   40.2200 C   0  0  0  0  0  0  0  0  0  0  0  0
   43.4490   32.6660   41.3070 C   0  0  0  0  0  3  0  0  0  0  0  0
  1  2  1  0  0  0  0
  2  7  2  0  0  0  0
  2  3  1  0  0  0  0
  3  4  2  0  0  0  0
  4  5  1  0  0  0  0
  4  8  1  0  0  0  0
  5  9  1  0  0  0  0
  6 10  1  0  0  0  0
  6  5  2  0  0  0  0
  7  6  1  0  0  0  0
 11  7  1  0  0  0  0
 12 11  1  0  0  0  0
 12 13  1  0  0  0  0
 12 16  1  0  0  0  0
 13 18  1  0  0  0  0
 14 13  1  0  0  0  0
 14 21  1  0  0  0  0
 15 22  1  1  0  0  0
 15 14  1  0  0  0  0
 15 11  1  0  0  0  0
 17 12  1  0  0  0  0
 19 13  1  0  0  0  0
 20 14  1  0  0  0  0
 23 15  1  0  0  0  0
 24 23  1  0  0  0  0
 25 23  1  0  0  0  0
 26 23  1  0  0  0  0
 27 32  1  0  0  0  0
 28 27  2  0  0  0  0
 28 29  1  0  0  0  0
 29 30  2  0  0  0  0
 30 31  1  0  0  0  0
 31  3  1  0  0  0  0
 32 31  2  0  0  0  0
 33 27  1  0  0  0  0
 34 28  1  0  0  0  0
 36 29  1  0  0  0  0
 36 35  2  0  0  0  0
 37 36  1  0  0  0  0
 38 37  1  0  0  0  0
 39 37  2  0  0  0  0
 39 45  1  0  0  0  0
 40 42  1  0  0  0  0
 40 39  1  0  0  0  0
 41 40  1  0  0  0  0
 42 43  2  0  0  0  0
 43 45  1  0  0  0  0
 43 44  1  0  0  0  0
 45 46  2  0  0  0  0
 46 35  1  0  0  0  0
M  END
>  <minimizedAffinity>
-6.62135649

$$$$
