
 OpenBabel03242519253D

 43 47  0  0  0  0  0  0  0  0999 V2000
   47.8950   33.8840   42.8900 C   0  0  0  0  0  0  0  0  0  0  0  0
   48.5290   35.1010   42.6280 C   0  0  0  0  0  0  0  0  0  0  0  0
   49.8930   35.1360   42.2930 C   0  0  0  0  0  0  0  0  0  0  0  0
   50.5260   33.9120   42.2440 N   0  0  0  0  0  0  0  0  0  0  0  0
   49.8720   32.7410   42.5070 C   0  0  0  0  0  0  0  0  0  0  0  0
   48.5800   32.7400   42.8220 N   0  0  0  0  0  0  0  0  0  0  0  0
   48.1160   36.1000   42.6430 H   0  0  0  0  0  0  0  0  0  0  0  0
   50.4460   36.0340   42.0790 H   0  0  0  0  0  0  0  0  0  0  0  0
   46.4640   33.9820   43.2370 C   0  0  0  0  0  0  0  0  0  0  0  0
   45.7380   34.9910   42.4670 C   0  0  0  0  0  0  0  0  0  0  0  0
   45.2730   36.1570   43.2620 C   0  0  0  0  0  0  0  0  0  0  0  0
   44.4990   35.7700   44.5100 C   0  0  0  0  0  0  0  0  0  0  0  0
   44.9640   34.4860   45.1530 C   0  0  0  0  0  0  0  0  0  0  0  0
   46.3980   34.2020   44.7590 C   0  0  0  0  0  0  0  0  0  0  0  0
   46.0420   32.9450   43.0880 H   0  0  0  0  0  0  0  0  0  0  0  0
   44.8210   34.5360   41.9960 H   0  0  0  0  0  0  0  0  0  0  0  0
   46.3920   35.3800   41.6660 H   0  0  0  0  0  0  0  0  0  0  0  0
   46.0110   36.9320   43.4840 H   0  0  0  0  0  0  0  0  0  0  0  0
   44.5010   36.6780   42.6210 H   0  0  0  0  0  0  0  0  0  0  0  0
   44.6760   36.5790   45.2710 H   0  0  0  0  0  0  0  0  0  0  0  0
   43.4030   35.7560   44.3580 H   0  0  0  0  0  0  0  0  0  0  0  0
   44.8610   34.4810   46.2370 H   0  0  0  0  0  0  0  0  0  0  0  0
   44.3660   33.6680   44.6770 H   0  0  0  0  0  0  0  0  0  0  0  0
   47.0240   35.1210   44.9370 H   0  0  0  0  0  0  0  0  0  0  0  0
   46.7640   33.3160   45.2890 H   0  0  0  0  0  0  0  0  0  0  0  0
   50.6890   31.5360   42.4180 C   0  0  0  0  0  0  0  0  0  0  0  0
   51.5080   31.4230   41.3450 N   0  0  0  0  0  0  0  0  0  0  0  0
   52.1860   30.2650   41.4150 C   0  0  0  0  0  0  0  0  0  0  0  0
   51.7720   29.6470   42.5680 N   0  0  0  0  0  0  0  0  0  0  0  0
   50.8670   30.4240   43.1670 N   0  0  0  0  0  0  0  0  0  0  0  0
   52.9210   29.8290   40.7570 H   0  0  0  0  0  0  0  0  0  0  0  0
   52.7930   27.3980   42.4240 C   0  0  0  0  0  3  0  0  0  0  0  0
   52.1520   28.4030   43.1470 C   0  0  0  0  0  0  0  0  0  0  0  0
   51.8940   28.1320   44.4780 C   0  0  0  0  0  0  0  0  0  0  0  0
   51.3970   28.9090   45.0400 H   0  0  0  0  0  0  0  0  0  0  0  0
   52.2350   26.9480   45.0980 C   0  0  0  0  0  0  0  0  0  0  0  0
   52.0570   26.5350   46.3700 N   0  0  0  0  0  0  0  0  0  0  0  0
   51.5980   27.1120   47.1030 H   0  0  0  0  0  0  0  0  0  0  0  0
   52.5640   25.3130   46.4590 N   0  0  0  0  0  0  0  0  0  0  0  0
   53.0720   24.9280   45.2540 C   0  0  0  0  0  0  0  0  0  0  0  0
   53.5480   23.9980   45.0020 H   0  0  0  0  0  0  0  0  0  0  0  0
   52.8750   25.9560   44.3610 C   0  0  0  0  0  0  0  0  0  0  0  0
   53.1360   26.2130   43.0390 C   0  0  0  0  0  3  0  0  0  0  0  0
  1  9  1  0  0  0  0
  2  7  1  0  0  0  0
  2  1  2  0  0  0  0
  3  2  1  0  0  0  0
  4  3  2  0  0  0  0
  4  5  1  0  0  0  0
  5  6  2  0  0  0  0
  6  1  1  0  0  0  0
  8  3  1  0  0  0  0
  9 14  1  0  0  0  0
 10  9  1  0  0  0  0
 10 11  1  0  0  0  0
 11 18  1  0  0  0  0
 11 12  1  0  0  0  0
 12 13  1  0  0  0  0
 12 20  1  0  0  0  0
 13 22  1  0  0  0  0
 14 24  1  0  0  0  0
 14 13  1  0  0  0  0
 14 25  1  0  0  0  0
 15  9  1  0  0  0  0
 16 10  1  0  0  0  0
 17 10  1  0  0  0  0
 19 11  1  0  0  0  0
 21 12  1  0  0  0  0
 23 13  1  0  0  0  0
 26  5  1  0  0  0  0
 26 30  2  0  0  0  0
 27 28  2  0  0  0  0
 27 26  1  0  0  0  0
 28 29  1  0  0  0  0
 29 33  1  0  0  0  0
 29 30  1  0  0  0  0
 31 28  1  0  0  0  0
 32 43  2  0  0  0  0
 32 33  1  0  0  0  0
 33 34  2  0  0  0  0
 34 35  1  0  0  0  0
 34 36  1  0  0  0  0
 36 37  1  0  0  0  0
 37 39  1  0  0  0  0
 37 38  1  0  0  0  0
 40 39  2  0  0  0  0
 41 40  1  0  0  0  0
 42 36  2  0  0  0  0
 42 40  1  0  0  0  0
 43 42  1  0  0  0  0
M  END
>  <minimizedAffinity>
-4.25558949

>  <minimizedRMSD>
1.01879573

$$$$
