
 OpenBabel03252508313D

 35 38  0  0  1  0  0  0  0  0999 V2000
   44.8300   34.6650   42.4620 N   0  0  0  0  0  0  0  0  0  0  0  0
   45.4790   33.7760   41.5770 C   0  0  1  0  0  0  0  0  0  0  0  0
   45.2440   34.0150   40.1310 C   0  0  0  0  0  0  0  0  0  0  0  0
   43.9460   34.4090   39.7820 N   0  0  0  0  0  0  0  0  0  0  0  0
   43.2470   35.2310   40.6870 C   0  0  0  0  0  0  0  0  0  0  0  0
   44.1320   35.7300   41.7970 C   0  0  0  0  0  0  0  0  0  0  0  0
   45.0950   32.7450   41.7970 H   0  0  0  0  0  0  0  0  0  0  0  0
   45.5370   33.1170   39.5460 H   0  0  0  0  0  0  0  0  0  0  0  0
   45.9470   34.8440   39.8240 H   0  0  0  0  0  0  0  0  0  0  0  0
   43.7360   34.4620   38.7890 H   0  0  0  0  0  0  0  0  0  0  0  0
   42.3630   34.7290   41.1720 H   0  0  0  0  0  0  0  0  0  0  0  0
   42.8210   36.1060   40.1610 H   0  0  0  0  0  0  0  0  0  0  0  0
   44.8790   36.4790   41.4260 H   0  0  0  0  0  0  0  0  0  0  0  0
   43.4530   36.2960   42.4680 H   0  0  0  0  0  0  0  0  0  0  0  0
   47.6070   34.9140   41.7470 C   0  0  0  0  0  3  0  0  0  0  0  0
   46.9700   33.6800   41.7870 C   0  0  0  0  0  0  0  0  0  0  0  0
   47.7550   32.5700   41.9910 C   0  0  0  0  0  0  0  0  0  0  0  0
   47.1630   31.6480   42.0060 H   0  0  0  0  0  0  0  0  0  0  0  0
   49.0950   32.6820   42.1470 C   0  0  0  0  0  0  0  0  0  0  0  0
   49.9680   31.6890   42.3510 N   0  0  0  0  0  0  0  0  0  0  0  0
   49.8370   30.6440   42.4350 H   0  0  0  0  0  0  0  0  0  0  0  0
   51.1670   32.2170   42.4480 N   0  0  0  0  0  0  0  0  0  0  0  0
   51.0790   33.5390   42.3110 C   0  0  0  0  0  0  0  0  0  0  0  0
   51.8760   34.2880   42.3370 H   0  0  0  0  0  0  0  0  0  0  0  0
   49.7550   33.8920   42.1120 C   0  0  0  0  0  0  0  0  0  0  0  0
   48.9950   35.0070   41.9100 C   0  0  0  0  0  3  0  0  0  0  0  0
   44.4450   35.4840   44.6730 C   0  0  0  0  0  0  0  0  0  0  0  0
   44.9260   34.4400   43.8540 C   0  0  0  0  0  0  0  0  0  0  0  0
   45.4440   33.3130   44.4650 C   0  0  0  0  0  0  0  0  0  0  0  0
   45.4870   33.2200   45.8200 N   0  0  0  0  0  0  0  0  0  0  0  0
   45.0150   34.2440   46.5940 C   0  0  0  0  0  0  0  0  0  0  0  0
   44.5050   35.3540   46.0230 N   0  0  0  0  0  0  0  0  0  0  0  0
   44.0120   36.4320   44.3980 H   0  0  0  0  0  0  0  0  0  0  0  0
   45.8020   32.5200   43.8430 H   0  0  0  0  0  0  0  0  0  0  0  0
   45.0600   34.1470   47.6780 H   0  0  0  0  0  0  0  0  0  0  0  0
  1 28  1  0  0  0  0
  2 16  1  0  0  0  0
  2  7  1  1  0  0  0
  2  1  1  0  0  0  0
  3  2  1  0  0  0  0
  4  3  1  0  0  0  0
  4  5  1  0  0  0  0
  5 11  1  0  0  0  0
  5  6  1  0  0  0  0
  6  1  1  0  0  0  0
  6 14  1  0  0  0  0
  8  3  1  0  0  0  0
  9  3  1  0  0  0  0
 10  4  1  0  0  0  0
 12  5  1  0  0  0  0
 13  6  1  0  0  0  0
 15 16  2  0  0  0  0
 15 26  1  0  0  0  0
 16 17  1  0  0  0  0
 17 18  1  0  0  0  0
 17 19  2  0  0  0  0
 19 20  1  0  0  0  0
 20 21  1  0  0  0  0
 20 22  1  0  0  0  0
 23 24  1  0  0  0  0
 23 22  2  0  0  0  0
 25 19  1  0  0  0  0
 25 23  1  0  0  0  0
 26 25  2  0  0  0  0
 27 32  1  0  0  0  0
 28 29  1  0  0  0  0
 28 27  2  0  0  0  0
 29 30  2  0  0  0  0
 30 31  1  0  0  0  0
 31 35  1  0  0  0  0
 32 31  2  0  0  0  0
 33 27  1  0  0  0  0
 34 29  1  0  0  0  0
M  END
>  <minimizedAffinity>
-5.27491331

>  <minimizedRMSD>
1.69056273

$$$$
