
 OpenBabel03242522203D

 48 52  0  0  0  0  0  0  0  0999 V2000
   42.4590   34.7310   39.8290 C   0  0  0  0  0  0  0  0  0  0  0  0
   41.9640   34.7580   38.5570 C   0  0  0  0  0  0  0  0  0  0  0  0
   40.7380   34.2740   38.1330 C   0  0  0  0  0  0  0  0  0  0  0  0
   39.9690   33.7150   39.1240 C   0  0  0  0  0  0  0  0  0  0  0  0
   40.4560   33.6830   40.4060 C   0  0  0  0  0  0  0  0  0  0  0  0
   41.6450   34.1610   40.7720 N   0  0  0  0  0  0  0  0  0  0  0  0
   42.6380   35.2190   37.8300 H   0  0  0  0  0  0  0  0  0  0  0  0
   40.4440   34.3430   37.1150 H   0  0  0  0  0  0  0  0  0  0  0  0
   39.5370   33.0550   41.3920 C   0  0  0  0  0  0  0  0  0  0  0  0
   38.2030   33.2390   40.9650 F   0  0  0  0  0  0  0  0  0  0  0  0
   39.7350   33.4820   42.6750 F   0  0  0  0  0  0  0  0  0  0  0  0
   39.7090   31.6810   41.4050 F   0  0  0  0  0  0  0  0  0  0  0  0
   43.7190   35.2110   40.3530 C   0  0  0  0  0  0  0  0  0  0  0  0
   44.5150   34.4560   40.1730 H   0  0  0  0  0  0  0  0  0  0  0  0
   44.0210   36.1020   39.7590 H   0  0  0  0  0  0  0  0  0  0  0  0
   43.7520   35.5740   41.8040 C   0  0  0  0  0  0  0  0  0  0  0  0
   43.8140   36.6660   41.9640 H   0  0  0  0  0  0  0  0  0  0  0  0
   42.7890   35.2400   42.2490 H   0  0  0  0  0  0  0  0  0  0  0  0
   46.7280   33.6590   42.9000 C   0  0  0  0  0  0  0  0  0  0  0  0
   46.6250   33.8560   44.2380 C   0  0  0  0  0  0  0  0  0  0  0  0
   45.1100   34.8960   44.3490 S   0  0  0  0  0  0  0  0  0  0  0  0
   44.8690   34.8820   42.5050 C   0  0  0  0  0  0  0  0  0  0  0  0
   45.7820   34.2350   42.2200 N   0  0  0  0  0  0  0  0  0  0  0  0
   47.2770   33.4870   45.0010 H   0  0  0  0  0  0  0  0  0  0  0  0
   49.6620   32.5750   40.8050 C   0  0  0  0  0  0  0  0  0  0  0  0
   48.6710   33.3990   41.3670 C   0  0  0  0  0  0  0  0  0  0  0  0
   47.7960   32.8720   42.2630 C   0  0  0  0  0  0  0  0  0  0  0  0
   47.9510   31.5110   42.5690 N   0  0  0  0  0  0  0  0  0  0  0  0
   48.9160   30.7700   42.0040 C   0  0  0  0  0  0  0  0  0  0  0  0
   49.7700   31.2950   41.1250 N   0  0  0  0  0  0  0  0  0  0  0  0
   50.3840   32.9490   40.0860 H   0  0  0  0  0  0  0  0  0  0  0  0
   48.8640   29.7530   42.3730 H   0  0  0  0  0  0  0  0  0  0  0  0
   48.6510   34.7620   40.9460 N   0  0  0  0  0  0  0  0  0  0  0  0
   48.0740   34.7060   40.0710 H   0  0  0  0  0  0  0  0  0  0  0  0
   49.1380   35.4880   41.4880 H   0  0  0  0  0  0  0  0  0  0  0  0
   38.3610   33.0600   38.6640 S   0  0  0  0  0  0  0  0  0  0  0  0
   38.8910   31.0350   36.9990 C   0  0  0  0  0  3  0  0  0  0  0  0
   38.4120   31.3260   38.2840 C   0  0  0  0  0  0  0  0  0  0  0  0
   38.0380   30.2780   39.1080 C   0  0  0  0  0  0  0  0  0  0  0  0
   37.6870   30.6190   40.0680 H   0  0  0  0  0  0  0  0  0  0  0  0
   38.1310   28.9710   38.6790 C   0  0  0  0  0  0  0  0  0  0  0  0
   37.8180   27.8390   39.3350 N   0  0  0  0  0  0  0  0  0  0  0  0
   37.4390   27.7910   40.3120 H   0  0  0  0  0  0  0  0  0  0  0  0
   38.0660   26.8040   38.5430 N   0  0  0  0  0  0  0  0  0  0  0  0
   38.5450   27.2830   37.3640 C   0  0  0  0  0  0  0  0  0  0  0  0
   38.8540   26.7210   36.4830 H   0  0  0  0  0  0  0  0  0  0  0  0
   38.5980   28.6490   37.4200 C   0  0  0  0  0  0  0  0  0  0  0  0
   38.9630   29.7030   36.6210 C   0  0  0  0  0  3  0  0  0  0  0  0
  1 13  1  0  0  0  0
  1  6  1  0  0  0  0
  2  1  2  0  0  0  0
  3  2  1  0  0  0  0
  3  4  2  0  0  0  0
  4  5  1  0  0  0  0
  5  6  2  0  0  0  0
  5  9  1  0  0  0  0
  7  2  1  0  0  0  0
  8  3  1  0  0  0  0
  9 12  1  0  0  0  0
  9 11  1  0  0  0  0
 10  9  1  0  0  0  0
 13 16  1  0  0  0  0
 14 13  1  0  0  0  0
 15 13  1  0  0  0  0
 16 17  1  0  0  0  0
 16 18  1  0  0  0  0
 16 22  1  0  0  0  0
 19 20  2  0  0  0  0
 20 21  1  0  0  0  0
 20 24  1  0  0  0  0
 22 21  1  0  0  0  0
 23 22  2  0  0  0  0
 23 19  1  0  0  0  0
 25 30  2  0  0  0  0
 25 26  1  0  0  0  0
 26 27  2  0  0  0  0
 27 28  1  0  0  0  0
 27 19  1  0  0  0  0
 29 32  1  0  0  0  0
 29 28  2  0  0  0  0
 30 29  1  0  0  0  0
 31 25  1  0  0  0  0
 33 26  1  0  0  0  0
 33 35  1  0  0  0  0
 34 33  1  0  0  0  0
 36  4  1  0  0  0  0
 37 38  1  0  0  0  0
 38 36  1  0  0  0  0
 38 39  2  0  0  0  0
 39 40  1  0  0  0  0
 41 39  1  0  0  0  0
 41 42  1  0  0  0  0
 42 43  1  0  0  0  0
 44 42  1  0  0  0  0
 45 47  1  0  0  0  0
 45 44  2  0  0  0  0
 46 45  1  0  0  0  0
 47 41  2  0  0  0  0
 48 37  2  0  0  0  0
 48 47  1  0  0  0  0
M  END
>  <minimizedAffinity>
-5.95480251

>  <minimizedRMSD>
1.1239419

$$$$
