
 OpenBabel03242514243D

 37 41  0  0  0  0  0  0  0  0999 V2000
   37.5160   26.0870   39.7040 Cl  0  0  0  0  0  0  0  0  0  0  0  0
   38.3760   25.7480   41.1900 C   0  0  0  0  0  0  0  0  0  0  0  0
   38.8820   24.4990   41.4060 C   0  0  0  0  0  0  0  0  0  0  0  0
   39.5750   24.2060   42.5890 C   0  0  0  0  0  0  0  0  0  0  0  0
   39.7080   25.2220   43.4900 C   0  0  0  0  0  0  0  0  0  0  0  0
   39.1900   26.4820   43.2570 C   0  0  0  0  0  0  0  0  0  0  0  0
   38.5240   26.7450   42.1060 C   0  0  0  0  0  0  0  0  0  0  0  0
   39.9450   23.1900   42.6840 H   0  0  0  0  0  0  0  0  0  0  0  0
   40.2500   24.9570   44.3920 H   0  0  0  0  0  0  0  0  0  0  0  0
   39.3290   27.2470   44.0100 H   0  0  0  0  0  0  0  0  0  0  0  0
   39.4400   22.3780   38.4460 C   0  0  0  0  0  0  0  0  0  0  0  0
   38.3700   21.4590   38.5370 C   0  0  0  0  0  0  0  0  0  0  0  0
   37.4820   21.5800   39.6050 C   0  0  0  0  0  0  0  0  0  0  0  0
   37.6900   22.5740   40.5020 N   0  0  0  0  0  0  0  0  0  0  0  0
   38.7080   23.4380   40.4000 C   0  0  0  0  0  0  0  0  0  0  0  0
   39.5750   23.3370   39.3770 N   0  0  0  0  0  0  0  0  0  0  0  0
   40.0870   22.2340   37.6060 H   0  0  0  0  0  0  0  0  0  0  0  0
   38.2590   20.6810   37.7820 H   0  0  0  0  0  0  0  0  0  0  0  0
   36.6530   20.8880   39.6980 H   0  0  0  0  0  0  0  0  0  0  0  0
   37.9660   28.0700   41.8320 C   0  0  0  0  0  0  0  0  0  0  0  0
   36.6650   28.4350   41.9300 N   0  0  0  0  0  0  0  0  0  0  0  0
   36.5750   29.7310   41.5930 C   0  0  0  0  0  0  0  0  0  0  0  0
   37.8200   30.1930   41.2810 N   0  0  0  0  0  0  0  0  0  0  0  0
   38.6480   29.1530   41.4360 N   0  0  0  0  0  0  0  0  0  0  0  0
   35.6610   30.3170   41.5730 H   0  0  0  0  0  0  0  0  0  0  0  0
   37.2250   32.2420   40.1330 C   0  0  0  0  0  3  0  0  0  0  0  0
   38.1530   31.5330   40.8680 C   0  0  0  0  0  0  0  0  0  0  0  0
   39.3900   32.0180   41.2390 C   0  0  0  0  0  0  0  0  0  0  0  0
   40.1070   31.4490   41.8150 H   0  0  0  0  0  0  0  0  0  0  0  0
   39.7500   33.3090   40.8580 C   0  0  0  0  0  0  0  0  0  0  0  0
   40.8220   34.1220   41.0140 N   0  0  0  0  0  0  0  0  0  0  0  0
   41.6810   33.8160   41.5460 H   0  0  0  0  0  0  0  0  0  0  0  0
   40.5790   35.2700   40.4130 N   0  0  0  0  0  0  0  0  0  0  0  0
   39.3690   35.2860   39.8410 C   0  0  0  0  0  0  0  0  0  0  0  0
   38.9920   36.1420   39.3020 H   0  0  0  0  0  0  0  0  0  0  0  0
   38.8270   34.0270   40.1230 C   0  0  0  0  0  0  0  0  0  0  0  0
   37.5790   33.5400   39.7460 C   0  0  0  0  0  3  0  0  0  0  0  0
  1  2  1  0  0  0  0
  2  3  2  0  0  0  0
  2  7  1  0  0  0  0
  3  4  1  0  0  0  0
  4  8  1  0  0  0  0
  4  5  2  0  0  0  0
  5  9  1  0  0  0  0
  6  5  1  0  0  0  0
  6 10  1  0  0  0  0
  7  6  2  0  0  0  0
 11 12  2  0  0  0  0
 11 16  1  0  0  0  0
 12 13  1  0  0  0  0
 13 19  1  0  0  0  0
 13 14  2  0  0  0  0
 15 14  1  0  0  0  0
 15  3  1  0  0  0  0
 16 15  2  0  0  0  0
 17 11  1  0  0  0  0
 18 12  1  0  0  0  0
 20 21  1  0  0  0  0
 20  7  1  0  0  0  0
 22 21  2  0  0  0  0
 23 24  1  0  0  0  0
 23 22  1  0  0  0  0
 24 20  2  0  0  0  0
 25 22  1  0  0  0  0
 26 27  1  0  0  0  0
 27 28  2  0  0  0  0
 27 23  1  0  0  0  0
 28 29  1  0  0  0  0
 30 31  1  0  0  0  0
 30 28  1  0  0  0  0
 31 32  1  0  0  0  0
 33 31  1  0  0  0  0
 34 36  1  0  0  0  0
 34 33  2  0  0  0  0
 35 34  1  0  0  0  0
 36 30  2  0  0  0  0
 37 36  1  0  0  0  0
 37 26  2  0  0  0  0
M  END
>  <minimizedAffinity>
-6.6070838

$$$$

 OpenBabel03242514243D

 37 41  0  0  0  0  0  0  0  0999 V2000
   37.7720   27.6020   39.4690 Cl  0  0  0  0  0  0  0  0  0  0  0  0
   37.3480   27.5050   41.1640 C   0  0  0  0  0  0  0  0  0  0  0  0
   37.1660   26.2830   41.7440 C   0  0  0  0  0  0  0  0  0  0  0  0
   36.8260   26.1820   43.1010 C   0  0  0  0  0  0  0  0  0  0  0  0
   36.6920   27.3530   43.7890 C   0  0  0  0  0  0  0  0  0  0  0  0
   36.8800   28.5830   43.1870 C   0  0  0  0  0  0  0  0  0  0  0  0
   37.2090   28.6590   41.8740 C   0  0  0  0  0  0  0  0  0  0  0  0
   36.6980   25.1750   43.4850 H   0  0  0  0  0  0  0  0  0  0  0  0
   36.4290   27.2350   44.8350 H   0  0  0  0  0  0  0  0  0  0  0  0
   36.7600   29.4770   43.7860 H   0  0  0  0  0  0  0  0  0  0  0  0
   36.3760   23.3980   39.5930 C   0  0  0  0  0  0  0  0  0  0  0  0
   37.6310   22.7560   39.4900 C   0  0  0  0  0  0  0  0  0  0  0  0
   38.7200   23.3200   40.1540 C   0  0  0  0  0  0  0  0  0  0  0  0
   38.5190   24.4550   40.8650 N   0  0  0  0  0  0  0  0  0  0  0  0
   37.3220   25.0500   40.9540 C   0  0  0  0  0  0  0  0  0  0  0  0
   36.2610   24.5220   40.3210 N   0  0  0  0  0  0  0  0  0  0  0  0
   35.5810   22.9190   39.0620 H   0  0  0  0  0  0  0  0  0  0  0  0
   37.7260   21.8450   38.9000 H   0  0  0  0  0  0  0  0  0  0  0  0
   39.6940   22.8480   40.0910 H   0  0  0  0  0  0  0  0  0  0  0  0
   37.4150   29.9470   41.2110 C   0  0  0  0  0  0  0  0  0  0  0  0
   36.4530   30.8130   40.8100 N   0  0  0  0  0  0  0  0  0  0  0  0
   37.0600   31.8700   40.2480 C   0  0  0  0  0  0  0  0  0  0  0  0
   38.4100   31.6780   40.2930 N   0  0  0  0  0  0  0  0  0  0  0  0
   38.5940   30.4930   40.8860 N   0  0  0  0  0  0  0  0  0  0  0  0
   36.5590   32.7370   39.8280 H   0  0  0  0  0  0  0  0  0  0  0  0
   39.6230   33.7690   40.4630 C   0  0  0  0  0  3  0  0  0  0  0  0
   39.4150   32.5820   39.7920 C   0  0  0  0  0  0  0  0  0  0  0  0
   40.1070   32.1920   38.6630 C   0  0  0  0  0  0  0  0  0  0  0  0
   39.9320   31.2580   38.1470 H   0  0  0  0  0  0  0  0  0  0  0  0
   41.0860   33.0390   38.1470 C   0  0  0  0  0  0  0  0  0  0  0  0
   41.9510   33.0270   37.1050 N   0  0  0  0  0  0  0  0  0  0  0  0
   41.9960   32.2200   36.4260 H   0  0  0  0  0  0  0  0  0  0  0  0
   42.6570   34.1410   37.1240 N   0  0  0  0  0  0  0  0  0  0  0  0
   42.3130   34.9320   38.1480 C   0  0  0  0  0  0  0  0  0  0  0  0
   42.7820   35.8870   38.3280 H   0  0  0  0  0  0  0  0  0  0  0  0
   41.3020   34.2290   38.8130 C   0  0  0  0  0  0  0  0  0  0  0  0
   40.6050   34.6250   39.9520 C   0  0  0  0  0  3  0  0  0  0  0  0
  1  2  1  0  0  0  0
  2  3  2  0  0  0  0
  2  7  1  0  0  0  0
  3  4  1  0  0  0  0
  4  8  1  0  0  0  0
  4  5  2  0  0  0  0
  5  9  1  0  0  0  0
  6 10  1  0  0  0  0
  6  5  1  0  0  0  0
  7  6  2  0  0  0  0
 11 16  1  0  0  0  0
 12 11  2  0  0  0  0
 12 13  1  0  0  0  0
 13 14  2  0  0  0  0
 14 15  1  0  0  0  0
 15  3  1  0  0  0  0
 16 15  2  0  0  0  0
 17 11  1  0  0  0  0
 18 12  1  0  0  0  0
 19 13  1  0  0  0  0
 20  7  1  0  0  0  0
 21 20  1  0  0  0  0
 22 23  1  0  0  0  0
 22 21  2  0  0  0  0
 23 24  1  0  0  0  0
 24 20  2  0  0  0  0
 25 22  1  0  0  0  0
 27 23  1  0  0  0  0
 27 26  2  0  0  0  0
 28 27  1  0  0  0  0
 29 28  1  0  0  0  0
 30 28  2  0  0  0  0
 30 36  1  0  0  0  0
 31 33  1  0  0  0  0
 31 30  1  0  0  0  0
 32 31  1  0  0  0  0
 33 34  2  0  0  0  0
 34 35  1  0  0  0  0
 34 36  1  0  0  0  0
 36 37  2  0  0  0  0
 37 26  1  0  0  0  0
M  END
>  <minimizedAffinity>
-6.52796412

$$$$

 OpenBabel03242514243D

 37 41  0  0  0  0  0  0  0  0999 V2000
   36.1890   26.8500   38.4370 Cl  0  0  0  0  0  0  0  0  0  0  0  0
   36.6160   26.1090   39.9640 C   0  0  0  0  0  0  0  0  0  0  0  0
   36.7300   24.7520   40.0450 C   0  0  0  0  0  0  0  0  0  0  0  0
   37.0710   24.1370   41.2580 C   0  0  0  0  0  0  0  0  0  0  0  0
   37.2770   24.9600   42.3270 C   0  0  0  0  0  0  0  0  0  0  0  0
   37.1580   26.3340   42.2290 C   0  0  0  0  0  0  0  0  0  0  0  0
   36.8270   26.9080   41.0460 C   0  0  0  0  0  0  0  0  0  0  0  0
   37.1410   23.0540   41.2390 H   0  0  0  0  0  0  0  0  0  0  0  0
   37.5390   24.4480   43.2470 H   0  0  0  0  0  0  0  0  0  0  0  0
   37.3340   26.9330   43.1120 H   0  0  0  0  0  0  0  0  0  0  0  0
   35.0130   22.7090   37.5040 C   0  0  0  0  0  0  0  0  0  0  0  0
   36.0790   22.3440   36.6510 C   0  0  0  0  0  0  0  0  0  0  0  0
   37.3600   22.8020   36.9580 C   0  0  0  0  0  0  0  0  0  0  0  0
   37.5170   23.5750   38.0610 N   0  0  0  0  0  0  0  0  0  0  0  0
   36.4960   23.9100   38.8600 C   0  0  0  0  0  0  0  0  0  0  0  0
   35.2540   23.4780   38.5800 N   0  0  0  0  0  0  0  0  0  0  0  0
   34.0560   22.3270   37.2170 H   0  0  0  0  0  0  0  0  0  0  0  0
   35.8860   21.7210   35.7790 H   0  0  0  0  0  0  0  0  0  0  0  0
   38.1950   22.5380   36.3200 H   0  0  0  0  0  0  0  0  0  0  0  0
   36.6950   28.3600   40.9130 C   0  0  0  0  0  0  0  0  0  0  0  0
   35.5410   29.0690   40.9070 N   0  0  0  0  0  0  0  0  0  0  0  0
   35.8560   30.3660   40.7640 C   0  0  0  0  0  0  0  0  0  0  0  0
   37.2120   30.4830   40.6790 N   0  0  0  0  0  0  0  0  0  0  0  0
   37.6960   29.2390   40.7730 N   0  0  0  0  0  0  0  0  0  0  0  0
   35.1470   31.1870   40.7230 H   0  0  0  0  0  0  0  0  0  0  0  0
   37.3100   32.7960   39.9640 C   0  0  0  0  0  3  0  0  0  0  0  0
   37.9520   31.7090   40.5190 C   0  0  0  0  0  0  0  0  0  0  0  0
   39.2680   31.7100   40.9370 C   0  0  0  0  0  0  0  0  0  0  0  0
   39.7590   30.8490   41.3700 H   0  0  0  0  0  0  0  0  0  0  0  0
   40.0180   32.8760   40.7980 C   0  0  0  0  0  0  0  0  0  0  0  0
   41.2830   33.2740   41.0720 N   0  0  0  0  0  0  0  0  0  0  0  0
   41.9910   32.6230   41.5070 H   0  0  0  0  0  0  0  0  0  0  0  0
   41.4220   34.5340   40.7090 N   0  0  0  0  0  0  0  0  0  0  0  0
   40.2930   35.0310   40.1900 C   0  0  0  0  0  0  0  0  0  0  0  0
   40.2140   36.0480   39.8370 H   0  0  0  0  0  0  0  0  0  0  0  0
   39.3830   33.9700   40.2440 C   0  0  0  0  0  0  0  0  0  0  0  0
   38.0560   33.9720   39.8210 C   0  0  0  0  0  3  0  0  0  0  0  0
  1  2  1  0  0  0  0
  2  3  2  0  0  0  0
  2  7  1  0  0  0  0
  3  4  1  0  0  0  0
  4  5  2  0  0  0  0
  5  9  1  0  0  0  0
  6  5  1  0  0  0  0
  6 10  1  0  0  0  0
  7  6  2  0  0  0  0
  8  4  1  0  0  0  0
 11 16  1  0  0  0  0
 12 13  1  0  0  0  0
 12 11  2  0  0  0  0
 13 14  2  0  0  0  0
 14 15  1  0  0  0  0
 15  3  1  0  0  0  0
 16 15  2  0  0  0  0
 17 11  1  0  0  0  0
 18 12  1  0  0  0  0
 19 13  1  0  0  0  0
 20  7  1  0  0  0  0
 21 20  1  0  0  0  0
 22 21  2  0  0  0  0
 23 22  1  0  0  0  0
 23 24  1  0  0  0  0
 24 20  2  0  0  0  0
 25 22  1  0  0  0  0
 26 27  1  0  0  0  0
 27 23  1  0  0  0  0
 27 28  2  0  0  0  0
 28 29  1  0  0  0  0
 30 28  1  0  0  0  0
 30 31  1  0  0  0  0
 31 32  1  0  0  0  0
 33 31  1  0  0  0  0
 34 36  1  0  0  0  0
 34 33  2  0  0  0  0
 35 34  1  0  0  0  0
 36 30  2  0  0  0  0
 37 26  2  0  0  0  0
 37 36  1  0  0  0  0
M  END
>  <minimizedAffinity>
-6.43404913

$$$$

 OpenBabel03242514243D

 37 41  0  0  0  0  0  0  0  0999 V2000
   41.6650   30.9130   41.5360 Cl  0  0  0  0  0  0  0  0  0  0  0  0
   40.4620   32.0610   40.9930 C   0  0  0  0  0  0  0  0  0  0  0  0
   40.8590   33.2670   40.4920 C   0  0  0  0  0  0  0  0  0  0  0  0
   39.9120   34.2020   40.0500 C   0  0  0  0  0  0  0  0  0  0  0  0
   38.6000   33.8400   40.1490 C   0  0  0  0  0  0  0  0  0  0  0  0
   38.2130   32.6140   40.6580 C   0  0  0  0  0  0  0  0  0  0  0  0
   39.1450   31.7250   41.0800 C   0  0  0  0  0  0  0  0  0  0  0  0
   40.3090   35.1370   39.6670 H   0  0  0  0  0  0  0  0  0  0  0  0
   37.8970   34.5880   39.7970 H   0  0  0  0  0  0  0  0  0  0  0  0
   37.1570   32.3860   40.7110 H   0  0  0  0  0  0  0  0  0  0  0  0
   44.1990   34.5350   41.3940 C   0  0  0  0  0  0  0  0  0  0  0  0
   44.9510   34.2320   40.2360 C   0  0  0  0  0  0  0  0  0  0  0  0
   44.3050   33.6020   39.1730 C   0  0  0  0  0  0  0  0  0  0  0  0
   42.9880   33.3120   39.3050 N   0  0  0  0  0  0  0  0  0  0  0  0
   42.2890   33.6070   40.4080 C   0  0  0  0  0  0  0  0  0  0  0  0
   42.8950   34.2140   41.4440 N   0  0  0  0  0  0  0  0  0  0  0  0
   44.7490   35.0180   42.1740 H   0  0  0  0  0  0  0  0  0  0  0  0
   46.0080   34.4920   40.1940 H   0  0  0  0  0  0  0  0  0  0  0  0
   44.8580   33.3580   38.2730 H   0  0  0  0  0  0  0  0  0  0  0  0
   38.7650   30.4200   41.6230 C   0  0  0  0  0  0  0  0  0  0  0  0
   38.8220   30.0360   42.9200 N   0  0  0  0  0  0  0  0  0  0  0  0
   38.3860   28.7690   42.9950 C   0  0  0  0  0  0  0  0  0  0  0  0
   38.0490   28.3450   41.7420 N   0  0  0  0  0  0  0  0  0  0  0  0
   38.2930   29.3770   40.9260 N   0  0  0  0  0  0  0  0  0  0  0  0
   38.3120   28.1780   43.9020 H   0  0  0  0  0  0  0  0  0  0  0  0
   37.5410   26.0570   42.3560 C   0  0  0  0  0  3  0  0  0  0  0  0
   37.5380   27.0440   41.3930 C   0  0  0  0  0  0  0  0  0  0  0  0
   37.0760   26.8730   40.1030 C   0  0  0  0  0  0  0  0  0  0  0  0
   37.0810   27.6570   39.3580 H   0  0  0  0  0  0  0  0  0  0  0  0
   36.5760   25.6290   39.7250 C   0  0  0  0  0  0  0  0  0  0  0  0
   36.0500   25.0750   38.6070 N   0  0  0  0  0  0  0  0  0  0  0  0
   35.9350   25.6250   37.7130 H   0  0  0  0  0  0  0  0  0  0  0  0
   35.7440   23.8170   38.8570 N   0  0  0  0  0  0  0  0  0  0  0  0
   36.0390   23.4740   40.1170 C   0  0  0  0  0  0  0  0  0  0  0  0
   35.8580   22.4830   40.5070 H   0  0  0  0  0  0  0  0  0  0  0  0
   36.5740   24.6360   40.6840 C   0  0  0  0  0  0  0  0  0  0  0  0
   37.0400   24.8030   41.9850 C   0  0  0  0  0  3  0  0  0  0  0  0
  2  7  1  0  0  0  0
  2  1  1  0  0  0  0
  3  2  2  0  0  0  0
  4  5  2  0  0  0  0
  4  3  1  0  0  0  0
  5  6  1  0  0  0  0
  6 10  1  0  0  0  0
  6  7  2  0  0  0  0
  7 20  1  0  0  0  0
  8  4  1  0  0  0  0
  9  5  1  0  0  0  0
 11 16  1  0  0  0  0
 11 17  1  0  0  0  0
 12 11  2  0  0  0  0
 13 14  2  0  0  0  0
 13 12  1  0  0  0  0
 14 15  1  0  0  0  0
 15  3  1  0  0  0  0
 15 16  2  0  0  0  0
 18 12  1  0  0  0  0
 19 13  1  0  0  0  0
 20 21  1  0  0  0  0
 21 22  2  0  0  0  0
 22 25  1  0  0  0  0
 23 22  1  0  0  0  0
 24 20  2  0  0  0  0
 24 23  1  0  0  0  0
 27 23  1  0  0  0  0
 27 26  2  0  0  0  0
 28 27  1  0  0  0  0
 29 28  1  0  0  0  0
 30 28  2  0  0  0  0
 30 36  1  0  0  0  0
 31 33  1  0  0  0  0
 31 30  1  0  0  0  0
 32 31  1  0  0  0  0
 33 34  2  0  0  0  0
 34 35  1  0  0  0  0
 34 36  1  0  0  0  0
 36 37  2  0  0  0  0
 37 26  1  0  0  0  0
M  END
>  <minimizedAffinity>
-6.27048969

$$$$

 OpenBabel03242514243D

 37 41  0  0  0  0  0  0  0  0999 V2000
   41.8560   31.1400   41.5800 Cl  0  0  0  0  0  0  0  0  0  0  0  0
   40.6720   32.3160   41.0520 C   0  0  0  0  0  0  0  0  0  0  0  0
   41.0870   33.5470   40.6330 C   0  0  0  0  0  0  0  0  0  0  0  0
   40.1560   34.5050   40.2050 C   0  0  0  0  0  0  0  0  0  0  0  0
   38.8420   34.1380   40.2330 C   0  0  0  0  0  0  0  0  0  0  0  0
   38.4380   32.8870   40.6600 C   0  0  0  0  0  0  0  0  0  0  0  0
   39.3540   31.9750   41.0690 C   0  0  0  0  0  0  0  0  0  0  0  0
   40.5660   35.4590   39.8880 H   0  0  0  0  0  0  0  0  0  0  0  0
   38.1520   34.9040   39.8950 H   0  0  0  0  0  0  0  0  0  0  0  0
   37.3810   32.6550   40.6580 H   0  0  0  0  0  0  0  0  0  0  0  0
   44.5770   33.9130   39.5090 C   0  0  0  0  0  0  0  0  0  0  0  0
   45.1800   34.5380   40.6240 C   0  0  0  0  0  0  0  0  0  0  0  0
   44.3870   34.8230   41.7350 C   0  0  0  0  0  0  0  0  0  0  0  0
   43.0750   34.4840   41.6880 N   0  0  0  0  0  0  0  0  0  0  0  0
   42.5190   33.8910   40.6240 C   0  0  0  0  0  0  0  0  0  0  0  0
   43.2680   33.6090   39.5440 N   0  0  0  0  0  0  0  0  0  0  0  0
   45.2360   33.7210   38.6890 H   0  0  0  0  0  0  0  0  0  0  0  0
   46.2410   34.7840   40.5980 H   0  0  0  0  0  0  0  0  0  0  0  0
   44.8240   35.3020   42.6020 H   0  0  0  0  0  0  0  0  0  0  0  0
   38.9560   30.6430   41.5250 C   0  0  0  0  0  0  0  0  0  0  0  0
   38.8700   30.2210   42.8090 N   0  0  0  0  0  0  0  0  0  0  0  0
   38.4700   28.9390   42.7950 C   0  0  0  0  0  0  0  0  0  0  0  0
   38.3010   28.5450   41.5000 N   0  0  0  0  0  0  0  0  0  0  0  0
   38.6070   29.6100   40.7480 N   0  0  0  0  0  0  0  0  0  0  0  0
   38.3080   28.3180   43.6700 H   0  0  0  0  0  0  0  0  0  0  0  0
   36.9280   27.1620   40.0600 C   0  0  0  0  0  3  0  0  0  0  0  0
   37.8800   27.2410   41.0550 C   0  0  0  0  0  0  0  0  0  0  0  0
   38.4660   26.1480   41.6620 C   0  0  0  0  0  0  0  0  0  0  0  0
   39.2110   26.2260   42.4420 H   0  0  0  0  0  0  0  0  0  0  0  0
   38.0850   24.8690   41.2620 C   0  0  0  0  0  0  0  0  0  0  0  0
   38.4060   23.5950   41.5910 N   0  0  0  0  0  0  0  0  0  0  0  0
   39.1200   23.3750   42.3360 H   0  0  0  0  0  0  0  0  0  0  0  0
   37.6950   22.7710   40.8460 N   0  0  0  0  0  0  0  0  0  0  0  0
   36.8870   23.4280   40.0050 C   0  0  0  0  0  0  0  0  0  0  0  0
   36.2290   22.9220   39.3160 H   0  0  0  0  0  0  0  0  0  0  0  0
   37.1330   24.7810   40.2660 C   0  0  0  0  0  0  0  0  0  0  0  0
   36.5390   25.8810   39.6510 C   0  0  0  0  0  3  0  0  0  0  0  0
  2  7  1  0  0  0  0
  2  1  1  0  0  0  0
  3  2  2  0  0  0  0
  4  5  2  0  0  0  0
  4  3  1  0  0  0  0
  5  6  1  0  0  0  0
  6  7  2  0  0  0  0
  7 20  1  0  0  0  0
  8  4  1  0  0  0  0
  9  5  1  0  0  0  0
 10  6  1  0  0  0  0
 11 16  2  0  0  0  0
 11 12  1  0  0  0  0
 12 13  2  0  0  0  0
 13 19  1  0  0  0  0
 14 13  1  0  0  0  0
 15  3  1  0  0  0  0
 15 14  2  0  0  0  0
 16 15  1  0  0  0  0
 17 11  1  0  0  0  0
 18 12  1  0  0  0  0
 20 21  1  0  0  0  0
 22 21  2  0  0  0  0
 22 25  1  0  0  0  0
 23 22  1  0  0  0  0
 24 23  1  0  0  0  0
 24 20  2  0  0  0  0
 26 27  1  0  0  0  0
 27 23  1  0  0  0  0
 27 28  2  0  0  0  0
 28 29  1  0  0  0  0
 30 31  1  0  0  0  0
 30 28  1  0  0  0  0
 31 32  1  0  0  0  0
 33 31  1  0  0  0  0
 34 36  1  0  0  0  0
 34 33  2  0  0  0  0
 35 34  1  0  0  0  0
 36 30  2  0  0  0  0
 37 26  2  0  0  0  0
 37 36  1  0  0  0  0
M  END
>  <minimizedAffinity>
-6.20244694

$$$$

 OpenBabel03242514243D

 37 41  0  0  0  0  0  0  0  0999 V2000
   39.4100   28.0800   39.7970 Cl  0  0  0  0  0  0  0  0  0  0  0  0
   37.8730   28.8930   39.9940 C   0  0  0  0  0  0  0  0  0  0  0  0
   36.7800   28.1790   40.3920 C   0  0  0  0  0  0  0  0  0  0  0  0
   35.5390   28.8080   40.5570 C   0  0  0  0  0  0  0  0  0  0  0  0
   35.4920   30.1480   40.3010 C   0  0  0  0  0  0  0  0  0  0  0  0
   36.6080   30.8580   39.8990 C   0  0  0  0  0  0  0  0  0  0  0  0
   37.7990   30.2300   39.7460 C   0  0  0  0  0  0  0  0  0  0  0  0
   34.7200   28.1710   40.8740 H   0  0  0  0  0  0  0  0  0  0  0  0
   34.5150   30.6000   40.4400 H   0  0  0  0  0  0  0  0  0  0  0  0
   36.5060   31.9190   39.7120 H   0  0  0  0  0  0  0  0  0  0  0  0
   36.7230   24.5300   39.8810 C   0  0  0  0  0  0  0  0  0  0  0  0
   37.0900   24.0490   41.1580 C   0  0  0  0  0  0  0  0  0  0  0  0
   37.3500   24.9760   42.1670 C   0  0  0  0  0  0  0  0  0  0  0  0
   37.2370   26.2940   41.8690 N   0  0  0  0  0  0  0  0  0  0  0  0
   36.8870   26.7330   40.6540 C   0  0  0  0  0  0  0  0  0  0  0  0
   36.6330   25.8540   39.6690 N   0  0  0  0  0  0  0  0  0  0  0  0
   36.5370   23.7710   39.1510 H   0  0  0  0  0  0  0  0  0  0  0  0
   37.1630   22.9760   41.3320 H   0  0  0  0  0  0  0  0  0  0  0  0
   37.6330   24.6340   43.1550 H   0  0  0  0  0  0  0  0  0  0  0  0
   38.9970   30.9560   39.3230 C   0  0  0  0  0  0  0  0  0  0  0  0
   39.3940   31.1870   38.0490 N   0  0  0  0  0  0  0  0  0  0  0  0
   40.5390   31.8860   38.0940 C   0  0  0  0  0  0  0  0  0  0  0  0
   40.8720   32.1000   39.4000 N   0  0  0  0  0  0  0  0  0  0  0  0
   39.9100   31.5180   40.1260 N   0  0  0  0  0  0  0  0  0  0  0  0
   41.1070   32.2250   37.2340 H   0  0  0  0  0  0  0  0  0  0  0  0
   43.1650   32.8190   39.0910 C   0  0  0  0  0  3  0  0  0  0  0  0
   42.0320   32.8090   39.8770 C   0  0  0  0  0  0  0  0  0  0  0  0
   41.9270   33.4370   41.1020 C   0  0  0  0  0  0  0  0  0  0  0  0
   41.0310   33.4210   41.7070 H   0  0  0  0  0  0  0  0  0  0  0  0
   43.0270   34.1330   41.5990 C   0  0  0  0  0  0  0  0  0  0  0  0
   43.3210   34.8530   42.7080 N   0  0  0  0  0  0  0  0  0  0  0  0
   42.6160   35.0010   43.4790 H   0  0  0  0  0  0  0  0  0  0  0  0
   44.5630   35.2850   42.6200 N   0  0  0  0  0  0  0  0  0  0  0  0
   45.1490   34.8900   41.4820 C   0  0  0  0  0  0  0  0  0  0  0  0
   46.1670   35.1480   41.2330 H   0  0  0  0  0  0  0  0  0  0  0  0
   44.1660   34.1480   40.8180 C   0  0  0  0  0  0  0  0  0  0  0  0
   44.2750   33.5150   39.5830 C   0  0  0  0  0  3  0  0  0  0  0  0
  1  2  1  0  0  0  0
  2  3  1  0  0  0  0
  3  4  2  0  0  0  0
  3 15  1  0  0  0  0
  4  8  1  0  0  0  0
  5  9  1  0  0  0  0
  5  4  1  0  0  0  0
  6  5  2  0  0  0  0
  7  6  1  0  0  0  0
  7  2  2  0  0  0  0
 10  6  1  0  0  0  0
 11 12  1  0  0  0  0
 12 18  1  0  0  0  0
 12 13  2  0  0  0  0
 13 19  1  0  0  0  0
 14 13  1  0  0  0  0
 15 14  2  0  0  0  0
 16 11  2  0  0  0  0
 16 15  1  0  0  0  0
 17 11  1  0  0  0  0
 20  7  1  0  0  0  0
 20 24  2  0  0  0  0
 21 22  2  0  0  0  0
 21 20  1  0  0  0  0
 22 23  1  0  0  0  0
 23 27  1  0  0  0  0
 23 24  1  0  0  0  0
 25 22  1  0  0  0  0
 26 37  2  0  0  0  0
 26 27  1  0  0  0  0
 27 28  2  0  0  0  0
 28 30  1  0  0  0  0
 28 29  1  0  0  0  0
 30 31  1  0  0  0  0
 31 32  1  0  0  0  0
 33 31  1  0  0  0  0
 34 33  2  0  0  0  0
 35 34  1  0  0  0  0
 36 34  1  0  0  0  0
 36 30  2  0  0  0  0
 37 36  1  0  0  0  0
M  END
>  <minimizedAffinity>
-6.07472706

$$$$

 OpenBabel03242514243D

 37 41  0  0  0  0  0  0  0  0999 V2000
   37.0880   27.0340   38.5740 Cl  0  0  0  0  0  0  0  0  0  0  0  0
   37.0360   26.6550   40.2820 C   0  0  0  0  0  0  0  0  0  0  0  0
   36.9120   25.3550   40.6800 C   0  0  0  0  0  0  0  0  0  0  0  0
   36.8680   25.0280   42.0420 C   0  0  0  0  0  0  0  0  0  0  0  0
   36.9550   26.0650   42.9250 C   0  0  0  0  0  0  0  0  0  0  0  0
   37.0800   27.3770   42.5070 C   0  0  0  0  0  0  0  0  0  0  0  0
   37.1210   27.6710   41.1840 C   0  0  0  0  0  0  0  0  0  0  0  0
   36.7680   23.9730   42.2750 H   0  0  0  0  0  0  0  0  0  0  0  0
   36.9180   25.7730   43.9700 H   0  0  0  0  0  0  0  0  0  0  0  0
   37.1440   28.1550   43.2560 H   0  0  0  0  0  0  0  0  0  0  0  0
   35.5080   22.8860   38.3330 C   0  0  0  0  0  0  0  0  0  0  0  0
   36.6730   22.2630   37.8310 C   0  0  0  0  0  0  0  0  0  0  0  0
   37.9120   22.6970   38.3010 C   0  0  0  0  0  0  0  0  0  0  0  0
   37.9350   23.6950   39.2170 N   0  0  0  0  0  0  0  0  0  0  0  0
   36.8220   24.2740   39.6840 C   0  0  0  0  0  0  0  0  0  0  0  0
   35.6190   23.8690   39.2420 N   0  0  0  0  0  0  0  0  0  0  0  0
   34.5890   22.5090   37.9350 H   0  0  0  0  0  0  0  0  0  0  0  0
   36.5850   21.4640   37.0940 H   0  0  0  0  0  0  0  0  0  0  0  0
   38.8210   22.2360   37.9320 H   0  0  0  0  0  0  0  0  0  0  0  0
   37.2530   29.0500   40.7130 C   0  0  0  0  0  0  0  0  0  0  0  0
   36.2440   29.9020   40.4100 N   0  0  0  0  0  0  0  0  0  0  0  0
   36.7890   31.0640   40.0170 C   0  0  0  0  0  0  0  0  0  0  0  0
   38.1480   30.9520   40.0710 N   0  0  0  0  0  0  0  0  0  0  0  0
   38.4000   29.7090   40.4990 N   0  0  0  0  0  0  0  0  0  0  0  0
   36.2400   31.9470   39.7080 H   0  0  0  0  0  0  0  0  0  0  0  0
   39.2320   33.0610   40.5720 C   0  0  0  0  0  3  0  0  0  0  0  0
   39.1000   31.9780   39.7280 C   0  0  0  0  0  0  0  0  0  0  0  0
   39.8220   31.8050   38.5640 C   0  0  0  0  0  0  0  0  0  0  0  0
   39.7080   30.9500   37.9110 H   0  0  0  0  0  0  0  0  0  0  0  0
   40.7520   32.7750   38.1970 C   0  0  0  0  0  0  0  0  0  0  0  0
   41.6240   32.9710   37.1790 N   0  0  0  0  0  0  0  0  0  0  0  0
   41.7220   32.2800   36.3880 H   0  0  0  0  0  0  0  0  0  0  0  0
   42.2610   34.1090   37.3770 N   0  0  0  0  0  0  0  0  0  0  0  0
   41.8630   34.7150   38.5020 C   0  0  0  0  0  0  0  0  0  0  0  0
   42.2720   35.6580   38.8310 H   0  0  0  0  0  0  0  0  0  0  0  0
   40.8910   33.8620   39.0370 C   0  0  0  0  0  0  0  0  0  0  0  0
   40.1640   34.0410   40.2110 C   0  0  0  0  0  3  0  0  0  0  0  0
  1  2  1  0  0  0  0
  2  3  2  0  0  0  0
  2  7  1  0  0  0  0
  3  4  1  0  0  0  0
  4  8  1  0  0  0  0
  4  5  2  0  0  0  0
  5  9  1  0  0  0  0
  6  5  1  0  0  0  0
  6 10  1  0  0  0  0
  7  6  2  0  0  0  0
 11 16  1  0  0  0  0
 12 13  1  0  0  0  0
 12 11  2  0  0  0  0
 13 14  2  0  0  0  0
 14 15  1  0  0  0  0
 15  3  1  0  0  0  0
 16 15  2  0  0  0  0
 17 11  1  0  0  0  0
 18 12  1  0  0  0  0
 19 13  1  0  0  0  0
 20  7  1  0  0  0  0
 21 20  1  0  0  0  0
 22 23  1  0  0  0  0
 22 21  2  0  0  0  0
 23 24  1  0  0  0  0
 24 20  2  0  0  0  0
 25 22  1  0  0  0  0
 27 23  1  0  0  0  0
 27 26  2  0  0  0  0
 28 27  1  0  0  0  0
 29 28  1  0  0  0  0
 30 28  2  0  0  0  0
 30 36  1  0  0  0  0
 31 33  1  0  0  0  0
 31 30  1  0  0  0  0
 32 31  1  0  0  0  0
 33 34  2  0  0  0  0
 34 35  1  0  0  0  0
 34 36  1  0  0  0  0
 36 37  2  0  0  0  0
 37 26  1  0  0  0  0
M  END
>  <minimizedAffinity>
-6.05246973

$$$$

 OpenBabel03242514243D

 37 41  0  0  0  0  0  0  0  0999 V2000
   35.9340   29.3890   39.1380 Cl  0  0  0  0  0  0  0  0  0  0  0  0
   35.9240   27.6500   38.9360 C   0  0  0  0  0  0  0  0  0  0  0  0
   36.5770   26.8640   39.8400 C   0  0  0  0  0  0  0  0  0  0  0  0
   36.5820   25.4690   39.6990 C   0  0  0  0  0  0  0  0  0  0  0  0
   35.9100   24.9590   38.6270 C   0  0  0  0  0  0  0  0  0  0  0  0
   35.2530   25.7680   37.7190 C   0  0  0  0  0  0  0  0  0  0  0  0
   35.2600   27.1150   37.8750 C   0  0  0  0  0  0  0  0  0  0  0  0
   37.1250   24.9160   40.4590 H   0  0  0  0  0  0  0  0  0  0  0  0
   35.9360   23.8760   38.5510 H   0  0  0  0  0  0  0  0  0  0  0  0
   34.7370   25.3040   36.8890 H   0  0  0  0  0  0  0  0  0  0  0  0
   39.2480   28.3830   41.8740 C   0  0  0  0  0  0  0  0  0  0  0  0
   38.5950   28.5890   43.1100 C   0  0  0  0  0  0  0  0  0  0  0  0
   37.2590   28.2080   43.2250 C   0  0  0  0  0  0  0  0  0  0  0  0
   36.6540   27.6580   42.1440 N   0  0  0  0  0  0  0  0  0  0  0  0
   37.2880   27.4680   40.9800 C   0  0  0  0  0  0  0  0  0  0  0  0
   38.5760   27.8290   40.8500 N   0  0  0  0  0  0  0  0  0  0  0  0
   40.2710   28.6950   41.8470 H   0  0  0  0  0  0  0  0  0  0  0  0
   39.1390   29.0380   43.9410 H   0  0  0  0  0  0  0  0  0  0  0  0
   36.7350   28.3550   44.1620 H   0  0  0  0  0  0  0  0  0  0  0  0
   34.5720   27.9970   36.9300 C   0  0  0  0  0  0  0  0  0  0  0  0
   34.9860   28.3250   35.6830 N   0  0  0  0  0  0  0  0  0  0  0  0
   34.0740   29.1530   35.1510 C   0  0  0  0  0  0  0  0  0  0  0  0
   33.0770   29.3530   36.0610 N   0  0  0  0  0  0  0  0  0  0  0  0
   33.4120   28.6330   37.1390 N   0  0  0  0  0  0  0  0  0  0  0  0
   34.1200   29.5920   34.1600 H   0  0  0  0  0  0  0  0  0  0  0  0
   31.0490   30.3430   36.9430 C   0  0  0  0  0  3  0  0  0  0  0  0
   31.9100   30.1790   35.8790 C   0  0  0  0  0  0  0  0  0  0  0  0
   31.7340   30.7550   34.6370 C   0  0  0  0  0  0  0  0  0  0  0  0
   32.4190   30.6170   33.8110 H   0  0  0  0  0  0  0  0  0  0  0  0
   30.6170   31.5590   34.4190 C   0  0  0  0  0  0  0  0  0  0  0  0
   30.1030   32.2760   33.3920 N   0  0  0  0  0  0  0  0  0  0  0  0
   30.5760   32.3190   32.4490 H   0  0  0  0  0  0  0  0  0  0  0  0
   28.9860   32.8530   33.7910 N   0  0  0  0  0  0  0  0  0  0  0  0
   28.7030   32.5620   35.0670 C   0  0  0  0  0  0  0  0  0  0  0  0
   27.8280   32.9430   35.5700 H   0  0  0  0  0  0  0  0  0  0  0  0
   29.7500   31.7300   35.4790 C   0  0  0  0  0  0  0  0  0  0  0  0
   29.9240   31.1500   36.7330 C   0  0  0  0  0  3  0  0  0  0  0  0
  2  1  1  0  0  0  0
  2  3  1  0  0  0  0
  3 15  1  0  0  0  0
  4  3  2  0  0  0  0
  4  8  1  0  0  0  0
  5  4  1  0  0  0  0
  6  7  1  0  0  0  0
  6  5  2  0  0  0  0
  7  2  2  0  0  0  0
  9  5  1  0  0  0  0
 10  6  1  0  0  0  0
 11 12  1  0  0  0  0
 12 13  2  0  0  0  0
 12 18  1  0  0  0  0
 13 19  1  0  0  0  0
 14 13  1  0  0  0  0
 15 14  2  0  0  0  0
 16 15  1  0  0  0  0
 16 11  2  0  0  0  0
 17 11  1  0  0  0  0
 20 24  2  0  0  0  0
 20  7  1  0  0  0  0
 21 20  1  0  0  0  0
 22 21  2  0  0  0  0
 22 23  1  0  0  0  0
 23 24  1  0  0  0  0
 25 22  1  0  0  0  0
 27 23  1  0  0  0  0
 27 26  2  0  0  0  0
 28 27  1  0  0  0  0
 29 28  1  0  0  0  0
 30 28  2  0  0  0  0
 30 36  1  0  0  0  0
 31 33  1  0  0  0  0
 31 30  1  0  0  0  0
 32 31  1  0  0  0  0
 33 34  2  0  0  0  0
 34 36  1  0  0  0  0
 34 35  1  0  0  0  0
 36 37  2  0  0  0  0
 37 26  1  0  0  0  0
M  END
>  <minimizedAffinity>
-6.03370619

$$$$

 OpenBabel03242514243D

 37 41  0  0  0  0  0  0  0  0999 V2000
   40.4680   31.3110   38.9280 Cl  0  0  0  0  0  0  0  0  0  0  0  0
   39.8690   32.8710   39.4500 C   0  0  0  0  0  0  0  0  0  0  0  0
   40.7420   33.9080   39.6090 C   0  0  0  0  0  0  0  0  0  0  0  0
   40.2850   35.1660   40.0260 C   0  0  0  0  0  0  0  0  0  0  0  0
   38.9450   35.2860   40.2570 C   0  0  0  0  0  0  0  0  0  0  0  0
   38.0730   34.2260   40.0920 C   0  0  0  0  0  0  0  0  0  0  0  0
   38.5360   33.0170   39.6870 C   0  0  0  0  0  0  0  0  0  0  0  0
   41.0410   35.9370   40.1290 H   0  0  0  0  0  0  0  0  0  0  0  0
   38.6290   36.2740   40.5780 H   0  0  0  0  0  0  0  0  0  0  0  0
   37.0210   34.3840   40.2910 H   0  0  0  0  0  0  0  0  0  0  0  0
   44.3180   33.1960   40.1360 C   0  0  0  0  0  0  0  0  0  0  0  0
   44.8490   33.3830   38.8400 C   0  0  0  0  0  0  0  0  0  0  0  0
   43.9780   33.7460   37.8130 C   0  0  0  0  0  0  0  0  0  0  0  0
   42.6660   33.9020   38.1120 N   0  0  0  0  0  0  0  0  0  0  0  0
   42.1790   33.7230   39.3470 C   0  0  0  0  0  0  0  0  0  0  0  0
   43.0030   33.3720   40.3490 N   0  0  0  0  0  0  0  0  0  0  0  0
   45.0350   32.9180   40.8800 H   0  0  0  0  0  0  0  0  0  0  0  0
   45.9150   33.2410   38.6660 H   0  0  0  0  0  0  0  0  0  0  0  0
   44.3590   33.8950   36.8100 H   0  0  0  0  0  0  0  0  0  0  0  0
   37.6370   31.8780   39.5020 C   0  0  0  0  0  0  0  0  0  0  0  0
   37.0320   31.1600   40.4780 N   0  0  0  0  0  0  0  0  0  0  0  0
   36.2940   30.2050   39.8890 C   0  0  0  0  0  0  0  0  0  0  0  0
   36.4290   30.3170   38.5360 N   0  0  0  0  0  0  0  0  0  0  0  0
   37.2570   31.3480   38.3320 N   0  0  0  0  0  0  0  0  0  0  0  0
   35.6880   29.4660   40.4050 H   0  0  0  0  0  0  0  0  0  0  0  0
   34.6040   28.8710   37.8650 C   0  0  0  0  0  3  0  0  0  0  0  0
   35.7990   29.4800   37.5460 C   0  0  0  0  0  0  0  0  0  0  0  0
   36.4440   29.3440   36.3330 C   0  0  0  0  0  0  0  0  0  0  0  0
   37.3820   29.8280   36.0970 H   0  0  0  0  0  0  0  0  0  0  0  0
   35.8690   28.5420   35.3500 C   0  0  0  0  0  0  0  0  0  0  0  0
   36.1680   28.1660   34.0830 N   0  0  0  0  0  0  0  0  0  0  0  0
   37.0420   28.4980   33.5950 H   0  0  0  0  0  0  0  0  0  0  0  0
   35.2150   27.3690   33.6390 N   0  0  0  0  0  0  0  0  0  0  0  0
   34.2590   27.1760   34.5560 C   0  0  0  0  0  0  0  0  0  0  0  0
   33.3970   26.5530   34.3740 H   0  0  0  0  0  0  0  0  0  0  0  0
   34.6710   27.9290   35.6610 C   0  0  0  0  0  0  0  0  0  0  0  0
   34.0190   28.0630   36.8830 C   0  0  0  0  0  3  0  0  0  0  0  0
  1  2  1  0  0  0  0
  2  3  2  0  0  0  0
  2  7  1  0  0  0  0
  3  4  1  0  0  0  0
  4  8  1  0  0  0  0
  4  5  2  0  0  0  0
  5  9  1  0  0  0  0
  6  5  1  0  0  0  0
  6 10  1  0  0  0  0
  7  6  2  0  0  0  0
 11 16  1  0  0  0  0
 11 17  1  0  0  0  0
 12 11  2  0  0  0  0
 13 14  2  0  0  0  0
 13 12  1  0  0  0  0
 14 15  1  0  0  0  0
 15  3  1  0  0  0  0
 15 16  2  0  0  0  0
 18 12  1  0  0  0  0
 19 13  1  0  0  0  0
 20  7  1  0  0  0  0
 20 21  1  0  0  0  0
 22 25  1  0  0  0  0
 22 21  2  0  0  0  0
 23 22  1  0  0  0  0
 24 23  1  0  0  0  0
 24 20  2  0  0  0  0
 27 26  1  0  0  0  0
 27 23  1  0  0  0  0
 28 27  2  0  0  0  0
 29 28  1  0  0  0  0
 30 36  2  0  0  0  0
 30 28  1  0  0  0  0
 31 30  1  0  0  0  0
 32 31  1  0  0  0  0
 33 31  1  0  0  0  0
 33 34  2  0  0  0  0
 34 36  1  0  0  0  0
 35 34  1  0  0  0  0
 36 37  1  0  0  0  0
 37 26  2  0  0  0  0
M  END
>  <minimizedAffinity>
-5.97413588

$$$$
