
 OpenBabel03252508323D

 35 38  0  0  1  0  0  0  0  0999 V2000
   44.3510   34.4990   41.8260 N   0  0  0  0  0  0  0  0  0  0  0  0
   44.7270   33.4350   40.9760 C   0  0  1  0  0  0  0  0  0  0  0  0
   44.2890   33.5490   39.5620 C   0  0  0  0  0  0  0  0  0  0  0  0
   43.0120   34.0890   39.3620 N   0  0  0  0  0  0  0  0  0  0  0  0
   42.5820   35.0970   40.2460 C   0  0  0  0  0  0  0  0  0  0  0  0
   43.6940   35.5770   41.1400 C   0  0  0  0  0  0  0  0  0  0  0  0
   44.2560   32.5010   41.3820 H   0  0  0  0  0  0  0  0  0  0  0  0
   44.3650   32.5610   39.0620 H   0  0  0  0  0  0  0  0  0  0  0  0
   45.0320   34.2280   39.0500 H   0  0  0  0  0  0  0  0  0  0  0  0
   42.6500   34.0650   38.4130 H   0  0  0  0  0  0  0  0  0  0  0  0
   41.7340   34.7840   40.9190 H   0  0  0  0  0  0  0  0  0  0  0  0
   42.1900   35.9630   39.6810 H   0  0  0  0  0  0  0  0  0  0  0  0
   44.4590   36.1640   40.5680 H   0  0  0  0  0  0  0  0  0  0  0  0
   43.2130   36.3050   41.8250 H   0  0  0  0  0  0  0  0  0  0  0  0
   46.9820   34.2600   40.6730 C   0  0  0  0  0  3  0  0  0  0  0  0
   46.2080   33.1460   40.9730 C   0  0  0  0  0  0  0  0  0  0  0  0
   46.8680   31.9610   41.2050 C   0  0  0  0  0  0  0  0  0  0  0  0
   46.1740   31.1440   41.4330 H   0  0  0  0  0  0  0  0  0  0  0  0
   48.2190   31.8910   41.1440 C   0  0  0  0  0  0  0  0  0  0  0  0
   48.9790   30.8110   41.3480 N   0  0  0  0  0  0  0  0  0  0  0  0
   48.7310   29.8130   41.5900 H   0  0  0  0  0  0  0  0  0  0  0  0
   50.2350   31.1650   41.1940 N   0  0  0  0  0  0  0  0  0  0  0  0
   50.2950   32.4620   40.8930 C   0  0  0  0  0  0  0  0  0  0  0  0
   51.1750   33.0830   40.7010 H   0  0  0  0  0  0  0  0  0  0  0  0
   49.0120   32.9810   40.8490 C   0  0  0  0  0  0  0  0  0  0  0  0
   48.3770   34.1650   40.6140 C   0  0  0  0  0  3  0  0  0  0  0  0
   44.3510   35.5670   43.9630 C   0  0  0  0  0  0  0  0  0  0  0  0
   44.6460   34.4130   43.2050 C   0  0  0  0  0  0  0  0  0  0  0  0
   45.1910   33.3230   43.8570 C   0  0  0  0  0  0  0  0  0  0  0  0
   45.4350   33.3680   45.1930 N   0  0  0  0  0  0  0  0  0  0  0  0
   45.1400   34.4960   45.9070 C   0  0  0  0  0  0  0  0  0  0  0  0
   44.6090   35.5730   45.2950 N   0  0  0  0  0  0  0  0  0  0  0  0
   43.9320   36.5090   43.6480 H   0  0  0  0  0  0  0  0  0  0  0  0
   45.4080   32.4470   43.2830 H   0  0  0  0  0  0  0  0  0  0  0  0
   45.3440   34.5090   46.9770 H   0  0  0  0  0  0  0  0  0  0  0  0
  1 28  1  0  0  0  0
  2  7  1  1  0  0  0
  2  1  1  0  0  0  0
  3  2  1  0  0  0  0
  4  3  1  0  0  0  0
  4  5  1  0  0  0  0
  5 11  1  0  0  0  0
  5  6  1  0  0  0  0
  6 14  1  0  0  0  0
  6  1  1  0  0  0  0
  8  3  1  0  0  0  0
  9  3  1  0  0  0  0
 10  4  1  0  0  0  0
 12  5  1  0  0  0  0
 13  6  1  0  0  0  0
 15 16  1  0  0  0  0
 16  2  1  0  0  0  0
 16 17  2  0  0  0  0
 17 18  1  0  0  0  0
 19 17  1  0  0  0  0
 19 20  1  0  0  0  0
 20 21  1  0  0  0  0
 22 20  1  0  0  0  0
 23 22  2  0  0  0  0
 24 23  1  0  0  0  0
 25 23  1  0  0  0  0
 25 19  2  0  0  0  0
 26 15  2  0  0  0  0
 26 25  1  0  0  0  0
 27 32  1  0  0  0  0
 28 29  1  0  0  0  0
 28 27  2  0  0  0  0
 29 30  2  0  0  0  0
 30 31  1  0  0  0  0
 31 35  1  0  0  0  0
 32 31  2  0  0  0  0
 33 27  1  0  0  0  0
 34 29  1  0  0  0  0
M  END
>  <minimizedAffinity>
-4.70988655

>  <minimizedRMSD>
0.755364537

$$$$
