
 OpenBabel03252508313D

 35 38  0  0  1  0  0  0  0  0999 V2000
   44.7440   34.6530   42.4040 N   0  0  0  0  0  0  0  0  0  0  0  0
   45.3270   33.7420   41.4950 C   0  0  1  0  0  0  0  0  0  0  0  0
   45.0540   33.9950   40.0580 C   0  0  0  0  0  0  0  0  0  0  0  0
   43.7610   34.4430   39.7530 N   0  0  0  0  0  0  0  0  0  0  0  0
   43.1260   35.2890   40.6830 C   0  0  0  0  0  0  0  0  0  0  0  0
   44.0670   35.7480   41.7650 C   0  0  0  0  0  0  0  0  0  0  0  0
   44.9090   32.7260   41.7260 H   0  0  0  0  0  0  0  0  0  0  0  0
   45.2910   33.0890   39.4620 H   0  0  0  0  0  0  0  0  0  0  0  0
   45.7790   34.7960   39.7300 H   0  0  0  0  0  0  0  0  0  0  0  0
   43.5210   34.5080   38.7680 H   0  0  0  0  0  0  0  0  0  0  0  0
   42.2400   34.8200   41.1970 H   0  0  0  0  0  0  0  0  0  0  0  0
   42.7190   36.1820   40.1740 H   0  0  0  0  0  0  0  0  0  0  0  0
   44.8310   36.4670   41.3700 H   0  0  0  0  0  0  0  0  0  0  0  0
   43.4340   36.3380   42.4590 H   0  0  0  0  0  0  0  0  0  0  0  0
   47.2950   32.3700   41.1820 C   0  0  0  0  0  3  0  0  0  0  0  0
   46.8190   33.5860   41.6550 C   0  0  0  0  0  0  0  0  0  0  0  0
   47.7360   34.4540   42.2010 C   0  0  0  0  0  0  0  0  0  0  0  0
   47.2650   35.3820   42.5450 H   0  0  0  0  0  0  0  0  0  0  0  0
   49.0480   34.1290   42.2730 C   0  0  0  0  0  0  0  0  0  0  0  0
   50.0360   34.8750   42.7750 N   0  0  0  0  0  0  0  0  0  0  0  0
   50.0370   35.8380   43.2130 H   0  0  0  0  0  0  0  0  0  0  0  0
   51.1560   34.1990   42.6550 N   0  0  0  0  0  0  0  0  0  0  0  0
   50.9040   33.0250   42.0800 C   0  0  0  0  0  0  0  0  0  0  0  0
   51.5990   32.2190   41.8280 H   0  0  0  0  0  0  0  0  0  0  0  0
   49.5490   32.9300   41.8110 C   0  0  0  0  0  0  0  0  0  0  0  0
   48.6560   32.0540   41.2640 C   0  0  0  0  0  3  0  0  0  0  0  0
   44.4470   35.4710   44.6290 C   0  0  0  0  0  0  0  0  0  0  0  0
   44.8770   34.4190   43.7910 C   0  0  0  0  0  0  0  0  0  0  0  0
   45.3850   33.2770   44.3810 C   0  0  0  0  0  0  0  0  0  0  0  0
   45.4670   33.1760   45.7340 N   0  0  0  0  0  0  0  0  0  0  0  0
   45.0450   34.2080   46.5260 C   0  0  0  0  0  0  0  0  0  0  0  0
   44.5460   35.3330   45.9750 N   0  0  0  0  0  0  0  0  0  0  0  0
   44.0300   36.4300   44.3710 H   0  0  0  0  0  0  0  0  0  0  0  0
   45.7030   32.4780   43.7460 H   0  0  0  0  0  0  0  0  0  0  0  0
   45.1200   34.1050   47.6080 H   0  0  0  0  0  0  0  0  0  0  0  0
  1 28  1  0  0  0  0
  2 16  1  0  0  0  0
  2  7  1  1  0  0  0
  2  1  1  0  0  0  0
  3  2  1  0  0  0  0
  4  3  1  0  0  0  0
  4  5  1  0  0  0  0
  5 11  1  0  0  0  0
  5  6  1  0  0  0  0
  6  1  1  0  0  0  0
  6 14  1  0  0  0  0
  8  3  1  0  0  0  0
  9  3  1  0  0  0  0
 10  4  1  0  0  0  0
 12  5  1  0  0  0  0
 13  6  1  0  0  0  0
 15 26  2  0  0  0  0
 15 16  1  0  0  0  0
 16 17  2  0  0  0  0
 17 19  1  0  0  0  0
 17 18  1  0  0  0  0
 19 20  1  0  0  0  0
 20 21  1  0  0  0  0
 22 20  1  0  0  0  0
 23 22  2  0  0  0  0
 24 23  1  0  0  0  0
 25 23  1  0  0  0  0
 25 19  2  0  0  0  0
 26 25  1  0  0  0  0
 27 32  1  0  0  0  0
 28 29  1  0  0  0  0
 28 27  2  0  0  0  0
 29 30  2  0  0  0  0
 30 31  1  0  0  0  0
 31 35  1  0  0  0  0
 32 31  2  0  0  0  0
 33 27  1  0  0  0  0
 34 29  1  0  0  0  0
M  END
>  <minimizedAffinity>
-5.25663567

>  <minimizedRMSD>
1.56199491

$$$$
