
 OpenBabel03242519163D

 45 49  0  0  1  0  0  0  0  0999 V2000
   48.0640   33.9320   40.7990 C   0  0  0  0  0  0  0  0  0  0  0  0
   47.0750   34.0450   39.8490 C   0  0  0  0  0  0  0  0  0  0  0  0
   47.0540   33.2760   38.6840 C   0  0  0  0  0  0  0  0  0  0  0  0
   48.0860   32.3960   38.5460 N   0  0  0  0  0  0  0  0  0  0  0  0
   49.0470   32.2890   39.4760 C   0  0  0  0  0  0  0  0  0  0  0  0
   49.0330   33.0450   40.5790 N   0  0  0  0  0  0  0  0  0  0  0  0
   46.2930   34.7630   40.0280 H   0  0  0  0  0  0  0  0  0  0  0  0
   46.2610   33.3910   37.9570 H   0  0  0  0  0  0  0  0  0  0  0  0
   50.1650   31.3090   39.3480 C   0  0  2  0  0  0  0  0  0  0  0  0
   50.4840   30.4260   40.5130 C   0  0  0  0  0  0  0  0  0  0  0  0
   51.3990   31.5980   40.1310 C   0  0  1  0  0  0  0  0  0  0  0  0
   50.2670   30.8540   38.3420 H   0  0  0  0  0  0  0  0  0  0  0  0
   49.9550   30.5870   41.4750 H   0  0  0  0  0  0  0  0  0  0  0  0
   50.8260   29.3950   40.3650 H   0  0  0  0  0  0  0  0  0  0  0  0
   51.4250   32.4710   40.7870 H   0  0  0  0  0  0  0  0  0  0  0  0
   52.9790   31.5560   38.2310 C   0  0  0  0  0  3  0  0  0  0  0  0
   52.6630   31.1340   39.4990 C   0  0  0  0  0  0  0  0  0  0  0  0
   53.4880   30.2830   40.2170 C   0  0  0  0  0  0  0  0  0  0  0  0
   53.2700   29.9310   41.2170 H   0  0  0  0  0  0  0  0  0  0  0  0
   54.6450   29.8970   39.5610 C   0  0  0  0  0  0  0  0  0  0  0  0
   55.6450   29.0970   39.9530 N   0  0  0  0  0  0  0  0  0  0  0  0
   55.7940   28.5710   40.8490 H   0  0  0  0  0  0  0  0  0  0  0  0
   56.5810   28.9710   39.0340 N   0  0  0  0  0  0  0  0  0  0  0  0
   56.2210   29.7160   37.9530 C   0  0  0  0  0  0  0  0  0  0  0  0
   56.7030   29.8850   36.9970 H   0  0  0  0  0  0  0  0  0  0  0  0
   54.9980   30.2970   38.2920 C   0  0  0  0  0  0  0  0  0  0  0  0
   54.1400   31.1480   37.6140 C   0  0  0  0  0  3  0  0  0  0  0  0
   48.0630   34.7300   42.0080 C   0  0  0  0  0  0  0  0  0  0  0  0
   48.6870   34.2980   42.8060 H   0  0  0  0  0  0  0  0  0  0  0  0
   48.5130   35.7280   41.7650 H   0  0  0  0  0  0  0  0  0  0  0  0
   46.6590   34.9680   42.4660 C   0  0  0  0  0  0  0  0  0  0  0  0
   46.4120   36.0590   42.5390 H   0  0  0  0  0  0  0  0  0  0  0  0
   45.9430   34.5420   41.7520 H   0  0  0  0  0  0  0  0  0  0  0  0
   44.6480   36.3670   44.1700 Cl  0  0  0  0  0  0  0  0  0  0  0  0
   45.4730   34.9030   44.6780 C   0  0  0  0  0  0  0  0  0  0  0  0
   46.3690   34.3590   43.7920 C   0  0  0  0  0  0  0  0  0  0  0  0
   47.0120   33.1940   44.1830 C   0  0  0  0  0  0  0  0  0  0  0  0
   46.7560   32.6130   45.4170 C   0  0  0  0  0  0  0  0  0  0  0  0
   45.8380   33.1960   46.2920 C   0  0  0  0  0  0  0  0  0  0  0  0
   45.2070   34.3430   45.9000 C   0  0  0  0  0  0  0  0  0  0  0  0
   47.7350   32.7050   43.5350 H   0  0  0  0  0  0  0  0  0  0  0  0
   47.2770   31.7040   45.6910 H   0  0  0  0  0  0  0  0  0  0  0  0
   45.6290   32.7510   47.2600 H   0  0  0  0  0  0  0  0  0  0  0  0
   44.2720   34.9990   46.7100 O   0  0  0  0  0  0  0  0  0  0  0  0
   43.4390   34.5160   47.0470 H   0  0  0  0  0  0  0  0  0  0  0  0
  1 28  1  0  0  0  0
  2  7  1  0  0  0  0
  2  1  2  0  0  0  0
  3  2  1  0  0  0  0
  4  3  2  0  0  0  0
  4  5  1  0  0  0  0
  5  6  2  0  0  0  0
  6  1  1  0  0  0  0
  8  3  1  0  0  0  0
  9 12  1  6  0  0  0
  9  5  1  0  0  0  0
  9 11  1  0  0  0  0
  9 10  1  0  0  0  0
 10 13  1  0  0  0  0
 11 10  1  0  0  0  0
 11 15  1  1  0  0  0
 14 10  1  0  0  0  0
 16 17  1  0  0  0  0
 17 11  1  0  0  0  0
 17 18  2  0  0  0  0
 18 19  1  0  0  0  0
 20 21  1  0  0  0  0
 20 18  1  0  0  0  0
 21 22  1  0  0  0  0
 23 21  1  0  0  0  0
 24 26  1  0  0  0  0
 24 23  2  0  0  0  0
 25 24  1  0  0  0  0
 26 20  2  0  0  0  0
 27 16  2  0  0  0  0
 27 26  1  0  0  0  0
 28 31  1  0  0  0  0
 28 29  1  0  0  0  0
 30 28  1  0  0  0  0
 31 32  1  0  0  0  0
 31 36  1  0  0  0  0
 33 31  1  0  0  0  0
 34 35  1  0  0  0  0
 35 40  1  0  0  0  0
 36 37  1  0  0  0  0
 36 35  2  0  0  0  0
 37 38  2  0  0  0  0
 38 42  1  0  0  0  0
 38 39  1  0  0  0  0
 39 43  1  0  0  0  0
 40 39  2  0  0  0  0
 40 44  1  0  0  0  0
 41 37  1  0  0  0  0
 44 45  1  0  0  0  0
M  END
>  <minimizedAffinity>
-6.16048479

>  <minimizedRMSD>
1.38552797

$$$$
