
 OpenBabel03242519253D

 43 47  0  0  0  0  0  0  0  0999 V2000
   47.8800   33.7240   42.8950 C   0  0  0  0  0  0  0  0  0  0  0  0
   48.5800   34.9170   42.6950 C   0  0  0  0  0  0  0  0  0  0  0  0
   49.9460   34.8950   42.3680 C   0  0  0  0  0  0  0  0  0  0  0  0
   50.5140   33.6440   42.2650 N   0  0  0  0  0  0  0  0  0  0  0  0
   49.7970   32.4980   42.4680 C   0  0  0  0  0  0  0  0  0  0  0  0
   48.5050   32.5500   42.7770 N   0  0  0  0  0  0  0  0  0  0  0  0
   48.2190   35.9350   42.7550 H   0  0  0  0  0  0  0  0  0  0  0  0
   50.5470   35.7720   42.2010 H   0  0  0  0  0  0  0  0  0  0  0  0
   46.4540   33.8820   43.2400 C   0  0  0  0  0  0  0  0  0  0  0  0
   45.7600   34.8860   42.4350 C   0  0  0  0  0  0  0  0  0  0  0  0
   45.3350   36.0940   43.1880 C   0  0  0  0  0  0  0  0  0  0  0  0
   44.5510   35.7780   44.4490 C   0  0  0  0  0  0  0  0  0  0  0  0
   44.9760   34.5040   45.1380 C   0  0  0  0  0  0  0  0  0  0  0  0
   46.3990   34.1590   44.7530 C   0  0  0  0  0  0  0  0  0  0  0  0
   45.9980   32.8540   43.1290 H   0  0  0  0  0  0  0  0  0  0  0  0
   44.8280   34.4440   41.9810 H   0  0  0  0  0  0  0  0  0  0  0  0
   46.4250   35.2230   41.6200 H   0  0  0  0  0  0  0  0  0  0  0  0
   46.0980   36.8520   43.3800 H   0  0  0  0  0  0  0  0  0  0  0  0
   44.5790   36.6170   42.5280 H   0  0  0  0  0  0  0  0  0  0  0  0
   44.7560   36.6070   45.1800 H   0  0  0  0  0  0  0  0  0  0  0  0
   43.4550   35.7950   44.2980 H   0  0  0  0  0  0  0  0  0  0  0  0
   44.8740   34.5410   46.2220 H   0  0  0  0  0  0  0  0  0  0  0  0
   44.3500   33.6890   44.6920 H   0  0  0  0  0  0  0  0  0  0  0  0
   47.0540   35.0630   44.8970 H   0  0  0  0  0  0  0  0  0  0  0  0
   46.7360   33.2810   45.3150 H   0  0  0  0  0  0  0  0  0  0  0  0
   50.5500   31.2570   42.3260 C   0  0  0  0  0  0  0  0  0  0  0  0
   51.5370   31.2350   41.3990 N   0  0  0  0  0  0  0  0  0  0  0  0
   52.1280   30.0290   41.3960 C   0  0  0  0  0  0  0  0  0  0  0  0
   51.4850   29.2850   42.3530 N   0  0  0  0  0  0  0  0  0  0  0  0
   50.5320   30.0360   42.9080 N   0  0  0  0  0  0  0  0  0  0  0  0
   52.9420   29.6360   40.8080 H   0  0  0  0  0  0  0  0  0  0  0  0
   50.9860   26.8630   42.2450 C   0  0  0  0  0  3  0  0  0  0  0  0
   51.6890   27.9420   42.7820 C   0  0  0  0  0  0  0  0  0  0  0  0
   52.6080   27.6460   43.7680 C   0  0  0  0  0  0  0  0  0  0  0  0
   53.1540   28.4780   44.1870 H   0  0  0  0  0  0  0  0  0  0  0  0
   52.8520   26.3670   44.2290 C   0  0  0  0  0  0  0  0  0  0  0  0
   53.7040   25.9160   45.1730 N   0  0  0  0  0  0  0  0  0  0  0  0
   54.3390   26.5350   45.7170 H   0  0  0  0  0  0  0  0  0  0  0  0
   53.5550   24.6000   45.2390 N   0  0  0  0  0  0  0  0  0  0  0  0
   52.6100   24.1910   44.3450 C   0  0  0  0  0  0  0  0  0  0  0  0
   52.2640   23.1920   44.1580 H   0  0  0  0  0  0  0  0  0  0  0  0
   52.1410   25.3020   43.6810 C   0  0  0  0  0  0  0  0  0  0  0  0
   51.2250   25.5850   42.7010 C   0  0  0  0  0  3  0  0  0  0  0  0
  1  9  1  0  0  0  0
  2  7  1  0  0  0  0
  2  1  2  0  0  0  0
  3  2  1  0  0  0  0
  4  3  2  0  0  0  0
  4  5  1  0  0  0  0
  5  6  2  0  0  0  0
  6  1  1  0  0  0  0
  8  3  1  0  0  0  0
  9 14  1  0  0  0  0
 10 11  1  0  0  0  0
 10  9  1  0  0  0  0
 11 18  1  0  0  0  0
 11 12  1  0  0  0  0
 12 13  1  0  0  0  0
 12 20  1  0  0  0  0
 13 22  1  0  0  0  0
 14 24  1  0  0  0  0
 14 13  1  0  0  0  0
 14 25  1  0  0  0  0
 15  9  1  0  0  0  0
 16 10  1  0  0  0  0
 17 10  1  0  0  0  0
 19 11  1  0  0  0  0
 21 12  1  0  0  0  0
 23 13  1  0  0  0  0
 26  5  1  0  0  0  0
 26 30  2  0  0  0  0
 27 26  1  0  0  0  0
 28 27  2  0  0  0  0
 28 29  1  0  0  0  0
 29 33  1  0  0  0  0
 29 30  1  0  0  0  0
 31 28  1  0  0  0  0
 32 43  2  0  0  0  0
 32 33  1  0  0  0  0
 33 34  2  0  0  0  0
 34 35  1  0  0  0  0
 34 36  1  0  0  0  0
 36 37  1  0  0  0  0
 37 39  1  0  0  0  0
 37 38  1  0  0  0  0
 40 39  2  0  0  0  0
 41 40  1  0  0  0  0
 42 36  2  0  0  0  0
 42 40  1  0  0  0  0
 43 42  1  0  0  0  0
M  END
>  <minimizedAffinity>
-4.17298889

>  <minimizedRMSD>
0.230054855

$$$$
