
 OpenBabel03242519163D

 45 49  0  0  1  0  0  0  0  0999 V2000
   48.4410   34.1270   40.9750 C   0  0  0  0  0  0  0  0  0  0  0  0
   47.8520   34.3650   39.7530 C   0  0  0  0  0  0  0  0  0  0  0  0
   48.1170   33.5890   38.6230 C   0  0  0  0  0  0  0  0  0  0  0  0
   49.0050   32.5710   38.8080 N   0  0  0  0  0  0  0  0  0  0  0  0
   49.5750   32.3450   40.0010 C   0  0  0  0  0  0  0  0  0  0  0  0
   49.2960   33.1110   41.0610 N   0  0  0  0  0  0  0  0  0  0  0  0
   47.1620   35.1870   39.6860 H   0  0  0  0  0  0  0  0  0  0  0  0
   47.6370   33.8030   37.6770 H   0  0  0  0  0  0  0  0  0  0  0  0
   50.5260   31.2160   40.2200 C   0  0  2  0  0  0  0  0  0  0  0  0
   51.0520   30.9760   41.6000 C   0  0  0  0  0  0  0  0  0  0  0  0
   51.9420   31.5820   40.5070 C   0  0  1  0  0  0  0  0  0  0  0  0
   50.3240   30.3150   39.6060 H   0  0  0  0  0  0  0  0  0  0  0  0
   50.8060   31.6980   42.4060 H   0  0  0  0  0  0  0  0  0  0  0  0
   51.2470   29.9590   41.9630 H   0  0  0  0  0  0  0  0  0  0  0  0
   52.2170   32.6360   40.5860 H   0  0  0  0  0  0  0  0  0  0  0  0
   53.9860   30.2300   40.8300 C   0  0  0  0  0  3  0  0  0  0  0  0
   52.9520   30.6100   40.0090 C   0  0  0  0  0  0  0  0  0  0  0  0
   52.8170   30.1150   38.7230 C   0  0  0  0  0  0  0  0  0  0  0  0
   52.0140   30.3930   38.0500 H   0  0  0  0  0  0  0  0  0  0  0  0
   53.7950   29.2160   38.3340 C   0  0  0  0  0  0  0  0  0  0  0  0
   53.9670   28.5560   37.1810 N   0  0  0  0  0  0  0  0  0  0  0  0
   53.4030   28.5610   36.2950 H   0  0  0  0  0  0  0  0  0  0  0  0
   55.0330   27.7810   37.1960 N   0  0  0  0  0  0  0  0  0  0  0  0
   55.6320   27.9040   38.4120 C   0  0  0  0  0  0  0  0  0  0  0  0
   56.5210   27.4450   38.8310 H   0  0  0  0  0  0  0  0  0  0  0  0
   54.8460   28.8110   39.1240 C   0  0  0  0  0  0  0  0  0  0  0  0
   54.9400   29.3330   40.4050 C   0  0  0  0  0  3  0  0  0  0  0  0
   48.1440   34.9360   42.1390 C   0  0  0  0  0  0  0  0  0  0  0  0
   48.7540   34.6630   43.0150 H   0  0  0  0  0  0  0  0  0  0  0  0
   48.4030   36.0000   41.8980 H   0  0  0  0  0  0  0  0  0  0  0  0
   46.6800   34.8850   42.4420 C   0  0  0  0  0  0  0  0  0  0  0  0
   46.2000   35.8960   42.4040 H   0  0  0  0  0  0  0  0  0  0  0  0
   46.1540   34.2710   41.7000 H   0  0  0  0  0  0  0  0  0  0  0  0
   44.6760   36.3320   44.1140 Cl  0  0  0  0  0  0  0  0  0  0  0  0
   45.4890   34.8720   44.6520 C   0  0  0  0  0  0  0  0  0  0  0  0
   46.3830   34.3040   43.7790 C   0  0  0  0  0  0  0  0  0  0  0  0
   47.0180   33.1420   44.1960 C   0  0  0  0  0  0  0  0  0  0  0  0
   46.7550   32.5880   45.4400 C   0  0  0  0  0  0  0  0  0  0  0  0
   45.8400   33.1950   46.3010 C   0  0  0  0  0  0  0  0  0  0  0  0
   45.2170   34.3380   45.8850 C   0  0  0  0  0  0  0  0  0  0  0  0
   47.7380   32.6350   43.5580 H   0  0  0  0  0  0  0  0  0  0  0  0
   47.2690   31.6810   45.7330 H   0  0  0  0  0  0  0  0  0  0  0  0
   45.6260   32.7710   47.2770 H   0  0  0  0  0  0  0  0  0  0  0  0
   44.2860   35.0170   46.6800 O   0  0  0  0  0  0  0  0  0  0  0  0
   43.4480   34.5470   47.0250 H   0  0  0  0  0  0  0  0  0  0  0  0
  1  6  1  0  0  0  0
  1 28  1  0  0  0  0
  2  1  2  0  0  0  0
  3  4  2  0  0  0  0
  3  2  1  0  0  0  0
  4  5  1  0  0  0  0
  5  9  1  0  0  0  0
  5  6  2  0  0  0  0
  7  2  1  0  0  0  0
  8  3  1  0  0  0  0
  9 12  1  6  0  0  0
  9 11  1  0  0  0  0
  9 10  1  0  0  0  0
 10 14  1  0  0  0  0
 10 13  1  0  0  0  0
 11 15  1  1  0  0  0
 11 10  1  0  0  0  0
 17 11  1  0  0  0  0
 17 16  2  0  0  0  0
 18 17  1  0  0  0  0
 19 18  1  0  0  0  0
 20 18  2  0  0  0  0
 20 26  1  0  0  0  0
 21 23  1  0  0  0  0
 21 20  1  0  0  0  0
 22 21  1  0  0  0  0
 23 24  2  0  0  0  0
 24 25  1  0  0  0  0
 24 26  1  0  0  0  0
 26 27  2  0  0  0  0
 27 16  1  0  0  0  0
 28 31  1  0  0  0  0
 28 29  1  0  0  0  0
 30 28  1  0  0  0  0
 31 36  1  0  0  0  0
 32 31  1  0  0  0  0
 33 31  1  0  0  0  0
 34 35  1  0  0  0  0
 35 40  1  0  0  0  0
 36 37  1  0  0  0  0
 36 35  2  0  0  0  0
 37 38  2  0  0  0  0
 38 42  1  0  0  0  0
 38 39  1  0  0  0  0
 39 43  1  0  0  0  0
 40 39  2  0  0  0  0
 40 44  1  0  0  0  0
 41 37  1  0  0  0  0
 44 45  1  0  0  0  0
M  END
>  <minimizedAffinity>
-5.85630369

>  <minimizedRMSD>
0.479279637

$$$$
