
 OpenBabel03242519253D

 43 47  0  0  0  0  0  0  0  0999 V2000
   47.9230   33.8020   42.8900 C   0  0  0  0  0  0  0  0  0  0  0  0
   48.5780   35.0120   42.6470 C   0  0  0  0  0  0  0  0  0  0  0  0
   49.9450   35.0290   42.3260 C   0  0  0  0  0  0  0  0  0  0  0  0
   50.5600   33.7970   42.2730 N   0  0  0  0  0  0  0  0  0  0  0  0
   49.8870   32.6330   42.5180 C   0  0  0  0  0  0  0  0  0  0  0  0
   48.5920   32.6480   42.8200 N   0  0  0  0  0  0  0  0  0  0  0  0
   48.1790   36.0170   42.6660 H   0  0  0  0  0  0  0  0  0  0  0  0
   50.5130   35.9210   42.1260 H   0  0  0  0  0  0  0  0  0  0  0  0
   46.4900   33.9180   43.2230 C   0  0  0  0  0  0  0  0  0  0  0  0
   45.7780   34.9160   42.4270 C   0  0  0  0  0  0  0  0  0  0  0  0
   45.3160   36.1020   43.1930 C   0  0  0  0  0  0  0  0  0  0  0  0
   44.5280   35.7480   44.4420 C   0  0  0  0  0  0  0  0  0  0  0  0
   44.9790   34.4740   45.1160 C   0  0  0  0  0  0  0  0  0  0  0  0
   46.4140   34.1710   44.7400 C   0  0  0  0  0  0  0  0  0  0  0  0
   46.0610   32.8810   43.0940 H   0  0  0  0  0  0  0  0  0  0  0  0
   44.8620   34.4580   41.9580 H   0  0  0  0  0  0  0  0  0  0  0  0
   46.4420   35.2820   41.6230 H   0  0  0  0  0  0  0  0  0  0  0  0
   46.0580   36.8760   43.4040 H   0  0  0  0  0  0  0  0  0  0  0  0
   44.5530   36.6160   42.5340 H   0  0  0  0  0  0  0  0  0  0  0  0
   44.7050   36.5710   45.1870 H   0  0  0  0  0  0  0  0  0  0  0  0
   43.4330   35.7390   44.2810 H   0  0  0  0  0  0  0  0  0  0  0  0
   44.8670   34.4920   46.1990 H   0  0  0  0  0  0  0  0  0  0  0  0
   44.3780   33.6510   44.6520 H   0  0  0  0  0  0  0  0  0  0  0  0
   47.0450   35.0890   44.9040 H   0  0  0  0  0  0  0  0  0  0  0  0
   46.7680   33.2930   45.2920 H   0  0  0  0  0  0  0  0  0  0  0  0
   50.6870   31.4170   42.4270 C   0  0  0  0  0  0  0  0  0  0  0  0
   51.3870   31.2220   41.2840 N   0  0  0  0  0  0  0  0  0  0  0  0
   52.0660   30.0660   41.3620 C   0  0  0  0  0  0  0  0  0  0  0  0
   51.7760   29.5330   42.5930 N   0  0  0  0  0  0  0  0  0  0  0  0
   50.9410   30.3580   43.2280 N   0  0  0  0  0  0  0  0  0  0  0  0
   52.7250   29.5780   40.6610 H   0  0  0  0  0  0  0  0  0  0  0  0
   52.9240   27.3430   42.5310 C   0  0  0  0  0  3  0  0  0  0  0  0
   52.2120   28.3280   43.2130 C   0  0  0  0  0  0  0  0  0  0  0  0
   51.9430   28.0800   44.5460 C   0  0  0  0  0  0  0  0  0  0  0  0
   51.3920   28.8410   45.0770 H   0  0  0  0  0  0  0  0  0  0  0  0
   52.3380   26.9340   45.2060 C   0  0  0  0  0  0  0  0  0  0  0  0
   52.1570   26.5450   46.4860 N   0  0  0  0  0  0  0  0  0  0  0  0
   51.6520   27.1150   47.1930 H   0  0  0  0  0  0  0  0  0  0  0  0
   52.7310   25.3570   46.6180 N   0  0  0  0  0  0  0  0  0  0  0  0
   53.2830   24.9690   45.4350 C   0  0  0  0  0  0  0  0  0  0  0  0
   53.8170   24.0610   45.2180 H   0  0  0  0  0  0  0  0  0  0  0  0
   53.0480   25.9590   44.5090 C   0  0  0  0  0  0  0  0  0  0  0  0
   53.3200   26.1960   43.1860 C   0  0  0  0  0  3  0  0  0  0  0  0
  1  9  1  0  0  0  0
  2  7  1  0  0  0  0
  2  1  2  0  0  0  0
  3  2  1  0  0  0  0
  4  3  2  0  0  0  0
  4  5  1  0  0  0  0
  5  6  2  0  0  0  0
  6  1  1  0  0  0  0
  8  3  1  0  0  0  0
  9 14  1  0  0  0  0
 10 11  1  0  0  0  0
 10  9  1  0  0  0  0
 11 18  1  0  0  0  0
 11 12  1  0  0  0  0
 12 13  1  0  0  0  0
 12 20  1  0  0  0  0
 13 22  1  0  0  0  0
 14 24  1  0  0  0  0
 14 13  1  0  0  0  0
 14 25  1  0  0  0  0
 15  9  1  0  0  0  0
 16 10  1  0  0  0  0
 17 10  1  0  0  0  0
 19 11  1  0  0  0  0
 21 12  1  0  0  0  0
 23 13  1  0  0  0  0
 26  5  1  0  0  0  0
 26 30  2  0  0  0  0
 27 28  2  0  0  0  0
 27 26  1  0  0  0  0
 28 29  1  0  0  0  0
 29 33  1  0  0  0  0
 29 30  1  0  0  0  0
 31 28  1  0  0  0  0
 32 43  2  0  0  0  0
 32 33  1  0  0  0  0
 33 34  2  0  0  0  0
 34 35  1  0  0  0  0
 34 36  1  0  0  0  0
 36 37  1  0  0  0  0
 37 39  1  0  0  0  0
 37 38  1  0  0  0  0
 40 39  2  0  0  0  0
 41 40  1  0  0  0  0
 42 36  2  0  0  0  0
 42 40  1  0  0  0  0
 43 42  1  0  0  0  0
M  END
>  <minimizedAffinity>
-4.24906206

>  <minimizedRMSD>
1.630288

$$$$
