
 OpenBabel03242519163D

 45 49  0  0  1  0  0  0  0  0999 V2000
   48.3410   34.2280   40.9250 C   0  0  0  0  0  0  0  0  0  0  0  0
   47.8810   34.3780   39.6360 C   0  0  0  0  0  0  0  0  0  0  0  0
   48.2410   33.5150   38.6000 C   0  0  0  0  0  0  0  0  0  0  0  0
   49.0850   32.5030   38.9480 N   0  0  0  0  0  0  0  0  0  0  0  0
   49.5300   32.3620   40.2060 C   0  0  0  0  0  0  0  0  0  0  0  0
   49.1630   33.2100   41.1720 N   0  0  0  0  0  0  0  0  0  0  0  0
   47.2170   35.2020   39.4380 H   0  0  0  0  0  0  0  0  0  0  0  0
   47.8610   33.6620   37.5970 H   0  0  0  0  0  0  0  0  0  0  0  0
   50.4310   31.2410   40.6030 C   0  0  2  0  0  0  0  0  0  0  0  0
   51.1870   31.3480   41.8900 C   0  0  0  0  0  0  0  0  0  0  0  0
   51.8960   31.5080   40.5390 C   0  0  1  0  0  0  0  0  0  0  0  0
   50.0620   30.2320   40.3310 H   0  0  0  0  0  0  0  0  0  0  0  0
   51.1410   32.2930   42.4680 H   0  0  0  0  0  0  0  0  0  0  0  0
   51.3810   30.4620   42.5070 H   0  0  0  0  0  0  0  0  0  0  0  0
   52.2470   32.5010   40.2500 H   0  0  0  0  0  0  0  0  0  0  0  0
   52.1950   29.3060   39.4550 C   0  0  0  0  0  3  0  0  0  0  0  0
   52.7330   30.3240   40.2050 C   0  0  0  0  0  0  0  0  0  0  0  0
   54.0390   30.2850   40.6650 C   0  0  0  0  0  0  0  0  0  0  0  0
   54.4930   31.0690   41.2590 H   0  0  0  0  0  0  0  0  0  0  0  0
   54.7520   29.1510   40.3140 C   0  0  0  0  0  0  0  0  0  0  0  0
   56.0140   28.7940   40.5850 N   0  0  0  0  0  0  0  0  0  0  0  0
   56.7650   29.2860   41.1290 H   0  0  0  0  0  0  0  0  0  0  0  0
   56.3290   27.6250   40.0690 N   0  0  0  0  0  0  0  0  0  0  0  0
   55.2440   27.1430   39.4060 C   0  0  0  0  0  0  0  0  0  0  0  0
   55.0820   26.2270   38.8490 H   0  0  0  0  0  0  0  0  0  0  0  0
   54.2510   28.1110   39.5650 C   0  0  0  0  0  0  0  0  0  0  0  0
   52.9390   28.1960   39.1270 C   0  0  0  0  0  3  0  0  0  0  0  0
   47.9480   35.1270   41.9900 C   0  0  0  0  0  0  0  0  0  0  0  0
   48.5720   35.0210   42.8910 H   0  0  0  0  0  0  0  0  0  0  0  0
   48.0950   36.1780   41.6300 H   0  0  0  0  0  0  0  0  0  0  0  0
   46.4930   34.9550   42.2970 C   0  0  0  0  0  0  0  0  0  0  0  0
   45.9250   35.9180   42.2270 H   0  0  0  0  0  0  0  0  0  0  0  0
   46.0250   34.2730   41.5770 H   0  0  0  0  0  0  0  0  0  0  0  0
   44.5530   36.4260   44.0220 Cl  0  0  0  0  0  0  0  0  0  0  0  0
   45.3870   34.9760   44.5510 C   0  0  0  0  0  0  0  0  0  0  0  0
   46.2480   34.3950   43.6530 C   0  0  0  0  0  0  0  0  0  0  0  0
   46.9000   33.2400   44.0630 C   0  0  0  0  0  0  0  0  0  0  0  0
   46.6860   32.7050   45.3250 C   0  0  0  0  0  0  0  0  0  0  0  0
   45.8020   33.3240   46.2110 C   0  0  0  0  0  0  0  0  0  0  0  0
   45.1630   34.4610   45.8020 C   0  0  0  0  0  0  0  0  0  0  0  0
   47.5960   32.7240   43.4070 H   0  0  0  0  0  0  0  0  0  0  0  0
   47.2110   31.8030   45.6120 H   0  0  0  0  0  0  0  0  0  0  0  0
   45.6260   32.9150   47.2010 H   0  0  0  0  0  0  0  0  0  0  0  0
   44.2610   35.1510   46.6200 O   0  0  0  0  0  0  0  0  0  0  0  0
   43.4380   34.6850   47.0040 H   0  0  0  0  0  0  0  0  0  0  0  0
  1  6  1  0  0  0  0
  1 28  1  0  0  0  0
  2  1  2  0  0  0  0
  3  4  2  0  0  0  0
  3  2  1  0  0  0  0
  4  5  1  0  0  0  0
  5  9  1  0  0  0  0
  5  6  2  0  0  0  0
  7  2  1  0  0  0  0
  8  3  1  0  0  0  0
  9 12  1  6  0  0  0
  9 10  1  0  0  0  0
 10 13  1  0  0  0  0
 10 14  1  0  0  0  0
 11 15  1  6  0  0  0
 11  9  1  0  0  0  0
 11 10  1  0  0  0  0
 16 17  1  0  0  0  0
 17 11  1  0  0  0  0
 17 18  2  0  0  0  0
 18 19  1  0  0  0  0
 20 21  1  0  0  0  0
 20 18  1  0  0  0  0
 21 22  1  0  0  0  0
 23 21  1  0  0  0  0
 24 26  1  0  0  0  0
 24 23  2  0  0  0  0
 25 24  1  0  0  0  0
 26 20  2  0  0  0  0
 27 16  2  0  0  0  0
 27 26  1  0  0  0  0
 28 31  1  0  0  0  0
 28 29  1  0  0  0  0
 30 28  1  0  0  0  0
 31 36  1  0  0  0  0
 32 31  1  0  0  0  0
 33 31  1  0  0  0  0
 34 35  1  0  0  0  0
 35 40  1  0  0  0  0
 36 37  1  0  0  0  0
 36 35  2  0  0  0  0
 37 38  2  0  0  0  0
 38 42  1  0  0  0  0
 38 39  1  0  0  0  0
 39 43  1  0  0  0  0
 40 39  2  0  0  0  0
 40 44  1  0  0  0  0
 41 37  1  0  0  0  0
 44 45  1  0  0  0  0
M  END
>  <minimizedAffinity>
-5.85438871

>  <minimizedRMSD>
0.334363103

$$$$
