
 OpenBabel03252500133D

 41 45  0  0  0  0  0  0  0  0999 V2000
   45.6520   32.5880   40.2950 Cl  0  0  0  0  0  0  0  0  0  0  0  0
   46.9640   33.7130   40.0980 C   0  0  0  0  0  0  0  0  0  0  0  0
   47.4730   34.3650   41.1800 C   0  0  0  0  0  0  0  0  0  0  0  0
   48.5320   35.2790   41.0550 C   0  0  0  0  0  0  0  0  0  0  0  0
   49.0190   35.4700   39.7720 C   0  0  0  0  0  0  0  0  0  0  0  0
   48.4890   34.7980   38.6940 C   0  0  0  0  0  0  0  0  0  0  0  0
   47.4810   33.9330   38.8400 C   0  0  0  0  0  0  0  0  0  0  0  0
   48.9040   35.7710   41.9200 H   0  0  0  0  0  0  0  0  0  0  0  0
   49.8350   36.1780   39.6990 H   0  0  0  0  0  0  0  0  0  0  0  0
   48.9450   35.0200   37.7290 H   0  0  0  0  0  0  0  0  0  0  0  0
   46.7600   32.8040   44.4380 C   0  0  0  0  0  0  0  0  0  0  0  0
   45.8380   33.7000   45.0150 C   0  0  0  0  0  0  0  0  0  0  0  0
   45.4750   34.8300   44.2730 C   0  0  0  0  0  0  0  0  0  0  0  0
   46.0260   35.0060   43.0390 N   0  0  0  0  0  0  0  0  0  0  0  0
   46.9110   34.1190   42.5190 C   0  0  0  0  0  0  0  0  0  0  0  0
   47.2650   33.0350   43.2220 N   0  0  0  0  0  0  0  0  0  0  0  0
   47.0150   31.9450   45.0410 H   0  0  0  0  0  0  0  0  0  0  0  0
   45.3770   33.6050   45.9820 H   0  0  0  0  0  0  0  0  0  0  0  0
   44.5070   35.8510   44.7780 C   0  0  0  0  0  0  0  0  0  0  0  0
   44.9790   37.1170   44.5540 F   0  0  0  0  0  0  0  0  0  0  0  0
   43.3140   35.6920   44.1010 F   0  0  0  0  0  0  0  0  0  0  0  0
   44.3160   35.6030   46.1080 F   0  0  0  0  0  0  0  0  0  0  0  0
   46.9060   33.2110   37.7030 C   0  0  0  0  0  0  0  0  0  0  0  0
   45.5640   32.8720   37.5690 C   0  0  0  0  0  0  0  0  0  0  0  0
   45.3860   32.1990   36.3760 C   0  0  0  0  0  0  0  0  0  0  0  0
   46.6520   32.1660   35.8390 C   0  0  0  0  0  0  0  0  0  0  0  0
   47.5160   32.7640   36.6370 O   0  0  0  0  0  0  0  0  0  0  0  0
   44.7250   33.0680   38.2540 H   0  0  0  0  0  0  0  0  0  0  0  0
   44.4760   31.7890   35.9500 H   0  0  0  0  0  0  0  0  0  0  0  0
   46.8940   30.2110   34.3830 C   0  0  0  0  0  0  0  0  0  0  0  0
   47.0620   31.5660   34.5620 C   0  0  0  0  0  0  0  0  0  0  0  0
   47.6100   32.3700   33.5630 C   0  0  0  0  0  0  0  0  0  0  0  0
   47.7430   33.4420   33.7070 H   0  0  0  0  0  0  0  0  0  0  0  0
   47.9870   31.7680   32.3670 C   0  0  0  0  0  0  0  0  0  0  0  0
   48.5360   32.2510   31.2260 N   0  0  0  0  0  0  0  0  0  0  0  0
   48.7980   33.2520   31.0200 H   0  0  0  0  0  0  0  0  0  0  0  0
   48.6970   31.2380   30.3810 N   0  0  0  0  0  0  0  0  0  0  0  0
   48.2610   30.0780   30.9460 C   0  0  0  0  0  0  0  0  0  0  0  0
   48.2510   29.0760   30.5320 H   0  0  0  0  0  0  0  0  0  0  0  0
   47.8030   30.4090   32.2240 C   0  0  0  0  0  0  0  0  0  0  0  0
   47.2670   29.5950   33.1910 C   0  0  0  0  0  0  0  0  0  0  0  0
  2  1  1  0  0  0  0
  2  3  1  0  0  0  0
  3 15  1  0  0  0  0
  4  3  2  0  0  0  0
  4  8  1  0  0  0  0
  5  4  1  0  0  0  0
  6  7  1  0  0  0  0
  6  5  2  0  0  0  0
  7  2  2  0  0  0  0
  9  5  1  0  0  0  0
 10  6  1  0  0  0  0
 11 12  1  0  0  0  0
 11 17  1  0  0  0  0
 12 18  1  0  0  0  0
 13 19  1  0  0  0  0
 13 12  2  0  0  0  0
 14 13  1  0  0  0  0
 15 14  2  0  0  0  0
 15 16  1  0  0  0  0
 16 11  2  0  0  0  0
 19 22  1  0  0  0  0
 20 19  1  0  0  0  0
 21 19  1  0  0  0  0
 23  7  1  0  0  0  0
 24 23  2  0  0  0  0
 24 28  1  0  0  0  0
 25 24  1  0  0  0  0
 26 25  2  0  0  0  0
 26 27  1  0  0  0  0
 27 23  1  0  0  0  0
 29 25  1  0  0  0  0
 30 31  1  0  0  0  0
 31 26  1  0  0  0  0
 32 33  1  0  0  0  0
 32 31  2  0  0  0  0
 34 32  1  0  0  0  0
 35 34  1  0  0  0  0
 36 35  1  0  0  0  0
 37 38  2  0  0  0  0
 37 35  1  0  0  0  0
 38 40  1  0  0  0  0
 39 38  1  0  0  0  0
 40 34  2  0  0  0  0
 40 41  1  0  0  0  0
 41 30  2  0  0  0  0
M  END
>  <minimizedAffinity>
-7.103374

>  <minimizedRMSD>
2.54663968

$$$$
