
 OpenBabel03242522273D

 41 45  0  0  0  0  0  0  0  0999 V2000
   45.5930   29.8860   41.2720 C   0  0  0  0  0  0  0  0  0  0  0  0
   44.7190   28.9050   41.7060 C   0  0  0  0  0  0  0  0  0  0  0  0
   44.1950   28.0520   40.7670 C   0  0  0  0  0  0  0  0  0  0  0  0
   44.5120   28.1430   39.4200 C   0  0  0  0  0  0  0  0  0  0  0  0
   45.4070   29.1630   39.0380 C   0  0  0  0  0  0  0  0  0  0  0  0
   45.9380   30.0280   39.9640 C   0  0  0  0  0  0  0  0  0  0  0  0
   44.3630   28.6650   42.6700 H   0  0  0  0  0  0  0  0  0  0  0  0
   43.4910   27.2430   41.0270 H   0  0  0  0  0  0  0  0  0  0  0  0
   44.0600   27.4260   38.7270 H   0  0  0  0  0  0  0  0  0  0  0  0
   45.5700   29.1200   37.9710 H   0  0  0  0  0  0  0  0  0  0  0  0
   48.0670   30.6940   39.1120 C   0  0  0  0  0  3  0  0  0  0  0  0
   46.6830   30.9830   39.2020 C   0  0  0  0  0  0  0  0  0  0  0  0
   46.1900   32.1730   38.6120 C   0  0  0  0  0  0  0  0  0  0  0  0
   45.1290   32.3320   38.7180 H   0  0  0  0  0  0  0  0  0  0  0  0
   47.0990   32.9900   37.9750 C   0  0  0  0  0  0  0  0  0  0  0  0
   46.8990   34.1600   37.3410 N   0  0  0  0  0  0  0  0  0  0  0  0
   45.9970   34.6530   37.2250 H   0  0  0  0  0  0  0  0  0  0  0  0
   48.0760   34.5760   36.8830 N   0  0  0  0  0  0  0  0  0  0  0  0
   49.0560   33.7220   37.1920 C   0  0  0  0  0  0  0  0  0  0  0  0
   50.1130   33.7220   36.9940 H   0  0  0  0  0  0  0  0  0  0  0  0
   48.4440   32.7000   37.8920 C   0  0  0  0  0  0  0  0  0  0  0  0
   48.9320   31.5420   38.4640 C   0  0  0  0  0  3  0  0  0  0  0  0
   44.5680   32.3690   42.0450 F   0  0  0  0  0  0  0  0  0  0  0  0
   45.7670   31.9990   42.5890 C   0  0  0  0  0  0  0  0  0  0  0  0
   46.4040   32.8120   43.4700 C   0  0  0  0  0  0  0  0  0  0  0  0
   47.5650   32.3240   44.0330 C   0  0  0  0  0  0  0  0  0  0  0  0
   48.0650   31.0770   43.7350 C   0  0  0  0  0  0  0  0  0  0  0  0
   47.3540   30.3260   42.8380 C   0  0  0  0  0  0  0  0  0  0  0  0
   46.2060   30.7570   42.2420 C   0  0  0  0  0  0  0  0  0  0  0  0
   47.9910   33.0760   44.7240 H   0  0  0  0  0  0  0  0  0  0  0  0
   48.9660   30.9240   44.2930 H   0  0  0  0  0  0  0  0  0  0  0  0
   47.9350   29.4470   42.8750 H   0  0  0  0  0  0  0  0  0  0  0  0
   45.2200   36.4010   43.3140 C   0  0  0  0  0  0  0  0  0  0  0  0
   45.8180   35.1860   42.9400 C   0  0  0  0  0  0  0  0  0  0  0  0
   45.8050   34.1010   43.7920 C   0  0  0  0  0  0  0  0  0  0  0  0
   45.1780   34.3050   44.9920 N   0  0  0  0  0  0  0  0  0  0  0  0
   44.6150   35.4670   45.3320 C   0  0  0  0  0  0  0  0  0  0  0  0
   44.6350   36.5130   44.4960 N   0  0  0  0  0  0  0  0  0  0  0  0
   45.3470   37.1120   42.4990 H   0  0  0  0  0  0  0  0  0  0  0  0
   46.3230   34.9700   42.0050 H   0  0  0  0  0  0  0  0  0  0  0  0
   44.1220   35.6210   46.2790 H   0  0  0  0  0  0  0  0  0  0  0  0
  1  2  1  0  0  0  0
  1 29  1  0  0  0  0
  2  7  1  0  0  0  0
  3  8  1  0  0  0  0
  3  2  2  0  0  0  0
  4  3  1  0  0  0  0
  5  4  2  0  0  0  0
  5  6  1  0  0  0  0
  6  1  2  0  0  0  0
  9  4  1  0  0  0  0
 10  5  1  0  0  0  0
 11 12  1  0  0  0  0
 12  6  1  0  0  0  0
 13 14  1  0  0  0  0
 13 12  2  0  0  0  0
 15 13  1  0  0  0  0
 16 15  1  0  0  0  0
 17 16  1  0  0  0  0
 18 19  2  0  0  0  0
 18 16  1  0  0  0  0
 19 21  1  0  0  0  0
 20 19  1  0  0  0  0
 21 15  2  0  0  0  0
 21 22  1  0  0  0  0
 22 11  2  0  0  0  0
 23 24  1  0  0  0  0
 24 25  1  0  0  0  0
 25 35  1  0  0  0  0
 25 26  2  0  0  0  0
 26 30  1  0  0  0  0
 27 26  1  0  0  0  0
 27 31  1  0  0  0  0
 28 32  1  0  0  0  0
 28 27  2  0  0  0  0
 29 24  2  0  0  0  0
 29 28  1  0  0  0  0
 33 38  1  0  0  0  0
 34 33  2  0  0  0  0
 34 35  1  0  0  0  0
 35 36  2  0  0  0  0
 36 37  1  0  0  0  0
 37 41  1  0  0  0  0
 38 37  2  0  0  0  0
 39 33  1  0  0  0  0
 40 34  1  0  0  0  0
M  END
>  <minimizedAffinity>
-4.68266773

>  <minimizedRMSD>
3.89474964

$$$$
