
 OpenBabel03242522203D

 48 52  0  0  0  0  0  0  0  0999 V2000
   42.2490   34.8980   39.9440 C   0  0  0  0  0  0  0  0  0  0  0  0
   41.8380   35.0240   38.6480 C   0  0  0  0  0  0  0  0  0  0  0  0
   40.7110   34.4570   38.0760 C   0  0  0  0  0  0  0  0  0  0  0  0
   39.9550   33.6980   38.9320 C   0  0  0  0  0  0  0  0  0  0  0  0
   40.3580   33.5640   40.2370 C   0  0  0  0  0  0  0  0  0  0  0  0
   41.4520   34.1280   40.7480 N   0  0  0  0  0  0  0  0  0  0  0  0
   42.4960   35.6450   38.0340 H   0  0  0  0  0  0  0  0  0  0  0  0
   40.4780   34.6170   37.0520 H   0  0  0  0  0  0  0  0  0  0  0  0
   39.4610   32.7190   41.0690 C   0  0  0  0  0  0  0  0  0  0  0  0
   38.1190   33.0820   40.8190 F   0  0  0  0  0  0  0  0  0  0  0  0
   39.7650   32.7430   42.4010 F   0  0  0  0  0  0  0  0  0  0  0  0
   39.5410   31.3950   40.6720 F   0  0  0  0  0  0  0  0  0  0  0  0
   43.4040   35.4520   40.6170 C   0  0  0  0  0  0  0  0  0  0  0  0
   44.3290   34.9640   40.2410 H   0  0  0  0  0  0  0  0  0  0  0  0
   43.4940   36.5210   40.3210 H   0  0  0  0  0  0  0  0  0  0  0  0
   43.4170   35.3700   42.1100 C   0  0  0  0  0  0  0  0  0  0  0  0
   43.2720   36.3570   42.5870 H   0  0  0  0  0  0  0  0  0  0  0  0
   42.5530   34.7400   42.4130 H   0  0  0  0  0  0  0  0  0  0  0  0
   46.6240   33.5990   42.6610 C   0  0  0  0  0  0  0  0  0  0  0  0
   46.7500   33.8000   43.9960 C   0  0  0  0  0  0  0  0  0  0  0  0
   45.2320   34.7710   44.3740 S   0  0  0  0  0  0  0  0  0  0  0  0
   44.6710   34.7340   42.6020 C   0  0  0  0  0  0  0  0  0  0  0  0
   45.5480   34.1270   42.1590 N   0  0  0  0  0  0  0  0  0  0  0  0
   47.5430   33.4660   44.6320 H   0  0  0  0  0  0  0  0  0  0  0  0
   49.3310   32.6730   40.2140 C   0  0  0  0  0  0  0  0  0  0  0  0
   48.4300   33.4580   40.9550 C   0  0  0  0  0  0  0  0  0  0  0  0
   47.5970   32.8570   41.8440 C   0  0  0  0  0  0  0  0  0  0  0  0
   47.7020   31.4620   41.9600 N   0  0  0  0  0  0  0  0  0  0  0  0
   48.5800   30.7610   41.2280 C   0  0  0  0  0  0  0  0  0  0  0  0
   49.3940   31.3590   40.3580 N   0  0  0  0  0  0  0  0  0  0  0  0
   50.0160   33.1070   39.4920 H   0  0  0  0  0  0  0  0  0  0  0  0
   48.5010   29.7070   41.4670 H   0  0  0  0  0  0  0  0  0  0  0  0
   48.4530   34.8650   40.7150 N   0  0  0  0  0  0  0  0  0  0  0  0
   47.8090   34.9490   39.8900 H   0  0  0  0  0  0  0  0  0  0  0  0
   49.0170   35.4910   41.3040 H   0  0  0  0  0  0  0  0  0  0  0  0
   38.4730   32.9230   38.2750 S   0  0  0  0  0  0  0  0  0  0  0  0
   37.9810   31.3490   36.1690 C   0  0  0  0  0  3  0  0  0  0  0  0
   38.8310   31.5030   37.2710 C   0  0  0  0  0  0  0  0  0  0  0  0
   39.8340   30.5700   37.4720 C   0  0  0  0  0  0  0  0  0  0  0  0
   40.4260   30.7860   38.3470 H   0  0  0  0  0  0  0  0  0  0  0  0
   39.9990   29.5080   36.6060 C   0  0  0  0  0  0  0  0  0  0  0  0
   40.9080   28.5170   36.6430 N   0  0  0  0  0  0  0  0  0  0  0  0
   41.6550   28.4080   37.3720 H   0  0  0  0  0  0  0  0  0  0  0  0
   40.7000   27.7090   35.6130 N   0  0  0  0  0  0  0  0  0  0  0  0
   39.6430   28.1920   34.9060 C   0  0  0  0  0  0  0  0  0  0  0  0
   39.1940   27.7850   34.0010 H   0  0  0  0  0  0  0  0  0  0  0  0
   39.1790   29.3290   35.5110 C   0  0  0  0  0  0  0  0  0  0  0  0
   38.1930   30.2640   35.3320 C   0  0  0  0  0  3  0  0  0  0  0  0
  1 13  1  0  0  0  0
  1  6  1  0  0  0  0
  2  1  2  0  0  0  0
  3  2  1  0  0  0  0
  3  4  2  0  0  0  0
  4  5  1  0  0  0  0
  5  6  2  0  0  0  0
  5  9  1  0  0  0  0
  7  2  1  0  0  0  0
  8  3  1  0  0  0  0
  9 11  1  0  0  0  0
 10  9  1  0  0  0  0
 12  9  1  0  0  0  0
 13 16  1  0  0  0  0
 14 13  1  0  0  0  0
 15 13  1  0  0  0  0
 16 18  1  0  0  0  0
 16 17  1  0  0  0  0
 16 22  1  0  0  0  0
 19 20  2  0  0  0  0
 20 21  1  0  0  0  0
 20 24  1  0  0  0  0
 22 21  1  0  0  0  0
 23 22  2  0  0  0  0
 23 19  1  0  0  0  0
 25 30  2  0  0  0  0
 25 26  1  0  0  0  0
 26 27  2  0  0  0  0
 27 28  1  0  0  0  0
 27 19  1  0  0  0  0
 29 32  1  0  0  0  0
 29 28  2  0  0  0  0
 30 29  1  0  0  0  0
 31 25  1  0  0  0  0
 33 26  1  0  0  0  0
 33 35  1  0  0  0  0
 34 33  1  0  0  0  0
 36  4  1  0  0  0  0
 37 38  1  0  0  0  0
 38 39  2  0  0  0  0
 38 36  1  0  0  0  0
 39 40  1  0  0  0  0
 41 42  1  0  0  0  0
 41 39  1  0  0  0  0
 42 43  1  0  0  0  0
 44 42  1  0  0  0  0
 45 47  1  0  0  0  0
 45 44  2  0  0  0  0
 46 45  1  0  0  0  0
 47 41  2  0  0  0  0
 48 47  1  0  0  0  0
 48 37  2  0  0  0  0
M  END
>  <minimizedAffinity>
-5.78420925

>  <minimizedRMSD>
0.615952492

$$$$
