
 OpenBabel03242519253D

 43 47  0  0  0  0  0  0  0  0999 V2000
   47.9260   33.7920   42.8930 C   0  0  0  0  0  0  0  0  0  0  0  0
   48.5820   35.0020   42.6570 C   0  0  0  0  0  0  0  0  0  0  0  0
   49.9490   35.0200   42.3350 C   0  0  0  0  0  0  0  0  0  0  0  0
   50.5630   33.7870   42.2740 N   0  0  0  0  0  0  0  0  0  0  0  0
   49.8880   32.6230   42.5130 C   0  0  0  0  0  0  0  0  0  0  0  0
   48.5930   32.6380   42.8150 N   0  0  0  0  0  0  0  0  0  0  0  0
   48.1840   36.0080   42.6820 H   0  0  0  0  0  0  0  0  0  0  0  0
   50.5190   35.9120   42.1410 H   0  0  0  0  0  0  0  0  0  0  0  0
   46.4930   33.9080   43.2270 C   0  0  0  0  0  0  0  0  0  0  0  0
   45.7790   34.9010   42.4260 C   0  0  0  0  0  0  0  0  0  0  0  0
   45.3160   36.0900   43.1870 C   0  0  0  0  0  0  0  0  0  0  0  0
   44.5300   35.7410   44.4390 C   0  0  0  0  0  0  0  0  0  0  0  0
   44.9830   34.4720   45.1190 C   0  0  0  0  0  0  0  0  0  0  0  0
   46.4180   34.1690   44.7420 C   0  0  0  0  0  0  0  0  0  0  0  0
   46.0650   32.8700   43.1030 H   0  0  0  0  0  0  0  0  0  0  0  0
   44.8620   34.4390   41.9610 H   0  0  0  0  0  0  0  0  0  0  0  0
   46.4410   35.2640   41.6200 H   0  0  0  0  0  0  0  0  0  0  0  0
   46.0570   36.8660   43.3930 H   0  0  0  0  0  0  0  0  0  0  0  0
   44.5510   36.5990   42.5260 H   0  0  0  0  0  0  0  0  0  0  0  0
   44.7070   36.5680   45.1800 H   0  0  0  0  0  0  0  0  0  0  0  0
   43.4350   35.7300   44.2790 H   0  0  0  0  0  0  0  0  0  0  0  0
   44.8720   34.4950   46.2020 H   0  0  0  0  0  0  0  0  0  0  0  0
   44.3830   33.6450   44.6600 H   0  0  0  0  0  0  0  0  0  0  0  0
   47.0480   35.0880   44.9000 H   0  0  0  0  0  0  0  0  0  0  0  0
   46.7750   33.2940   45.2980 H   0  0  0  0  0  0  0  0  0  0  0  0
   50.6860   31.4070   42.4130 C   0  0  0  0  0  0  0  0  0  0  0  0
   51.4230   31.2410   41.2890 N   0  0  0  0  0  0  0  0  0  0  0  0
   52.0950   30.0800   41.3560 C   0  0  0  0  0  0  0  0  0  0  0  0
   51.7620   29.5130   42.5610 N   0  0  0  0  0  0  0  0  0  0  0  0
   50.9090   30.3230   43.1920 N   0  0  0  0  0  0  0  0  0  0  0  0
   52.7750   29.6090   40.6640 H   0  0  0  0  0  0  0  0  0  0  0  0
   51.3210   27.5070   43.9390 C   0  0  0  0  0  3  0  0  0  0  0  0
   52.1730   28.2890   43.1610 C   0  0  0  0  0  0  0  0  0  0  0  0
   53.4590   27.8140   42.9940 C   0  0  0  0  0  0  0  0  0  0  0  0
   54.1230   28.4170   42.3910 H   0  0  0  0  0  0  0  0  0  0  0  0
   53.9190   26.6370   43.5490 C   0  0  0  0  0  0  0  0  0  0  0  0
   55.1300   26.0430   43.4810 N   0  0  0  0  0  0  0  0  0  0  0  0
   55.9350   26.4370   42.9550 H   0  0  0  0  0  0  0  0  0  0  0  0
   55.0560   24.9240   44.1900 N   0  0  0  0  0  0  0  0  0  0  0  0
   53.8060   24.7860   44.7170 C   0  0  0  0  0  0  0  0  0  0  0  0
   53.4320   23.9890   45.3340 H   0  0  0  0  0  0  0  0  0  0  0  0
   53.0540   25.8680   44.3240 C   0  0  0  0  0  0  0  0  0  0  0  0
   51.7750   26.3310   44.4950 C   0  0  0  0  0  3  0  0  0  0  0  0
  1  9  1  0  0  0  0
  2  7  1  0  0  0  0
  2  1  2  0  0  0  0
  3  2  1  0  0  0  0
  4  3  2  0  0  0  0
  4  5  1  0  0  0  0
  5  6  2  0  0  0  0
  6  1  1  0  0  0  0
  8  3  1  0  0  0  0
  9 14  1  0  0  0  0
 10 11  1  0  0  0  0
 10  9  1  0  0  0  0
 11 18  1  0  0  0  0
 11 12  1  0  0  0  0
 12 13  1  0  0  0  0
 12 20  1  0  0  0  0
 13 22  1  0  0  0  0
 14 24  1  0  0  0  0
 14 13  1  0  0  0  0
 14 25  1  0  0  0  0
 15  9  1  0  0  0  0
 16 10  1  0  0  0  0
 17 10  1  0  0  0  0
 19 11  1  0  0  0  0
 21 12  1  0  0  0  0
 23 13  1  0  0  0  0
 26  5  1  0  0  0  0
 26 30  2  0  0  0  0
 27 28  2  0  0  0  0
 27 26  1  0  0  0  0
 28 29  1  0  0  0  0
 29 33  1  0  0  0  0
 29 30  1  0  0  0  0
 31 28  1  0  0  0  0
 32 43  1  0  0  0  0
 33 32  2  0  0  0  0
 34 33  1  0  0  0  0
 34 36  2  0  0  0  0
 35 34  1  0  0  0  0
 36 42  1  0  0  0  0
 37 36  1  0  0  0  0
 37 39  1  0  0  0  0
 38 37  1  0  0  0  0
 39 40  2  0  0  0  0
 40 41  1  0  0  0  0
 42 43  2  0  0  0  0
 42 40  1  0  0  0  0
M  END
>  <minimizedAffinity>
-4.21222878

>  <minimizedRMSD>
0.864823163

$$$$
