
 OpenBabel03242519253D

 43 47  0  0  0  0  0  0  0  0999 V2000
   47.8820   33.7190   42.8910 C   0  0  0  0  0  0  0  0  0  0  0  0
   48.5840   34.9140   42.7080 C   0  0  0  0  0  0  0  0  0  0  0  0
   49.9490   34.8930   42.3800 C   0  0  0  0  0  0  0  0  0  0  0  0
   50.5140   33.6420   42.2570 N   0  0  0  0  0  0  0  0  0  0  0  0
   49.7950   32.4950   42.4440 C   0  0  0  0  0  0  0  0  0  0  0  0
   48.5030   32.5450   42.7540 N   0  0  0  0  0  0  0  0  0  0  0  0
   48.2260   35.9310   42.7840 H   0  0  0  0  0  0  0  0  0  0  0  0
   50.5530   35.7710   42.2250 H   0  0  0  0  0  0  0  0  0  0  0  0
   46.4560   33.8760   43.2380 C   0  0  0  0  0  0  0  0  0  0  0  0
   45.7590   34.8780   42.4340 C   0  0  0  0  0  0  0  0  0  0  0  0
   45.3340   36.0860   43.1880 C   0  0  0  0  0  0  0  0  0  0  0  0
   44.5530   35.7700   44.4510 C   0  0  0  0  0  0  0  0  0  0  0  0
   44.9810   34.4970   45.1400 C   0  0  0  0  0  0  0  0  0  0  0  0
   46.4040   34.1540   44.7510 C   0  0  0  0  0  0  0  0  0  0  0  0
   46.0010   32.8470   43.1300 H   0  0  0  0  0  0  0  0  0  0  0  0
   44.8260   34.4350   41.9840 H   0  0  0  0  0  0  0  0  0  0  0  0
   46.4210   35.2160   41.6180 H   0  0  0  0  0  0  0  0  0  0  0  0
   46.0960   36.8450   43.3780 H   0  0  0  0  0  0  0  0  0  0  0  0
   44.5750   36.6080   42.5290 H   0  0  0  0  0  0  0  0  0  0  0  0
   44.7590   36.6000   45.1810 H   0  0  0  0  0  0  0  0  0  0  0  0
   43.4570   35.7850   44.3030 H   0  0  0  0  0  0  0  0  0  0  0  0
   44.8830   34.5340   46.2240 H   0  0  0  0  0  0  0  0  0  0  0  0
   44.3560   33.6810   44.6960 H   0  0  0  0  0  0  0  0  0  0  0  0
   47.0590   35.0580   44.8930 H   0  0  0  0  0  0  0  0  0  0  0  0
   46.7440   33.2760   45.3130 H   0  0  0  0  0  0  0  0  0  0  0  0
   50.5450   31.2540   42.2820 C   0  0  0  0  0  0  0  0  0  0  0  0
   51.5630   31.2590   41.3890 N   0  0  0  0  0  0  0  0  0  0  0  0
   52.1460   30.0490   41.3630 C   0  0  0  0  0  0  0  0  0  0  0  0
   51.4670   29.2760   42.2690 N   0  0  0  0  0  0  0  0  0  0  0  0
   50.5000   30.0130   42.8190 N   0  0  0  0  0  0  0  0  0  0  0  0
   52.9770   29.6720   40.7880 H   0  0  0  0  0  0  0  0  0  0  0  0
   50.6410   26.9590   42.5360 C   0  0  0  0  0  3  0  0  0  0  0  0
   51.6470   27.9170   42.6560 C   0  0  0  0  0  0  0  0  0  0  0  0
   52.8500   27.4830   43.1800 C   0  0  0  0  0  0  0  0  0  0  0  0
   53.6310   28.2220   43.2740 H   0  0  0  0  0  0  0  0  0  0  0  0
   53.0880   26.1820   43.5730 C   0  0  0  0  0  0  0  0  0  0  0  0
   54.1910   25.6050   44.0950 N   0  0  0  0  0  0  0  0  0  0  0  0
   55.0740   26.1190   44.2800 H   0  0  0  0  0  0  0  0  0  0  0  0
   53.9030   24.3270   44.3010 N   0  0  0  0  0  0  0  0  0  0  0  0
   52.6220   24.0670   43.9170 C   0  0  0  0  0  0  0  0  0  0  0  0
   52.0950   23.1310   43.9570 H   0  0  0  0  0  0  0  0  0  0  0  0
   52.0720   25.2370   43.4450 C   0  0  0  0  0  0  0  0  0  0  0  0
   50.8740   25.6580   42.9280 C   0  0  0  0  0  3  0  0  0  0  0  0
  1  9  1  0  0  0  0
  2  7  1  0  0  0  0
  2  1  2  0  0  0  0
  3  2  1  0  0  0  0
  4  3  2  0  0  0  0
  4  5  1  0  0  0  0
  5  6  2  0  0  0  0
  6  1  1  0  0  0  0
  8  3  1  0  0  0  0
  9 14  1  0  0  0  0
 10 11  1  0  0  0  0
 10  9  1  0  0  0  0
 11 18  1  0  0  0  0
 11 12  1  0  0  0  0
 12 13  1  0  0  0  0
 12 20  1  0  0  0  0
 13 22  1  0  0  0  0
 14 24  1  0  0  0  0
 14 13  1  0  0  0  0
 14 25  1  0  0  0  0
 15  9  1  0  0  0  0
 16 10  1  0  0  0  0
 17 10  1  0  0  0  0
 19 11  1  0  0  0  0
 21 12  1  0  0  0  0
 23 13  1  0  0  0  0
 26  5  1  0  0  0  0
 26 30  2  0  0  0  0
 27 26  1  0  0  0  0
 28 27  2  0  0  0  0
 28 29  1  0  0  0  0
 29 33  1  0  0  0  0
 29 30  1  0  0  0  0
 31 28  1  0  0  0  0
 32 33  2  0  0  0  0
 32 43  1  0  0  0  0
 33 34  1  0  0  0  0
 34 35  1  0  0  0  0
 34 36  2  0  0  0  0
 36 37  1  0  0  0  0
 37 38  1  0  0  0  0
 37 39  1  0  0  0  0
 40 41  1  0  0  0  0
 40 39  2  0  0  0  0
 42 36  1  0  0  0  0
 42 40  1  0  0  0  0
 43 42  2  0  0  0  0
M  END
>  <minimizedAffinity>
-4.15759993

>  <minimizedRMSD>
0.0952281281

$$$$
