
 OpenBabel03242519163D

 45 49  0  0  1  0  0  0  0  0999 V2000
   48.3400   34.2300   40.9270 C   0  0  0  0  0  0  0  0  0  0  0  0
   47.8790   34.3800   39.6390 C   0  0  0  0  0  0  0  0  0  0  0  0
   48.2380   33.5160   38.6020 C   0  0  0  0  0  0  0  0  0  0  0  0
   49.0820   32.5040   38.9510 N   0  0  0  0  0  0  0  0  0  0  0  0
   49.5280   32.3630   40.2080 C   0  0  0  0  0  0  0  0  0  0  0  0
   49.1620   33.2120   41.1740 N   0  0  0  0  0  0  0  0  0  0  0  0
   47.2150   35.2030   39.4420 H   0  0  0  0  0  0  0  0  0  0  0  0
   47.8570   33.6630   37.6000 H   0  0  0  0  0  0  0  0  0  0  0  0
   50.4300   31.2420   40.6050 C   0  0  2  0  0  0  0  0  0  0  0  0
   51.1860   31.3480   41.8920 C   0  0  0  0  0  0  0  0  0  0  0  0
   51.8940   31.5090   40.5400 C   0  0  1  0  0  0  0  0  0  0  0  0
   50.0600   30.2330   40.3320 H   0  0  0  0  0  0  0  0  0  0  0  0
   51.1400   32.2940   42.4700 H   0  0  0  0  0  0  0  0  0  0  0  0
   51.3800   30.4620   42.5090 H   0  0  0  0  0  0  0  0  0  0  0  0
   52.2460   32.5030   40.2520 H   0  0  0  0  0  0  0  0  0  0  0  0
   52.1930   29.3070   39.4580 C   0  0  0  0  0  3  0  0  0  0  0  0
   52.7320   30.3250   40.2060 C   0  0  0  0  0  0  0  0  0  0  0  0
   54.0380   30.2870   40.6650 C   0  0  0  0  0  0  0  0  0  0  0  0
   54.4930   31.0720   41.2570 H   0  0  0  0  0  0  0  0  0  0  0  0
   54.7510   29.1550   40.3130 C   0  0  0  0  0  0  0  0  0  0  0  0
   56.0140   28.7980   40.5830 N   0  0  0  0  0  0  0  0  0  0  0  0
   56.7660   29.2900   41.1260 H   0  0  0  0  0  0  0  0  0  0  0  0
   56.3290   27.6280   40.0670 N   0  0  0  0  0  0  0  0  0  0  0  0
   55.2420   27.1450   39.4060 C   0  0  0  0  0  0  0  0  0  0  0  0
   55.0800   26.2280   38.8500 H   0  0  0  0  0  0  0  0  0  0  0  0
   54.2490   28.1130   39.5660 C   0  0  0  0  0  0  0  0  0  0  0  0
   52.9360   28.1960   39.1290 C   0  0  0  0  0  3  0  0  0  0  0  0
   47.9480   35.1290   41.9930 C   0  0  0  0  0  0  0  0  0  0  0  0
   48.5720   35.0230   42.8940 H   0  0  0  0  0  0  0  0  0  0  0  0
   48.0960   36.1800   41.6320 H   0  0  0  0  0  0  0  0  0  0  0  0
   46.4930   34.9580   42.3010 C   0  0  0  0  0  0  0  0  0  0  0  0
   45.9260   35.9220   42.2310 H   0  0  0  0  0  0  0  0  0  0  0  0
   46.0240   34.2770   41.5800 H   0  0  0  0  0  0  0  0  0  0  0  0
   44.5520   36.4260   44.0260 Cl  0  0  0  0  0  0  0  0  0  0  0  0
   45.3870   34.9760   44.5540 C   0  0  0  0  0  0  0  0  0  0  0  0
   46.2480   34.3960   43.6560 C   0  0  0  0  0  0  0  0  0  0  0  0
   46.9000   33.2410   44.0650 C   0  0  0  0  0  0  0  0  0  0  0  0
   46.6860   32.7050   45.3260 C   0  0  0  0  0  0  0  0  0  0  0  0
   45.8020   33.3230   46.2130 C   0  0  0  0  0  0  0  0  0  0  0  0
   45.1630   34.4600   45.8040 C   0  0  0  0  0  0  0  0  0  0  0  0
   47.5970   32.7270   43.4080 H   0  0  0  0  0  0  0  0  0  0  0  0
   47.2120   31.8030   45.6120 H   0  0  0  0  0  0  0  0  0  0  0  0
   45.6260   32.9130   47.2020 H   0  0  0  0  0  0  0  0  0  0  0  0
   44.2600   35.1480   46.6230 O   0  0  0  0  0  0  0  0  0  0  0  0
   43.4370   34.6820   47.0060 H   0  0  0  0  0  0  0  0  0  0  0  0
  1  6  1  0  0  0  0
  1 28  1  0  0  0  0
  2  1  2  0  0  0  0
  3  4  2  0  0  0  0
  3  2  1  0  0  0  0
  4  5  1  0  0  0  0
  5  9  1  0  0  0  0
  5  6  2  0  0  0  0
  7  2  1  0  0  0  0
  8  3  1  0  0  0  0
  9 12  1  6  0  0  0
  9 10  1  0  0  0  0
 10 13  1  0  0  0  0
 10 14  1  0  0  0  0
 11 15  1  6  0  0  0
 11  9  1  0  0  0  0
 11 10  1  0  0  0  0
 16 17  1  0  0  0  0
 17 11  1  0  0  0  0
 17 18  2  0  0  0  0
 18 19  1  0  0  0  0
 20 21  1  0  0  0  0
 20 18  1  0  0  0  0
 21 22  1  0  0  0  0
 23 21  1  0  0  0  0
 24 26  1  0  0  0  0
 24 23  2  0  0  0  0
 25 24  1  0  0  0  0
 26 20  2  0  0  0  0
 27 16  2  0  0  0  0
 27 26  1  0  0  0  0
 28 31  1  0  0  0  0
 28 29  1  0  0  0  0
 30 28  1  0  0  0  0
 31 36  1  0  0  0  0
 32 31  1  0  0  0  0
 33 31  1  0  0  0  0
 34 35  1  0  0  0  0
 35 40  1  0  0  0  0
 36 37  1  0  0  0  0
 36 35  2  0  0  0  0
 37 38  2  0  0  0  0
 38 42  1  0  0  0  0
 38 39  1  0  0  0  0
 39 43  1  0  0  0  0
 40 39  2  0  0  0  0
 40 44  1  0  0  0  0
 41 37  1  0  0  0  0
 44 45  1  0  0  0  0
M  END
>  <minimizedAffinity>
-5.85395718

>  <minimizedRMSD>
0.486000299

$$$$
