
 OpenBabel03252509123D

 35 39  0  0  0  0  0  0  0  0999 V2000
   47.5520   31.2250   44.7680 C   0  0  0  0  0  0  0  0  0  0  0  0
   47.4640   32.2840   43.8750 C   0  0  0  0  0  0  0  0  0  0  0  0
   46.7230   33.4080   44.1360 C   0  0  0  0  0  0  0  0  0  0  0  0
   46.0160   33.5240   45.3370 C   0  0  0  0  0  0  0  0  0  0  0  0
   45.2130   34.4510   45.9090 N   0  0  0  0  0  0  0  0  0  0  0  0
   44.8070   33.9920   47.1250 C   0  0  0  0  0  0  0  0  0  0  0  0
   45.3760   32.7840   47.2690 N   0  0  0  0  0  0  0  0  0  0  0  0
   46.1200   32.4610   46.2050 C   0  0  0  0  0  0  0  0  0  0  0  0
   46.8510   31.3220   45.9780 C   0  0  0  0  0  0  0  0  0  0  0  0
   48.1420   30.3350   44.5550 H   0  0  0  0  0  0  0  0  0  0  0  0
   45.0250   35.3340   45.3810 H   0  0  0  0  0  0  0  0  0  0  0  0
   44.1660   34.6400   47.6740 H   0  0  0  0  0  0  0  0  0  0  0  0
   46.8920   30.5140   46.7070 H   0  0  0  0  0  0  0  0  0  0  0  0
   48.2180   31.6180   40.3450 C   0  0  0  0  0  0  0  0  0  0  0  0
   49.5420   32.0540   40.2270 C   0  0  0  0  0  0  0  0  0  0  0  0
   50.1650   32.5760   41.3640 C   0  0  0  0  0  0  0  0  0  0  0  0
   49.4570   32.6350   42.5350 N   0  0  0  0  0  0  0  0  0  0  0  0
   48.1850   32.2050   42.6100 C   0  0  0  0  0  0  0  0  0  0  0  0
   47.5660   31.6990   41.5270 N   0  0  0  0  0  0  0  0  0  0  0  0
   47.7630   31.2190   39.4480 H   0  0  0  0  0  0  0  0  0  0  0  0
   50.1450   32.0360   39.3460 H   0  0  0  0  0  0  0  0  0  0  0  0
   51.1740   32.9510   41.4310 H   0  0  0  0  0  0  0  0  0  0  0  0
   46.6130   34.7740   42.9850 S   0  0  0  0  0  0  0  0  0  0  0  0
   45.0170   34.1390   40.7770 C   0  0  0  0  0  0  0  0  0  0  0  0
   45.1130   34.7080   42.0300 C   0  0  0  0  0  0  0  0  0  0  0  0
   43.9870   35.2670   42.5990 C   0  0  0  0  0  0  0  0  0  0  0  0
   44.0240   35.7220   43.5790 H   0  0  0  0  0  0  0  0  0  0  0  0
   42.8210   35.2190   41.8650 C   0  0  0  0  0  0  0  0  0  0  0  0
   41.5870   35.6920   42.1950 N   0  0  0  0  0  0  0  0  0  0  0  0
   41.2270   36.1900   43.0470 H   0  0  0  0  0  0  0  0  0  0  0  0
   40.7330   35.4430   41.2030 N   0  0  0  0  0  0  0  0  0  0  0  0
   41.4010   34.8070   40.2220 C   0  0  0  0  0  0  0  0  0  0  0  0
   41.0090   34.4610   39.2820 H   0  0  0  0  0  0  0  0  0  0  0  0
   42.7360   34.6440   40.6040 C   0  0  0  0  0  0  0  0  0  0  0  0
   43.8580   34.0830   40.0300 C   0  0  0  0  0  0  0  0  0  0  0  0
  1  9  1  0  0  0  0
  2  3  1  0  0  0  0
  2  1  2  0  0  0  0
  3  4  2  0  0  0  0
  4  5  1  0  0  0  0
  4  8  1  0  0  0  0
  5  6  1  0  0  0  0
  6  7  2  0  0  0  0
  6 12  1  0  0  0  0
  8  7  1  0  0  0  0
  9  8  2  0  0  0  0
  9 13  1  0  0  0  0
 10  1  1  0  0  0  0
 11  5  1  0  0  0  0
 14 19  1  0  0  0  0
 15 14  2  0  0  0  0
 15 16  1  0  0  0  0
 16 22  1  0  0  0  0
 16 17  2  0  0  0  0
 17 18  1  0  0  0  0
 18  2  1  0  0  0  0
 19 18  2  0  0  0  0
 20 14  1  0  0  0  0
 21 15  1  0  0  0  0
 23  3  1  0  0  0  0
 24 25  1  0  0  0  0
 25 26  2  0  0  0  0
 25 23  1  0  0  0  0
 26 27  1  0  0  0  0
 28 29  1  0  0  0  0
 28 26  1  0  0  0  0
 29 30  1  0  0  0  0
 31 29  1  0  0  0  0
 32 34  1  0  0  0  0
 32 31  2  0  0  0  0
 33 32  1  0  0  0  0
 34 28  2  0  0  0  0
 35 34  1  0  0  0  0
 35 24  2  0  0  0  0
M  END
>  <minimizedAffinity>
-6.0081234

>  <minimizedRMSD>
2.47661161

$$$$
