
 OpenBabel03242513053D

 38 42  0  0  0  0  0  0  0  0999 V2000
   46.1770   33.2790   41.3720 C   0  0  0  0  0  0  0  0  0  0  0  0
   47.3530   34.0030   41.2060 C   0  0  0  0  0  0  0  0  0  0  0  0
   48.1990   34.1000   42.3040 C   0  0  0  0  0  0  0  0  0  0  0  0
   47.8190   33.4830   43.4610 N   0  0  0  0  0  0  0  0  0  0  0  0
   46.6810   32.7950   43.5860 C   0  0  0  0  0  0  0  0  0  0  0  0
   45.8440   32.6830   42.5440 N   0  0  0  0  0  0  0  0  0  0  0  0
   45.4480   33.1400   40.5860 H   0  0  0  0  0  0  0  0  0  0  0  0
   46.2810   30.7990   44.9690 C   0  0  0  0  0  0  0  0  0  0  0  0
   46.3710   32.1760   44.8600 C   0  0  0  0  0  0  0  0  0  0  0  0
   46.1700   33.0220   45.9480 C   0  0  0  0  0  0  0  0  0  0  0  0
   45.8700   32.4760   47.1920 C   0  0  0  0  0  0  0  0  0  0  0  0
   45.6190   32.9860   48.4350 N   0  0  0  0  0  0  0  0  0  0  0  0
   45.3820   31.9040   49.2740 C   0  0  0  0  0  0  0  0  0  0  0  0
   45.4950   30.7790   48.5230 N   0  0  0  0  0  0  0  0  0  0  0  0
   45.7890   31.1070   47.2610 C   0  0  0  0  0  0  0  0  0  0  0  0
   45.9820   30.2410   46.2060 C   0  0  0  0  0  0  0  0  0  0  0  0
   46.4450   30.1620   44.0950 H   0  0  0  0  0  0  0  0  0  0  0  0
   46.2340   34.1010   45.8900 H   0  0  0  0  0  0  0  0  0  0  0  0
   45.6160   34.0120   48.6620 H   0  0  0  0  0  0  0  0  0  0  0  0
   45.1640   32.1050   50.3070 H   0  0  0  0  0  0  0  0  0  0  0  0
   45.9110   29.1680   46.2980 H   0  0  0  0  0  0  0  0  0  0  0  0
   49.4670   34.8620   42.1820 C   0  0  0  0  0  0  0  0  0  0  0  0
   49.3170   35.9240   41.2900 F   0  0  0  0  0  0  0  0  0  0  0  0
   49.8060   35.4200   43.3850 F   0  0  0  0  0  0  0  0  0  0  0  0
   50.4430   34.0080   41.7280 F   0  0  0  0  0  0  0  0  0  0  0  0
   47.6290   34.5800   39.9980 O   0  0  0  0  0  0  0  0  0  0  0  0
   48.0290   34.2150   37.7010 C   0  0  0  0  0  3  0  0  0  0  0  0
   48.1680   33.7720   39.0030 C   0  0  0  0  0  0  0  0  0  0  0  0
   48.8210   32.5760   39.2230 C   0  0  0  0  0  0  0  0  0  0  0  0
   48.9150   32.2580   40.2460 H   0  0  0  0  0  0  0  0  0  0  0  0
   49.2940   31.9010   38.1400 C   0  0  0  0  0  0  0  0  0  0  0  0
   49.9570   30.7280   38.0980 N   0  0  0  0  0  0  0  0  0  0  0  0
   50.2230   30.1320   38.9130 H   0  0  0  0  0  0  0  0  0  0  0  0
   50.2430   30.4090   36.8410 N   0  0  0  0  0  0  0  0  0  0  0  0
   49.7730   31.3670   36.0260 C   0  0  0  0  0  0  0  0  0  0  0  0
   49.7800   31.5180   34.9610 H   0  0  0  0  0  0  0  0  0  0  0  0
   49.1710   32.3170   36.8280 C   0  0  0  0  0  0  0  0  0  0  0  0
   48.5160   33.5140   36.6120 C   0  0  0  0  0  3  0  0  0  0  0  0
  1  6  1  0  0  0  0
  2  1  2  0  0  0  0
  2  3  1  0  0  0  0
  3  4  2  0  0  0  0
  4  5  1  0  0  0  0
  5  9  1  0  0  0  0
  6  5  2  0  0  0  0
  7  1  1  0  0  0  0
  8 16  1  0  0  0  0
  9  8  2  0  0  0  0
  9 10  1  0  0  0  0
 10 11  2  0  0  0  0
 11 15  1  0  0  0  0
 11 12  1  0  0  0  0
 12 19  1  0  0  0  0
 12 13  1  0  0  0  0
 13 20  1  0  0  0  0
 14 13  2  0  0  0  0
 15 14  1  0  0  0  0
 16 21  1  0  0  0  0
 16 15  2  0  0  0  0
 17  8  1  0  0  0  0
 18 10  1  0  0  0  0
 22  3  1  0  0  0  0
 22 24  1  0  0  0  0
 23 22  1  0  0  0  0
 25 22  1  0  0  0  0
 26  2  1  0  0  0  0
 27 28  1  0  0  0  0
 28 29  2  0  0  0  0
 28 26  1  0  0  0  0
 29 30  1  0  0  0  0
 31 29  1  0  0  0  0
 32 31  1  0  0  0  0
 32 33  1  0  0  0  0
 34 32  1  0  0  0  0
 35 37  1  0  0  0  0
 35 34  2  0  0  0  0
 36 35  1  0  0  0  0
 37 31  2  0  0  0  0
 38 37  1  0  0  0  0
 38 27  2  0  0  0  0
M  END
>  <minimizedAffinity>
-6.64837027

>  <minimizedRMSD>
2.93903112

$$$$
