
 OpenBabel03252509093D

 44 48  0  0  0  0  0  0  0  0999 V2000
   49.0180   32.3410   39.0310 C   0  0  0  0  0  0  0  0  0  0  0  0
   49.2190   32.4370   37.6860 C   0  0  0  0  0  0  0  0  0  0  0  0
   48.9440   33.6270   37.0320 C   0  0  0  0  0  0  0  0  0  0  0  0
   48.4670   34.7120   37.7290 C   0  0  0  0  0  0  0  0  0  0  0  0
   48.2480   34.6560   39.1040 C   0  0  0  0  0  0  0  0  0  0  0  0
   48.5340   33.4440   39.7400 C   0  0  0  0  0  0  0  0  0  0  0  0
   49.0910   33.7340   35.9790 H   0  0  0  0  0  0  0  0  0  0  0  0
   48.2350   35.6510   37.2950 H   0  0  0  0  0  0  0  0  0  0  0  0
   47.8840   35.4500   39.7030 H   0  0  0  0  0  0  0  0  0  0  0  0
   48.3730   33.3740   40.8080 H   0  0  0  0  0  0  0  0  0  0  0  0
   48.3540   28.6620   34.2730 Cl  0  0  0  0  0  0  0  0  0  0  0  0
   49.3670   29.6230   35.3200 C   0  0  0  0  0  0  0  0  0  0  0  0
   48.8520   30.6380   36.0600 C   0  0  0  0  0  0  0  0  0  0  0  0
   49.7290   31.3520   36.8590 C   0  0  0  0  0  0  0  0  0  0  0  0
   51.0690   31.0550   36.9070 C   0  0  0  0  0  0  0  0  0  0  0  0
   51.5720   30.0370   36.1620 C   0  0  0  0  0  0  0  0  0  0  0  0
   50.7070   29.3140   35.3590 C   0  0  0  0  0  0  0  0  0  0  0  0
   51.7040   31.6520   37.5490 H   0  0  0  0  0  0  0  0  0  0  0  0
   52.6260   29.8380   36.2310 H   0  0  0  0  0  0  0  0  0  0  0  0
   51.1410   28.5090   34.7800 H   0  0  0  0  0  0  0  0  0  0  0  0
   45.5120   32.0300   34.9390 C   0  0  0  0  0  0  0  0  0  0  0  0
   46.8820   31.7580   35.0110 C   0  0  0  0  0  0  0  0  0  0  0  0
   47.4300   30.9300   35.9770 C   0  0  0  0  0  0  0  0  0  0  0  0
   46.5230   30.4260   36.8220 N   0  0  0  0  0  0  0  0  0  0  0  0
   45.2140   30.6710   36.7710 C   0  0  0  0  0  0  0  0  0  0  0  0
   44.7120   31.4670   35.8380 N   0  0  0  0  0  0  0  0  0  0  0  0
   45.1590   32.6910   34.1520 H   0  0  0  0  0  0  0  0  0  0  0  0
   47.5590   32.2150   34.2760 H   0  0  0  0  0  0  0  0  0  0  0  0
   44.6620   30.1500   37.5640 H   0  0  0  0  0  0  0  0  0  0  0  0
   49.3130   30.9130   39.8780 S   0  0  0  0  0  0  0  0  0  0  0  0
   48.6260   29.7330   39.1450 O   0  0  0  0  0  0  0  0  0  0  0  0
   50.8020   30.6120   39.6940 O   0  0  0  0  0  0  0  0  0  0  0  0
   49.5470   30.1200   42.5600 C   0  0  0  0  0  3  0  0  0  0  0  0
   48.8120   30.5880   41.4800 C   0  0  0  0  0  0  0  0  0  0  0  0
   47.4610   30.7240   41.9000 C   0  0  0  0  0  0  0  0  0  0  0  0
   46.7610   31.0920   41.1250 H   0  0  0  0  0  0  0  0  0  0  0  0
   46.9170   30.4580   43.1370 C   0  0  0  0  0  0  0  0  0  0  0  0
   45.6740   30.5540   43.6230 N   0  0  0  0  0  0  0  0  0  0  0  0
   44.8450   30.8770   43.0790 H   0  0  0  0  0  0  0  0  0  0  0  0
   45.7420   30.1640   44.8770 N   0  0  0  0  0  0  0  0  0  0  0  0
   47.0000   29.8230   45.2010 C   0  0  0  0  0  0  0  0  0  0  0  0
   47.3630   29.4620   46.1660 H   0  0  0  0  0  0  0  0  0  0  0  0
   47.7890   30.0090   44.0700 C   0  0  0  0  0  0  0  0  0  0  0  0
   49.1310   29.8190   43.8310 C   0  0  0  0  0  3  0  0  0  0  0  0
  1  6  1  0  0  0  0
  1 30  1  0  0  0  0
  2  1  2  0  0  0  0
  3  2  1  0  0  0  0
  3  4  2  0  0  0  0
  4  5  1  0  0  0  0
  5  9  1  0  0  0  0
  5  6  2  0  0  0  0
  6 10  1  0  0  0  0
  7  3  1  0  0  0  0
  8  4  1  0  0  0  0
 11 12  1  0  0  0  0
 12 17  2  0  0  0  0
 12 13  1  0  0  0  0
 13 14  2  0  0  0  0
 14 15  1  0  0  0  0
 14  2  1  0  0  0  0
 15 18  1  0  0  0  0
 16 19  1  0  0  0  0
 16 15  2  0  0  0  0
 17 16  1  0  0  0  0
 20 17  1  0  0  0  0
 21 22  2  0  0  0  0
 21 26  1  0  0  0  0
 22 23  1  0  0  0  0
 23 13  1  0  0  0  0
 23 24  2  0  0  0  0
 25 24  1  0  0  0  0
 25 29  1  0  0  0  0
 26 25  2  0  0  0  0
 27 21  1  0  0  0  0
 28 22  1  0  0  0  0
 30 34  1  0  0  0  0
 31 30  2  0  0  0  0
 32 30  2  0  0  0  0
 33 44  1  0  0  0  0
 34 35  1  0  0  0  0
 34 33  2  0  0  0  0
 35 37  2  0  0  0  0
 36 35  1  0  0  0  0
 37 38  1  0  0  0  0
 37 43  1  0  0  0  0
 38 40  1  0  0  0  0
 39 38  1  0  0  0  0
 40 41  2  0  0  0  0
 41 42  1  0  0  0  0
 43 41  1  0  0  0  0
 44 43  2  0  0  0  0
M  END
>  <minimizedAffinity>
-3.89179969

>  <minimizedRMSD>
5.99692965

$$$$
