
 OpenBabel03252508313D

 35 38  0  0  1  0  0  0  0  0999 V2000
   44.3380   34.3890   41.9650 N   0  0  0  0  0  0  0  0  0  0  0  0
   44.5500   33.4110   40.9680 C   0  0  1  0  0  0  0  0  0  0  0  0
   43.9830   33.7150   39.6310 C   0  0  0  0  0  0  0  0  0  0  0  0
   42.7340   34.3500   39.6290 N   0  0  0  0  0  0  0  0  0  0  0  0
   42.4670   35.2710   40.6600 C   0  0  0  0  0  0  0  0  0  0  0  0
   43.6940   35.5770   41.4770 C   0  0  0  0  0  0  0  0  0  0  0  0
   44.0570   32.4650   41.3170 H   0  0  0  0  0  0  0  0  0  0  0  0
   43.9380   32.7900   39.0190 H   0  0  0  0  0  0  0  0  0  0  0  0
   44.7170   34.4050   39.1190 H   0  0  0  0  0  0  0  0  0  0  0  0
   42.2780   34.4590   38.7270 H   0  0  0  0  0  0  0  0  0  0  0  0
   41.6700   34.9320   41.3810 H   0  0  0  0  0  0  0  0  0  0  0  0
   42.0830   36.2190   40.2390 H   0  0  0  0  0  0  0  0  0  0  0  0
   44.4380   36.1810   40.8940 H   0  0  0  0  0  0  0  0  0  0  0  0
   43.3360   36.2470   42.2850 H   0  0  0  0  0  0  0  0  0  0  0  0
   46.8100   34.1270   40.4820 C   0  0  0  0  0  3  0  0  0  0  0  0
   45.9990   33.0370   40.7740 C   0  0  0  0  0  0  0  0  0  0  0  0
   46.5990   31.8000   40.8330 C   0  0  0  0  0  0  0  0  0  0  0  0
   45.8790   31.0090   41.0690 H   0  0  0  0  0  0  0  0  0  0  0  0
   47.9270   31.6580   40.6140 C   0  0  0  0  0  0  0  0  0  0  0  0
   48.6300   30.5210   40.6410 N   0  0  0  0  0  0  0  0  0  0  0  0
   48.3430   29.5210   40.8270 H   0  0  0  0  0  0  0  0  0  0  0  0
   49.8830   30.8140   40.3770 N   0  0  0  0  0  0  0  0  0  0  0  0
   49.9980   32.1260   40.1790 C   0  0  0  0  0  0  0  0  0  0  0  0
   50.8920   32.7090   39.9400 H   0  0  0  0  0  0  0  0  0  0  0  0
   48.7560   32.7200   40.3220 C   0  0  0  0  0  0  0  0  0  0  0  0
   48.1820   33.9560   40.2590 C   0  0  0  0  0  3  0  0  0  0  0  0
   44.6210   35.1970   44.1960 C   0  0  0  0  0  0  0  0  0  0  0  0
   44.7620   34.1250   43.2870 C   0  0  0  0  0  0  0  0  0  0  0  0
   45.2940   32.9380   43.7510 C   0  0  0  0  0  0  0  0  0  0  0  0
   45.6730   32.8110   45.0510 N   0  0  0  0  0  0  0  0  0  0  0  0
   45.5270   33.8620   45.9130 C   0  0  0  0  0  0  0  0  0  0  0  0
   45.0100   35.0320   45.4850 N   0  0  0  0  0  0  0  0  0  0  0  0
   44.2370   36.1900   44.0350 H   0  0  0  0  0  0  0  0  0  0  0  0
   45.3940   32.1250   43.0640 H   0  0  0  0  0  0  0  0  0  0  0  0
   45.8370   33.7370   46.9500 H   0  0  0  0  0  0  0  0  0  0  0  0
  1 28  1  0  0  0  0
  2  7  1  1  0  0  0
  2  1  1  0  0  0  0
  3  2  1  0  0  0  0
  4  3  1  0  0  0  0
  4  5  1  0  0  0  0
  5 11  1  0  0  0  0
  5  6  1  0  0  0  0
  6  1  1  0  0  0  0
  6 14  1  0  0  0  0
  8  3  1  0  0  0  0
  9  3  1  0  0  0  0
 10  4  1  0  0  0  0
 12  5  1  0  0  0  0
 13  6  1  0  0  0  0
 15 16  1  0  0  0  0
 16 17  2  0  0  0  0
 16  2  1  0  0  0  0
 17 18  1  0  0  0  0
 19 20  1  0  0  0  0
 19 17  1  0  0  0  0
 20 21  1  0  0  0  0
 22 20  1  0  0  0  0
 23 25  1  0  0  0  0
 23 22  2  0  0  0  0
 24 23  1  0  0  0  0
 25 19  2  0  0  0  0
 26 25  1  0  0  0  0
 26 15  2  0  0  0  0
 27 32  1  0  0  0  0
 28 29  1  0  0  0  0
 28 27  2  0  0  0  0
 29 30  2  0  0  0  0
 30 31  1  0  0  0  0
 31 35  1  0  0  0  0
 32 31  2  0  0  0  0
 33 27  1  0  0  0  0
 34 29  1  0  0  0  0
M  END
>  <minimizedAffinity>
-4.57216597

>  <minimizedRMSD>
0.172587603

$$$$
