
 OpenBabel03242519253D

 43 47  0  0  0  0  0  0  0  0999 V2000
   47.8920   33.7290   42.8790 C   0  0  0  0  0  0  0  0  0  0  0  0
   48.5920   34.9270   42.7170 C   0  0  0  0  0  0  0  0  0  0  0  0
   49.9580   34.9150   42.3910 C   0  0  0  0  0  0  0  0  0  0  0  0
   50.5260   33.6670   42.2500 N   0  0  0  0  0  0  0  0  0  0  0  0
   49.8080   32.5150   42.4180 C   0  0  0  0  0  0  0  0  0  0  0  0
   48.5160   32.5590   42.7260 N   0  0  0  0  0  0  0  0  0  0  0  0
   48.2320   35.9430   42.8070 H   0  0  0  0  0  0  0  0  0  0  0  0
   50.5600   35.7960   42.2510 H   0  0  0  0  0  0  0  0  0  0  0  0
   46.4650   33.8770   43.2260 C   0  0  0  0  0  0  0  0  0  0  0  0
   45.7630   34.8780   42.4240 C   0  0  0  0  0  0  0  0  0  0  0  0
   45.3320   36.0820   43.1800 C   0  0  0  0  0  0  0  0  0  0  0  0
   44.5510   35.7600   44.4420 C   0  0  0  0  0  0  0  0  0  0  0  0
   44.9860   34.4870   45.1280 C   0  0  0  0  0  0  0  0  0  0  0  0
   46.4100   34.1520   44.7400 C   0  0  0  0  0  0  0  0  0  0  0  0
   46.0150   32.8470   43.1160 H   0  0  0  0  0  0  0  0  0  0  0  0
   44.8330   34.4310   41.9720 H   0  0  0  0  0  0  0  0  0  0  0  0
   46.4240   35.2210   41.6080 H   0  0  0  0  0  0  0  0  0  0  0  0
   46.0900   36.8450   43.3720 H   0  0  0  0  0  0  0  0  0  0  0  0
   44.5710   36.6010   42.5220 H   0  0  0  0  0  0  0  0  0  0  0  0
   44.7520   36.5890   45.1740 H   0  0  0  0  0  0  0  0  0  0  0  0
   43.4550   35.7690   44.2930 H   0  0  0  0  0  0  0  0  0  0  0  0
   44.8860   34.5220   46.2120 H   0  0  0  0  0  0  0  0  0  0  0  0
   44.3650   33.6690   44.6820 H   0  0  0  0  0  0  0  0  0  0  0  0
   47.0600   35.0600   44.8840 H   0  0  0  0  0  0  0  0  0  0  0  0
   46.7550   33.2750   45.3000 H   0  0  0  0  0  0  0  0  0  0  0  0
   50.5610   31.2790   42.2390 C   0  0  0  0  0  0  0  0  0  0  0  0
   51.5670   31.2930   41.3320 N   0  0  0  0  0  0  0  0  0  0  0  0
   52.1550   30.0860   41.2910 C   0  0  0  0  0  0  0  0  0  0  0  0
   51.4900   29.3040   42.2020 N   0  0  0  0  0  0  0  0  0  0  0  0
   50.5280   30.0340   42.7690 N   0  0  0  0  0  0  0  0  0  0  0  0
   52.9790   29.7150   40.7030 H   0  0  0  0  0  0  0  0  0  0  0  0
   52.3290   27.5710   43.7540 C   0  0  0  0  0  3  0  0  0  0  0  0
   51.6810   27.9440   42.5780 C   0  0  0  0  0  0  0  0  0  0  0  0
   51.2210   26.9160   41.7770 C   0  0  0  0  0  0  0  0  0  0  0  0
   50.7180   27.2020   40.8650 H   0  0  0  0  0  0  0  0  0  0  0  0
   51.3730   25.5790   42.0850 C   0  0  0  0  0  0  0  0  0  0  0  0
   50.9880   24.4700   41.4190 N   0  0  0  0  0  0  0  0  0  0  0  0
   50.4830   24.4920   40.5100 H   0  0  0  0  0  0  0  0  0  0  0  0
   51.3740   23.4270   42.1400 N   0  0  0  0  0  0  0  0  0  0  0  0
   52.0070   23.8480   43.2700 C   0  0  0  0  0  0  0  0  0  0  0  0
   52.4340   23.2480   44.0540 H   0  0  0  0  0  0  0  0  0  0  0  0
   52.0230   25.2240   43.2640 C   0  0  0  0  0  0  0  0  0  0  0  0
   52.4830   26.2370   44.0660 C   0  0  0  0  0  3  0  0  0  0  0  0
  1  9  1  0  0  0  0
  2  7  1  0  0  0  0
  2  1  2  0  0  0  0
  3  2  1  0  0  0  0
  4  3  2  0  0  0  0
  4  5  1  0  0  0  0
  5  6  2  0  0  0  0
  6  1  1  0  0  0  0
  8  3  1  0  0  0  0
  9 14  1  0  0  0  0
 10 11  1  0  0  0  0
 10  9  1  0  0  0  0
 11 18  1  0  0  0  0
 11 12  1  0  0  0  0
 12 13  1  0  0  0  0
 12 20  1  0  0  0  0
 13 22  1  0  0  0  0
 14 24  1  0  0  0  0
 14 13  1  0  0  0  0
 14 25  1  0  0  0  0
 15  9  1  0  0  0  0
 16 10  1  0  0  0  0
 17 10  1  0  0  0  0
 19 11  1  0  0  0  0
 21 12  1  0  0  0  0
 23 13  1  0  0  0  0
 26  5  1  0  0  0  0
 26 30  2  0  0  0  0
 27 26  1  0  0  0  0
 28 27  2  0  0  0  0
 28 29  1  0  0  0  0
 29 33  1  0  0  0  0
 29 30  1  0  0  0  0
 31 28  1  0  0  0  0
 32 43  1  0  0  0  0
 33 32  2  0  0  0  0
 34 36  2  0  0  0  0
 34 33  1  0  0  0  0
 35 34  1  0  0  0  0
 36 42  1  0  0  0  0
 37 36  1  0  0  0  0
 37 39  1  0  0  0  0
 38 37  1  0  0  0  0
 39 40  2  0  0  0  0
 40 41  1  0  0  0  0
 42 40  1  0  0  0  0
 42 43  2  0  0  0  0
M  END
>  <minimizedAffinity>
-4.14145613

>  <minimizedRMSD>
0.206516042

$$$$
