
 OpenBabel03242519253D

 43 47  0  0  0  0  0  0  0  0999 V2000
   47.8940   33.7320   42.8800 C   0  0  0  0  0  0  0  0  0  0  0  0
   48.5920   34.9310   42.7130 C   0  0  0  0  0  0  0  0  0  0  0  0
   49.9590   34.9190   42.3880 C   0  0  0  0  0  0  0  0  0  0  0  0
   50.5290   33.6720   42.2540 N   0  0  0  0  0  0  0  0  0  0  0  0
   49.8140   32.5200   42.4260 C   0  0  0  0  0  0  0  0  0  0  0  0
   48.5210   32.5620   42.7340 N   0  0  0  0  0  0  0  0  0  0  0  0
   48.2310   35.9470   42.7980 H   0  0  0  0  0  0  0  0  0  0  0  0
   50.5600   35.8010   42.2440 H   0  0  0  0  0  0  0  0  0  0  0  0
   46.4670   33.8790   43.2260 C   0  0  0  0  0  0  0  0  0  0  0  0
   45.7660   34.8800   42.4230 C   0  0  0  0  0  0  0  0  0  0  0  0
   45.3330   36.0830   43.1790 C   0  0  0  0  0  0  0  0  0  0  0  0
   44.5510   35.7590   44.4400 C   0  0  0  0  0  0  0  0  0  0  0  0
   44.9850   34.4860   45.1260 C   0  0  0  0  0  0  0  0  0  0  0  0
   46.4100   34.1520   44.7400 C   0  0  0  0  0  0  0  0  0  0  0  0
   46.0180   32.8480   43.1130 H   0  0  0  0  0  0  0  0  0  0  0  0
   44.8360   34.4330   41.9690 H   0  0  0  0  0  0  0  0  0  0  0  0
   46.4280   35.2240   41.6090 H   0  0  0  0  0  0  0  0  0  0  0  0
   46.0900   36.8460   43.3730 H   0  0  0  0  0  0  0  0  0  0  0  0
   44.5730   36.6030   42.5210 H   0  0  0  0  0  0  0  0  0  0  0  0
   44.7500   36.5880   45.1730 H   0  0  0  0  0  0  0  0  0  0  0  0
   43.4550   35.7680   44.2890 H   0  0  0  0  0  0  0  0  0  0  0  0
   44.8840   34.5200   46.2100 H   0  0  0  0  0  0  0  0  0  0  0  0
   44.3650   33.6680   44.6780 H   0  0  0  0  0  0  0  0  0  0  0  0
   47.0590   35.0600   44.8860 H   0  0  0  0  0  0  0  0  0  0  0  0
   46.7540   33.2750   45.2990 H   0  0  0  0  0  0  0  0  0  0  0  0
   50.5690   31.2840   42.2540 C   0  0  0  0  0  0  0  0  0  0  0  0
   51.5590   31.2880   41.3300 N   0  0  0  0  0  0  0  0  0  0  0  0
   52.1520   30.0830   41.2970 C   0  0  0  0  0  0  0  0  0  0  0  0
   51.5060   29.3130   42.2320 N   0  0  0  0  0  0  0  0  0  0  0  0
   50.5510   30.0480   42.8040 N   0  0  0  0  0  0  0  0  0  0  0  0
   52.9680   29.7070   40.7010 H   0  0  0  0  0  0  0  0  0  0  0  0
   52.7620   27.5640   43.4500 C   0  0  0  0  0  3  0  0  0  0  0  0
   51.7100   27.9600   42.6260 C   0  0  0  0  0  0  0  0  0  0  0  0
   50.8550   26.9620   42.2000 C   0  0  0  0  0  0  0  0  0  0  0  0
   50.0390   27.2650   41.5610 H   0  0  0  0  0  0  0  0  0  0  0  0
   50.9970   25.6330   42.5460 C   0  0  0  0  0  0  0  0  0  0  0  0
   50.2580   24.5520   42.2190 N   0  0  0  0  0  0  0  0  0  0  0  0
   49.4170   24.5930   41.6110 H   0  0  0  0  0  0  0  0  0  0  0  0
   50.8160   23.5040   42.8110 N   0  0  0  0  0  0  0  0  0  0  0  0
   51.9110   23.8950   43.5200 C   0  0  0  0  0  0  0  0  0  0  0  0
   52.5740   23.2840   44.1060 H   0  0  0  0  0  0  0  0  0  0  0  0
   52.0540   25.2560   43.3710 C   0  0  0  0  0  0  0  0  0  0  0  0
   52.9080   26.2390   43.7990 C   0  0  0  0  0  3  0  0  0  0  0  0
  1  9  1  0  0  0  0
  2  7  1  0  0  0  0
  2  1  2  0  0  0  0
  3  2  1  0  0  0  0
  4  3  2  0  0  0  0
  4  5  1  0  0  0  0
  5  6  2  0  0  0  0
  6  1  1  0  0  0  0
  8  3  1  0  0  0  0
  9 14  1  0  0  0  0
 10 11  1  0  0  0  0
 10  9  1  0  0  0  0
 11 18  1  0  0  0  0
 11 12  1  0  0  0  0
 12 13  1  0  0  0  0
 12 20  1  0  0  0  0
 13 22  1  0  0  0  0
 14 24  1  0  0  0  0
 14 13  1  0  0  0  0
 14 25  1  0  0  0  0
 15  9  1  0  0  0  0
 16 10  1  0  0  0  0
 17 10  1  0  0  0  0
 19 11  1  0  0  0  0
 21 12  1  0  0  0  0
 23 13  1  0  0  0  0
 26  5  1  0  0  0  0
 26 30  2  0  0  0  0
 27 26  1  0  0  0  0
 28 27  2  0  0  0  0
 28 29  1  0  0  0  0
 29 33  1  0  0  0  0
 29 30  1  0  0  0  0
 31 28  1  0  0  0  0
 32 43  1  0  0  0  0
 33 32  2  0  0  0  0
 34 36  2  0  0  0  0
 34 33  1  0  0  0  0
 35 34  1  0  0  0  0
 36 42  1  0  0  0  0
 37 36  1  0  0  0  0
 37 39  1  0  0  0  0
 38 37  1  0  0  0  0
 39 40  2  0  0  0  0
 40 41  1  0  0  0  0
 42 40  1  0  0  0  0
 42 43  2  0  0  0  0
M  END
>  <minimizedAffinity>
-4.14570332

>  <minimizedRMSD>
0.153412059

$$$$
