
 OpenBabel03242519163D

 45 49  0  0  1  0  0  0  0  0999 V2000
   48.3430   34.2260   40.9250 C   0  0  0  0  0  0  0  0  0  0  0  0
   47.8780   34.3700   39.6370 C   0  0  0  0  0  0  0  0  0  0  0  0
   48.2400   33.5060   38.6020 C   0  0  0  0  0  0  0  0  0  0  0  0
   49.0910   32.5000   38.9510 N   0  0  0  0  0  0  0  0  0  0  0  0
   49.5400   32.3650   40.2070 C   0  0  0  0  0  0  0  0  0  0  0  0
   49.1720   33.2140   41.1720 N   0  0  0  0  0  0  0  0  0  0  0  0
   47.2090   35.1890   39.4390 H   0  0  0  0  0  0  0  0  0  0  0  0
   47.8560   33.6480   37.6000 H   0  0  0  0  0  0  0  0  0  0  0  0
   50.4500   31.2500   40.6040 C   0  0  2  0  0  0  0  0  0  0  0  0
   51.1880   31.3520   41.9020 C   0  0  0  0  0  0  0  0  0  0  0  0
   51.9120   31.5340   40.5620 C   0  0  1  0  0  0  0  0  0  0  0  0
   50.0960   30.2400   40.3170 H   0  0  0  0  0  0  0  0  0  0  0  0
   51.1230   32.2910   42.4890 H   0  0  0  0  0  0  0  0  0  0  0  0
   51.3840   30.4620   42.5130 H   0  0  0  0  0  0  0  0  0  0  0  0
   52.2560   32.5350   40.2880 H   0  0  0  0  0  0  0  0  0  0  0  0
   54.0270   30.2710   40.7660 C   0  0  0  0  0  3  0  0  0  0  0  0
   52.7670   30.3630   40.2270 C   0  0  0  0  0  0  0  0  0  0  0  0
   52.2610   29.3960   39.3740 C   0  0  0  0  0  0  0  0  0  0  0  0
   51.2720   29.4380   38.9310 H   0  0  0  0  0  0  0  0  0  0  0  0
   53.1150   28.3390   39.1120 C   0  0  0  0  0  0  0  0  0  0  0  0
   52.9510   27.2530   38.3460 N   0  0  0  0  0  0  0  0  0  0  0  0
   52.1370   26.9400   37.7610 H   0  0  0  0  0  0  0  0  0  0  0  0
   54.0090   26.4680   38.3510 N   0  0  0  0  0  0  0  0  0  0  0  0
   54.9530   27.0270   39.1540 C   0  0  0  0  0  0  0  0  0  0  0  0
   55.9530   26.7100   39.4280 H   0  0  0  0  0  0  0  0  0  0  0  0
   54.3820   28.2090   39.6310 C   0  0  0  0  0  0  0  0  0  0  0  0
   54.8460   29.2020   40.4810 C   0  0  0  0  0  3  0  0  0  0  0  0
   47.9480   35.1260   41.9890 C   0  0  0  0  0  0  0  0  0  0  0  0
   48.5720   35.0220   42.8900 H   0  0  0  0  0  0  0  0  0  0  0  0
   48.0950   36.1770   41.6270 H   0  0  0  0  0  0  0  0  0  0  0  0
   46.4940   34.9520   42.2960 C   0  0  0  0  0  0  0  0  0  0  0  0
   45.9240   35.9140   42.2240 H   0  0  0  0  0  0  0  0  0  0  0  0
   46.0270   34.2680   41.5760 H   0  0  0  0  0  0  0  0  0  0  0  0
   44.5530   36.4240   44.0190 Cl  0  0  0  0  0  0  0  0  0  0  0  0
   45.3880   34.9750   44.5490 C   0  0  0  0  0  0  0  0  0  0  0  0
   46.2490   34.3930   43.6520 C   0  0  0  0  0  0  0  0  0  0  0  0
   46.9000   33.2390   44.0630 C   0  0  0  0  0  0  0  0  0  0  0  0
   46.6860   32.7050   45.3250 C   0  0  0  0  0  0  0  0  0  0  0  0
   45.8030   33.3240   46.2110 C   0  0  0  0  0  0  0  0  0  0  0  0
   45.1640   34.4600   45.8000 C   0  0  0  0  0  0  0  0  0  0  0  0
   47.5970   32.7220   43.4070 H   0  0  0  0  0  0  0  0  0  0  0  0
   47.2120   31.8030   45.6130 H   0  0  0  0  0  0  0  0  0  0  0  0
   45.6270   32.9160   47.2010 H   0  0  0  0  0  0  0  0  0  0  0  0
   44.2620   35.1510   46.6180 O   0  0  0  0  0  0  0  0  0  0  0  0
   43.4390   34.6860   47.0030 H   0  0  0  0  0  0  0  0  0  0  0  0
  1  6  1  0  0  0  0
  1 28  1  0  0  0  0
  2  1  2  0  0  0  0
  3  4  2  0  0  0  0
  3  2  1  0  0  0  0
  4  5  1  0  0  0  0
  5  9  1  0  0  0  0
  5  6  2  0  0  0  0
  7  2  1  0  0  0  0
  8  3  1  0  0  0  0
  9 12  1  6  0  0  0
  9 10  1  0  0  0  0
 10 13  1  0  0  0  0
 10 14  1  0  0  0  0
 11 15  1  6  0  0  0
 11  9  1  0  0  0  0
 11 10  1  0  0  0  0
 17 11  1  0  0  0  0
 17 16  2  0  0  0  0
 18 17  1  0  0  0  0
 19 18  1  0  0  0  0
 20 18  2  0  0  0  0
 20 26  1  0  0  0  0
 21 23  1  0  0  0  0
 21 20  1  0  0  0  0
 22 21  1  0  0  0  0
 23 24  2  0  0  0  0
 24 25  1  0  0  0  0
 24 26  1  0  0  0  0
 26 27  2  0  0  0  0
 27 16  1  0  0  0  0
 28 31  1  0  0  0  0
 28 29  1  0  0  0  0
 30 28  1  0  0  0  0
 31 36  1  0  0  0  0
 32 31  1  0  0  0  0
 33 31  1  0  0  0  0
 34 35  1  0  0  0  0
 35 40  1  0  0  0  0
 36 37  1  0  0  0  0
 36 35  2  0  0  0  0
 37 38  2  0  0  0  0
 38 42  1  0  0  0  0
 38 39  1  0  0  0  0
 39 43  1  0  0  0  0
 40 39  2  0  0  0  0
 40 44  1  0  0  0  0
 41 37  1  0  0  0  0
 44 45  1  0  0  0  0
M  END
>  <minimizedAffinity>
-5.8222971

>  <minimizedRMSD>
0.393862069

$$$$
