
 OpenBabel03252502433D

 34 37  0  0  1  0  0  0  0  0999 V2000
   48.8490   34.9110   41.4740 C   0  0  1  0  0  0  0  0  0  0  0  0
   49.9380   34.8250   42.4920 C   0  0  0  0  0  0  0  0  0  0  0  0
   49.2190   33.6070   42.0780 C   0  0  2  0  0  0  0  0  0  0  0  0
   49.0860   35.1090   40.4080 H   0  0  0  0  0  0  0  0  0  0  0  0
   50.9420   35.0230   42.0680 H   0  0  0  0  0  0  0  0  0  0  0  0
   49.8800   35.3050   43.4830 H   0  0  0  0  0  0  0  0  0  0  0  0
   48.4960   32.9830   42.5500 H   0  0  0  0  0  0  0  0  0  0  0  0
   49.4940   32.1280   40.1160 C   0  0  0  0  0  0  0  0  0  0  0  0
   50.0650   32.6730   41.2500 C   0  0  0  0  0  0  0  0  0  0  0  0
   51.3890   32.3020   41.5170 C   0  0  0  0  0  0  0  0  0  0  0  0
   51.8050   32.7560   42.4260 H   0  0  0  0  0  0  0  0  0  0  0  0
   52.0790   31.4500   40.7040 C   0  0  0  0  0  0  0  0  0  0  0  0
   53.3380   30.9840   40.7960 N   0  0  0  0  0  0  0  0  0  0  0  0
   54.0110   31.2340   41.5660 H   0  0  0  0  0  0  0  0  0  0  0  0
   53.5610   30.1770   39.7660 N   0  0  0  0  0  0  0  0  0  0  0  0
   52.4400   30.1300   39.0170 C   0  0  0  0  0  0  0  0  0  0  0  0
   52.2790   29.5660   38.1050 H   0  0  0  0  0  0  0  0  0  0  0  0
   51.4790   30.9330   39.5940 C   0  0  0  0  0  0  0  0  0  0  0  0
   50.1750   31.2640   39.2810 C   0  0  0  0  0  0  0  0  0  0  0  0
   47.5440   35.4950   41.9160 C   0  0  0  0  0  0  0  0  0  0  0  0
   47.7920   36.0300   42.8800 H   0  0  0  0  0  0  0  0  0  0  0  0
   47.1020   36.2010   41.2160 H   0  0  0  0  0  0  0  0  0  0  0  0
   46.6280   34.3130   42.1920 C   0  0  0  0  0  0  0  0  0  0  0  0
   47.2930   33.4970   42.6250 H   0  0  0  0  0  0  0  0  0  0  0  0
   46.0200   33.9980   41.3590 H   0  0  0  0  0  0  0  0  0  0  0  0
   44.4790   35.8990   44.8210 C   0  0  0  0  0  0  0  0  0  0  0  0
   45.1030   35.6740   43.5770 C   0  0  0  0  0  0  0  0  0  0  0  0
   45.8980   34.5640   43.4640 C   0  0  0  0  0  0  0  0  0  0  0  0
   46.0480   33.7380   44.5360 N   0  0  0  0  0  0  0  0  0  0  0  0
   45.4540   33.9650   45.6960 C   0  0  0  0  0  0  0  0  0  0  0  0
   44.6720   35.0370   45.8480 N   0  0  0  0  0  0  0  0  0  0  0  0
   43.8330   36.7330   45.0400 H   0  0  0  0  0  0  0  0  0  0  0  0
   44.8300   36.4420   42.8770 H   0  0  0  0  0  0  0  0  0  0  0  0
   45.6780   33.2130   46.4400 H   0  0  0  0  0  0  0  0  0  0  0  0
  1  4  1  6  0  0  0
  1 20  1  0  0  0  0
  1  3  1  0  0  0  0
  1  2  1  0  0  0  0
  2  6  1  0  0  0  0
  3  2  1  0  0  0  0
  3  7  1  1  0  0  0
  5  2  1  0  0  0  0
  8  9  1  0  0  0  0
  9 10  2  0  0  0  0
  9  3  1  0  0  0  0
 10 11  1  0  0  0  0
 12 13  1  0  0  0  0
 12 10  1  0  0  0  0
 13 14  1  0  0  0  0
 15 13  1  0  0  0  0
 16 18  1  0  0  0  0
 16 15  2  0  0  0  0
 17 16  1  0  0  0  0
 18 12  2  0  0  0  0
 19 18  1  0  0  0  0
 19  8  2  0  0  0  0
 20 23  1  0  0  0  0
 20 21  1  0  0  0  0
 22 20  1  0  0  0  0
 23 24  1  0  0  0  0
 23 28  1  0  0  0  0
 25 23  1  0  0  0  0
 26 32  1  0  0  0  0
 26 31  1  0  0  0  0
 27 26  2  0  0  0  0
 28 27  1  0  0  0  0
 28 29  2  0  0  0  0
 29 30  1  0  0  0  0
 30 31  2  0  0  0  0
 30 34  1  0  0  0  0
 33 27  1  0  0  0  0
M  END
>  <minimizedAffinity>
-5.42464924

>  <minimizedRMSD>
1.40271926

$$$$
