
 OpenBabel03242519153D

 45 49  0  0  1  0  0  0  0  0999 V2000
   48.3440   34.2250   40.9250 C   0  0  0  0  0  0  0  0  0  0  0  0
   47.8790   34.3690   39.6370 C   0  0  0  0  0  0  0  0  0  0  0  0
   48.2400   33.5050   38.6020 C   0  0  0  0  0  0  0  0  0  0  0  0
   49.0920   32.4990   38.9510 N   0  0  0  0  0  0  0  0  0  0  0  0
   49.5420   32.3640   40.2070 C   0  0  0  0  0  0  0  0  0  0  0  0
   49.1730   33.2130   41.1720 N   0  0  0  0  0  0  0  0  0  0  0  0
   47.2100   35.1880   39.4400 H   0  0  0  0  0  0  0  0  0  0  0  0
   47.8560   33.6470   37.6010 H   0  0  0  0  0  0  0  0  0  0  0  0
   50.4510   31.2490   40.6040 C   0  0  2  0  0  0  0  0  0  0  0  0
   51.1890   31.3510   41.9020 C   0  0  0  0  0  0  0  0  0  0  0  0
   51.9130   31.5340   40.5620 C   0  0  1  0  0  0  0  0  0  0  0  0
   50.0970   30.2390   40.3170 H   0  0  0  0  0  0  0  0  0  0  0  0
   51.1240   32.2900   42.4890 H   0  0  0  0  0  0  0  0  0  0  0  0
   51.3860   30.4620   42.5130 H   0  0  0  0  0  0  0  0  0  0  0  0
   52.2570   32.5340   40.2880 H   0  0  0  0  0  0  0  0  0  0  0  0
   54.0280   30.2710   40.7660 C   0  0  0  0  0  3  0  0  0  0  0  0
   52.7680   30.3630   40.2270 C   0  0  0  0  0  0  0  0  0  0  0  0
   52.2620   29.3960   39.3730 C   0  0  0  0  0  0  0  0  0  0  0  0
   51.2750   29.4380   38.9320 H   0  0  0  0  0  0  0  0  0  0  0  0
   53.1170   28.3390   39.1120 C   0  0  0  0  0  0  0  0  0  0  0  0
   52.9530   27.2530   38.3460 N   0  0  0  0  0  0  0  0  0  0  0  0
   52.1390   26.9400   37.7600 H   0  0  0  0  0  0  0  0  0  0  0  0
   54.0100   26.4680   38.3510 N   0  0  0  0  0  0  0  0  0  0  0  0
   54.9550   27.0280   39.1550 C   0  0  0  0  0  0  0  0  0  0  0  0
   55.9550   26.7090   39.4280 H   0  0  0  0  0  0  0  0  0  0  0  0
   54.3840   28.2090   39.6310 C   0  0  0  0  0  0  0  0  0  0  0  0
   54.8480   29.2020   40.4800 C   0  0  0  0  0  3  0  0  0  0  0  0
   47.9490   35.1250   41.9890 C   0  0  0  0  0  0  0  0  0  0  0  0
   48.5730   35.0210   42.8910 H   0  0  0  0  0  0  0  0  0  0  0  0
   48.0960   36.1760   41.6280 H   0  0  0  0  0  0  0  0  0  0  0  0
   46.4950   34.9520   42.2960 C   0  0  0  0  0  0  0  0  0  0  0  0
   45.9250   35.9130   42.2240 H   0  0  0  0  0  0  0  0  0  0  0  0
   46.0280   34.2670   41.5760 H   0  0  0  0  0  0  0  0  0  0  0  0
   44.5540   36.4240   44.0180 Cl  0  0  0  0  0  0  0  0  0  0  0  0
   45.3880   34.9740   44.5490 C   0  0  0  0  0  0  0  0  0  0  0  0
   46.2490   34.3920   43.6520 C   0  0  0  0  0  0  0  0  0  0  0  0
   46.9010   33.2380   44.0630 C   0  0  0  0  0  0  0  0  0  0  0  0
   46.6860   32.7040   45.3250 C   0  0  0  0  0  0  0  0  0  0  0  0
   45.8030   33.3240   46.2110 C   0  0  0  0  0  0  0  0  0  0  0  0
   45.1640   34.4610   45.8000 C   0  0  0  0  0  0  0  0  0  0  0  0
   47.5970   32.7220   43.4080 H   0  0  0  0  0  0  0  0  0  0  0  0
   47.2110   31.8020   45.6140 H   0  0  0  0  0  0  0  0  0  0  0  0
   45.6260   32.9170   47.2010 H   0  0  0  0  0  0  0  0  0  0  0  0
   44.2620   35.1520   46.6180 O   0  0  0  0  0  0  0  0  0  0  0  0
   43.4390   34.6870   47.0020 H   0  0  0  0  0  0  0  0  0  0  0  0
  1  6  1  0  0  0  0
  1 28  1  0  0  0  0
  2  1  2  0  0  0  0
  3  4  2  0  0  0  0
  3  2  1  0  0  0  0
  4  5  1  0  0  0  0
  5  9  1  0  0  0  0
  5  6  2  0  0  0  0
  7  2  1  0  0  0  0
  8  3  1  0  0  0  0
  9 12  1  6  0  0  0
  9 10  1  0  0  0  0
 10 13  1  0  0  0  0
 10 14  1  0  0  0  0
 11 15  1  6  0  0  0
 11  9  1  0  0  0  0
 11 10  1  0  0  0  0
 17 11  1  0  0  0  0
 17 16  2  0  0  0  0
 18 17  1  0  0  0  0
 19 18  1  0  0  0  0
 20 18  2  0  0  0  0
 20 26  1  0  0  0  0
 21 23  1  0  0  0  0
 21 20  1  0  0  0  0
 22 21  1  0  0  0  0
 23 24  2  0  0  0  0
 24 25  1  0  0  0  0
 24 26  1  0  0  0  0
 26 27  2  0  0  0  0
 27 16  1  0  0  0  0
 28 31  1  0  0  0  0
 28 29  1  0  0  0  0
 30 28  1  0  0  0  0
 31 36  1  0  0  0  0
 32 31  1  0  0  0  0
 33 31  1  0  0  0  0
 34 35  1  0  0  0  0
 35 40  1  0  0  0  0
 36 37  1  0  0  0  0
 36 35  2  0  0  0  0
 37 38  2  0  0  0  0
 38 42  1  0  0  0  0
 38 39  1  0  0  0  0
 39 43  1  0  0  0  0
 40 39  2  0  0  0  0
 40 44  1  0  0  0  0
 41 37  1  0  0  0  0
 44 45  1  0  0  0  0
M  END
>  <minimizedAffinity>
-5.82549143

>  <minimizedRMSD>
0.288588464

$$$$
