
 OpenBabel03252508313D

 35 38  0  0  1  0  0  0  0  0999 V2000
   44.3520   34.5190   41.9250 N   0  0  0  0  0  0  0  0  0  0  0  0
   44.7050   33.4730   41.0420 C   0  0  1  0  0  0  0  0  0  0  0  0
   44.2550   33.6310   39.6370 C   0  0  0  0  0  0  0  0  0  0  0  0
   42.9830   34.1930   39.4650 N   0  0  0  0  0  0  0  0  0  0  0  0
   42.5750   35.1810   40.3810 C   0  0  0  0  0  0  0  0  0  0  0  0
   43.7020   35.6230   41.2760 C   0  0  0  0  0  0  0  0  0  0  0  0
   44.2270   32.5340   41.4280 H   0  0  0  0  0  0  0  0  0  0  0  0
   44.3130   32.6570   39.1090 H   0  0  0  0  0  0  0  0  0  0  0  0
   45.0010   34.3150   39.1360 H   0  0  0  0  0  0  0  0  0  0  0  0
   42.6110   34.1990   38.5200 H   0  0  0  0  0  0  0  0  0  0  0  0
   41.7300   34.8600   41.0540 H   0  0  0  0  0  0  0  0  0  0  0  0
   42.1880   36.0670   39.8440 H   0  0  0  0  0  0  0  0  0  0  0  0
   44.4680   36.2160   40.7120 H   0  0  0  0  0  0  0  0  0  0  0  0
   43.2360   36.3370   41.9850 H   0  0  0  0  0  0  0  0  0  0  0  0
   46.9650   34.2720   40.7090 C   0  0  0  0  0  3  0  0  0  0  0  0
   46.1820   33.1660   41.0160 C   0  0  0  0  0  0  0  0  0  0  0  0
   46.8310   31.9730   41.2340 C   0  0  0  0  0  0  0  0  0  0  0  0
   46.1300   31.1630   41.4680 H   0  0  0  0  0  0  0  0  0  0  0  0
   48.1800   31.8870   41.1510 C   0  0  0  0  0  0  0  0  0  0  0  0
   48.9300   30.7960   41.3390 N   0  0  0  0  0  0  0  0  0  0  0  0
   48.6740   29.8000   41.5810 H   0  0  0  0  0  0  0  0  0  0  0  0
   50.1880   31.1350   41.1690 N   0  0  0  0  0  0  0  0  0  0  0  0
   50.2600   32.4320   40.8730 C   0  0  0  0  0  0  0  0  0  0  0  0
   51.1430   33.0440   40.6690 H   0  0  0  0  0  0  0  0  0  0  0  0
   48.9820   32.9670   40.8500 C   0  0  0  0  0  0  0  0  0  0  0  0
   48.3580   34.1600   40.6290 C   0  0  0  0  0  3  0  0  0  0  0  0
   44.3580   35.5170   44.0960 C   0  0  0  0  0  0  0  0  0  0  0  0
   44.6600   34.3910   43.2990 C   0  0  0  0  0  0  0  0  0  0  0  0
   45.2220   33.2860   43.9100 C   0  0  0  0  0  0  0  0  0  0  0  0
   45.4770   33.2900   45.2450 N   0  0  0  0  0  0  0  0  0  0  0  0
   45.1760   34.3910   45.9970 C   0  0  0  0  0  0  0  0  0  0  0  0
   44.6270   35.4820   45.4250 N   0  0  0  0  0  0  0  0  0  0  0  0
   43.9260   36.4630   43.8160 H   0  0  0  0  0  0  0  0  0  0  0  0
   45.4440   32.4320   43.3060 H   0  0  0  0  0  0  0  0  0  0  0  0
   45.3890   34.3720   47.0660 H   0  0  0  0  0  0  0  0  0  0  0  0
  1 28  1  0  0  0  0
  2  7  1  1  0  0  0
  2  1  1  0  0  0  0
  3  2  1  0  0  0  0
  4  3  1  0  0  0  0
  4  5  1  0  0  0  0
  5 11  1  0  0  0  0
  5  6  1  0  0  0  0
  6  1  1  0  0  0  0
  6 14  1  0  0  0  0
  8  3  1  0  0  0  0
  9  3  1  0  0  0  0
 10  4  1  0  0  0  0
 12  5  1  0  0  0  0
 13  6  1  0  0  0  0
 15 16  1  0  0  0  0
 16  2  1  0  0  0  0
 16 17  2  0  0  0  0
 17 18  1  0  0  0  0
 19 17  1  0  0  0  0
 19 20  1  0  0  0  0
 20 21  1  0  0  0  0
 22 20  1  0  0  0  0
 23 22  2  0  0  0  0
 24 23  1  0  0  0  0
 25 23  1  0  0  0  0
 25 19  2  0  0  0  0
 26 15  2  0  0  0  0
 26 25  1  0  0  0  0
 27 32  1  0  0  0  0
 28 29  1  0  0  0  0
 28 27  2  0  0  0  0
 29 30  2  0  0  0  0
 30 31  1  0  0  0  0
 31 35  1  0  0  0  0
 32 31  2  0  0  0  0
 33 27  1  0  0  0  0
 34 29  1  0  0  0  0
M  END
>  <minimizedAffinity>
-4.69371796

>  <minimizedRMSD>
0.818609655

$$$$
