
 OpenBabel03242519253D

 43 47  0  0  0  0  0  0  0  0999 V2000
   47.9230   33.8010   42.8910 C   0  0  0  0  0  0  0  0  0  0  0  0
   48.5770   35.0120   42.6470 C   0  0  0  0  0  0  0  0  0  0  0  0
   49.9450   35.0290   42.3260 C   0  0  0  0  0  0  0  0  0  0  0  0
   50.5600   33.7970   42.2730 N   0  0  0  0  0  0  0  0  0  0  0  0
   49.8870   32.6330   42.5190 C   0  0  0  0  0  0  0  0  0  0  0  0
   48.5920   32.6480   42.8210 N   0  0  0  0  0  0  0  0  0  0  0  0
   48.1790   36.0170   42.6660 H   0  0  0  0  0  0  0  0  0  0  0  0
   50.5130   35.9210   42.1260 H   0  0  0  0  0  0  0  0  0  0  0  0
   46.4900   33.9180   43.2240 C   0  0  0  0  0  0  0  0  0  0  0  0
   45.7780   34.9150   42.4270 C   0  0  0  0  0  0  0  0  0  0  0  0
   45.3160   36.1010   43.1930 C   0  0  0  0  0  0  0  0  0  0  0  0
   44.5280   35.7480   44.4420 C   0  0  0  0  0  0  0  0  0  0  0  0
   44.9790   34.4740   45.1170 C   0  0  0  0  0  0  0  0  0  0  0  0
   46.4140   34.1720   44.7400 C   0  0  0  0  0  0  0  0  0  0  0  0
   46.0610   32.8810   43.0950 H   0  0  0  0  0  0  0  0  0  0  0  0
   44.8610   34.4570   41.9580 H   0  0  0  0  0  0  0  0  0  0  0  0
   46.4420   35.2810   41.6230 H   0  0  0  0  0  0  0  0  0  0  0  0
   46.0570   36.8760   43.4030 H   0  0  0  0  0  0  0  0  0  0  0  0
   44.5520   36.6150   42.5340 H   0  0  0  0  0  0  0  0  0  0  0  0
   44.7050   36.5710   45.1870 H   0  0  0  0  0  0  0  0  0  0  0  0
   43.4330   35.7390   44.2810 H   0  0  0  0  0  0  0  0  0  0  0  0
   44.8670   34.4930   46.2000 H   0  0  0  0  0  0  0  0  0  0  0  0
   44.3780   33.6510   44.6530 H   0  0  0  0  0  0  0  0  0  0  0  0
   47.0450   35.0890   44.9040 H   0  0  0  0  0  0  0  0  0  0  0  0
   46.7690   33.2940   45.2930 H   0  0  0  0  0  0  0  0  0  0  0  0
   50.6870   31.4170   42.4270 C   0  0  0  0  0  0  0  0  0  0  0  0
   51.3860   31.2220   41.2840 N   0  0  0  0  0  0  0  0  0  0  0  0
   52.0660   30.0650   41.3620 C   0  0  0  0  0  0  0  0  0  0  0  0
   51.7760   29.5330   42.5930 N   0  0  0  0  0  0  0  0  0  0  0  0
   50.9420   30.3580   43.2290 N   0  0  0  0  0  0  0  0  0  0  0  0
   52.7240   29.5780   40.6610 H   0  0  0  0  0  0  0  0  0  0  0  0
   52.9230   27.3420   42.5300 C   0  0  0  0  0  3  0  0  0  0  0  0
   52.2130   28.3280   43.2130 C   0  0  0  0  0  0  0  0  0  0  0  0
   51.9450   28.0790   44.5450 C   0  0  0  0  0  0  0  0  0  0  0  0
   51.3950   28.8420   45.0780 H   0  0  0  0  0  0  0  0  0  0  0  0
   52.3390   26.9330   45.2050 C   0  0  0  0  0  0  0  0  0  0  0  0
   52.1580   26.5450   46.4850 N   0  0  0  0  0  0  0  0  0  0  0  0
   51.6550   27.1150   47.1930 H   0  0  0  0  0  0  0  0  0  0  0  0
   52.7310   25.3560   46.6170 N   0  0  0  0  0  0  0  0  0  0  0  0
   53.2820   24.9680   45.4330 C   0  0  0  0  0  0  0  0  0  0  0  0
   53.8150   24.0600   45.2160 H   0  0  0  0  0  0  0  0  0  0  0  0
   53.0470   25.9590   44.5070 C   0  0  0  0  0  0  0  0  0  0  0  0
   53.3190   26.1950   43.1840 C   0  0  0  0  0  3  0  0  0  0  0  0
  1  9  1  0  0  0  0
  2  7  1  0  0  0  0
  2  1  2  0  0  0  0
  3  2  1  0  0  0  0
  4  3  2  0  0  0  0
  4  5  1  0  0  0  0
  5  6  2  0  0  0  0
  6  1  1  0  0  0  0
  8  3  1  0  0  0  0
  9 14  1  0  0  0  0
 10 11  1  0  0  0  0
 10  9  1  0  0  0  0
 11 18  1  0  0  0  0
 11 12  1  0  0  0  0
 12 13  1  0  0  0  0
 12 20  1  0  0  0  0
 13 22  1  0  0  0  0
 14 24  1  0  0  0  0
 14 13  1  0  0  0  0
 14 25  1  0  0  0  0
 15  9  1  0  0  0  0
 16 10  1  0  0  0  0
 17 10  1  0  0  0  0
 19 11  1  0  0  0  0
 21 12  1  0  0  0  0
 23 13  1  0  0  0  0
 26  5  1  0  0  0  0
 26 30  2  0  0  0  0
 27 28  2  0  0  0  0
 27 26  1  0  0  0  0
 28 29  1  0  0  0  0
 29 33  1  0  0  0  0
 29 30  1  0  0  0  0
 31 28  1  0  0  0  0
 32 43  2  0  0  0  0
 32 33  1  0  0  0  0
 33 34  2  0  0  0  0
 34 35  1  0  0  0  0
 34 36  1  0  0  0  0
 36 37  1  0  0  0  0
 37 39  1  0  0  0  0
 37 38  1  0  0  0  0
 40 39  2  0  0  0  0
 41 40  1  0  0  0  0
 42 36  2  0  0  0  0
 42 40  1  0  0  0  0
 43 42  1  0  0  0  0
M  END
>  <minimizedAffinity>
-4.24896908

>  <minimizedRMSD>
0.948880136

$$$$
