
 OpenBabel03252508313D

 35 38  0  0  1  0  0  0  0  0999 V2000
   44.3390   34.3890   41.9660 N   0  0  0  0  0  0  0  0  0  0  0  0
   44.5510   33.4110   40.9680 C   0  0  1  0  0  0  0  0  0  0  0  0
   43.9840   33.7160   39.6310 C   0  0  0  0  0  0  0  0  0  0  0  0
   42.7350   34.3500   39.6290 N   0  0  0  0  0  0  0  0  0  0  0  0
   42.4680   35.2710   40.6610 C   0  0  0  0  0  0  0  0  0  0  0  0
   43.6950   35.5770   41.4780 C   0  0  0  0  0  0  0  0  0  0  0  0
   44.0580   32.4650   41.3170 H   0  0  0  0  0  0  0  0  0  0  0  0
   43.9390   32.7900   39.0190 H   0  0  0  0  0  0  0  0  0  0  0  0
   44.7180   34.4050   39.1200 H   0  0  0  0  0  0  0  0  0  0  0  0
   42.2790   34.4590   38.7280 H   0  0  0  0  0  0  0  0  0  0  0  0
   41.6710   34.9320   41.3820 H   0  0  0  0  0  0  0  0  0  0  0  0
   42.0840   36.2190   40.2400 H   0  0  0  0  0  0  0  0  0  0  0  0
   44.4390   36.1800   40.8950 H   0  0  0  0  0  0  0  0  0  0  0  0
   43.3370   36.2460   42.2860 H   0  0  0  0  0  0  0  0  0  0  0  0
   46.8110   34.1270   40.4830 C   0  0  0  0  0  3  0  0  0  0  0  0
   46.0000   33.0370   40.7740 C   0  0  0  0  0  0  0  0  0  0  0  0
   46.6010   31.8010   40.8320 C   0  0  0  0  0  0  0  0  0  0  0  0
   45.8800   31.0080   41.0680 H   0  0  0  0  0  0  0  0  0  0  0  0
   47.9290   31.6580   40.6130 C   0  0  0  0  0  0  0  0  0  0  0  0
   48.6310   30.5210   40.6400 N   0  0  0  0  0  0  0  0  0  0  0  0
   48.3440   29.5220   40.8250 H   0  0  0  0  0  0  0  0  0  0  0  0
   49.8850   30.8140   40.3760 N   0  0  0  0  0  0  0  0  0  0  0  0
   50.0000   32.1260   40.1790 C   0  0  0  0  0  0  0  0  0  0  0  0
   50.8940   32.7100   39.9400 H   0  0  0  0  0  0  0  0  0  0  0  0
   48.7570   32.7200   40.3210 C   0  0  0  0  0  0  0  0  0  0  0  0
   48.1820   33.9560   40.2590 C   0  0  0  0  0  3  0  0  0  0  0  0
   44.6230   35.1950   44.1960 C   0  0  0  0  0  0  0  0  0  0  0  0
   44.7630   34.1240   43.2880 C   0  0  0  0  0  0  0  0  0  0  0  0
   45.2950   32.9360   43.7510 C   0  0  0  0  0  0  0  0  0  0  0  0
   45.6730   32.8090   45.0510 N   0  0  0  0  0  0  0  0  0  0  0  0
   45.5280   33.8590   45.9130 C   0  0  0  0  0  0  0  0  0  0  0  0
   45.0130   35.0290   45.4860 N   0  0  0  0  0  0  0  0  0  0  0  0
   44.2400   36.1890   44.0350 H   0  0  0  0  0  0  0  0  0  0  0  0
   45.3940   32.1230   43.0640 H   0  0  0  0  0  0  0  0  0  0  0  0
   45.8380   33.7350   46.9500 H   0  0  0  0  0  0  0  0  0  0  0  0
  1 28  1  0  0  0  0
  2  7  1  1  0  0  0
  2  1  1  0  0  0  0
  3  2  1  0  0  0  0
  4  3  1  0  0  0  0
  4  5  1  0  0  0  0
  5 11  1  0  0  0  0
  5  6  1  0  0  0  0
  6  1  1  0  0  0  0
  6 14  1  0  0  0  0
  8  3  1  0  0  0  0
  9  3  1  0  0  0  0
 10  4  1  0  0  0  0
 12  5  1  0  0  0  0
 13  6  1  0  0  0  0
 15 16  1  0  0  0  0
 16 17  2  0  0  0  0
 16  2  1  0  0  0  0
 17 18  1  0  0  0  0
 19 20  1  0  0  0  0
 19 17  1  0  0  0  0
 20 21  1  0  0  0  0
 22 20  1  0  0  0  0
 23 25  1  0  0  0  0
 23 22  2  0  0  0  0
 24 23  1  0  0  0  0
 25 19  2  0  0  0  0
 26 25  1  0  0  0  0
 26 15  2  0  0  0  0
 27 32  1  0  0  0  0
 28 29  1  0  0  0  0
 28 27  2  0  0  0  0
 29 30  2  0  0  0  0
 30 31  1  0  0  0  0
 31 35  1  0  0  0  0
 32 31  2  0  0  0  0
 33 27  1  0  0  0  0
 34 29  1  0  0  0  0
M  END
>  <minimizedAffinity>
-4.57167196

>  <minimizedRMSD>
0.85117197

$$$$
