
 OpenBabel03242519163D

 45 49  0  0  1  0  0  0  0  0999 V2000
   48.3420   33.9240   41.1640 C   0  0  0  0  0  0  0  0  0  0  0  0
   47.5820   34.3200   40.0880 C   0  0  0  0  0  0  0  0  0  0  0  0
   47.7450   33.7840   38.8090 C   0  0  0  0  0  0  0  0  0  0  0  0
   48.7150   32.8330   38.6930 N   0  0  0  0  0  0  0  0  0  0  0  0
   49.4530   32.4510   39.7460 C   0  0  0  0  0  0  0  0  0  0  0  0
   49.2670   32.9890   40.9560 N   0  0  0  0  0  0  0  0  0  0  0  0
   46.8350   35.0750   40.2580 H   0  0  0  0  0  0  0  0  0  0  0  0
   47.1290   34.1180   37.9840 H   0  0  0  0  0  0  0  0  0  0  0  0
   50.4980   31.3920   39.6350 C   0  0  2  0  0  0  0  0  0  0  0  0
   50.7850   30.5370   40.8300 C   0  0  0  0  0  0  0  0  0  0  0  0
   51.7670   31.6260   40.3800 C   0  0  1  0  0  0  0  0  0  0  0  0
   50.5450   30.8900   38.6480 H   0  0  0  0  0  0  0  0  0  0  0  0
   50.2920   30.7730   41.7950 H   0  0  0  0  0  0  0  0  0  0  0  0
   51.0520   29.4790   40.7170 H   0  0  0  0  0  0  0  0  0  0  0  0
   51.8690   32.5220   40.9970 H   0  0  0  0  0  0  0  0  0  0  0  0
   53.2900   31.3920   38.4460 C   0  0  0  0  0  3  0  0  0  0  0  0
   52.9820   31.0500   39.7410 C   0  0  0  0  0  0  0  0  0  0  0  0
   53.7690   30.1810   40.4780 C   0  0  0  0  0  0  0  0  0  0  0  0
   53.5560   29.8920   41.4990 H   0  0  0  0  0  0  0  0  0  0  0  0
   54.8800   29.6900   39.8140 C   0  0  0  0  0  0  0  0  0  0  0  0
   55.8370   28.8450   40.2210 N   0  0  0  0  0  0  0  0  0  0  0  0
   55.9760   28.3520   41.1370 H   0  0  0  0  0  0  0  0  0  0  0  0
   56.7370   28.6150   39.2870 N   0  0  0  0  0  0  0  0  0  0  0  0
   56.3970   29.3300   38.1800 C   0  0  0  0  0  0  0  0  0  0  0  0
   56.8640   29.4230   37.2050 H   0  0  0  0  0  0  0  0  0  0  0  0
   55.2230   30.0050   38.5200 C   0  0  0  0  0  0  0  0  0  0  0  0
   54.4050   30.8800   37.8220 C   0  0  0  0  0  3  0  0  0  0  0  0
   48.1510   34.4830   42.4870 C   0  0  0  0  0  0  0  0  0  0  0  0
   48.7140   33.9440   43.2640 H   0  0  0  0  0  0  0  0  0  0  0  0
   48.5500   35.5300   42.4820 H   0  0  0  0  0  0  0  0  0  0  0  0
   46.6910   34.5570   42.8070 C   0  0  0  0  0  0  0  0  0  0  0  0
   46.2950   35.6040   42.7560 H   0  0  0  0  0  0  0  0  0  0  0  0
   46.1070   33.9760   42.0830 H   0  0  0  0  0  0  0  0  0  0  0  0
   44.6570   36.0680   44.3830 Cl  0  0  0  0  0  0  0  0  0  0  0  0
   45.4550   34.6270   44.9910 C   0  0  0  0  0  0  0  0  0  0  0  0
   46.3650   34.0260   44.1580 C   0  0  0  0  0  0  0  0  0  0  0  0
   46.9880   32.8790   44.6290 C   0  0  0  0  0  0  0  0  0  0  0  0
   46.6980   32.3710   45.8870 C   0  0  0  0  0  0  0  0  0  0  0  0
   45.7660   33.0100   46.7070 C   0  0  0  0  0  0  0  0  0  0  0  0
   45.1560   34.1390   46.2370 C   0  0  0  0  0  0  0  0  0  0  0  0
   47.7200   32.3480   44.0260 H   0  0  0  0  0  0  0  0  0  0  0  0
   47.2030   31.4740   46.2230 H   0  0  0  0  0  0  0  0  0  0  0  0
   45.5310   32.6230   47.6930 H   0  0  0  0  0  0  0  0  0  0  0  0
   44.2090   34.8480   46.9860 O   0  0  0  0  0  0  0  0  0  0  0  0
   43.3640   34.3930   47.3310 H   0  0  0  0  0  0  0  0  0  0  0  0
  1 28  1  0  0  0  0
  2  7  1  0  0  0  0
  2  1  2  0  0  0  0
  3  2  1  0  0  0  0
  4  3  2  0  0  0  0
  4  5  1  0  0  0  0
  5  6  2  0  0  0  0
  6  1  1  0  0  0  0
  8  3  1  0  0  0  0
  9 12  1  6  0  0  0
  9  5  1  0  0  0  0
  9 11  1  0  0  0  0
  9 10  1  0  0  0  0
 10 13  1  0  0  0  0
 11 10  1  0  0  0  0
 11 15  1  1  0  0  0
 14 10  1  0  0  0  0
 16 17  1  0  0  0  0
 17 11  1  0  0  0  0
 17 18  2  0  0  0  0
 18 19  1  0  0  0  0
 20 21  1  0  0  0  0
 20 18  1  0  0  0  0
 21 22  1  0  0  0  0
 23 21  1  0  0  0  0
 24 26  1  0  0  0  0
 24 23  2  0  0  0  0
 25 24  1  0  0  0  0
 26 20  2  0  0  0  0
 27 16  2  0  0  0  0
 27 26  1  0  0  0  0
 28 31  1  0  0  0  0
 28 29  1  0  0  0  0
 30 28  1  0  0  0  0
 31 36  1  0  0  0  0
 32 31  1  0  0  0  0
 33 31  1  0  0  0  0
 34 35  1  0  0  0  0
 35 40  1  0  0  0  0
 36 37  1  0  0  0  0
 36 35  2  0  0  0  0
 37 38  2  0  0  0  0
 38 42  1  0  0  0  0
 38 39  1  0  0  0  0
 39 43  1  0  0  0  0
 40 39  2  0  0  0  0
 40 44  1  0  0  0  0
 41 37  1  0  0  0  0
 44 45  1  0  0  0  0
M  END
>  <minimizedAffinity>
-6.22799349

>  <minimizedRMSD>
1.1336838

$$$$
