
 OpenBabel03242513053D

 38 42  0  0  0  0  0  0  0  0999 V2000
   46.1140   33.1440   41.5160 C   0  0  0  0  0  0  0  0  0  0  0  0
   47.2730   33.8710   41.2710 C   0  0  0  0  0  0  0  0  0  0  0  0
   48.1830   33.9850   42.3140 C   0  0  0  0  0  0  0  0  0  0  0  0
   47.8780   33.3800   43.4990 N   0  0  0  0  0  0  0  0  0  0  0  0
   46.7530   32.6880   43.7010 C   0  0  0  0  0  0  0  0  0  0  0  0
   45.8550   32.5600   42.7120 N   0  0  0  0  0  0  0  0  0  0  0  0
   45.3390   32.9910   40.7760 H   0  0  0  0  0  0  0  0  0  0  0  0
   46.6880   30.7190   45.1760 C   0  0  0  0  0  0  0  0  0  0  0  0
   46.5230   32.0820   44.9980 C   0  0  0  0  0  0  0  0  0  0  0  0
   46.1350   32.9260   46.0360 C   0  0  0  0  0  0  0  0  0  0  0  0
   45.9020   32.3930   47.3000 C   0  0  0  0  0  0  0  0  0  0  0  0
   45.5230   32.9060   48.5080 N   0  0  0  0  0  0  0  0  0  0  0  0
   45.4650   31.8390   49.3970 C   0  0  0  0  0  0  0  0  0  0  0  0
   45.8080   30.7210   48.7090 N   0  0  0  0  0  0  0  0  0  0  0  0
   46.0750   31.0380   47.4380 C   0  0  0  0  0  0  0  0  0  0  0  0
   46.4580   30.1750   46.4340 C   0  0  0  0  0  0  0  0  0  0  0  0
   46.9940   30.0840   44.3410 H   0  0  0  0  0  0  0  0  0  0  0  0
   45.9990   33.9940   45.9240 H   0  0  0  0  0  0  0  0  0  0  0  0
   45.3230   33.9220   48.6820 H   0  0  0  0  0  0  0  0  0  0  0  0
   45.1810   32.0440   50.4140 H   0  0  0  0  0  0  0  0  0  0  0  0
   46.5850   29.1130   46.5800 H   0  0  0  0  0  0  0  0  0  0  0  0
   49.4380   34.7520   42.1080 C   0  0  0  0  0  0  0  0  0  0  0  0
   49.2340   35.7860   41.1940 F   0  0  0  0  0  0  0  0  0  0  0  0
   49.8310   35.3470   43.2760 F   0  0  0  0  0  0  0  0  0  0  0  0
   50.3970   33.8920   41.6290 F   0  0  0  0  0  0  0  0  0  0  0  0
   47.4730   34.4350   40.0420 O   0  0  0  0  0  0  0  0  0  0  0  0
   46.9550   33.6590   37.8740 C   0  0  0  0  0  3  0  0  0  0  0  0
   47.7780   33.5880   38.9820 C   0  0  0  0  0  0  0  0  0  0  0  0
   48.8290   32.6940   38.9630 C   0  0  0  0  0  0  0  0  0  0  0  0
   49.4510   32.6600   39.8400 H   0  0  0  0  0  0  0  0  0  0  0  0
   48.9950   31.9320   37.8480 C   0  0  0  0  0  0  0  0  0  0  0  0
   49.9360   31.0000   37.5920 N   0  0  0  0  0  0  0  0  0  0  0  0
   50.7090   30.7040   38.2270 H   0  0  0  0  0  0  0  0  0  0  0  0
   49.7500   30.4820   36.3850 N   0  0  0  0  0  0  0  0  0  0  0  0
   48.6810   31.0620   35.8150 C   0  0  0  0  0  0  0  0  0  0  0  0
   48.1810   30.9540   34.8700 H   0  0  0  0  0  0  0  0  0  0  0  0
   48.1920   31.9800   36.7250 C   0  0  0  0  0  0  0  0  0  0  0  0
   47.1400   32.8770   36.7480 C   0  0  0  0  0  3  0  0  0  0  0  0
  1  6  1  0  0  0  0
  2  1  2  0  0  0  0
  2  3  1  0  0  0  0
  3  4  2  0  0  0  0
  4  5  1  0  0  0  0
  5  9  1  0  0  0  0
  6  5  2  0  0  0  0
  7  1  1  0  0  0  0
  8 16  1  0  0  0  0
  9  8  2  0  0  0  0
  9 10  1  0  0  0  0
 10 11  2  0  0  0  0
 11 15  1  0  0  0  0
 11 12  1  0  0  0  0
 12 19  1  0  0  0  0
 12 13  1  0  0  0  0
 13 20  1  0  0  0  0
 14 13  2  0  0  0  0
 15 14  1  0  0  0  0
 16 21  1  0  0  0  0
 16 15  2  0  0  0  0
 17  8  1  0  0  0  0
 18 10  1  0  0  0  0
 22  3  1  0  0  0  0
 22 24  1  0  0  0  0
 23 22  1  0  0  0  0
 25 22  1  0  0  0  0
 26  2  1  0  0  0  0
 27 28  1  0  0  0  0
 28 26  1  0  0  0  0
 29 28  2  0  0  0  0
 29 30  1  0  0  0  0
 31 29  1  0  0  0  0
 32 31  1  0  0  0  0
 32 33  1  0  0  0  0
 34 32  1  0  0  0  0
 35 34  2  0  0  0  0
 35 37  1  0  0  0  0
 36 35  1  0  0  0  0
 37 38  1  0  0  0  0
 37 31  2  0  0  0  0
 38 27  2  0  0  0  0
M  END
>  <minimizedAffinity>
-6.25298929

>  <minimizedRMSD>
2.6354332

$$$$
