
 OpenBabel03252508313D

 35 38  0  0  1  0  0  0  0  0999 V2000
   44.3720   34.2450   41.2770 N   0  0  0  0  0  0  0  0  0  0  0  0
   43.8750   33.1960   40.4710 C   0  0  1  0  0  0  0  0  0  0  0  0
   42.5740   33.4510   39.8040 C   0  0  0  0  0  0  0  0  0  0  0  0
   41.6310   34.1600   40.5600 N   0  0  0  0  0  0  0  0  0  0  0  0
   42.1090   35.1580   41.4310 C   0  0  0  0  0  0  0  0  0  0  0  0
   43.5730   35.4380   41.2230 C   0  0  0  0  0  0  0  0  0  0  0  0
   43.7240   32.3050   41.1380 H   0  0  0  0  0  0  0  0  0  0  0  0
   42.1340   32.4940   39.4530 H   0  0  0  0  0  0  0  0  0  0  0  0
   42.8000   34.0610   38.8810 H   0  0  0  0  0  0  0  0  0  0  0  0
   40.6980   34.2410   40.1660 H   0  0  0  0  0  0  0  0  0  0  0  0
   41.9740   34.9140   42.5230 H   0  0  0  0  0  0  0  0  0  0  0  0
   41.5490   36.1000   41.2810 H   0  0  0  0  0  0  0  0  0  0  0  0
   43.7600   35.9570   40.2470 H   0  0  0  0  0  0  0  0  0  0  0  0
   43.8340   36.1770   42.0080 H   0  0  0  0  0  0  0  0  0  0  0  0
   45.2430   31.4040   39.5930 C   0  0  0  0  0  3  0  0  0  0  0  0
   44.8430   32.7210   39.4150 C   0  0  0  0  0  0  0  0  0  0  0  0
   45.3740   33.4040   38.3450 C   0  0  0  0  0  0  0  0  0  0  0  0
   44.9990   34.4330   38.2910 H   0  0  0  0  0  0  0  0  0  0  0  0
   46.2510   32.8090   37.5030 C   0  0  0  0  0  0  0  0  0  0  0  0
   46.8360   33.3540   36.4330 N   0  0  0  0  0  0  0  0  0  0  0  0
   46.7650   34.3200   36.0080 H   0  0  0  0  0  0  0  0  0  0  0  0
   47.6150   32.4460   35.8890 N   0  0  0  0  0  0  0  0  0  0  0  0
   47.5390   31.3190   36.5960 C   0  0  0  0  0  0  0  0  0  0  0  0
   48.0500   30.3670   36.4290 H   0  0  0  0  0  0  0  0  0  0  0  0
   46.6650   31.5030   37.6540 C   0  0  0  0  0  0  0  0  0  0  0  0
   46.1510   30.8070   38.7100 C   0  0  0  0  0  3  0  0  0  0  0  0
   46.6300   34.8950   41.7050 C   0  0  0  0  0  0  0  0  0  0  0  0
   45.5550   34.0370   42.0220 C   0  0  0  0  0  0  0  0  0  0  0  0
   45.7430   33.0850   43.0050 C   0  0  0  0  0  0  0  0  0  0  0  0
   46.9370   32.9810   43.6470 N   0  0  0  0  0  0  0  0  0  0  0  0
   47.9650   33.8230   43.3240 C   0  0  0  0  0  0  0  0  0  0  0  0
   47.8070   34.7610   42.3680 N   0  0  0  0  0  0  0  0  0  0  0  0
   46.6870   35.6890   40.9790 H   0  0  0  0  0  0  0  0  0  0  0  0
   44.9260   32.4400   43.2490 H   0  0  0  0  0  0  0  0  0  0  0  0
   48.9130   33.7220   43.8520 H   0  0  0  0  0  0  0  0  0  0  0  0
  1 28  1  0  0  0  0
  2  7  1  1  0  0  0
  2  1  1  0  0  0  0
  3  2  1  0  0  0  0
  3  4  1  0  0  0  0
  4  5  1  0  0  0  0
  5 11  1  0  0  0  0
  6  1  1  0  0  0  0
  6  5  1  0  0  0  0
  6 14  1  0  0  0  0
  8  3  1  0  0  0  0
  9  3  1  0  0  0  0
 10  4  1  0  0  0  0
 12  5  1  0  0  0  0
 13  6  1  0  0  0  0
 16 15  1  0  0  0  0
 16  2  1  0  0  0  0
 17 16  2  0  0  0  0
 18 17  1  0  0  0  0
 19 25  2  0  0  0  0
 19 17  1  0  0  0  0
 20 19  1  0  0  0  0
 21 20  1  0  0  0  0
 22 20  1  0  0  0  0
 22 23  2  0  0  0  0
 23 25  1  0  0  0  0
 24 23  1  0  0  0  0
 25 26  1  0  0  0  0
 26 15  2  0  0  0  0
 27 28  2  0  0  0  0
 27 32  1  0  0  0  0
 28 29  1  0  0  0  0
 29 34  1  0  0  0  0
 29 30  2  0  0  0  0
 31 30  1  0  0  0  0
 31 35  1  0  0  0  0
 32 31  2  0  0  0  0
 33 27  1  0  0  0  0
M  END
>  <minimizedAffinity>
-3.9579525

>  <minimizedRMSD>
2.59895015

$$$$
