
 OpenBabel03252509093D

 44 48  0  0  0  0  0  0  0  0999 V2000
   47.3680   31.7470   39.2470 C   0  0  0  0  0  0  0  0  0  0  0  0
   46.9490   33.0330   39.0740 C   0  0  0  0  0  0  0  0  0  0  0  0
   47.5900   33.8480   38.1560 C   0  0  0  0  0  0  0  0  0  0  0  0
   48.6470   33.3700   37.4180 C   0  0  0  0  0  0  0  0  0  0  0  0
   49.1070   32.0630   37.5640 C   0  0  0  0  0  0  0  0  0  0  0  0
   48.4420   31.2610   38.4970 C   0  0  0  0  0  0  0  0  0  0  0  0
   47.2850   34.8590   37.9970 H   0  0  0  0  0  0  0  0  0  0  0  0
   49.1830   33.9370   36.6990 H   0  0  0  0  0  0  0  0  0  0  0  0
   49.9130   31.6290   37.0310 H   0  0  0  0  0  0  0  0  0  0  0  0
   48.7790   30.2410   38.6300 H   0  0  0  0  0  0  0  0  0  0  0  0
   45.1920   35.6420   43.1670 Cl  0  0  0  0  0  0  0  0  0  0  0  0
   45.0050   34.8020   41.6490 C   0  0  0  0  0  0  0  0  0  0  0  0
   46.0740   34.2760   40.9990 C   0  0  0  0  0  0  0  0  0  0  0  0
   45.8350   33.6300   39.7970 C   0  0  0  0  0  0  0  0  0  0  0  0
   44.5700   33.5240   39.2740 C   0  0  0  0  0  0  0  0  0  0  0  0
   43.5090   34.0540   39.9330 C   0  0  0  0  0  0  0  0  0  0  0  0
   43.7320   34.7010   41.1360 C   0  0  0  0  0  0  0  0  0  0  0  0
   44.4480   33.0090   38.3280 H   0  0  0  0  0  0  0  0  0  0  0  0
   42.5360   33.9460   39.4870 H   0  0  0  0  0  0  0  0  0  0  0  0
   42.8640   35.1110   41.6350 H   0  0  0  0  0  0  0  0  0  0  0  0
   49.5030   35.6200   41.8840 C   0  0  0  0  0  0  0  0  0  0  0  0
   48.2300   35.4940   41.3180 C   0  0  0  0  0  0  0  0  0  0  0  0
   47.4000   34.4160   41.5800 C   0  0  0  0  0  0  0  0  0  0  0  0
   47.9370   33.5220   42.4180 N   0  0  0  0  0  0  0  0  0  0  0  0
   49.1460   33.6230   42.9680 C   0  0  0  0  0  0  0  0  0  0  0  0
   49.9240   34.6630   42.7040 N   0  0  0  0  0  0  0  0  0  0  0  0
   50.0950   36.4950   41.6300 H   0  0  0  0  0  0  0  0  0  0  0  0
   47.8660   36.2770   40.6380 H   0  0  0  0  0  0  0  0  0  0  0  0
   49.3770   32.7730   43.6230 H   0  0  0  0  0  0  0  0  0  0  0  0
   46.6420   30.7140   40.3660 S   0  0  0  0  0  0  0  0  0  0  0  0
   46.7310   29.2560   39.8480 O   0  0  0  0  0  0  0  0  0  0  0  0
   47.5620   30.7020   41.5890 O   0  0  0  0  0  0  0  0  0  0  0  0
   44.4290   31.1360   42.0390 C   0  0  0  0  0  3  0  0  0  0  0  0
   44.9980   30.7550   40.8330 C   0  0  0  0  0  0  0  0  0  0  0  0
   43.9510   30.3120   39.9790 C   0  0  0  0  0  0  0  0  0  0  0  0
   44.2730   29.9740   38.9750 H   0  0  0  0  0  0  0  0  0  0  0  0
   42.6000   30.2500   40.2400 C   0  0  0  0  0  0  0  0  0  0  0  0
   41.5500   29.8540   39.5090 N   0  0  0  0  0  0  0  0  0  0  0  0
   41.6060   29.4960   38.5330 H   0  0  0  0  0  0  0  0  0  0  0  0
   40.4930   30.0160   40.2760 N   0  0  0  0  0  0  0  0  0  0  0  0
   40.8460   30.5060   41.4750 C   0  0  0  0  0  0  0  0  0  0  0  0
   40.1890   30.7420   42.3160 H   0  0  0  0  0  0  0  0  0  0  0  0
   42.2290   30.6660   41.4730 C   0  0  0  0  0  0  0  0  0  0  0  0
   43.1130   31.1250   42.4220 C   0  0  0  0  0  3  0  0  0  0  0  0
  1 30  1  0  0  0  0
  2  1  1  0  0  0  0
  2 14  1  0  0  0  0
  3  2  2  0  0  0  0
  4  5  2  0  0  0  0
  4  3  1  0  0  0  0
  5  6  1  0  0  0  0
  6 10  1  0  0  0  0
  6  1  2  0  0  0  0
  7  3  1  0  0  0  0
  8  4  1  0  0  0  0
  9  5  1  0  0  0  0
 12 11  1  0  0  0  0
 13 23  1  0  0  0  0
 13 12  2  0  0  0  0
 14 13  1  0  0  0  0
 15 14  2  0  0  0  0
 15 16  1  0  0  0  0
 16 17  2  0  0  0  0
 17 20  1  0  0  0  0
 17 12  1  0  0  0  0
 18 15  1  0  0  0  0
 19 16  1  0  0  0  0
 21 26  1  0  0  0  0
 22 23  1  0  0  0  0
 22 21  2  0  0  0  0
 23 24  2  0  0  0  0
 24 25  1  0  0  0  0
 25 29  1  0  0  0  0
 26 25  2  0  0  0  0
 27 21  1  0  0  0  0
 28 22  1  0  0  0  0
 30 34  1  0  0  0  0
 30 32  2  0  0  0  0
 31 30  2  0  0  0  0
 33 44  1  0  0  0  0
 34 33  2  0  0  0  0
 35 37  2  0  0  0  0
 35 34  1  0  0  0  0
 36 35  1  0  0  0  0
 37 43  1  0  0  0  0
 38 37  1  0  0  0  0
 38 40  1  0  0  0  0
 39 38  1  0  0  0  0
 40 41  2  0  0  0  0
 41 42  1  0  0  0  0
 43 41  1  0  0  0  0
 43 44  2  0  0  0  0
M  END
>  <minimizedAffinity>
-4.96557426

>  <minimizedRMSD>
0.909446597

$$$$
