
 OpenBabel03252508323D

 35 38  0  0  1  0  0  0  0  0999 V2000
   44.7430   34.6530   42.4030 N   0  0  0  0  0  0  0  0  0  0  0  0
   45.3260   33.7410   41.4950 C   0  0  1  0  0  0  0  0  0  0  0  0
   45.0540   33.9940   40.0580 C   0  0  0  0  0  0  0  0  0  0  0  0
   43.7610   34.4420   39.7530 N   0  0  0  0  0  0  0  0  0  0  0  0
   43.1260   35.2880   40.6820 C   0  0  0  0  0  0  0  0  0  0  0  0
   44.0660   35.7470   41.7640 C   0  0  0  0  0  0  0  0  0  0  0  0
   44.9080   32.7260   41.7260 H   0  0  0  0  0  0  0  0  0  0  0  0
   45.2900   33.0880   39.4620 H   0  0  0  0  0  0  0  0  0  0  0  0
   45.7780   34.7950   39.7290 H   0  0  0  0  0  0  0  0  0  0  0  0
   43.5210   34.5060   38.7680 H   0  0  0  0  0  0  0  0  0  0  0  0
   42.2400   34.8190   41.1960 H   0  0  0  0  0  0  0  0  0  0  0  0
   42.7180   36.1810   40.1730 H   0  0  0  0  0  0  0  0  0  0  0  0
   44.8300   36.4660   41.3690 H   0  0  0  0  0  0  0  0  0  0  0  0
   43.4330   36.3370   42.4580 H   0  0  0  0  0  0  0  0  0  0  0  0
   47.2940   32.3700   41.1810 C   0  0  0  0  0  3  0  0  0  0  0  0
   46.8190   33.5860   41.6550 C   0  0  0  0  0  0  0  0  0  0  0  0
   47.7360   34.4530   42.2010 C   0  0  0  0  0  0  0  0  0  0  0  0
   47.2650   35.3810   42.5450 H   0  0  0  0  0  0  0  0  0  0  0  0
   49.0470   34.1290   42.2720 C   0  0  0  0  0  0  0  0  0  0  0  0
   50.0360   34.8760   42.7760 N   0  0  0  0  0  0  0  0  0  0  0  0
   50.0370   35.8370   43.2130 H   0  0  0  0  0  0  0  0  0  0  0  0
   51.1560   34.1990   42.6550 N   0  0  0  0  0  0  0  0  0  0  0  0
   50.9040   33.0250   42.0800 C   0  0  0  0  0  0  0  0  0  0  0  0
   51.5990   32.2180   41.8280 H   0  0  0  0  0  0  0  0  0  0  0  0
   49.5490   32.9300   41.8110 C   0  0  0  0  0  0  0  0  0  0  0  0
   48.6560   32.0550   41.2640 C   0  0  0  0  0  3  0  0  0  0  0  0
   44.4460   35.4720   44.6280 C   0  0  0  0  0  0  0  0  0  0  0  0
   44.8760   34.4190   43.7910 C   0  0  0  0  0  0  0  0  0  0  0  0
   45.3840   33.2780   44.3810 C   0  0  0  0  0  0  0  0  0  0  0  0
   45.4670   33.1770   45.7340 N   0  0  0  0  0  0  0  0  0  0  0  0
   45.0440   34.2090   46.5250 C   0  0  0  0  0  0  0  0  0  0  0  0
   44.5450   35.3340   45.9740 N   0  0  0  0  0  0  0  0  0  0  0  0
   44.0290   36.4300   44.3690 H   0  0  0  0  0  0  0  0  0  0  0  0
   45.7030   32.4790   43.7460 H   0  0  0  0  0  0  0  0  0  0  0  0
   45.1200   34.1060   47.6070 H   0  0  0  0  0  0  0  0  0  0  0  0
  1 28  1  0  0  0  0
  2 16  1  0  0  0  0
  2  7  1  1  0  0  0
  2  1  1  0  0  0  0
  3  2  1  0  0  0  0
  4  3  1  0  0  0  0
  4  5  1  0  0  0  0
  5 11  1  0  0  0  0
  5  6  1  0  0  0  0
  6  1  1  0  0  0  0
  6 14  1  0  0  0  0
  8  3  1  0  0  0  0
  9  3  1  0  0  0  0
 10  4  1  0  0  0  0
 12  5  1  0  0  0  0
 13  6  1  0  0  0  0
 15 26  2  0  0  0  0
 15 16  1  0  0  0  0
 16 17  2  0  0  0  0
 17 19  1  0  0  0  0
 17 18  1  0  0  0  0
 19 20  1  0  0  0  0
 20 21  1  0  0  0  0
 22 20  1  0  0  0  0
 23 22  2  0  0  0  0
 24 23  1  0  0  0  0
 25 23  1  0  0  0  0
 25 19  2  0  0  0  0
 26 25  1  0  0  0  0
 27 32  1  0  0  0  0
 28 29  1  0  0  0  0
 28 27  2  0  0  0  0
 29 30  2  0  0  0  0
 30 31  1  0  0  0  0
 31 35  1  0  0  0  0
 32 31  2  0  0  0  0
 33 27  1  0  0  0  0
 34 29  1  0  0  0  0
M  END
>  <minimizedAffinity>
-5.25690365

>  <minimizedRMSD>
1.51176906

$$$$
