
 OpenBabel03242517563D

 46 49  0  0  0  0  0  0  0  0999 V2000
   45.4700   30.1760   47.3290 C   0  0  0  0  0  0  0  0  0  0  0  0
   46.0500   31.2410   46.7260 C   0  0  0  0  0  0  0  0  0  0  0  0
   46.2430   32.3870   47.4750 C   0  0  0  0  0  0  0  0  0  0  0  0
   45.8730   32.4890   48.7950 C   0  0  0  0  0  0  0  0  0  0  0  0
   45.2840   31.3970   49.3960 C   0  0  0  0  0  0  0  0  0  0  0  0
   45.0870   30.2430   48.6520 C   0  0  0  0  0  0  0  0  0  0  0  0
   46.6980   33.2820   47.0740 H   0  0  0  0  0  0  0  0  0  0  0  0
   46.0270   33.3900   49.3770 H   0  0  0  0  0  0  0  0  0  0  0  0
   44.9590   31.3710   50.4190 H   0  0  0  0  0  0  0  0  0  0  0  0
   44.6300   29.3170   49.0240 H   0  0  0  0  0  0  0  0  0  0  0  0
   45.1600   28.7970   46.3030 S   0  0  0  0  0  0  0  0  0  0  0  0
   44.2710   29.0740   45.1630 O   0  0  0  0  0  0  0  0  0  0  0  0
   44.3700   27.8040   47.1900 O   0  0  0  0  0  0  0  0  0  0  0  0
   46.8150   27.1200   44.8090 C   0  0  0  0  0  3  0  0  0  0  0  0
   46.6040   27.8750   45.9520 C   0  0  0  0  0  0  0  0  0  0  0  0
   47.6850   27.8450   46.8360 C   0  0  0  0  0  0  0  0  0  0  0  0
   47.5690   28.4240   47.7530 H   0  0  0  0  0  0  0  0  0  0  0  0
   48.8630   27.1650   46.6620 C   0  0  0  0  0  0  0  0  0  0  0  0
   49.9550   27.0720   47.4430 N   0  0  0  0  0  0  0  0  0  0  0  0
   50.1160   27.5200   48.3710 H   0  0  0  0  0  0  0  0  0  0  0  0
   50.8040   26.2890   46.8030 N   0  0  0  0  0  0  0  0  0  0  0  0
   50.2760   25.8740   45.6170 C   0  0  0  0  0  0  0  0  0  0  0  0
   50.7230   25.2270   44.8670 H   0  0  0  0  0  0  0  0  0  0  0  0
   49.0070   26.4400   45.5110 C   0  0  0  0  0  0  0  0  0  0  0  0
   47.9820   26.4200   44.5890 C   0  0  0  0  0  3  0  0  0  0  0  0
   46.4970   31.3380   45.4140 O   0  0  0  0  0  0  0  0  0  0  0  0
   45.3140   34.2470   43.8020 C   0  0  0  0  0  0  0  0  0  0  0  0
   46.4710   34.7350   43.1640 C   0  0  0  0  0  0  0  0  0  0  0  0
   47.6480   34.0500   43.3000 C   0  0  0  0  0  0  0  0  0  0  0  0
   47.6110   32.9350   44.0520 N   0  0  0  0  0  0  0  0  0  0  0  0
   46.5220   32.4810   44.6480 C   0  0  0  0  0  0  0  0  0  0  0  0
   45.3720   33.1360   44.5250 N   0  0  0  0  0  0  0  0  0  0  0  0
   44.3860   34.7920   43.6920 H   0  0  0  0  0  0  0  0  0  0  0  0
   46.3590   35.6230   42.6030 H   0  0  0  0  0  0  0  0  0  0  0  0
   48.8990   34.4720   42.6660 C   0  0  0  0  0  0  0  0  0  0  0  0
   49.6030   34.7400   43.4670 H   0  0  0  0  0  0  0  0  0  0  0  0
   49.3480   33.6370   42.0970 H   0  0  0  0  0  0  0  0  0  0  0  0
   48.7410   35.6340   41.7360 C   0  0  0  0  0  0  0  0  0  0  0  0
   49.7490   36.1570   41.7730 H   0  0  0  0  0  0  0  0  0  0  0  0
   48.0430   36.4080   42.0160 H   0  0  0  0  0  0  0  0  0  0  0  0
   48.6010   35.2550   40.3310 C   0  0  0  0  0  3  0  0  0  0  0  0
   48.0400   34.3440   39.5500 C   0  0  0  0  0  3  0  0  0  0  0  0
   48.2310   34.2000   38.0520 C   0  0  0  0  0  0  0  0  0  0  0  0
   48.9380   34.9720   37.7280 H   0  0  0  0  0  0  0  0  0  0  0  0
   47.2360   34.3430   37.6300 H   0  0  0  0  0  0  0  0  0  0  0  0
   48.5650   33.1650   37.8260 H   0  0  0  0  0  0  0  0  0  0  0  0
  1  6  1  0  0  0  0
  2  1  2  0  0  0  0
  2  3  1  0  0  0  0
  3  4  2  0  0  0  0
  4  8  1  0  0  0  0
  4  5  1  0  0  0  0
  5  9  1  0  0  0  0
  6 10  1  0  0  0  0
  6  5  2  0  0  0  0
  7  3  1  0  0  0  0
 11 13  2  0  0  0  0
 11  1  1  0  0  0  0
 12 11  2  0  0  0  0
 14 15  1  0  0  0  0
 15 11  1  0  0  0  0
 15 16  2  0  0  0  0
 16 17  1  0  0  0  0
 18 16  1  0  0  0  0
 18 19  1  0  0  0  0
 19 20  1  0  0  0  0
 21 19  1  0  0  0  0
 22 21  2  0  0  0  0
 23 22  1  0  0  0  0
 24 22  1  0  0  0  0
 24 18  2  0  0  0  0
 25 14  2  0  0  0  0
 25 24  1  0  0  0  0
 26  2  1  0  0  0  0
 27 32  1  0  0  0  0
 28 29  1  0  0  0  0
 28 27  2  0  0  0  0
 29 30  2  0  0  0  0
 30 31  1  0  0  0  0
 31 26  1  0  0  0  0
 32 31  2  0  0  0  0
 33 27  1  0  0  0  0
 34 28  1  0  0  0  0
 35 29  1  0  0  0  0
 35 36  1  0  0  0  0
 37 35  1  0  0  0  0
 38 39  1  0  0  0  0
 38 40  1  0  0  0  0
 38 35  1  0  0  0  0
 41 38  1  0  0  0  0
 42 41  2  0  0  0  0
 43 42  1  0  0  0  0
 44 43  1  0  0  0  0
 45 43  1  0  0  0  0
 46 43  1  0  0  0  0
M  END
>  <minimizedAffinity>
-5.64698219

>  <minimizedRMSD>
1.87367427

$$$$
