
 OpenBabel03242515103D

 39 42  0  0  0  0  0  0  0  0999 V2000
   47.2820   33.1110   43.7330 N   0  0  0  0  0  0  0  0  0  0  0  0
   47.0430   32.1670   44.1550 H   0  0  0  0  0  0  0  0  0  0  0  0
   45.6720   34.1280   45.3130 C   0  0  0  0  0  0  0  0  0  0  0  0
   44.7620   35.1360   45.4600 C   0  0  0  0  0  0  0  0  0  0  0  0
   44.4560   36.0700   44.4880 C   0  0  0  0  0  0  0  0  0  0  0  0
   45.1000   35.9910   43.2900 C   0  0  0  0  0  0  0  0  0  0  0  0
   46.0220   34.9990   43.0930 C   0  0  0  0  0  0  0  0  0  0  0  0
   46.3090   34.0740   44.0900 C   0  0  0  0  0  0  0  0  0  0  0  0
   44.2130   35.2510   46.3950 H   0  0  0  0  0  0  0  0  0  0  0  0
   43.7330   36.8640   44.6140 H   0  0  0  0  0  0  0  0  0  0  0  0
   44.8860   36.7080   42.5030 H   0  0  0  0  0  0  0  0  0  0  0  0
   46.5100   34.9800   42.1180 H   0  0  0  0  0  0  0  0  0  0  0  0
   47.3790   31.5040   47.2000 C   0  0  0  0  0  0  0  0  0  0  0  0
   46.5680   31.3390   48.3180 C   0  0  0  0  0  0  0  0  0  0  0  0
   45.4180   32.1350   48.4340 C   0  0  0  0  0  0  0  0  0  0  0  0
   45.1270   33.0440   47.4540 N   0  0  0  0  0  0  0  0  0  0  0  0
   45.9550   33.1760   46.3640 C   0  0  0  0  0  0  0  0  0  0  0  0
   47.0470   32.4030   46.2770 N   0  0  0  0  0  0  0  0  0  0  0  0
   48.2510   30.8610   47.1670 H   0  0  0  0  0  0  0  0  0  0  0  0
   46.7400   30.6440   49.1210 H   0  0  0  0  0  0  0  0  0  0  0  0
   44.7430   32.0580   49.2780 H   0  0  0  0  0  0  0  0  0  0  0  0
   48.7010   33.1940   42.7940 S   0  0  0  0  0  0  0  0  0  0  0  0
   48.2860   33.4450   41.3390 O   0  0  0  0  0  0  0  0  0  0  0  0
   48.8920   33.7420   40.6330 H   0  0  0  0  0  0  0  0  0  0  0  0
   49.6590   34.2510   43.2020 O   0  0  0  0  0  0  0  0  0  0  0  0
   49.6140   35.1690   42.8500 H   0  0  0  0  0  0  0  0  0  0  0  0
   49.3670   31.6500   42.7840 O   0  0  0  0  0  0  0  0  0  0  0  0
   50.8770   31.9390   40.9490 C   0  0  0  0  0  3  0  0  0  0  0  0
   50.5210   31.3250   42.1360 C   0  0  0  0  0  0  0  0  0  0  0  0
   51.3510   30.3540   42.6910 C   0  0  0  0  0  0  0  0  0  0  0  0
   51.0580   29.8770   43.6270 H   0  0  0  0  0  0  0  0  0  0  0  0
   52.5310   30.0010   42.0570 C   0  0  0  0  0  0  0  0  0  0  0  0
   53.5120   29.1230   42.3390 N   0  0  0  0  0  0  0  0  0  0  0  0
   53.4800   28.5250   43.1960 H   0  0  0  0  0  0  0  0  0  0  0  0
   54.4470   29.1560   41.4060 N   0  0  0  0  0  0  0  0  0  0  0  0
   54.1260   30.0600   40.4610 C   0  0  0  0  0  0  0  0  0  0  0  0
   54.6850   30.3230   39.5630 H   0  0  0  0  0  0  0  0  0  0  0  0
   52.9150   30.5930   40.8730 C   0  0  0  0  0  0  0  0  0  0  0  0
   52.0680   31.5560   40.3460 C   0  0  0  0  0  3  0  0  0  0  0  0
  1  8  1  0  0  0  0
  1  2  1  0  0  0  0
  3  4  1  0  0  0  0
  3 17  1  0  0  0  0
  4  9  1  0  0  0  0
  5 10  1  0  0  0  0
  5  4  2  0  0  0  0
  6  5  1  0  0  0  0
  7  6  2  0  0  0  0
  7  8  1  0  0  0  0
  8  3  2  0  0  0  0
 11  6  1  0  0  0  0
 12  7  1  0  0  0  0
 13 14  1  0  0  0  0
 14 15  2  0  0  0  0
 14 20  1  0  0  0  0
 15 21  1  0  0  0  0
 16 15  1  0  0  0  0
 17 16  2  0  0  0  0
 18 17  1  0  0  0  0
 18 13  2  0  0  0  0
 19 13  1  0  0  0  0
 22 25  1  0  0  0  0
 22  1  1  0  0  0  0
 23 22  1  0  0  0  0
 24 23  1  0  0  0  0
 26 25  1  0  0  0  0
 27 22  1  0  0  0  0
 28 29  1  0  0  0  0
 29 30  2  0  0  0  0
 29 27  1  0  0  0  0
 30 31  1  0  0  0  0
 32 33  1  0  0  0  0
 32 30  1  0  0  0  0
 33 34  1  0  0  0  0
 35 33  1  0  0  0  0
 36 38  1  0  0  0  0
 36 35  2  0  0  0  0
 37 36  1  0  0  0  0
 38 32  2  0  0  0  0
 39 38  1  0  0  0  0
 39 28  2  0  0  0  0
M  END
>  <minimizedAffinity>
-5.91919136

>  <minimizedRMSD>
1.04731905

$$$$
