
 OpenBabel03242515103D

 39 42  0  0  0  0  0  0  0  0999 V2000
   47.1770   33.0160   43.8530 N   0  0  0  0  0  0  0  0  0  0  0  0
   46.9920   32.0910   44.3410 H   0  0  0  0  0  0  0  0  0  0  0  0
   45.6370   34.0400   45.4970 C   0  0  0  0  0  0  0  0  0  0  0  0
   44.7410   35.0540   45.6810 C   0  0  0  0  0  0  0  0  0  0  0  0
   44.4030   35.9920   44.7230 C   0  0  0  0  0  0  0  0  0  0  0  0
   45.0000   35.9110   43.5010 C   0  0  0  0  0  0  0  0  0  0  0  0
   45.9070   34.9130   43.2660 C   0  0  0  0  0  0  0  0  0  0  0  0
   46.2260   33.9840   44.2500 C   0  0  0  0  0  0  0  0  0  0  0  0
   44.2300   35.1710   46.6370 H   0  0  0  0  0  0  0  0  0  0  0  0
   43.6910   36.7910   44.8790 H   0  0  0  0  0  0  0  0  0  0  0  0
   44.7600   36.6310   42.7250 H   0  0  0  0  0  0  0  0  0  0  0  0
   46.3560   34.8930   42.2730 H   0  0  0  0  0  0  0  0  0  0  0  0
   47.4510   31.4710   47.3600 C   0  0  0  0  0  0  0  0  0  0  0  0
   46.6340   31.2440   48.4630 C   0  0  0  0  0  0  0  0  0  0  0  0
   45.4430   31.9770   48.5760 C   0  0  0  0  0  0  0  0  0  0  0  0
   45.1190   32.8890   47.6090 N   0  0  0  0  0  0  0  0  0  0  0  0
   45.9540   33.0840   46.5340 C   0  0  0  0  0  0  0  0  0  0  0  0
   47.0860   32.3700   46.4490 N   0  0  0  0  0  0  0  0  0  0  0  0
   48.3560   30.8750   47.3280 H   0  0  0  0  0  0  0  0  0  0  0  0
   46.8310   30.5440   49.2560 H   0  0  0  0  0  0  0  0  0  0  0  0
   44.7620   31.8500   49.4090 H   0  0  0  0  0  0  0  0  0  0  0  0
   48.5030   33.0660   42.7850 S   0  0  0  0  0  0  0  0  0  0  0  0
   47.9570   33.2870   41.3690 O   0  0  0  0  0  0  0  0  0  0  0  0
   48.4960   33.5640   40.6030 H   0  0  0  0  0  0  0  0  0  0  0  0
   49.5010   34.1250   43.0780 O   0  0  0  0  0  0  0  0  0  0  0  0
   49.4280   35.0350   42.7100 H   0  0  0  0  0  0  0  0  0  0  0  0
   49.1570   31.5170   42.7500 O   0  0  0  0  0  0  0  0  0  0  0  0
   51.2400   30.3360   42.7130 C   0  0  0  0  0  3  0  0  0  0  0  0
   50.3320   31.2030   42.1330 C   0  0  0  0  0  0  0  0  0  0  0  0
   50.6120   31.7730   40.8940 C   0  0  0  0  0  0  0  0  0  0  0  0
   49.8870   32.4550   40.4460 H   0  0  0  0  0  0  0  0  0  0  0  0
   51.7980   31.4740   40.2420 C   0  0  0  0  0  0  0  0  0  0  0  0
   52.3340   31.8560   39.0690 N   0  0  0  0  0  0  0  0  0  0  0  0
   51.8380   32.5190   38.4300 H   0  0  0  0  0  0  0  0  0  0  0  0
   53.5120   31.2820   38.8880 N   0  0  0  0  0  0  0  0  0  0  0  0
   53.8070   30.4930   39.9380 C   0  0  0  0  0  0  0  0  0  0  0  0
   54.6990   29.8860   40.0950 H   0  0  0  0  0  0  0  0  0  0  0  0
   52.7220   30.6140   40.7930 C   0  0  0  0  0  0  0  0  0  0  0  0
   52.4150   30.0630   42.0270 C   0  0  0  0  0  3  0  0  0  0  0  0
  1  8  1  0  0  0  0
  1  2  1  0  0  0  0
  3  4  1  0  0  0  0
  3 17  1  0  0  0  0
  4  9  1  0  0  0  0
  5 10  1  0  0  0  0
  5  4  2  0  0  0  0
  6  5  1  0  0  0  0
  7  6  2  0  0  0  0
  7  8  1  0  0  0  0
  8  3  2  0  0  0  0
 11  6  1  0  0  0  0
 12  7  1  0  0  0  0
 13 14  1  0  0  0  0
 14 15  2  0  0  0  0
 14 20  1  0  0  0  0
 15 21  1  0  0  0  0
 16 15  1  0  0  0  0
 17 16  2  0  0  0  0
 18 17  1  0  0  0  0
 18 13  2  0  0  0  0
 19 13  1  0  0  0  0
 22 25  1  0  0  0  0
 22  1  1  0  0  0  0
 23 22  1  0  0  0  0
 24 23  1  0  0  0  0
 26 25  1  0  0  0  0
 27 22  1  0  0  0  0
 29 28  1  0  0  0  0
 29 27  1  0  0  0  0
 30 29  2  0  0  0  0
 31 30  1  0  0  0  0
 32 38  2  0  0  0  0
 32 30  1  0  0  0  0
 33 32  1  0  0  0  0
 34 33  1  0  0  0  0
 35 33  1  0  0  0  0
 35 36  2  0  0  0  0
 36 37  1  0  0  0  0
 36 38  1  0  0  0  0
 38 39  1  0  0  0  0
 39 28  2  0  0  0  0
M  END
>  <minimizedAffinity>
-6.27058458

>  <minimizedRMSD>
1.12956417

$$$$
