
 OpenBabel03242518163D

 35 38  0  0  0  0  0  0  0  0999 V2000
   48.9090   31.2170   42.7010 C   0  0  0  0  0  0  0  0  0  0  0  0
   48.6970   31.8270   41.4460 C   0  0  0  0  0  0  0  0  0  0  0  0
   49.7410   32.1190   40.6340 C   0  0  0  0  0  0  0  0  0  0  0  0
   51.0500   31.7780   41.1140 C   0  0  0  0  0  0  0  0  0  0  0  0
   50.7760   31.0360   42.7450 S   0  0  0  0  0  0  0  0  0  0  0  0
   47.6690   32.0010   41.2680 H   0  0  0  0  0  0  0  0  0  0  0  0
   49.5810   32.5820   39.6790 H   0  0  0  0  0  0  0  0  0  0  0  0
   48.1120   30.7510   43.7710 C   0  0  0  0  0  0  0  0  0  0  0  0
   47.4540   29.9190   43.3550 H   0  0  0  0  0  0  0  0  0  0  0  0
   48.7590   30.1650   44.4940 H   0  0  0  0  0  0  0  0  0  0  0  0
   47.2690   31.7160   44.4970 C   0  0  0  0  0  0  0  0  0  0  0  0
   47.9120   32.4670   45.0140 H   0  0  0  0  0  0  0  0  0  0  0  0
   46.6530   32.3090   43.7890 H   0  0  0  0  0  0  0  0  0  0  0  0
   46.4110   31.0330   45.4640 C   0  0  0  0  0  0  0  0  0  0  0  0
   46.2610   31.5030   46.7490 C   0  0  0  0  0  0  0  0  0  0  0  0
   45.4220   30.7860   47.6060 C   0  0  0  0  0  0  0  0  0  0  0  0
   44.8010   29.6830   47.1550 N   0  0  0  0  0  0  0  0  0  0  0  0
   44.9750   29.2540   45.8830 C   0  0  0  0  0  0  0  0  0  0  0  0
   45.7580   29.9220   45.0800 N   0  0  0  0  0  0  0  0  0  0  0  0
   46.8120   32.3980   46.9950 H   0  0  0  0  0  0  0  0  0  0  0  0
   45.3220   31.1770   48.6110 H   0  0  0  0  0  0  0  0  0  0  0  0
   44.4240   28.3580   45.6370 H   0  0  0  0  0  0  0  0  0  0  0  0
   52.1510   31.9760   40.4810 O   0  0  0  0  0  0  0  0  0  0  0  0
   53.4500   31.3070   38.7910 C   0  0  0  0  0  3  0  0  0  0  0  0
   53.1400   31.0810   40.1390 C   0  0  0  0  0  0  0  0  0  0  0  0
   53.8150   30.1040   40.8110 C   0  0  0  0  0  0  0  0  0  0  0  0
   53.4980   30.0240   41.8190 H   0  0  0  0  0  0  0  0  0  0  0  0
   54.7800   29.3390   40.2170 C   0  0  0  0  0  0  0  0  0  0  0  0
   55.5240   28.3510   40.7340 N   0  0  0  0  0  0  0  0  0  0  0  0
   55.4840   27.9900   41.7230 H   0  0  0  0  0  0  0  0  0  0  0  0
   56.3140   27.9210   39.7620 N   0  0  0  0  0  0  0  0  0  0  0  0
   56.0890   28.6160   38.6320 C   0  0  0  0  0  0  0  0  0  0  0  0
   56.5650   28.5140   37.6670 H   0  0  0  0  0  0  0  0  0  0  0  0
   55.0900   29.5540   38.8920 C   0  0  0  0  0  0  0  0  0  0  0  0
   54.4350   30.5380   38.1580 C   0  0  0  0  0  3  0  0  0  0  0  0
  1  5  1  0  0  0  0
  1  8  1  0  0  0  0
  2  1  2  0  0  0  0
  3  4  2  0  0  0  0
  3  2  1  0  0  0  0
  4  5  1  0  0  0  0
  6  2  1  0  0  0  0
  7  3  1  0  0  0  0
  8 10  1  0  0  0  0
  8 11  1  0  0  0  0
  9  8  1  0  0  0  0
 11 12  1  0  0  0  0
 11 14  1  0  0  0  0
 13 11  1  0  0  0  0
 14 15  1  0  0  0  0
 15 20  1  0  0  0  0
 15 16  2  0  0  0  0
 16 21  1  0  0  0  0
 17 16  1  0  0  0  0
 18 17  2  0  0  0  0
 19 14  2  0  0  0  0
 19 18  1  0  0  0  0
 22 18  1  0  0  0  0
 23  4  1  0  0  0  0
 24 25  1  0  0  0  0
 25 23  1  0  0  0  0
 25 26  2  0  0  0  0
 26 27  1  0  0  0  0
 28 29  1  0  0  0  0
 28 26  1  0  0  0  0
 29 30  1  0  0  0  0
 31 29  1  0  0  0  0
 32 34  1  0  0  0  0
 32 31  2  0  0  0  0
 33 32  1  0  0  0  0
 34 28  2  0  0  0  0
 35 24  2  0  0  0  0
 35 34  1  0  0  0  0
M  END
>  <minimizedAffinity>
-3.4265542

>  <minimizedRMSD>
4.33789587

$$$$
