
 OpenBabel03242515103D

 39 42  0  0  0  0  0  0  0  0999 V2000
   47.1740   32.7320   44.1020 N   0  0  0  0  0  0  0  0  0  0  0  0
   47.1120   31.9330   44.7990 H   0  0  0  0  0  0  0  0  0  0  0  0
   45.6540   33.9010   45.6660 C   0  0  0  0  0  0  0  0  0  0  0  0
   44.7810   34.9450   45.7780 C   0  0  0  0  0  0  0  0  0  0  0  0
   44.4670   35.8230   44.7570 C   0  0  0  0  0  0  0  0  0  0  0  0
   45.0640   35.6450   43.5460 C   0  0  0  0  0  0  0  0  0  0  0  0
   45.9480   34.6130   43.3830 C   0  0  0  0  0  0  0  0  0  0  0  0
   46.2440   33.7460   44.4290 C   0  0  0  0  0  0  0  0  0  0  0  0
   44.2700   35.1390   46.7220 H   0  0  0  0  0  0  0  0  0  0  0  0
   43.7730   36.6470   44.8550 H   0  0  0  0  0  0  0  0  0  0  0  0
   44.8420   36.3160   42.7210 H   0  0  0  0  0  0  0  0  0  0  0  0
   46.3990   34.5150   42.3940 H   0  0  0  0  0  0  0  0  0  0  0  0
   47.5670   31.8150   47.9800 C   0  0  0  0  0  0  0  0  0  0  0  0
   46.5920   31.3200   48.8400 C   0  0  0  0  0  0  0  0  0  0  0  0
   45.2580   31.7020   48.6300 C   0  0  0  0  0  0  0  0  0  0  0  0
   44.9530   32.5440   47.5960 N   0  0  0  0  0  0  0  0  0  0  0  0
   45.9470   33.0110   46.7670 C   0  0  0  0  0  0  0  0  0  0  0  0
   47.2130   32.6300   46.9890 N   0  0  0  0  0  0  0  0  0  0  0  0
   48.5770   31.4850   48.1920 H   0  0  0  0  0  0  0  0  0  0  0  0
   46.7650   30.6570   49.6690 H   0  0  0  0  0  0  0  0  0  0  0  0
   44.4500   31.3540   49.2620 H   0  0  0  0  0  0  0  0  0  0  0  0
   48.3200   32.5710   42.8530 S   0  0  0  0  0  0  0  0  0  0  0  0
   47.5600   32.5270   41.5220 O   0  0  0  0  0  0  0  0  0  0  0  0
   47.9710   32.6520   40.6440 H   0  0  0  0  0  0  0  0  0  0  0  0
   49.3280   33.6590   42.7870 O   0  0  0  0  0  0  0  0  0  0  0  0
   49.1810   34.4840   42.2720 H   0  0  0  0  0  0  0  0  0  0  0  0
   48.9940   31.0380   43.0060 O   0  0  0  0  0  0  0  0  0  0  0  0
   50.3900   30.6110   41.1080 C   0  0  0  0  0  3  0  0  0  0  0  0
   50.1980   30.6820   42.4760 C   0  0  0  0  0  0  0  0  0  0  0  0
   51.2490   30.3850   43.3390 C   0  0  0  0  0  0  0  0  0  0  0  0
   51.0850   30.4440   44.4170 H   0  0  0  0  0  0  0  0  0  0  0  0
   52.4860   30.0190   42.8320 C   0  0  0  0  0  0  0  0  0  0  0  0
   53.6590   29.6830   43.3980 N   0  0  0  0  0  0  0  0  0  0  0  0
   53.7800   29.6590   44.4360 H   0  0  0  0  0  0  0  0  0  0  0  0
   54.5610   29.4100   42.4700 N   0  0  0  0  0  0  0  0  0  0  0  0
   54.0200   29.5540   41.2440 C   0  0  0  0  0  0  0  0  0  0  0  0
   54.4980   29.4040   40.2760 H   0  0  0  0  0  0  0  0  0  0  0  0
   52.7080   29.9390   41.4750 C   0  0  0  0  0  0  0  0  0  0  0  0
   51.6430   30.2390   40.6410 C   0  0  0  0  0  3  0  0  0  0  0  0
  1  8  1  0  0  0  0
  1  2  1  0  0  0  0
  3  4  1  0  0  0  0
  3 17  1  0  0  0  0
  4  9  1  0  0  0  0
  5 10  1  0  0  0  0
  5  4  2  0  0  0  0
  6  5  1  0  0  0  0
  7  6  2  0  0  0  0
  7  8  1  0  0  0  0
  8  3  2  0  0  0  0
 11  6  1  0  0  0  0
 12  7  1  0  0  0  0
 13 19  1  0  0  0  0
 13 14  1  0  0  0  0
 14 20  1  0  0  0  0
 15 14  2  0  0  0  0
 15 21  1  0  0  0  0
 16 15  1  0  0  0  0
 17 18  1  0  0  0  0
 17 16  2  0  0  0  0
 18 13  2  0  0  0  0
 22 27  1  0  0  0  0
 22  1  1  0  0  0  0
 23 22  1  0  0  0  0
 24 23  1  0  0  0  0
 25 22  1  0  0  0  0
 26 25  1  0  0  0  0
 28 29  1  0  0  0  0
 29 27  1  0  0  0  0
 29 30  2  0  0  0  0
 30 31  1  0  0  0  0
 32 30  1  0  0  0  0
 32 33  1  0  0  0  0
 33 34  1  0  0  0  0
 35 33  1  0  0  0  0
 36 38  1  0  0  0  0
 36 35  2  0  0  0  0
 37 36  1  0  0  0  0
 38 32  2  0  0  0  0
 39 28  2  0  0  0  0
 39 38  1  0  0  0  0
M  END
>  <minimizedAffinity>
-5.3066206

>  <minimizedRMSD>
0.639002204

$$$$
