
 OpenBabel03242517563D

 46 49  0  0  0  0  0  0  0  0999 V2000
   45.4580   30.1670   47.2880 C   0  0  0  0  0  0  0  0  0  0  0  0
   46.0460   31.2310   46.6920 C   0  0  0  0  0  0  0  0  0  0  0  0
   46.2550   32.3680   47.4500 C   0  0  0  0  0  0  0  0  0  0  0  0
   45.8940   32.4610   48.7740 C   0  0  0  0  0  0  0  0  0  0  0  0
   45.2980   31.3700   49.3680 C   0  0  0  0  0  0  0  0  0  0  0  0
   45.0840   30.2250   48.6140 C   0  0  0  0  0  0  0  0  0  0  0  0
   46.7160   33.2620   47.0550 H   0  0  0  0  0  0  0  0  0  0  0  0
   46.0610   33.3550   49.3630 H   0  0  0  0  0  0  0  0  0  0  0  0
   44.9790   31.3380   50.3930 H   0  0  0  0  0  0  0  0  0  0  0  0
   44.6210   29.3000   48.9810 H   0  0  0  0  0  0  0  0  0  0  0  0
   45.1280   28.8010   46.2520 S   0  0  0  0  0  0  0  0  0  0  0  0
   44.1630   29.0740   45.1730 O   0  0  0  0  0  0  0  0  0  0  0  0
   44.4230   27.7650   47.1620 O   0  0  0  0  0  0  0  0  0  0  0  0
   47.3660   27.1840   46.6480 C   0  0  0  0  0  3  0  0  0  0  0  0
   46.5740   27.9310   45.7930 C   0  0  0  0  0  0  0  0  0  0  0  0
   47.0380   27.9300   44.4750 C   0  0  0  0  0  0  0  0  0  0  0  0
   46.4480   28.5060   43.7600 H   0  0  0  0  0  0  0  0  0  0  0  0
   48.1510   27.2830   44.0010 C   0  0  0  0  0  0  0  0  0  0  0  0
   48.6780   27.2190   42.7650 N   0  0  0  0  0  0  0  0  0  0  0  0
   48.3220   27.6720   41.8940 H   0  0  0  0  0  0  0  0  0  0  0  0
   49.7540   26.4590   42.8590 N   0  0  0  0  0  0  0  0  0  0  0  0
   49.9300   26.0310   44.1410 C   0  0  0  0  0  0  0  0  0  0  0  0
   50.7160   25.3960   44.5400 H   0  0  0  0  0  0  0  0  0  0  0  0
   48.8890   26.5620   44.8990 C   0  0  0  0  0  0  0  0  0  0  0  0
   48.4930   26.5150   46.2200 C   0  0  0  0  0  3  0  0  0  0  0  0
   46.4850   31.3360   45.3770 O   0  0  0  0  0  0  0  0  0  0  0  0
   45.3080   34.2560   43.7810 C   0  0  0  0  0  0  0  0  0  0  0  0
   46.4690   34.7510   43.1550 C   0  0  0  0  0  0  0  0  0  0  0  0
   47.6460   34.0680   43.2950 C   0  0  0  0  0  0  0  0  0  0  0  0
   47.6060   32.9460   44.0370 N   0  0  0  0  0  0  0  0  0  0  0  0
   46.5140   32.4850   44.6220 C   0  0  0  0  0  0  0  0  0  0  0  0
   45.3630   33.1390   44.4950 N   0  0  0  0  0  0  0  0  0  0  0  0
   44.3800   34.8000   43.6670 H   0  0  0  0  0  0  0  0  0  0  0  0
   46.3590   35.6440   42.6000 H   0  0  0  0  0  0  0  0  0  0  0  0
   48.9000   34.4970   42.6740 C   0  0  0  0  0  0  0  0  0  0  0  0
   49.5920   34.7780   43.4820 H   0  0  0  0  0  0  0  0  0  0  0  0
   49.3650   33.6630   42.1160 H   0  0  0  0  0  0  0  0  0  0  0  0
   48.7430   35.6520   41.7340 C   0  0  0  0  0  0  0  0  0  0  0  0
   49.7520   36.1750   41.7680 H   0  0  0  0  0  0  0  0  0  0  0  0
   48.0460   36.4280   42.0080 H   0  0  0  0  0  0  0  0  0  0  0  0
   48.6040   35.2620   40.3330 C   0  0  0  0  0  3  0  0  0  0  0  0
   48.0380   34.3480   39.5580 C   0  0  0  0  0  3  0  0  0  0  0  0
   48.2320   34.1890   38.0620 C   0  0  0  0  0  0  0  0  0  0  0  0
   48.9480   34.9510   37.7340 H   0  0  0  0  0  0  0  0  0  0  0  0
   47.2400   34.3370   37.6350 H   0  0  0  0  0  0  0  0  0  0  0  0
   48.5580   33.1490   37.8460 H   0  0  0  0  0  0  0  0  0  0  0  0
  1  6  1  0  0  0  0
  2  1  2  0  0  0  0
  2  3  1  0  0  0  0
  3  4  2  0  0  0  0
  4  8  1  0  0  0  0
  4  5  1  0  0  0  0
  5  9  1  0  0  0  0
  6 10  1  0  0  0  0
  6  5  2  0  0  0  0
  7  3  1  0  0  0  0
 11 13  2  0  0  0  0
 11  1  1  0  0  0  0
 12 11  2  0  0  0  0
 15 11  1  0  0  0  0
 15 14  2  0  0  0  0
 16 15  1  0  0  0  0
 17 16  1  0  0  0  0
 18 16  2  0  0  0  0
 18 24  1  0  0  0  0
 19 21  1  0  0  0  0
 19 18  1  0  0  0  0
 20 19  1  0  0  0  0
 21 22  2  0  0  0  0
 22 23  1  0  0  0  0
 22 24  1  0  0  0  0
 24 25  2  0  0  0  0
 25 14  1  0  0  0  0
 26  2  1  0  0  0  0
 27 32  1  0  0  0  0
 28 29  1  0  0  0  0
 28 27  2  0  0  0  0
 29 30  2  0  0  0  0
 30 31  1  0  0  0  0
 31 26  1  0  0  0  0
 32 31  2  0  0  0  0
 33 27  1  0  0  0  0
 34 28  1  0  0  0  0
 35 29  1  0  0  0  0
 35 36  1  0  0  0  0
 37 35  1  0  0  0  0
 38 39  1  0  0  0  0
 38 40  1  0  0  0  0
 38 35  1  0  0  0  0
 41 38  1  0  0  0  0
 42 41  2  0  0  0  0
 43 42  1  0  0  0  0
 44 43  1  0  0  0  0
 45 43  1  0  0  0  0
 46 43  1  0  0  0  0
M  END
>  <minimizedAffinity>
-5.5534687

>  <minimizedRMSD>
1.78537929

$$$$
