
 OpenBabel03252508043D

 45 49  0  0  1  0  0  0  0  0999 V2000
   42.2050   33.2770   41.1790 C   0  0  0  0  0  0  0  0  0  0  0  0
   42.8560   34.4580   41.3870 C   0  0  0  0  0  0  0  0  0  0  0  0
   42.0960   35.6440   41.3430 C   0  0  0  0  0  0  0  0  0  0  0  0
   40.7450   35.6670   41.1060 C   0  0  0  0  0  0  0  0  0  0  0  0
   40.0990   34.4780   40.8990 C   0  0  0  0  0  0  0  0  0  0  0  0
   40.8250   33.3230   40.9380 C   0  0  0  0  0  0  0  0  0  0  0  0
   42.5280   36.6280   41.4880 H   0  0  0  0  0  0  0  0  0  0  0  0
   40.1790   36.5770   41.0750 H   0  0  0  0  0  0  0  0  0  0  0  0
   39.0540   34.4000   40.7080 H   0  0  0  0  0  0  0  0  0  0  0  0
   40.3100   32.3630   40.7730 H   0  0  0  0  0  0  0  0  0  0  0  0
   42.9970   31.7900   41.2440 S   0  0  0  0  0  0  0  0  0  0  0  0
   42.2480   30.9900   40.1600 O   0  0  0  0  0  0  0  0  0  0  0  0
   42.7430   31.0990   42.5740 O   0  0  0  0  0  0  0  0  0  0  0  0
   45.3270   30.5690   41.5300 C   0  0  0  0  0  3  0  0  0  0  0  0
   44.4470   31.2510   40.6500 C   0  0  0  0  0  0  0  0  0  0  0  0
   44.9870   31.3080   39.3410 C   0  0  0  0  0  0  0  0  0  0  0  0
   44.2890   31.8300   38.6560 H   0  0  0  0  0  0  0  0  0  0  0  0
   46.1660   30.8330   38.8140 C   0  0  0  0  0  0  0  0  0  0  0  0
   46.7940   30.8080   37.6610 N   0  0  0  0  0  0  0  0  0  0  0  0
   46.3920   31.2380   36.8010 H   0  0  0  0  0  0  0  0  0  0  0  0
   47.9220   30.1660   37.8860 N   0  0  0  0  0  0  0  0  0  0  0  0
   48.0370   29.7750   39.1670 C   0  0  0  0  0  0  0  0  0  0  0  0
   48.8640   29.2340   39.6070 H   0  0  0  0  0  0  0  0  0  0  0  0
   46.8750   30.2120   39.7990 C   0  0  0  0  0  0  0  0  0  0  0  0
   46.5260   30.0550   41.1090 C   0  0  0  0  0  3  0  0  0  0  0  0
   44.2860   34.5390   41.6390 C   0  0  0  0  0  0  0  0  0  0  0  0
   45.1790   34.5860   40.7290 O   0  0  0  0  0  0  0  0  0  0  0  0
   44.6070   34.5650   43.0360 C   0  0  0  0  0  0  0  0  0  0  0  0
   44.2930   35.7810   43.7290 C   0  0  0  0  0  0  0  0  0  0  0  0
   44.5870   35.8180   45.0840 C   0  0  0  0  0  0  0  0  0  0  0  0
   45.1440   34.7210   45.6600 N   0  0  0  0  0  0  0  0  0  0  0  0
   45.4250   33.5790   44.9530 C   0  0  0  0  0  0  0  0  0  0  0  0
   45.1510   33.5510   43.6980 N   0  0  0  0  0  0  0  0  0  0  0  0
   43.8620   36.6790   43.3550 H   0  0  0  0  0  0  0  0  0  0  0  0
   44.4050   36.6600   45.7180 H   0  0  0  0  0  0  0  0  0  0  0  0
   46.0230   32.4390   45.6670 C   0  0  1  0  0  0  0  0  0  0  0  0
   46.9800   32.7080   46.8130 C   0  0  0  0  0  0  0  0  0  0  0  0
   45.5670   32.2700   47.0730 C   0  0  1  0  0  0  0  0  0  0  0  0
   46.2490   31.5330   45.1130 H   0  0  0  0  0  0  0  0  0  0  0  0
   47.2910   33.7590   46.9170 H   0  0  0  0  0  0  0  0  0  0  0  0
   47.7860   31.9920   47.0260 H   0  0  0  0  0  0  0  0  0  0  0  0
   45.4540   31.2770   47.5390 H   0  0  0  0  0  0  0  0  0  0  0  0
   44.7960   33.3260   47.7130 N   0  0  0  0  0  0  0  0  0  0  0  0
   44.8870   33.2960   48.7540 H   0  0  0  0  0  0  0  0  0  0  0  0
   43.7820   33.0720   47.5380 H   0  0  0  0  0  0  0  0  0  0  0  0
  1 11  1  0  0  0  0
  1  2  1  0  0  0  0
  2 26  1  0  0  0  0
  3  2  2  0  0  0  0
  3  7  1  0  0  0  0
  4  3  1  0  0  0  0
  5  6  1  0  0  0  0
  5  4  2  0  0  0  0
  6  1  2  0  0  0  0
  8  4  1  0  0  0  0
  9  5  1  0  0  0  0
 10  6  1  0  0  0  0
 11 13  2  0  0  0  0
 12 11  2  0  0  0  0
 15 11  1  0  0  0  0
 15 14  2  0  0  0  0
 16 15  1  0  0  0  0
 17 16  1  0  0  0  0
 18 16  2  0  0  0  0
 18 24  1  0  0  0  0
 19 21  1  0  0  0  0
 19 18  1  0  0  0  0
 20 19  1  0  0  0  0
 21 22  2  0  0  0  0
 22 23  1  0  0  0  0
 22 24  1  0  0  0  0
 24 25  2  0  0  0  0
 25 14  1  0  0  0  0
 26 28  1  0  0  0  0
 27 26  2  0  0  0  0
 28 33  2  0  0  0  0
 28 29  1  0  0  0  0
 29 30  2  0  0  0  0
 30 31  1  0  0  0  0
 30 35  1  0  0  0  0
 32 31  2  0  0  0  0
 32 36  1  0  0  0  0
 33 32  1  0  0  0  0
 34 29  1  0  0  0  0
 36 39  1  6  0  0  0
 36 37  1  0  0  0  0
 36 38  1  0  0  0  0
 37 40  1  0  0  0  0
 37 41  1  0  0  0  0
 37 38  1  0  0  0  0
 38 42  1  1  0  0  0
 38 43  1  0  0  0  0
 43 44  1  0  0  0  0
 45 43  1  0  0  0  0
M  END
>  <minimizedAffinity>
-5.84347963

>  <minimizedRMSD>
1.50234878

$$$$
