
 OpenBabel03252508033D

 45 49  0  0  1  0  0  0  0  0999 V2000
   42.2140   33.2930   41.1140 C   0  0  0  0  0  0  0  0  0  0  0  0
   42.8690   34.4600   41.3790 C   0  0  0  0  0  0  0  0  0  0  0  0
   42.1130   35.6480   41.3950 C   0  0  0  0  0  0  0  0  0  0  0  0
   40.7610   35.6880   41.1610 C   0  0  0  0  0  0  0  0  0  0  0  0
   40.1120   34.5130   40.8960 C   0  0  0  0  0  0  0  0  0  0  0  0
   40.8340   33.3550   40.8770 C   0  0  0  0  0  0  0  0  0  0  0  0
   42.5480   36.6230   41.5880 H   0  0  0  0  0  0  0  0  0  0  0  0
   40.1980   36.6000   41.1760 H   0  0  0  0  0  0  0  0  0  0  0  0
   39.0660   34.4470   40.7020 H   0  0  0  0  0  0  0  0  0  0  0  0
   40.3160   32.4060   40.6640 H   0  0  0  0  0  0  0  0  0  0  0  0
   43.0010   31.8010   41.1040 S   0  0  0  0  0  0  0  0  0  0  0  0
   42.0710   30.9640   40.2030 O   0  0  0  0  0  0  0  0  0  0  0  0
   42.9820   31.1700   42.4860 O   0  0  0  0  0  0  0  0  0  0  0  0
   44.2770   31.1790   38.8710 C   0  0  0  0  0  3  0  0  0  0  0  0
   44.3230   31.2230   40.2890 C   0  0  0  0  0  0  0  0  0  0  0  0
   45.5810   30.7770   40.7690 C   0  0  0  0  0  0  0  0  0  0  0  0
   45.6140   30.8260   41.8740 H   0  0  0  0  0  0  0  0  0  0  0  0
   46.7050   30.3320   40.1120 C   0  0  0  0  0  0  0  0  0  0  0  0
   47.9110   29.8950   40.4010 N   0  0  0  0  0  0  0  0  0  0  0  0
   48.2480   29.8120   41.3840 H   0  0  0  0  0  0  0  0  0  0  0  0
   48.4790   29.6340   39.2410 N   0  0  0  0  0  0  0  0  0  0  0  0
   47.6640   29.8940   38.2060 C   0  0  0  0  0  0  0  0  0  0  0  0
   47.8900   29.7650   37.1540 H   0  0  0  0  0  0  0  0  0  0  0  0
   46.4770   30.3600   38.7670 C   0  0  0  0  0  0  0  0  0  0  0  0
   45.3420   30.7530   38.1200 C   0  0  0  0  0  3  0  0  0  0  0  0
   44.3000   34.5230   41.6340 C   0  0  0  0  0  0  0  0  0  0  0  0
   45.1950   34.5510   40.7250 O   0  0  0  0  0  0  0  0  0  0  0  0
   44.6180   34.5550   43.0320 C   0  0  0  0  0  0  0  0  0  0  0  0
   44.3040   35.7740   43.7180 C   0  0  0  0  0  0  0  0  0  0  0  0
   44.5960   35.8160   45.0740 C   0  0  0  0  0  0  0  0  0  0  0  0
   45.1510   34.7220   45.6560 N   0  0  0  0  0  0  0  0  0  0  0  0
   45.4330   33.5770   44.9540 C   0  0  0  0  0  0  0  0  0  0  0  0
   45.1610   33.5430   43.6980 N   0  0  0  0  0  0  0  0  0  0  0  0
   43.8740   36.6710   43.3400 H   0  0  0  0  0  0  0  0  0  0  0  0
   44.4130   36.6610   45.7040 H   0  0  0  0  0  0  0  0  0  0  0  0
   46.0280   32.4390   45.6730 C   0  0  1  0  0  0  0  0  0  0  0  0
   46.9780   32.7120   46.8230 C   0  0  0  0  0  0  0  0  0  0  0  0
   45.5650   32.2720   47.0780 C   0  0  1  0  0  0  0  0  0  0  0  0
   46.2590   31.5320   45.1230 H   0  0  0  0  0  0  0  0  0  0  0  0
   47.2870   33.7640   46.9270 H   0  0  0  0  0  0  0  0  0  0  0  0
   47.7840   31.9970   47.0430 H   0  0  0  0  0  0  0  0  0  0  0  0
   45.4510   31.2800   47.5450 H   0  0  0  0  0  0  0  0  0  0  0  0
   44.7890   33.3280   47.7110 N   0  0  0  0  0  0  0  0  0  0  0  0
   44.8740   33.3010   48.7520 H   0  0  0  0  0  0  0  0  0  0  0  0
   43.7760   33.0720   47.5300 H   0  0  0  0  0  0  0  0  0  0  0  0
  1  2  1  0  0  0  0
  2  3  2  0  0  0  0
  2 26  1  0  0  0  0
  3  7  1  0  0  0  0
  4  8  1  0  0  0  0
  4  3  1  0  0  0  0
  5  4  2  0  0  0  0
  6  5  1  0  0  0  0
  6  1  2  0  0  0  0
  9  5  1  0  0  0  0
 10  6  1  0  0  0  0
 11  1  1  0  0  0  0
 11 13  2  0  0  0  0
 12 11  2  0  0  0  0
 14 15  1  0  0  0  0
 15 16  2  0  0  0  0
 15 11  1  0  0  0  0
 16 17  1  0  0  0  0
 18 19  1  0  0  0  0
 18 16  1  0  0  0  0
 19 20  1  0  0  0  0
 21 19  1  0  0  0  0
 22 24  1  0  0  0  0
 22 21  2  0  0  0  0
 23 22  1  0  0  0  0
 24 18  2  0  0  0  0
 25 24  1  0  0  0  0
 25 14  2  0  0  0  0
 26 28  1  0  0  0  0
 27 26  2  0  0  0  0
 28 33  2  0  0  0  0
 28 29  1  0  0  0  0
 29 30  2  0  0  0  0
 30 31  1  0  0  0  0
 30 35  1  0  0  0  0
 32 31  2  0  0  0  0
 32 36  1  0  0  0  0
 33 32  1  0  0  0  0
 34 29  1  0  0  0  0
 36 39  1  6  0  0  0
 36 37  1  0  0  0  0
 36 38  1  0  0  0  0
 37 40  1  0  0  0  0
 37 41  1  0  0  0  0
 37 38  1  0  0  0  0
 38 42  1  1  0  0  0
 38 43  1  0  0  0  0
 43 44  1  0  0  0  0
 45 43  1  0  0  0  0
M  END
>  <minimizedAffinity>
-5.79208136

>  <minimizedRMSD>
1.75989962

$$$$
