
 OpenBabel03242517563D

 46 49  0  0  0  0  0  0  0  0999 V2000
   45.4110   30.1560   47.3690 C   0  0  0  0  0  0  0  0  0  0  0  0
   45.9540   31.2180   46.7270 C   0  0  0  0  0  0  0  0  0  0  0  0
   46.1900   32.3680   47.4560 C   0  0  0  0  0  0  0  0  0  0  0  0
   45.8990   32.4780   48.7950 C   0  0  0  0  0  0  0  0  0  0  0  0
   45.3490   31.3900   49.4370 C   0  0  0  0  0  0  0  0  0  0  0  0
   45.1080   30.2310   48.7130 C   0  0  0  0  0  0  0  0  0  0  0  0
   46.6200   33.2610   47.0230 H   0  0  0  0  0  0  0  0  0  0  0  0
   46.0870   33.3830   49.3610 H   0  0  0  0  0  0  0  0  0  0  0  0
   45.0850   31.3700   50.4770 H   0  0  0  0  0  0  0  0  0  0  0  0
   44.6750   29.3070   49.1170 H   0  0  0  0  0  0  0  0  0  0  0  0
   45.0420   28.7710   46.3730 S   0  0  0  0  0  0  0  0  0  0  0  0
   43.8820   28.9520   45.4840 O   0  0  0  0  0  0  0  0  0  0  0  0
   44.6130   27.6630   47.3650 O   0  0  0  0  0  0  0  0  0  0  0  0
   47.5830   27.6200   46.3410 C   0  0  0  0  0  3  0  0  0  0  0  0
   46.4650   28.0560   45.6500 C   0  0  0  0  0  0  0  0  0  0  0  0
   46.5640   27.8640   44.2690 C   0  0  0  0  0  0  0  0  0  0  0  0
   45.7070   28.1920   43.6780 H   0  0  0  0  0  0  0  0  0  0  0  0
   47.6230   27.3110   43.5960 C   0  0  0  0  0  0  0  0  0  0  0  0
   47.8160   27.0840   42.2840 N   0  0  0  0  0  0  0  0  0  0  0  0
   47.1650   27.2970   41.4960 H   0  0  0  0  0  0  0  0  0  0  0  0
   49.0090   26.5290   42.1740 N   0  0  0  0  0  0  0  0  0  0  0  0
   49.5900   26.3940   43.4000 C   0  0  0  0  0  0  0  0  0  0  0  0
   50.5630   25.9760   43.6450 H   0  0  0  0  0  0  0  0  0  0  0  0
   48.6960   26.9010   44.3390 C   0  0  0  0  0  0  0  0  0  0  0  0
   48.6720   27.0560   45.7090 C   0  0  0  0  0  3  0  0  0  0  0  0
   46.3220   31.3070   45.3890 O   0  0  0  0  0  0  0  0  0  0  0  0
   45.2680   34.2900   43.8240 C   0  0  0  0  0  0  0  0  0  0  0  0
   46.4490   34.7420   43.2020 C   0  0  0  0  0  0  0  0  0  0  0  0
   47.5950   34.0070   43.3320 C   0  0  0  0  0  0  0  0  0  0  0  0
   47.5090   32.8810   44.0630 N   0  0  0  0  0  0  0  0  0  0  0  0
   46.3980   32.4610   44.6450 C   0  0  0  0  0  0  0  0  0  0  0  0
   45.2770   33.1640   44.5270 N   0  0  0  0  0  0  0  0  0  0  0  0
   44.3640   34.8740   43.7170 H   0  0  0  0  0  0  0  0  0  0  0  0
   46.3770   35.6430   42.6560 H   0  0  0  0  0  0  0  0  0  0  0  0
   48.8670   34.3890   42.7130 C   0  0  0  0  0  0  0  0  0  0  0  0
   49.5740   34.6190   43.5230 H   0  0  0  0  0  0  0  0  0  0  0  0
   49.2880   33.5450   42.1370 H   0  0  0  0  0  0  0  0  0  0  0  0
   48.7610   35.5680   41.7980 C   0  0  0  0  0  0  0  0  0  0  0  0
   49.7910   36.0480   41.8450 H   0  0  0  0  0  0  0  0  0  0  0  0
   48.0960   36.3670   42.0860 H   0  0  0  0  0  0  0  0  0  0  0  0
   48.6100   35.2140   40.3880 C   0  0  0  0  0  3  0  0  0  0  0  0
   48.0260   34.3280   39.5950 C   0  0  0  0  0  3  0  0  0  0  0  0
   48.2110   34.2020   38.0940 C   0  0  0  0  0  0  0  0  0  0  0  0
   48.9370   34.9610   37.7810 H   0  0  0  0  0  0  0  0  0  0  0  0
   47.2200   34.3750   37.6760 H   0  0  0  0  0  0  0  0  0  0  0  0
   48.5200   33.1620   37.8520 H   0  0  0  0  0  0  0  0  0  0  0  0
  1  6  1  0  0  0  0
  2  1  2  0  0  0  0
  2  3  1  0  0  0  0
  3  4  2  0  0  0  0
  4  8  1  0  0  0  0
  4  5  1  0  0  0  0
  5  9  1  0  0  0  0
  6 10  1  0  0  0  0
  6  5  2  0  0  0  0
  7  3  1  0  0  0  0
 11 13  2  0  0  0  0
 11  1  1  0  0  0  0
 12 11  2  0  0  0  0
 15 14  2  0  0  0  0
 15 11  1  0  0  0  0
 16 15  1  0  0  0  0
 17 16  1  0  0  0  0
 18 16  2  0  0  0  0
 18 24  1  0  0  0  0
 19 18  1  0  0  0  0
 20 19  1  0  0  0  0
 21 19  1  0  0  0  0
 21 22  2  0  0  0  0
 22 23  1  0  0  0  0
 22 24  1  0  0  0  0
 24 25  2  0  0  0  0
 25 14  1  0  0  0  0
 26  2  1  0  0  0  0
 27 32  1  0  0  0  0
 28 29  1  0  0  0  0
 28 27  2  0  0  0  0
 29 30  2  0  0  0  0
 30 31  1  0  0  0  0
 31 26  1  0  0  0  0
 32 31  2  0  0  0  0
 33 27  1  0  0  0  0
 34 28  1  0  0  0  0
 35 29  1  0  0  0  0
 35 36  1  0  0  0  0
 37 35  1  0  0  0  0
 38 39  1  0  0  0  0
 38 40  1  0  0  0  0
 38 35  1  0  0  0  0
 41 38  1  0  0  0  0
 42 41  2  0  0  0  0
 43 42  1  0  0  0  0
 44 43  1  0  0  0  0
 45 43  1  0  0  0  0
 46 43  1  0  0  0  0
M  END
>  <minimizedAffinity>
-5.53214264

>  <minimizedRMSD>
1.53241646

$$$$
