
 OpenBabel03242517563D

 46 49  0  0  0  0  0  0  0  0999 V2000
   45.4860   30.1790   47.3040 C   0  0  0  0  0  0  0  0  0  0  0  0
   46.0350   31.2530   46.6900 C   0  0  0  0  0  0  0  0  0  0  0  0
   46.2110   32.4070   47.4310 C   0  0  0  0  0  0  0  0  0  0  0  0
   45.8530   32.5060   48.7550 C   0  0  0  0  0  0  0  0  0  0  0  0
   45.2970   31.4050   49.3680 C   0  0  0  0  0  0  0  0  0  0  0  0
   45.1160   30.2430   48.6310 C   0  0  0  0  0  0  0  0  0  0  0  0
   46.6410   33.3100   47.0210 H   0  0  0  0  0  0  0  0  0  0  0  0
   45.9940   33.4140   49.3310 H   0  0  0  0  0  0  0  0  0  0  0  0
   44.9840   31.3770   50.3940 H   0  0  0  0  0  0  0  0  0  0  0  0
   44.6850   29.3090   49.0130 H   0  0  0  0  0  0  0  0  0  0  0  0
   45.1950   28.7880   46.2880 S   0  0  0  0  0  0  0  0  0  0  0  0
   44.2460   29.0250   45.1880 O   0  0  0  0  0  0  0  0  0  0  0  0
   44.4910   27.7590   47.2050 O   0  0  0  0  0  0  0  0  0  0  0  0
   46.7830   26.9930   44.8610 C   0  0  0  0  0  3  0  0  0  0  0  0
   46.6630   27.9330   45.8720 C   0  0  0  0  0  0  0  0  0  0  0  0
   47.8600   28.1600   46.5560 C   0  0  0  0  0  0  0  0  0  0  0  0
   47.8180   28.8940   47.3620 H   0  0  0  0  0  0  0  0  0  0  0  0
   49.0670   27.5550   46.3120 C   0  0  0  0  0  0  0  0  0  0  0  0
   50.2650   27.7010   46.9060 N   0  0  0  0  0  0  0  0  0  0  0  0
   50.5110   28.3310   47.7000 H   0  0  0  0  0  0  0  0  0  0  0  0
   51.0900   26.8790   46.2830 N   0  0  0  0  0  0  0  0  0  0  0  0
   50.4410   26.2050   45.2930 C   0  0  0  0  0  0  0  0  0  0  0  0
   50.8390   25.4630   44.6060 H   0  0  0  0  0  0  0  0  0  0  0  0
   49.1160   26.6360   45.3000 C   0  0  0  0  0  0  0  0  0  0  0  0
   47.9740   26.3580   44.5790 C   0  0  0  0  0  3  0  0  0  0  0  0
   46.4640   31.3540   45.3720 O   0  0  0  0  0  0  0  0  0  0  0  0
   45.3000   34.2760   43.7700 C   0  0  0  0  0  0  0  0  0  0  0  0
   46.4640   34.7690   43.1490 C   0  0  0  0  0  0  0  0  0  0  0  0
   47.6390   34.0830   43.2930 C   0  0  0  0  0  0  0  0  0  0  0  0
   47.5940   32.9620   44.0360 N   0  0  0  0  0  0  0  0  0  0  0  0
   46.4980   32.5030   44.6160 C   0  0  0  0  0  0  0  0  0  0  0  0
   45.3500   33.1590   44.4850 N   0  0  0  0  0  0  0  0  0  0  0  0
   44.3730   34.8220   43.6530 H   0  0  0  0  0  0  0  0  0  0  0  0
   46.3590   35.6620   42.5940 H   0  0  0  0  0  0  0  0  0  0  0  0
   48.8970   34.5100   42.6770 C   0  0  0  0  0  0  0  0  0  0  0  0
   49.5840   34.7930   43.4880 H   0  0  0  0  0  0  0  0  0  0  0  0
   49.3640   33.6730   42.1250 H   0  0  0  0  0  0  0  0  0  0  0  0
   48.7450   35.6610   41.7320 C   0  0  0  0  0  0  0  0  0  0  0  0
   49.7570   36.1790   41.7640 H   0  0  0  0  0  0  0  0  0  0  0  0
   48.0510   36.4410   42.0020 H   0  0  0  0  0  0  0  0  0  0  0  0
   48.6050   35.2650   40.3330 C   0  0  0  0  0  3  0  0  0  0  0  0
   48.0370   34.3480   39.5630 C   0  0  0  0  0  3  0  0  0  0  0  0
   48.2300   34.1830   38.0670 C   0  0  0  0  0  0  0  0  0  0  0  0
   48.9440   34.9450   37.7340 H   0  0  0  0  0  0  0  0  0  0  0  0
   47.2370   34.3280   37.6410 H   0  0  0  0  0  0  0  0  0  0  0  0
   48.5560   33.1420   37.8550 H   0  0  0  0  0  0  0  0  0  0  0  0
  1  6  1  0  0  0  0
  2  1  2  0  0  0  0
  2  3  1  0  0  0  0
  3  4  2  0  0  0  0
  4  8  1  0  0  0  0
  4  5  1  0  0  0  0
  5  9  1  0  0  0  0
  6 10  1  0  0  0  0
  6  5  2  0  0  0  0
  7  3  1  0  0  0  0
 11 13  2  0  0  0  0
 11  1  1  0  0  0  0
 12 11  2  0  0  0  0
 14 15  1  0  0  0  0
 15 11  1  0  0  0  0
 15 16  2  0  0  0  0
 16 17  1  0  0  0  0
 18 16  1  0  0  0  0
 18 19  1  0  0  0  0
 19 20  1  0  0  0  0
 21 19  1  0  0  0  0
 22 24  1  0  0  0  0
 22 21  2  0  0  0  0
 23 22  1  0  0  0  0
 24 18  2  0  0  0  0
 25 14  2  0  0  0  0
 25 24  1  0  0  0  0
 26  2  1  0  0  0  0
 27 32  1  0  0  0  0
 28 29  1  0  0  0  0
 28 27  2  0  0  0  0
 29 30  2  0  0  0  0
 30 31  1  0  0  0  0
 31 26  1  0  0  0  0
 32 31  2  0  0  0  0
 33 27  1  0  0  0  0
 34 28  1  0  0  0  0
 35 29  1  0  0  0  0
 35 36  1  0  0  0  0
 37 35  1  0  0  0  0
 38 39  1  0  0  0  0
 38 40  1  0  0  0  0
 38 35  1  0  0  0  0
 41 38  1  0  0  0  0
 42 41  2  0  0  0  0
 43 42  1  0  0  0  0
 44 43  1  0  0  0  0
 45 43  1  0  0  0  0
 46 43  1  0  0  0  0
M  END
>  <minimizedAffinity>
-5.64695501

>  <minimizedRMSD>
1.76515651

$$$$
