
 OpenBabel03242515103D

 39 42  0  0  0  0  0  0  0  0999 V2000
   47.4560   33.3420   43.4270 N   0  0  0  0  0  0  0  0  0  0  0  0
   47.2190   32.3340   43.6610 H   0  0  0  0  0  0  0  0  0  0  0  0
   45.7590   34.0880   45.0660 C   0  0  0  0  0  0  0  0  0  0  0  0
   44.7940   35.0250   45.3010 C   0  0  0  0  0  0  0  0  0  0  0  0
   44.4590   36.0480   44.4320 C   0  0  0  0  0  0  0  0  0  0  0  0
   45.1330   36.1390   43.2520 C   0  0  0  0  0  0  0  0  0  0  0  0
   46.1110   35.2240   42.9700 C   0  0  0  0  0  0  0  0  0  0  0  0
   46.4250   34.2060   43.8640 C   0  0  0  0  0  0  0  0  0  0  0  0
   44.2190   35.0050   46.2270 H   0  0  0  0  0  0  0  0  0  0  0  0
   43.6920   36.7840   44.6270 H   0  0  0  0  0  0  0  0  0  0  0  0
   44.8980   36.9290   42.5450 H   0  0  0  0  0  0  0  0  0  0  0  0
   46.6210   35.3410   42.0120 H   0  0  0  0  0  0  0  0  0  0  0  0
   47.3130   31.1030   46.4930 C   0  0  0  0  0  0  0  0  0  0  0  0
   46.7190   31.0050   47.7470 C   0  0  0  0  0  0  0  0  0  0  0  0
   45.7710   31.9720   48.1150 C   0  0  0  0  0  0  0  0  0  0  0  0
   45.4590   32.9770   47.2420 N   0  0  0  0  0  0  0  0  0  0  0  0
   46.0690   33.0380   46.0100 C   0  0  0  0  0  0  0  0  0  0  0  0
   46.9710   32.1020   45.6830 N   0  0  0  0  0  0  0  0  0  0  0  0
   48.0360   30.3280   46.2660 H   0  0  0  0  0  0  0  0  0  0  0  0
   46.9190   30.2420   48.4790 H   0  0  0  0  0  0  0  0  0  0  0  0
   45.2710   31.9560   49.0760 H   0  0  0  0  0  0  0  0  0  0  0  0
   48.9380   33.6160   42.6340 S   0  0  0  0  0  0  0  0  0  0  0  0
   48.6270   34.0340   41.1910 O   0  0  0  0  0  0  0  0  0  0  0  0
   49.2680   34.4520   40.5840 H   0  0  0  0  0  0  0  0  0  0  0  0
   49.7950   34.6570   43.2540 O   0  0  0  0  0  0  0  0  0  0  0  0
   49.7240   35.6090   43.0180 H   0  0  0  0  0  0  0  0  0  0  0  0
   49.6940   32.1210   42.4870 O   0  0  0  0  0  0  0  0  0  0  0  0
   51.6470   31.9430   41.1130 C   0  0  0  0  0  3  0  0  0  0  0  0
   50.3080   31.6900   41.3490 C   0  0  0  0  0  0  0  0  0  0  0  0
   49.5620   30.9800   40.4120 C   0  0  0  0  0  0  0  0  0  0  0  0
   48.5050   30.7870   40.6100 H   0  0  0  0  0  0  0  0  0  0  0  0
   50.1560   30.5270   39.2460 C   0  0  0  0  0  0  0  0  0  0  0  0
   49.7080   29.8350   38.1820 N   0  0  0  0  0  0  0  0  0  0  0  0
   48.7130   29.5170   38.1160 H   0  0  0  0  0  0  0  0  0  0  0  0
   50.6810   29.6440   37.3080 N   0  0  0  0  0  0  0  0  0  0  0  0
   51.8200   30.2050   37.7560 C   0  0  0  0  0  0  0  0  0  0  0  0
   52.7960   30.2230   37.2720 H   0  0  0  0  0  0  0  0  0  0  0  0
   51.4870   30.7620   38.9810 C   0  0  0  0  0  0  0  0  0  0  0  0
   52.2040   31.4720   39.9310 C   0  0  0  0  0  3  0  0  0  0  0  0
  1  2  1  0  0  0  0
  1  8  1  0  0  0  0
  3  4  1  0  0  0  0
  3 17  1  0  0  0  0
  4  9  1  0  0  0  0
  5 10  1  0  0  0  0
  5  4  2  0  0  0  0
  6  5  1  0  0  0  0
  7  6  2  0  0  0  0
  7  8  1  0  0  0  0
  8  3  2  0  0  0  0
 11  6  1  0  0  0  0
 12  7  1  0  0  0  0
 13 14  1  0  0  0  0
 14 15  2  0  0  0  0
 14 20  1  0  0  0  0
 15 21  1  0  0  0  0
 16 15  1  0  0  0  0
 17 16  2  0  0  0  0
 18 17  1  0  0  0  0
 18 13  2  0  0  0  0
 19 13  1  0  0  0  0
 22 25  1  0  0  0  0
 22  1  1  0  0  0  0
 23 22  1  0  0  0  0
 24 23  1  0  0  0  0
 26 25  1  0  0  0  0
 27 22  1  0  0  0  0
 28 29  1  0  0  0  0
 29 27  1  0  0  0  0
 30 31  1  0  0  0  0
 30 29  2  0  0  0  0
 32 30  1  0  0  0  0
 33 32  1  0  0  0  0
 34 33  1  0  0  0  0
 35 36  2  0  0  0  0
 35 33  1  0  0  0  0
 36 38  1  0  0  0  0
 37 36  1  0  0  0  0
 38 32  2  0  0  0  0
 38 39  1  0  0  0  0
 39 28  2  0  0  0  0
M  END
>  <minimizedAffinity>
-5.89022875

>  <minimizedRMSD>
2.39481544

$$$$
