
 OpenBabel03242515103D

 39 42  0  0  0  0  0  0  0  0999 V2000
   47.1350   32.9780   43.8590 N   0  0  0  0  0  0  0  0  0  0  0  0
   46.9190   32.0480   44.3240 H   0  0  0  0  0  0  0  0  0  0  0  0
   45.6260   34.0340   45.5120 C   0  0  0  0  0  0  0  0  0  0  0  0
   44.7440   35.0590   45.6980 C   0  0  0  0  0  0  0  0  0  0  0  0
   44.4040   35.9930   44.7360 C   0  0  0  0  0  0  0  0  0  0  0  0
   44.9850   35.8940   43.5080 C   0  0  0  0  0  0  0  0  0  0  0  0
   45.8780   34.8840   43.2710 C   0  0  0  0  0  0  0  0  0  0  0  0
   46.1990   33.9600   44.2590 C   0  0  0  0  0  0  0  0  0  0  0  0
   44.2450   35.1900   46.6590 H   0  0  0  0  0  0  0  0  0  0  0  0
   43.7030   36.8000   44.8940 H   0  0  0  0  0  0  0  0  0  0  0  0
   44.7440   36.6100   42.7280 H   0  0  0  0  0  0  0  0  0  0  0  0
   46.3150   34.8510   42.2720 H   0  0  0  0  0  0  0  0  0  0  0  0
   47.4530   31.4880   47.3950 C   0  0  0  0  0  0  0  0  0  0  0  0
   46.6300   31.2540   48.4920 C   0  0  0  0  0  0  0  0  0  0  0  0
   45.4310   31.9750   48.5940 C   0  0  0  0  0  0  0  0  0  0  0  0
   45.1040   32.8820   47.6230 N   0  0  0  0  0  0  0  0  0  0  0  0
   45.9450   33.0840   46.5540 C   0  0  0  0  0  0  0  0  0  0  0  0
   47.0850   32.3810   46.4790 N   0  0  0  0  0  0  0  0  0  0  0  0
   48.3640   30.9020   47.3710 H   0  0  0  0  0  0  0  0  0  0  0  0
   46.8280   30.5580   49.2880 H   0  0  0  0  0  0  0  0  0  0  0  0
   44.7440   31.8430   49.4220 H   0  0  0  0  0  0  0  0  0  0  0  0
   48.4820   33.0190   42.8180 S   0  0  0  0  0  0  0  0  0  0  0  0
   47.9620   33.2020   41.3860 O   0  0  0  0  0  0  0  0  0  0  0  0
   48.5140   33.4680   40.6250 H   0  0  0  0  0  0  0  0  0  0  0  0
   49.4620   34.0960   43.1060 O   0  0  0  0  0  0  0  0  0  0  0  0
   49.3870   34.9970   42.7170 H   0  0  0  0  0  0  0  0  0  0  0  0
   49.1530   31.4780   42.8300 O   0  0  0  0  0  0  0  0  0  0  0  0
   51.2190   30.2680   42.8020 C   0  0  0  0  0  3  0  0  0  0  0  0
   50.3320   31.1580   42.2250 C   0  0  0  0  0  0  0  0  0  0  0  0
   50.6370   31.7450   41.0000 C   0  0  0  0  0  0  0  0  0  0  0  0
   49.9290   32.4450   40.5550 H   0  0  0  0  0  0  0  0  0  0  0  0
   51.8280   31.4400   40.3590 C   0  0  0  0  0  0  0  0  0  0  0  0
   52.3860   31.8350   39.2000 N   0  0  0  0  0  0  0  0  0  0  0  0
   51.9090   32.5160   38.5660 H   0  0  0  0  0  0  0  0  0  0  0  0
   53.5580   31.2480   39.0260 N   0  0  0  0  0  0  0  0  0  0  0  0
   53.8270   30.4360   40.0660 C   0  0  0  0  0  0  0  0  0  0  0  0
   54.7080   29.8140   40.2240 H   0  0  0  0  0  0  0  0  0  0  0  0
   52.7330   30.5580   40.9080 C   0  0  0  0  0  0  0  0  0  0  0  0
   52.4010   29.9900   42.1270 C   0  0  0  0  0  3  0  0  0  0  0  0
  1  8  1  0  0  0  0
  1  2  1  0  0  0  0
  3  4  1  0  0  0  0
  3 17  1  0  0  0  0
  4  9  1  0  0  0  0
  5 10  1  0  0  0  0
  5  4  2  0  0  0  0
  6  5  1  0  0  0  0
  7  6  2  0  0  0  0
  7  8  1  0  0  0  0
  8  3  2  0  0  0  0
 11  6  1  0  0  0  0
 12  7  1  0  0  0  0
 13 14  1  0  0  0  0
 14 15  2  0  0  0  0
 14 20  1  0  0  0  0
 15 21  1  0  0  0  0
 16 15  1  0  0  0  0
 17 16  2  0  0  0  0
 18 17  1  0  0  0  0
 18 13  2  0  0  0  0
 19 13  1  0  0  0  0
 22 27  1  0  0  0  0
 22 25  1  0  0  0  0
 22  1  1  0  0  0  0
 23 22  1  0  0  0  0
 24 23  1  0  0  0  0
 26 25  1  0  0  0  0
 29 28  1  0  0  0  0
 29 27  1  0  0  0  0
 30 29  2  0  0  0  0
 31 30  1  0  0  0  0
 32 38  2  0  0  0  0
 32 30  1  0  0  0  0
 33 32  1  0  0  0  0
 34 33  1  0  0  0  0
 35 33  1  0  0  0  0
 35 36  2  0  0  0  0
 36 37  1  0  0  0  0
 36 38  1  0  0  0  0
 38 39  1  0  0  0  0
 39 28  2  0  0  0  0
M  END
>  <minimizedAffinity>
-6.2590704

>  <minimizedRMSD>
0.940696776

$$$$
