
 OpenBabel03242518163D

 35 38  0  0  0  0  0  0  0  0999 V2000
   50.3660   32.0600   42.4010 C   0  0  0  0  0  0  0  0  0  0  0  0
   50.5150   33.4620   42.3280 C   0  0  0  0  0  0  0  0  0  0  0  0
   49.5070   34.2840   42.7050 C   0  0  0  0  0  0  0  0  0  0  0  0
   48.3030   33.6610   43.1750 C   0  0  0  0  0  0  0  0  0  0  0  0
   48.6220   31.8800   43.0700 S   0  0  0  0  0  0  0  0  0  0  0  0
   51.4690   33.7310   41.9580 H   0  0  0  0  0  0  0  0  0  0  0  0
   49.6200   35.3510   42.6500 H   0  0  0  0  0  0  0  0  0  0  0  0
   51.1610   30.9210   42.1390 C   0  0  0  0  0  0  0  0  0  0  0  0
   52.2470   31.2670   42.1500 H   0  0  0  0  0  0  0  0  0  0  0  0
   51.1490   30.2390   43.0430 H   0  0  0  0  0  0  0  0  0  0  0  0
   50.9110   30.1520   40.9080 C   0  0  0  0  0  0  0  0  0  0  0  0
   51.1890   29.0840   41.0660 H   0  0  0  0  0  0  0  0  0  0  0  0
   49.8260   30.1310   40.6740 H   0  0  0  0  0  0  0  0  0  0  0  0
   51.6600   30.7110   39.7840 C   0  0  0  0  0  0  0  0  0  0  0  0
   53.0350   30.7820   39.8020 C   0  0  0  0  0  0  0  0  0  0  0  0
   53.6690   31.3330   38.6850 C   0  0  0  0  0  0  0  0  0  0  0  0
   52.9280   31.7650   37.6510 N   0  0  0  0  0  0  0  0  0  0  0  0
   51.5770   31.6770   37.6720 C   0  0  0  0  0  0  0  0  0  0  0  0
   50.9830   31.1630   38.7140 N   0  0  0  0  0  0  0  0  0  0  0  0
   53.5190   30.4040   40.6890 H   0  0  0  0  0  0  0  0  0  0  0  0
   54.7500   31.3770   38.7250 H   0  0  0  0  0  0  0  0  0  0  0  0
   51.0930   32.0570   36.7840 H   0  0  0  0  0  0  0  0  0  0  0  0
   47.2510   34.2800   43.5760 O   0  0  0  0  0  0  0  0  0  0  0  0
   45.6470   35.6470   42.8330 C   0  0  0  0  0  3  0  0  0  0  0  0
   45.9850   34.3030   43.0330 C   0  0  0  0  0  0  0  0  0  0  0  0
   45.0800   33.3420   42.6880 C   0  0  0  0  0  0  0  0  0  0  0  0
   45.4420   32.3660   42.8840 H   0  0  0  0  0  0  0  0  0  0  0  0
   43.8590   33.6450   42.1530 C   0  0  0  0  0  0  0  0  0  0  0  0
   42.8690   32.8270   41.7660 N   0  0  0  0  0  0  0  0  0  0  0  0
   42.8750   31.7740   41.8120 H   0  0  0  0  0  0  0  0  0  0  0  0
   41.8930   33.5970   41.3150 N   0  0  0  0  0  0  0  0  0  0  0  0
   42.2370   34.8960   41.4070 C   0  0  0  0  0  0  0  0  0  0  0  0
   41.6670   35.7690   41.1280 H   0  0  0  0  0  0  0  0  0  0  0  0
   43.5180   34.9650   41.9520 C   0  0  0  0  0  0  0  0  0  0  0  0
   44.4020   35.9870   42.2860 C   0  0  0  0  0  3  0  0  0  0  0  0
  1  5  1  0  0  0  0
  2  1  2  0  0  0  0
  2  3  1  0  0  0  0
  3  4  2  0  0  0  0
  4 23  1  0  0  0  0
  5  4  1  0  0  0  0
  6  2  1  0  0  0  0
  7  3  1  0  0  0  0
  8  9  1  0  0  0  0
  8  1  1  0  0  0  0
  8 10  1  0  0  0  0
 11 12  1  0  0  0  0
 11  8  1  0  0  0  0
 13 11  1  0  0  0  0
 14 15  1  0  0  0  0
 14 11  1  0  0  0  0
 15 20  1  0  0  0  0
 16 21  1  0  0  0  0
 16 15  2  0  0  0  0
 17 18  2  0  0  0  0
 17 16  1  0  0  0  0
 18 19  1  0  0  0  0
 19 14  2  0  0  0  0
 22 18  1  0  0  0  0
 24 25  1  0  0  0  0
 25 23  1  0  0  0  0
 26 27  1  0  0  0  0
 26 25  2  0  0  0  0
 28 26  1  0  0  0  0
 29 30  1  0  0  0  0
 29 28  1  0  0  0  0
 31 32  2  0  0  0  0
 31 29  1  0  0  0  0
 32 34  1  0  0  0  0
 33 32  1  0  0  0  0
 34 28  2  0  0  0  0
 34 35  1  0  0  0  0
 35 24  2  0  0  0  0
M  END
>  <minimizedAffinity>
-4.78816223

>  <minimizedRMSD>
9.41194057

$$$$
