
 OpenBabel03252508043D

 45 49  0  0  1  0  0  0  0  0999 V2000
   42.2150   33.2740   41.1910 C   0  0  0  0  0  0  0  0  0  0  0  0
   42.8710   34.4550   41.3830 C   0  0  0  0  0  0  0  0  0  0  0  0
   42.1170   35.6440   41.3170 C   0  0  0  0  0  0  0  0  0  0  0  0
   40.7670   35.6700   41.0720 C   0  0  0  0  0  0  0  0  0  0  0  0
   40.1170   34.4810   40.8810 C   0  0  0  0  0  0  0  0  0  0  0  0
   40.8370   33.3230   40.9420 C   0  0  0  0  0  0  0  0  0  0  0  0
   42.5530   36.6280   41.4480 H   0  0  0  0  0  0  0  0  0  0  0  0
   40.2050   36.5820   41.0240 H   0  0  0  0  0  0  0  0  0  0  0  0
   39.0720   34.4040   40.6850 H   0  0  0  0  0  0  0  0  0  0  0  0
   40.3180   32.3630   40.7880 H   0  0  0  0  0  0  0  0  0  0  0  0
   43.0000   31.7840   41.2830 S   0  0  0  0  0  0  0  0  0  0  0  0
   42.3250   31.0050   40.1360 O   0  0  0  0  0  0  0  0  0  0  0  0
   42.6540   31.0710   42.5790 O   0  0  0  0  0  0  0  0  0  0  0  0
   44.7730   31.2650   39.3890 C   0  0  0  0  0  3  0  0  0  0  0  0
   44.4860   31.2530   40.7790 C   0  0  0  0  0  0  0  0  0  0  0  0
   45.6060   30.8010   41.5220 C   0  0  0  0  0  0  0  0  0  0  0  0
   45.3790   30.8080   42.6060 H   0  0  0  0  0  0  0  0  0  0  0  0
   46.8610   30.3950   41.1310 C   0  0  0  0  0  0  0  0  0  0  0  0
   47.9740   29.9600   41.6780 N   0  0  0  0  0  0  0  0  0  0  0  0
   48.0750   29.8410   42.7090 H   0  0  0  0  0  0  0  0  0  0  0  0
   48.8030   29.7530   40.6740 N   0  0  0  0  0  0  0  0  0  0  0  0
   48.2460   30.0460   39.4880 C   0  0  0  0  0  0  0  0  0  0  0  0
   48.7140   29.9600   38.5140 H   0  0  0  0  0  0  0  0  0  0  0  0
   46.9520   30.4750   39.7730 C   0  0  0  0  0  0  0  0  0  0  0  0
   45.9920   30.8810   38.8920 C   0  0  0  0  0  3  0  0  0  0  0  0
   44.3000   34.5330   41.6420 C   0  0  0  0  0  0  0  0  0  0  0  0
   45.1970   34.5740   40.7350 O   0  0  0  0  0  0  0  0  0  0  0  0
   44.6150   34.5630   43.0400 C   0  0  0  0  0  0  0  0  0  0  0  0
   44.2950   35.7810   43.7280 C   0  0  0  0  0  0  0  0  0  0  0  0
   44.5830   35.8210   45.0850 C   0  0  0  0  0  0  0  0  0  0  0  0
   45.1400   34.7270   45.6660 N   0  0  0  0  0  0  0  0  0  0  0  0
   45.4270   33.5840   44.9630 C   0  0  0  0  0  0  0  0  0  0  0  0
   45.1580   33.5510   43.7070 N   0  0  0  0  0  0  0  0  0  0  0  0
   43.8640   36.6760   43.3510 H   0  0  0  0  0  0  0  0  0  0  0  0
   44.3960   36.6640   45.7160 H   0  0  0  0  0  0  0  0  0  0  0  0
   46.0230   32.4460   45.6820 C   0  0  1  0  0  0  0  0  0  0  0  0
   46.9780   32.7200   46.8280 C   0  0  0  0  0  0  0  0  0  0  0  0
   45.5650   32.2820   47.0880 C   0  0  1  0  0  0  0  0  0  0  0  0
   46.2500   31.5380   45.1320 H   0  0  0  0  0  0  0  0  0  0  0  0
   47.2880   33.7710   46.9290 H   0  0  0  0  0  0  0  0  0  0  0  0
   47.7840   32.0050   47.0460 H   0  0  0  0  0  0  0  0  0  0  0  0
   45.4520   31.2920   47.5580 H   0  0  0  0  0  0  0  0  0  0  0  0
   44.7930   33.3400   47.7230 N   0  0  0  0  0  0  0  0  0  0  0  0
   44.8820   33.3150   48.7630 H   0  0  0  0  0  0  0  0  0  0  0  0
   43.7780   33.0860   47.5470 H   0  0  0  0  0  0  0  0  0  0  0  0
  1 11  1  0  0  0  0
  1  2  1  0  0  0  0
  2 26  1  0  0  0  0
  3  2  2  0  0  0  0
  3  7  1  0  0  0  0
  4  3  1  0  0  0  0
  5  6  1  0  0  0  0
  5  4  2  0  0  0  0
  6  1  2  0  0  0  0
  8  4  1  0  0  0  0
  9  5  1  0  0  0  0
 10  6  1  0  0  0  0
 11 13  2  0  0  0  0
 12 11  2  0  0  0  0
 14 15  1  0  0  0  0
 15 11  1  0  0  0  0
 15 16  2  0  0  0  0
 16 17  1  0  0  0  0
 18 16  1  0  0  0  0
 18 19  1  0  0  0  0
 19 20  1  0  0  0  0
 21 19  1  0  0  0  0
 22 24  1  0  0  0  0
 22 21  2  0  0  0  0
 23 22  1  0  0  0  0
 24 18  2  0  0  0  0
 25 14  2  0  0  0  0
 25 24  1  0  0  0  0
 26 28  1  0  0  0  0
 27 26  2  0  0  0  0
 28 33  2  0  0  0  0
 28 29  1  0  0  0  0
 29 30  2  0  0  0  0
 30 31  1  0  0  0  0
 30 35  1  0  0  0  0
 32 31  2  0  0  0  0
 32 36  1  0  0  0  0
 33 32  1  0  0  0  0
 34 29  1  0  0  0  0
 36 39  1  6  0  0  0
 36 37  1  0  0  0  0
 36 38  1  0  0  0  0
 37 40  1  0  0  0  0
 37 41  1  0  0  0  0
 37 38  1  0  0  0  0
 38 42  1  1  0  0  0
 38 43  1  0  0  0  0
 43 44  1  0  0  0  0
 45 43  1  0  0  0  0
M  END
>  <minimizedAffinity>
-5.85174751

>  <minimizedRMSD>
1.30791771

$$$$
