
 OpenBabel03242518163D

 35 38  0  0  0  0  0  0  0  0999 V2000
   36.4520   28.5320   41.7360 C   0  0  0  0  0  0  0  0  0  0  0  0
   35.5600   28.7190   40.6570 C   0  0  0  0  0  0  0  0  0  0  0  0
   35.6730   29.7980   39.8470 C   0  0  0  0  0  0  0  0  0  0  0  0
   36.7290   30.7230   40.1420 C   0  0  0  0  0  0  0  0  0  0  0  0
   37.5650   30.0360   41.5970 S   0  0  0  0  0  0  0  0  0  0  0  0
   34.8520   27.9350   40.6000 H   0  0  0  0  0  0  0  0  0  0  0  0
   34.9950   29.9400   39.0260 H   0  0  0  0  0  0  0  0  0  0  0  0
   36.6670   27.5630   42.7420 C   0  0  0  0  0  0  0  0  0  0  0  0
   35.7120   27.5110   43.3610 H   0  0  0  0  0  0  0  0  0  0  0  0
   36.6700   26.5310   42.2740 H   0  0  0  0  0  0  0  0  0  0  0  0
   37.8200   27.7250   43.6430 C   0  0  0  0  0  0  0  0  0  0  0  0
   38.2680   28.7380   43.5080 H   0  0  0  0  0  0  0  0  0  0  0  0
   37.4940   27.6980   44.7040 H   0  0  0  0  0  0  0  0  0  0  0  0
   38.8230   26.6900   43.3970 C   0  0  0  0  0  0  0  0  0  0  0  0
   40.0950   26.7840   43.9150 C   0  0  0  0  0  0  0  0  0  0  0  0
   40.9890   25.7500   43.6280 C   0  0  0  0  0  0  0  0  0  0  0  0
   40.5840   24.7170   42.8690 N   0  0  0  0  0  0  0  0  0  0  0  0
   39.3230   24.6610   42.3780 C   0  0  0  0  0  0  0  0  0  0  0  0
   38.4860   25.6270   42.6460 N   0  0  0  0  0  0  0  0  0  0  0  0
   40.3020   27.6610   44.5090 H   0  0  0  0  0  0  0  0  0  0  0  0
   41.9820   25.8490   44.0470 H   0  0  0  0  0  0  0  0  0  0  0  0
   39.1160   23.7840   41.7830 H   0  0  0  0  0  0  0  0  0  0  0  0
   36.9870   31.7950   39.4820 O   0  0  0  0  0  0  0  0  0  0  0  0
   37.7450   33.8190   40.0500 C   0  0  0  0  0  3  0  0  0  0  0  0
   38.1150   32.5860   39.4980 C   0  0  0  0  0  0  0  0  0  0  0  0
   39.4100   32.4050   39.1090 C   0  0  0  0  0  0  0  0  0  0  0  0
   39.5730   31.4390   38.7070 H   0  0  0  0  0  0  0  0  0  0  0  0
   40.3560   33.3830   39.2390 C   0  0  0  0  0  0  0  0  0  0  0  0
   41.6560   33.3630   38.9080 N   0  0  0  0  0  0  0  0  0  0  0  0
   42.1790   32.5560   38.4770 H   0  0  0  0  0  0  0  0  0  0  0  0
   42.1490   34.5480   39.2290 N   0  0  0  0  0  0  0  0  0  0  0  0
   41.1890   35.3290   39.7590 C   0  0  0  0  0  0  0  0  0  0  0  0
   41.2630   36.3450   40.1190 H   0  0  0  0  0  0  0  0  0  0  0  0
   40.0010   34.5990   39.7810 C   0  0  0  0  0  0  0  0  0  0  0  0
   38.6950   34.8390   40.1950 C   0  0  0  0  0  3  0  0  0  0  0  0
  1  8  1  0  0  0  0
  2  1  2  0  0  0  0
  3  4  2  0  0  0  0
  3  2  1  0  0  0  0
  4  5  1  0  0  0  0
  5  1  1  0  0  0  0
  6  2  1  0  0  0  0
  7  3  1  0  0  0  0
  8  9  1  0  0  0  0
  8 11  1  0  0  0  0
 10  8  1  0  0  0  0
 11 13  1  0  0  0  0
 12 11  1  0  0  0  0
 14 11  1  0  0  0  0
 14 15  1  0  0  0  0
 15 20  1  0  0  0  0
 16 15  2  0  0  0  0
 16 21  1  0  0  0  0
 17 16  1  0  0  0  0
 18 19  1  0  0  0  0
 18 17  2  0  0  0  0
 19 14  2  0  0  0  0
 22 18  1  0  0  0  0
 23 25  1  0  0  0  0
 23  4  1  0  0  0  0
 24 35  1  0  0  0  0
 25 24  2  0  0  0  0
 26 28  2  0  0  0  0
 26 25  1  0  0  0  0
 27 26  1  0  0  0  0
 28 34  1  0  0  0  0
 29 31  1  0  0  0  0
 29 28  1  0  0  0  0
 30 29  1  0  0  0  0
 31 32  2  0  0  0  0
 32 34  1  0  0  0  0
 32 33  1  0  0  0  0
 34 35  2  0  0  0  0
M  END
>  <minimizedAffinity>
-6.10464239

$$$$

 OpenBabel03242518163D

 35 38  0  0  0  0  0  0  0  0999 V2000
   36.3870   28.4210   41.7720 C   0  0  0  0  0  0  0  0  0  0  0  0
   35.4990   28.6990   40.7100 C   0  0  0  0  0  0  0  0  0  0  0  0
   35.6240   29.8370   39.9860 C   0  0  0  0  0  0  0  0  0  0  0  0
   36.6890   30.7260   40.3520 C   0  0  0  0  0  0  0  0  0  0  0  0
   37.5150   29.9190   41.7500 S   0  0  0  0  0  0  0  0  0  0  0  0
   34.7840   27.9300   40.5920 H   0  0  0  0  0  0  0  0  0  0  0  0
   34.9490   30.0490   39.1780 H   0  0  0  0  0  0  0  0  0  0  0  0
   36.5920   27.3750   42.7000 C   0  0  0  0  0  0  0  0  0  0  0  0
   37.2130   27.8060   43.5530 H   0  0  0  0  0  0  0  0  0  0  0  0
   35.6190   27.1560   43.2390 H   0  0  0  0  0  0  0  0  0  0  0  0
   37.2140   26.1260   42.2310 C   0  0  0  0  0  0  0  0  0  0  0  0
   36.6310   25.2500   42.6010 H   0  0  0  0  0  0  0  0  0  0  0  0
   37.1630   26.0540   41.1250 H   0  0  0  0  0  0  0  0  0  0  0  0
   38.6030   26.0360   42.6800 C   0  0  0  0  0  0  0  0  0  0  0  0
   39.0950   26.8670   43.6620 C   0  0  0  0  0  0  0  0  0  0  0  0
   40.4350   26.7130   44.0280 C   0  0  0  0  0  0  0  0  0  0  0  0
   41.1830   25.7760   43.4200 N   0  0  0  0  0  0  0  0  0  0  0  0
   40.6610   24.9790   42.4590 C   0  0  0  0  0  0  0  0  0  0  0  0
   39.4090   25.1210   42.1160 N   0  0  0  0  0  0  0  0  0  0  0  0
   38.3980   27.5800   44.0740 H   0  0  0  0  0  0  0  0  0  0  0  0
   40.7960   27.3780   44.8020 H   0  0  0  0  0  0  0  0  0  0  0  0
   41.3590   24.2650   42.0460 H   0  0  0  0  0  0  0  0  0  0  0  0
   36.9590   31.8430   39.7780 O   0  0  0  0  0  0  0  0  0  0  0  0
   38.9930   32.0660   38.8800 C   0  0  0  0  0  3  0  0  0  0  0  0
   38.1080   32.5990   39.8260 C   0  0  0  0  0  0  0  0  0  0  0  0
   38.5090   33.6770   40.5610 C   0  0  0  0  0  0  0  0  0  0  0  0
   37.7620   33.9930   41.2420 H   0  0  0  0  0  0  0  0  0  0  0  0
   39.7390   34.2520   40.4050 C   0  0  0  0  0  0  0  0  0  0  0  0
   40.2780   35.3030   41.0430 N   0  0  0  0  0  0  0  0  0  0  0  0
   39.8190   35.8780   41.7970 H   0  0  0  0  0  0  0  0  0  0  0  0
   41.4900   35.4730   40.5400 N   0  0  0  0  0  0  0  0  0  0  0  0
   41.7400   34.5510   39.5920 C   0  0  0  0  0  0  0  0  0  0  0  0
   42.6290   34.4160   38.9950 H   0  0  0  0  0  0  0  0  0  0  0  0
   40.6160   33.7330   39.4770 C   0  0  0  0  0  0  0  0  0  0  0  0
   40.2600   32.6350   38.7000 C   0  0  0  0  0  3  0  0  0  0  0  0
  1  8  1  0  0  0  0
  2  1  2  0  0  0  0
  3  4  2  0  0  0  0
  3  2  1  0  0  0  0
  4  5  1  0  0  0  0
  5  1  1  0  0  0  0
  6  2  1  0  0  0  0
  7  3  1  0  0  0  0
  8 10  1  0  0  0  0
  8  9  1  0  0  0  0
 11 12  1  0  0  0  0
 11 14  1  0  0  0  0
 11  8  1  0  0  0  0
 13 11  1  0  0  0  0
 14 15  1  0  0  0  0
 15 16  2  0  0  0  0
 15 20  1  0  0  0  0
 16 21  1  0  0  0  0
 17 16  1  0  0  0  0
 18 17  2  0  0  0  0
 19 18  1  0  0  0  0
 19 14  2  0  0  0  0
 22 18  1  0  0  0  0
 23 25  1  0  0  0  0
 23  4  1  0  0  0  0
 24 25  1  0  0  0  0
 25 26  2  0  0  0  0
 26 27  1  0  0  0  0
 28 26  1  0  0  0  0
 28 29  1  0  0  0  0
 29 30  1  0  0  0  0
 31 29  1  0  0  0  0
 32 31  2  0  0  0  0
 33 32  1  0  0  0  0
 34 32  1  0  0  0  0
 34 28  2  0  0  0  0
 35 24  2  0  0  0  0
 35 34  1  0  0  0  0
M  END
>  <minimizedAffinity>
-5.98819304

$$$$

 OpenBabel03242518163D

 35 38  0  0  0  0  0  0  0  0999 V2000
   38.4680   27.3830   43.2030 C   0  0  0  0  0  0  0  0  0  0  0  0
   37.1000   27.6090   42.9340 C   0  0  0  0  0  0  0  0  0  0  0  0
   36.7200   28.5320   42.0190 C   0  0  0  0  0  0  0  0  0  0  0  0
   37.7650   29.2520   41.3500 C   0  0  0  0  0  0  0  0  0  0  0  0
   39.3060   28.5980   42.0460 S   0  0  0  0  0  0  0  0  0  0  0  0
   36.4810   26.9860   43.5240 H   0  0  0  0  0  0  0  0  0  0  0  0
   35.6800   28.7040   41.8140 H   0  0  0  0  0  0  0  0  0  0  0  0
   39.2300   26.5250   44.0280 C   0  0  0  0  0  0  0  0  0  0  0  0
   39.7470   27.1840   44.8010 H   0  0  0  0  0  0  0  0  0  0  0  0
   38.5340   25.9280   44.6930 H   0  0  0  0  0  0  0  0  0  0  0  0
   40.2270   25.6430   43.3990 C   0  0  0  0  0  0  0  0  0  0  0  0
   41.1180   26.2390   43.0890 H   0  0  0  0  0  0  0  0  0  0  0  0
   40.6190   24.9090   44.1350 H   0  0  0  0  0  0  0  0  0  0  0  0
   39.6550   24.9480   42.2480 C   0  0  0  0  0  0  0  0  0  0  0  0
   40.2420   25.0150   41.0040 C   0  0  0  0  0  0  0  0  0  0  0  0
   39.6260   24.3210   39.9600 C   0  0  0  0  0  0  0  0  0  0  0  0
   38.5030   23.6230   40.2010 N   0  0  0  0  0  0  0  0  0  0  0  0
   37.9570   23.5810   41.4400 C   0  0  0  0  0  0  0  0  0  0  0  0
   38.5310   24.2290   42.4170 N   0  0  0  0  0  0  0  0  0  0  0  0
   41.1410   25.6080   40.9340 H   0  0  0  0  0  0  0  0  0  0  0  0
   40.1070   24.3900   38.9930 H   0  0  0  0  0  0  0  0  0  0  0  0
   37.0570   22.9890   41.5090 H   0  0  0  0  0  0  0  0  0  0  0  0
   37.5920   30.1560   40.4540 O   0  0  0  0  0  0  0  0  0  0  0  0
   37.0740   32.2090   39.7380 C   0  0  0  0  0  3  0  0  0  0  0  0
   38.0380   31.4590   40.4240 C   0  0  0  0  0  0  0  0  0  0  0  0
   39.1480   32.0960   40.8960 C   0  0  0  0  0  0  0  0  0  0  0  0
   39.8060   31.4320   41.3950 H   0  0  0  0  0  0  0  0  0  0  0  0
   39.3510   33.4370   40.7240 C   0  0  0  0  0  0  0  0  0  0  0  0
   40.3770   34.2040   41.1230 N   0  0  0  0  0  0  0  0  0  0  0  0
   41.2280   33.8820   41.6560 H   0  0  0  0  0  0  0  0  0  0  0  0
   40.1120   35.4350   40.7190 N   0  0  0  0  0  0  0  0  0  0  0  0
   38.9340   35.4730   40.0670 C   0  0  0  0  0  0  0  0  0  0  0  0
   38.4360   36.3180   39.6160 H   0  0  0  0  0  0  0  0  0  0  0  0
   38.4080   34.1820   40.0510 C   0  0  0  0  0  0  0  0  0  0  0  0
   37.2560   33.5850   39.5480 C   0  0  0  0  0  3  0  0  0  0  0  0
  1  8  1  0  0  0  0
  2  1  2  0  0  0  0
  2  6  1  0  0  0  0
  3  2  1  0  0  0  0
  4  3  2  0  0  0  0
  4  5  1  0  0  0  0
  5  1  1  0  0  0  0
  7  3  1  0  0  0  0
  8 10  1  0  0  0  0
  8  9  1  0  0  0  0
 11  8  1  0  0  0  0
 11 13  1  0  0  0  0
 12 11  1  0  0  0  0
 14 19  1  0  0  0  0
 14 11  1  0  0  0  0
 15 14  2  0  0  0  0
 16 17  2  0  0  0  0
 16 15  1  0  0  0  0
 17 18  1  0  0  0  0
 18 22  1  0  0  0  0
 18 19  2  0  0  0  0
 20 15  1  0  0  0  0
 21 16  1  0  0  0  0
 23  4  1  0  0  0  0
 24 25  1  0  0  0  0
 25 23  1  0  0  0  0
 25 26  2  0  0  0  0
 26 27  1  0  0  0  0
 28 26  1  0  0  0  0
 28 29  1  0  0  0  0
 29 30  1  0  0  0  0
 31 29  1  0  0  0  0
 32 31  2  0  0  0  0
 33 32  1  0  0  0  0
 34 32  1  0  0  0  0
 34 28  2  0  0  0  0
 35 24  2  0  0  0  0
 35 34  1  0  0  0  0
M  END
>  <minimizedAffinity>
-5.90479803

$$$$

 OpenBabel03242518163D

 35 38  0  0  0  0  0  0  0  0999 V2000
   36.3700   28.5080   41.8140 C   0  0  0  0  0  0  0  0  0  0  0  0
   35.5070   28.7590   40.7240 C   0  0  0  0  0  0  0  0  0  0  0  0
   35.6610   29.8680   39.9630 C   0  0  0  0  0  0  0  0  0  0  0  0
   36.7300   30.7560   40.3180 C   0  0  0  0  0  0  0  0  0  0  0  0
   37.5180   29.9910   41.7610 S   0  0  0  0  0  0  0  0  0  0  0  0
   34.7840   27.9950   40.6200 H   0  0  0  0  0  0  0  0  0  0  0  0
   35.0050   30.0590   39.1340 H   0  0  0  0  0  0  0  0  0  0  0  0
   36.5420   27.4950   42.7830 C   0  0  0  0  0  0  0  0  0  0  0  0
   36.1630   27.9150   43.7720 H   0  0  0  0  0  0  0  0  0  0  0  0
   35.7860   26.6700   42.6020 H   0  0  0  0  0  0  0  0  0  0  0  0
   37.8860   26.9280   42.9820 C   0  0  0  0  0  0  0  0  0  0  0  0
   38.6600   27.6930   42.7340 H   0  0  0  0  0  0  0  0  0  0  0  0
   38.0560   26.6900   44.0530 H   0  0  0  0  0  0  0  0  0  0  0  0
   38.0740   25.7320   42.1620 C   0  0  0  0  0  0  0  0  0  0  0  0
   37.0380   24.8580   41.9210 C   0  0  0  0  0  0  0  0  0  0  0  0
   37.3070   23.7390   41.1280 C   0  0  0  0  0  0  0  0  0  0  0  0
   38.5450   23.5600   40.6360 N   0  0  0  0  0  0  0  0  0  0  0  0
   39.5360   24.4440   40.8960 C   0  0  0  0  0  0  0  0  0  0  0  0
   39.2870   25.4900   41.6360 N   0  0  0  0  0  0  0  0  0  0  0  0
   36.0900   25.1080   42.3720 H   0  0  0  0  0  0  0  0  0  0  0  0
   36.4760   23.0680   40.9550 H   0  0  0  0  0  0  0  0  0  0  0  0
   40.4850   24.1920   40.4460 H   0  0  0  0  0  0  0  0  0  0  0  0
   37.0260   31.8480   39.7090 O   0  0  0  0  0  0  0  0  0  0  0  0
   39.0560   32.1080   38.8110 C   0  0  0  0  0  3  0  0  0  0  0  0
   38.1720   32.6080   39.7760 C   0  0  0  0  0  0  0  0  0  0  0  0
   38.5700   33.6650   40.5420 C   0  0  0  0  0  0  0  0  0  0  0  0
   37.8250   33.9560   41.2360 H   0  0  0  0  0  0  0  0  0  0  0  0
   39.7980   34.2500   40.4010 C   0  0  0  0  0  0  0  0  0  0  0  0
   40.3340   35.2830   41.0690 N   0  0  0  0  0  0  0  0  0  0  0  0
   39.8750   35.8320   41.8420 H   0  0  0  0  0  0  0  0  0  0  0  0
   41.5430   35.4740   40.5670 N   0  0  0  0  0  0  0  0  0  0  0  0
   41.7940   34.5820   39.5900 C   0  0  0  0  0  0  0  0  0  0  0  0
   42.6820   34.4690   38.9860 H   0  0  0  0  0  0  0  0  0  0  0  0
   40.6730   33.7630   39.4540 C   0  0  0  0  0  0  0  0  0  0  0  0
   40.3190   32.6890   38.6440 C   0  0  0  0  0  3  0  0  0  0  0  0
  1  8  1  0  0  0  0
  2  1  2  0  0  0  0
  3  4  2  0  0  0  0
  3  2  1  0  0  0  0
  4  5  1  0  0  0  0
  5  1  1  0  0  0  0
  6  2  1  0  0  0  0
  7  3  1  0  0  0  0
  8 11  1  0  0  0  0
  8  9  1  0  0  0  0
 10  8  1  0  0  0  0
 11 13  1  0  0  0  0
 12 11  1  0  0  0  0
 14 11  1  0  0  0  0
 15 14  1  0  0  0  0
 15 20  1  0  0  0  0
 16 15  2  0  0  0  0
 17 18  2  0  0  0  0
 17 16  1  0  0  0  0
 18 19  1  0  0  0  0
 19 14  2  0  0  0  0
 21 16  1  0  0  0  0
 22 18  1  0  0  0  0
 23 25  1  0  0  0  0
 23  4  1  0  0  0  0
 24 25  1  0  0  0  0
 25 26  2  0  0  0  0
 26 27  1  0  0  0  0
 28 26  1  0  0  0  0
 28 29  1  0  0  0  0
 29 30  1  0  0  0  0
 31 29  1  0  0  0  0
 32 31  2  0  0  0  0
 33 32  1  0  0  0  0
 34 32  1  0  0  0  0
 34 28  2  0  0  0  0
 35 24  2  0  0  0  0
 35 34  1  0  0  0  0
M  END
>  <minimizedAffinity>
-5.82465458

$$$$

 OpenBabel03242518163D

 35 38  0  0  0  0  0  0  0  0999 V2000
   37.6130   32.2140   39.7160 C   0  0  0  0  0  0  0  0  0  0  0  0
   37.3070   33.5880   39.8270 C   0  0  0  0  0  0  0  0  0  0  0  0
   38.2930   34.5130   39.8770 C   0  0  0  0  0  0  0  0  0  0  0  0
   39.6420   34.0290   39.8120 C   0  0  0  0  0  0  0  0  0  0  0  0
   39.4890   32.2270   39.6800 S   0  0  0  0  0  0  0  0  0  0  0  0
   36.2620   33.7500   39.8610 H   0  0  0  0  0  0  0  0  0  0  0  0
   38.0610   35.5580   39.9620 H   0  0  0  0  0  0  0  0  0  0  0  0
   36.8960   31.0010   39.6090 C   0  0  0  0  0  0  0  0  0  0  0  0
   36.2500   31.0800   38.6740 H   0  0  0  0  0  0  0  0  0  0  0  0
   37.6050   30.1710   39.3050 H   0  0  0  0  0  0  0  0  0  0  0  0
   36.0570   30.5740   40.7410 C   0  0  0  0  0  0  0  0  0  0  0  0
   35.8450   31.4450   41.4050 H   0  0  0  0  0  0  0  0  0  0  0  0
   35.0610   30.2390   40.3850 H   0  0  0  0  0  0  0  0  0  0  0  0
   36.7090   29.5070   41.4980 C   0  0  0  0  0  0  0  0  0  0  0  0
   36.3480   28.1880   41.3370 C   0  0  0  0  0  0  0  0  0  0  0  0
   37.0220   27.2340   42.1020 C   0  0  0  0  0  0  0  0  0  0  0  0
   37.9830   27.6290   42.9550 N   0  0  0  0  0  0  0  0  0  0  0  0
   38.3090   28.9360   43.0840 C   0  0  0  0  0  0  0  0  0  0  0  0
   37.6810   29.8290   42.3690 N   0  0  0  0  0  0  0  0  0  0  0  0
   35.5610   27.9950   40.6230 H   0  0  0  0  0  0  0  0  0  0  0  0
   36.7190   26.2050   41.9560 H   0  0  0  0  0  0  0  0  0  0  0  0
   39.0960   29.1290   43.7990 H   0  0  0  0  0  0  0  0  0  0  0  0
   40.6990   34.7580   39.8420 O   0  0  0  0  0  0  0  0  0  0  0  0
   42.7700   34.3490   40.5750 C   0  0  0  0  0  3  0  0  0  0  0  0
   41.9790   34.4670   39.4250 C   0  0  0  0  0  0  0  0  0  0  0  0
   42.5660   34.2900   38.2060 C   0  0  0  0  0  0  0  0  0  0  0  0
   41.8750   34.4040   37.4120 H   0  0  0  0  0  0  0  0  0  0  0  0
   43.8950   34.0020   38.0690 C   0  0  0  0  0  0  0  0  0  0  0  0
   44.6150   33.8010   36.9550 N   0  0  0  0  0  0  0  0  0  0  0  0
   44.2560   33.8350   35.9650 H   0  0  0  0  0  0  0  0  0  0  0  0
   45.8560   33.5530   37.3430 N   0  0  0  0  0  0  0  0  0  0  0  0
   45.9460   33.5910   38.6860 C   0  0  0  0  0  0  0  0  0  0  0  0
   46.8110   33.4350   39.3120 H   0  0  0  0  0  0  0  0  0  0  0  0
   44.6810   33.8830   39.1950 C   0  0  0  0  0  0  0  0  0  0  0  0
   44.1350   34.0530   40.4640 C   0  0  0  0  0  3  0  0  0  0  0  0
  1  2  2  0  0  0  0
  2  6  1  0  0  0  0
  2  3  1  0  0  0  0
  3  7  1  0  0  0  0
  4 23  1  0  0  0  0
  4  3  2  0  0  0  0
  5  1  1  0  0  0  0
  5  4  1  0  0  0  0
  8  1  1  0  0  0  0
  8 11  1  0  0  0  0
  9  8  1  0  0  0  0
 10  8  1  0  0  0  0
 11 12  1  0  0  0  0
 11 14  1  0  0  0  0
 13 11  1  0  0  0  0
 14 19  1  0  0  0  0
 15 14  2  0  0  0  0
 15 16  1  0  0  0  0
 16 17  2  0  0  0  0
 17 18  1  0  0  0  0
 18 22  1  0  0  0  0
 19 18  2  0  0  0  0
 20 15  1  0  0  0  0
 21 16  1  0  0  0  0
 25 23  1  0  0  0  0
 25 24  2  0  0  0  0
 26 25  1  0  0  0  0
 27 26  1  0  0  0  0
 28 26  2  0  0  0  0
 28 34  1  0  0  0  0
 29 31  1  0  0  0  0
 29 28  1  0  0  0  0
 30 29  1  0  0  0  0
 31 32  2  0  0  0  0
 32 34  1  0  0  0  0
 32 33  1  0  0  0  0
 34 35  2  0  0  0  0
 35 24  1  0  0  0  0
M  END
>  <minimizedAffinity>
-5.81425571

$$$$

 OpenBabel03242518163D

 35 38  0  0  0  0  0  0  0  0999 V2000
   38.3890   32.0710   40.8560 C   0  0  0  0  0  0  0  0  0  0  0  0
   39.2020   31.2520   41.6710 C   0  0  0  0  0  0  0  0  0  0  0  0
   38.7330   30.0780   42.1570 C   0  0  0  0  0  0  0  0  0  0  0  0
   37.3890   29.7200   41.8030 C   0  0  0  0  0  0  0  0  0  0  0  0
   36.7960   31.0840   40.7650 S   0  0  0  0  0  0  0  0  0  0  0  0
   40.1560   31.6820   41.8220 H   0  0  0  0  0  0  0  0  0  0  0  0
   39.3500   29.4560   42.7770 H   0  0  0  0  0  0  0  0  0  0  0  0
   38.5220   33.2960   40.1650 C   0  0  0  0  0  0  0  0  0  0  0  0
   38.3710   33.0690   39.0580 H   0  0  0  0  0  0  0  0  0  0  0  0
   37.6150   33.9430   40.3710 H   0  0  0  0  0  0  0  0  0  0  0  0
   39.7600   34.0730   40.3360 C   0  0  0  0  0  0  0  0  0  0  0  0
   39.5170   35.1580   40.4290 H   0  0  0  0  0  0  0  0  0  0  0  0
   40.2580   33.8110   41.2930 H   0  0  0  0  0  0  0  0  0  0  0  0
   40.6720   33.8520   39.2150 C   0  0  0  0  0  0  0  0  0  0  0  0
   40.5960   32.7160   38.4410 C   0  0  0  0  0  0  0  0  0  0  0  0
   41.5080   32.5870   37.3900 C   0  0  0  0  0  0  0  0  0  0  0  0
   42.4110   33.5590   37.1750 N   0  0  0  0  0  0  0  0  0  0  0  0
   42.4520   34.6620   37.9590 C   0  0  0  0  0  0  0  0  0  0  0  0
   41.6000   34.7850   38.9410 N   0  0  0  0  0  0  0  0  0  0  0  0
   39.8300   32.0070   38.7120 H   0  0  0  0  0  0  0  0  0  0  0  0
   41.4270   31.6850   36.7970 H   0  0  0  0  0  0  0  0  0  0  0  0
   43.2200   35.3720   37.6870 H   0  0  0  0  0  0  0  0  0  0  0  0
   36.7830   28.6470   42.1670 O   0  0  0  0  0  0  0  0  0  0  0  0
   36.5500   27.3280   40.3790 C   0  0  0  0  0  3  0  0  0  0  0  0
   36.9430   27.3540   41.7230 C   0  0  0  0  0  0  0  0  0  0  0  0
   37.3750   26.1960   42.3000 C   0  0  0  0  0  0  0  0  0  0  0  0
   37.6440   26.3340   43.3160 H   0  0  0  0  0  0  0  0  0  0  0  0
   37.4380   25.0150   41.6150 C   0  0  0  0  0  0  0  0  0  0  0  0
   37.8340   23.8040   42.0340 N   0  0  0  0  0  0  0  0  0  0  0  0
   38.1760   23.5580   43.0000 H   0  0  0  0  0  0  0  0  0  0  0  0
   37.7140   22.9850   41.0010 N   0  0  0  0  0  0  0  0  0  0  0  0
   37.2460   23.6490   39.9270 C   0  0  0  0  0  0  0  0  0  0  0  0
   37.0360   23.2730   38.9360 H   0  0  0  0  0  0  0  0  0  0  0  0
   37.0530   24.9810   40.2920 C   0  0  0  0  0  0  0  0  0  0  0  0
   36.6050   26.1320   39.6520 C   0  0  0  0  0  3  0  0  0  0  0  0
  1  2  2  0  0  0  0
  2  6  1  0  0  0  0
  2  3  1  0  0  0  0
  3  7  1  0  0  0  0
  4  3  2  0  0  0  0
  4 23  1  0  0  0  0
  5  1  1  0  0  0  0
  5  4  1  0  0  0  0
  8 11  1  0  0  0  0
  8 10  1  0  0  0  0
  8  1  1  0  0  0  0
  9  8  1  0  0  0  0
 11 12  1  0  0  0  0
 11 13  1  0  0  0  0
 14 11  1  0  0  0  0
 15 20  1  0  0  0  0
 15 14  2  0  0  0  0
 16 15  1  0  0  0  0
 17 16  2  0  0  0  0
 17 18  1  0  0  0  0
 18 19  2  0  0  0  0
 19 14  1  0  0  0  0
 21 16  1  0  0  0  0
 22 18  1  0  0  0  0
 24 25  1  0  0  0  0
 25 23  1  0  0  0  0
 25 26  2  0  0  0  0
 26 27  1  0  0  0  0
 28 29  1  0  0  0  0
 28 26  1  0  0  0  0
 29 30  1  0  0  0  0
 31 29  1  0  0  0  0
 32 34  1  0  0  0  0
 32 31  2  0  0  0  0
 33 32  1  0  0  0  0
 34 28  2  0  0  0  0
 35 34  1  0  0  0  0
 35 24  2  0  0  0  0
M  END
>  <minimizedAffinity>
-5.74010515

$$$$

 OpenBabel03242518163D

 35 38  0  0  0  0  0  0  0  0999 V2000
   37.1840   26.7060   42.3940 C   0  0  0  0  0  0  0  0  0  0  0  0
   37.4520   27.7760   43.2770 C   0  0  0  0  0  0  0  0  0  0  0  0
   37.3620   29.0590   42.8540 C   0  0  0  0  0  0  0  0  0  0  0  0
   36.9840   29.2660   41.4850 C   0  0  0  0  0  0  0  0  0  0  0  0
   36.7600   27.6020   40.8010 S   0  0  0  0  0  0  0  0  0  0  0  0
   37.7140   27.4270   44.2400 H   0  0  0  0  0  0  0  0  0  0  0  0
   37.5660   29.8730   43.5240 H   0  0  0  0  0  0  0  0  0  0  0  0
   37.1430   25.2960   42.4640 C   0  0  0  0  0  0  0  0  0  0  0  0
   37.4210   25.0090   43.5310 H   0  0  0  0  0  0  0  0  0  0  0  0
   36.0650   24.9490   42.4280 H   0  0  0  0  0  0  0  0  0  0  0  0
   37.9670   24.5180   41.5240 C   0  0  0  0  0  0  0  0  0  0  0  0
   37.8090   23.4270   41.6950 H   0  0  0  0  0  0  0  0  0  0  0  0
   37.6370   24.6910   40.4780 H   0  0  0  0  0  0  0  0  0  0  0  0
   39.3820   24.8550   41.6700 C   0  0  0  0  0  0  0  0  0  0  0  0
   40.0480   24.6570   42.8580 C   0  0  0  0  0  0  0  0  0  0  0  0
   41.3990   25.0090   42.9090 C   0  0  0  0  0  0  0  0  0  0  0  0
   41.9910   25.5190   41.8150 N   0  0  0  0  0  0  0  0  0  0  0  0
   41.3010   25.6980   40.6640 C   0  0  0  0  0  0  0  0  0  0  0  0
   40.0380   25.3690   40.6150 N   0  0  0  0  0  0  0  0  0  0  0  0
   39.4660   24.2420   43.6660 H   0  0  0  0  0  0  0  0  0  0  0  0
   41.8990   24.8440   43.8540 H   0  0  0  0  0  0  0  0  0  0  0  0
   41.8840   26.1140   39.8560 H   0  0  0  0  0  0  0  0  0  0  0  0
   36.8460   30.4090   40.9150 O   0  0  0  0  0  0  0  0  0  0  0  0
   37.1060   32.4640   40.0760 C   0  0  0  0  0  3  0  0  0  0  0  0
   37.7570   31.4290   40.7590 C   0  0  0  0  0  0  0  0  0  0  0  0
   39.0630   31.6020   41.1160 C   0  0  0  0  0  0  0  0  0  0  0  0
   39.4510   30.7570   41.6240 H   0  0  0  0  0  0  0  0  0  0  0  0
   39.7550   32.7460   40.8310 C   0  0  0  0  0  0  0  0  0  0  0  0
   41.0270   33.0670   41.1090 N   0  0  0  0  0  0  0  0  0  0  0  0
   41.7280   32.4630   41.6140 H   0  0  0  0  0  0  0  0  0  0  0  0
   41.2270   34.2840   40.6290 N   0  0  0  0  0  0  0  0  0  0  0  0
   40.1060   34.7500   40.0470 C   0  0  0  0  0  0  0  0  0  0  0  0
   39.9380   35.7000   39.5620 H   0  0  0  0  0  0  0  0  0  0  0  0
   39.1210   33.7690   40.1590 C   0  0  0  0  0  0  0  0  0  0  0  0
   37.7900   33.6480   39.7720 C   0  0  0  0  0  3  0  0  0  0  0  0
  1  8  1  0  0  0  0
  1  2  2  0  0  0  0
  2  6  1  0  0  0  0
  3  2  1  0  0  0  0
  3  7  1  0  0  0  0
  4  3  2  0  0  0  0
  5  4  1  0  0  0  0
  5  1  1  0  0  0  0
  8  9  1  0  0  0  0
 10  8  1  0  0  0  0
 11 14  1  0  0  0  0
 11 12  1  0  0  0  0
 11  8  1  0  0  0  0
 13 11  1  0  0  0  0
 14 15  1  0  0  0  0
 15 16  2  0  0  0  0
 15 20  1  0  0  0  0
 16 21  1  0  0  0  0
 17 16  1  0  0  0  0
 18 17  2  0  0  0  0
 19 18  1  0  0  0  0
 19 14  2  0  0  0  0
 22 18  1  0  0  0  0
 23  4  1  0  0  0  0
 24 25  1  0  0  0  0
 25 23  1  0  0  0  0
 25 26  2  0  0  0  0
 26 27  1  0  0  0  0
 28 29  1  0  0  0  0
 28 26  1  0  0  0  0
 29 30  1  0  0  0  0
 31 29  1  0  0  0  0
 32 34  1  0  0  0  0
 32 31  2  0  0  0  0
 33 32  1  0  0  0  0
 34 28  2  0  0  0  0
 35 24  2  0  0  0  0
 35 34  1  0  0  0  0
M  END
>  <minimizedAffinity>
-5.72824764

$$$$

 OpenBabel03242518163D

 35 38  0  0  0  0  0  0  0  0999 V2000
   37.9250   25.7790   42.0330 C   0  0  0  0  0  0  0  0  0  0  0  0
   37.0640   26.5790   42.8160 C   0  0  0  0  0  0  0  0  0  0  0  0
   36.5710   27.7430   42.3300 C   0  0  0  0  0  0  0  0  0  0  0  0
   36.9660   28.1110   41.0010 C   0  0  0  0  0  0  0  0  0  0  0  0
   38.0570   26.7730   40.4470 S   0  0  0  0  0  0  0  0  0  0  0  0
   36.8880   26.1450   43.7640 H   0  0  0  0  0  0  0  0  0  0  0  0
   35.9160   28.3510   42.9250 H   0  0  0  0  0  0  0  0  0  0  0  0
   38.5920   24.5410   42.1680 C   0  0  0  0  0  0  0  0  0  0  0  0
   37.7860   23.7410   42.2690 H   0  0  0  0  0  0  0  0  0  0  0  0
   39.0510   24.2510   41.1730 H   0  0  0  0  0  0  0  0  0  0  0  0
   39.5720   24.3810   43.2550 C   0  0  0  0  0  0  0  0  0  0  0  0
   39.0690   24.5160   44.2420 H   0  0  0  0  0  0  0  0  0  0  0  0
   39.9660   23.3430   43.2770 H   0  0  0  0  0  0  0  0  0  0  0  0
   40.6700   25.3350   43.1110 C   0  0  0  0  0  0  0  0  0  0  0  0
   40.8360   26.3780   43.9940 C   0  0  0  0  0  0  0  0  0  0  0  0
   41.9110   27.2430   43.7800 C   0  0  0  0  0  0  0  0  0  0  0  0
   42.7330   27.0310   42.7370 N   0  0  0  0  0  0  0  0  0  0  0  0
   42.5360   25.9930   41.8910 C   0  0  0  0  0  0  0  0  0  0  0  0
   41.5310   25.1830   42.0900 N   0  0  0  0  0  0  0  0  0  0  0  0
   40.1110   26.4450   44.7910 H   0  0  0  0  0  0  0  0  0  0  0  0
   42.0190   28.0540   44.4890 H   0  0  0  0  0  0  0  0  0  0  0  0
   43.2610   25.9270   41.0930 H   0  0  0  0  0  0  0  0  0  0  0  0
   36.5960   29.1730   40.3800 O   0  0  0  0  0  0  0  0  0  0  0  0
   38.3400   30.3570   41.1190 C   0  0  0  0  0  3  0  0  0  0  0  0
   37.1400   30.4370   40.4010 C   0  0  0  0  0  0  0  0  0  0  0  0
   36.7580   31.6470   39.8980 C   0  0  0  0  0  0  0  0  0  0  0  0
   35.8370   31.5880   39.3760 H   0  0  0  0  0  0  0  0  0  0  0  0
   37.5040   32.7790   40.0680 C   0  0  0  0  0  0  0  0  0  0  0  0
   37.2700   34.0290   39.6410 N   0  0  0  0  0  0  0  0  0  0  0  0
   36.4380   34.3520   39.0820 H   0  0  0  0  0  0  0  0  0  0  0  0
   38.2840   34.7700   40.0580 N   0  0  0  0  0  0  0  0  0  0  0  0
   39.1650   34.0190   40.7460 C   0  0  0  0  0  0  0  0  0  0  0  0
   40.0900   34.3180   41.2160 H   0  0  0  0  0  0  0  0  0  0  0  0
   38.6860   32.7090   40.7730 C   0  0  0  0  0  0  0  0  0  0  0  0
   39.1250   31.5020   41.3090 C   0  0  0  0  0  3  0  0  0  0  0  0
  1  8  1  0  0  0  0
  1  2  2  0  0  0  0
  2  6  1  0  0  0  0
  3  2  1  0  0  0  0
  3  7  1  0  0  0  0
  4  3  2  0  0  0  0
  5  4  1  0  0  0  0
  5  1  1  0  0  0  0
  8  9  1  0  0  0  0
  8 11  1  0  0  0  0
 10  8  1  0  0  0  0
 11 13  1  0  0  0  0
 11 12  1  0  0  0  0
 14 11  1  0  0  0  0
 14 15  1  0  0  0  0
 15 20  1  0  0  0  0
 16 15  2  0  0  0  0
 16 21  1  0  0  0  0
 17 16  1  0  0  0  0
 18 19  1  0  0  0  0
 18 17  2  0  0  0  0
 19 14  2  0  0  0  0
 22 18  1  0  0  0  0
 23 25  1  0  0  0  0
 23  4  1  0  0  0  0
 24 35  1  0  0  0  0
 25 24  2  0  0  0  0
 26 28  2  0  0  0  0
 26 25  1  0  0  0  0
 27 26  1  0  0  0  0
 28 34  1  0  0  0  0
 29 31  1  0  0  0  0
 29 28  1  0  0  0  0
 30 29  1  0  0  0  0
 31 32  2  0  0  0  0
 32 34  1  0  0  0  0
 32 33  1  0  0  0  0
 34 35  2  0  0  0  0
M  END
>  <minimizedAffinity>
-5.71635914

$$$$

 OpenBabel03242518163D

 35 38  0  0  0  0  0  0  0  0999 V2000
   37.2200   26.4730   42.5270 C   0  0  0  0  0  0  0  0  0  0  0  0
   37.4830   27.4850   43.4770 C   0  0  0  0  0  0  0  0  0  0  0  0
   37.3640   28.7920   43.1440 C   0  0  0  0  0  0  0  0  0  0  0  0
   36.9630   29.0850   41.7980 C   0  0  0  0  0  0  0  0  0  0  0  0
   36.7580   27.4670   41.0050 S   0  0  0  0  0  0  0  0  0  0  0  0
   37.7640   27.0750   44.4100 H   0  0  0  0  0  0  0  0  0  0  0  0
   37.5640   29.5610   43.8650 H   0  0  0  0  0  0  0  0  0  0  0  0
   37.2040   25.0600   42.5000 C   0  0  0  0  0  0  0  0  0  0  0  0
   37.3230   24.7080   43.5770 H   0  0  0  0  0  0  0  0  0  0  0  0
   36.1540   24.7010   42.2760 H   0  0  0  0  0  0  0  0  0  0  0  0
   38.1820   24.3590   41.6520 C   0  0  0  0  0  0  0  0  0  0  0  0
   38.8030   25.1010   41.0970 H   0  0  0  0  0  0  0  0  0  0  0  0
   38.9060   23.7920   42.2750 H   0  0  0  0  0  0  0  0  0  0  0  0
   37.5090   23.4600   40.7160 C   0  0  0  0  0  0  0  0  0  0  0  0
   36.2510   23.7390   40.2320 C   0  0  0  0  0  0  0  0  0  0  0  0
   35.6820   22.8230   39.3430 C   0  0  0  0  0  0  0  0  0  0  0  0
   36.3710   21.7220   38.9960 N   0  0  0  0  0  0  0  0  0  0  0  0
   37.6070   21.4850   39.4940 C   0  0  0  0  0  0  0  0  0  0  0  0
   38.1400   22.3390   40.3250 N   0  0  0  0  0  0  0  0  0  0  0  0
   35.7980   24.6530   40.5840 H   0  0  0  0  0  0  0  0  0  0  0  0
   34.6920   23.0660   38.9780 H   0  0  0  0  0  0  0  0  0  0  0  0
   38.0600   20.5700   39.1420 H   0  0  0  0  0  0  0  0  0  0  0  0
   36.7970   30.2610   41.3090 O   0  0  0  0  0  0  0  0  0  0  0  0
   37.1080   32.1680   40.1850 C   0  0  0  0  0  3  0  0  0  0  0  0
   37.7290   31.2340   41.0250 C   0  0  0  0  0  0  0  0  0  0  0  0
   39.0310   31.4380   41.3800 C   0  0  0  0  0  0  0  0  0  0  0  0
   39.3950   30.6710   42.0140 H   0  0  0  0  0  0  0  0  0  0  0  0
   39.7470   32.5180   40.9450 C   0  0  0  0  0  0  0  0  0  0  0  0
   41.0200   32.8570   41.2000 N   0  0  0  0  0  0  0  0  0  0  0  0
   41.7000   32.3230   41.8020 H   0  0  0  0  0  0  0  0  0  0  0  0
   41.2490   33.9880   40.5520 N   0  0  0  0  0  0  0  0  0  0  0  0
   40.1480   34.3800   39.8850 C   0  0  0  0  0  0  0  0  0  0  0  0
   40.0060   35.2520   39.2630 H   0  0  0  0  0  0  0  0  0  0  0  0
   39.1440   33.4410   40.1190 C   0  0  0  0  0  0  0  0  0  0  0  0
   37.8190   33.2840   39.7250 C   0  0  0  0  0  3  0  0  0  0  0  0
  1  2  2  0  0  0  0
  2  6  1  0  0  0  0
  3  2  1  0  0  0  0
  3  7  1  0  0  0  0
  4  3  2  0  0  0  0
  5  4  1  0  0  0  0
  5  1  1  0  0  0  0
  8  1  1  0  0  0  0
  8  9  1  0  0  0  0
 10  8  1  0  0  0  0
 11 13  1  0  0  0  0
 11  8  1  0  0  0  0
 12 11  1  0  0  0  0
 14 11  1  0  0  0  0
 15 20  1  0  0  0  0
 15 14  2  0  0  0  0
 16 15  1  0  0  0  0
 17 16  2  0  0  0  0
 17 18  1  0  0  0  0
 18 19  2  0  0  0  0
 19 14  1  0  0  0  0
 21 16  1  0  0  0  0
 22 18  1  0  0  0  0
 23  4  1  0  0  0  0
 24 25  1  0  0  0  0
 25 23  1  0  0  0  0
 25 26  2  0  0  0  0
 26 27  1  0  0  0  0
 28 29  1  0  0  0  0
 28 26  1  0  0  0  0
 29 30  1  0  0  0  0
 31 29  1  0  0  0  0
 32 34  1  0  0  0  0
 32 31  2  0  0  0  0
 33 32  1  0  0  0  0
 34 28  2  0  0  0  0
 35 34  1  0  0  0  0
 35 24  2  0  0  0  0
M  END
>  <minimizedAffinity>
-5.69516563

$$$$
