
 OpenBabel03242515103D

 39 42  0  0  0  0  0  0  0  0999 V2000
   46.9790   32.5930   44.0400 N   0  0  0  0  0  0  0  0  0  0  0  0
   46.7590   31.7430   44.6370 H   0  0  0  0  0  0  0  0  0  0  0  0
   45.6090   33.9040   45.6300 C   0  0  0  0  0  0  0  0  0  0  0  0
   44.7920   34.9920   45.7410 C   0  0  0  0  0  0  0  0  0  0  0  0
   44.4570   35.8370   44.6980 C   0  0  0  0  0  0  0  0  0  0  0  0
   44.9730   35.5750   43.4650 C   0  0  0  0  0  0  0  0  0  0  0  0
   45.7980   34.4960   43.3020 C   0  0  0  0  0  0  0  0  0  0  0  0
   46.1160   33.6650   44.3700 C   0  0  0  0  0  0  0  0  0  0  0  0
   44.3470   35.2540   46.7020 H   0  0  0  0  0  0  0  0  0  0  0  0
   43.8080   36.6960   44.7960 H   0  0  0  0  0  0  0  0  0  0  0  0
   44.7330   36.2170   42.6220 H   0  0  0  0  0  0  0  0  0  0  0  0
   46.1850   34.3310   42.2950 H   0  0  0  0  0  0  0  0  0  0  0  0
   47.5640   31.8530   47.9390 C   0  0  0  0  0  0  0  0  0  0  0  0
   46.6170   31.4310   48.8680 C   0  0  0  0  0  0  0  0  0  0  0  0
   45.2880   31.8510   48.7060 C   0  0  0  0  0  0  0  0  0  0  0  0
   44.9600   32.6580   47.6510 N   0  0  0  0  0  0  0  0  0  0  0  0
   45.9260   33.0530   46.7550 C   0  0  0  0  0  0  0  0  0  0  0  0
   47.1890   32.6370   46.9320 N   0  0  0  0  0  0  0  0  0  0  0  0
   48.5720   31.4960   48.1170 H   0  0  0  0  0  0  0  0  0  0  0  0
   46.8090   30.7990   49.7170 H   0  0  0  0  0  0  0  0  0  0  0  0
   44.5020   31.5600   49.3910 H   0  0  0  0  0  0  0  0  0  0  0  0
   48.2450   32.4320   42.9140 S   0  0  0  0  0  0  0  0  0  0  0  0
   47.6190   32.2490   41.5260 O   0  0  0  0  0  0  0  0  0  0  0  0
   48.1010   32.3450   40.6820 H   0  0  0  0  0  0  0  0  0  0  0  0
   49.1850   33.5800   42.8610 O   0  0  0  0  0  0  0  0  0  0  0  0
   49.0350   34.3580   42.2780 H   0  0  0  0  0  0  0  0  0  0  0  0
   48.9970   30.9620   43.2350 O   0  0  0  0  0  0  0  0  0  0  0  0
   51.3190   30.8060   42.6720 C   0  0  0  0  0  3  0  0  0  0  0  0
   50.0010   30.4400   42.4740 C   0  0  0  0  0  0  0  0  0  0  0  0
   49.6780   29.5190   41.4800 C   0  0  0  0  0  0  0  0  0  0  0  0
   48.6340   29.2390   41.3340 H   0  0  0  0  0  0  0  0  0  0  0  0
   50.6750   28.9710   40.6890 C   0  0  0  0  0  0  0  0  0  0  0  0
   50.6750   28.0820   39.6790 N   0  0  0  0  0  0  0  0  0  0  0  0
   49.7900   27.6480   39.3310 H   0  0  0  0  0  0  0  0  0  0  0  0
   51.9060   27.8770   39.2420 N   0  0  0  0  0  0  0  0  0  0  0  0
   52.7760   28.6230   39.9460 C   0  0  0  0  0  0  0  0  0  0  0  0
   53.8600   28.6820   39.8320 H   0  0  0  0  0  0  0  0  0  0  0  0
   51.9980   29.3140   40.8610 C   0  0  0  0  0  0  0  0  0  0  0  0
   52.2880   30.2330   41.8580 C   0  0  0  0  0  3  0  0  0  0  0  0
  1  8  1  0  0  0  0
  1  2  1  0  0  0  0
  3  4  1  0  0  0  0
  3 17  1  0  0  0  0
  4  9  1  0  0  0  0
  5 10  1  0  0  0  0
  5  4  2  0  0  0  0
  6  5  1  0  0  0  0
  7  6  2  0  0  0  0
  7  8  1  0  0  0  0
  8  3  2  0  0  0  0
 11  6  1  0  0  0  0
 12  7  1  0  0  0  0
 13 19  1  0  0  0  0
 13 14  1  0  0  0  0
 14 20  1  0  0  0  0
 15 14  2  0  0  0  0
 15 21  1  0  0  0  0
 16 15  1  0  0  0  0
 17 18  1  0  0  0  0
 17 16  2  0  0  0  0
 18 13  2  0  0  0  0
 22 27  1  0  0  0  0
 22  1  1  0  0  0  0
 23 22  1  0  0  0  0
 24 23  1  0  0  0  0
 25 22  1  0  0  0  0
 26 25  1  0  0  0  0
 29 28  1  0  0  0  0
 29 27  1  0  0  0  0
 30 29  2  0  0  0  0
 31 30  1  0  0  0  0
 32 38  2  0  0  0  0
 32 30  1  0  0  0  0
 33 32  1  0  0  0  0
 34 33  1  0  0  0  0
 35 33  1  0  0  0  0
 35 36  2  0  0  0  0
 36 38  1  0  0  0  0
 37 36  1  0  0  0  0
 38 39  1  0  0  0  0
 39 28  2  0  0  0  0
M  END
>  <minimizedAffinity>
-4.96447468

>  <minimizedRMSD>
1.0976069

$$$$
