
 OpenBabel03242518003D

 40 43  0  0  0  0  0  0  0  0999 V2000
   46.2940   31.6910   45.2700 C   0  0  0  0  0  0  0  0  0  0  0  0
   45.2840   31.9390   45.5980 H   0  0  0  0  0  0  0  0  0  0  0  0
   46.1670   30.7650   44.6340 H   0  0  0  0  0  0  0  0  0  0  0  0
   47.2910   32.1600   47.4960 C   0  0  0  0  0  0  0  0  0  0  0  0
   47.1660   31.3240   46.3750 C   0  0  0  0  0  0  0  0  0  0  0  0
   47.9210   30.1390   46.3870 C   0  0  0  0  0  0  0  0  0  0  0  0
   48.7030   29.8810   47.4520 N   0  0  0  0  0  0  0  0  0  0  0  0
   48.8050   30.6980   48.5110 C   0  0  0  0  0  0  0  0  0  0  0  0
   48.1010   31.8250   48.5240 N   0  0  0  0  0  0  0  0  0  0  0  0
   46.7540   33.0950   47.5850 H   0  0  0  0  0  0  0  0  0  0  0  0
   47.8560   29.4640   45.5450 H   0  0  0  0  0  0  0  0  0  0  0  0
   50.0330   29.1060   49.9150 C   0  0  0  0  0  3  0  0  0  0  0  0
   49.6560   30.4100   49.6620 C   0  0  0  0  0  0  0  0  0  0  0  0
   50.1080   31.3920   50.5210 C   0  0  0  0  0  0  0  0  0  0  0  0
   49.8320   32.4260   50.3530 H   0  0  0  0  0  0  0  0  0  0  0  0
   50.9130   31.0700   51.5980 C   0  0  0  0  0  0  0  0  0  0  0  0
   51.4760   31.8200   52.5640 N   0  0  0  0  0  0  0  0  0  0  0  0
   51.3870   32.8720   52.6670 H   0  0  0  0  0  0  0  0  0  0  0  0
   52.1710   31.0530   53.3890 N   0  0  0  0  0  0  0  0  0  0  0  0
   52.0810   29.7740   52.9810 C   0  0  0  0  0  0  0  0  0  0  0  0
   52.4780   28.8240   53.3390 H   0  0  0  0  0  0  0  0  0  0  0  0
   51.2810   29.7410   51.8320 C   0  0  0  0  0  0  0  0  0  0  0  0
   50.8340   28.7290   50.9740 C   0  0  0  0  0  3  0  0  0  0  0  0
   46.9940   32.7750   44.4770 C   0  0  0  0  0  0  0  0  0  0  0  0
   47.3540   32.3180   43.5370 H   0  0  0  0  0  0  0  0  0  0  0  0
   47.9410   33.1160   44.9890 H   0  0  0  0  0  0  0  0  0  0  0  0
   46.3770   34.7310   43.1220 C   0  0  0  0  0  0  0  0  0  0  0  0
   46.2020   33.9930   44.2740 C   0  0  0  0  0  0  0  0  0  0  0  0
   45.3130   34.3400   45.2560 C   0  0  0  0  0  0  0  0  0  0  0  0
   44.5570   35.4790   45.0870 C   0  0  0  0  0  0  0  0  0  0  0  0
   44.6650   36.2700   43.9760 C   0  0  0  0  0  0  0  0  0  0  0  0
   45.5880   35.8580   43.0180 C   0  0  0  0  0  0  0  0  0  0  0  0
   45.1160   33.8360   46.1690 H   0  0  0  0  0  0  0  0  0  0  0  0
   43.8250   35.8300   45.8170 H   0  0  0  0  0  0  0  0  0  0  0  0
   44.0860   37.1590   43.8280 H   0  0  0  0  0  0  0  0  0  0  0  0
   45.6990   36.4680   42.1170 H   0  0  0  0  0  0  0  0  0  0  0  0
   47.5030   34.3260   41.8430 S   0  0  0  0  0  0  0  0  0  0  0  0
   48.5290   35.4160   41.6190 O   0  0  0  0  0  0  0  0  0  0  0  0
   46.7420   34.2430   40.5410 O   0  0  0  0  0  0  0  0  0  0  0  0
   48.0830   33.1050   42.0060 H   0  0  0  0  0  0  0  0  0  0  0  0
  1  2  1  0  0  0  0
  1  5  1  0  0  0  0
  3  1  1  0  0  0  0
  4 10  1  0  0  0  0
  4  9  1  0  0  0  0
  5  6  1  0  0  0  0
  5  4  2  0  0  0  0
  6  7  2  0  0  0  0
  7  8  1  0  0  0  0
  8  9  2  0  0  0  0
  8 13  1  0  0  0  0
 11  6  1  0  0  0  0
 12 23  1  0  0  0  0
 13 12  2  0  0  0  0
 13 14  1  0  0  0  0
 14 16  2  0  0  0  0
 15 14  1  0  0  0  0
 16 22  1  0  0  0  0
 16 17  1  0  0  0  0
 17 18  1  0  0  0  0
 17 19  1  0  0  0  0
 20 21  1  0  0  0  0
 20 19  2  0  0  0  0
 22 20  1  0  0  0  0
 23 22  2  0  0  0  0
 24 26  1  0  0  0  0
 24  1  1  0  0  0  0
 25 24  1  0  0  0  0
 27 28  1  0  0  0  0
 28 24  1  0  0  0  0
 28 29  2  0  0  0  0
 29 33  1  0  0  0  0
 30 29  1  0  0  0  0
 30 34  1  0  0  0  0
 31 30  2  0  0  0  0
 32 27  2  0  0  0  0
 32 31  1  0  0  0  0
 35 31  1  0  0  0  0
 36 32  1  0  0  0  0
 37 40  1  0  0  0  0
 37 27  1  0  0  0  0
 38 37  2  0  0  0  0
 39 37  2  0  0  0  0
M  END
>  <minimizedAffinity>
-6.51210117

>  <minimizedRMSD>
1.00315475

$$$$
