
 OpenBabel03242518003D

 40 43  0  0  0  0  0  0  0  0999 V2000
   46.0170   31.6880   45.3400 C   0  0  0  0  0  0  0  0  0  0  0  0
   45.0560   32.0850   45.6650 H   0  0  0  0  0  0  0  0  0  0  0  0
   45.7830   30.6470   44.9660 H   0  0  0  0  0  0  0  0  0  0  0  0
   47.1050   32.5470   47.4010 C   0  0  0  0  0  0  0  0  0  0  0  0
   46.9590   31.5340   46.4390 C   0  0  0  0  0  0  0  0  0  0  0  0
   47.7620   30.3930   46.6000 C   0  0  0  0  0  0  0  0  0  0  0  0
   48.6060   30.3380   47.6460 N   0  0  0  0  0  0  0  0  0  0  0  0
   48.7270   31.3200   48.5520 C   0  0  0  0  0  0  0  0  0  0  0  0
   47.9790   32.4110   48.4230 N   0  0  0  0  0  0  0  0  0  0  0  0
   46.5350   33.4650   47.3690 H   0  0  0  0  0  0  0  0  0  0  0  0
   47.6820   29.5870   45.8830 H   0  0  0  0  0  0  0  0  0  0  0  0
   50.5010   32.3110   49.9260 C   0  0  0  0  0  3  0  0  0  0  0  0
   49.6460   31.2530   49.6850 C   0  0  0  0  0  0  0  0  0  0  0  0
   49.7020   30.1690   50.5380 C   0  0  0  0  0  0  0  0  0  0  0  0
   49.0470   29.3220   50.3800 H   0  0  0  0  0  0  0  0  0  0  0  0
   50.5900   30.1520   51.5980 C   0  0  0  0  0  0  0  0  0  0  0  0
   50.8400   29.2390   52.5560 N   0  0  0  0  0  0  0  0  0  0  0  0
   50.3550   28.3020   52.6640 H   0  0  0  0  0  0  0  0  0  0  0  0
   51.7930   29.6760   53.3630 N   0  0  0  0  0  0  0  0  0  0  0  0
   52.1930   30.8930   52.9530 C   0  0  0  0  0  0  0  0  0  0  0  0
   52.9330   31.6160   53.3000 H   0  0  0  0  0  0  0  0  0  0  0  0
   51.4460   31.2370   51.8210 C   0  0  0  0  0  0  0  0  0  0  0  0
   51.4050   32.3460   50.9680 C   0  0  0  0  0  3  0  0  0  0  0  0
   46.7080   32.4880   44.2550 C   0  0  0  0  0  0  0  0  0  0  0  0
   46.7730   31.8440   43.3590 H   0  0  0  0  0  0  0  0  0  0  0  0
   47.7880   32.6930   44.5170 H   0  0  0  0  0  0  0  0  0  0  0  0
   46.4740   34.4940   42.8550 C   0  0  0  0  0  0  0  0  0  0  0  0
   46.1150   33.8040   43.9940 C   0  0  0  0  0  0  0  0  0  0  0  0
   45.2200   34.2870   44.9100 C   0  0  0  0  0  0  0  0  0  0  0  0
   44.6490   35.5200   44.6850 C   0  0  0  0  0  0  0  0  0  0  0  0
   44.9450   36.2730   43.5820 C   0  0  0  0  0  0  0  0  0  0  0  0
   45.8640   35.7210   42.6920 C   0  0  0  0  0  0  0  0  0  0  0  0
   44.8910   33.8290   45.8090 H   0  0  0  0  0  0  0  0  0  0  0  0
   43.9270   35.9820   45.3610 H   0  0  0  0  0  0  0  0  0  0  0  0
   44.5110   37.2330   43.3910 H   0  0  0  0  0  0  0  0  0  0  0  0
   46.1230   36.2970   41.8000 H   0  0  0  0  0  0  0  0  0  0  0  0
   47.6150   33.9160   41.6590 S   0  0  0  0  0  0  0  0  0  0  0  0
   48.9920   34.5140   41.8480 O   0  0  0  0  0  0  0  0  0  0  0  0
   47.1720   34.3980   40.2980 O   0  0  0  0  0  0  0  0  0  0  0  0
   47.6570   32.5570   41.5700 H   0  0  0  0  0  0  0  0  0  0  0  0
  1  2  1  0  0  0  0
  1  5  1  0  0  0  0
  3  1  1  0  0  0  0
  4  9  1  0  0  0  0
  5  6  1  0  0  0  0
  5  4  2  0  0  0  0
  6  7  2  0  0  0  0
  7  8  1  0  0  0  0
  8 13  1  0  0  0  0
  9  8  2  0  0  0  0
 10  4  1  0  0  0  0
 11  6  1  0  0  0  0
 12 23  1  0  0  0  0
 13 12  2  0  0  0  0
 13 14  1  0  0  0  0
 14 16  2  0  0  0  0
 15 14  1  0  0  0  0
 16 22  1  0  0  0  0
 16 17  1  0  0  0  0
 17 18  1  0  0  0  0
 17 19  1  0  0  0  0
 20 21  1  0  0  0  0
 20 19  2  0  0  0  0
 22 20  1  0  0  0  0
 23 22  2  0  0  0  0
 24 26  1  0  0  0  0
 24  1  1  0  0  0  0
 25 24  1  0  0  0  0
 27 28  1  0  0  0  0
 28 24  1  0  0  0  0
 28 29  2  0  0  0  0
 29 33  1  0  0  0  0
 30 29  1  0  0  0  0
 30 34  1  0  0  0  0
 31 30  2  0  0  0  0
 32 27  2  0  0  0  0
 32 31  1  0  0  0  0
 35 31  1  0  0  0  0
 36 32  1  0  0  0  0
 37 38  2  0  0  0  0
 37 27  1  0  0  0  0
 39 37  2  0  0  0  0
 40 37  1  0  0  0  0
M  END
>  <minimizedAffinity>
-6.44654894

>  <minimizedRMSD>
0.975392818

$$$$
