
 OpenBabel03242510563D

 39 42  0  0  0  0  0  0  0  0999 V2000
   45.6410   31.6200   47.1250 C   0  0  0  0  0  0  0  0  0  0  0  0
   45.4990   32.1330   48.4320 C   0  0  0  0  0  0  0  0  0  0  0  0
   45.2520   31.3450   49.5350 C   0  0  0  0  0  0  0  0  0  0  0  0
   45.1410   29.9910   49.3320 C   0  0  0  0  0  0  0  0  0  0  0  0
   45.2800   29.4790   48.0510 C   0  0  0  0  0  0  0  0  0  0  0  0
   45.5200   30.2970   47.0160 N   0  0  0  0  0  0  0  0  0  0  0  0
   45.5910   33.2080   48.5660 H   0  0  0  0  0  0  0  0  0  0  0  0
   45.1550   31.8120   50.5060 H   0  0  0  0  0  0  0  0  0  0  0  0
   44.9470   29.3380   50.1730 H   0  0  0  0  0  0  0  0  0  0  0  0
   44.8550   36.4920   43.6520 C   0  0  0  0  0  0  0  0  0  0  0  0
   45.7800   36.1530   42.6450 C   0  0  0  0  0  0  0  0  0  0  0  0
   46.4320   34.9130   42.7360 C   0  0  0  0  0  0  0  0  0  0  0  0
   46.1410   34.0950   43.7920 N   0  0  0  0  0  0  0  0  0  0  0  0
   45.2430   34.4630   44.7370 C   0  0  0  0  0  0  0  0  0  0  0  0
   44.5930   35.6670   44.6720 N   0  0  0  0  0  0  0  0  0  0  0  0
   45.9010   32.5280   46.0250 C   0  0  0  0  0  0  0  0  0  0  0  0
   46.9310   32.3280   45.3170 O   0  0  0  0  0  0  0  0  0  0  0  0
   44.9600   33.5900   45.8240 N   0  0  0  0  0  0  0  0  0  0  0  0
   44.3800   37.4570   43.5380 H   0  0  0  0  0  0  0  0  0  0  0  0
   46.0200   36.7840   41.8100 H   0  0  0  0  0  0  0  0  0  0  0  0
   47.1430   34.6220   41.9870 H   0  0  0  0  0  0  0  0  0  0  0  0
   44.1340   33.7310   46.4110 H   0  0  0  0  0  0  0  0  0  0  0  0
   45.1600   28.0500   47.8570 C   0  0  0  0  0  3  0  0  0  0  0  0
   44.5340   27.3050   48.7640 C   0  0  0  0  0  3  0  0  0  0  0  0
   44.3330   25.8250   48.7020 C   0  0  0  0  0  0  0  0  0  0  0  0
   43.6890   25.4400   49.4930 H   0  0  0  0  0  0  0  0  0  0  0  0
   45.3110   25.2990   48.7870 H   0  0  0  0  0  0  0  0  0  0  0  0
   44.3910   24.9320   46.2800 C   0  0  0  0  0  3  0  0  0  0  0  0
   43.7200   25.4490   47.3780 C   0  0  0  0  0  0  0  0  0  0  0  0
   42.3410   25.6470   47.2680 C   0  0  0  0  0  0  0  0  0  0  0  0
   41.7710   26.0490   48.1000 H   0  0  0  0  0  0  0  0  0  0  0  0
   41.6310   25.3500   46.1190 C   0  0  0  0  0  0  0  0  0  0  0  0
   40.3380   25.4570   45.7960 N   0  0  0  0  0  0  0  0  0  0  0  0
   39.5910   25.8190   46.4370 H   0  0  0  0  0  0  0  0  0  0  0  0
   40.1870   25.0290   44.5530 N   0  0  0  0  0  0  0  0  0  0  0  0
   41.3770   24.6400   44.0520 C   0  0  0  0  0  0  0  0  0  0  0  0
   41.5770   24.2470   43.0690 H   0  0  0  0  0  0  0  0  0  0  0  0
   42.3190   24.8360   45.0370 C   0  0  0  0  0  0  0  0  0  0  0  0
   43.6850   24.6400   45.1460 C   0  0  0  0  0  3  0  0  0  0  0  0
  1  2  1  0  0  0  0
  2  7  1  0  0  0  0
  2  3  2  0  0  0  0
  3  8  1  0  0  0  0
  4  3  1  0  0  0  0
  4  9  1  0  0  0  0
  5  4  2  0  0  0  0
  6  1  2  0  0  0  0
  6  5  1  0  0  0  0
 10 15  1  0  0  0  0
 11 12  1  0  0  0  0
 11 10  2  0  0  0  0
 12 13  2  0  0  0  0
 13 14  1  0  0  0  0
 14 18  1  0  0  0  0
 15 14  2  0  0  0  0
 16  1  1  0  0  0  0
 17 16  2  0  0  0  0
 18 16  1  0  0  0  0
 18 22  1  0  0  0  0
 19 10  1  0  0  0  0
 20 11  1  0  0  0  0
 21 12  1  0  0  0  0
 23  5  1  0  0  0  0
 23 24  2  0  0  0  0
 25 24  1  0  0  0  0
 25 27  1  0  0  0  0
 25 26  1  0  0  0  0
 28 29  1  0  0  0  0
 29 25  1  0  0  0  0
 30 29  2  0  0  0  0
 30 31  1  0  0  0  0
 32 30  1  0  0  0  0
 33 32  1  0  0  0  0
 33 34  1  0  0  0  0
 35 33  1  0  0  0  0
 36 35  2  0  0  0  0
 36 38  1  0  0  0  0
 37 36  1  0  0  0  0
 38 39  1  0  0  0  0
 38 32  2  0  0  0  0
 39 28  2  0  0  0  0
M  END
>  <minimizedAffinity>
-6.14000559

>  <minimizedRMSD>
2.49444771

$$$$
