
 OpenBabel03242510583D

 39 42  0  0  0  0  0  0  0  0999 V2000
   39.6480   32.4130   40.3520 C   0  0  0  0  0  0  0  0  0  0  0  0
   38.7080   33.1660   39.6170 C   0  0  0  0  0  0  0  0  0  0  0  0
   37.3610   32.8800   39.5880 C   0  0  0  0  0  0  0  0  0  0  0  0
   36.9290   31.8000   40.3200 C   0  0  0  0  0  0  0  0  0  0  0  0
   37.8460   31.0560   41.0460 C   0  0  0  0  0  0  0  0  0  0  0  0
   39.1460   31.3840   41.0340 N   0  0  0  0  0  0  0  0  0  0  0  0
   39.0760   34.0150   39.0450 H   0  0  0  0  0  0  0  0  0  0  0  0
   36.7010   33.5030   39.0000 H   0  0  0  0  0  0  0  0  0  0  0  0
   35.8770   31.5430   40.3240 H   0  0  0  0  0  0  0  0  0  0  0  0
   44.8160   34.7240   42.4450 C   0  0  0  0  0  0  0  0  0  0  0  0
   45.5620   34.6160   41.2550 C   0  0  0  0  0  0  0  0  0  0  0  0
   44.9090   34.1430   40.1060 C   0  0  0  0  0  0  0  0  0  0  0  0
   43.5860   33.8100   40.1920 N   0  0  0  0  0  0  0  0  0  0  0  0
   42.9090   33.9290   41.3590 C   0  0  0  0  0  0  0  0  0  0  0  0
   43.5210   34.3890   42.4950 N   0  0  0  0  0  0  0  0  0  0  0  0
   41.0470   32.7910   40.3210 C   0  0  0  0  0  0  0  0  0  0  0  0
   41.7470   32.4110   39.3370 O   0  0  0  0  0  0  0  0  0  0  0  0
   41.5330   33.5750   41.4190 N   0  0  0  0  0  0  0  0  0  0  0  0
   45.3630   35.0920   43.3020 H   0  0  0  0  0  0  0  0  0  0  0  0
   46.6010   34.8740   41.1700 H   0  0  0  0  0  0  0  0  0  0  0  0
   45.4470   34.0490   39.1820 H   0  0  0  0  0  0  0  0  0  0  0  0
   40.9460   33.8710   42.2040 H   0  0  0  0  0  0  0  0  0  0  0  0
   37.3720   29.9230   41.8110 C   0  0  0  0  0  3  0  0  0  0  0  0
   38.0740   29.4820   42.8530 C   0  0  0  0  0  3  0  0  0  0  0  0
   37.7140   28.3300   43.7330 C   0  0  0  0  0  0  0  0  0  0  0  0
   36.6480   28.2630   43.9480 H   0  0  0  0  0  0  0  0  0  0  0  0
   38.2430   28.4110   44.7100 H   0  0  0  0  0  0  0  0  0  0  0  0
   39.4220   26.5130   43.0660 C   0  0  0  0  0  3  0  0  0  0  0  0
   38.1400   27.0390   43.0830 C   0  0  0  0  0  0  0  0  0  0  0  0
   37.1280   26.3190   42.4410 C   0  0  0  0  0  0  0  0  0  0  0  0
   36.1080   26.6910   42.4280 H   0  0  0  0  0  0  0  0  0  0  0  0
   37.3580   25.1160   41.7980 C   0  0  0  0  0  0  0  0  0  0  0  0
   36.5590   24.2750   41.1330 N   0  0  0  0  0  0  0  0  0  0  0  0
   35.5310   24.4190   40.9870 H   0  0  0  0  0  0  0  0  0  0  0  0
   37.2940   23.2580   40.7110 N   0  0  0  0  0  0  0  0  0  0  0  0
   38.5760   23.4250   41.0940 C   0  0  0  0  0  0  0  0  0  0  0  0
   39.4080   22.7680   40.9020 H   0  0  0  0  0  0  0  0  0  0  0  0
   38.6420   24.6090   41.7930 C   0  0  0  0  0  0  0  0  0  0  0  0
   39.6450   25.3230   42.4290 C   0  0  0  0  0  3  0  0  0  0  0  0
  1  6  1  0  0  0  0
  2  1  2  0  0  0  0
  3  2  1  0  0  0  0
  3  4  2  0  0  0  0
  4  9  1  0  0  0  0
  4  5  1  0  0  0  0
  5 23  1  0  0  0  0
  6  5  2  0  0  0  0
  7  2  1  0  0  0  0
  8  3  1  0  0  0  0
 10 15  1  0  0  0  0
 10 19  1  0  0  0  0
 11 10  2  0  0  0  0
 12 13  2  0  0  0  0
 12 11  1  0  0  0  0
 13 14  1  0  0  0  0
 14 18  1  0  0  0  0
 14 15  2  0  0  0  0
 16  1  1  0  0  0  0
 16 18  1  0  0  0  0
 17 16  2  0  0  0  0
 18 22  1  0  0  0  0
 20 11  1  0  0  0  0
 21 12  1  0  0  0  0
 23 24  2  0  0  0  0
 24 25  1  0  0  0  0
 25 26  1  0  0  0  0
 25 27  1  0  0  0  0
 28 29  1  0  0  0  0
 29 25  1  0  0  0  0
 30 29  2  0  0  0  0
 31 30  1  0  0  0  0
 32 30  1  0  0  0  0
 33 32  1  0  0  0  0
 34 33  1  0  0  0  0
 35 36  2  0  0  0  0
 35 33  1  0  0  0  0
 36 38  1  0  0  0  0
 37 36  1  0  0  0  0
 38 32  2  0  0  0  0
 38 39  1  0  0  0  0
 39 28  2  0  0  0  0
M  END
>  <minimizedAffinity>
-6.96399164

$$$$

 OpenBabel03242510583D

 39 42  0  0  0  0  0  0  0  0999 V2000
   40.3160   32.9810   38.8840 C   0  0  0  0  0  0  0  0  0  0  0  0
   40.0950   34.1700   39.6100 C   0  0  0  0  0  0  0  0  0  0  0  0
   38.9070   34.4640   40.2430 C   0  0  0  0  0  0  0  0  0  0  0  0
   37.8950   33.5390   40.1500 C   0  0  0  0  0  0  0  0  0  0  0  0
   38.1050   32.3680   39.4390 C   0  0  0  0  0  0  0  0  0  0  0  0
   39.2840   32.1370   38.8440 N   0  0  0  0  0  0  0  0  0  0  0  0
   40.9110   34.8860   39.6680 H   0  0  0  0  0  0  0  0  0  0  0  0
   38.8120   35.3980   40.7810 H   0  0  0  0  0  0  0  0  0  0  0  0
   36.9460   33.7330   40.6340 H   0  0  0  0  0  0  0  0  0  0  0  0
   44.3330   30.2630   35.2930 C   0  0  0  0  0  0  0  0  0  0  0  0
   45.4660   30.9990   35.6920 C   0  0  0  0  0  0  0  0  0  0  0  0
   45.3130   31.9430   36.7190 C   0  0  0  0  0  0  0  0  0  0  0  0
   44.0780   32.1040   37.2850 N   0  0  0  0  0  0  0  0  0  0  0  0
   43.0170   31.3730   36.8680 C   0  0  0  0  0  0  0  0  0  0  0  0
   43.1380   30.4450   35.8680 N   0  0  0  0  0  0  0  0  0  0  0  0
   41.6010   32.7580   38.2520 C   0  0  0  0  0  0  0  0  0  0  0  0
   42.5090   33.6250   38.4230 O   0  0  0  0  0  0  0  0  0  0  0  0
   41.7450   31.5620   37.4750 N   0  0  0  0  0  0  0  0  0  0  0  0
   44.5020   29.5490   34.4980 H   0  0  0  0  0  0  0  0  0  0  0  0
   46.4420   30.8850   35.2590 H   0  0  0  0  0  0  0  0  0  0  0  0
   46.1550   32.5220   37.0480 H   0  0  0  0  0  0  0  0  0  0  0  0
   40.9950   30.8760   37.3520 H   0  0  0  0  0  0  0  0  0  0  0  0
   37.0280   31.4050   39.3520 C   0  0  0  0  0  3  0  0  0  0  0  0
   36.7300   30.6430   40.4020 C   0  0  0  0  0  3  0  0  0  0  0  0
   35.6520   29.6100   40.4620 C   0  0  0  0  0  0  0  0  0  0  0  0
   35.2190   29.3760   39.4900 H   0  0  0  0  0  0  0  0  0  0  0  0
   34.8220   29.9570   41.1190 H   0  0  0  0  0  0  0  0  0  0  0  0
   36.4780   28.0960   42.3840 C   0  0  0  0  0  3  0  0  0  0  0  0
   36.2000   28.3330   41.0460 C   0  0  0  0  0  0  0  0  0  0  0  0
   36.4450   27.3040   40.1340 C   0  0  0  0  0  0  0  0  0  0  0  0
   36.2430   27.4420   39.0760 H   0  0  0  0  0  0  0  0  0  0  0  0
   36.9480   26.0720   40.5130 C   0  0  0  0  0  0  0  0  0  0  0  0
   37.2530   24.9650   39.8270 N   0  0  0  0  0  0  0  0  0  0  0  0
   37.1440   24.8580   38.7890 H   0  0  0  0  0  0  0  0  0  0  0  0
   37.7040   24.0620   40.6830 N   0  0  0  0  0  0  0  0  0  0  0  0
   37.6990   24.5680   41.9330 C   0  0  0  0  0  0  0  0  0  0  0  0
   38.0070   24.0760   42.8410 H   0  0  0  0  0  0  0  0  0  0  0  0
   37.2180   25.8550   41.8490 C   0  0  0  0  0  0  0  0  0  0  0  0
   36.9750   26.8770   42.7540 C   0  0  0  0  0  3  0  0  0  0  0  0
  1  2  1  0  0  0  0
  2  7  1  0  0  0  0
  2  3  2  0  0  0  0
  3  8  1  0  0  0  0
  4  3  1  0  0  0  0
  4  9  1  0  0  0  0
  5  4  2  0  0  0  0
  6  1  2  0  0  0  0
  6  5  1  0  0  0  0
 10 11  2  0  0  0  0
 10 15  1  0  0  0  0
 11 12  1  0  0  0  0
 12 21  1  0  0  0  0
 12 13  2  0  0  0  0
 14 13  1  0  0  0  0
 14 18  1  0  0  0  0
 15 14  2  0  0  0  0
 16 17  2  0  0  0  0
 16  1  1  0  0  0  0
 18 16  1  0  0  0  0
 19 10  1  0  0  0  0
 20 11  1  0  0  0  0
 22 18  1  0  0  0  0
 23  5  1  0  0  0  0
 23 24  2  0  0  0  0
 24 25  1  0  0  0  0
 25 29  1  0  0  0  0
 25 27  1  0  0  0  0
 26 25  1  0  0  0  0
 28 39  1  0  0  0  0
 29 28  2  0  0  0  0
 30 32  2  0  0  0  0
 30 29  1  0  0  0  0
 31 30  1  0  0  0  0
 32 38  1  0  0  0  0
 33 32  1  0  0  0  0
 33 35  1  0  0  0  0
 34 33  1  0  0  0  0
 35 36  2  0  0  0  0
 36 37  1  0  0  0  0
 38 36  1  0  0  0  0
 38 39  2  0  0  0  0
M  END
>  <minimizedAffinity>
-6.74558496

$$$$

 OpenBabel03242510583D

 39 42  0  0  0  0  0  0  0  0999 V2000
   34.0930   27.8360   37.3730 C   0  0  0  0  0  0  0  0  0  0  0  0
   34.0720   26.5370   36.8240 C   0  0  0  0  0  0  0  0  0  0  0  0
   34.9060   25.5220   37.2400 C   0  0  0  0  0  0  0  0  0  0  0  0
   35.7990   25.8110   38.2430 C   0  0  0  0  0  0  0  0  0  0  0  0
   35.8260   27.0850   38.7880 C   0  0  0  0  0  0  0  0  0  0  0  0
   34.9880   28.0310   38.3410 N   0  0  0  0  0  0  0  0  0  0  0  0
   33.3560   26.3340   36.0310 H   0  0  0  0  0  0  0  0  0  0  0  0
   34.8300   24.5510   36.7710 H   0  0  0  0  0  0  0  0  0  0  0  0
   36.4720   25.0400   38.5990 H   0  0  0  0  0  0  0  0  0  0  0  0
   29.4790   31.7220   37.5570 C   0  0  0  0  0  0  0  0  0  0  0  0
   29.4840   32.0790   36.1950 C   0  0  0  0  0  0  0  0  0  0  0  0
   30.3930   31.4320   35.3440 C   0  0  0  0  0  0  0  0  0  0  0  0
   31.2290   30.4870   35.8730 N   0  0  0  0  0  0  0  0  0  0  0  0
   31.1880   30.1760   37.1900 C   0  0  0  0  0  0  0  0  0  0  0  0
   30.3110   30.7920   38.0430 N   0  0  0  0  0  0  0  0  0  0  0  0
   33.1750   28.8390   36.8700 C   0  0  0  0  0  0  0  0  0  0  0  0
   33.4040   29.3390   35.7280 O   0  0  0  0  0  0  0  0  0  0  0  0
   32.0700   29.1890   37.7120 N   0  0  0  0  0  0  0  0  0  0  0  0
   28.7610   32.2490   38.1710 H   0  0  0  0  0  0  0  0  0  0  0  0
   28.8340   32.8180   35.7630 H   0  0  0  0  0  0  0  0  0  0  0  0
   30.4240   31.6790   34.3000 H   0  0  0  0  0  0  0  0  0  0  0  0
   31.9070   28.7710   38.6320 H   0  0  0  0  0  0  0  0  0  0  0  0
   36.7740   27.3700   39.8440 C   0  0  0  0  0  3  0  0  0  0  0  0
   36.4590   28.2340   40.8060 C   0  0  0  0  0  3  0  0  0  0  0  0
   37.3290   28.6280   41.9560 C   0  0  0  0  0  0  0  0  0  0  0  0
   38.1240   27.9120   42.1640 H   0  0  0  0  0  0  0  0  0  0  0  0
   36.7210   28.7250   42.8840 H   0  0  0  0  0  0  0  0  0  0  0  0
   39.2440   30.3560   42.0490 C   0  0  0  0  0  3  0  0  0  0  0  0
   37.9660   29.9640   41.6790 C   0  0  0  0  0  0  0  0  0  0  0  0
   37.1750   30.8830   40.9820 C   0  0  0  0  0  0  0  0  0  0  0  0
   36.1680   30.6220   40.6720 H   0  0  0  0  0  0  0  0  0  0  0  0
   37.6170   32.1510   40.6520 C   0  0  0  0  0  0  0  0  0  0  0  0
   37.0450   33.1720   40.0050 N   0  0  0  0  0  0  0  0  0  0  0  0
   36.0730   33.1580   39.6090 H   0  0  0  0  0  0  0  0  0  0  0  0
   37.9130   34.1690   39.9610 N   0  0  0  0  0  0  0  0  0  0  0  0
   39.0580   33.8120   40.5770 C   0  0  0  0  0  0  0  0  0  0  0  0
   39.9480   34.4060   40.7050 H   0  0  0  0  0  0  0  0  0  0  0  0
   38.8920   32.5220   41.0290 C   0  0  0  0  0  0  0  0  0  0  0  0
   39.6760   31.6120   41.7200 C   0  0  0  0  0  3  0  0  0  0  0  0
  1  6  1  0  0  0  0
  2  3  1  0  0  0  0
  2  1  2  0  0  0  0
  3  4  2  0  0  0  0
  4  9  1  0  0  0  0
  4  5  1  0  0  0  0
  5 23  1  0  0  0  0
  6  5  2  0  0  0  0
  7  2  1  0  0  0  0
  8  3  1  0  0  0  0
 10 15  1  0  0  0  0
 10 19  1  0  0  0  0
 11 10  2  0  0  0  0
 12 13  2  0  0  0  0
 12 11  1  0  0  0  0
 13 14  1  0  0  0  0
 14 18  1  0  0  0  0
 14 15  2  0  0  0  0
 16  1  1  0  0  0  0
 16 18  1  0  0  0  0
 17 16  2  0  0  0  0
 18 22  1  0  0  0  0
 20 11  1  0  0  0  0
 21 12  1  0  0  0  0
 23 24  2  0  0  0  0
 24 25  1  0  0  0  0
 25 26  1  0  0  0  0
 25 27  1  0  0  0  0
 29 25  1  0  0  0  0
 29 28  2  0  0  0  0
 30 29  1  0  0  0  0
 31 30  1  0  0  0  0
 32 30  2  0  0  0  0
 32 38  1  0  0  0  0
 33 32  1  0  0  0  0
 34 33  1  0  0  0  0
 35 33  1  0  0  0  0
 35 36  2  0  0  0  0
 36 37  1  0  0  0  0
 36 38  1  0  0  0  0
 38 39  2  0  0  0  0
 39 28  1  0  0  0  0
M  END
>  <minimizedAffinity>
-6.47351408

$$$$

 OpenBabel03242510583D

 39 42  0  0  0  0  0  0  0  0999 V2000
   37.2840   26.9630   41.4630 C   0  0  0  0  0  0  0  0  0  0  0  0
   37.3400   26.7650   42.8590 C   0  0  0  0  0  0  0  0  0  0  0  0
   37.5270   27.7870   43.7640 C   0  0  0  0  0  0  0  0  0  0  0  0
   37.6650   29.0580   43.2620 C   0  0  0  0  0  0  0  0  0  0  0  0
   37.6100   29.2610   41.8920 C   0  0  0  0  0  0  0  0  0  0  0  0
   37.4250   28.2250   41.0600 N   0  0  0  0  0  0  0  0  0  0  0  0
   37.2280   25.7490   43.2310 H   0  0  0  0  0  0  0  0  0  0  0  0
   37.5590   27.5570   44.8200 H   0  0  0  0  0  0  0  0  0  0  0  0
   37.8130   29.8890   43.9410 H   0  0  0  0  0  0  0  0  0  0  0  0
   37.7000   21.2240   39.6420 C   0  0  0  0  0  0  0  0  0  0  0  0
   37.1380   21.3950   38.3630 C   0  0  0  0  0  0  0  0  0  0  0  0
   36.7890   22.6930   37.9610 C   0  0  0  0  0  0  0  0  0  0  0  0
   37.0090   23.7290   38.8260 N   0  0  0  0  0  0  0  0  0  0  0  0
   37.5530   23.5170   40.0480 C   0  0  0  0  0  0  0  0  0  0  0  0
   37.9030   22.2600   40.4650 N   0  0  0  0  0  0  0  0  0  0  0  0
   37.0820   25.8250   40.5880 C   0  0  0  0  0  0  0  0  0  0  0  0
   36.3190   25.9690   39.5870 O   0  0  0  0  0  0  0  0  0  0  0  0
   37.7710   24.6140   40.9270 N   0  0  0  0  0  0  0  0  0  0  0  0
   37.9520   20.2050   39.9050 H   0  0  0  0  0  0  0  0  0  0  0  0
   36.9580   20.5920   37.6710 H   0  0  0  0  0  0  0  0  0  0  0  0
   36.3580   22.8600   36.9930 H   0  0  0  0  0  0  0  0  0  0  0  0
   38.3840   24.5230   41.7420 H   0  0  0  0  0  0  0  0  0  0  0  0
   37.7570   30.6070   41.3810 C   0  0  0  0  0  3  0  0  0  0  0  0
   37.0010   31.0210   40.3670 C   0  0  0  0  0  3  0  0  0  0  0  0
   37.0380   32.3750   39.7360 C   0  0  0  0  0  0  0  0  0  0  0  0
   36.6560   33.1660   40.3800 H   0  0  0  0  0  0  0  0  0  0  0  0
   36.4260   32.3830   38.8050 H   0  0  0  0  0  0  0  0  0  0  0  0
   39.2380   33.7120   39.9390 C   0  0  0  0  0  3  0  0  0  0  0  0
   38.4550   32.7240   39.3600 C   0  0  0  0  0  0  0  0  0  0  0  0
   39.0140   31.9670   38.3260 C   0  0  0  0  0  0  0  0  0  0  0  0
   38.4400   31.1830   37.8420 H   0  0  0  0  0  0  0  0  0  0  0  0
   40.3030   32.1660   37.8660 C   0  0  0  0  0  0  0  0  0  0  0  0
   41.0280   31.5740   36.9110 N   0  0  0  0  0  0  0  0  0  0  0  0
   40.6880   30.7880   36.3060 H   0  0  0  0  0  0  0  0  0  0  0  0
   42.2170   32.1530   36.8790 N   0  0  0  0  0  0  0  0  0  0  0  0
   42.2820   33.1270   37.8100 C   0  0  0  0  0  0  0  0  0  0  0  0
   43.1160   33.7740   38.0260 H   0  0  0  0  0  0  0  0  0  0  0  0
   41.0660   33.1540   38.4560 C   0  0  0  0  0  0  0  0  0  0  0  0
   40.5120   33.9040   39.4810 C   0  0  0  0  0  3  0  0  0  0  0  0
  1  2  1  0  0  0  0
  2  7  1  0  0  0  0
  2  3  2  0  0  0  0
  3  8  1  0  0  0  0
  4  3  1  0  0  0  0
  4  9  1  0  0  0  0
  5  4  2  0  0  0  0
  6  1  2  0  0  0  0
  6  5  1  0  0  0  0
 10 19  1  0  0  0  0
 10 15  1  0  0  0  0
 11 10  2  0  0  0  0
 12 11  1  0  0  0  0
 12 13  2  0  0  0  0
 13 14  1  0  0  0  0
 14 15  2  0  0  0  0
 14 18  1  0  0  0  0
 16 18  1  0  0  0  0
 16  1  1  0  0  0  0
 17 16  2  0  0  0  0
 18 22  1  0  0  0  0
 20 11  1  0  0  0  0
 21 12  1  0  0  0  0
 23  5  1  0  0  0  0
 24 23  2  0  0  0  0
 25 24  1  0  0  0  0
 25 26  1  0  0  0  0
 27 25  1  0  0  0  0
 29 25  1  0  0  0  0
 29 28  2  0  0  0  0
 30 29  1  0  0  0  0
 31 30  1  0  0  0  0
 32 30  2  0  0  0  0
 32 38  1  0  0  0  0
 33 32  1  0  0  0  0
 34 33  1  0  0  0  0
 35 33  1  0  0  0  0
 35 36  2  0  0  0  0
 36 37  1  0  0  0  0
 36 38  1  0  0  0  0
 38 39  2  0  0  0  0
 39 28  1  0  0  0  0
M  END
>  <minimizedAffinity>
-6.28673935

$$$$

 OpenBabel03242510583D

 39 42  0  0  0  0  0  0  0  0999 V2000
   37.6180   29.0370   41.6580 C   0  0  0  0  0  0  0  0  0  0  0  0
   37.3530   28.7700   43.0170 C   0  0  0  0  0  0  0  0  0  0  0  0
   37.0770   27.5110   43.5050 C   0  0  0  0  0  0  0  0  0  0  0  0
   37.0620   26.4740   42.6040 C   0  0  0  0  0  0  0  0  0  0  0  0
   37.3220   26.7280   41.2660 C   0  0  0  0  0  0  0  0  0  0  0  0
   37.5850   27.9760   40.8520 N   0  0  0  0  0  0  0  0  0  0  0  0
   37.3690   29.6080   43.7100 H   0  0  0  0  0  0  0  0  0  0  0  0
   36.8830   27.3850   44.5620 H   0  0  0  0  0  0  0  0  0  0  0  0
   36.8500   25.4690   42.9480 H   0  0  0  0  0  0  0  0  0  0  0  0
   41.0270   33.7700   40.1090 C   0  0  0  0  0  0  0  0  0  0  0  0
   39.9930   34.7220   40.0250 C   0  0  0  0  0  0  0  0  0  0  0  0
   38.6930   34.3200   40.3660 C   0  0  0  0  0  0  0  0  0  0  0  0
   38.4890   33.0270   40.7630 N   0  0  0  0  0  0  0  0  0  0  0  0
   39.5140   32.1450   40.8290 C   0  0  0  0  0  0  0  0  0  0  0  0
   40.7930   32.5120   40.5020 N   0  0  0  0  0  0  0  0  0  0  0  0
   37.8990   30.3950   41.2380 C   0  0  0  0  0  0  0  0  0  0  0  0
   36.9240   31.1280   40.8950 O   0  0  0  0  0  0  0  0  0  0  0  0
   39.2720   30.8070   41.2460 N   0  0  0  0  0  0  0  0  0  0  0  0
   42.0100   34.1280   39.8350 H   0  0  0  0  0  0  0  0  0  0  0  0
   40.1360   35.7410   39.7150 H   0  0  0  0  0  0  0  0  0  0  0  0
   37.8810   35.0200   40.3130 H   0  0  0  0  0  0  0  0  0  0  0  0
   40.0430   30.1950   41.5280 H   0  0  0  0  0  0  0  0  0  0  0  0
   37.3040   25.6230   40.3320 C   0  0  0  0  0  3  0  0  0  0  0  0
   36.3730   24.6770   40.4380 C   0  0  0  0  0  3  0  0  0  0  0  0
   36.2270   23.4820   39.5520 C   0  0  0  0  0  0  0  0  0  0  0  0
   36.4440   22.5400   40.0550 H   0  0  0  0  0  0  0  0  0  0  0  0
   36.9200   23.5590   38.6830 H   0  0  0  0  0  0  0  0  0  0  0  0
   34.3690   23.9530   37.8230 C   0  0  0  0  0  3  0  0  0  0  0  0
   34.8210   23.4120   39.0170 C   0  0  0  0  0  0  0  0  0  0  0  0
   33.8990   22.7330   39.8180 C   0  0  0  0  0  0  0  0  0  0  0  0
   34.2050   22.2920   40.7620 H   0  0  0  0  0  0  0  0  0  0  0  0
   32.5700   22.5820   39.4660 C   0  0  0  0  0  0  0  0  0  0  0  0
   31.5340   21.9840   40.0650 N   0  0  0  0  0  0  0  0  0  0  0  0
   31.5830   21.4890   40.9880 H   0  0  0  0  0  0  0  0  0  0  0  0
   30.4700   22.1340   39.2910 N   0  0  0  0  0  0  0  0  0  0  0  0
   30.7990   22.8290   38.1830 C   0  0  0  0  0  0  0  0  0  0  0  0
   30.1520   23.1090   37.3690 H   0  0  0  0  0  0  0  0  0  0  0  0
   32.1400   23.1270   38.2730 C   0  0  0  0  0  0  0  0  0  0  0  0
   33.0540   23.8010   37.4790 C   0  0  0  0  0  3  0  0  0  0  0  0
  1  2  1  0  0  0  0
  2  3  2  0  0  0  0
  2  7  1  0  0  0  0
  3  8  1  0  0  0  0
  4  9  1  0  0  0  0
  4  3  1  0  0  0  0
  5  4  2  0  0  0  0
  6  5  1  0  0  0  0
  6  1  2  0  0  0  0
 10 15  1  0  0  0  0
 11 10  2  0  0  0  0
 11 12  1  0  0  0  0
 12 13  2  0  0  0  0
 13 14  1  0  0  0  0
 14 18  1  0  0  0  0
 15 14  2  0  0  0  0
 16 18  1  0  0  0  0
 16  1  1  0  0  0  0
 17 16  2  0  0  0  0
 18 22  1  0  0  0  0
 19 10  1  0  0  0  0
 20 11  1  0  0  0  0
 21 12  1  0  0  0  0
 23 24  2  0  0  0  0
 23  5  1  0  0  0  0
 25 26  1  0  0  0  0
 25 24  1  0  0  0  0
 27 25  1  0  0  0  0
 28 29  1  0  0  0  0
 29 25  1  0  0  0  0
 29 30  2  0  0  0  0
 30 31  1  0  0  0  0
 32 30  1  0  0  0  0
 32 33  1  0  0  0  0
 33 34  1  0  0  0  0
 35 33  1  0  0  0  0
 36 38  1  0  0  0  0
 36 35  2  0  0  0  0
 37 36  1  0  0  0  0
 38 32  2  0  0  0  0
 39 28  2  0  0  0  0
 39 38  1  0  0  0  0
M  END
>  <minimizedAffinity>
-6.27808142

$$$$

 OpenBabel03242510583D

 39 42  0  0  0  0  0  0  0  0999 V2000
   37.8640   30.9320   39.9850 C   0  0  0  0  0  0  0  0  0  0  0  0
   37.4690   30.4400   41.2470 C   0  0  0  0  0  0  0  0  0  0  0  0
   36.3890   29.6050   41.4330 C   0  0  0  0  0  0  0  0  0  0  0  0
   35.6710   29.2440   40.3190 C   0  0  0  0  0  0  0  0  0  0  0  0
   36.0530   29.7230   39.0760 C   0  0  0  0  0  0  0  0  0  0  0  0
   37.1140   30.5330   38.9580 N   0  0  0  0  0  0  0  0  0  0  0  0
   38.0540   30.7410   42.1130 H   0  0  0  0  0  0  0  0  0  0  0  0
   36.1480   29.2690   42.4330 H   0  0  0  0  0  0  0  0  0  0  0  0
   34.8150   28.5890   40.4230 H   0  0  0  0  0  0  0  0  0  0  0  0
   42.4520   33.7820   37.2920 C   0  0  0  0  0  0  0  0  0  0  0  0
   43.0270   34.3420   38.4490 C   0  0  0  0  0  0  0  0  0  0  0  0
   42.4580   34.0220   39.6910 C   0  0  0  0  0  0  0  0  0  0  0  0
   41.3770   33.1850   39.7230 N   0  0  0  0  0  0  0  0  0  0  0  0
   40.8570   32.6700   38.5830 C   0  0  0  0  0  0  0  0  0  0  0  0
   41.3930   32.9650   37.3580 N   0  0  0  0  0  0  0  0  0  0  0  0
   39.0160   31.8060   39.8880 C   0  0  0  0  0  0  0  0  0  0  0  0
   39.3170   32.5130   40.8960 O   0  0  0  0  0  0  0  0  0  0  0  0
   39.7320   31.8020   38.6460 N   0  0  0  0  0  0  0  0  0  0  0  0
   42.9250   34.0580   36.3590 H   0  0  0  0  0  0  0  0  0  0  0  0
   43.8760   35.0000   38.4420 H   0  0  0  0  0  0  0  0  0  0  0  0
   42.8700   34.4310   40.5940 H   0  0  0  0  0  0  0  0  0  0  0  0
   39.4690   31.2210   37.8450 H   0  0  0  0  0  0  0  0  0  0  0  0
   35.2840   29.3310   37.9140 C   0  0  0  0  0  3  0  0  0  0  0  0
   34.0350   28.8960   38.0570 C   0  0  0  0  0  3  0  0  0  0  0  0
   33.1230   28.4590   36.9570 C   0  0  0  0  0  0  0  0  0  0  0  0
   32.6020   27.5250   37.1700 H   0  0  0  0  0  0  0  0  0  0  0  0
   33.6990   28.3070   36.0160 H   0  0  0  0  0  0  0  0  0  0  0  0
   31.1920   30.0370   37.6240 C   0  0  0  0  0  3  0  0  0  0  0  0
   32.0870   29.5220   36.6990 C   0  0  0  0  0  0  0  0  0  0  0  0
   32.0410   30.0220   35.3950 C   0  0  0  0  0  0  0  0  0  0  0  0
   32.7220   29.6500   34.6350 H   0  0  0  0  0  0  0  0  0  0  0  0
   31.1470   31.0000   35.0000 C   0  0  0  0  0  0  0  0  0  0  0  0
   30.9290   31.6140   33.8310 N   0  0  0  0  0  0  0  0  0  0  0  0
   31.4630   31.4230   32.9490 H   0  0  0  0  0  0  0  0  0  0  0  0
   29.9440   32.4810   33.9990 N   0  0  0  0  0  0  0  0  0  0  0  0
   29.5080   32.4420   35.2750 C   0  0  0  0  0  0  0  0  0  0  0  0
   28.7190   33.0280   35.7160 H   0  0  0  0  0  0  0  0  0  0  0  0
   30.2640   31.5010   35.9360 C   0  0  0  0  0  0  0  0  0  0  0  0
   30.3090   31.0040   37.2290 C   0  0  0  0  0  3  0  0  0  0  0  0
  1  2  1  0  0  0  0
  2  3  2  0  0  0  0
  2  7  1  0  0  0  0
  3  8  1  0  0  0  0
  4  9  1  0  0  0  0
  4  3  1  0  0  0  0
  5  4  2  0  0  0  0
  6  5  1  0  0  0  0
  6  1  2  0  0  0  0
 10 15  2  0  0  0  0
 10 11  1  0  0  0  0
 11 12  2  0  0  0  0
 12 13  1  0  0  0  0
 12 21  1  0  0  0  0
 14 18  1  0  0  0  0
 14 13  2  0  0  0  0
 15 14  1  0  0  0  0
 16  1  1  0  0  0  0
 16 17  2  0  0  0  0
 18 16  1  0  0  0  0
 19 10  1  0  0  0  0
 20 11  1  0  0  0  0
 22 18  1  0  0  0  0
 23 24  2  0  0  0  0
 23  5  1  0  0  0  0
 25 26  1  0  0  0  0
 25 24  1  0  0  0  0
 27 25  1  0  0  0  0
 29 25  1  0  0  0  0
 29 28  2  0  0  0  0
 30 29  1  0  0  0  0
 31 30  1  0  0  0  0
 32 30  2  0  0  0  0
 32 38  1  0  0  0  0
 33 35  1  0  0  0  0
 33 32  1  0  0  0  0
 34 33  1  0  0  0  0
 35 36  2  0  0  0  0
 36 37  1  0  0  0  0
 36 38  1  0  0  0  0
 38 39  2  0  0  0  0
 39 28  1  0  0  0  0
M  END
>  <minimizedAffinity>
-6.19289017

$$$$

 OpenBabel03242510583D

 39 42  0  0  0  0  0  0  0  0999 V2000
   33.0980   28.7160   37.0800 C   0  0  0  0  0  0  0  0  0  0  0  0
   33.2070   27.4420   36.4840 C   0  0  0  0  0  0  0  0  0  0  0  0
   34.1840   26.5290   36.8170 C   0  0  0  0  0  0  0  0  0  0  0  0
   35.0900   26.8960   37.7820 C   0  0  0  0  0  0  0  0  0  0  0  0
   34.9890   28.1460   38.3730 C   0  0  0  0  0  0  0  0  0  0  0  0
   34.0150   28.9920   38.0070 N   0  0  0  0  0  0  0  0  0  0  0  0
   32.4780   27.1760   35.7220 H   0  0  0  0  0  0  0  0  0  0  0  0
   34.2040   25.5710   36.3150 H   0  0  0  0  0  0  0  0  0  0  0  0
   35.8730   26.2060   38.0720 H   0  0  0  0  0  0  0  0  0  0  0  0
   29.7870   31.9890   33.2390 C   0  0  0  0  0  0  0  0  0  0  0  0
   28.9760   32.6310   34.1950 C   0  0  0  0  0  0  0  0  0  0  0  0
   29.2340   32.3860   35.5530 C   0  0  0  0  0  0  0  0  0  0  0  0
   30.2550   31.5400   35.8850 N   0  0  0  0  0  0  0  0  0  0  0  0
   31.0080   30.9440   34.9310 C   0  0  0  0  0  0  0  0  0  0  0  0
   30.7790   31.1650   33.5990 N   0  0  0  0  0  0  0  0  0  0  0  0
   32.0350   29.6100   36.6650 C   0  0  0  0  0  0  0  0  0  0  0  0
   31.1560   29.9300   37.5190 O   0  0  0  0  0  0  0  0  0  0  0  0
   32.0640   30.0680   35.3070 N   0  0  0  0  0  0  0  0  0  0  0  0
   29.5490   32.2090   32.2070 H   0  0  0  0  0  0  0  0  0  0  0  0
   28.1710   33.2990   33.9510 H   0  0  0  0  0  0  0  0  0  0  0  0
   28.6360   32.8590   36.3080 H   0  0  0  0  0  0  0  0  0  0  0  0
   32.7870   29.7950   34.6350 H   0  0  0  0  0  0  0  0  0  0  0  0
   35.9520   28.5150   39.3880 C   0  0  0  0  0  3  0  0  0  0  0  0
   35.7130   29.5530   40.1870 C   0  0  0  0  0  3  0  0  0  0  0  0
   36.6080   30.0520   41.2740 C   0  0  0  0  0  0  0  0  0  0  0  0
   37.3380   29.3150   41.6080 H   0  0  0  0  0  0  0  0  0  0  0  0
   36.0060   30.3470   42.1640 H   0  0  0  0  0  0  0  0  0  0  0  0
   36.8680   32.2620   39.9660 C   0  0  0  0  0  3  0  0  0  0  0  0
   37.3590   31.2690   40.7990 C   0  0  0  0  0  0  0  0  0  0  0  0
   38.6750   31.3870   41.2550 C   0  0  0  0  0  0  0  0  0  0  0  0
   39.1040   30.6340   41.9100 H   0  0  0  0  0  0  0  0  0  0  0  0
   39.4950   32.4460   40.9090 C   0  0  0  0  0  0  0  0  0  0  0  0
   40.7580   32.7570   41.2200 N   0  0  0  0  0  0  0  0  0  0  0  0
   41.3780   32.1810   41.8390 H   0  0  0  0  0  0  0  0  0  0  0  0
   41.0620   33.8940   40.6160 N   0  0  0  0  0  0  0  0  0  0  0  0
   40.0040   34.3370   39.9050 C   0  0  0  0  0  0  0  0  0  0  0  0
   39.9430   35.2320   39.3090 H   0  0  0  0  0  0  0  0  0  0  0  0
   38.9870   33.4250   40.0780 C   0  0  0  0  0  0  0  0  0  0  0  0
   37.6820   33.3070   39.6260 C   0  0  0  0  0  3  0  0  0  0  0  0
  1  6  1  0  0  0  0
  2  3  1  0  0  0  0
  2  1  2  0  0  0  0
  3  4  2  0  0  0  0
  4  9  1  0  0  0  0
  4  5  1  0  0  0  0
  5 23  1  0  0  0  0
  6  5  2  0  0  0  0
  7  2  1  0  0  0  0
  8  3  1  0  0  0  0
 10 15  2  0  0  0  0
 10 11  1  0  0  0  0
 11 12  2  0  0  0  0
 12 13  1  0  0  0  0
 12 21  1  0  0  0  0
 14 18  1  0  0  0  0
 14 13  2  0  0  0  0
 15 14  1  0  0  0  0
 16  1  1  0  0  0  0
 16 17  2  0  0  0  0
 18 16  1  0  0  0  0
 19 10  1  0  0  0  0
 20 11  1  0  0  0  0
 22 18  1  0  0  0  0
 23 24  2  0  0  0  0
 24 25  1  0  0  0  0
 25 26  1  0  0  0  0
 25 27  1  0  0  0  0
 28 29  1  0  0  0  0
 29 30  2  0  0  0  0
 29 25  1  0  0  0  0
 30 31  1  0  0  0  0
 32 33  1  0  0  0  0
 32 30  1  0  0  0  0
 33 34  1  0  0  0  0
 35 33  1  0  0  0  0
 36 38  1  0  0  0  0
 36 35  2  0  0  0  0
 37 36  1  0  0  0  0
 38 32  2  0  0  0  0
 39 28  2  0  0  0  0
 39 38  1  0  0  0  0
M  END
>  <minimizedAffinity>
-6.11240959

$$$$

 OpenBabel03242510583D

 39 42  0  0  0  0  0  0  0  0999 V2000
   39.7840   32.1940   40.0080 C   0  0  0  0  0  0  0  0  0  0  0  0
   38.5690   32.6800   39.4820 C   0  0  0  0  0  0  0  0  0  0  0  0
   37.3310   32.2420   39.8980 C   0  0  0  0  0  0  0  0  0  0  0  0
   37.2980   31.2790   40.8780 C   0  0  0  0  0  0  0  0  0  0  0  0
   38.4880   30.7970   41.4010 C   0  0  0  0  0  0  0  0  0  0  0  0
   39.6630   31.2630   40.9550 N   0  0  0  0  0  0  0  0  0  0  0  0
   38.6210   33.4420   38.7070 H   0  0  0  0  0  0  0  0  0  0  0  0
   36.4420   32.6620   39.4470 H   0  0  0  0  0  0  0  0  0  0  0  0
   36.3440   30.9080   41.2330 H   0  0  0  0  0  0  0  0  0  0  0  0
   45.0540   32.0980   37.0690 C   0  0  0  0  0  0  0  0  0  0  0  0
   45.5130   33.3670   37.4710 C   0  0  0  0  0  0  0  0  0  0  0  0
   44.7260   34.1000   38.3720 C   0  0  0  0  0  0  0  0  0  0  0  0
   43.5540   33.5530   38.8170 N   0  0  0  0  0  0  0  0  0  0  0  0
   43.1530   32.3280   38.4030 C   0  0  0  0  0  0  0  0  0  0  0  0
   43.9020   31.5900   37.5250 N   0  0  0  0  0  0  0  0  0  0  0  0
   41.0390   32.7170   39.5080 C   0  0  0  0  0  0  0  0  0  0  0  0
   41.2710   33.9540   39.6520 O   0  0  0  0  0  0  0  0  0  0  0  0
   41.9290   31.7830   38.8830 N   0  0  0  0  0  0  0  0  0  0  0  0
   45.6950   31.5720   36.3740 H   0  0  0  0  0  0  0  0  0  0  0  0
   46.4300   33.8120   37.1310 H   0  0  0  0  0  0  0  0  0  0  0  0
   45.0450   35.0710   38.6990 H   0  0  0  0  0  0  0  0  0  0  0  0
   41.7190   30.7870   38.7780 H   0  0  0  0  0  0  0  0  0  0  0  0
   38.4340   29.7830   42.4320 C   0  0  0  0  0  3  0  0  0  0  0  0
   37.5650   28.7790   42.3360 C   0  0  0  0  0  3  0  0  0  0  0  0
   37.3930   27.6650   43.3160 C   0  0  0  0  0  0  0  0  0  0  0  0
   36.3690   27.5510   43.6690 H   0  0  0  0  0  0  0  0  0  0  0  0
   38.0330   27.8380   44.2120 H   0  0  0  0  0  0  0  0  0  0  0  0
   39.0430   25.7340   42.8550 C   0  0  0  0  0  3  0  0  0  0  0  0
   37.8190   26.3630   42.6890 C   0  0  0  0  0  0  0  0  0  0  0  0
   36.8730   25.7480   41.8640 C   0  0  0  0  0  0  0  0  0  0  0  0
   35.9000   26.2030   41.7030 H   0  0  0  0  0  0  0  0  0  0  0  0
   37.1110   24.5500   41.2170 C   0  0  0  0  0  0  0  0  0  0  0  0
   36.3690   23.7960   40.3980 N   0  0  0  0  0  0  0  0  0  0  0  0
   35.3920   24.0290   40.0950 H   0  0  0  0  0  0  0  0  0  0  0  0
   37.0820   22.7350   40.0560 N   0  0  0  0  0  0  0  0  0  0  0  0
   38.2940   22.7840   40.6460 C   0  0  0  0  0  0  0  0  0  0  0  0
   39.0940   22.0670   40.5620 H   0  0  0  0  0  0  0  0  0  0  0  0
   38.3360   23.9390   41.3950 C   0  0  0  0  0  0  0  0  0  0  0  0
   39.2740   24.5490   42.2130 C   0  0  0  0  0  3  0  0  0  0  0  0
  1  6  1  0  0  0  0
  2  3  1  0  0  0  0
  2  1  2  0  0  0  0
  3  4  2  0  0  0  0
  4  9  1  0  0  0  0
  4  5  1  0  0  0  0
  5 23  1  0  0  0  0
  6  5  2  0  0  0  0
  7  2  1  0  0  0  0
  8  3  1  0  0  0  0
 10 11  2  0  0  0  0
 10 15  1  0  0  0  0
 11 12  1  0  0  0  0
 12 21  1  0  0  0  0
 12 13  2  0  0  0  0
 14 13  1  0  0  0  0
 14 18  1  0  0  0  0
 15 14  2  0  0  0  0
 16 17  2  0  0  0  0
 16  1  1  0  0  0  0
 18 16  1  0  0  0  0
 19 10  1  0  0  0  0
 20 11  1  0  0  0  0
 22 18  1  0  0  0  0
 24 23  2  0  0  0  0
 24 25  1  0  0  0  0
 25 26  1  0  0  0  0
 25 27  1  0  0  0  0
 29 28  1  0  0  0  0
 29 25  1  0  0  0  0
 30 29  2  0  0  0  0
 31 30  1  0  0  0  0
 32 38  2  0  0  0  0
 32 30  1  0  0  0  0
 33 32  1  0  0  0  0
 34 33  1  0  0  0  0
 35 33  1  0  0  0  0
 35 36  2  0  0  0  0
 36 38  1  0  0  0  0
 37 36  1  0  0  0  0
 38 39  1  0  0  0  0
 39 28  2  0  0  0  0
M  END
>  <minimizedAffinity>
-6.06219244

$$$$

 OpenBabel03242510583D

 39 42  0  0  0  0  0  0  0  0999 V2000
   34.7720   28.0280   37.8490 C   0  0  0  0  0  0  0  0  0  0  0  0
   35.2320   26.7620   37.4290 C   0  0  0  0  0  0  0  0  0  0  0  0
   36.0660   25.9670   38.1840 C   0  0  0  0  0  0  0  0  0  0  0  0
   36.4620   26.4500   39.4080 C   0  0  0  0  0  0  0  0  0  0  0  0
   36.0140   27.6920   39.8290 C   0  0  0  0  0  0  0  0  0  0  0  0
   35.2020   28.4200   39.0490 N   0  0  0  0  0  0  0  0  0  0  0  0
   34.9050   26.4030   36.4560 H   0  0  0  0  0  0  0  0  0  0  0  0
   36.3770   25.0070   37.7940 H   0  0  0  0  0  0  0  0  0  0  0  0
   37.1170   25.8550   40.0320 H   0  0  0  0  0  0  0  0  0  0  0  0
   29.8690   31.2030   36.3360 C   0  0  0  0  0  0  0  0  0  0  0  0
   30.1430   31.3220   34.9600 C   0  0  0  0  0  0  0  0  0  0  0  0
   31.2800   30.6730   34.4530 C   0  0  0  0  0  0  0  0  0  0  0  0
   32.0660   29.9590   35.3140 N   0  0  0  0  0  0  0  0  0  0  0  0
   31.7630   29.8730   36.6310 C   0  0  0  0  0  0  0  0  0  0  0  0
   30.6600   30.4960   37.1510 N   0  0  0  0  0  0  0  0  0  0  0  0
   33.8950   28.7920   36.9860 C   0  0  0  0  0  0  0  0  0  0  0  0
   34.3220   29.1180   35.8380 O   0  0  0  0  0  0  0  0  0  0  0  0
   32.5990   29.1220   37.5030 N   0  0  0  0  0  0  0  0  0  0  0  0
   28.9830   31.7220   36.6780 H   0  0  0  0  0  0  0  0  0  0  0  0
   29.5360   31.8790   34.2700 H   0  0  0  0  0  0  0  0  0  0  0  0
   31.5190   30.7420   33.4090 H   0  0  0  0  0  0  0  0  0  0  0  0
   32.2770   28.8470   38.4350 H   0  0  0  0  0  0  0  0  0  0  0  0
   36.4400   28.1840   41.1210 C   0  0  0  0  0  3  0  0  0  0  0  0
   36.9290   27.3400   42.0270 C   0  0  0  0  0  3  0  0  0  0  0  0
   37.4060   27.6980   43.3970 C   0  0  0  0  0  0  0  0  0  0  0  0
   36.9870   27.0680   44.1820 H   0  0  0  0  0  0  0  0  0  0  0  0
   37.1320   28.7510   43.6380 H   0  0  0  0  0  0  0  0  0  0  0  0
   39.6280   26.5500   44.0370 C   0  0  0  0  0  3  0  0  0  0  0  0
   38.9070   27.5840   43.4600 C   0  0  0  0  0  0  0  0  0  0  0  0
   39.6210   28.6340   42.8760 C   0  0  0  0  0  0  0  0  0  0  0  0
   39.1010   29.4670   42.4120 H   0  0  0  0  0  0  0  0  0  0  0  0
   41.0030   28.6770   42.8530 C   0  0  0  0  0  0  0  0  0  0  0  0
   41.8770   29.5620   42.3610 N   0  0  0  0  0  0  0  0  0  0  0  0
   41.6120   30.4490   41.8660 H   0  0  0  0  0  0  0  0  0  0  0  0
   43.0980   29.1170   42.6090 N   0  0  0  0  0  0  0  0  0  0  0  0
   43.0350   27.9400   43.2650 C   0  0  0  0  0  0  0  0  0  0  0  0
   43.8590   27.3330   43.6030 H   0  0  0  0  0  0  0  0  0  0  0  0
   41.7030   27.6380   43.4320 C   0  0  0  0  0  0  0  0  0  0  0  0
   40.9950   26.5970   44.0120 C   0  0  0  0  0  3  0  0  0  0  0  0
  1  6  1  0  0  0  0
  2  1  2  0  0  0  0
  2  3  1  0  0  0  0
  3  4  2  0  0  0  0
  4  5  1  0  0  0  0
  4  9  1  0  0  0  0
  5 23  1  0  0  0  0
  6  5  2  0  0  0  0
  7  2  1  0  0  0  0
  8  3  1  0  0  0  0
 10 19  1  0  0  0  0
 10 15  1  0  0  0  0
 11 10  2  0  0  0  0
 12 11  1  0  0  0  0
 12 13  2  0  0  0  0
 13 14  1  0  0  0  0
 14 15  2  0  0  0  0
 14 18  1  0  0  0  0
 16 18  1  0  0  0  0
 16  1  1  0  0  0  0
 17 16  2  0  0  0  0
 18 22  1  0  0  0  0
 20 11  1  0  0  0  0
 21 12  1  0  0  0  0
 23 24  2  0  0  0  0
 24 25  1  0  0  0  0
 25 29  1  0  0  0  0
 25 27  1  0  0  0  0
 25 26  1  0  0  0  0
 29 28  2  0  0  0  0
 30 29  1  0  0  0  0
 31 30  1  0  0  0  0
 32 30  2  0  0  0  0
 32 38  1  0  0  0  0
 33 35  1  0  0  0  0
 33 32  1  0  0  0  0
 34 33  1  0  0  0  0
 35 36  2  0  0  0  0
 36 38  1  0  0  0  0
 36 37  1  0  0  0  0
 38 39  2  0  0  0  0
 39 28  1  0  0  0  0
M  END
>  <minimizedAffinity>
-5.99172974

$$$$
