
 OpenBabel03242510563D

 39 42  0  0  0  0  0  0  0  0999 V2000
   45.6390   31.5940   47.1190 C   0  0  0  0  0  0  0  0  0  0  0  0
   45.5540   32.0530   48.4500 C   0  0  0  0  0  0  0  0  0  0  0  0
   45.3300   31.2240   49.5280 C   0  0  0  0  0  0  0  0  0  0  0  0
   45.1860   29.8820   49.2720 C   0  0  0  0  0  0  0  0  0  0  0  0
   45.2700   29.4220   47.9680 C   0  0  0  0  0  0  0  0  0  0  0  0
   45.4890   30.2790   46.9600 N   0  0  0  0  0  0  0  0  0  0  0  0
   45.6710   33.1200   48.6260 H   0  0  0  0  0  0  0  0  0  0  0  0
   45.2770   31.6510   50.5200 H   0  0  0  0  0  0  0  0  0  0  0  0
   45.0100   29.1970   50.0930 H   0  0  0  0  0  0  0  0  0  0  0  0
   44.7770   36.5870   43.8410 C   0  0  0  0  0  0  0  0  0  0  0  0
   45.6870   36.2900   42.8080 C   0  0  0  0  0  0  0  0  0  0  0  0
   46.3450   35.0510   42.8430 C   0  0  0  0  0  0  0  0  0  0  0  0
   46.0750   34.1920   43.8730 N   0  0  0  0  0  0  0  0  0  0  0  0
   45.1910   34.5210   44.8440 C   0  0  0  0  0  0  0  0  0  0  0  0
   44.5350   35.7230   44.8350 N   0  0  0  0  0  0  0  0  0  0  0  0
   45.8770   32.5430   46.0500 C   0  0  0  0  0  0  0  0  0  0  0  0
   46.8980   32.3740   45.3180 O   0  0  0  0  0  0  0  0  0  0  0  0
   44.9290   33.6080   45.9030 N   0  0  0  0  0  0  0  0  0  0  0  0
   44.2960   37.5530   43.7700 H   0  0  0  0  0  0  0  0  0  0  0  0
   45.9110   36.9520   41.9930 H   0  0  0  0  0  0  0  0  0  0  0  0
   47.0450   34.7910   42.0720 H   0  0  0  0  0  0  0  0  0  0  0  0
   44.1120   33.7230   46.5080 H   0  0  0  0  0  0  0  0  0  0  0  0
   45.1160   28.0050   47.7180 C   0  0  0  0  0  0  0  0  0  0  0  0
   44.5250   27.2290   48.6240 C   0  0  0  0  0  0  0  0  0  0  0  0
   44.2960   25.7580   48.5080 C   0  0  0  0  0  0  0  0  0  0  0  0
   44.0890   25.4280   47.4900 H   0  0  0  0  0  0  0  0  0  0  0  0
   43.4280   25.4520   49.1360 H   0  0  0  0  0  0  0  0  0  0  0  0
   46.6320   24.6880   48.2560 C   0  0  0  0  0  0  0  0  0  0  0  0
   45.5090   25.0120   49.0010 C   0  0  0  0  0  0  0  0  0  0  0  0
   45.4760   24.6170   50.3420 C   0  0  0  0  0  0  0  0  0  0  0  0
   44.6180   24.8470   50.9660 H   0  0  0  0  0  0  0  0  0  0  0  0
   46.5120   23.9240   50.9430 C   0  0  0  0  0  0  0  0  0  0  0  0
   46.6920   23.4560   52.1830 N   0  0  0  0  0  0  0  0  0  0  0  0
   46.0000   23.5570   52.9650 H   0  0  0  0  0  0  0  0  0  0  0  0
   47.8740   22.8620   52.2300 N   0  0  0  0  0  0  0  0  0  0  0  0
   48.4750   22.9350   51.0250 C   0  0  0  0  0  0  0  0  0  0  0  0
   49.4420   22.5450   50.7500 H   0  0  0  0  0  0  0  0  0  0  0  0
   47.6220   23.6120   50.1840 C   0  0  0  0  0  0  0  0  0  0  0  0
   47.6530   24.0030   48.8550 C   0  0  0  0  0  0  0  0  0  0  0  0
  1  2  1  0  0  0  0
  2  7  1  0  0  0  0
  2  3  2  0  0  0  0
  3  8  1  0  0  0  0
  4  3  1  0  0  0  0
  4  9  1  0  0  0  0
  5  4  2  0  0  0  0
  6  1  2  0  0  0  0
  6  5  1  0  0  0  0
 10 15  1  0  0  0  0
 11 12  1  0  0  0  0
 11 10  2  0  0  0  0
 12 13  2  0  0  0  0
 13 14  1  0  0  0  0
 14 18  1  0  0  0  0
 15 14  2  0  0  0  0
 16  1  1  0  0  0  0
 17 16  2  0  0  0  0
 18 16  1  0  0  0  0
 18 22  1  0  0  0  0
 19 10  1  0  0  0  0
 20 11  1  0  0  0  0
 21 12  1  0  0  0  0
 23  5  1  0  0  0  0
 23 24  2  0  0  0  0
 25 24  1  0  0  0  0
 25 29  1  0  0  0  0
 25 27  1  0  0  0  0
 26 25  1  0  0  0  0
 28 39  2  0  0  0  0
 28 29  1  0  0  0  0
 29 30  2  0  0  0  0
 30 32  1  0  0  0  0
 30 31  1  0  0  0  0
 32 33  1  0  0  0  0
 33 35  1  0  0  0  0
 33 34  1  0  0  0  0
 36 35  2  0  0  0  0
 37 36  1  0  0  0  0
 38 32  2  0  0  0  0
 38 36  1  0  0  0  0
 39 38  1  0  0  0  0
M  END
>  <minimizedAffinity>
-6.53621006

>  <minimizedRMSD>
3.18249726

$$$$
