
 OpenBabel03242518003D

 40 43  0  0  0  0  0  0  0  0999 V2000
   46.0820   31.7890   45.2740 C   0  0  0  0  0  0  0  0  0  0  0  0
   45.1100   32.1040   45.6530 H   0  0  0  0  0  0  0  0  0  0  0  0
   45.8650   30.8520   44.6800 H   0  0  0  0  0  0  0  0  0  0  0  0
   47.1810   32.2350   47.4560 C   0  0  0  0  0  0  0  0  0  0  0  0
   46.9990   31.4070   46.3370 C   0  0  0  0  0  0  0  0  0  0  0  0
   47.7420   30.2150   46.3090 C   0  0  0  0  0  0  0  0  0  0  0  0
   48.5680   29.9440   47.3370 N   0  0  0  0  0  0  0  0  0  0  0  0
   48.7240   30.7530   48.3950 C   0  0  0  0  0  0  0  0  0  0  0  0
   48.0330   31.8870   48.4460 N   0  0  0  0  0  0  0  0  0  0  0  0
   46.6570   33.1740   47.5750 H   0  0  0  0  0  0  0  0  0  0  0  0
   47.6340   29.5460   45.4670 H   0  0  0  0  0  0  0  0  0  0  0  0
   50.1020   31.4840   50.2880 C   0  0  0  0  0  3  0  0  0  0  0  0
   49.6230   30.4510   49.5060 C   0  0  0  0  0  0  0  0  0  0  0  0
   50.0220   29.1660   49.8160 C   0  0  0  0  0  0  0  0  0  0  0  0
   49.6670   28.3320   49.2250 H   0  0  0  0  0  0  0  0  0  0  0  0
   50.8750   28.9310   50.8790 C   0  0  0  0  0  0  0  0  0  0  0  0
   51.4040   27.7990   51.3810 N   0  0  0  0  0  0  0  0  0  0  0  0
   51.2400   26.8180   51.0130 H   0  0  0  0  0  0  0  0  0  0  0  0
   52.1750   28.0790   52.4200 N   0  0  0  0  0  0  0  0  0  0  0  0
   52.1690   29.4100   52.6240 C   0  0  0  0  0  0  0  0  0  0  0  0
   52.6450   30.0770   53.3440 H   0  0  0  0  0  0  0  0  0  0  0  0
   51.3460   29.9950   51.6560 C   0  0  0  0  0  0  0  0  0  0  0  0
   50.9550   31.3050   51.3590 C   0  0  0  0  0  3  0  0  0  0  0  0
   46.7910   32.8050   44.4030 C   0  0  0  0  0  0  0  0  0  0  0  0
   47.0590   32.3020   43.4570 H   0  0  0  0  0  0  0  0  0  0  0  0
   47.7900   33.1000   44.8420 H   0  0  0  0  0  0  0  0  0  0  0  0
   46.2450   34.7860   43.0540 C   0  0  0  0  0  0  0  0  0  0  0  0
   46.0620   34.0640   44.2150 C   0  0  0  0  0  0  0  0  0  0  0  0
   45.2220   34.4640   45.2190 C   0  0  0  0  0  0  0  0  0  0  0  0
   44.5240   35.6420   45.0640 C   0  0  0  0  0  0  0  0  0  0  0  0
   44.6440   36.4210   43.9450 C   0  0  0  0  0  0  0  0  0  0  0  0
   45.5170   35.9540   42.9640 C   0  0  0  0  0  0  0  0  0  0  0  0
   45.0230   33.9770   46.1400 H   0  0  0  0  0  0  0  0  0  0  0  0
   43.8340   36.0370   45.8120 H   0  0  0  0  0  0  0  0  0  0  0  0
   44.1110   37.3390   43.8080 H   0  0  0  0  0  0  0  0  0  0  0  0
   45.6360   36.5530   42.0570 H   0  0  0  0  0  0  0  0  0  0  0  0
   47.3100   34.3140   41.7470 S   0  0  0  0  0  0  0  0  0  0  0  0
   48.3430   35.3760   41.4390 O   0  0  0  0  0  0  0  0  0  0  0  0
   46.4950   34.1940   40.4810 O   0  0  0  0  0  0  0  0  0  0  0  0
   47.8780   33.0890   41.9330 H   0  0  0  0  0  0  0  0  0  0  0  0
  1  2  1  0  0  0  0
  1  5  1  0  0  0  0
  3  1  1  0  0  0  0
  4 10  1  0  0  0  0
  4  9  1  0  0  0  0
  5  4  2  0  0  0  0
  6  5  1  0  0  0  0
  6  7  2  0  0  0  0
  7  8  1  0  0  0  0
  8  9  2  0  0  0  0
  8 13  1  0  0  0  0
 11  6  1  0  0  0  0
 12 23  1  0  0  0  0
 13 14  1  0  0  0  0
 13 12  2  0  0  0  0
 14 16  2  0  0  0  0
 15 14  1  0  0  0  0
 16 17  1  0  0  0  0
 16 22  1  0  0  0  0
 17 19  1  0  0  0  0
 18 17  1  0  0  0  0
 19 20  2  0  0  0  0
 20 21  1  0  0  0  0
 22 20  1  0  0  0  0
 23 22  2  0  0  0  0
 24 26  1  0  0  0  0
 24  1  1  0  0  0  0
 25 24  1  0  0  0  0
 27 28  1  0  0  0  0
 28 24  1  0  0  0  0
 28 29  2  0  0  0  0
 29 33  1  0  0  0  0
 30 29  1  0  0  0  0
 30 34  1  0  0  0  0
 31 30  2  0  0  0  0
 32 27  2  0  0  0  0
 32 31  1  0  0  0  0
 35 31  1  0  0  0  0
 36 32  1  0  0  0  0
 37 40  1  0  0  0  0
 37 27  1  0  0  0  0
 38 37  2  0  0  0  0
 39 37  2  0  0  0  0
M  END
>  <minimizedAffinity>
-6.29333115

>  <minimizedRMSD>
0.60669744

$$$$
