
 OpenBabel03242518003D

 40 43  0  0  0  0  0  0  0  0999 V2000
   46.0280   31.7050   45.3220 C   0  0  0  0  0  0  0  0  0  0  0  0
   45.0650   32.0970   45.6460 H   0  0  0  0  0  0  0  0  0  0  0  0
   45.7990   30.6660   44.9390 H   0  0  0  0  0  0  0  0  0  0  0  0
   47.1090   32.5540   47.3910 C   0  0  0  0  0  0  0  0  0  0  0  0
   46.9660   31.5460   46.4240 C   0  0  0  0  0  0  0  0  0  0  0  0
   47.7680   30.4040   46.5820 C   0  0  0  0  0  0  0  0  0  0  0  0
   48.6090   30.3450   47.6310 N   0  0  0  0  0  0  0  0  0  0  0  0
   48.7270   31.3230   48.5420 C   0  0  0  0  0  0  0  0  0  0  0  0
   47.9790   32.4140   48.4150 N   0  0  0  0  0  0  0  0  0  0  0  0
   46.5380   33.4730   47.3610 H   0  0  0  0  0  0  0  0  0  0  0  0
   47.6920   29.6020   45.8610 H   0  0  0  0  0  0  0  0  0  0  0  0
   50.4960   32.3070   49.9260 C   0  0  0  0  0  3  0  0  0  0  0  0
   49.6420   31.2510   49.6780 C   0  0  0  0  0  0  0  0  0  0  0  0
   49.6960   30.1630   50.5270 C   0  0  0  0  0  0  0  0  0  0  0  0
   49.0410   29.3170   50.3620 H   0  0  0  0  0  0  0  0  0  0  0  0
   50.5800   30.1420   51.5890 C   0  0  0  0  0  0  0  0  0  0  0  0
   50.8260   29.2250   52.5440 N   0  0  0  0  0  0  0  0  0  0  0  0
   50.3410   28.2870   52.6470 H   0  0  0  0  0  0  0  0  0  0  0  0
   51.7770   29.6580   53.3570 N   0  0  0  0  0  0  0  0  0  0  0  0
   52.1780   30.8760   52.9520 C   0  0  0  0  0  0  0  0  0  0  0  0
   52.9160   31.5980   53.3050 H   0  0  0  0  0  0  0  0  0  0  0  0
   51.4340   31.2260   51.8190 C   0  0  0  0  0  0  0  0  0  0  0  0
   51.3970   32.3380   50.9710 C   0  0  0  0  0  3  0  0  0  0  0  0
   46.7210   32.5140   44.2460 C   0  0  0  0  0  0  0  0  0  0  0  0
   46.7920   31.8770   43.3460 H   0  0  0  0  0  0  0  0  0  0  0  0
   47.7990   32.7210   44.5140 H   0  0  0  0  0  0  0  0  0  0  0  0
   46.4960   34.5350   42.8650 C   0  0  0  0  0  0  0  0  0  0  0  0
   46.1240   33.8300   43.9900 C   0  0  0  0  0  0  0  0  0  0  0  0
   45.2120   34.2970   44.8990 C   0  0  0  0  0  0  0  0  0  0  0  0
   44.6370   35.5290   44.6790 C   0  0  0  0  0  0  0  0  0  0  0  0
   44.9460   36.2970   43.5890 C   0  0  0  0  0  0  0  0  0  0  0  0
   45.8820   35.7610   42.7080 C   0  0  0  0  0  0  0  0  0  0  0  0
   44.8720   33.8260   45.7860 H   0  0  0  0  0  0  0  0  0  0  0  0
   43.9020   35.9790   45.3490 H   0  0  0  0  0  0  0  0  0  0  0  0
   44.5100   37.2570   43.4030 H   0  0  0  0  0  0  0  0  0  0  0  0
   46.1520   36.3480   41.8260 H   0  0  0  0  0  0  0  0  0  0  0  0
   47.6600   33.9780   41.6810 S   0  0  0  0  0  0  0  0  0  0  0  0
   49.0060   34.6520   41.8410 O   0  0  0  0  0  0  0  0  0  0  0  0
   47.1850   34.3920   40.3080 O   0  0  0  0  0  0  0  0  0  0  0  0
   47.7710   32.6210   41.6350 H   0  0  0  0  0  0  0  0  0  0  0  0
  1  2  1  0  0  0  0
  1  5  1  0  0  0  0
  3  1  1  0  0  0  0
  4  9  1  0  0  0  0
  5  6  1  0  0  0  0
  5  4  2  0  0  0  0
  6  7  2  0  0  0  0
  7  8  1  0  0  0  0
  8 13  1  0  0  0  0
  9  8  2  0  0  0  0
 10  4  1  0  0  0  0
 11  6  1  0  0  0  0
 12 23  1  0  0  0  0
 13 12  2  0  0  0  0
 13 14  1  0  0  0  0
 14 16  2  0  0  0  0
 15 14  1  0  0  0  0
 16 22  1  0  0  0  0
 16 17  1  0  0  0  0
 17 18  1  0  0  0  0
 17 19  1  0  0  0  0
 20 21  1  0  0  0  0
 20 19  2  0  0  0  0
 22 20  1  0  0  0  0
 23 22  2  0  0  0  0
 24 26  1  0  0  0  0
 24  1  1  0  0  0  0
 25 24  1  0  0  0  0
 27 28  1  0  0  0  0
 28 24  1  0  0  0  0
 28 29  2  0  0  0  0
 29 33  1  0  0  0  0
 30 29  1  0  0  0  0
 30 34  1  0  0  0  0
 31 30  2  0  0  0  0
 32 27  2  0  0  0  0
 32 31  1  0  0  0  0
 35 31  1  0  0  0  0
 36 32  1  0  0  0  0
 37 38  2  0  0  0  0
 37 27  1  0  0  0  0
 39 37  2  0  0  0  0
 40 37  1  0  0  0  0
M  END
>  <minimizedAffinity>
-6.43997335

>  <minimizedRMSD>
0.90941143

$$$$
