
 OpenBabel03242518003D

 40 43  0  0  0  0  0  0  0  0999 V2000
   46.0610   31.6240   45.8890 C   0  0  0  0  0  0  0  0  0  0  0  0
   45.2010   32.0710   46.3870 H   0  0  0  0  0  0  0  0  0  0  0  0
   45.6860   30.6250   45.5150 H   0  0  0  0  0  0  0  0  0  0  0  0
   47.4600   32.2340   47.8480 C   0  0  0  0  0  0  0  0  0  0  0  0
   47.1550   31.3440   46.8060 C   0  0  0  0  0  0  0  0  0  0  0  0
   47.9560   30.1940   46.7050 C   0  0  0  0  0  0  0  0  0  0  0  0
   48.9490   30.0180   47.5980 N   0  0  0  0  0  0  0  0  0  0  0  0
   49.2190   30.8850   48.5850 C   0  0  0  0  0  0  0  0  0  0  0  0
   48.4760   31.9800   48.7010 N   0  0  0  0  0  0  0  0  0  0  0  0
   46.9040   33.1480   48.0120 H   0  0  0  0  0  0  0  0  0  0  0  0
   47.7580   29.4800   45.9180 H   0  0  0  0  0  0  0  0  0  0  0  0
   51.6080   30.7330   49.1160 C   0  0  0  0  0  3  0  0  0  0  0  0
   50.2980   30.6850   49.5500 C   0  0  0  0  0  0  0  0  0  0  0  0
   50.0680   30.4490   50.8900 C   0  0  0  0  0  0  0  0  0  0  0  0
   49.0530   30.4060   51.2650 H   0  0  0  0  0  0  0  0  0  0  0  0
   51.1230   30.2680   51.7640 C   0  0  0  0  0  0  0  0  0  0  0  0
   51.1700   30.0280   53.0880 N   0  0  0  0  0  0  0  0  0  0  0  0
   50.3350   29.9300   53.7350 H   0  0  0  0  0  0  0  0  0  0  0  0
   52.4280   29.9260   53.4880 N   0  0  0  0  0  0  0  0  0  0  0  0
   53.2400   30.0980   52.4290 C   0  0  0  0  0  0  0  0  0  0  0  0
   54.3220   30.1000   52.2830 H   0  0  0  0  0  0  0  0  0  0  0  0
   52.4420   30.3200   51.3010 C   0  0  0  0  0  0  0  0  0  0  0  0
   52.6980   30.5580   49.9460 C   0  0  0  0  0  3  0  0  0  0  0  0
   46.6250   32.4310   44.7380 C   0  0  0  0  0  0  0  0  0  0  0  0
   46.6220   31.7810   43.8440 H   0  0  0  0  0  0  0  0  0  0  0  0
   47.7190   32.6670   44.8950 H   0  0  0  0  0  0  0  0  0  0  0  0
   46.1450   34.3820   43.3210 C   0  0  0  0  0  0  0  0  0  0  0  0
   45.9750   33.7290   44.5240 C   0  0  0  0  0  0  0  0  0  0  0  0
   45.2190   34.2330   45.5480 C   0  0  0  0  0  0  0  0  0  0  0  0
   44.5970   35.4490   45.3690 C   0  0  0  0  0  0  0  0  0  0  0  0
   44.7100   36.1660   44.2090 C   0  0  0  0  0  0  0  0  0  0  0  0
   45.4950   35.5940   43.2100 C   0  0  0  0  0  0  0  0  0  0  0  0
   45.0360   33.8030   46.5000 H   0  0  0  0  0  0  0  0  0  0  0  0
   43.9760   35.9250   46.1300 H   0  0  0  0  0  0  0  0  0  0  0  0
   44.2350   37.1120   44.0530 H   0  0  0  0  0  0  0  0  0  0  0  0
   45.6070   36.1400   42.2700 H   0  0  0  0  0  0  0  0  0  0  0  0
   47.1050   33.7760   41.9880 S   0  0  0  0  0  0  0  0  0  0  0  0
   48.5480   34.2250   42.0720 O   0  0  0  0  0  0  0  0  0  0  0  0
   46.5880   34.3860   40.7060 O   0  0  0  0  0  0  0  0  0  0  0  0
   46.9990   32.4280   41.8190 H   0  0  0  0  0  0  0  0  0  0  0  0
  1  2  1  0  0  0  0
  1  5  1  0  0  0  0
  3  1  1  0  0  0  0
  4 10  1  0  0  0  0
  4  9  1  0  0  0  0
  5  4  2  0  0  0  0
  6  5  1  0  0  0  0
  6  7  2  0  0  0  0
  7  8  1  0  0  0  0
  8  9  2  0  0  0  0
  8 13  1  0  0  0  0
 11  6  1  0  0  0  0
 12 13  2  0  0  0  0
 12 23  1  0  0  0  0
 13 14  1  0  0  0  0
 14 15  1  0  0  0  0
 14 16  2  0  0  0  0
 16 17  1  0  0  0  0
 17 19  1  0  0  0  0
 17 18  1  0  0  0  0
 20 19  2  0  0  0  0
 21 20  1  0  0  0  0
 22 16  1  0  0  0  0
 22 20  1  0  0  0  0
 23 22  2  0  0  0  0
 24 26  1  0  0  0  0
 24  1  1  0  0  0  0
 25 24  1  0  0  0  0
 27 28  1  0  0  0  0
 28 24  1  0  0  0  0
 28 29  2  0  0  0  0
 29 33  1  0  0  0  0
 30 29  1  0  0  0  0
 30 34  1  0  0  0  0
 31 30  2  0  0  0  0
 32 27  2  0  0  0  0
 32 31  1  0  0  0  0
 35 31  1  0  0  0  0
 36 32  1  0  0  0  0
 37 38  2  0  0  0  0
 37 27  1  0  0  0  0
 39 37  2  0  0  0  0
 40 37  1  0  0  0  0
M  END
>  <minimizedAffinity>
-6.00252533

>  <minimizedRMSD>
0.974824488

$$$$
