
 OpenBabel03242518003D

 40 43  0  0  0  0  0  0  0  0999 V2000
   46.3640   31.6330   45.7810 C   0  0  0  0  0  0  0  0  0  0  0  0
   45.3740   31.9430   46.1130 H   0  0  0  0  0  0  0  0  0  0  0  0
   46.1910   30.6460   45.2570 H   0  0  0  0  0  0  0  0  0  0  0  0
   47.4930   32.3360   47.8780 C   0  0  0  0  0  0  0  0  0  0  0  0
   47.2670   31.3650   46.8900 C   0  0  0  0  0  0  0  0  0  0  0  0
   47.9540   30.1480   47.0340 C   0  0  0  0  0  0  0  0  0  0  0  0
   48.7720   29.9890   48.0920 N   0  0  0  0  0  0  0  0  0  0  0  0
   48.9700   30.9350   49.0230 C   0  0  0  0  0  0  0  0  0  0  0  0
   48.3320   32.0950   48.9090 N   0  0  0  0  0  0  0  0  0  0  0  0
   47.0130   33.3060   47.8590 H   0  0  0  0  0  0  0  0  0  0  0  0
   47.8110   29.3700   46.2970 H   0  0  0  0  0  0  0  0  0  0  0  0
   50.0200   29.4920   50.7060 C   0  0  0  0  0  3  0  0  0  0  0  0
   49.8590   30.7540   50.1680 C   0  0  0  0  0  0  0  0  0  0  0  0
   50.5550   31.7970   50.7460 C   0  0  0  0  0  0  0  0  0  0  0  0
   50.4520   32.8000   50.3500 H   0  0  0  0  0  0  0  0  0  0  0  0
   51.3850   31.5760   51.8290 C   0  0  0  0  0  0  0  0  0  0  0  0
   52.1580   32.4010   52.5610 N   0  0  0  0  0  0  0  0  0  0  0  0
   52.2670   33.4460   52.4140 H   0  0  0  0  0  0  0  0  0  0  0  0
   52.7790   31.7200   53.5100 N   0  0  0  0  0  0  0  0  0  0  0  0
   52.4260   30.4240   53.4220 C   0  0  0  0  0  0  0  0  0  0  0  0
   52.6810   29.5210   53.9780 H   0  0  0  0  0  0  0  0  0  0  0  0
   51.5310   30.2880   52.3560 C   0  0  0  0  0  0  0  0  0  0  0  0
   50.8360   29.2160   51.7860 C   0  0  0  0  0  3  0  0  0  0  0  0
   47.0600   32.6010   44.8480 C   0  0  0  0  0  0  0  0  0  0  0  0
   47.3880   32.0300   43.9610 H   0  0  0  0  0  0  0  0  0  0  0  0
   48.0270   32.9820   45.2940 H   0  0  0  0  0  0  0  0  0  0  0  0
   46.5190   34.4580   43.3310 C   0  0  0  0  0  0  0  0  0  0  0  0
   46.2830   33.8020   44.5210 C   0  0  0  0  0  0  0  0  0  0  0  0
   45.3470   34.2150   45.4310 C   0  0  0  0  0  0  0  0  0  0  0  0
   44.6040   35.3400   45.1450 C   0  0  0  0  0  0  0  0  0  0  0  0
   44.7710   36.0520   43.9880 C   0  0  0  0  0  0  0  0  0  0  0  0
   45.7400   35.5750   43.1100 C   0  0  0  0  0  0  0  0  0  0  0  0
   45.1030   33.7770   46.3650 H   0  0  0  0  0  0  0  0  0  0  0  0
   43.8380   35.7400   45.8110 H   0  0  0  0  0  0  0  0  0  0  0  0
   44.2020   36.9280   43.7500 H   0  0  0  0  0  0  0  0  0  0  0  0
   45.8990   36.1210   42.1750 H   0  0  0  0  0  0  0  0  0  0  0  0
   47.7070   33.9670   42.1430 S   0  0  0  0  0  0  0  0  0  0  0  0
   49.1010   34.4370   42.4990 O   0  0  0  0  0  0  0  0  0  0  0  0
   47.3930   34.6550   40.8350 O   0  0  0  0  0  0  0  0  0  0  0  0
   47.6730   32.6320   41.8700 H   0  0  0  0  0  0  0  0  0  0  0  0
  1  2  1  0  0  0  0
  1  5  1  0  0  0  0
  3  1  1  0  0  0  0
  4  9  1  0  0  0  0
  5  6  1  0  0  0  0
  5  4  2  0  0  0  0
  6  7  2  0  0  0  0
  7  8  1  0  0  0  0
  8 13  1  0  0  0  0
  9  8  2  0  0  0  0
 10  4  1  0  0  0  0
 11  6  1  0  0  0  0
 12 23  1  0  0  0  0
 13 12  2  0  0  0  0
 13 14  1  0  0  0  0
 14 16  2  0  0  0  0
 15 14  1  0  0  0  0
 16 22  1  0  0  0  0
 16 17  1  0  0  0  0
 17 19  1  0  0  0  0
 18 17  1  0  0  0  0
 20 19  2  0  0  0  0
 20 21  1  0  0  0  0
 22 20  1  0  0  0  0
 23 22  2  0  0  0  0
 24 26  1  0  0  0  0
 24  1  1  0  0  0  0
 25 24  1  0  0  0  0
 27 28  1  0  0  0  0
 28 24  1  0  0  0  0
 28 29  2  0  0  0  0
 29 33  1  0  0  0  0
 30 29  1  0  0  0  0
 30 34  1  0  0  0  0
 31 30  2  0  0  0  0
 32 27  2  0  0  0  0
 32 31  1  0  0  0  0
 35 31  1  0  0  0  0
 36 32  1  0  0  0  0
 37 38  2  0  0  0  0
 37 27  1  0  0  0  0
 39 37  2  0  0  0  0
 40 37  1  0  0  0  0
M  END
>  <minimizedAffinity>
-6.55691051

>  <minimizedRMSD>
0.467339575

$$$$
