
 OpenBabel03252506043D

 46 51  0  0  0  0  0  0  0  0999 V2000
   44.7670   35.9880   43.0640 Cl  0  0  0  0  0  0  0  0  0  0  0  0
   45.5120   34.7570   44.0380 C   0  0  0  0  0  0  0  0  0  0  0  0
   46.5770   34.0240   43.5420 C   0  0  0  0  0  0  0  0  0  0  0  0
   47.0910   33.0780   44.3920 C   0  0  0  0  0  0  0  0  0  0  0  0
   46.6280   32.8180   45.6670 C   0  0  0  0  0  0  0  0  0  0  0  0
   45.5690   33.5650   46.1260 C   0  0  0  0  0  0  0  0  0  0  0  0
   45.0080   33.2080   47.7490 Cl  0  0  0  0  0  0  0  0  0  0  0  0
   45.0180   34.5230   45.3180 C   0  0  0  0  0  0  0  0  0  0  0  0
   47.9340   32.5020   43.9930 H   0  0  0  0  0  0  0  0  0  0  0  0
   44.1940   35.0830   45.7150 H   0  0  0  0  0  0  0  0  0  0  0  0
   47.3120   31.7650   46.4180 C   0  0  0  0  0  0  0  0  0  0  0  0
   47.4470   30.4750   45.9470 C   0  0  0  0  0  0  0  0  0  0  0  0
   48.0910   29.4610   46.6400 C   0  0  0  0  0  0  0  0  0  0  0  0
   48.6330   29.7510   47.8790 C   0  0  0  0  0  0  0  0  0  0  0  0
   49.2500   28.7420   48.5220 N   0  0  0  0  0  0  0  0  0  0  0  0
   49.8140   28.9290   49.7450 C   0  0  0  0  0  0  0  0  0  0  0  0
   49.7170   30.2000   50.2810 C   0  0  0  0  0  0  0  0  0  0  0  0
   49.0860   31.2090   49.6120 C   0  0  0  0  0  0  0  0  0  0  0  0
   48.5200   31.0130   48.3800 C   0  0  0  0  0  0  0  0  0  0  0  0
   47.8740   32.0050   47.6670 C   0  0  0  0  0  0  0  0  0  0  0  0
   47.0070   30.2940   44.9690 H   0  0  0  0  0  0  0  0  0  0  0  0
   48.1390   28.4820   46.1740 H   0  0  0  0  0  0  0  0  0  0  0  0
   50.3000   28.0710   50.2160 H   0  0  0  0  0  0  0  0  0  0  0  0
   50.1680   30.3400   51.2540 H   0  0  0  0  0  0  0  0  0  0  0  0
   49.0370   32.1930   50.0770 H   0  0  0  0  0  0  0  0  0  0  0  0
   47.8160   32.9880   48.1180 H   0  0  0  0  0  0  0  0  0  0  0  0
   48.6470   35.3000   40.8360 C   0  0  0  0  0  0  0  0  0  0  0  0
   48.1320   34.6540   39.7050 C   0  0  0  0  0  0  0  0  0  0  0  0
   47.0540   33.7630   39.8760 C   0  0  0  0  0  0  0  0  0  0  0  0
   46.5980   33.6020   41.1310 N   0  0  0  0  0  0  0  0  0  0  0  0
   47.1160   34.2430   42.2120 C   0  0  0  0  0  0  0  0  0  0  0  0
   48.1400   35.0930   42.0700 N   0  0  0  0  0  0  0  0  0  0  0  0
   49.4700   35.9840   40.7190 H   0  0  0  0  0  0  0  0  0  0  0  0
   48.5080   34.7940   38.7180 H   0  0  0  0  0  0  0  0  0  0  0  0
   45.8440   31.8270   39.1230 C   0  0  0  0  0  3  0  0  0  0  0  0
   46.4210   33.0230   38.7930 C   0  0  0  0  0  0  0  0  0  0  0  0
   46.3910   33.4820   37.4930 C   0  0  0  0  0  0  0  0  0  0  0  0
   46.8380   34.4130   37.2250 H   0  0  0  0  0  0  0  0  0  0  0  0
   45.7850   32.7590   36.4870 C   0  0  0  0  0  0  0  0  0  0  0  0
   45.6110   32.9630   35.1680 N   0  0  0  0  0  0  0  0  0  0  0  0
   45.9750   33.8280   34.6780 H   0  0  0  0  0  0  0  0  0  0  0  0
   44.9480   31.9350   34.6690 N   0  0  0  0  0  0  0  0  0  0  0  0
   44.6720   31.0440   35.6360 C   0  0  0  0  0  0  0  0  0  0  0  0
   44.1470   30.1180   35.5230 H   0  0  0  0  0  0  0  0  0  0  0  0
   45.1980   31.5420   36.8300 C   0  0  0  0  0  0  0  0  0  0  0  0
   45.2160   31.0570   38.1400 C   0  0  0  0  0  3  0  0  0  0  0  0
  1  2  1  0  0  0  0
  2  8  1  0  0  0  0
  3  2  2  0  0  0  0
  3  4  1  0  0  0  0
  4  5  2  0  0  0  0
  5  6  1  0  0  0  0
  5 11  1  0  0  0  0
  6  7  1  0  0  0  0
  8 10  1  0  0  0  0
  8  6  2  0  0  0  0
  9  4  1  0  0  0  0
 11 20  1  0  0  0  0
 12 11  2  0  0  0  0
 12 13  1  0  0  0  0
 13 14  2  0  0  0  0
 14 19  1  0  0  0  0
 14 15  1  0  0  0  0
 15 16  2  0  0  0  0
 16 23  1  0  0  0  0
 16 17  1  0  0  0  0
 17 24  1  0  0  0  0
 18 25  1  0  0  0  0
 18 17  2  0  0  0  0
 19 18  1  0  0  0  0
 20 26  1  0  0  0  0
 20 19  2  0  0  0  0
 21 12  1  0  0  0  0
 22 13  1  0  0  0  0
 27 32  1  0  0  0  0
 28 29  1  0  0  0  0
 28 27  2  0  0  0  0
 29 30  2  0  0  0  0
 30 31  1  0  0  0  0
 31  3  1  0  0  0  0
 32 31  2  0  0  0  0
 33 27  1  0  0  0  0
 34 28  1  0  0  0  0
 36 35  1  0  0  0  0
 36 29  1  0  0  0  0
 37 36  2  0  0  0  0
 38 37  1  0  0  0  0
 39 45  2  0  0  0  0
 39 37  1  0  0  0  0
 40 39  1  0  0  0  0
 41 40  1  0  0  0  0
 42 40  1  0  0  0  0
 42 43  2  0  0  0  0
 43 45  1  0  0  0  0
 44 43  1  0  0  0  0
 45 46  1  0  0  0  0
 46 35  2  0  0  0  0
M  END
>  <minimizedAffinity>
-7.8235631

>  <minimizedRMSD>
0.451457798

$$$$
