
 OpenBabel03252506033D

 46 51  0  0  0  0  0  0  0  0999 V2000
   44.8320   36.0040   43.3320 Cl  0  0  0  0  0  0  0  0  0  0  0  0
   45.5780   34.7480   44.2730 C   0  0  0  0  0  0  0  0  0  0  0  0
   46.7080   34.0990   43.8020 C   0  0  0  0  0  0  0  0  0  0  0  0
   47.2160   33.1250   44.6220 C   0  0  0  0  0  0  0  0  0  0  0  0
   46.6900   32.7610   45.8470 C   0  0  0  0  0  0  0  0  0  0  0  0
   45.5700   33.4260   46.2820 C   0  0  0  0  0  0  0  0  0  0  0  0
   44.9310   32.9390   47.8410 Cl  0  0  0  0  0  0  0  0  0  0  0  0
   45.0210   34.4090   45.5020 C   0  0  0  0  0  0  0  0  0  0  0  0
   48.1090   32.6160   44.2430 H   0  0  0  0  0  0  0  0  0  0  0  0
   44.1470   34.9020   45.8800 H   0  0  0  0  0  0  0  0  0  0  0  0
   47.3800   31.6950   46.5720 C   0  0  0  0  0  0  0  0  0  0  0  0
   47.4990   30.4100   46.0830 C   0  0  0  0  0  0  0  0  0  0  0  0
   48.1480   29.3830   46.7530 C   0  0  0  0  0  0  0  0  0  0  0  0
   48.7140   29.6540   47.9860 C   0  0  0  0  0  0  0  0  0  0  0  0
   49.3340   28.6330   48.6050 N   0  0  0  0  0  0  0  0  0  0  0  0
   49.9200   28.8020   49.8210 C   0  0  0  0  0  0  0  0  0  0  0  0
   49.8410   30.0670   50.3740 C   0  0  0  0  0  0  0  0  0  0  0  0
   49.2050   31.0880   49.7280 C   0  0  0  0  0  0  0  0  0  0  0  0
   48.6170   30.9110   48.5040 C   0  0  0  0  0  0  0  0  0  0  0  0
   47.9660   31.9150   47.8150 C   0  0  0  0  0  0  0  0  0  0  0  0
   47.0400   30.2430   45.1120 H   0  0  0  0  0  0  0  0  0  0  0  0
   48.1820   28.4100   46.2750 H   0  0  0  0  0  0  0  0  0  0  0  0
   50.4090   27.9350   50.2730 H   0  0  0  0  0  0  0  0  0  0  0  0
   50.3090   30.1920   51.3410 H   0  0  0  0  0  0  0  0  0  0  0  0
   49.1710   32.0660   50.2060 H   0  0  0  0  0  0  0  0  0  0  0  0
   47.9220   32.8940   48.2780 H   0  0  0  0  0  0  0  0  0  0  0  0
   48.9250   35.5780   41.3260 C   0  0  0  0  0  0  0  0  0  0  0  0
   48.4570   35.0490   40.1160 C   0  0  0  0  0  0  0  0  0  0  0  0
   47.3590   34.1660   40.1530 C   0  0  0  0  0  0  0  0  0  0  0  0
   46.8400   33.8990   41.3650 N   0  0  0  0  0  0  0  0  0  0  0  0
   47.3140   34.4290   42.5240 C   0  0  0  0  0  0  0  0  0  0  0  0
   48.3550   35.2680   42.5100 N   0  0  0  0  0  0  0  0  0  0  0  0
   49.7630   36.2540   41.3110 H   0  0  0  0  0  0  0  0  0  0  0  0
   48.8820   35.2710   39.1660 H   0  0  0  0  0  0  0  0  0  0  0  0
   45.5400   32.9630   39.1440 C   0  0  0  0  0  3  0  0  0  0  0  0
   46.7690   33.5400   38.9770 C   0  0  0  0  0  0  0  0  0  0  0  0
   47.3950   33.5190   37.7500 C   0  0  0  0  0  0  0  0  0  0  0  0
   48.3530   33.9650   37.6090 H   0  0  0  0  0  0  0  0  0  0  0  0
   46.8120   32.9190   36.6530 C   0  0  0  0  0  0  0  0  0  0  0  0
   47.1870   32.7540   35.3730 N   0  0  0  0  0  0  0  0  0  0  0  0
   48.1110   33.1200   35.0020 H   0  0  0  0  0  0  0  0  0  0  0  0
   46.2340   32.0950   34.7370 N   0  0  0  0  0  0  0  0  0  0  0  0
   45.2220   31.8140   35.5760 C   0  0  0  0  0  0  0  0  0  0  0  0
   44.3200   31.2900   35.3390 H   0  0  0  0  0  0  0  0  0  0  0  0
   45.5580   32.3320   36.8300 C   0  0  0  0  0  0  0  0  0  0  0  0
   44.9050   32.3420   38.0630 C   0  0  0  0  0  3  0  0  0  0  0  0
  1  2  1  0  0  0  0
  2  8  1  0  0  0  0
  3  2  2  0  0  0  0
  3  4  1  0  0  0  0
  4  5  2  0  0  0  0
  5  6  1  0  0  0  0
  5 11  1  0  0  0  0
  6  7  1  0  0  0  0
  8 10  1  0  0  0  0
  8  6  2  0  0  0  0
  9  4  1  0  0  0  0
 11 20  1  0  0  0  0
 12 11  2  0  0  0  0
 12 13  1  0  0  0  0
 13 14  2  0  0  0  0
 14 19  1  0  0  0  0
 14 15  1  0  0  0  0
 15 16  2  0  0  0  0
 16 23  1  0  0  0  0
 16 17  1  0  0  0  0
 17 24  1  0  0  0  0
 18 25  1  0  0  0  0
 18 17  2  0  0  0  0
 19 18  1  0  0  0  0
 20 26  1  0  0  0  0
 20 19  2  0  0  0  0
 21 12  1  0  0  0  0
 22 13  1  0  0  0  0
 27 32  1  0  0  0  0
 28 29  1  0  0  0  0
 28 27  2  0  0  0  0
 29 30  2  0  0  0  0
 30 31  1  0  0  0  0
 31  3  1  0  0  0  0
 32 31  2  0  0  0  0
 33 27  1  0  0  0  0
 34 28  1  0  0  0  0
 36 35  1  0  0  0  0
 36 29  1  0  0  0  0
 37 36  2  0  0  0  0
 38 37  1  0  0  0  0
 39 45  2  0  0  0  0
 39 37  1  0  0  0  0
 40 39  1  0  0  0  0
 41 40  1  0  0  0  0
 42 40  1  0  0  0  0
 42 43  2  0  0  0  0
 43 45  1  0  0  0  0
 44 43  1  0  0  0  0
 45 46  1  0  0  0  0
 46 35  2  0  0  0  0
M  END
>  <minimizedAffinity>
-7.90384007

>  <minimizedRMSD>
0.273689181

$$$$
