
 OpenBabel03252506043D

 46 51  0  0  0  0  0  0  0  0999 V2000
   44.7830   35.9900   43.1770 Cl  0  0  0  0  0  0  0  0  0  0  0  0
   45.5310   34.7520   44.1390 C   0  0  0  0  0  0  0  0  0  0  0  0
   46.6160   34.0450   43.6470 C   0  0  0  0  0  0  0  0  0  0  0  0
   47.1300   33.0910   44.4870 C   0  0  0  0  0  0  0  0  0  0  0  0
   46.6490   32.7980   45.7490 C   0  0  0  0  0  0  0  0  0  0  0  0
   45.5720   33.5190   46.2030 C   0  0  0  0  0  0  0  0  0  0  0  0
   44.9900   33.1220   47.8090 Cl  0  0  0  0  0  0  0  0  0  0  0  0
   45.0200   34.4850   45.4050 C   0  0  0  0  0  0  0  0  0  0  0  0
   47.9880   32.5350   44.0910 H   0  0  0  0  0  0  0  0  0  0  0  0
   44.1800   35.0240   45.8000 H   0  0  0  0  0  0  0  0  0  0  0  0
   47.3370   31.7410   46.4900 C   0  0  0  0  0  0  0  0  0  0  0  0
   47.4640   30.4510   46.0140 C   0  0  0  0  0  0  0  0  0  0  0  0
   48.1110   29.4340   46.6990 C   0  0  0  0  0  0  0  0  0  0  0  0
   48.6660   29.7190   47.9330 C   0  0  0  0  0  0  0  0  0  0  0  0
   49.2850   28.7060   48.5670 N   0  0  0  0  0  0  0  0  0  0  0  0
   49.8620   28.8890   49.7860 C   0  0  0  0  0  0  0  0  0  0  0  0
   49.7740   30.1580   50.3260 C   0  0  0  0  0  0  0  0  0  0  0  0
   49.1400   31.1710   49.6650 C   0  0  0  0  0  0  0  0  0  0  0  0
   48.5620   30.9800   48.4380 C   0  0  0  0  0  0  0  0  0  0  0  0
   47.9120   31.9750   47.7350 C   0  0  0  0  0  0  0  0  0  0  0  0
   47.0130   30.2740   45.0410 H   0  0  0  0  0  0  0  0  0  0  0  0
   48.1510   28.4560   46.2310 H   0  0  0  0  0  0  0  0  0  0  0  0
   50.3500   28.0270   50.2500 H   0  0  0  0  0  0  0  0  0  0  0  0
   50.2350   30.2940   51.2950 H   0  0  0  0  0  0  0  0  0  0  0  0
   49.0990   32.1540   50.1330 H   0  0  0  0  0  0  0  0  0  0  0  0
   47.8620   32.9580   48.1880 H   0  0  0  0  0  0  0  0  0  0  0  0
   48.7040   35.4130   41.0010 C   0  0  0  0  0  0  0  0  0  0  0  0
   48.2250   34.7750   39.8500 C   0  0  0  0  0  0  0  0  0  0  0  0
   47.1640   33.8560   39.9860 C   0  0  0  0  0  0  0  0  0  0  0  0
   46.6900   33.6640   41.2300 N   0  0  0  0  0  0  0  0  0  0  0  0
   47.1740   34.2990   42.3310 C   0  0  0  0  0  0  0  0  0  0  0  0
   48.1800   35.1740   42.2220 N   0  0  0  0  0  0  0  0  0  0  0  0
   49.5130   36.1170   40.9100 H   0  0  0  0  0  0  0  0  0  0  0  0
   48.6150   34.9400   38.8730 H   0  0  0  0  0  0  0  0  0  0  0  0
   47.4330   32.5840   37.9660 C   0  0  0  0  0  3  0  0  0  0  0  0
   46.5690   33.1200   38.8800 C   0  0  0  0  0  0  0  0  0  0  0  0
   45.2070   32.9600   38.7370 C   0  0  0  0  0  0  0  0  0  0  0  0
   44.5240   33.3740   39.4440 H   0  0  0  0  0  0  0  0  0  0  0  0
   44.6710   32.2580   37.6780 C   0  0  0  0  0  0  0  0  0  0  0  0
   43.4160   31.9530   37.3020 N   0  0  0  0  0  0  0  0  0  0  0  0
   42.5680   32.2640   37.8590 H   0  0  0  0  0  0  0  0  0  0  0  0
   43.4700   31.2460   36.1880 N   0  0  0  0  0  0  0  0  0  0  0  0
   44.7490   31.0710   35.8090 C   0  0  0  0  0  0  0  0  0  0  0  0
   45.0940   30.5400   34.9460 H   0  0  0  0  0  0  0  0  0  0  0  0
   45.5570   31.7130   36.7490 C   0  0  0  0  0  0  0  0  0  0  0  0
   46.9400   31.8630   36.8740 C   0  0  0  0  0  3  0  0  0  0  0  0
  1  2  1  0  0  0  0
  2  8  1  0  0  0  0
  3  2  2  0  0  0  0
  3  4  1  0  0  0  0
  4  5  2  0  0  0  0
  5  6  1  0  0  0  0
  5 11  1  0  0  0  0
  6  7  1  0  0  0  0
  8 10  1  0  0  0  0
  8  6  2  0  0  0  0
  9  4  1  0  0  0  0
 11 20  1  0  0  0  0
 12 11  2  0  0  0  0
 12 13  1  0  0  0  0
 13 14  2  0  0  0  0
 14 19  1  0  0  0  0
 14 15  1  0  0  0  0
 15 16  2  0  0  0  0
 16 23  1  0  0  0  0
 16 17  1  0  0  0  0
 17 24  1  0  0  0  0
 18 25  1  0  0  0  0
 18 17  2  0  0  0  0
 19 18  1  0  0  0  0
 20 26  1  0  0  0  0
 20 19  2  0  0  0  0
 21 12  1  0  0  0  0
 22 13  1  0  0  0  0
 27 32  1  0  0  0  0
 28 29  1  0  0  0  0
 28 27  2  0  0  0  0
 29 30  2  0  0  0  0
 30 31  1  0  0  0  0
 31  3  1  0  0  0  0
 32 31  2  0  0  0  0
 33 27  1  0  0  0  0
 34 28  1  0  0  0  0
 35 36  1  0  0  0  0
 36 29  1  0  0  0  0
 37 36  2  0  0  0  0
 37 38  1  0  0  0  0
 39 37  1  0  0  0  0
 40 39  1  0  0  0  0
 40 41  1  0  0  0  0
 42 40  1  0  0  0  0
 43 42  2  0  0  0  0
 43 45  1  0  0  0  0
 44 43  1  0  0  0  0
 45 46  1  0  0  0  0
 45 39  2  0  0  0  0
 46 35  2  0  0  0  0
M  END
>  <minimizedAffinity>
-7.56632805

>  <minimizedRMSD>
0.286437184

$$$$
