
 OpenBabel03242520073D

 52 57  0  0  1  0  0  0  0  0999 V2000
   47.0180   29.2810   46.3210 N   0  0  0  0  0  0  0  0  0  0  0  0
   46.4020   28.9790   45.0890 C   0  0  1  0  0  0  0  0  0  0  0  0
   45.0980   28.2840   45.3610 C   0  0  0  0  0  0  0  0  0  0  0  0
   44.2820   29.2800   45.9950 N   0  0  0  0  0  0  0  0  0  0  0  0
   44.7720   29.6200   47.3120 C   0  0  0  0  0  0  0  0  0  0  0  0
   46.2570   29.7560   47.4100 C   0  0  2  0  0  0  0  0  0  0  0  0
   47.7230   28.5300   46.5430 H   0  0  0  0  0  0  0  0  0  0  0  0
   47.0180   28.3020   44.5030 H   0  0  0  0  0  0  0  0  0  0  0  0
   44.6340   28.0240   44.3930 H   0  0  0  0  0  0  0  0  0  0  0  0
   45.2210   27.3690   45.9910 H   0  0  0  0  0  0  0  0  0  0  0  0
   43.2920   29.0250   46.0860 H   0  0  0  0  0  0  0  0  0  0  0  0
   44.2190   30.5690   47.5740 H   0  0  0  0  0  0  0  0  0  0  0  0
   44.3210   28.8660   47.9930 H   0  0  0  0  0  0  0  0  0  0  0  0
   46.5460   29.0920   48.2770 H   0  0  0  0  0  0  0  0  0  0  0  0
   45.6690   32.1960   43.8420 C   0  0  0  0  0  0  0  0  0  0  0  0
   45.8130   31.5150   42.6460 C   0  0  0  0  0  0  0  0  0  0  0  0
   46.1060   30.2240   42.9430 C   0  0  0  0  0  0  0  0  0  0  0  0
   46.1360   30.1340   44.2900 N   0  0  0  0  0  0  0  0  0  0  0  0
   45.8730   31.3230   44.8070 N   0  0  0  0  0  0  0  0  0  0  0  0
   45.7080   31.9470   41.6490 H   0  0  0  0  0  0  0  0  0  0  0  0
   46.2900   29.3780   42.2870 H   0  0  0  0  0  0  0  0  0  0  0  0
   44.7700   35.4520   45.2950 C   0  0  0  0  0  0  0  0  0  0  0  0
   44.7660   36.3030   44.1870 C   0  0  0  0  0  0  0  0  0  0  0  0
   45.0730   35.7460   42.9560 C   0  0  0  0  0  0  0  0  0  0  0  0
   45.3560   34.4200   42.9040 N   0  0  0  0  0  0  0  0  0  0  0  0
   45.3480   33.6320   43.9980 C   0  0  0  0  0  0  0  0  0  0  0  0
   45.0550   34.1370   45.2090 N   0  0  0  0  0  0  0  0  0  0  0  0
   44.5220   35.9380   46.2410 H   0  0  0  0  0  0  0  0  0  0  0  0
   44.5320   37.3610   44.2840 H   0  0  0  0  0  0  0  0  0  0  0  0
   45.0890   36.3510   42.0510 H   0  0  0  0  0  0  0  0  0  0  0  0
   46.5490   31.1950   47.7670 C   0  0  1  0  0  0  0  0  0  0  0  0
   46.2930   31.5730   49.2260 C   0  0  0  0  0  0  0  0  0  0  0  0
   47.6560   31.5750   48.6570 C   0  0  1  0  0  0  0  0  0  0  0  0
   46.1800   32.0110   47.0770 H   0  0  0  0  0  0  0  0  0  0  0  0
   46.0590   30.7230   49.9340 H   0  0  0  0  0  0  0  0  0  0  0  0
   45.7580   32.4840   49.4820 H   0  0  0  0  0  0  0  0  0  0  0  0
   48.1000   32.5770   48.5520 H   0  0  0  0  0  0  0  0  0  0  0  0
   48.6850   30.5220   49.0890 C   0  0  0  0  0  0  0  0  0  0  0  0
   49.1990   30.1050   48.2140 H   0  0  0  0  0  0  0  0  0  0  0  0
   48.1980   29.7720   49.7450 H   0  0  0  0  0  0  0  0  0  0  0  0
   50.3270   30.5430   51.0000 C   0  0  0  0  0  0  0  0  0  0  0  0
   49.7520   31.1570   49.9200 C   0  0  0  0  0  0  0  0  0  0  0  0
   50.2030   32.4430   49.5960 C   0  0  0  0  0  0  0  0  0  0  0  0
   49.7590   32.9540   48.7360 H   0  0  0  0  0  0  0  0  0  0  0  0
   51.1870   33.0510   50.3460 C   0  0  0  0  0  0  0  0  0  0  0  0
   51.7720   34.2630   50.2290 N   0  0  0  0  0  0  0  0  0  0  0  0
   51.5220   34.9510   49.4810 H   0  0  0  0  0  0  0  0  0  0  0  0
   52.6620   34.3720   51.2020 N   0  0  0  0  0  0  0  0  0  0  0  0
   52.6760   33.2530   51.9590 C   0  0  0  0  0  0  0  0  0  0  0  0
   53.3050   33.0860   52.8080 H   0  0  0  0  0  0  0  0  0  0  0  0
   51.7390   32.3960   51.4280 C   0  0  0  0  0  0  0  0  0  0  0  0
   51.3150   31.1110   51.7830 C   0  0  0  0  0  0  0  0  0  0  0  0
  1  7  1  0  0  0  0
  1  6  1  0  0  0  0
  2  8  1  6  0  0  0
  2  3  1  0  0  0  0
  2  1  1  0  0  0  0
  3 10  1  0  0  0  0
  3  4  1  0  0  0  0
  4 11  1  0  0  0  0
  4  5  1  0  0  0  0
  5  6  1  0  0  0  0
  5 12  1  0  0  0  0
  5 13  1  0  0  0  0
  6 31  1  0  0  0  0
  6 14  1  1  0  0  0
  9  3  1  0  0  0  0
 15 26  1  0  0  0  0
 15 19  2  0  0  0  0
 16 17  2  0  0  0  0
 16 15  1  0  0  0  0
 17 18  1  0  0  0  0
 18 19  1  0  0  0  0
 18  2  1  0  0  0  0
 20 16  1  0  0  0  0
 21 17  1  0  0  0  0
 22 28  1  0  0  0  0
 23 29  1  0  0  0  0
 23 22  2  0  0  0  0
 24 23  1  0  0  0  0
 25 24  2  0  0  0  0
 25 26  1  0  0  0  0
 26 27  2  0  0  0  0
 27 22  1  0  0  0  0
 30 24  1  0  0  0  0
 31 34  1  6  0  0  0
 31 33  1  0  0  0  0
 31 32  1  0  0  0  0
 32 36  1  0  0  0  0
 32 35  1  0  0  0  0
 33 37  1  6  0  0  0
 33 38  1  0  0  0  0
 33 32  1  0  0  0  0
 38 40  1  0  0  0  0
 38 42  1  0  0  0  0
 39 38  1  0  0  0  0
 41 52  1  0  0  0  0
 42 41  2  0  0  0  0
 43 42  1  0  0  0  0
 43 45  2  0  0  0  0
 44 43  1  0  0  0  0
 45 51  1  0  0  0  0
 46 45  1  0  0  0  0
 46 48  1  0  0  0  0
 47 46  1  0  0  0  0
 48 49  2  0  0  0  0
 49 50  1  0  0  0  0
 51 52  2  0  0  0  0
 51 49  1  0  0  0  0
M  END
>  <minimizedAffinity>
-6.39750528

>  <minimizedRMSD>
1.8040334

$$$$
