
 OpenBabel03242515423D

 41 45  0  0  0  0  0  0  0  0999 V2000
   44.8210   33.8980   40.3030 C   0  0  0  0  0  0  0  0  0  0  0  0
   45.2540   32.8430   39.5790 C   0  0  0  0  0  0  0  0  0  0  0  0
   46.6340   32.5510   39.6640 C   0  0  0  0  0  0  0  0  0  0  0  0
   47.4470   33.3110   40.4360 N   0  0  0  0  0  0  0  0  0  0  0  0
   46.9580   34.3630   41.1410 C   0  0  0  0  0  0  0  0  0  0  0  0
   45.6700   34.5950   41.0340 N   0  0  0  0  0  0  0  0  0  0  0  0
   44.9060   32.3810   37.3750 C   0  0  0  0  0  0  0  0  0  0  0  0
   44.7210   31.8500   38.6640 C   0  0  0  0  0  0  0  0  0  0  0  0
   44.1820   30.5980   38.7270 C   0  0  0  0  0  0  0  0  0  0  0  0
   44.1110   30.3350   39.7880 H   0  0  0  0  0  0  0  0  0  0  0  0
   43.8340   29.8900   37.6110 C   0  0  0  0  0  0  0  0  0  0  0  0
   43.2990   28.6580   37.5930 N   0  0  0  0  0  0  0  0  0  0  0  0
   43.0540   28.0270   38.3880 H   0  0  0  0  0  0  0  0  0  0  0  0
   43.1260   28.3630   36.3040 N   0  0  0  0  0  0  0  0  0  0  0  0
   43.5370   29.3780   35.5210 C   0  0  0  0  0  0  0  0  0  0  0  0
   43.5380   29.4700   34.4390 H   0  0  0  0  0  0  0  0  0  0  0  0
   44.0090   30.3980   36.3420 C   0  0  0  0  0  0  0  0  0  0  0  0
   44.5530   31.6610   36.2240 C   0  0  0  0  0  0  0  0  0  0  0  0
   47.2280   31.4510   38.9770 N   0  0  0  0  0  0  0  0  0  0  0  0
   47.5340   31.5100   37.9740 H   0  0  0  0  0  0  0  0  0  0  0  0
   47.3630   30.5600   39.4910 H   0  0  0  0  0  0  0  0  0  0  0  0
   43.0480   34.2300   40.1520 S   0  0  0  0  0  0  0  0  0  0  0  0
   40.7100   33.1760   40.8800 C   0  0  0  0  0  0  0  0  0  0  0  0
   42.0960   33.0150   41.0260 C   0  0  0  0  0  0  0  0  0  0  0  0
   42.6400   31.9770   41.7680 C   0  0  0  0  0  0  0  0  0  0  0  0
   41.8150   31.0630   42.3880 C   0  0  0  0  0  0  0  0  0  0  0  0
   40.4220   31.2000   42.2570 C   0  0  0  0  0  0  0  0  0  0  0  0
   39.8710   32.2360   41.5180 C   0  0  0  0  0  0  0  0  0  0  0  0
   39.8270   30.1510   42.9780 O   0  0  0  0  0  0  0  0  0  0  0  0
   40.8170   29.5750   43.7530 C   0  0  0  0  0  0  0  0  0  0  0  0
   42.0480   29.9450   43.1730 O   0  0  0  0  0  0  0  0  0  0  0  0
   40.2270   33.9450   40.3300 H   0  0  0  0  0  0  0  0  0  0  0  0
   43.7150   31.9200   41.8360 H   0  0  0  0  0  0  0  0  0  0  0  0
   38.7980   32.2900   41.4560 H   0  0  0  0  0  0  0  0  0  0  0  0
   40.7560   28.4580   43.6100 H   0  0  0  0  0  0  0  0  0  0  0  0
   40.7630   29.7520   44.8290 H   0  0  0  0  0  0  0  0  0  0  0  0
   47.6940   35.1950   41.9430 O   0  0  0  0  0  0  0  0  0  0  0  0
   48.9390   35.6500   41.4660 C   0  0  0  0  0  0  0  0  0  0  0  0
   49.9590   34.8180   41.8120 F   0  0  0  0  0  0  0  0  0  0  0  0
   48.8090   35.7700   40.0730 F   0  0  0  0  0  0  0  0  0  0  0  0
   49.1850   36.8880   42.0340 F   0  0  0  0  0  0  0  0  0  0  0  0
  1  6  1  0  0  0  0
  2  3  1  0  0  0  0
  2  1  2  0  0  0  0
  3  4  2  0  0  0  0
  4  5  1  0  0  0  0
  5 37  1  0  0  0  0
  6  5  2  0  0  0  0
  7  8  1  0  0  0  0
  8  9  2  0  0  0  0
  8  2  1  0  0  0  0
  9 10  1  0  0  0  0
 11  9  1  0  0  0  0
 12 11  1  0  0  0  0
 12 13  1  0  0  0  0
 14 12  1  0  0  0  0
 15 14  2  0  0  0  0
 15 17  1  0  0  0  0
 16 15  1  0  0  0  0
 17 11  2  0  0  0  0
 18 17  1  0  0  0  0
 18  7  2  0  0  0  0
 19 21  1  0  0  0  0
 19  3  1  0  0  0  0
 20 19  1  0  0  0  0
 22  1  1  0  0  0  0
 22 24  1  0  0  0  0
 23 24  2  0  0  0  0
 23 28  1  0  0  0  0
 24 25  1  0  0  0  0
 25 33  1  0  0  0  0
 25 26  2  0  0  0  0
 26 31  1  0  0  0  0
 27 26  1  0  0  0  0
 27 29  1  0  0  0  0
 28 27  2  0  0  0  0
 29 30  1  0  0  0  0
 30 36  1  0  0  0  0
 31 30  1  0  0  0  0
 32 23  1  0  0  0  0
 34 28  1  0  0  0  0
 35 30  1  0  0  0  0
 38 39  1  0  0  0  0
 38 37  1  0  0  0  0
 38 41  1  0  0  0  0
 40 38  1  0  0  0  0
M  END
>  <minimizedAffinity>
-5.62156677

>  <minimizedRMSD>
2.60123014

$$$$
