
 OpenBabel03252506043D

 46 51  0  0  0  0  0  0  0  0999 V2000
   44.8300   36.0020   43.3310 Cl  0  0  0  0  0  0  0  0  0  0  0  0
   45.5770   34.7470   44.2730 C   0  0  0  0  0  0  0  0  0  0  0  0
   46.7060   34.0990   43.8020 C   0  0  0  0  0  0  0  0  0  0  0  0
   47.2150   33.1250   44.6220 C   0  0  0  0  0  0  0  0  0  0  0  0
   46.6890   32.7620   45.8470 C   0  0  0  0  0  0  0  0  0  0  0  0
   45.5680   33.4270   46.2830 C   0  0  0  0  0  0  0  0  0  0  0  0
   44.9290   32.9410   47.8420 Cl  0  0  0  0  0  0  0  0  0  0  0  0
   45.0190   34.4090   45.5020 C   0  0  0  0  0  0  0  0  0  0  0  0
   48.1080   32.6160   44.2440 H   0  0  0  0  0  0  0  0  0  0  0  0
   44.1450   34.9020   45.8800 H   0  0  0  0  0  0  0  0  0  0  0  0
   47.3790   31.6960   46.5740 C   0  0  0  0  0  0  0  0  0  0  0  0
   47.4960   30.4100   46.0870 C   0  0  0  0  0  0  0  0  0  0  0  0
   48.1460   29.3840   46.7570 C   0  0  0  0  0  0  0  0  0  0  0  0
   48.7130   29.6570   47.9890 C   0  0  0  0  0  0  0  0  0  0  0  0
   49.3340   28.6360   48.6090 N   0  0  0  0  0  0  0  0  0  0  0  0
   49.9220   28.8070   49.8240 C   0  0  0  0  0  0  0  0  0  0  0  0
   49.8440   30.0720   50.3750 C   0  0  0  0  0  0  0  0  0  0  0  0
   49.2080   31.0930   49.7280 C   0  0  0  0  0  0  0  0  0  0  0  0
   48.6190   30.9140   48.5050 C   0  0  0  0  0  0  0  0  0  0  0  0
   47.9660   31.9180   47.8150 C   0  0  0  0  0  0  0  0  0  0  0  0
   47.0370   30.2430   45.1160 H   0  0  0  0  0  0  0  0  0  0  0  0
   48.1780   28.4100   46.2800 H   0  0  0  0  0  0  0  0  0  0  0  0
   50.4100   27.9400   50.2760 H   0  0  0  0  0  0  0  0  0  0  0  0
   50.3140   30.1990   51.3410 H   0  0  0  0  0  0  0  0  0  0  0  0
   49.1750   32.0720   50.2050 H   0  0  0  0  0  0  0  0  0  0  0  0
   47.9240   32.8970   48.2770 H   0  0  0  0  0  0  0  0  0  0  0  0
   48.9250   35.5760   41.3260 C   0  0  0  0  0  0  0  0  0  0  0  0
   48.4560   35.0470   40.1160 C   0  0  0  0  0  0  0  0  0  0  0  0
   47.3570   34.1650   40.1530 C   0  0  0  0  0  0  0  0  0  0  0  0
   46.8380   33.8990   41.3660 N   0  0  0  0  0  0  0  0  0  0  0  0
   47.3130   34.4280   42.5240 C   0  0  0  0  0  0  0  0  0  0  0  0
   48.3550   35.2670   42.5100 N   0  0  0  0  0  0  0  0  0  0  0  0
   49.7630   36.2510   41.3110 H   0  0  0  0  0  0  0  0  0  0  0  0
   48.8820   35.2690   39.1660 H   0  0  0  0  0  0  0  0  0  0  0  0
   45.5380   32.9600   39.1460 C   0  0  0  0  0  3  0  0  0  0  0  0
   46.7670   33.5400   38.9780 C   0  0  0  0  0  0  0  0  0  0  0  0
   47.3920   33.5170   37.7500 C   0  0  0  0  0  0  0  0  0  0  0  0
   48.3490   33.9660   37.6090 H   0  0  0  0  0  0  0  0  0  0  0  0
   46.8080   32.9170   36.6540 C   0  0  0  0  0  0  0  0  0  0  0  0
   47.1820   32.7530   35.3730 N   0  0  0  0  0  0  0  0  0  0  0  0
   48.1050   33.1200   35.0010 H   0  0  0  0  0  0  0  0  0  0  0  0
   46.2300   32.0930   34.7380 N   0  0  0  0  0  0  0  0  0  0  0  0
   45.2180   31.8100   35.5790 C   0  0  0  0  0  0  0  0  0  0  0  0
   44.3160   31.2860   35.3430 H   0  0  0  0  0  0  0  0  0  0  0  0
   45.5560   32.3280   36.8310 C   0  0  0  0  0  0  0  0  0  0  0  0
   44.9040   32.3380   38.0660 C   0  0  0  0  0  3  0  0  0  0  0  0
  1  2  1  0  0  0  0
  2  8  1  0  0  0  0
  3  2  2  0  0  0  0
  3  4  1  0  0  0  0
  4  5  2  0  0  0  0
  5  6  1  0  0  0  0
  5 11  1  0  0  0  0
  6  7  1  0  0  0  0
  8 10  1  0  0  0  0
  8  6  2  0  0  0  0
  9  4  1  0  0  0  0
 11 20  1  0  0  0  0
 12 11  2  0  0  0  0
 12 13  1  0  0  0  0
 13 14  2  0  0  0  0
 14 19  1  0  0  0  0
 14 15  1  0  0  0  0
 15 16  2  0  0  0  0
 16 23  1  0  0  0  0
 16 17  1  0  0  0  0
 17 24  1  0  0  0  0
 18 25  1  0  0  0  0
 18 17  2  0  0  0  0
 19 18  1  0  0  0  0
 20 26  1  0  0  0  0
 20 19  2  0  0  0  0
 21 12  1  0  0  0  0
 22 13  1  0  0  0  0
 27 32  1  0  0  0  0
 28 29  1  0  0  0  0
 28 27  2  0  0  0  0
 29 30  2  0  0  0  0
 30 31  1  0  0  0  0
 31  3  1  0  0  0  0
 32 31  2  0  0  0  0
 33 27  1  0  0  0  0
 34 28  1  0  0  0  0
 36 35  1  0  0  0  0
 36 29  1  0  0  0  0
 37 36  2  0  0  0  0
 38 37  1  0  0  0  0
 39 45  2  0  0  0  0
 39 37  1  0  0  0  0
 40 39  1  0  0  0  0
 41 40  1  0  0  0  0
 42 40  1  0  0  0  0
 42 43  2  0  0  0  0
 43 45  1  0  0  0  0
 44 43  1  0  0  0  0
 45 46  1  0  0  0  0
 46 35  2  0  0  0  0
M  END
>  <minimizedAffinity>
-7.90420675

>  <minimizedRMSD>
0.965161622

$$$$
