
 OpenBabel03252506043D

 46 51  0  0  0  0  0  0  0  0999 V2000
   44.8170   36.0060   43.3430 Cl  0  0  0  0  0  0  0  0  0  0  0  0
   45.5650   34.7520   44.2850 C   0  0  0  0  0  0  0  0  0  0  0  0
   46.6870   34.0950   43.8070 C   0  0  0  0  0  0  0  0  0  0  0  0
   47.1980   33.1230   44.6280 C   0  0  0  0  0  0  0  0  0  0  0  0
   46.6810   32.7690   45.8600 C   0  0  0  0  0  0  0  0  0  0  0  0
   45.5670   33.4420   46.3010 C   0  0  0  0  0  0  0  0  0  0  0  0
   44.9390   32.9660   47.8680 Cl  0  0  0  0  0  0  0  0  0  0  0  0
   45.0160   34.4220   45.5200 C   0  0  0  0  0  0  0  0  0  0  0  0
   48.0860   32.6080   44.2450 H   0  0  0  0  0  0  0  0  0  0  0  0
   44.1480   34.9220   45.9030 H   0  0  0  0  0  0  0  0  0  0  0  0
   47.3720   31.7030   46.5860 C   0  0  0  0  0  0  0  0  0  0  0  0
   47.4830   30.4160   46.1020 C   0  0  0  0  0  0  0  0  0  0  0  0
   48.1330   29.3900   46.7720 C   0  0  0  0  0  0  0  0  0  0  0  0
   48.7080   29.6650   48.0000 C   0  0  0  0  0  0  0  0  0  0  0  0
   49.3290   28.6440   48.6190 N   0  0  0  0  0  0  0  0  0  0  0  0
   49.9240   28.8170   49.8310 C   0  0  0  0  0  0  0  0  0  0  0  0
   49.8530   30.0840   50.3780 C   0  0  0  0  0  0  0  0  0  0  0  0
   49.2170   31.1040   49.7320 C   0  0  0  0  0  0  0  0  0  0  0  0
   48.6200   30.9240   48.5120 C   0  0  0  0  0  0  0  0  0  0  0  0
   47.9670   31.9280   47.8230 C   0  0  0  0  0  0  0  0  0  0  0  0
   47.0170   30.2460   45.1340 H   0  0  0  0  0  0  0  0  0  0  0  0
   48.1600   28.4140   46.2980 H   0  0  0  0  0  0  0  0  0  0  0  0
   50.4130   27.9500   50.2830 H   0  0  0  0  0  0  0  0  0  0  0  0
   50.3280   30.2120   51.3410 H   0  0  0  0  0  0  0  0  0  0  0  0
   49.1890   32.0850   50.2050 H   0  0  0  0  0  0  0  0  0  0  0  0
   47.9300   32.9080   48.2820 H   0  0  0  0  0  0  0  0  0  0  0  0
   48.8800   35.5640   41.3030 C   0  0  0  0  0  0  0  0  0  0  0  0
   48.4100   35.0160   40.1020 C   0  0  0  0  0  0  0  0  0  0  0  0
   47.3190   34.1250   40.1550 C   0  0  0  0  0  0  0  0  0  0  0  0
   46.8090   33.8680   41.3730 N   0  0  0  0  0  0  0  0  0  0  0  0
   47.2840   34.4150   42.5230 C   0  0  0  0  0  0  0  0  0  0  0  0
   48.3190   35.2630   42.4940 N   0  0  0  0  0  0  0  0  0  0  0  0
   49.7120   36.2460   41.2770 H   0  0  0  0  0  0  0  0  0  0  0  0
   48.8290   35.2310   39.1470 H   0  0  0  0  0  0  0  0  0  0  0  0
   47.4660   33.5100   37.8370 C   0  0  0  0  0  3  0  0  0  0  0  0
   46.7290   33.4810   38.9900 C   0  0  0  0  0  0  0  0  0  0  0  0
   45.4960   32.8690   39.0180 C   0  0  0  0  0  0  0  0  0  0  0  0
   44.9130   32.8400   39.9110 H   0  0  0  0  0  0  0  0  0  0  0  0
   44.9620   32.2670   37.8980 C   0  0  0  0  0  0  0  0  0  0  0  0
   43.8130   31.6150   37.6490 N   0  0  0  0  0  0  0  0  0  0  0  0
   43.0740   31.4640   38.3950 H   0  0  0  0  0  0  0  0  0  0  0  0
   43.8090   31.2370   36.3830 N   0  0  0  0  0  0  0  0  0  0  0  0
   44.9440   31.6280   35.7770 C   0  0  0  0  0  0  0  0  0  0  0  0
   45.2150   31.4620   34.7550 H   0  0  0  0  0  0  0  0  0  0  0  0
   45.7180   32.3000   36.7270 C   0  0  0  0  0  0  0  0  0  0  0  0
   46.9700   32.9140   36.6730 C   0  0  0  0  0  3  0  0  0  0  0  0
  1  2  1  0  0  0  0
  2  8  1  0  0  0  0
  3  2  2  0  0  0  0
  3  4  1  0  0  0  0
  4  5  2  0  0  0  0
  5  6  1  0  0  0  0
  5 11  1  0  0  0  0
  6  7  1  0  0  0  0
  8 10  1  0  0  0  0
  8  6  2  0  0  0  0
  9  4  1  0  0  0  0
 11 20  1  0  0  0  0
 12 11  2  0  0  0  0
 12 13  1  0  0  0  0
 13 14  2  0  0  0  0
 14 19  1  0  0  0  0
 14 15  1  0  0  0  0
 15 16  2  0  0  0  0
 16 23  1  0  0  0  0
 16 17  1  0  0  0  0
 17 24  1  0  0  0  0
 18 25  1  0  0  0  0
 18 17  2  0  0  0  0
 19 18  1  0  0  0  0
 20 26  1  0  0  0  0
 20 19  2  0  0  0  0
 21 12  1  0  0  0  0
 22 13  1  0  0  0  0
 27 32  1  0  0  0  0
 28 29  1  0  0  0  0
 28 27  2  0  0  0  0
 29 30  2  0  0  0  0
 30 31  1  0  0  0  0
 31  3  1  0  0  0  0
 32 31  2  0  0  0  0
 33 27  1  0  0  0  0
 34 28  1  0  0  0  0
 35 36  1  0  0  0  0
 36 37  2  0  0  0  0
 36 29  1  0  0  0  0
 37 38  1  0  0  0  0
 39 37  1  0  0  0  0
 40 39  1  0  0  0  0
 40 41  1  0  0  0  0
 42 40  1  0  0  0  0
 43 42  2  0  0  0  0
 43 45  1  0  0  0  0
 44 43  1  0  0  0  0
 45 39  2  0  0  0  0
 46 45  1  0  0  0  0
 46 35  2  0  0  0  0
M  END
>  <minimizedAffinity>
-7.58941793

>  <minimizedRMSD>
0.75878948

$$$$
