
 OpenBabel03242513073D

 44 49  0  0  0  0  0  0  0  0999 V2000
   45.9960   33.3780   41.6460 C   0  0  0  0  0  0  0  0  0  0  0  0
   47.2030   34.0410   41.3690 C   0  0  0  0  0  0  0  0  0  0  0  0
   48.1650   34.0400   42.3610 C   0  0  0  0  0  0  0  0  0  0  0  0
   47.8660   33.3950   43.5310 N   0  0  0  0  0  0  0  0  0  0  0  0
   46.7110   32.7690   43.7780 C   0  0  0  0  0  0  0  0  0  0  0  0
   45.7690   32.7570   42.8320 N   0  0  0  0  0  0  0  0  0  0  0  0
   45.2080   33.3480   40.9040 H   0  0  0  0  0  0  0  0  0  0  0  0
   46.6760   30.7580   45.1880 C   0  0  0  0  0  0  0  0  0  0  0  0
   46.5030   32.1180   45.0540 C   0  0  0  0  0  0  0  0  0  0  0  0
   46.1170   32.9440   46.1240 C   0  0  0  0  0  0  0  0  0  0  0  0
   45.8970   32.3910   47.3820 C   0  0  0  0  0  0  0  0  0  0  0  0
   45.5330   32.8450   48.6060 N   0  0  0  0  0  0  0  0  0  0  0  0
   45.4900   31.7800   49.4570 C   0  0  0  0  0  0  0  0  0  0  0  0
   45.8270   30.6860   48.7480 N   0  0  0  0  0  0  0  0  0  0  0  0
   46.0830   31.0270   47.4740 C   0  0  0  0  0  0  0  0  0  0  0  0
   46.4600   30.1840   46.4400 C   0  0  0  0  0  0  0  0  0  0  0  0
   46.9690   30.1330   44.3690 H   0  0  0  0  0  0  0  0  0  0  0  0
   45.9830   34.0080   46.0100 H   0  0  0  0  0  0  0  0  0  0  0  0
   45.3480   33.8750   48.7250 H   0  0  0  0  0  0  0  0  0  0  0  0
   45.2070   32.0230   50.4720 H   0  0  0  0  0  0  0  0  0  0  0  0
   46.5830   29.1250   46.6010 H   0  0  0  0  0  0  0  0  0  0  0  0
   49.4570   34.7210   42.1300 C   0  0  0  0  0  0  0  0  0  0  0  0
   49.2830   35.8420   41.3090 F   0  0  0  0  0  0  0  0  0  0  0  0
   49.9710   35.1900   43.3140 F   0  0  0  0  0  0  0  0  0  0  0  0
   50.3110   33.8350   41.5190 F   0  0  0  0  0  0  0  0  0  0  0  0
   47.3650   34.6390   40.1640 O   0  0  0  0  0  0  0  0  0  0  0  0
   47.3710   33.9310   38.9830 C   0  0  0  0  0  0  0  0  0  0  0  0
   48.5100   34.4000   38.3430 C   0  0  0  0  0  0  0  0  0  0  0  0
   48.5210   33.4470   36.7580 S   0  0  0  0  0  0  0  0  0  0  0  0
   46.9460   32.5690   37.2600 C   0  0  0  0  0  0  0  0  0  0  0  0
   46.7910   33.0450   38.2370 N   0  0  0  0  0  0  0  0  0  0  0  0
   49.5150   35.1000   38.2500 H   0  0  0  0  0  0  0  0  0  0  0  0
   46.7930   30.2700   36.4600 C   0  0  0  0  0  0  0  0  0  0  0  0
   46.2390   31.5290   36.4230 C   0  0  0  0  0  0  0  0  0  0  0  0
   45.1390   31.9430   35.7270 C   0  0  0  0  0  0  0  0  0  0  0  0
   44.7850   32.9630   35.7680 H   0  0  0  0  0  0  0  0  0  0  0  0
   44.5090   30.9700   34.9680 C   0  0  0  0  0  0  0  0  0  0  0  0
   43.4180   31.0030   34.1650 N   0  0  0  0  0  0  0  0  0  0  0  0
   42.8460   31.8720   33.9980 H   0  0  0  0  0  0  0  0  0  0  0  0
   43.2350   29.7820   33.6640 N   0  0  0  0  0  0  0  0  0  0  0  0
   44.1780   28.9360   34.1140 C   0  0  0  0  0  0  0  0  0  0  0  0
   44.2570   27.8850   33.8600 H   0  0  0  0  0  0  0  0  0  0  0  0
   45.0030   29.6760   34.9490 C   0  0  0  0  0  0  0  0  0  0  0  0
   46.1130   29.3580   35.6820 C   0  0  0  0  0  0  0  0  0  0  0  0
  1  6  1  0  0  0  0
  2  1  2  0  0  0  0
  2  3  1  0  0  0  0
  3  4  2  0  0  0  0
  4  5  1  0  0  0  0
  5  9  1  0  0  0  0
  6  5  2  0  0  0  0
  7  1  1  0  0  0  0
  8 16  1  0  0  0  0
  9  8  2  0  0  0  0
  9 10  1  0  0  0  0
 10 11  2  0  0  0  0
 11 15  1  0  0  0  0
 11 12  1  0  0  0  0
 12 19  1  0  0  0  0
 12 13  1  0  0  0  0
 13 20  1  0  0  0  0
 14 13  2  0  0  0  0
 15 14  1  0  0  0  0
 16 21  1  0  0  0  0
 16 15  2  0  0  0  0
 17  8  1  0  0  0  0
 18 10  1  0  0  0  0
 22  3  1  0  0  0  0
 22 24  1  0  0  0  0
 23 22  1  0  0  0  0
 25 22  1  0  0  0  0
 26  2  1  0  0  0  0
 27 26  1  0  0  0  0
 28 27  2  0  0  0  0
 29 30  1  0  0  0  0
 29 28  1  0  0  0  0
 30 31  2  0  0  0  0
 31 27  1  0  0  0  0
 32 28  1  0  0  0  0
 34 33  1  0  0  0  0
 34 30  1  0  0  0  0
 35 36  1  0  0  0  0
 35 34  2  0  0  0  0
 37 35  1  0  0  0  0
 38 37  1  0  0  0  0
 39 38  1  0  0  0  0
 40 41  2  0  0  0  0
 40 38  1  0  0  0  0
 41 43  1  0  0  0  0
 42 41  1  0  0  0  0
 43 37  2  0  0  0  0
 43 44  1  0  0  0  0
 44 33  2  0  0  0  0
M  END
>  <minimizedAffinity>
-7.02910757

>  <minimizedRMSD>
0.722077668

$$$$
