
 OpenBabel03242511223D

 42 46  0  0  1  0  0  0  0  0999 V2000
   38.0720   29.1140   42.8760 C   0  0  0  0  0  0  0  0  0  0  0  0
   37.0180   29.0480   42.6180 H   0  0  0  0  0  0  0  0  0  0  0  0
   38.0960   29.2570   43.9960 H   0  0  0  0  0  0  0  0  0  0  0  0
   38.8650   30.1310   42.1990 C   0  0  0  0  0  0  0  0  0  0  0  0
   38.3090   30.9810   41.3980 C   0  0  0  0  0  0  0  0  0  0  0  0
   39.0550   31.9700   40.7340 N   0  0  0  0  0  0  0  0  0  0  0  0
   39.1870   33.3530   40.3640 C   0  0  0  0  0  0  0  0  0  0  0  0
   38.3800   34.3140   40.1570 O   0  0  0  0  0  0  0  0  0  0  0  0
   40.6660   33.0950   40.3490 C   0  0  0  0  0  0  0  0  0  0  0  0
   40.3210   31.6590   40.0230 C   0  0  1  0  0  0  0  0  0  0  0  0
   41.2100   30.3990   40.9360 S   0  0  0  0  0  0  0  0  0  0  0  0
   40.3150   30.1080   42.4960 C   0  0  0  0  0  0  0  0  0  0  0  0
   41.1660   33.2500   41.3230 H   0  0  0  0  0  0  0  0  0  0  0  0
   41.1730   33.5500   39.4680 H   0  0  0  0  0  0  0  0  0  0  0  0
   40.1770   31.4800   38.9580 H   0  0  0  0  0  0  0  0  0  0  0  0
   40.6830   29.1570   42.8750 H   0  0  0  0  0  0  0  0  0  0  0  0
   40.5580   30.9010   43.2450 H   0  0  0  0  0  0  0  0  0  0  0  0
   36.8550   30.9190   41.1720 C   0  0  0  0  0  0  0  0  0  0  0  0
   36.3080   30.7340   40.0420 O   0  0  0  0  0  0  0  0  0  0  0  0
   35.5070   30.9110   41.2830 O   0  0  0  0  0  0  0  0  0  0  0  0
   34.9460   30.7550   42.1050 H   0  0  0  0  0  0  0  0  0  0  0  0
   38.8020   27.4490   42.5910 S   0  0  0  0  0  0  0  0  0  0  0  0
   36.6840   24.7010   40.4970 C   0  0  0  0  0  0  0  0  0  0  0  0
   37.4850   25.2880   41.5250 C   0  0  0  0  0  0  0  0  0  0  0  0
   37.8090   26.6470   41.3570 C   0  0  0  0  0  0  0  0  0  0  0  0
   37.3510   27.2980   40.2560 N   0  0  0  0  0  0  0  0  0  0  0  0
   36.6020   26.6990   39.3210 C   0  0  0  0  0  0  0  0  0  0  0  0
   36.2660   25.4080   39.4340 N   0  0  0  0  0  0  0  0  0  0  0  0
   36.4230   23.6400   40.6130 H   0  0  0  0  0  0  0  0  0  0  0  0
   37.8130   24.7050   42.3720 H   0  0  0  0  0  0  0  0  0  0  0  0
   34.9400   28.1350   38.1400 C   0  0  0  0  0  3  0  0  0  0  0  0
   36.1670   27.5030   38.1810 C   0  0  0  0  0  0  0  0  0  0  0  0
   37.0420   27.6230   37.1030 C   0  0  0  0  0  0  0  0  0  0  0  0
   38.0190   27.1420   37.0950 H   0  0  0  0  0  0  0  0  0  0  0  0
   36.6810   28.3800   35.9860 C   0  0  0  0  0  0  0  0  0  0  0  0
   37.3790   28.6230   34.8420 N   0  0  0  0  0  0  0  0  0  0  0  0
   38.3320   28.2980   34.5500 H   0  0  0  0  0  0  0  0  0  0  0  0
   36.6250   29.4020   34.0560 N   0  0  0  0  0  0  0  0  0  0  0  0
   35.4670   29.6380   34.7150 C   0  0  0  0  0  0  0  0  0  0  0  0
   34.6170   30.2410   34.3650 H   0  0  0  0  0  0  0  0  0  0  0  0
   35.4560   29.0120   35.9390 C   0  0  0  0  0  0  0  0  0  0  0  0
   34.6120   28.8750   37.0210 C   0  0  0  0  0  3  0  0  0  0  0  0
  1  3  1  0  0  0  0
  2  1  1  0  0  0  0
  4 12  1  0  0  0  0
  4  1  1  0  0  0  0
  5  4  2  0  0  0  0
  6  5  1  0  0  0  0
  7  6  1  0  0  0  0
  8  7  2  0  0  0  0
  9  7  1  0  0  0  0
  9 13  1  0  0  0  0
 10 15  1  6  0  0  0
 10  9  1  0  0  0  0
 10  6  1  0  0  0  0
 10 11  1  0  0  0  0
 11 12  1  0  0  0  0
 12 16  1  0  0  0  0
 12 17  1  0  0  0  0
 14  9  1  0  0  0  0
 18 20  1  0  0  0  0
 18  5  1  0  0  0  0
 19 18  2  0  0  0  0
 20 21  1  0  0  0  0
 22  1  1  0  0  0  0
 23 29  1  0  0  0  0
 23 24  1  0  0  0  0
 24 30  1  0  0  0  0
 25 24  2  0  0  0  0
 25 22  1  0  0  0  0
 26 25  1  0  0  0  0
 27 28  1  0  0  0  0
 27 26  2  0  0  0  0
 28 23  2  0  0  0  0
 31 32  1  0  0  0  0
 32 27  1  0  0  0  0
 33 32  2  0  0  0  0
 34 33  1  0  0  0  0
 35 33  1  0  0  0  0
 36 35  1  0  0  0  0
 37 36  1  0  0  0  0
 38 39  2  0  0  0  0
 38 36  1  0  0  0  0
 39 41  1  0  0  0  0
 40 39  1  0  0  0  0
 41 35  2  0  0  0  0
 41 42  1  0  0  0  0
 42 31  2  0  0  0  0
M  END
>  <minimizedAffinity>
-6.60233688

$$$$

 OpenBabel03242511223D

 42 46  0  0  1  0  0  0  0  0999 V2000
   44.7310   33.9070   39.4710 C   0  0  0  0  0  0  0  0  0  0  0  0
   44.2900   34.6880   38.8570 H   0  0  0  0  0  0  0  0  0  0  0  0
   45.8150   34.2020   39.5930 H   0  0  0  0  0  0  0  0  0  0  0  0
   44.6090   32.5350   38.9990 C   0  0  0  0  0  0  0  0  0  0  0  0
   43.8540   32.2460   37.9890 C   0  0  0  0  0  0  0  0  0  0  0  0
   43.7210   30.9280   37.5180 N   0  0  0  0  0  0  0  0  0  0  0  0
   43.7150   30.0310   36.3930 C   0  0  0  0  0  0  0  0  0  0  0  0
   43.4340   30.1340   35.1570 O   0  0  0  0  0  0  0  0  0  0  0  0
   44.1810   28.9860   37.3650 C   0  0  0  0  0  0  0  0  0  0  0  0
   43.4660   29.7850   38.4300 C   0  0  1  0  0  0  0  0  0  0  0  0
   44.3580   30.0500   39.9610 S   0  0  0  0  0  0  0  0  0  0  0  0
   45.3960   31.5310   39.7510 C   0  0  0  0  0  0  0  0  0  0  0  0
   45.2790   28.9250   37.4780 H   0  0  0  0  0  0  0  0  0  0  0  0
   43.6540   28.0130   37.2330 H   0  0  0  0  0  0  0  0  0  0  0  0
   42.4080   29.5400   38.5180 H   0  0  0  0  0  0  0  0  0  0  0  0
   45.6790   31.8410   40.7550 H   0  0  0  0  0  0  0  0  0  0  0  0
   46.3280   31.2850   39.1850 H   0  0  0  0  0  0  0  0  0  0  0  0
   43.1120   33.3200   37.3080 C   0  0  0  0  0  0  0  0  0  0  0  0
   41.8510   33.3500   37.1670 O   0  0  0  0  0  0  0  0  0  0  0  0
   42.7260   34.4320   36.6410 O   0  0  0  0  0  0  0  0  0  0  0  0
   43.2310   35.2940   36.5130 H   0  0  0  0  0  0  0  0  0  0  0  0
   44.0000   34.0650   41.1520 S   0  0  0  0  0  0  0  0  0  0  0  0
   40.0300   34.0180   40.3420 C   0  0  0  0  0  0  0  0  0  0  0  0
   41.3870   34.4630   40.4090 C   0  0  0  0  0  0  0  0  0  0  0  0
   42.2960   33.5860   41.0290 C   0  0  0  0  0  0  0  0  0  0  0  0
   41.8370   32.4020   41.5120 N   0  0  0  0  0  0  0  0  0  0  0  0
   40.5530   32.0330   41.4230 C   0  0  0  0  0  0  0  0  0  0  0  0
   39.6480   32.8310   40.8420 N   0  0  0  0  0  0  0  0  0  0  0  0
   39.3070   34.6920   39.8610 H   0  0  0  0  0  0  0  0  0  0  0  0
   41.6770   35.4190   40.0020 H   0  0  0  0  0  0  0  0  0  0  0  0
   41.0530   29.6670   42.0340 C   0  0  0  0  0  3  0  0  0  0  0  0
   40.1780   30.7350   41.9790 C   0  0  0  0  0  0  0  0  0  0  0  0
   38.8810   30.5910   42.4670 C   0  0  0  0  0  0  0  0  0  0  0  0
   38.1590   31.4060   42.4430 H   0  0  0  0  0  0  0  0  0  0  0  0
   38.4660   29.3720   43.0110 C   0  0  0  0  0  0  0  0  0  0  0  0
   37.2580   29.0240   43.5370 N   0  0  0  0  0  0  0  0  0  0  0  0
   36.3820   29.5890   43.6470 H   0  0  0  0  0  0  0  0  0  0  0  0
   37.3330   27.7480   43.9330 N   0  0  0  0  0  0  0  0  0  0  0  0
   38.5840   27.3110   43.6520 C   0  0  0  0  0  0  0  0  0  0  0  0
   38.9940   26.3100   43.8430 H   0  0  0  0  0  0  0  0  0  0  0  0
   39.3360   28.3030   43.0680 C   0  0  0  0  0  0  0  0  0  0  0  0
   40.6130   28.4770   42.5770 C   0  0  0  0  0  3  0  0  0  0  0  0
  1  3  1  0  0  0  0
  1 22  1  0  0  0  0
  2  1  1  0  0  0  0
  4  1  1  0  0  0  0
  4 12  1  0  0  0  0
  5  4  2  0  0  0  0
  6  5  1  0  0  0  0
  6 10  1  0  0  0  0
  7  9  1  0  0  0  0
  7  6  1  0  0  0  0
  8  7  2  0  0  0  0
  9 13  1  0  0  0  0
  9 10  1  0  0  0  0
 10 15  1  1  0  0  0
 10 11  1  0  0  0  0
 12 11  1  0  0  0  0
 12 16  1  0  0  0  0
 14  9  1  0  0  0  0
 17 12  1  0  0  0  0
 18  5  1  0  0  0  0
 19 18  2  0  0  0  0
 20 18  1  0  0  0  0
 21 20  1  0  0  0  0
 23 24  2  0  0  0  0
 23 28  1  0  0  0  0
 24 25  1  0  0  0  0
 25 22  1  0  0  0  0
 25 26  2  0  0  0  0
 27 26  1  0  0  0  0
 27 32  1  0  0  0  0
 28 27  2  0  0  0  0
 29 23  1  0  0  0  0
 30 24  1  0  0  0  0
 31 42  1  0  0  0  0
 32 31  2  0  0  0  0
 32 33  1  0  0  0  0
 33 35  2  0  0  0  0
 34 33  1  0  0  0  0
 35 41  1  0  0  0  0
 35 36  1  0  0  0  0
 36 37  1  0  0  0  0
 36 38  1  0  0  0  0
 39 40  1  0  0  0  0
 39 38  2  0  0  0  0
 41 39  1  0  0  0  0
 42 41  2  0  0  0  0
M  END
>  <minimizedAffinity>
-6.45259333

$$$$

 OpenBabel03242511223D

 42 46  0  0  1  0  0  0  0  0999 V2000
   38.8190   31.2300   40.3250 C   0  0  0  0  0  0  0  0  0  0  0  0
   38.0830   31.6910   40.9790 H   0  0  0  0  0  0  0  0  0  0  0  0
   39.5060   32.0700   40.0110 H   0  0  0  0  0  0  0  0  0  0  0  0
   38.3210   30.4980   39.1690 C   0  0  0  0  0  0  0  0  0  0  0  0
   37.1010   30.0690   39.1300 C   0  0  0  0  0  0  0  0  0  0  0  0
   36.6000   29.3600   38.0250 N   0  0  0  0  0  0  0  0  0  0  0  0
   35.5440   29.1890   37.0650 C   0  0  0  0  0  0  0  0  0  0  0  0
   34.2920   29.4130   37.0480 O   0  0  0  0  0  0  0  0  0  0  0  0
   36.6080   28.6450   36.1550 C   0  0  0  0  0  0  0  0  0  0  0  0
   37.3430   28.2310   37.4090 C   0  0  1  0  0  0  0  0  0  0  0  0
   39.0970   28.5890   37.4600 S   0  0  0  0  0  0  0  0  0  0  0  0
   39.2990   30.2910   38.0780 C   0  0  0  0  0  0  0  0  0  0  0  0
   37.1170   29.4110   35.5410 H   0  0  0  0  0  0  0  0  0  0  0  0
   36.2810   27.7290   35.6120 H   0  0  0  0  0  0  0  0  0  0  0  0
   37.0310   27.2600   37.7920 H   0  0  0  0  0  0  0  0  0  0  0  0
   40.3400   30.3730   38.3840 H   0  0  0  0  0  0  0  0  0  0  0  0
   39.1150   31.0320   37.2620 H   0  0  0  0  0  0  0  0  0  0  0  0
   36.2050   30.3290   40.2700 C   0  0  0  0  0  0  0  0  0  0  0  0
   35.4660   29.4570   40.8220 O   0  0  0  0  0  0  0  0  0  0  0  0
   35.4980   30.8680   41.2900 O   0  0  0  0  0  0  0  0  0  0  0  0
   35.6830   31.7160   41.8020 H   0  0  0  0  0  0  0  0  0  0  0  0
   39.8560   30.1300   41.3720 S   0  0  0  0  0  0  0  0  0  0  0  0
   37.3850   28.0690   43.8360 C   0  0  0  0  0  0  0  0  0  0  0  0
   38.2410   29.1010   43.3410 C   0  0  0  0  0  0  0  0  0  0  0  0
   38.7820   28.8940   42.0580 C   0  0  0  0  0  0  0  0  0  0  0  0
   38.4630   27.7550   41.3890 N   0  0  0  0  0  0  0  0  0  0  0  0
   37.6540   26.8190   41.9000 C   0  0  0  0  0  0  0  0  0  0  0  0
   37.1130   26.9670   43.1160 N   0  0  0  0  0  0  0  0  0  0  0  0
   36.9550   28.2150   44.8360 H   0  0  0  0  0  0  0  0  0  0  0  0
   38.4490   29.9790   43.9320 H   0  0  0  0  0  0  0  0  0  0  0  0
   36.5810   25.6730   39.9620 C   0  0  0  0  0  3  0  0  0  0  0  0
   37.3840   25.6370   41.0860 C   0  0  0  0  0  0  0  0  0  0  0  0
   37.9690   24.4340   41.4770 C   0  0  0  0  0  0  0  0  0  0  0  0
   38.6080   24.3600   42.3560 H   0  0  0  0  0  0  0  0  0  0  0  0
   37.7470   23.2700   40.7360 C   0  0  0  0  0  0  0  0  0  0  0  0
   38.2180   22.0090   40.9420 N   0  0  0  0  0  0  0  0  0  0  0  0
   38.8450   21.6370   41.6960 H   0  0  0  0  0  0  0  0  0  0  0  0
   37.7340   21.2240   39.9710 N   0  0  0  0  0  0  0  0  0  0  0  0
   36.9680   22.0000   39.1690 C   0  0  0  0  0  0  0  0  0  0  0  0
   36.4170   21.6850   38.2730 H   0  0  0  0  0  0  0  0  0  0  0  0
   36.9460   23.3010   39.6130 C   0  0  0  0  0  0  0  0  0  0  0  0
   36.3800   24.5070   39.2510 C   0  0  0  0  0  3  0  0  0  0  0  0
  1  2  1  0  0  0  0
  1 22  1  0  0  0  0
  3  1  1  0  0  0  0
  4  1  1  0  0  0  0
  5  4  2  0  0  0  0
  5 18  1  0  0  0  0
  6  5  1  0  0  0  0
  7  6  1  0  0  0  0
  8  7  2  0  0  0  0
  9  7  1  0  0  0  0
  9 10  1  0  0  0  0
 10 11  1  0  0  0  0
 10 15  1  1  0  0  0
 10  6  1  0  0  0  0
 11 12  1  0  0  0  0
 12 16  1  0  0  0  0
 12  4  1  0  0  0  0
 13  9  1  0  0  0  0
 14  9  1  0  0  0  0
 17 12  1  0  0  0  0
 18 19  2  0  0  0  0
 18 20  1  0  0  0  0
 20 21  1  0  0  0  0
 22 25  1  0  0  0  0
 23 29  1  0  0  0  0
 24 23  1  0  0  0  0
 24 30  1  0  0  0  0
 25 24  2  0  0  0  0
 26 27  2  0  0  0  0
 26 25  1  0  0  0  0
 27 28  1  0  0  0  0
 28 23  2  0  0  0  0
 31 32  1  0  0  0  0
 32 33  2  0  0  0  0
 32 27  1  0  0  0  0
 33 34  1  0  0  0  0
 35 36  1  0  0  0  0
 35 33  1  0  0  0  0
 36 37  1  0  0  0  0
 38 36  1  0  0  0  0
 39 41  1  0  0  0  0
 39 38  2  0  0  0  0
 40 39  1  0  0  0  0
 41 35  2  0  0  0  0
 42 41  1  0  0  0  0
 42 31  2  0  0  0  0
M  END
>  <minimizedAffinity>
-6.38590765

$$$$

 OpenBabel03242511223D

 42 46  0  0  1  0  0  0  0  0999 V2000
   40.1870   33.6220   39.1620 C   0  0  0  0  0  0  0  0  0  0  0  0
   39.6510   33.8930   40.0680 H   0  0  0  0  0  0  0  0  0  0  0  0
   39.9900   34.4640   38.4350 H   0  0  0  0  0  0  0  0  0  0  0  0
   39.8810   32.3290   38.5650 C   0  0  0  0  0  0  0  0  0  0  0  0
   38.7750   31.7170   38.8410 C   0  0  0  0  0  0  0  0  0  0  0  0
   38.4600   30.4680   38.2770 N   0  0  0  0  0  0  0  0  0  0  0  0
   37.4870   29.6420   37.6150 C   0  0  0  0  0  0  0  0  0  0  0  0
   36.2170   29.5860   37.5890 O   0  0  0  0  0  0  0  0  0  0  0  0
   38.6630   28.9290   37.0130 C   0  0  0  0  0  0  0  0  0  0  0  0
   39.4330   29.3480   38.2450 C   0  0  1  0  0  0  0  0  0  0  0  0
   41.0750   30.0080   37.9720 S   0  0  0  0  0  0  0  0  0  0  0  0
   40.9100   31.7930   37.6460 C   0  0  0  0  0  0  0  0  0  0  0  0
   39.0230   29.3640   36.0630 H   0  0  0  0  0  0  0  0  0  0  0  0
   38.5450   27.8210   37.0240 H   0  0  0  0  0  0  0  0  0  0  0  0
   39.3170   28.6610   39.0830 H   0  0  0  0  0  0  0  0  0  0  0  0
   41.9040   32.2140   37.7870 H   0  0  0  0  0  0  0  0  0  0  0  0
   40.6000   31.9750   36.5880 H   0  0  0  0  0  0  0  0  0  0  0  0
   37.8150   32.3380   39.7690 C   0  0  0  0  0  0  0  0  0  0  0  0
   37.1520   31.7090   40.6500 O   0  0  0  0  0  0  0  0  0  0  0  0
   37.0170   33.1780   40.4660 O   0  0  0  0  0  0  0  0  0  0  0  0
   37.0920   34.1790   40.5630 H   0  0  0  0  0  0  0  0  0  0  0  0
   41.9830   33.7310   39.5450 S   0  0  0  0  0  0  0  0  0  0  0  0
   43.5470   32.2370   42.9720 C   0  0  0  0  0  0  0  0  0  0  0  0
   43.3720   33.0610   41.8170 C   0  0  0  0  0  0  0  0  0  0  0  0
   42.2690   32.7540   40.9990 C   0  0  0  0  0  0  0  0  0  0  0  0
   41.4620   31.7190   41.3500 N   0  0  0  0  0  0  0  0  0  0  0  0
   41.6710   30.9780   42.4450 C   0  0  0  0  0  0  0  0  0  0  0  0
   42.7060   31.2290   43.2570 N   0  0  0  0  0  0  0  0  0  0  0  0
   44.4040   32.4640   43.6210 H   0  0  0  0  0  0  0  0  0  0  0  0
   44.0570   33.8670   41.6030 H   0  0  0  0  0  0  0  0  0  0  0  0
   41.1470   28.6060   43.0090 C   0  0  0  0  0  3  0  0  0  0  0  0
   40.7340   29.8920   42.7200 C   0  0  0  0  0  0  0  0  0  0  0  0
   39.3730   30.1870   42.6830 C   0  0  0  0  0  0  0  0  0  0  0  0
   39.0030   31.1870   42.4600 H   0  0  0  0  0  0  0  0  0  0  0  0
   38.4300   29.1880   42.9390 C   0  0  0  0  0  0  0  0  0  0  0  0
   37.0700   29.2650   42.9540 N   0  0  0  0  0  0  0  0  0  0  0  0
   36.4370   30.0820   42.7780 H   0  0  0  0  0  0  0  0  0  0  0  0
   36.5910   28.0490   43.2480 N   0  0  0  0  0  0  0  0  0  0  0  0
   37.6540   27.2270   43.4130 C   0  0  0  0  0  0  0  0  0  0  0  0
   37.6310   26.1570   43.6630 H   0  0  0  0  0  0  0  0  0  0  0  0
   38.8370   27.9020   43.2280 C   0  0  0  0  0  0  0  0  0  0  0  0
   40.1910   27.6410   43.2570 C   0  0  0  0  0  3  0  0  0  0  0  0
  1 22  1  0  0  0  0
  1  2  1  0  0  0  0
  3  1  1  0  0  0  0
  4  5  2  0  0  0  0
  4  1  1  0  0  0  0
  5 18  1  0  0  0  0
  6  5  1  0  0  0  0
  7  6  1  0  0  0  0
  8  7  2  0  0  0  0
  9 14  1  0  0  0  0
  9  7  1  0  0  0  0
  9 10  1  0  0  0  0
 10  6  1  0  0  0  0
 10 15  1  1  0  0  0
 11 10  1  0  0  0  0
 12 16  1  0  0  0  0
 12 11  1  0  0  0  0
 12  4  1  0  0  0  0
 13  9  1  0  0  0  0
 17 12  1  0  0  0  0
 18 20  1  0  0  0  0
 18 19  2  0  0  0  0
 20 21  1  0  0  0  0
 22 25  1  0  0  0  0
 23 28  1  0  0  0  0
 23 29  1  0  0  0  0
 24 23  2  0  0  0  0
 25 26  2  0  0  0  0
 25 24  1  0  0  0  0
 26 27  1  0  0  0  0
 27 32  1  0  0  0  0
 27 28  2  0  0  0  0
 30 24  1  0  0  0  0
 31 42  1  0  0  0  0
 32 31  2  0  0  0  0
 33 32  1  0  0  0  0
 33 35  2  0  0  0  0
 34 33  1  0  0  0  0
 35 36  1  0  0  0  0
 35 41  1  0  0  0  0
 36 38  1  0  0  0  0
 37 36  1  0  0  0  0
 38 39  2  0  0  0  0
 39 40  1  0  0  0  0
 41 42  2  0  0  0  0
 41 39  1  0  0  0  0
M  END
>  <minimizedAffinity>
-6.31693029

$$$$

 OpenBabel03242511223D

 42 46  0  0  1  0  0  0  0  0999 V2000
   36.9520   31.4660   39.0390 C   0  0  0  0  0  0  0  0  0  0  0  0
   37.1160   30.5500   38.4770 H   0  0  0  0  0  0  0  0  0  0  0  0
   36.0560   31.9550   38.5550 H   0  0  0  0  0  0  0  0  0  0  0  0
   38.0670   32.3970   39.1430 C   0  0  0  0  0  0  0  0  0  0  0  0
   39.2370   32.0850   38.6870 C   0  0  0  0  0  0  0  0  0  0  0  0
   40.3260   32.9670   38.7780 N   0  0  0  0  0  0  0  0  0  0  0  0
   41.4370   33.6030   38.1220 C   0  0  0  0  0  0  0  0  0  0  0  0
   42.2030   33.3080   37.1510 O   0  0  0  0  0  0  0  0  0  0  0  0
   41.2380   34.7190   39.1070 C   0  0  0  0  0  0  0  0  0  0  0  0
   40.6660   33.6750   40.0390 C   0  0  1  0  0  0  0  0  0  0  0  0
   39.1520   34.1100   40.8910 S   0  0  0  0  0  0  0  0  0  0  0  0
   37.7580   33.6890   39.7970 C   0  0  0  0  0  0  0  0  0  0  0  0
   40.5260   35.4970   38.7770 H   0  0  0  0  0  0  0  0  0  0  0  0
   42.1980   35.0910   39.5330 H   0  0  0  0  0  0  0  0  0  0  0  0
   41.4240   33.1560   40.6250 H   0  0  0  0  0  0  0  0  0  0  0  0
   36.8760   33.6720   40.4340 H   0  0  0  0  0  0  0  0  0  0  0  0
   37.6130   34.4780   39.0190 H   0  0  0  0  0  0  0  0  0  0  0  0
   39.4400   30.7720   38.0520 C   0  0  0  0  0  0  0  0  0  0  0  0
   40.0450   29.7950   38.5900 O   0  0  0  0  0  0  0  0  0  0  0  0
   39.4640   29.7020   37.2250 O   0  0  0  0  0  0  0  0  0  0  0  0
   38.8700   29.5050   36.4350 H   0  0  0  0  0  0  0  0  0  0  0  0
   36.3790   30.9740   40.7170 S   0  0  0  0  0  0  0  0  0  0  0  0
   38.0520   27.4510   41.8170 C   0  0  0  0  0  0  0  0  0  0  0  0
   37.0980   28.3940   41.3240 C   0  0  0  0  0  0  0  0  0  0  0  0
   37.5070   29.7410   41.3140 C   0  0  0  0  0  0  0  0  0  0  0  0
   38.7520   30.0490   41.7630 N   0  0  0  0  0  0  0  0  0  0  0  0
   39.6090   29.1250   42.2150 C   0  0  0  0  0  0  0  0  0  0  0  0
   39.2680   27.8300   42.2450 N   0  0  0  0  0  0  0  0  0  0  0  0
   37.7480   26.3950   41.8320 H   0  0  0  0  0  0  0  0  0  0  0  0
   36.1260   28.0730   40.9840 H   0  0  0  0  0  0  0  0  0  0  0  0
   41.8480   28.7260   43.2370 C   0  0  0  0  0  3  0  0  0  0  0  0
   40.9200   29.5780   42.6700 C   0  0  0  0  0  0  0  0  0  0  0  0
   41.2270   30.9290   42.5170 C   0  0  0  0  0  0  0  0  0  0  0  0
   40.5260   31.6350   42.0750 H   0  0  0  0  0  0  0  0  0  0  0  0
   42.4680   31.4200   42.9330 C   0  0  0  0  0  0  0  0  0  0  0  0
   42.9610   32.6880   42.8750 N   0  0  0  0  0  0  0  0  0  0  0  0
   42.5230   33.5670   42.5080 H   0  0  0  0  0  0  0  0  0  0  0  0
   44.1950   32.6750   43.3950 N   0  0  0  0  0  0  0  0  0  0  0  0
   44.4600   31.4020   43.7720 C   0  0  0  0  0  0  0  0  0  0  0  0
   45.3830   31.0270   44.2370 H   0  0  0  0  0  0  0  0  0  0  0  0
   43.3970   30.5730   43.5000 C   0  0  0  0  0  0  0  0  0  0  0  0
   43.0650   29.2410   43.6390 C   0  0  0  0  0  3  0  0  0  0  0  0
  1  4  1  0  0  0  0
  1 22  1  0  0  0  0
  2  1  1  0  0  0  0
  3  1  1  0  0  0  0
  4 12  1  0  0  0  0
  5  6  1  0  0  0  0
  5  4  2  0  0  0  0
  6 10  1  0  0  0  0
  7  6  1  0  0  0  0
  7  9  1  0  0  0  0
  8  7  2  0  0  0  0
  9 14  1  0  0  0  0
  9 10  1  0  0  0  0
 10 15  1  1  0  0  0
 10 11  1  0  0  0  0
 12 16  1  0  0  0  0
 12 11  1  0  0  0  0
 13  9  1  0  0  0  0
 17 12  1  0  0  0  0
 18 19  2  0  0  0  0
 18  5  1  0  0  0  0
 20 18  1  0  0  0  0
 21 20  1  0  0  0  0
 22 25  1  0  0  0  0
 23 29  1  0  0  0  0
 23 28  1  0  0  0  0
 24 23  2  0  0  0  0
 25 24  1  0  0  0  0
 25 26  2  0  0  0  0
 26 27  1  0  0  0  0
 27 28  2  0  0  0  0
 27 32  1  0  0  0  0
 30 24  1  0  0  0  0
 31 42  1  0  0  0  0
 32 31  2  0  0  0  0
 33 32  1  0  0  0  0
 33 35  2  0  0  0  0
 34 33  1  0  0  0  0
 35 41  1  0  0  0  0
 36 35  1  0  0  0  0
 36 38  1  0  0  0  0
 37 36  1  0  0  0  0
 38 39  2  0  0  0  0
 39 40  1  0  0  0  0
 41 42  2  0  0  0  0
 41 39  1  0  0  0  0
M  END
>  <minimizedAffinity>
-6.14929771

$$$$

 OpenBabel03242511223D

 42 46  0  0  1  0  0  0  0  0999 V2000
   36.2120   27.9600   41.7960 C   0  0  0  0  0  0  0  0  0  0  0  0
   35.1690   27.7810   42.0460 H   0  0  0  0  0  0  0  0  0  0  0  0
   36.5200   28.8470   42.4240 H   0  0  0  0  0  0  0  0  0  0  0  0
   36.5370   28.1710   40.3920 C   0  0  0  0  0  0  0  0  0  0  0  0
   36.5170   29.3580   39.8780 C   0  0  0  0  0  0  0  0  0  0  0  0
   36.8250   29.5840   38.5250 N   0  0  0  0  0  0  0  0  0  0  0  0
   37.5550   30.3540   37.5540 C   0  0  0  0  0  0  0  0  0  0  0  0
   38.0040   31.5430   37.4960 O   0  0  0  0  0  0  0  0  0  0  0  0
   37.5150   29.1170   36.7050 C   0  0  0  0  0  0  0  0  0  0  0  0
   36.2390   28.7650   37.4340 C   0  0  1  0  0  0  0  0  0  0  0  0
   36.0830   27.0710   37.9950 S   0  0  0  0  0  0  0  0  0  0  0  0
   36.8790   26.9500   39.6280 C   0  0  0  0  0  0  0  0  0  0  0  0
   38.3600   28.4230   36.8700 H   0  0  0  0  0  0  0  0  0  0  0  0
   37.2710   29.3350   35.6400 H   0  0  0  0  0  0  0  0  0  0  0  0
   35.3500   29.2170   36.9950 H   0  0  0  0  0  0  0  0  0  0  0  0
   36.5120   26.0250   40.0690 H   0  0  0  0  0  0  0  0  0  0  0  0
   37.9890   26.8720   39.5230 H   0  0  0  0  0  0  0  0  0  0  0  0
   36.1630   30.5090   40.7250 C   0  0  0  0  0  0  0  0  0  0  0  0
   36.6940   31.6590   40.6390 O   0  0  0  0  0  0  0  0  0  0  0  0
   35.6310   31.3570   41.6350 O   0  0  0  0  0  0  0  0  0  0  0  0
   34.7530   31.2830   42.1240 H   0  0  0  0  0  0  0  0  0  0  0  0
   37.1780   26.5440   42.4630 S   0  0  0  0  0  0  0  0  0  0  0  0
   40.9240   26.9200   43.9630 C   0  0  0  0  0  0  0  0  0  0  0  0
   39.6360   26.3720   43.6770 C   0  0  0  0  0  0  0  0  0  0  0  0
   38.7960   27.1550   42.8640 C   0  0  0  0  0  0  0  0  0  0  0  0
   39.2520   28.3530   42.4140 N   0  0  0  0  0  0  0  0  0  0  0  0
   40.4710   28.8210   42.7120 C   0  0  0  0  0  0  0  0  0  0  0  0
   41.3090   28.1150   43.4820 N   0  0  0  0  0  0  0  0  0  0  0  0
   41.5920   26.3210   44.5970 H   0  0  0  0  0  0  0  0  0  0  0  0
   39.3430   25.4110   44.0710 H   0  0  0  0  0  0  0  0  0  0  0  0
   42.0410   30.7460   42.4900 C   0  0  0  0  0  3  0  0  0  0  0  0
   40.8510   30.1230   42.1690 C   0  0  0  0  0  0  0  0  0  0  0  0
   39.9610   30.7440   41.2950 C   0  0  0  0  0  0  0  0  0  0  0  0
   39.0120   30.2880   41.0140 H   0  0  0  0  0  0  0  0  0  0  0  0
   40.2710   31.9900   40.7430 C   0  0  0  0  0  0  0  0  0  0  0  0
   39.5510   32.7580   39.8790 N   0  0  0  0  0  0  0  0  0  0  0  0
   38.6140   32.5850   39.4410 H   0  0  0  0  0  0  0  0  0  0  0  0
   40.2540   33.8710   39.6330 N   0  0  0  0  0  0  0  0  0  0  0  0
   41.4030   33.7880   40.3430 C   0  0  0  0  0  0  0  0  0  0  0  0
   42.2150   34.5270   40.3780 H   0  0  0  0  0  0  0  0  0  0  0  0
   41.4580   32.6160   41.0610 C   0  0  0  0  0  0  0  0  0  0  0  0
   42.3190   31.9770   41.9300 C   0  0  0  0  0  3  0  0  0  0  0  0
  1  2  1  0  0  0  0
  1  3  1  0  0  0  0
  1 22  1  0  0  0  0
  4  1  1  0  0  0  0
  5  4  2  0  0  0  0
  5 18  1  0  0  0  0
  6  5  1  0  0  0  0
  7  6  1  0  0  0  0
  8  7  2  0  0  0  0
  9 13  1  0  0  0  0
  9 10  1  0  0  0  0
  9  7  1  0  0  0  0
 10 15  1  6  0  0  0
 10 11  1  0  0  0  0
 10  6  1  0  0  0  0
 11 12  1  0  0  0  0
 12 16  1  0  0  0  0
 12  4  1  0  0  0  0
 14  9  1  0  0  0  0
 17 12  1  0  0  0  0
 18 20  1  0  0  0  0
 19 18  2  0  0  0  0
 20 21  1  0  0  0  0
 22 25  1  0  0  0  0
 23 29  1  0  0  0  0
 24 23  1  0  0  0  0
 24 30  1  0  0  0  0
 25 24  2  0  0  0  0
 26 27  2  0  0  0  0
 26 25  1  0  0  0  0
 27 28  1  0  0  0  0
 28 23  2  0  0  0  0
 32 31  1  0  0  0  0
 32 27  1  0  0  0  0
 33 32  2  0  0  0  0
 34 33  1  0  0  0  0
 35 41  2  0  0  0  0
 35 33  1  0  0  0  0
 36 35  1  0  0  0  0
 37 36  1  0  0  0  0
 38 36  1  0  0  0  0
 38 39  2  0  0  0  0
 39 40  1  0  0  0  0
 39 41  1  0  0  0  0
 41 42  1  0  0  0  0
 42 31  2  0  0  0  0
M  END
>  <minimizedAffinity>
-6.13973665

$$$$

 OpenBabel03242511223D

 42 46  0  0  1  0  0  0  0  0999 V2000
   36.6910   31.0710   39.3540 C   0  0  0  0  0  0  0  0  0  0  0  0
   36.7700   30.1030   38.8660 H   0  0  0  0  0  0  0  0  0  0  0  0
   35.7770   31.5580   38.9030 H   0  0  0  0  0  0  0  0  0  0  0  0
   37.8480   31.9530   39.2820 C   0  0  0  0  0  0  0  0  0  0  0  0
   39.0170   31.4900   38.9800 C   0  0  0  0  0  0  0  0  0  0  0  0
   40.1470   32.3230   38.9060 N   0  0  0  0  0  0  0  0  0  0  0  0
   41.3150   32.7290   38.1720 C   0  0  0  0  0  0  0  0  0  0  0  0
   42.1030   32.1690   37.3460 O   0  0  0  0  0  0  0  0  0  0  0  0
   41.1340   34.0630   38.8370 C   0  0  0  0  0  0  0  0  0  0  0  0
   40.4710   33.3090   39.9670 C   0  0  1  0  0  0  0  0  0  0  0  0
   38.9480   34.0040   40.6040 S   0  0  0  0  0  0  0  0  0  0  0  0
   37.5800   33.3790   39.5770 C   0  0  0  0  0  0  0  0  0  0  0  0
   40.4770   34.7620   38.2870 H   0  0  0  0  0  0  0  0  0  0  0  0
   42.0930   34.4910   39.2070 H   0  0  0  0  0  0  0  0  0  0  0  0
   41.1770   32.9240   40.7030 H   0  0  0  0  0  0  0  0  0  0  0  0
   36.6720   33.5570   40.1510 H   0  0  0  0  0  0  0  0  0  0  0  0
   37.5080   33.9530   38.6210 H   0  0  0  0  0  0  0  0  0  0  0  0
   39.1780   30.0520   38.7020 C   0  0  0  0  0  0  0  0  0  0  0  0
   39.6180   29.5720   37.6130 O   0  0  0  0  0  0  0  0  0  0  0  0
   39.2100   28.7010   38.7470 O   0  0  0  0  0  0  0  0  0  0  0  0
   39.2070   28.0990   39.5560 H   0  0  0  0  0  0  0  0  0  0  0  0
   36.2450   30.7540   41.1100 S   0  0  0  0  0  0  0  0  0  0  0  0
   38.7790   28.2450   43.0370 C   0  0  0  0  0  0  0  0  0  0  0  0
   38.0870   29.4400   42.6670 C   0  0  0  0  0  0  0  0  0  0  0  0
   37.1460   29.3150   41.6280 C   0  0  0  0  0  0  0  0  0  0  0  0
   36.9600   28.0960   41.0570 N   0  0  0  0  0  0  0  0  0  0  0  0
   37.6360   27.0060   41.4420 C   0  0  0  0  0  0  0  0  0  0  0  0
   38.5420   27.0710   42.4260 N   0  0  0  0  0  0  0  0  0  0  0  0
   39.5170   28.3260   43.8460 H   0  0  0  0  0  0  0  0  0  0  0  0
   38.2890   30.3740   43.1680 H   0  0  0  0  0  0  0  0  0  0  0  0
   36.4990   25.6720   39.6670 C   0  0  0  0  0  3  0  0  0  0  0  0
   37.3490   25.7500   40.7530 C   0  0  0  0  0  0  0  0  0  0  0  0
   37.9690   24.5960   41.2280 C   0  0  0  0  0  0  0  0  0  0  0  0
   38.6470   24.6120   42.0800 H   0  0  0  0  0  0  0  0  0  0  0  0
   37.7340   23.3660   40.6080 C   0  0  0  0  0  0  0  0  0  0  0  0
   38.2330   22.1350   40.9090 N   0  0  0  0  0  0  0  0  0  0  0  0
   38.8970   21.8410   41.6650 H   0  0  0  0  0  0  0  0  0  0  0  0
   37.7200   21.2570   40.0370 N   0  0  0  0  0  0  0  0  0  0  0  0
   36.9080   21.9470   39.2020 C   0  0  0  0  0  0  0  0  0  0  0  0
   36.3240   21.5430   38.3630 H   0  0  0  0  0  0  0  0  0  0  0  0
   36.8850   23.2830   39.5240 C   0  0  0  0  0  0  0  0  0  0  0  0
   36.2860   24.4430   39.0770 C   0  0  0  0  0  3  0  0  0  0  0  0
  1 22  1  0  0  0  0
  2  1  1  0  0  0  0
  3  1  1  0  0  0  0
  4  1  1  0  0  0  0
  4 12  1  0  0  0  0
  5  4  2  0  0  0  0
  6  5  1  0  0  0  0
  6 10  1  0  0  0  0
  7  9  1  0  0  0  0
  7  6  1  0  0  0  0
  8  7  2  0  0  0  0
  9 14  1  0  0  0  0
  9 10  1  0  0  0  0
 10 11  1  0  0  0  0
 10 15  1  1  0  0  0
 12 16  1  0  0  0  0
 12 11  1  0  0  0  0
 13  9  1  0  0  0  0
 17 12  1  0  0  0  0
 18 20  1  0  0  0  0
 18  5  1  0  0  0  0
 19 18  2  0  0  0  0
 20 21  1  0  0  0  0
 22 25  1  0  0  0  0
 23 29  1  0  0  0  0
 24 23  1  0  0  0  0
 24 30  1  0  0  0  0
 25 24  2  0  0  0  0
 26 27  2  0  0  0  0
 26 25  1  0  0  0  0
 27 28  1  0  0  0  0
 28 23  2  0  0  0  0
 31 32  1  0  0  0  0
 32 33  2  0  0  0  0
 32 27  1  0  0  0  0
 33 34  1  0  0  0  0
 35 36  1  0  0  0  0
 35 33  1  0  0  0  0
 36 37  1  0  0  0  0
 38 36  1  0  0  0  0
 39 41  1  0  0  0  0
 39 38  2  0  0  0  0
 40 39  1  0  0  0  0
 41 35  2  0  0  0  0
 42 41  1  0  0  0  0
 42 31  2  0  0  0  0
M  END
>  <minimizedAffinity>
-6.12441778

$$$$

 OpenBabel03242511223D

 42 46  0  0  1  0  0  0  0  0999 V2000
   39.7000   30.3960   42.3360 C   0  0  0  0  0  0  0  0  0  0  0  0
   40.2730   31.2790   42.6060 H   0  0  0  0  0  0  0  0  0  0  0  0
   38.7170   30.5010   42.8820 H   0  0  0  0  0  0  0  0  0  0  0  0
   40.3090   29.0980   42.5940 C   0  0  0  0  0  0  0  0  0  0  0  0
   39.6340   28.1490   43.1590 C   0  0  0  0  0  0  0  0  0  0  0  0
   40.2020   26.8900   43.4180 N   0  0  0  0  0  0  0  0  0  0  0  0
   40.0780   25.4600   43.3450 C   0  0  0  0  0  0  0  0  0  0  0  0
   39.1090   24.6360   43.3400 O   0  0  0  0  0  0  0  0  0  0  0  0
   41.5780   25.4420   43.2820 C   0  0  0  0  0  0  0  0  0  0  0  0
   41.5360   26.7410   44.0540 C   0  0  1  0  0  0  0  0  0  0  0  0
   42.6110   28.0500   43.4700 S   0  0  0  0  0  0  0  0  0  0  0  0
   41.7200   28.9620   42.1680 C   0  0  0  0  0  0  0  0  0  0  0  0
   41.9920   25.5140   42.2600 H   0  0  0  0  0  0  0  0  0  0  0  0
   42.0250   24.6550   43.9310 H   0  0  0  0  0  0  0  0  0  0  0  0
   41.4790   26.6020   45.1330 H   0  0  0  0  0  0  0  0  0  0  0  0
   42.2490   29.9060   42.0530 H   0  0  0  0  0  0  0  0  0  0  0  0
   41.7680   28.4120   41.1960 H   0  0  0  0  0  0  0  0  0  0  0  0
   38.2330   28.3870   43.5440 C   0  0  0  0  0  0  0  0  0  0  0  0
   37.2790   27.5780   43.3320 O   0  0  0  0  0  0  0  0  0  0  0  0
   37.0640   28.8830   44.0110 O   0  0  0  0  0  0  0  0  0  0  0  0
   36.9190   29.6070   44.6970 H   0  0  0  0  0  0  0  0  0  0  0  0
   39.2760   30.5520   40.5530 S   0  0  0  0  0  0  0  0  0  0  0  0
   35.3450   29.6470   40.1610 C   0  0  0  0  0  0  0  0  0  0  0  0
   36.5400   30.4030   40.3740 C   0  0  0  0  0  0  0  0  0  0  0  0
   37.7480   29.6850   40.2990 C   0  0  0  0  0  0  0  0  0  0  0  0
   37.7020   28.3530   40.0360 N   0  0  0  0  0  0  0  0  0  0  0  0
   36.5540   27.6930   39.8440 C   0  0  0  0  0  0  0  0  0  0  0  0
   35.3770   28.3290   39.9040 N   0  0  0  0  0  0  0  0  0  0  0  0
   34.3930   30.1930   40.2170 H   0  0  0  0  0  0  0  0  0  0  0  0
   36.4960   31.4610   40.5800 H   0  0  0  0  0  0  0  0  0  0  0  0
   36.0580   25.6850   38.4490 C   0  0  0  0  0  3  0  0  0  0  0  0
   36.6310   26.2600   39.5660 C   0  0  0  0  0  0  0  0  0  0  0  0
   37.3170   25.4610   40.4790 C   0  0  0  0  0  0  0  0  0  0  0  0
   37.7840   25.8730   41.3720 H   0  0  0  0  0  0  0  0  0  0  0  0
   37.4250   24.0840   40.2650 C   0  0  0  0  0  0  0  0  0  0  0  0
   38.0430   23.1360   41.0230 N   0  0  0  0  0  0  0  0  0  0  0  0
   38.5690   23.2290   41.9250 H   0  0  0  0  0  0  0  0  0  0  0  0
   37.8800   21.9530   40.4170 N   0  0  0  0  0  0  0  0  0  0  0  0
   37.1640   22.1730   39.2890 C   0  0  0  0  0  0  0  0  0  0  0  0
   36.8470   21.4250   38.5500 H   0  0  0  0  0  0  0  0  0  0  0  0
   36.8530   23.5050   39.1510 C   0  0  0  0  0  0  0  0  0  0  0  0
   36.1810   24.3220   38.2660 C   0  0  0  0  0  3  0  0  0  0  0  0
  1  4  1  0  0  0  0
  1  2  1  0  0  0  0
  1  3  1  0  0  0  0
  4  5  2  0  0  0  0
  5  6  1  0  0  0  0
  5 18  1  0  0  0  0
  6 10  1  0  0  0  0
  7  6  1  0  0  0  0
  8  7  2  0  0  0  0
  9  7  1  0  0  0  0
  9 14  1  0  0  0  0
  9 10  1  0  0  0  0
 10 15  1  1  0  0  0
 11 10  1  0  0  0  0
 12  4  1  0  0  0  0
 12 11  1  0  0  0  0
 13  9  1  0  0  0  0
 16 12  1  0  0  0  0
 17 12  1  0  0  0  0
 18 20  1  0  0  0  0
 19 18  2  0  0  0  0
 20 21  1  0  0  0  0
 22  1  1  0  0  0  0
 23 29  1  0  0  0  0
 23 24  1  0  0  0  0
 24 30  1  0  0  0  0
 25 24  2  0  0  0  0
 25 22  1  0  0  0  0
 26 25  1  0  0  0  0
 27 28  1  0  0  0  0
 27 26  2  0  0  0  0
 28 23  2  0  0  0  0
 31 32  1  0  0  0  0
 32 27  1  0  0  0  0
 32 33  2  0  0  0  0
 33 34  1  0  0  0  0
 35 33  1  0  0  0  0
 35 36  1  0  0  0  0
 36 37  1  0  0  0  0
 38 36  1  0  0  0  0
 39 38  2  0  0  0  0
 40 39  1  0  0  0  0
 41 39  1  0  0  0  0
 41 35  2  0  0  0  0
 42 31  2  0  0  0  0
 42 41  1  0  0  0  0
M  END
>  <minimizedAffinity>
-6.03340578

$$$$

 OpenBabel03242511223D

 42 46  0  0  1  0  0  0  0  0999 V2000
   37.4930   31.8730   38.5640 C   0  0  0  0  0  0  0  0  0  0  0  0
   37.5000   32.8980   38.2010 H   0  0  0  0  0  0  0  0  0  0  0  0
   36.4700   31.7260   39.0210 H   0  0  0  0  0  0  0  0  0  0  0  0
   38.5450   31.4850   39.4940 C   0  0  0  0  0  0  0  0  0  0  0  0
   38.2570   31.0040   40.6590 C   0  0  0  0  0  0  0  0  0  0  0  0
   39.2560   30.6250   41.5710 N   0  0  0  0  0  0  0  0  0  0  0  0
   39.7580   29.6370   42.4880 C   0  0  0  0  0  0  0  0  0  0  0  0
   39.2370   28.7300   43.2130 O   0  0  0  0  0  0  0  0  0  0  0  0
   41.1170   30.1880   42.1680 C   0  0  0  0  0  0  0  0  0  0  0  0
   40.4180   31.4970   41.8770 C   0  0  1  0  0  0  0  0  0  0  0  0
   40.9160   32.3510   40.3840 S   0  0  0  0  0  0  0  0  0  0  0  0
   39.9290   31.6840   39.0060 C   0  0  0  0  0  0  0  0  0  0  0  0
   41.6090   29.7140   41.3000 H   0  0  0  0  0  0  0  0  0  0  0  0
   41.7520   30.3150   43.0740 H   0  0  0  0  0  0  0  0  0  0  0  0
   40.2650   32.1130   42.7630 H   0  0  0  0  0  0  0  0  0  0  0  0
   40.0220   32.4060   38.1970 H   0  0  0  0  0  0  0  0  0  0  0  0
   40.3470   30.7090   38.6550 H   0  0  0  0  0  0  0  0  0  0  0  0
   36.8450   30.8450   41.0480 C   0  0  0  0  0  0  0  0  0  0  0  0
   36.2950   29.7370   41.3320 O   0  0  0  0  0  0  0  0  0  0  0  0
   35.5420   31.0190   41.3670 O   0  0  0  0  0  0  0  0  0  0  0  0
   35.0760   31.8620   41.6630 H   0  0  0  0  0  0  0  0  0  0  0  0
   37.5180   30.7770   37.0870 S   0  0  0  0  0  0  0  0  0  0  0  0
   34.6960   27.8760   37.3060 C   0  0  0  0  0  0  0  0  0  0  0  0
   35.3660   29.0790   36.9220 C   0  0  0  0  0  0  0  0  0  0  0  0
   36.6230   29.3040   37.5120 C   0  0  0  0  0  0  0  0  0  0  0  0
   37.1090   28.3850   38.3870 N   0  0  0  0  0  0  0  0  0  0  0  0
   36.4400   27.2720   38.7130 C   0  0  0  0  0  0  0  0  0  0  0  0
   35.2400   27.0110   38.1790 N   0  0  0  0  0  0  0  0  0  0  0  0
   33.7130   27.6860   36.8540 H   0  0  0  0  0  0  0  0  0  0  0  0
   34.9150   29.7630   36.2190 H   0  0  0  0  0  0  0  0  0  0  0  0
   36.5220   25.1270   39.9840 C   0  0  0  0  0  3  0  0  0  0  0  0
   37.0650   26.3570   39.6650 C   0  0  0  0  0  0  0  0  0  0  0  0
   38.2550   26.7620   40.2650 C   0  0  0  0  0  0  0  0  0  0  0  0
   38.7180   27.7230   40.0430 H   0  0  0  0  0  0  0  0  0  0  0  0
   38.8990   25.9290   41.1830 C   0  0  0  0  0  0  0  0  0  0  0  0
   40.0560   26.1300   41.8740 N   0  0  0  0  0  0  0  0  0  0  0  0
   40.7120   26.9480   41.8680 H   0  0  0  0  0  0  0  0  0  0  0  0
   40.2740   25.0520   42.6370 N   0  0  0  0  0  0  0  0  0  0  0  0
   39.2550   24.1890   42.4160 C   0  0  0  0  0  0  0  0  0  0  0  0
   39.1120   23.2010   42.8760 H   0  0  0  0  0  0  0  0  0  0  0  0
   38.3610   24.7000   41.5060 C   0  0  0  0  0  0  0  0  0  0  0  0
   37.1810   24.3270   40.8950 C   0  0  0  0  0  3  0  0  0  0  0  0
  1  3  1  0  0  0  0
  1  4  1  0  0  0  0
  2  1  1  0  0  0  0
  4  5  2  0  0  0  0
  5 18  1  0  0  0  0
  5  6  1  0  0  0  0
  6 10  1  0  0  0  0
  6  7  1  0  0  0  0
  7  8  2  0  0  0  0
  9  7  1  0  0  0  0
  9 14  1  0  0  0  0
 10  9  1  0  0  0  0
 10 15  1  1  0  0  0
 11 10  1  0  0  0  0
 12  4  1  0  0  0  0
 12 11  1  0  0  0  0
 13  9  1  0  0  0  0
 16 12  1  0  0  0  0
 17 12  1  0  0  0  0
 18 19  2  0  0  0  0
 18 20  1  0  0  0  0
 20 21  1  0  0  0  0
 22 25  1  0  0  0  0
 22  1  1  0  0  0  0
 23 28  1  0  0  0  0
 24 23  2  0  0  0  0
 24 25  1  0  0  0  0
 25 26  2  0  0  0  0
 26 27  1  0  0  0  0
 27 32  1  0  0  0  0
 28 27  2  0  0  0  0
 29 23  1  0  0  0  0
 30 24  1  0  0  0  0
 31 42  1  0  0  0  0
 32 31  2  0  0  0  0
 32 33  1  0  0  0  0
 33 35  2  0  0  0  0
 34 33  1  0  0  0  0
 35 41  1  0  0  0  0
 35 36  1  0  0  0  0
 36 38  1  0  0  0  0
 37 36  1  0  0  0  0
 39 38  2  0  0  0  0
 39 40  1  0  0  0  0
 41 39  1  0  0  0  0
 42 41  2  0  0  0  0
M  END
>  <minimizedAffinity>
-6.00744104

$$$$
