
 OpenBabel03242517193D

 42 45  0  0  0  0  0  0  0  0999 V2000
   44.5100   35.7130   43.0270 C   0  0  0  0  0  0  0  0  0  0  0  0
   43.7310   34.9080   42.1590 C   0  0  0  0  0  0  0  0  0  0  0  0
   43.9690   33.5580   42.1530 C   0  0  0  0  0  0  0  0  0  0  0  0
   44.9400   33.0790   42.9840 N   0  0  0  0  0  0  0  0  0  0  0  0
   45.6660   33.8540   43.7960 C   0  0  0  0  0  0  0  0  0  0  0  0
   45.4360   35.1670   43.8030 N   0  0  0  0  0  0  0  0  0  0  0  0
   44.3320   36.7920   43.0430 H   0  0  0  0  0  0  0  0  0  0  0  0
   43.3800   32.9550   41.5000 H   0  0  0  0  0  0  0  0  0  0  0  0
   46.7090   33.3660   44.6920 C   0  0  0  0  0  0  0  0  0  0  0  0
   47.5570   34.1100   44.7490 H   0  0  0  0  0  0  0  0  0  0  0  0
   47.1490   32.4290   44.3630 H   0  0  0  0  0  0  0  0  0  0  0  0
   46.1850   33.2910   46.1250 C   0  0  0  0  0  0  0  0  0  0  0  0
   46.3340   34.2270   46.6640 H   0  0  0  0  0  0  0  0  0  0  0  0
   45.1470   32.9240   46.0860 H   0  0  0  0  0  0  0  0  0  0  0  0
   47.2250   30.9820   46.1200 C   0  0  0  0  0  0  0  0  0  0  0  0
   46.9870   32.1800   46.7560 C   0  0  0  0  0  0  0  0  0  0  0  0
   47.5260   32.3350   48.0320 C   0  0  0  0  0  0  0  0  0  0  0  0
   47.3540   33.2630   48.5490 H   0  0  0  0  0  0  0  0  0  0  0  0
   48.2560   31.3280   48.6120 C   0  0  0  0  0  0  0  0  0  0  0  0
   48.8540   31.2810   49.8210 N   0  0  0  0  0  0  0  0  0  0  0  0
   48.9120   31.9710   50.5960 H   0  0  0  0  0  0  0  0  0  0  0  0
   49.4460   30.1090   49.9540 N   0  0  0  0  0  0  0  0  0  0  0  0
   49.2410   29.3770   48.8330 C   0  0  0  0  0  0  0  0  0  0  0  0
   49.5430   28.3750   48.5190 H   0  0  0  0  0  0  0  0  0  0  0  0
   48.4800   30.1370   47.9540 C   0  0  0  0  0  0  0  0  0  0  0  0
   47.9530   29.9620   46.6830 C   0  0  0  0  0  0  0  0  0  0  0  0
   42.7060   35.5200   41.3020 C   0  0  0  0  0  0  0  0  0  0  0  0
   41.4290   35.5910   41.5920 C   0  0  0  0  0  0  0  0  0  0  0  0
   40.4150   36.2190   40.7010 C   0  0  0  0  0  0  0  0  0  0  0  0
   40.9410   36.9880   40.1060 H   0  0  0  0  0  0  0  0  0  0  0  0
   39.6940   36.7400   41.3490 H   0  0  0  0  0  0  0  0  0  0  0  0
   41.1000   36.0370   37.9900 F   0  0  0  0  0  0  0  0  0  0  0  0
   40.1770   35.1860   38.4740 C   0  0  0  0  0  0  0  0  0  0  0  0
   39.8040   35.2400   39.8140 C   0  0  0  0  0  0  0  0  0  0  0  0
   38.8530   34.3160   40.1690 C   0  0  0  0  0  0  0  0  0  0  0  0
   38.2540   33.3720   39.3470 C   0  0  0  0  0  0  0  0  0  0  0  0
   38.6850   33.3880   38.0240 C   0  0  0  0  0  0  0  0  0  0  0  0
   39.6330   34.2730   37.5620 C   0  0  0  0  0  0  0  0  0  0  0  0
   38.5240   34.3130   41.2090 H   0  0  0  0  0  0  0  0  0  0  0  0
   37.5170   32.6870   39.7120 H   0  0  0  0  0  0  0  0  0  0  0  0
   38.2680   32.6830   37.3070 H   0  0  0  0  0  0  0  0  0  0  0  0
   39.9640   34.2820   36.5320 H   0  0  0  0  0  0  0  0  0  0  0  0
  1  7  1  0  0  0  0
  1  6  1  0  0  0  0
  2  1  2  0  0  0  0
  3  2  1  0  0  0  0
  3  4  2  0  0  0  0
  4  5  1  0  0  0  0
  5  6  2  0  0  0  0
  5  9  1  0  0  0  0
  8  3  1  0  0  0  0
  9 10  1  0  0  0  0
  9 12  1  0  0  0  0
 11  9  1  0  0  0  0
 12 13  1  0  0  0  0
 12 16  1  0  0  0  0
 14 12  1  0  0  0  0
 15 26  2  0  0  0  0
 15 16  1  0  0  0  0
 16 17  2  0  0  0  0
 17 18  1  0  0  0  0
 17 19  1  0  0  0  0
 19 20  1  0  0  0  0
 20 22  1  0  0  0  0
 20 21  1  0  0  0  0
 23 22  2  0  0  0  0
 24 23  1  0  0  0  0
 25 19  2  0  0  0  0
 25 23  1  0  0  0  0
 26 25  1  0  0  0  0
 27 28  2  0  0  0  0
 27  2  1  0  0  0  0
 29 31  1  0  0  0  0
 29 28  1  0  0  0  0
 30 29  1  0  0  0  0
 32 33  1  0  0  0  0
 33 34  1  0  0  0  0
 34 35  2  0  0  0  0
 34 29  1  0  0  0  0
 35 39  1  0  0  0  0
 36 40  1  0  0  0  0
 36 35  1  0  0  0  0
 37 36  2  0  0  0  0
 38 37  1  0  0  0  0
 38 33  2  0  0  0  0
 41 37  1  0  0  0  0
 42 38  1  0  0  0  0
M  END
>  <minimizedAffinity>
-7.52393723

>  <minimizedRMSD>
0.97604531

$$$$
