
 OpenBabel03242510383D

 34 37  0  0  0  0  0  0  0  0999 V2000
   47.6520   31.9850   44.8930 Cl  0  0  0  0  0  0  0  0  0  0  0  0
   46.7510   32.0220   46.4140 C   0  0  0  0  0  0  0  0  0  0  0  0
   45.8150   33.0270   46.5810 C   0  0  0  0  0  0  0  0  0  0  0  0
   45.1410   33.0500   47.7490 C   0  0  0  0  0  0  0  0  0  0  0  0
   45.3960   32.0910   48.7250 C   0  0  0  0  0  0  0  0  0  0  0  0
   46.3280   31.0970   48.5460 C   0  0  0  0  0  0  0  0  0  0  0  0
   47.0310   31.0570   47.3520 C   0  0  0  0  0  0  0  0  0  0  0  0
   44.3900   33.8270   47.9290 H   0  0  0  0  0  0  0  0  0  0  0  0
   44.8150   32.1740   49.6350 H   0  0  0  0  0  0  0  0  0  0  0  0
   46.5220   30.3490   49.3140 H   0  0  0  0  0  0  0  0  0  0  0  0
   47.7710   28.9730   46.2510 C   0  0  0  0  0  0  0  0  0  0  0  0
   48.0230   30.0060   47.1530 C   0  0  0  0  0  0  0  0  0  0  0  0
   49.2200   29.9480   47.8000 C   0  0  0  0  0  0  0  0  0  0  0  0
   49.4800   30.7040   48.5020 H   0  0  0  0  0  0  0  0  0  0  0  0
   50.1670   28.9570   47.6190 C   0  0  0  0  0  0  0  0  0  0  0  0
   51.3840   28.7110   48.1390 N   0  0  0  0  0  0  0  0  0  0  0  0
   51.8320   29.3420   48.8600 H   0  0  0  0  0  0  0  0  0  0  0  0
   51.8680   27.5980   47.6040 N   0  0  0  0  0  0  0  0  0  0  0  0
   50.9780   27.1000   46.7260 C   0  0  0  0  0  0  0  0  0  0  0  0
   51.1160   26.2030   46.1490 H   0  0  0  0  0  0  0  0  0  0  0  0
   49.8930   27.9350   46.7130 C   0  0  0  0  0  0  0  0  0  0  0  0
   48.6900   27.9660   46.0430 C   0  0  0  0  0  0  0  0  0  0  0  0
   44.5040   35.8730   44.7090 C   0  0  0  0  0  0  0  0  0  0  0  0
   45.1730   35.7950   43.4630 C   0  0  0  0  0  0  0  0  0  0  0  0
   46.0850   34.7280   43.3120 C   0  0  0  0  0  0  0  0  0  0  0  0
   46.2600   33.8650   44.3490 N   0  0  0  0  0  0  0  0  0  0  0  0
   45.5970   33.9860   45.5140 C   0  0  0  0  0  0  0  0  0  0  0  0
   44.7220   34.9900   45.6890 N   0  0  0  0  0  0  0  0  0  0  0  0
   43.8060   36.6910   44.8250 H   0  0  0  0  0  0  0  0  0  0  0  0
   44.9800   36.5200   42.6860 H   0  0  0  0  0  0  0  0  0  0  0  0
   46.7480   34.6880   42.0130 C   0  0  0  0  0  0  0  0  0  0  0  0
   47.4610   33.4900   41.9280 F   0  0  0  0  0  0  0  0  0  0  0  0
   47.6840   35.6760   42.0000 F   0  0  0  0  0  0  0  0  0  0  0  0
   45.8680   34.7100   40.9480 F   0  0  0  0  0  0  0  0  0  0  0  0
  1  2  1  0  0  0  0
  2  3  2  0  0  0  0
  2  7  1  0  0  0  0
  3  4  1  0  0  0  0
  4  8  1  0  0  0  0
  4  5  2  0  0  0  0
  5  9  1  0  0  0  0
  6  5  1  0  0  0  0
  6 10  1  0  0  0  0
  7  6  2  0  0  0  0
 11 12  1  0  0  0  0
 12  7  1  0  0  0  0
 12 13  2  0  0  0  0
 13 14  1  0  0  0  0
 15 13  1  0  0  0  0
 15 16  1  0  0  0  0
 16 17  1  0  0  0  0
 18 16  1  0  0  0  0
 19 18  2  0  0  0  0
 20 19  1  0  0  0  0
 21 19  1  0  0  0  0
 21 15  2  0  0  0  0
 22 11  2  0  0  0  0
 22 21  1  0  0  0  0
 23 29  1  0  0  0  0
 23 28  1  0  0  0  0
 24 23  2  0  0  0  0
 25 24  1  0  0  0  0
 25 26  2  0  0  0  0
 26 27  1  0  0  0  0
 27 28  2  0  0  0  0
 27  3  1  0  0  0  0
 30 24  1  0  0  0  0
 31 25  1  0  0  0  0
 32 31  1  0  0  0  0
 33 31  1  0  0  0  0
 34 31  1  0  0  0  0
M  END
>  <minimizedAffinity>
-6.14901209

>  <minimizedRMSD>
0.77350843

$$$$
