
 OpenBabel03252506553D

 41 46  0  0  0  0  0  0  0  0999 V2000
   47.2040   31.3670   45.1540 C   0  0  0  0  0  0  0  0  0  0  0  0
   46.8540   32.7060   45.1470 C   0  0  0  0  0  0  0  0  0  0  0  0
   46.2540   33.3240   46.2170 C   0  0  0  0  0  0  0  0  0  0  0  0
   45.9720   32.5960   47.3730 C   0  0  0  0  0  0  0  0  0  0  0  0
   45.4060   32.8630   48.5810 N   0  0  0  0  0  0  0  0  0  0  0  0
   45.4070   31.7220   49.3140 C   0  0  0  0  0  0  0  0  0  0  0  0
   45.9750   30.7600   48.5460 N   0  0  0  0  0  0  0  0  0  0  0  0
   46.3290   31.2770   47.3490 C   0  0  0  0  0  0  0  0  0  0  0  0
   46.9320   30.6260   46.2980 C   0  0  0  0  0  0  0  0  0  0  0  0
   47.6780   30.8920   44.3030 H   0  0  0  0  0  0  0  0  0  0  0  0
   45.9700   34.3780   46.2270 H   0  0  0  0  0  0  0  0  0  0  0  0
   45.0570   33.8100   48.8230 H   0  0  0  0  0  0  0  0  0  0  0  0
   45.0180   31.6560   50.3070 H   0  0  0  0  0  0  0  0  0  0  0  0
   46.5050   35.1830   42.4420 C   0  0  0  0  0  0  0  0  0  0  0  0
   47.6790   35.0020   41.7210 C   0  0  0  0  0  0  0  0  0  0  0  0
   48.5870   34.0410   42.1520 C   0  0  0  0  0  0  0  0  0  0  0  0
   48.2840   33.3110   43.2740 N   0  0  0  0  0  0  0  0  0  0  0  0
   47.1290   33.5100   43.9580 C   0  0  0  0  0  0  0  0  0  0  0  0
   46.2550   34.4330   43.5450 N   0  0  0  0  0  0  0  0  0  0  0  0
   45.8120   35.9410   42.0830 H   0  0  0  0  0  0  0  0  0  0  0  0
   47.9280   35.5740   40.8320 H   0  0  0  0  0  0  0  0  0  0  0  0
   49.5300   33.8340   41.6460 H   0  0  0  0  0  0  0  0  0  0  0  0
   47.2700   29.2070   46.3840 C   0  0  0  0  0  0  0  0  0  0  0  0
   48.5590   28.7220   46.5070 C   0  0  0  0  0  0  0  0  0  0  0  0
   48.3900   27.3340   46.5510 C   0  0  0  0  0  0  0  0  0  0  0  0
   47.0430   27.0650   46.4530 C   0  0  0  0  0  0  0  0  0  0  0  0
   46.4160   28.2170   46.3540 O   0  0  0  0  0  0  0  0  0  0  0  0
   49.4960   29.2570   46.5610 H   0  0  0  0  0  0  0  0  0  0  0  0
   49.1610   26.5790   46.6440 H   0  0  0  0  0  0  0  0  0  0  0  0
   45.1080   25.6770   46.9860 C   0  0  0  0  0  3  0  0  0  0  0  0
   46.3860   25.7640   46.4520 C   0  0  0  0  0  0  0  0  0  0  0  0
   47.0220   24.6530   45.9350 C   0  0  0  0  0  0  0  0  0  0  0  0
   48.0150   24.6960   45.5160 H   0  0  0  0  0  0  0  0  0  0  0  0
   46.3490   23.4390   45.9610 C   0  0  0  0  0  0  0  0  0  0  0  0
   46.7600   22.2150   45.5160 N   0  0  0  0  0  0  0  0  0  0  0  0
   47.6690   21.9630   45.0690 H   0  0  0  0  0  0  0  0  0  0  0  0
   45.7820   21.3410   45.7480 N   0  0  0  0  0  0  0  0  0  0  0  0
   44.7450   21.9680   46.3340 C   0  0  0  0  0  0  0  0  0  0  0  0
   43.7780   21.5770   46.6670 H   0  0  0  0  0  0  0  0  0  0  0  0
   45.0630   23.3000   46.4870 C   0  0  0  0  0  0  0  0  0  0  0  0
   44.4850   24.4460   46.9870 C   0  0  0  0  0  3  0  0  0  0  0  0
  1  9  1  0  0  0  0
  2  1  2  0  0  0  0
  2  3  1  0  0  0  0
  3 11  1  0  0  0  0
  3  4  2  0  0  0  0
  4  5  1  0  0  0  0
  5 12  1  0  0  0  0
  5  6  1  0  0  0  0
  6 13  1  0  0  0  0
  7  6  2  0  0  0  0
  8  4  1  0  0  0  0
  8  7  1  0  0  0  0
  9 23  1  0  0  0  0
  9  8  2  0  0  0  0
 10  1  1  0  0  0  0
 14 19  1  0  0  0  0
 15 16  1  0  0  0  0
 15 14  2  0  0  0  0
 16 17  2  0  0  0  0
 17 18  1  0  0  0  0
 18  2  1  0  0  0  0
 19 18  2  0  0  0  0
 20 14  1  0  0  0  0
 21 15  1  0  0  0  0
 22 16  1  0  0  0  0
 23 24  2  0  0  0  0
 24 25  1  0  0  0  0
 24 28  1  0  0  0  0
 25 29  1  0  0  0  0
 26 25  2  0  0  0  0
 27 23  1  0  0  0  0
 27 26  1  0  0  0  0
 30 41  1  0  0  0  0
 31 26  1  0  0  0  0
 31 30  2  0  0  0  0
 32 34  2  0  0  0  0
 32 31  1  0  0  0  0
 33 32  1  0  0  0  0
 34 40  1  0  0  0  0
 35 37  1  0  0  0  0
 35 34  1  0  0  0  0
 36 35  1  0  0  0  0
 37 38  2  0  0  0  0
 38 40  1  0  0  0  0
 38 39  1  0  0  0  0
 40 41  2  0  0  0  0
M  END
>  <minimizedAffinity>
-5.7659812

>  <minimizedRMSD>
0.212097019

$$$$
