
 OpenBabel03252506553D

 41 46  0  0  0  0  0  0  0  0999 V2000
   47.2580   31.3940   45.1630 C   0  0  0  0  0  0  0  0  0  0  0  0
   46.8650   32.7210   45.1410 C   0  0  0  0  0  0  0  0  0  0  0  0
   46.2320   33.3270   46.1990 C   0  0  0  0  0  0  0  0  0  0  0  0
   45.9590   32.6000   47.3570 C   0  0  0  0  0  0  0  0  0  0  0  0
   45.3700   32.8570   48.5570 N   0  0  0  0  0  0  0  0  0  0  0  0
   45.3980   31.7220   49.2980 C   0  0  0  0  0  0  0  0  0  0  0  0
   46.0060   30.7730   48.5440 N   0  0  0  0  0  0  0  0  0  0  0  0
   46.3590   31.2920   47.3480 C   0  0  0  0  0  0  0  0  0  0  0  0
   46.9950   30.6530   46.3090 C   0  0  0  0  0  0  0  0  0  0  0  0
   47.7570   30.9280   44.3220 H   0  0  0  0  0  0  0  0  0  0  0  0
   45.9150   34.3710   46.1980 H   0  0  0  0  0  0  0  0  0  0  0  0
   44.9880   33.7940   48.7870 H   0  0  0  0  0  0  0  0  0  0  0  0
   44.9990   31.6510   50.2870 H   0  0  0  0  0  0  0  0  0  0  0  0
   46.4870   35.1900   42.4330 C   0  0  0  0  0  0  0  0  0  0  0  0
   47.6590   35.0160   41.7070 C   0  0  0  0  0  0  0  0  0  0  0  0
   48.5760   34.0620   42.1360 C   0  0  0  0  0  0  0  0  0  0  0  0
   48.2830   33.3320   43.2610 N   0  0  0  0  0  0  0  0  0  0  0  0
   47.1290   33.5240   43.9500 C   0  0  0  0  0  0  0  0  0  0  0  0
   46.2470   34.4410   43.5390 N   0  0  0  0  0  0  0  0  0  0  0  0
   45.7870   35.9430   42.0760 H   0  0  0  0  0  0  0  0  0  0  0  0
   47.9000   35.5880   40.8160 H   0  0  0  0  0  0  0  0  0  0  0  0
   49.5170   33.8610   41.6270 H   0  0  0  0  0  0  0  0  0  0  0  0
   47.3770   29.2470   46.4100 C   0  0  0  0  0  0  0  0  0  0  0  0
   48.6750   28.8050   46.5920 C   0  0  0  0  0  0  0  0  0  0  0  0
   48.5510   27.4120   46.6280 C   0  0  0  0  0  0  0  0  0  0  0  0
   47.2200   27.0980   46.4690 C   0  0  0  0  0  0  0  0  0  0  0  0
   46.5590   28.2280   46.3420 O   0  0  0  0  0  0  0  0  0  0  0  0
   49.5900   29.3720   46.6880 H   0  0  0  0  0  0  0  0  0  0  0  0
   49.3420   26.6830   46.7550 H   0  0  0  0  0  0  0  0  0  0  0  0
   47.3480   24.7020   46.9210 C   0  0  0  0  0  3  0  0  0  0  0  0
   46.6090   25.7750   46.4400 C   0  0  0  0  0  0  0  0  0  0  0  0
   45.3330   25.5980   45.9470 C   0  0  0  0  0  0  0  0  0  0  0  0
   44.7390   26.4160   45.5670 H   0  0  0  0  0  0  0  0  0  0  0  0
   44.7990   24.3160   45.9420 C   0  0  0  0  0  0  0  0  0  0  0  0
   43.5750   23.8920   45.5110 N   0  0  0  0  0  0  0  0  0  0  0  0
   42.8030   24.4620   45.1010 H   0  0  0  0  0  0  0  0  0  0  0  0
   43.5030   22.5770   45.7020 N   0  0  0  0  0  0  0  0  0  0  0  0
   44.6520   22.1350   46.2460 C   0  0  0  0  0  0  0  0  0  0  0  0
   44.9550   21.1230   46.5380 H   0  0  0  0  0  0  0  0  0  0  0  0
   45.5020   23.2070   46.4150 C   0  0  0  0  0  0  0  0  0  0  0  0
   46.7690   23.4500   46.8930 C   0  0  0  0  0  3  0  0  0  0  0  0
  1  9  1  0  0  0  0
  2  1  2  0  0  0  0
  2  3  1  0  0  0  0
  3  4  2  0  0  0  0
  4  5  1  0  0  0  0
  5 12  1  0  0  0  0
  5  6  1  0  0  0  0
  6 13  1  0  0  0  0
  7  6  2  0  0  0  0
  8  4  1  0  0  0  0
  8  7  1  0  0  0  0
  9 23  1  0  0  0  0
  9  8  2  0  0  0  0
 10  1  1  0  0  0  0
 11  3  1  0  0  0  0
 14 19  1  0  0  0  0
 15 16  1  0  0  0  0
 15 14  2  0  0  0  0
 16 17  2  0  0  0  0
 17 18  1  0  0  0  0
 18  2  1  0  0  0  0
 19 18  2  0  0  0  0
 20 14  1  0  0  0  0
 21 15  1  0  0  0  0
 22 16  1  0  0  0  0
 23 24  2  0  0  0  0
 24 25  1  0  0  0  0
 24 28  1  0  0  0  0
 25 29  1  0  0  0  0
 26 25  2  0  0  0  0
 27 23  1  0  0  0  0
 27 26  1  0  0  0  0
 31 26  1  0  0  0  0
 31 30  2  0  0  0  0
 32 31  1  0  0  0  0
 33 32  1  0  0  0  0
 34 32  2  0  0  0  0
 34 40  1  0  0  0  0
 35 37  1  0  0  0  0
 35 34  1  0  0  0  0
 36 35  1  0  0  0  0
 37 38  2  0  0  0  0
 38 40  1  0  0  0  0
 38 39  1  0  0  0  0
 40 41  2  0  0  0  0
 41 30  1  0  0  0  0
M  END
>  <minimizedAffinity>
-5.68474674

>  <minimizedRMSD>
0.201628327

$$$$
