
 OpenBabel03252506543D

 41 46  0  0  0  0  0  0  0  0999 V2000
   46.8150   31.2380   45.1920 C   0  0  0  0  0  0  0  0  0  0  0  0
   46.6450   32.6090   45.2830 C   0  0  0  0  0  0  0  0  0  0  0  0
   46.2080   33.2290   46.4280 C   0  0  0  0  0  0  0  0  0  0  0  0
   45.9160   32.4730   47.5630 C   0  0  0  0  0  0  0  0  0  0  0  0
   45.4780   32.7340   48.8250 N   0  0  0  0  0  0  0  0  0  0  0  0
   45.3810   31.5580   49.4940 C   0  0  0  0  0  0  0  0  0  0  0  0
   45.7620   30.5820   48.6340 N   0  0  0  0  0  0  0  0  0  0  0  0
   46.0950   31.1230   47.4420 C   0  0  0  0  0  0  0  0  0  0  0  0
   46.5300   30.4670   46.3140 C   0  0  0  0  0  0  0  0  0  0  0  0
   47.1610   30.7600   44.2830 H   0  0  0  0  0  0  0  0  0  0  0  0
   46.0670   34.3080   46.5170 H   0  0  0  0  0  0  0  0  0  0  0  0
   45.2740   33.7000   49.1430 H   0  0  0  0  0  0  0  0  0  0  0  0
   45.0580   31.4810   50.5100 H   0  0  0  0  0  0  0  0  0  0  0  0
   46.3530   35.1810   42.6620 C   0  0  0  0  0  0  0  0  0  0  0  0
   47.5200   34.9930   41.9310 C   0  0  0  0  0  0  0  0  0  0  0  0
   48.4040   33.9950   42.3280 C   0  0  0  0  0  0  0  0  0  0  0  0
   48.0850   33.2370   43.4260 N   0  0  0  0  0  0  0  0  0  0  0  0
   46.9370   33.4430   44.1200 C   0  0  0  0  0  0  0  0  0  0  0  0
   46.0870   34.4020   43.7400 N   0  0  0  0  0  0  0  0  0  0  0  0
   45.6790   35.9680   42.3300 H   0  0  0  0  0  0  0  0  0  0  0  0
   47.7820   35.5870   41.0610 H   0  0  0  0  0  0  0  0  0  0  0  0
   49.3400   33.7810   41.8130 H   0  0  0  0  0  0  0  0  0  0  0  0
   46.6850   29.0150   46.2980 C   0  0  0  0  0  0  0  0  0  0  0  0
   47.8780   28.3570   46.5320 C   0  0  0  0  0  0  0  0  0  0  0  0
   47.5430   27.0050   46.4150 C   0  0  0  0  0  0  0  0  0  0  0  0
   46.2000   26.9230   46.1220 C   0  0  0  0  0  0  0  0  0  0  0  0
   45.7320   28.1500   46.0620 O   0  0  0  0  0  0  0  0  0  0  0  0
   48.8550   28.7600   46.7570 H   0  0  0  0  0  0  0  0  0  0  0  0
   48.1990   26.1510   46.5270 H   0  0  0  0  0  0  0  0  0  0  0  0
   44.2680   25.8240   45.1110 C   0  0  0  0  0  3  0  0  0  0  0  0
   45.4010   25.7220   45.9080 C   0  0  0  0  0  0  0  0  0  0  0  0
   45.7640   24.5220   46.4820 C   0  0  0  0  0  0  0  0  0  0  0  0
   46.6400   24.4180   47.1060 H   0  0  0  0  0  0  0  0  0  0  0  0
   44.9670   23.4100   46.2460 C   0  0  0  0  0  0  0  0  0  0  0  0
   45.1140   22.1290   46.6970 N   0  0  0  0  0  0  0  0  0  0  0  0
   45.8640   21.7450   47.3120 H   0  0  0  0  0  0  0  0  0  0  0  0
   44.1090   21.4020   46.2140 N   0  0  0  0  0  0  0  0  0  0  0  0
   43.3100   22.1800   45.4590 C   0  0  0  0  0  0  0  0  0  0  0  0
   42.3970   21.9320   44.9070 H   0  0  0  0  0  0  0  0  0  0  0  0
   43.8190   23.4610   45.4530 C   0  0  0  0  0  0  0  0  0  0  0  0
   43.5110   24.6880   44.9090 C   0  0  0  0  0  3  0  0  0  0  0  0
  1  2  2  0  0  0  0
  1  9  1  0  0  0  0
  2  3  1  0  0  0  0
  3 11  1  0  0  0  0
  3  4  2  0  0  0  0
  4  5  1  0  0  0  0
  5 12  1  0  0  0  0
  5  6  1  0  0  0  0
  6 13  1  0  0  0  0
  7  6  2  0  0  0  0
  8  4  1  0  0  0  0
  8  7  1  0  0  0  0
  9  8  2  0  0  0  0
 10  1  1  0  0  0  0
 14 19  1  0  0  0  0
 15 16  1  0  0  0  0
 15 14  2  0  0  0  0
 16 17  2  0  0  0  0
 17 18  1  0  0  0  0
 18  2  1  0  0  0  0
 19 18  2  0  0  0  0
 20 14  1  0  0  0  0
 21 15  1  0  0  0  0
 22 16  1  0  0  0  0
 23  9  1  0  0  0  0
 23 24  2  0  0  0  0
 24 28  1  0  0  0  0
 25 29  1  0  0  0  0
 25 24  1  0  0  0  0
 26 25  2  0  0  0  0
 27 26  1  0  0  0  0
 27 23  1  0  0  0  0
 30 31  1  0  0  0  0
 31 26  1  0  0  0  0
 31 32  2  0  0  0  0
 32 33  1  0  0  0  0
 34 32  1  0  0  0  0
 34 35  1  0  0  0  0
 35 36  1  0  0  0  0
 37 35  1  0  0  0  0
 38 37  2  0  0  0  0
 39 38  1  0  0  0  0
 40 38  1  0  0  0  0
 40 34  2  0  0  0  0
 41 30  2  0  0  0  0
 41 40  1  0  0  0  0
M  END
>  <minimizedAffinity>
-5.80390739

>  <minimizedRMSD>
1.07059765

$$$$
