
 OpenBabel03252501403D

 48 52  0  0  0  0  0  0  0  0999 V2000
   44.3100   33.5290   41.3330 C   0  0  0  0  0  0  0  0  0  0  0  0
   43.4540   33.2960   42.2650 O   0  0  0  0  0  0  0  0  0  0  0  0
   45.5140   34.1190   41.8290 N   0  0  0  0  0  0  0  0  0  0  0  0
   46.3160   34.3490   41.2520 H   0  0  0  0  0  0  0  0  0  0  0  0
   45.3800   34.3190   43.2580 C   0  0  0  0  0  0  0  0  0  0  0  0
   44.6890   35.3160   43.8740 C   0  0  0  0  0  0  0  0  0  0  0  0
   44.6770   35.3400   45.2440 C   0  0  0  0  0  0  0  0  0  0  0  0
   45.3530   34.3740   45.8930 N   0  0  0  0  0  0  0  0  0  0  0  0
   46.0370   33.3880   45.2660 C   0  0  0  0  0  0  0  0  0  0  0  0
   46.0530   33.3550   43.9140 N   0  0  0  0  0  0  0  0  0  0  0  0
   44.1360   36.1200   45.7400 H   0  0  0  0  0  0  0  0  0  0  0  0
   47.1390   31.2040   45.3910 C   0  0  0  0  0  0  0  0  0  0  0  0
   46.7550   32.3580   46.0430 C   0  0  0  0  0  0  0  0  0  0  0  0
   47.0370   32.5420   47.3800 C   0  0  0  0  0  0  0  0  0  0  0  0
   46.7410   33.4420   47.9010 H   0  0  0  0  0  0  0  0  0  0  0  0
   47.7130   31.5300   48.0310 C   0  0  0  0  0  0  0  0  0  0  0  0
   48.1500   31.3570   49.3010 N   0  0  0  0  0  0  0  0  0  0  0  0
   48.0310   32.0320   50.0650 H   0  0  0  0  0  0  0  0  0  0  0  0
   48.7640   30.1740   49.4270 N   0  0  0  0  0  0  0  0  0  0  0  0
   48.7540   29.5300   48.2580 C   0  0  0  0  0  0  0  0  0  0  0  0
   49.1530   28.5540   47.9790 H   0  0  0  0  0  0  0  0  0  0  0  0
   48.0930   30.3750   47.3660 C   0  0  0  0  0  0  0  0  0  0  0  0
   47.8110   30.1870   46.0190 C   0  0  0  0  0  0  0  0  0  0  0  0
   44.0320   36.2540   43.0390 N   0  0  0  0  0  0  0  0  0  0  0  0
   44.5980   36.9070   42.4300 H   0  0  0  0  0  0  0  0  0  0  0  0
   42.9820   36.2600   43.0580 H   0  0  0  0  0  0  0  0  0  0  0  0
   44.1690   33.2690   39.9660 O   0  0  0  0  0  0  0  0  0  0  0  0
   42.4080   30.8760   39.8510 Cl  0  0  0  0  0  0  0  0  0  0  0  0
   42.0270   32.4860   39.2780 C   0  0  0  0  0  0  0  0  0  0  0  0
   42.9220   33.5490   39.3770 C   0  0  0  0  0  0  0  0  0  0  0  0
   42.5790   34.7900   38.9160 C   0  0  0  0  0  0  0  0  0  0  0  0
   41.3550   35.0620   38.3370 C   0  0  0  0  0  0  0  0  0  0  0  0
   40.4310   33.9990   38.2260 C   0  0  0  0  0  0  0  0  0  0  0  0
   38.8530   34.2560   37.5050 Cl  0  0  0  0  0  0  0  0  0  0  0  0
   40.8160   32.7620   38.7050 C   0  0  0  0  0  0  0  0  0  0  0  0
   43.3050   35.5850   39.0140 H   0  0  0  0  0  0  0  0  0  0  0  0
   41.0820   36.0470   37.9710 H   0  0  0  0  0  0  0  0  0  0  0  0
   39.0750   32.2580   40.7350 F   0  0  0  0  0  0  0  0  0  0  0  0
   38.9990   31.4270   39.6390 C   0  0  0  0  0  0  0  0  0  0  0  0
   39.8670   31.6570   38.5950 C   0  0  0  0  0  0  0  0  0  0  0  0
   39.7610   30.7930   37.4980 C   0  0  0  0  0  0  0  0  0  0  0  0
   38.8160   29.7810   37.5220 C   0  0  0  0  0  0  0  0  0  0  0  0
   37.9660   29.6040   38.6140 C   0  0  0  0  0  0  0  0  0  0  0  0
   38.0430   30.4460   39.7220 C   0  0  0  0  0  0  0  0  0  0  0  0
   40.4430   30.9720   36.6780 H   0  0  0  0  0  0  0  0  0  0  0  0
   38.7630   29.1330   36.6570 H   0  0  0  0  0  0  0  0  0  0  0  0
   37.2330   28.8070   38.6110 H   0  0  0  0  0  0  0  0  0  0  0  0
   37.4030   30.3420   40.5860 H   0  0  0  0  0  0  0  0  0  0  0  0
  1  3  1  0  0  0  0
  1  2  2  0  0  0  0
  3  5  1  0  0  0  0
  4  3  1  0  0  0  0
  5  6  2  0  0  0  0
  5 10  1  0  0  0  0
  6  7  1  0  0  0  0
  7 11  1  0  0  0  0
  7  8  2  0  0  0  0
  9  8  1  0  0  0  0
  9 13  1  0  0  0  0
 10  9  2  0  0  0  0
 12 23  2  0  0  0  0
 12 13  1  0  0  0  0
 13 14  2  0  0  0  0
 14 15  1  0  0  0  0
 14 16  1  0  0  0  0
 16 17  1  0  0  0  0
 17 19  1  0  0  0  0
 17 18  1  0  0  0  0
 20 19  2  0  0  0  0
 21 20  1  0  0  0  0
 22 16  2  0  0  0  0
 22 20  1  0  0  0  0
 23 22  1  0  0  0  0
 24 26  1  0  0  0  0
 24  6  1  0  0  0  0
 25 24  1  0  0  0  0
 27  1  1  0  0  0  0
 29 30  1  0  0  0  0
 29 28  1  0  0  0  0
 30 27  1  0  0  0  0
 31 36  1  0  0  0  0
 31 30  2  0  0  0  0
 32 31  1  0  0  0  0
 33 32  2  0  0  0  0
 33 35  1  0  0  0  0
 34 33  1  0  0  0  0
 35 29  2  0  0  0  0
 37 32  1  0  0  0  0
 39 44  1  0  0  0  0
 39 38  1  0  0  0  0
 40 35  1  0  0  0  0
 40 39  2  0  0  0  0
 41 42  2  0  0  0  0
 41 40  1  0  0  0  0
 42 43  1  0  0  0  0
 43 44  2  0  0  0  0
 44 48  1  0  0  0  0
 45 41  1  0  0  0  0
 46 42  1  0  0  0  0
 47 43  1  0  0  0  0
M  END
>  <minimizedAffinity>
-7.7373457

>  <minimizedRMSD>
2.62254262

$$$$
