
 OpenBabel03242510413D

 34 37  0  0  0  0  0  0  0  0999 V2000
   40.3660   29.9920   39.7400 Cl  0  0  0  0  0  0  0  0  0  0  0  0
   39.1730   31.2960   39.7990 C   0  0  0  0  0  0  0  0  0  0  0  0
   37.8500   30.9470   40.0050 C   0  0  0  0  0  0  0  0  0  0  0  0
   36.9490   31.9500   40.0400 C   0  0  0  0  0  0  0  0  0  0  0  0
   37.3610   33.2690   39.8750 C   0  0  0  0  0  0  0  0  0  0  0  0
   38.6790   33.6030   39.6720 C   0  0  0  0  0  0  0  0  0  0  0  0
   39.6200   32.5850   39.6320 C   0  0  0  0  0  0  0  0  0  0  0  0
   35.8890   31.7240   40.2000 H   0  0  0  0  0  0  0  0  0  0  0  0
   36.5800   34.0190   39.9150 H   0  0  0  0  0  0  0  0  0  0  0  0
   38.9940   34.6380   39.5430 H   0  0  0  0  0  0  0  0  0  0  0  0
   41.7820   33.4390   40.4690 C   0  0  0  0  0  3  0  0  0  0  0  0
   41.0200   32.9290   39.4170 C   0  0  0  0  0  0  0  0  0  0  0  0
   41.6720   32.7880   38.2290 C   0  0  0  0  0  0  0  0  0  0  0  0
   41.1540   32.4040   37.3830 H   0  0  0  0  0  0  0  0  0  0  0  0
   43.0000   33.1110   38.0140 C   0  0  0  0  0  0  0  0  0  0  0  0
   43.8220   33.0530   36.9510 N   0  0  0  0  0  0  0  0  0  0  0  0
   43.5050   32.7000   36.0050 H   0  0  0  0  0  0  0  0  0  0  0  0
   45.0210   33.4970   37.3050 N   0  0  0  0  0  0  0  0  0  0  0  0
   45.0020   33.8500   38.6030 C   0  0  0  0  0  0  0  0  0  0  0  0
   45.8410   34.2430   39.1480 H   0  0  0  0  0  0  0  0  0  0  0  0
   43.7390   33.6180   39.0800 C   0  0  0  0  0  0  0  0  0  0  0  0
   43.1080   33.7730   40.2950 C   0  0  0  0  0  3  0  0  0  0  0  0
   36.8840   27.5080   39.2540 C   0  0  0  0  0  0  0  0  0  0  0  0
   36.8050   26.8940   40.5270 C   0  0  0  0  0  0  0  0  0  0  0  0
   37.1030   27.7160   41.6360 C   0  0  0  0  0  0  0  0  0  0  0  0
   37.4380   29.0160   41.4140 N   0  0  0  0  0  0  0  0  0  0  0  0
   37.4980   29.5500   40.1800 C   0  0  0  0  0  0  0  0  0  0  0  0
   37.2200   28.7940   39.1050 N   0  0  0  0  0  0  0  0  0  0  0  0
   36.6560   26.8770   38.4060 H   0  0  0  0  0  0  0  0  0  0  0  0
   36.5310   25.8540   40.6230 H   0  0  0  0  0  0  0  0  0  0  0  0
   37.0080   27.0400   42.9250 C   0  0  0  0  0  0  0  0  0  0  0  0
   38.1300   27.3890   43.6800 F   0  0  0  0  0  0  0  0  0  0  0  0
   37.1190   25.7030   42.6940 F   0  0  0  0  0  0  0  0  0  0  0  0
   35.8980   27.4110   43.6580 F   0  0  0  0  0  0  0  0  0  0  0  0
  1  2  1  0  0  0  0
  2  3  1  0  0  0  0
  3  4  2  0  0  0  0
  3 27  1  0  0  0  0
  4  8  1  0  0  0  0
  5  9  1  0  0  0  0
  5  4  1  0  0  0  0
  6  5  2  0  0  0  0
  7  6  1  0  0  0  0
  7  2  2  0  0  0  0
 10  6  1  0  0  0  0
 12  7  1  0  0  0  0
 12 11  2  0  0  0  0
 13 12  1  0  0  0  0
 14 13  1  0  0  0  0
 15 13  2  0  0  0  0
 15 21  1  0  0  0  0
 16 18  1  0  0  0  0
 16 15  1  0  0  0  0
 17 16  1  0  0  0  0
 18 19  2  0  0  0  0
 19 21  1  0  0  0  0
 19 20  1  0  0  0  0
 21 22  2  0  0  0  0
 22 11  1  0  0  0  0
 23 24  1  0  0  0  0
 24 30  1  0  0  0  0
 24 25  2  0  0  0  0
 25 31  1  0  0  0  0
 26 25  1  0  0  0  0
 27 26  2  0  0  0  0
 28 23  2  0  0  0  0
 28 27  1  0  0  0  0
 29 23  1  0  0  0  0
 31 34  1  0  0  0  0
 31 32  1  0  0  0  0
 33 31  1  0  0  0  0
M  END
>  <minimizedAffinity>
-6.43848801

$$$$

 OpenBabel03242510413D

 34 37  0  0  0  0  0  0  0  0999 V2000
   39.7910   28.6710   40.5880 Cl  0  0  0  0  0  0  0  0  0  0  0  0
   38.1440   29.3160   40.6140 C   0  0  0  0  0  0  0  0  0  0  0  0
   37.1220   28.4520   40.9620 C   0  0  0  0  0  0  0  0  0  0  0  0
   35.8700   28.9540   40.9690 C   0  0  0  0  0  0  0  0  0  0  0  0
   35.6470   30.2870   40.6380 C   0  0  0  0  0  0  0  0  0  0  0  0
   36.6720   31.1360   40.2950 C   0  0  0  0  0  0  0  0  0  0  0  0
   37.9660   30.6370   40.2810 C   0  0  0  0  0  0  0  0  0  0  0  0
   35.0270   28.3080   41.2380 H   0  0  0  0  0  0  0  0  0  0  0  0
   34.6160   30.6170   40.6660 H   0  0  0  0  0  0  0  0  0  0  0  0
   36.4900   32.1780   40.0370 H   0  0  0  0  0  0  0  0  0  0  0  0
   39.7510   32.2250   40.9110 C   0  0  0  0  0  3  0  0  0  0  0  0
   39.0600   31.5300   39.9180 C   0  0  0  0  0  0  0  0  0  0  0  0
   39.4800   31.7500   38.6410 C   0  0  0  0  0  0  0  0  0  0  0  0
   39.0000   31.2530   37.8320 H   0  0  0  0  0  0  0  0  0  0  0  0
   40.5170   32.5940   38.2850 C   0  0  0  0  0  0  0  0  0  0  0  0
   41.0830   32.9490   37.1170 N   0  0  0  0  0  0  0  0  0  0  0  0
   40.7530   32.5680   36.1860 H   0  0  0  0  0  0  0  0  0  0  0  0
   42.0630   33.8100   37.3540 N   0  0  0  0  0  0  0  0  0  0  0  0
   42.1540   34.0310   38.6780 C   0  0  0  0  0  0  0  0  0  0  0  0
   42.8650   34.6870   39.1470 H   0  0  0  0  0  0  0  0  0  0  0  0
   41.1910   33.2770   39.2940 C   0  0  0  0  0  0  0  0  0  0  0  0
   40.7890   33.0760   40.5960 C   0  0  0  0  0  3  0  0  0  0  0  0
   38.5570   25.5560   42.6580 C   0  0  0  0  0  0  0  0  0  0  0  0
   38.0390   24.4520   41.9380 C   0  0  0  0  0  0  0  0  0  0  0  0
   37.1810   24.7580   40.8590 C   0  0  0  0  0  0  0  0  0  0  0  0
   36.9130   26.0640   40.5880 N   0  0  0  0  0  0  0  0  0  0  0  0
   37.4340   27.0760   41.3060 C   0  0  0  0  0  0  0  0  0  0  0  0
   38.2540   26.8180   42.3380 N   0  0  0  0  0  0  0  0  0  0  0  0
   39.2140   25.3200   43.4840 H   0  0  0  0  0  0  0  0  0  0  0  0
   38.2990   23.4410   42.2140 H   0  0  0  0  0  0  0  0  0  0  0  0
   36.6740   23.5900   40.1480 C   0  0  0  0  0  0  0  0  0  0  0  0
   36.7590   23.8470   38.7780 F   0  0  0  0  0  0  0  0  0  0  0  0
   35.3440   23.4890   40.4220 F   0  0  0  0  0  0  0  0  0  0  0  0
   37.4030   22.4420   40.3890 F   0  0  0  0  0  0  0  0  0  0  0  0
  1  2  1  0  0  0  0
  2  3  1  0  0  0  0
  3  4  2  0  0  0  0
  3 27  1  0  0  0  0
  4  8  1  0  0  0  0
  5  9  1  0  0  0  0
  5  4  1  0  0  0  0
  6  5  2  0  0  0  0
  7  6  1  0  0  0  0
  7  2  2  0  0  0  0
 10  6  1  0  0  0  0
 12  7  1  0  0  0  0
 12 11  2  0  0  0  0
 13 12  1  0  0  0  0
 14 13  1  0  0  0  0
 15 13  2  0  0  0  0
 15 21  1  0  0  0  0
 16 18  1  0  0  0  0
 16 15  1  0  0  0  0
 17 16  1  0  0  0  0
 18 19  2  0  0  0  0
 19 20  1  0  0  0  0
 19 21  1  0  0  0  0
 21 22  2  0  0  0  0
 22 11  1  0  0  0  0
 23 29  1  0  0  0  0
 24 30  1  0  0  0  0
 24 23  2  0  0  0  0
 25 24  1  0  0  0  0
 26 25  2  0  0  0  0
 26 27  1  0  0  0  0
 27 28  2  0  0  0  0
 28 23  1  0  0  0  0
 31 34  1  0  0  0  0
 31 33  1  0  0  0  0
 31 25  1  0  0  0  0
 32 31  1  0  0  0  0
M  END
>  <minimizedAffinity>
-6.29753208

$$$$

 OpenBabel03242510413D

 34 37  0  0  0  0  0  0  0  0999 V2000
   40.4670   30.0760   41.1200 Cl  0  0  0  0  0  0  0  0  0  0  0  0
   39.0980   31.0670   40.5990 C   0  0  0  0  0  0  0  0  0  0  0  0
   37.8260   30.6080   40.8920 C   0  0  0  0  0  0  0  0  0  0  0  0
   36.7910   31.3680   40.4830 C   0  0  0  0  0  0  0  0  0  0  0  0
   37.0210   32.5580   39.7990 C   0  0  0  0  0  0  0  0  0  0  0  0
   38.2900   33.0040   39.5150 C   0  0  0  0  0  0  0  0  0  0  0  0
   39.3680   32.2350   39.9270 C   0  0  0  0  0  0  0  0  0  0  0  0
   35.7640   31.0470   40.6900 H   0  0  0  0  0  0  0  0  0  0  0  0
   36.1400   33.1140   39.5020 H   0  0  0  0  0  0  0  0  0  0  0  0
   38.4630   33.9360   38.9790 H   0  0  0  0  0  0  0  0  0  0  0  0
   41.4240   33.4420   40.5780 C   0  0  0  0  0  3  0  0  0  0  0  0
   40.7180   32.6980   39.6310 C   0  0  0  0  0  0  0  0  0  0  0  0
   41.3730   32.4570   38.4610 C   0  0  0  0  0  0  0  0  0  0  0  0
   40.8970   31.8960   37.6930 H   0  0  0  0  0  0  0  0  0  0  0  0
   42.6530   32.8920   38.1690 C   0  0  0  0  0  0  0  0  0  0  0  0
   43.4700   32.7700   37.1060 N   0  0  0  0  0  0  0  0  0  0  0  0
   43.1880   32.2470   36.2300 H   0  0  0  0  0  0  0  0  0  0  0  0
   44.6110   33.3930   37.3620 N   0  0  0  0  0  0  0  0  0  0  0  0
   44.5610   33.9310   38.5940 C   0  0  0  0  0  0  0  0  0  0  0  0
   45.3540   34.4930   39.0560 H   0  0  0  0  0  0  0  0  0  0  0  0
   43.3380   33.6320   39.1300 C   0  0  0  0  0  0  0  0  0  0  0  0
   42.7010   33.8930   40.3240 C   0  0  0  0  0  3  0  0  0  0  0  0
   37.5460   28.2250   43.6430 C   0  0  0  0  0  0  0  0  0  0  0  0
   37.3790   26.9780   42.9940 C   0  0  0  0  0  0  0  0  0  0  0  0
   37.3650   27.0070   41.5830 C   0  0  0  0  0  0  0  0  0  0  0  0
   37.5090   28.2040   40.9520 N   0  0  0  0  0  0  0  0  0  0  0  0
   37.6650   29.3620   41.6190 C   0  0  0  0  0  0  0  0  0  0  0  0
   37.6830   29.3680   42.9620 N   0  0  0  0  0  0  0  0  0  0  0  0
   37.5570   28.2020   44.7250 H   0  0  0  0  0  0  0  0  0  0  0  0
   37.2710   26.0680   43.5650 H   0  0  0  0  0  0  0  0  0  0  0  0
   37.1910   25.7000   40.9590 C   0  0  0  0  0  0  0  0  0  0  0  0
   36.2330   25.8260   39.9510 F   0  0  0  0  0  0  0  0  0  0  0  0
   36.6400   24.8730   41.8900 F   0  0  0  0  0  0  0  0  0  0  0  0
   38.3410   25.2190   40.3650 F   0  0  0  0  0  0  0  0  0  0  0  0
  2  3  1  0  0  0  0
  2  1  1  0  0  0  0
  3 27  1  0  0  0  0
  4  8  1  0  0  0  0
  4  3  2  0  0  0  0
  5  4  1  0  0  0  0
  6  5  2  0  0  0  0
  6  7  1  0  0  0  0
  7  2  2  0  0  0  0
  9  5  1  0  0  0  0
 10  6  1  0  0  0  0
 12  7  1  0  0  0  0
 12 11  2  0  0  0  0
 13 12  1  0  0  0  0
 14 13  1  0  0  0  0
 15 13  2  0  0  0  0
 15 21  1  0  0  0  0
 16 18  1  0  0  0  0
 16 15  1  0  0  0  0
 17 16  1  0  0  0  0
 18 19  2  0  0  0  0
 19 20  1  0  0  0  0
 19 21  1  0  0  0  0
 21 22  2  0  0  0  0
 22 11  1  0  0  0  0
 23 29  1  0  0  0  0
 24 30  1  0  0  0  0
 24 23  1  0  0  0  0
 25 24  2  0  0  0  0
 26 25  1  0  0  0  0
 26 27  2  0  0  0  0
 27 28  1  0  0  0  0
 28 23  2  0  0  0  0
 31 25  1  0  0  0  0
 31 33  1  0  0  0  0
 32 31  1  0  0  0  0
 34 31  1  0  0  0  0
M  END
>  <minimizedAffinity>
-6.25346899

$$$$

 OpenBabel03242510413D

 34 37  0  0  0  0  0  0  0  0999 V2000
   38.2890   28.1030   39.4560 Cl  0  0  0  0  0  0  0  0  0  0  0  0
   37.7650   27.9360   41.1370 C   0  0  0  0  0  0  0  0  0  0  0  0
   37.4310   26.6700   41.5820 C   0  0  0  0  0  0  0  0  0  0  0  0
   37.0250   26.5580   42.8630 C   0  0  0  0  0  0  0  0  0  0  0  0
   36.9570   27.6840   43.6790 C   0  0  0  0  0  0  0  0  0  0  0  0
   37.2940   28.9360   43.2250 C   0  0  0  0  0  0  0  0  0  0  0  0
   37.7130   29.0720   41.9100 C   0  0  0  0  0  0  0  0  0  0  0  0
   36.7480   25.5760   43.2630 H   0  0  0  0  0  0  0  0  0  0  0  0
   36.6230   27.5140   44.6950 H   0  0  0  0  0  0  0  0  0  0  0  0
   37.2390   29.8130   43.8690 H   0  0  0  0  0  0  0  0  0  0  0  0
   37.1240   31.1720   40.7500 C   0  0  0  0  0  3  0  0  0  0  0  0
   38.0720   30.3970   41.4180 C   0  0  0  0  0  0  0  0  0  0  0  0
   39.3030   30.9620   41.5620 C   0  0  0  0  0  0  0  0  0  0  0  0
   40.0750   30.4280   42.0630 H   0  0  0  0  0  0  0  0  0  0  0  0
   39.6540   32.2170   41.1010 C   0  0  0  0  0  0  0  0  0  0  0  0
   40.7820   32.9510   41.1340 N   0  0  0  0  0  0  0  0  0  0  0  0
   41.6730   32.6040   41.5870 H   0  0  0  0  0  0  0  0  0  0  0  0
   40.5630   34.1100   40.5290 N   0  0  0  0  0  0  0  0  0  0  0  0
   39.2910   34.1530   40.0910 C   0  0  0  0  0  0  0  0  0  0  0  0
   38.8470   34.9800   39.5640 H   0  0  0  0  0  0  0  0  0  0  0  0
   38.6910   32.9730   40.4370 C   0  0  0  0  0  0  0  0  0  0  0  0
   37.4360   32.4280   40.2740 C   0  0  0  0  0  3  0  0  0  0  0  0
   38.8410   23.9170   39.6440 C   0  0  0  0  0  0  0  0  0  0  0  0
   37.7320   23.4060   38.9280 C   0  0  0  0  0  0  0  0  0  0  0  0
   36.4950   24.0500   39.1510 C   0  0  0  0  0  0  0  0  0  0  0  0
   36.4500   25.0960   40.0200 N   0  0  0  0  0  0  0  0  0  0  0  0
   37.5370   25.5420   40.6760 C   0  0  0  0  0  0  0  0  0  0  0  0
   38.7280   24.9510   40.4850 N   0  0  0  0  0  0  0  0  0  0  0  0
   39.7880   23.4230   39.4730 H   0  0  0  0  0  0  0  0  0  0  0  0
   37.8470   22.5700   38.2530 H   0  0  0  0  0  0  0  0  0  0  0  0
   35.3830   23.4890   38.3910 C   0  0  0  0  0  0  0  0  0  0  0  0
   34.3430   23.2190   39.2820 F   0  0  0  0  0  0  0  0  0  0  0  0
   35.7840   22.2780   37.9130 F   0  0  0  0  0  0  0  0  0  0  0  0
   34.8820   24.3510   37.4350 F   0  0  0  0  0  0  0  0  0  0  0  0
  1  2  1  0  0  0  0
  2  3  2  0  0  0  0
  2  7  1  0  0  0  0
  3  4  1  0  0  0  0
  4  8  1  0  0  0  0
  4  5  2  0  0  0  0
  5  9  1  0  0  0  0
  6  5  1  0  0  0  0
  6 10  1  0  0  0  0
  7  6  2  0  0  0  0
 11 12  1  0  0  0  0
 12 13  2  0  0  0  0
 12  7  1  0  0  0  0
 13 14  1  0  0  0  0
 15 16  1  0  0  0  0
 15 13  1  0  0  0  0
 16 17  1  0  0  0  0
 18 16  1  0  0  0  0
 19 21  1  0  0  0  0
 19 18  2  0  0  0  0
 20 19  1  0  0  0  0
 21 15  2  0  0  0  0
 22 21  1  0  0  0  0
 22 11  2  0  0  0  0
 23 28  1  0  0  0  0
 24 25  1  0  0  0  0
 24 23  2  0  0  0  0
 25 26  2  0  0  0  0
 26 27  1  0  0  0  0
 27  3  1  0  0  0  0
 28 27  2  0  0  0  0
 29 23  1  0  0  0  0
 30 24  1  0  0  0  0
 31 25  1  0  0  0  0
 31 32  1  0  0  0  0
 33 31  1  0  0  0  0
 34 31  1  0  0  0  0
M  END
>  <minimizedAffinity>
-6.1421833

$$$$

 OpenBabel03242510413D

 34 37  0  0  0  0  0  0  0  0999 V2000
   39.5730   28.8710   39.1590 Cl  0  0  0  0  0  0  0  0  0  0  0  0
   38.2120   29.7740   39.8360 C   0  0  0  0  0  0  0  0  0  0  0  0
   37.0510   29.0740   40.1120 C   0  0  0  0  0  0  0  0  0  0  0  0
   36.0180   29.7760   40.6200 C   0  0  0  0  0  0  0  0  0  0  0  0
   36.1430   31.1430   40.8480 C   0  0  0  0  0  0  0  0  0  0  0  0
   37.3020   31.8270   40.5720 C   0  0  0  0  0  0  0  0  0  0  0  0
   38.3760   31.1220   40.0480 C   0  0  0  0  0  0  0  0  0  0  0  0
   35.0760   29.2660   40.8540 H   0  0  0  0  0  0  0  0  0  0  0  0
   35.2700   31.6380   41.2580 H   0  0  0  0  0  0  0  0  0  0  0  0
   37.3930   32.8970   40.7530 H   0  0  0  0  0  0  0  0  0  0  0  0
   40.5600   32.0380   40.7540 C   0  0  0  0  0  3  0  0  0  0  0  0
   39.6110   31.8390   39.7500 C   0  0  0  0  0  0  0  0  0  0  0  0
   39.9270   32.3490   38.5280 C   0  0  0  0  0  0  0  0  0  0  0  0
   39.2510   32.2350   37.7150 H   0  0  0  0  0  0  0  0  0  0  0  0
   41.0950   33.0300   38.2350 C   0  0  0  0  0  0  0  0  0  0  0  0
   41.5970   33.6030   37.1250 N   0  0  0  0  0  0  0  0  0  0  0  0
   41.0810   33.6030   36.2020 H   0  0  0  0  0  0  0  0  0  0  0  0
   42.7810   34.1290   37.4070 N   0  0  0  0  0  0  0  0  0  0  0  0
   43.0720   33.9080   38.7030 C   0  0  0  0  0  0  0  0  0  0  0  0
   43.9720   34.2280   39.1970 H   0  0  0  0  0  0  0  0  0  0  0  0
   42.0270   33.2160   39.2530 C   0  0  0  0  0  0  0  0  0  0  0  0
   41.7360   32.7110   40.5010 C   0  0  0  0  0  3  0  0  0  0  0  0
   36.6390   25.8880   38.3790 C   0  0  0  0  0  0  0  0  0  0  0  0
   36.8800   24.9220   39.3870 C   0  0  0  0  0  0  0  0  0  0  0  0
   37.1910   25.4240   40.6690 C   0  0  0  0  0  0  0  0  0  0  0  0
   37.2370   26.7720   40.8510 N   0  0  0  0  0  0  0  0  0  0  0  0
   36.9990   27.6460   39.8560 C   0  0  0  0  0  0  0  0  0  0  0  0
   36.7010   27.2000   38.6250 N   0  0  0  0  0  0  0  0  0  0  0  0
   36.4020   25.5020   37.3970 H   0  0  0  0  0  0  0  0  0  0  0  0
   36.8250   23.8670   39.1650 H   0  0  0  0  0  0  0  0  0  0  0  0
   37.4300   24.3920   41.6730 C   0  0  0  0  0  0  0  0  0  0  0  0
   36.4720   24.5380   42.6790 F   0  0  0  0  0  0  0  0  0  0  0  0
   38.6270   24.6640   42.2620 F   0  0  0  0  0  0  0  0  0  0  0  0
   37.3050   23.1080   41.1800 F   0  0  0  0  0  0  0  0  0  0  0  0
  1  2  1  0  0  0  0
  2  7  2  0  0  0  0
  2  3  1  0  0  0  0
  3  4  2  0  0  0  0
  4  5  1  0  0  0  0
  4  8  1  0  0  0  0
  5  9  1  0  0  0  0
  6 10  1  0  0  0  0
  6  5  2  0  0  0  0
  7  6  1  0  0  0  0
 12  7  1  0  0  0  0
 12 11  2  0  0  0  0
 13 12  1  0  0  0  0
 14 13  1  0  0  0  0
 15 13  2  0  0  0  0
 15 21  1  0  0  0  0
 16 18  1  0  0  0  0
 16 15  1  0  0  0  0
 17 16  1  0  0  0  0
 18 19  2  0  0  0  0
 19 20  1  0  0  0  0
 19 21  1  0  0  0  0
 21 22  2  0  0  0  0
 22 11  1  0  0  0  0
 23 28  2  0  0  0  0
 23 24  1  0  0  0  0
 24 25  2  0  0  0  0
 25 26  1  0  0  0  0
 25 31  1  0  0  0  0
 27  3  1  0  0  0  0
 27 26  2  0  0  0  0
 28 27  1  0  0  0  0
 29 23  1  0  0  0  0
 30 24  1  0  0  0  0
 31 33  1  0  0  0  0
 31 32  1  0  0  0  0
 34 31  1  0  0  0  0
M  END
>  <minimizedAffinity>
-6.08175659

$$$$

 OpenBabel03242510413D

 34 37  0  0  0  0  0  0  0  0999 V2000
   35.2630   29.6560   38.4450 Cl  0  0  0  0  0  0  0  0  0  0  0  0
   34.9510   27.9820   37.9700 C   0  0  0  0  0  0  0  0  0  0  0  0
   35.7730   27.0010   38.4950 C   0  0  0  0  0  0  0  0  0  0  0  0
   35.5300   25.7300   38.1180 C   0  0  0  0  0  0  0  0  0  0  0  0
   34.4890   25.4450   37.2390 C   0  0  0  0  0  0  0  0  0  0  0  0
   33.6780   26.4290   36.7250 C   0  0  0  0  0  0  0  0  0  0  0  0
   33.9130   27.7430   37.1000 C   0  0  0  0  0  0  0  0  0  0  0  0
   36.1550   24.9180   38.5070 H   0  0  0  0  0  0  0  0  0  0  0  0
   34.3560   24.4020   36.9830 H   0  0  0  0  0  0  0  0  0  0  0  0
   32.8650   26.1990   36.0370 H   0  0  0  0  0  0  0  0  0  0  0  0
   33.2320   29.2250   35.2450 C   0  0  0  0  0  3  0  0  0  0  0  0
   33.0590   28.7930   36.5600 C   0  0  0  0  0  0  0  0  0  0  0  0
   32.0670   29.4120   37.2590 C   0  0  0  0  0  0  0  0  0  0  0  0
   31.8760   29.1330   38.2690 H   0  0  0  0  0  0  0  0  0  0  0  0
   31.2500   30.4080   36.7570 C   0  0  0  0  0  0  0  0  0  0  0  0
   30.2350   31.1360   37.2590 N   0  0  0  0  0  0  0  0  0  0  0  0
   29.8860   31.0170   38.2510 H   0  0  0  0  0  0  0  0  0  0  0  0
   29.7980   31.9720   36.3270 N   0  0  0  0  0  0  0  0  0  0  0  0
   30.5170   31.8030   35.2020 C   0  0  0  0  0  0  0  0  0  0  0  0
   30.3730   32.3530   34.2890 H   0  0  0  0  0  0  0  0  0  0  0  0
   31.4420   30.8230   35.4410 C   0  0  0  0  0  0  0  0  0  0  0  0
   32.4390   30.2170   34.7080 C   0  0  0  0  0  3  0  0  0  0  0  0
   39.0440   27.9870   39.7800 C   0  0  0  0  0  0  0  0  0  0  0  0
   38.8490   28.0600   41.1810 C   0  0  0  0  0  0  0  0  0  0  0  0
   37.5500   27.7600   41.6450 C   0  0  0  0  0  0  0  0  0  0  0  0
   36.5910   27.4280   40.7380 N   0  0  0  0  0  0  0  0  0  0  0  0
   36.8320   27.3740   39.4150 C   0  0  0  0  0  0  0  0  0  0  0  0
   38.0580   27.6530   38.9420 N   0  0  0  0  0  0  0  0  0  0  0  0
   40.0400   28.2170   39.4260 H   0  0  0  0  0  0  0  0  0  0  0  0
   39.6610   28.3310   41.8390 H   0  0  0  0  0  0  0  0  0  0  0  0
   37.3970   27.8480   43.0940 C   0  0  0  0  0  0  0  0  0  0  0  0
   38.3400   27.0000   43.6790 F   0  0  0  0  0  0  0  0  0  0  0  0
   36.1820   27.3230   43.4100 F   0  0  0  0  0  0  0  0  0  0  0  0
   37.6300   29.1150   43.5930 F   0  0  0  0  0  0  0  0  0  0  0  0
  2  1  1  0  0  0  0
  2  3  1  0  0  0  0
  3 27  1  0  0  0  0
  4  3  2  0  0  0  0
  4  8  1  0  0  0  0
  5  4  1  0  0  0  0
  6  7  1  0  0  0  0
  6  5  2  0  0  0  0
  7  2  2  0  0  0  0
  9  5  1  0  0  0  0
 10  6  1  0  0  0  0
 11 12  1  0  0  0  0
 12  7  1  0  0  0  0
 12 13  2  0  0  0  0
 13 14  1  0  0  0  0
 15 13  1  0  0  0  0
 15 16  1  0  0  0  0
 16 17  1  0  0  0  0
 18 16  1  0  0  0  0
 19 21  1  0  0  0  0
 19 18  2  0  0  0  0
 20 19  1  0  0  0  0
 21 15  2  0  0  0  0
 22 11  2  0  0  0  0
 22 21  1  0  0  0  0
 23 24  1  0  0  0  0
 24 25  2  0  0  0  0
 24 30  1  0  0  0  0
 25 31  1  0  0  0  0
 26 25  1  0  0  0  0
 27 26  2  0  0  0  0
 28 27  1  0  0  0  0
 28 23  2  0  0  0  0
 29 23  1  0  0  0  0
 31 33  1  0  0  0  0
 31 34  1  0  0  0  0
 31 32  1  0  0  0  0
M  END
>  <minimizedAffinity>
-6.03997183

$$$$

 OpenBabel03242510413D

 34 37  0  0  0  0  0  0  0  0999 V2000
   38.0690   27.8910   39.2700 Cl  0  0  0  0  0  0  0  0  0  0  0  0
   37.5660   27.5110   40.9220 C   0  0  0  0  0  0  0  0  0  0  0  0
   37.1940   26.2070   41.1960 C   0  0  0  0  0  0  0  0  0  0  0  0
   36.8050   25.9320   42.4570 C   0  0  0  0  0  0  0  0  0  0  0  0
   36.7900   26.9350   43.4210 C   0  0  0  0  0  0  0  0  0  0  0  0
   37.1630   28.2270   43.1370 C   0  0  0  0  0  0  0  0  0  0  0  0
   37.5660   28.5290   41.8450 C   0  0  0  0  0  0  0  0  0  0  0  0
   36.5000   24.9130   42.7230 H   0  0  0  0  0  0  0  0  0  0  0  0
   36.4650   26.6380   44.4110 H   0  0  0  0  0  0  0  0  0  0  0  0
   37.1490   29.0070   43.8970 H   0  0  0  0  0  0  0  0  0  0  0  0
   39.2210   30.3620   41.9190 C   0  0  0  0  0  3  0  0  0  0  0  0
   37.9640   29.8970   41.5330 C   0  0  0  0  0  0  0  0  0  0  0  0
   37.1790   30.7930   40.8720 C   0  0  0  0  0  0  0  0  0  0  0  0
   36.2070   30.5080   40.5460 H   0  0  0  0  0  0  0  0  0  0  0  0
   37.5460   32.0920   40.5710 C   0  0  0  0  0  0  0  0  0  0  0  0
   36.9450   33.1190   39.9420 N   0  0  0  0  0  0  0  0  0  0  0  0
   35.9680   33.0460   39.5400 H   0  0  0  0  0  0  0  0  0  0  0  0
   37.7640   34.1610   39.9310 N   0  0  0  0  0  0  0  0  0  0  0  0
   38.9130   33.8340   40.5510 C   0  0  0  0  0  0  0  0  0  0  0  0
   39.7520   34.4930   40.6850 H   0  0  0  0  0  0  0  0  0  0  0  0
   38.8070   32.5330   40.9660 C   0  0  0  0  0  0  0  0  0  0  0  0
   39.6240   31.6500   41.6380 C   0  0  0  0  0  3  0  0  0  0  0  0
   36.1450   23.9020   38.5670 C   0  0  0  0  0  0  0  0  0  0  0  0
   37.3540   23.2980   38.1450 C   0  0  0  0  0  0  0  0  0  0  0  0
   38.5270   23.7270   38.8030 C   0  0  0  0  0  0  0  0  0  0  0  0
   38.4230   24.6700   39.7770 N   0  0  0  0  0  0  0  0  0  0  0  0
   37.2460   25.2120   40.1400 C   0  0  0  0  0  0  0  0  0  0  0  0
   36.1110   24.8250   39.5330 N   0  0  0  0  0  0  0  0  0  0  0  0
   35.2460   23.5730   38.0620 H   0  0  0  0  0  0  0  0  0  0  0  0
   37.3570   22.5540   37.3630 H   0  0  0  0  0  0  0  0  0  0  0  0
   39.7470   23.0760   38.3350 C   0  0  0  0  0  0  0  0  0  0  0  0
   39.7810   21.7860   38.8700 F   0  0  0  0  0  0  0  0  0  0  0  0
   40.8010   23.7350   38.8910 F   0  0  0  0  0  0  0  0  0  0  0  0
   39.8050   22.9440   36.9610 F   0  0  0  0  0  0  0  0  0  0  0  0
  1  2  1  0  0  0  0
  2  3  2  0  0  0  0
  2  7  1  0  0  0  0
  3  4  1  0  0  0  0
  4  8  1  0  0  0  0
  4  5  2  0  0  0  0
  5  9  1  0  0  0  0
  6  5  1  0  0  0  0
  6 10  1  0  0  0  0
  7  6  2  0  0  0  0
 12  7  1  0  0  0  0
 12 11  2  0  0  0  0
 13 12  1  0  0  0  0
 14 13  1  0  0  0  0
 15 13  2  0  0  0  0
 15 21  1  0  0  0  0
 16 15  1  0  0  0  0
 17 16  1  0  0  0  0
 18 16  1  0  0  0  0
 18 19  2  0  0  0  0
 19 20  1  0  0  0  0
 19 21  1  0  0  0  0
 21 22  2  0  0  0  0
 22 11  1  0  0  0  0
 23 28  1  0  0  0  0
 24 23  2  0  0  0  0
 24 25  1  0  0  0  0
 25 26  2  0  0  0  0
 26 27  1  0  0  0  0
 27  3  1  0  0  0  0
 28 27  2  0  0  0  0
 29 23  1  0  0  0  0
 30 24  1  0  0  0  0
 31 25  1  0  0  0  0
 31 32  1  0  0  0  0
 31 33  1  0  0  0  0
 34 31  1  0  0  0  0
M  END
>  <minimizedAffinity>
-6.0034194

$$$$

 OpenBabel03242510413D

 34 37  0  0  0  0  0  0  0  0999 V2000
   38.1300   28.4200   39.2920 Cl  0  0  0  0  0  0  0  0  0  0  0  0
   37.7640   28.1330   40.9990 C   0  0  0  0  0  0  0  0  0  0  0  0
   37.2880   26.8840   41.3510 C   0  0  0  0  0  0  0  0  0  0  0  0
   37.0050   26.6800   42.6540 C   0  0  0  0  0  0  0  0  0  0  0  0
   37.1950   27.7010   43.5810 C   0  0  0  0  0  0  0  0  0  0  0  0
   37.6700   28.9380   43.2180 C   0  0  0  0  0  0  0  0  0  0  0  0
   37.9660   29.1660   41.8820 C   0  0  0  0  0  0  0  0  0  0  0  0
   36.6240   25.7070   42.9830 H   0  0  0  0  0  0  0  0  0  0  0  0
   36.9450   27.4620   44.6080 H   0  0  0  0  0  0  0  0  0  0  0  0
   37.8170   29.7320   43.9490 H   0  0  0  0  0  0  0  0  0  0  0  0
   37.6120   31.4050   40.8990 C   0  0  0  0  0  3  0  0  0  0  0  0
   38.4710   30.4760   41.4870 C   0  0  0  0  0  0  0  0  0  0  0  0
   39.7600   30.8840   41.6500 C   0  0  0  0  0  0  0  0  0  0  0  0
   40.4710   30.2270   42.0930 H   0  0  0  0  0  0  0  0  0  0  0  0
   40.2500   32.1230   41.2800 C   0  0  0  0  0  0  0  0  0  0  0  0
   41.4550   32.7180   41.3480 N   0  0  0  0  0  0  0  0  0  0  0  0
   42.3050   32.2370   41.7550 H   0  0  0  0  0  0  0  0  0  0  0  0
   41.3650   33.9390   40.8370 N   0  0  0  0  0  0  0  0  0  0  0  0
   40.1030   34.1610   40.4280 C   0  0  0  0  0  0  0  0  0  0  0  0
   39.7510   35.0710   39.9760 H   0  0  0  0  0  0  0  0  0  0  0  0
   39.3730   33.0340   40.6940 C   0  0  0  0  0  0  0  0  0  0  0  0
   38.0620   32.6500   40.5150 C   0  0  0  0  0  3  0  0  0  0  0  0
   36.0420   25.0980   38.4220 C   0  0  0  0  0  0  0  0  0  0  0  0
   36.8090   23.9080   38.4000 C   0  0  0  0  0  0  0  0  0  0  0  0
   37.7630   23.7620   39.4310 C   0  0  0  0  0  0  0  0  0  0  0  0
   37.8810   24.7520   40.3570 N   0  0  0  0  0  0  0  0  0  0  0  0
   37.1260   25.8650   40.3300 C   0  0  0  0  0  0  0  0  0  0  0  0
   36.2090   26.0330   39.3620 N   0  0  0  0  0  0  0  0  0  0  0  0
   35.3120   25.2080   37.6310 H   0  0  0  0  0  0  0  0  0  0  0  0
   36.6560   23.1660   37.6310 H   0  0  0  0  0  0  0  0  0  0  0  0
   38.5270   22.5210   39.3680 C   0  0  0  0  0  0  0  0  0  0  0  0
   39.8540   22.8450   39.0760 F   0  0  0  0  0  0  0  0  0  0  0  0
   38.0740   21.8160   38.2940 F   0  0  0  0  0  0  0  0  0  0  0  0
   38.5350   21.8210   40.5580 F   0  0  0  0  0  0  0  0  0  0  0  0
  1  2  1  0  0  0  0
  2  3  2  0  0  0  0
  2  7  1  0  0  0  0
  3  4  1  0  0  0  0
  4  8  1  0  0  0  0
  4  5  2  0  0  0  0
  5  9  1  0  0  0  0
  6  5  1  0  0  0  0
  6 10  1  0  0  0  0
  7  6  2  0  0  0  0
 11 12  1  0  0  0  0
 12 13  2  0  0  0  0
 12  7  1  0  0  0  0
 13 14  1  0  0  0  0
 15 16  1  0  0  0  0
 15 13  1  0  0  0  0
 16 17  1  0  0  0  0
 18 16  1  0  0  0  0
 19 21  1  0  0  0  0
 19 18  2  0  0  0  0
 20 19  1  0  0  0  0
 21 15  2  0  0  0  0
 22 21  1  0  0  0  0
 22 11  2  0  0  0  0
 23 28  1  0  0  0  0
 24 23  2  0  0  0  0
 24 25  1  0  0  0  0
 25 26  2  0  0  0  0
 27 26  1  0  0  0  0
 27  3  1  0  0  0  0
 28 27  2  0  0  0  0
 29 23  1  0  0  0  0
 30 24  1  0  0  0  0
 31 25  1  0  0  0  0
 31 34  1  0  0  0  0
 32 31  1  0  0  0  0
 33 31  1  0  0  0  0
M  END
>  <minimizedAffinity>
-5.96873236

$$$$

 OpenBabel03242510413D

 34 37  0  0  0  0  0  0  0  0999 V2000
   39.1270   27.5670   39.9710 Cl  0  0  0  0  0  0  0  0  0  0  0  0
   38.1470   27.6280   41.4420 C   0  0  0  0  0  0  0  0  0  0  0  0
   38.2180   28.7730   42.2140 C   0  0  0  0  0  0  0  0  0  0  0  0
   37.4730   28.8030   43.3370 C   0  0  0  0  0  0  0  0  0  0  0  0
   36.6750   27.7160   43.6790 C   0  0  0  0  0  0  0  0  0  0  0  0
   36.6120   26.5840   42.9030 C   0  0  0  0  0  0  0  0  0  0  0  0
   37.3720   26.5340   41.7440 C   0  0  0  0  0  0  0  0  0  0  0  0
   37.4960   29.6890   43.9830 H   0  0  0  0  0  0  0  0  0  0  0  0
   36.1060   27.8140   44.5950 H   0  0  0  0  0  0  0  0  0  0  0  0
   35.9850   25.7360   43.1760 H   0  0  0  0  0  0  0  0  0  0  0  0
   38.0390   24.2020   41.2730 C   0  0  0  0  0  3  0  0  0  0  0  0
   37.3120   25.3370   40.9130 C   0  0  0  0  0  0  0  0  0  0  0  0
   36.5760   25.2300   39.7710 C   0  0  0  0  0  0  0  0  0  0  0  0
   35.9950   26.0570   39.4360 H   0  0  0  0  0  0  0  0  0  0  0  0
   36.5120   24.1010   38.9770 C   0  0  0  0  0  0  0  0  0  0  0  0
   35.8660   23.7860   37.8380 N   0  0  0  0  0  0  0  0  0  0  0  0
   35.2330   24.4690   37.3360 H   0  0  0  0  0  0  0  0  0  0  0  0
   36.1650   22.5390   37.5010 N   0  0  0  0  0  0  0  0  0  0  0  0
   37.0090   22.0190   38.4110 C   0  0  0  0  0  0  0  0  0  0  0  0
   37.4110   21.0220   38.3810 H   0  0  0  0  0  0  0  0  0  0  0  0
   37.2470   22.9800   39.3560 C   0  0  0  0  0  0  0  0  0  0  0  0
   38.0010   23.0570   40.5070 C   0  0  0  0  0  3  0  0  0  0  0  0
   41.1740   30.8430   41.6630 C   0  0  0  0  0  0  0  0  0  0  0  0
   40.6680   31.9820   40.9900 C   0  0  0  0  0  0  0  0  0  0  0  0
   39.2790   31.9910   40.7390 C   0  0  0  0  0  0  0  0  0  0  0  0
   38.5330   30.9300   41.1500 N   0  0  0  0  0  0  0  0  0  0  0  0
   39.0660   29.8720   41.7870 C   0  0  0  0  0  0  0  0  0  0  0  0
   40.3850   29.8330   42.0410 N   0  0  0  0  0  0  0  0  0  0  0  0
   42.2390   30.8370   41.8540 H   0  0  0  0  0  0  0  0  0  0  0  0
   41.3250   32.7860   40.6940 H   0  0  0  0  0  0  0  0  0  0  0  0
   38.8050   33.1840   40.0450 C   0  0  0  0  0  0  0  0  0  0  0  0
   39.8680   33.7030   39.3030 F   0  0  0  0  0  0  0  0  0  0  0  0
   38.5210   34.1220   40.9900 F   0  0  0  0  0  0  0  0  0  0  0  0
   37.7790   32.9290   39.1550 F   0  0  0  0  0  0  0  0  0  0  0  0
  1  2  1  0  0  0  0
  2  7  2  0  0  0  0
  2  3  1  0  0  0  0
  3  4  2  0  0  0  0
  4  5  1  0  0  0  0
  4  8  1  0  0  0  0
  5  9  1  0  0  0  0
  6 10  1  0  0  0  0
  6  5  2  0  0  0  0
  7  6  1  0  0  0  0
 12 11  1  0  0  0  0
 12  7  1  0  0  0  0
 13 12  2  0  0  0  0
 14 13  1  0  0  0  0
 15 21  2  0  0  0  0
 15 13  1  0  0  0  0
 16 15  1  0  0  0  0
 17 16  1  0  0  0  0
 18 16  1  0  0  0  0
 18 19  2  0  0  0  0
 19 21  1  0  0  0  0
 20 19  1  0  0  0  0
 21 22  1  0  0  0  0
 22 11  2  0  0  0  0
 23 29  1  0  0  0  0
 23 28  1  0  0  0  0
 24 23  2  0  0  0  0
 25 24  1  0  0  0  0
 25 26  2  0  0  0  0
 26 27  1  0  0  0  0
 27 28  2  0  0  0  0
 27  3  1  0  0  0  0
 30 24  1  0  0  0  0
 31 25  1  0  0  0  0
 31 33  1  0  0  0  0
 32 31  1  0  0  0  0
 34 31  1  0  0  0  0
M  END
>  <minimizedAffinity>
-5.94458532

$$$$
