
 OpenBabel03252503533D

 39 42  0  0  1  0  0  0  0  0999 V2000
   45.8280   32.9860   46.2590 N   0  0  0  0  0  0  0  0  0  0  0  0
   45.1600   33.2060   47.5470 C   0  0  0  0  0  0  0  0  0  0  0  0
   45.8800   32.3390   48.5560 C   0  0  0  0  0  0  0  0  0  0  0  0
   45.5700   30.9000   48.2480 C   0  0  0  0  0  0  0  0  0  0  0  0
   45.9040   30.6360   46.8140 C   0  0  0  0  0  0  0  0  0  0  0  0
   46.5370   31.7790   46.0950 C   0  0  1  0  0  0  0  0  0  0  0  0
   45.4410   34.2640   47.8160 H   0  0  0  0  0  0  0  0  0  0  0  0
   44.0880   33.0300   47.5180 H   0  0  0  0  0  0  0  0  0  0  0  0
   46.9620   32.5680   48.5110 H   0  0  0  0  0  0  0  0  0  0  0  0
   45.5380   32.6000   49.5610 H   0  0  0  0  0  0  0  0  0  0  0  0
   46.1990   30.2850   48.9540 H   0  0  0  0  0  0  0  0  0  0  0  0
   44.4770   30.7580   48.4820 H   0  0  0  0  0  0  0  0  0  0  0  0
   46.5960   29.7600   46.7640 H   0  0  0  0  0  0  0  0  0  0  0  0
   44.9730   30.2990   46.3110 H   0  0  0  0  0  0  0  0  0  0  0  0
   47.5820   31.9090   46.4380 H   0  0  0  0  0  0  0  0  0  0  0  0
   45.4910   30.8850   43.9450 C   0  0  0  0  0  0  0  0  0  0  0  0
   46.6290   31.2570   44.6780 C   0  0  0  0  0  0  0  0  0  0  0  0
   47.8690   31.0810   44.0390 C   0  0  0  0  0  0  0  0  0  0  0  0
   48.7160   31.3800   44.6420 H   0  0  0  0  0  0  0  0  0  0  0  0
   47.9640   30.5730   42.7710 C   0  0  0  0  0  0  0  0  0  0  0  0
   49.0800   30.3520   42.0430 N   0  0  0  0  0  0  0  0  0  0  0  0
   50.0710   30.5410   42.3490 H   0  0  0  0  0  0  0  0  0  0  0  0
   48.6870   29.8510   40.8680 N   0  0  0  0  0  0  0  0  0  0  0  0
   47.3350   29.7570   40.8610 C   0  0  0  0  0  0  0  0  0  0  0  0
   46.7050   29.3910   40.0570 H   0  0  0  0  0  0  0  0  0  0  0  0
   46.8430   30.2200   42.0830 C   0  0  0  0  0  0  0  0  0  0  0  0
   45.6140   30.3780   42.6710 C   0  0  0  0  0  0  0  0  0  0  0  0
   46.4200   34.8840   43.1460 C   0  0  0  0  0  0  0  0  0  0  0  0
   46.5760   33.9370   44.1600 C   0  0  0  0  0  0  0  0  0  0  0  0
   45.7250   33.9590   45.2480 C   0  0  0  0  0  0  0  0  0  0  0  0
   44.7710   34.9130   45.2890 N   0  0  0  0  0  0  0  0  0  0  0  0
   44.6200   35.8380   44.3060 C   0  0  0  0  0  0  0  0  0  0  0  0
   45.4510   35.8180   43.2310 N   0  0  0  0  0  0  0  0  0  0  0  0
   47.4000   33.2710   44.0210 H   0  0  0  0  0  0  0  0  0  0  0  0
   43.8270   36.5900   44.3930 H   0  0  0  0  0  0  0  0  0  0  0  0
   47.3380   34.7930   41.9640 C   0  0  0  0  0  0  0  0  0  0  0  0
   46.6350   34.6040   40.7790 F   0  0  0  0  0  0  0  0  0  0  0  0
   48.0710   35.9610   41.9310 F   0  0  0  0  0  0  0  0  0  0  0  0
   48.2210   33.7350   42.1420 F   0  0  0  0  0  0  0  0  0  0  0  0
  1  2  1  0  0  0  0
  2  7  1  0  0  0  0
  2  3  1  0  0  0  0
  3 10  1  0  0  0  0
  4 12  1  0  0  0  0
  4  3  1  0  0  0  0
  4 11  1  0  0  0  0
  5  4  1  0  0  0  0
  6  1  1  0  0  0  0
  6 15  1  1  0  0  0
  6  5  1  0  0  0  0
  8  2  1  0  0  0  0
  9  3  1  0  0  0  0
 13  5  1  0  0  0  0
 14  5  1  0  0  0  0
 16 17  1  0  0  0  0
 17  6  1  0  0  0  0
 18 19  1  0  0  0  0
 18 17  2  0  0  0  0
 20 18  1  0  0  0  0
 21 22  1  0  0  0  0
 21 20  1  0  0  0  0
 23 21  1  0  0  0  0
 24 23  2  0  0  0  0
 24 26  1  0  0  0  0
 25 24  1  0  0  0  0
 26 27  1  0  0  0  0
 26 20  2  0  0  0  0
 27 16  2  0  0  0  0
 28 33  2  0  0  0  0
 28 29  1  0  0  0  0
 29 30  2  0  0  0  0
 30 31  1  0  0  0  0
 30  1  1  0  0  0  0
 32 35  1  0  0  0  0
 32 31  2  0  0  0  0
 33 32  1  0  0  0  0
 34 29  1  0  0  0  0
 36 39  1  0  0  0  0
 36 28  1  0  0  0  0
 37 36  1  0  0  0  0
 38 36  1  0  0  0  0
M  END
>  <minimizedAffinity>
-5.64905071

>  <minimizedRMSD>
0.703089893

$$$$
