
 OpenBabel03242523023D

 35 38  0  0  0  0  0  0  0  0999 V2000
   45.3080   36.0650   43.3240 C   0  0  0  0  0  0  0  0  0  0  0  0
   46.1210   34.9330   43.1860 C   0  0  0  0  0  0  0  0  0  0  0  0
   46.1240   34.0260   44.2240 C   0  0  0  0  0  0  0  0  0  0  0  0
   45.3700   34.2210   45.3370 N   0  0  0  0  0  0  0  0  0  0  0  0
   44.5870   35.3410   45.4380 C   0  0  0  0  0  0  0  0  0  0  0  0
   44.5670   36.2290   44.4500 N   0  0  0  0  0  0  0  0  0  0  0  0
   45.1850   36.8700   42.6230 H   0  0  0  0  0  0  0  0  0  0  0  0
   43.9600   35.5460   46.3130 H   0  0  0  0  0  0  0  0  0  0  0  0
   46.8430   34.8140   41.9890 N   0  0  0  0  0  0  0  0  0  0  0  0
   48.1400   35.3660   41.8890 C   0  0  0  0  0  0  0  0  0  0  0  0
   48.7220   35.2520   40.5250 C   0  0  0  0  0  0  0  0  0  0  0  0
   48.5480   34.0130   39.8880 N   0  0  0  0  0  0  0  0  0  0  0  0
   47.3470   33.3290   40.1200 C   0  0  0  0  0  0  0  0  0  0  0  0
   46.3350   34.1760   40.8050 C   0  0  0  0  0  0  0  0  0  0  0  0
   48.0680   36.4890   42.0870 H   0  0  0  0  0  0  0  0  0  0  0  0
   48.8720   34.8550   42.5360 H   0  0  0  0  0  0  0  0  0  0  0  0
   48.3150   36.1130   39.9110 H   0  0  0  0  0  0  0  0  0  0  0  0
   49.8180   35.4730   40.5950 H   0  0  0  0  0  0  0  0  0  0  0  0
   48.8720   34.0840   38.8980 H   0  0  0  0  0  0  0  0  0  0  0  0
   47.5780   32.3840   40.6820 H   0  0  0  0  0  0  0  0  0  0  0  0
   46.9290   33.0040   39.1390 H   0  0  0  0  0  0  0  0  0  0  0  0
   45.4650   33.4860   41.0030 H   0  0  0  0  0  0  0  0  0  0  0  0
   46.0250   34.9630   40.0690 H   0  0  0  0  0  0  0  0  0  0  0  0
   46.5750   32.2180   45.6120 C   0  0  0  0  0  0  0  0  0  0  0  0
   46.8030   32.7730   44.3340 C   0  0  0  0  0  0  0  0  0  0  0  0
   47.6630   31.9720   43.6120 C   0  0  0  0  0  0  0  0  0  0  0  0
   47.8300   32.4480   42.6370 H   0  0  0  0  0  0  0  0  0  0  0  0
   48.2240   30.8170   44.0270 C   0  0  0  0  0  0  0  0  0  0  0  0
   49.0600   30.0300   43.3330 N   0  0  0  0  0  0  0  0  0  0  0  0
   49.4400   30.1280   42.3750 H   0  0  0  0  0  0  0  0  0  0  0  0
   49.3600   29.0030   44.1360 N   0  0  0  0  0  0  0  0  0  0  0  0
   48.7200   29.1500   45.3100 C   0  0  0  0  0  0  0  0  0  0  0  0
   48.7340   28.5010   46.1980 H   0  0  0  0  0  0  0  0  0  0  0  0
   47.9750   30.3140   45.2780 C   0  0  0  0  0  0  0  0  0  0  0  0
   47.1310   31.0370   46.0800 C   0  0  0  0  0  0  0  0  0  0  0  0
  1  6  1  0  0  0  0
  2  1  2  0  0  0  0
  2  3  1  0  0  0  0
  3 25  1  0  0  0  0
  3  4  2  0  0  0  0
  4  5  1  0  0  0  0
  5  8  1  0  0  0  0
  6  5  2  0  0  0  0
  7  1  1  0  0  0  0
  9  2  1  0  0  0  0
 10  9  1  0  0  0  0
 10 15  1  0  0  0  0
 10 16  1  0  0  0  0
 11 18  1  0  0  0  0
 11 10  1  0  0  0  0
 12 13  1  0  0  0  0
 12 11  1  0  0  0  0
 13 20  1  0  0  0  0
 13 14  1  0  0  0  0
 14 22  1  0  0  0  0
 14  9  1  0  0  0  0
 17 11  1  0  0  0  0
 19 12  1  0  0  0  0
 21 13  1  0  0  0  0
 23 14  1  0  0  0  0
 24 35  1  0  0  0  0
 25 24  2  0  0  0  0
 26 28  2  0  0  0  0
 26 25  1  0  0  0  0
 27 26  1  0  0  0  0
 28 34  1  0  0  0  0
 29 28  1  0  0  0  0
 29 31  1  0  0  0  0
 30 29  1  0  0  0  0
 31 32  2  0  0  0  0
 32 33  1  0  0  0  0
 34 32  1  0  0  0  0
 34 35  2  0  0  0  0
M  END
>  <minimizedAffinity>
-5.34267521

>  <minimizedRMSD>
3.89770913

$$$$
