
 OpenBabel03252506543D

 41 46  0  0  0  0  0  0  0  0999 V2000
   47.2820   31.4410   45.3740 C   0  0  0  0  0  0  0  0  0  0  0  0
   46.6900   32.6910   45.3300 C   0  0  0  0  0  0  0  0  0  0  0  0
   45.9070   33.1800   46.3470 C   0  0  0  0  0  0  0  0  0  0  0  0
   45.6800   32.4060   47.4850 C   0  0  0  0  0  0  0  0  0  0  0  0
   44.9860   32.5560   48.6460 N   0  0  0  0  0  0  0  0  0  0  0  0
   45.1450   31.4310   49.3860 C   0  0  0  0  0  0  0  0  0  0  0  0
   45.9380   30.5960   48.6710 N   0  0  0  0  0  0  0  0  0  0  0  0
   46.2780   31.1770   47.4990 C   0  0  0  0  0  0  0  0  0  0  0  0
   47.0680   30.6550   46.5010 C   0  0  0  0  0  0  0  0  0  0  0  0
   47.8990   31.0670   44.5650 H   0  0  0  0  0  0  0  0  0  0  0  0
   45.4320   34.1620   46.3280 H   0  0  0  0  0  0  0  0  0  0  0  0
   44.4490   33.4190   48.8530 H   0  0  0  0  0  0  0  0  0  0  0  0
   44.7020   31.2880   50.3480 H   0  0  0  0  0  0  0  0  0  0  0  0
   46.1700   35.2370   42.7180 C   0  0  0  0  0  0  0  0  0  0  0  0
   47.3220   35.1140   41.9510 C   0  0  0  0  0  0  0  0  0  0  0  0
   48.2740   34.1680   42.3200 C   0  0  0  0  0  0  0  0  0  0  0  0
   48.0330   33.3960   43.4280 N   0  0  0  0  0  0  0  0  0  0  0  0
   46.8980   33.5390   44.1580 C   0  0  0  0  0  0  0  0  0  0  0  0
   45.9830   34.4470   43.8050 N   0  0  0  0  0  0  0  0  0  0  0  0
   45.4420   35.9840   42.4070 H   0  0  0  0  0  0  0  0  0  0  0  0
   47.5230   35.7200   41.0720 H   0  0  0  0  0  0  0  0  0  0  0  0
   49.2030   34.0070   41.7750 H   0  0  0  0  0  0  0  0  0  0  0  0
   47.6580   29.3250   46.6240 C   0  0  0  0  0  0  0  0  0  0  0  0
   49.0000   29.0880   46.8580 C   0  0  0  0  0  0  0  0  0  0  0  0
   49.0910   27.6920   46.8960 C   0  0  0  0  0  0  0  0  0  0  0  0
   47.8320   27.1780   46.6880 C   0  0  0  0  0  0  0  0  0  0  0  0
   47.0100   28.1920   46.5300 O   0  0  0  0  0  0  0  0  0  0  0  0
   49.8130   29.7890   46.9860 H   0  0  0  0  0  0  0  0  0  0  0  0
   49.9790   27.0940   47.0580 H   0  0  0  0  0  0  0  0  0  0  0  0
   48.4280   24.8100   46.7070 C   0  0  0  0  0  3  0  0  0  0  0  0
   47.4320   25.7760   46.6420 C   0  0  0  0  0  0  0  0  0  0  0  0
   46.1030   25.4250   46.5360 C   0  0  0  0  0  0  0  0  0  0  0  0
   45.3120   26.1570   46.4830 H   0  0  0  0  0  0  0  0  0  0  0  0
   45.7790   24.0750   46.4960 C   0  0  0  0  0  0  0  0  0  0  0  0
   44.5520   23.4840   46.3940 N   0  0  0  0  0  0  0  0  0  0  0  0
   43.6180   23.9440   46.3280 H   0  0  0  0  0  0  0  0  0  0  0  0
   44.7280   22.1640   46.3940 N   0  0  0  0  0  0  0  0  0  0  0  0
   46.0410   21.8830   46.4920 C   0  0  0  0  0  0  0  0  0  0  0  0
   46.5580   20.9170   46.5210 H   0  0  0  0  0  0  0  0  0  0  0  0
   46.7430   23.0670   46.5590 C   0  0  0  0  0  0  0  0  0  0  0  0
   48.0510   23.4840   46.6640 C   0  0  0  0  0  3  0  0  0  0  0  0
  1  9  1  0  0  0  0
  2  1  2  0  0  0  0
  2  3  1  0  0  0  0
  3  4  2  0  0  0  0
  4  8  1  0  0  0  0
  4  5  1  0  0  0  0
  5 12  1  0  0  0  0
  5  6  1  0  0  0  0
  6 13  1  0  0  0  0
  7  6  2  0  0  0  0
  8  7  1  0  0  0  0
  9 23  1  0  0  0  0
  9  8  2  0  0  0  0
 10  1  1  0  0  0  0
 11  3  1  0  0  0  0
 14 19  1  0  0  0  0
 15 16  1  0  0  0  0
 15 14  2  0  0  0  0
 16 17  2  0  0  0  0
 17 18  1  0  0  0  0
 18  2  1  0  0  0  0
 19 18  2  0  0  0  0
 20 14  1  0  0  0  0
 21 15  1  0  0  0  0
 22 16  1  0  0  0  0
 23 24  2  0  0  0  0
 24 25  1  0  0  0  0
 24 28  1  0  0  0  0
 25 29  1  0  0  0  0
 26 25  2  0  0  0  0
 27 23  1  0  0  0  0
 27 26  1  0  0  0  0
 31 26  1  0  0  0  0
 31 30  2  0  0  0  0
 32 31  1  0  0  0  0
 33 32  1  0  0  0  0
 34 32  2  0  0  0  0
 34 40  1  0  0  0  0
 35 34  1  0  0  0  0
 36 35  1  0  0  0  0
 37 35  1  0  0  0  0
 37 38  2  0  0  0  0
 38 39  1  0  0  0  0
 38 40  1  0  0  0  0
 40 41  2  0  0  0  0
 41 30  1  0  0  0  0
M  END
>  <minimizedAffinity>
-5.56117392

>  <minimizedRMSD>
0.809800088

$$$$
