
 OpenBabel03242513163D

 40 44  0  0  0  0  0  0  0  0999 V2000
   46.9400   32.2410   46.6960 C   0  0  0  0  0  0  0  0  0  0  0  0
   47.3810   32.5730   47.8190 O   0  0  0  0  0  0  0  0  0  0  0  0
   44.8200   30.6130   47.9900 Cl  0  0  0  0  0  0  0  0  0  0  0  0
   46.0390   29.9840   46.8750 C   0  0  0  0  0  0  0  0  0  0  0  0
   46.9860   30.8280   46.3410 C   0  0  0  0  0  0  0  0  0  0  0  0
   47.9120   30.2920   45.4970 C   0  0  0  0  0  0  0  0  0  0  0  0
   47.8990   28.9490   45.1900 C   0  0  0  0  0  0  0  0  0  0  0  0
   46.9480   28.1020   45.7270 C   0  0  0  0  0  0  0  0  0  0  0  0
   46.0000   28.6490   46.5890 C   0  0  0  0  0  0  0  0  0  0  0  0
   48.6700   30.9300   45.0610 H   0  0  0  0  0  0  0  0  0  0  0  0
   48.6420   28.5410   44.5180 H   0  0  0  0  0  0  0  0  0  0  0  0
   46.9820   27.0730   45.4570 H   0  0  0  0  0  0  0  0  0  0  0  0
   45.0400   27.6730   47.0920 C   0  0  0  0  0  0  0  0  0  0  0  0
   43.9220   27.1310   46.4780 C   0  0  0  0  0  0  0  0  0  0  0  0
   43.2700   26.2330   47.2950 C   0  0  0  0  0  0  0  0  0  0  0  0
   44.0540   26.2640   48.4310 C   0  0  0  0  0  0  0  0  0  0  0  0
   45.0420   27.0960   48.2590 O   0  0  0  0  0  0  0  0  0  0  0  0
   43.6190   27.4100   45.4550 H   0  0  0  0  0  0  0  0  0  0  0  0
   42.3760   25.6610   47.0860 H   0  0  0  0  0  0  0  0  0  0  0  0
   43.8750   25.6740   49.3460 H   0  0  0  0  0  0  0  0  0  0  0  0
   44.8360   34.8690   45.3480 C   0  0  0  0  0  0  0  0  0  0  0  0
   45.2830   35.0920   44.0390 C   0  0  0  0  0  0  0  0  0  0  0  0
   46.3390   34.2960   43.6550 C   0  0  0  0  0  0  0  0  0  0  0  0
   46.8530   33.3850   44.5330 N   0  0  0  0  0  0  0  0  0  0  0  0
   46.3970   33.2090   45.7620 C   0  0  0  0  0  0  0  0  0  0  0  0
   45.3720   33.9680   46.1630 N   0  0  0  0  0  0  0  0  0  0  0  0
   43.9970   35.4710   45.7150 H   0  0  0  0  0  0  0  0  0  0  0  0
   44.8460   35.8200   43.3890 H   0  0  0  0  0  0  0  0  0  0  0  0
   48.0840   35.0630   42.0660 C   0  0  0  0  0  0  0  0  0  0  0  0
   46.9330   34.3940   42.3260 C   0  0  0  0  0  0  0  0  0  0  0  0
   46.3280   33.7910   41.2420 C   0  0  0  0  0  0  0  0  0  0  0  0
   45.3970   33.2380   41.3960 H   0  0  0  0  0  0  0  0  0  0  0  0
   46.8560   33.8600   39.9740 C   0  0  0  0  0  0  0  0  0  0  0  0
   46.4800   33.3740   38.7640 N   0  0  0  0  0  0  0  0  0  0  0  0
   45.6030   32.7930   38.6200 H   0  0  0  0  0  0  0  0  0  0  0  0
   47.3450   33.7220   37.8220 N   0  0  0  0  0  0  0  0  0  0  0  0
   48.3300   34.4540   38.3750 C   0  0  0  0  0  0  0  0  0  0  0  0
   49.1970   34.8990   37.8930 H   0  0  0  0  0  0  0  0  0  0  0  0
   48.0430   34.5540   39.7310 C   0  0  0  0  0  0  0  0  0  0  0  0
   48.6610   35.1660   40.8080 C   0  0  0  0  0  0  0  0  0  0  0  0
  1  2  2  0  0  0  0
  4  3  1  0  0  0  0
  5  1  1  0  0  0  0
  5  4  2  0  0  0  0
  6  5  1  0  0  0  0
  7  6  2  0  0  0  0
  7  8  1  0  0  0  0
  8  9  2  0  0  0  0
  9  4  1  0  0  0  0
  9 13  1  0  0  0  0
 10  6  1  0  0  0  0
 11  7  1  0  0  0  0
 12  8  1  0  0  0  0
 13 17  1  0  0  0  0
 14 13  2  0  0  0  0
 14 15  1  0  0  0  0
 15 16  2  0  0  0  0
 16 20  1  0  0  0  0
 17 16  1  0  0  0  0
 18 14  1  0  0  0  0
 19 15  1  0  0  0  0
 21 27  1  0  0  0  0
 21 26  1  0  0  0  0
 22 21  2  0  0  0  0
 23 22  1  0  0  0  0
 23 24  2  0  0  0  0
 24 25  1  0  0  0  0
 25 26  2  0  0  0  0
 25  1  1  0  0  0  0
 28 22  1  0  0  0  0
 29 30  1  0  0  0  0
 30 23  1  0  0  0  0
 31 32  1  0  0  0  0
 31 30  2  0  0  0  0
 33 31  1  0  0  0  0
 34 33  1  0  0  0  0
 35 34  1  0  0  0  0
 36 37  2  0  0  0  0
 36 34  1  0  0  0  0
 37 39  1  0  0  0  0
 38 37  1  0  0  0  0
 39 33  2  0  0  0  0
 39 40  1  0  0  0  0
 40 29  2  0  0  0  0
M  END
>  <minimizedAffinity>
-7.14886522

>  <minimizedRMSD>
0.539955795

$$$$
