
 OpenBabel03252506543D

 41 46  0  0  0  0  0  0  0  0999 V2000
   47.2210   31.3820   45.1490 C   0  0  0  0  0  0  0  0  0  0  0  0
   46.8620   32.7190   45.1350 C   0  0  0  0  0  0  0  0  0  0  0  0
   46.2540   33.3370   46.2000 C   0  0  0  0  0  0  0  0  0  0  0  0
   45.9720   32.6130   47.3580 C   0  0  0  0  0  0  0  0  0  0  0  0
   45.4000   32.8810   48.5630 N   0  0  0  0  0  0  0  0  0  0  0  0
   45.4050   31.7430   49.3000 C   0  0  0  0  0  0  0  0  0  0  0  0
   45.9820   30.7810   48.5380 N   0  0  0  0  0  0  0  0  0  0  0  0
   46.3380   31.2960   47.3410 C   0  0  0  0  0  0  0  0  0  0  0  0
   46.9490   30.6440   46.2950 C   0  0  0  0  0  0  0  0  0  0  0  0
   47.7010   30.9060   44.3020 H   0  0  0  0  0  0  0  0  0  0  0  0
   45.9640   34.3890   46.2050 H   0  0  0  0  0  0  0  0  0  0  0  0
   45.0440   33.8260   48.8000 H   0  0  0  0  0  0  0  0  0  0  0  0
   45.0120   31.6790   50.2930 H   0  0  0  0  0  0  0  0  0  0  0  0
   46.5110   35.1870   42.4220 C   0  0  0  0  0  0  0  0  0  0  0  0
   47.6860   35.0060   41.7020 C   0  0  0  0  0  0  0  0  0  0  0  0
   48.5960   34.0470   42.1380 C   0  0  0  0  0  0  0  0  0  0  0  0
   48.2930   33.3210   43.2610 N   0  0  0  0  0  0  0  0  0  0  0  0
   47.1370   33.5200   43.9440 C   0  0  0  0  0  0  0  0  0  0  0  0
   46.2610   34.4400   43.5270 N   0  0  0  0  0  0  0  0  0  0  0  0
   45.8160   35.9420   42.0600 H   0  0  0  0  0  0  0  0  0  0  0  0
   47.9350   35.5750   40.8120 H   0  0  0  0  0  0  0  0  0  0  0  0
   49.5390   33.8410   41.6340 H   0  0  0  0  0  0  0  0  0  0  0  0
   47.2960   29.2280   46.3880 C   0  0  0  0  0  0  0  0  0  0  0  0
   48.5880   28.7500   46.5060 C   0  0  0  0  0  0  0  0  0  0  0  0
   48.4270   27.3620   46.5600 C   0  0  0  0  0  0  0  0  0  0  0  0
   47.0810   27.0850   46.4730 C   0  0  0  0  0  0  0  0  0  0  0  0
   46.4470   28.2330   46.3700 O   0  0  0  0  0  0  0  0  0  0  0  0
   49.5220   29.2910   46.5510 H   0  0  0  0  0  0  0  0  0  0  0  0
   49.2020   26.6120   46.6530 H   0  0  0  0  0  0  0  0  0  0  0  0
   45.8390   25.3560   47.6680 C   0  0  0  0  0  3  0  0  0  0  0  0
   46.4310   25.7800   46.4850 C   0  0  0  0  0  0  0  0  0  0  0  0
   46.4080   24.9920   45.3530 C   0  0  0  0  0  0  0  0  0  0  0  0
   46.8620   25.3000   44.4230 H   0  0  0  0  0  0  0  0  0  0  0  0
   45.7770   23.7580   45.4210 C   0  0  0  0  0  0  0  0  0  0  0  0
   45.6220   22.8110   44.4500 N   0  0  0  0  0  0  0  0  0  0  0  0
   45.9580   22.8410   43.4610 H   0  0  0  0  0  0  0  0  0  0  0  0
   44.9480   21.7890   44.9720 N   0  0  0  0  0  0  0  0  0  0  0  0
   44.6590   22.0480   46.2610 C   0  0  0  0  0  0  0  0  0  0  0  0
   44.1220   21.4460   47.0010 H   0  0  0  0  0  0  0  0  0  0  0  0
   45.1660   23.2880   46.5860 C   0  0  0  0  0  0  0  0  0  0  0  0
   45.2250   24.1220   47.6810 C   0  0  0  0  0  3  0  0  0  0  0  0
  1  9  1  0  0  0  0
  2  1  2  0  0  0  0
  2  3  1  0  0  0  0
  3 11  1  0  0  0  0
  3  4  2  0  0  0  0
  4  5  1  0  0  0  0
  5 12  1  0  0  0  0
  5  6  1  0  0  0  0
  6 13  1  0  0  0  0
  7  6  2  0  0  0  0
  8  4  1  0  0  0  0
  8  7  1  0  0  0  0
  9 23  1  0  0  0  0
  9  8  2  0  0  0  0
 10  1  1  0  0  0  0
 14 19  1  0  0  0  0
 15 16  1  0  0  0  0
 15 14  2  0  0  0  0
 16 17  2  0  0  0  0
 17 18  1  0  0  0  0
 18  2  1  0  0  0  0
 19 18  2  0  0  0  0
 20 14  1  0  0  0  0
 21 15  1  0  0  0  0
 22 16  1  0  0  0  0
 23 24  2  0  0  0  0
 24 28  1  0  0  0  0
 24 25  1  0  0  0  0
 25 29  1  0  0  0  0
 26 31  1  0  0  0  0
 26 25  2  0  0  0  0
 27 23  1  0  0  0  0
 27 26  1  0  0  0  0
 30 41  1  0  0  0  0
 31 30  2  0  0  0  0
 32 34  2  0  0  0  0
 32 31  1  0  0  0  0
 33 32  1  0  0  0  0
 34 40  1  0  0  0  0
 35 37  1  0  0  0  0
 35 34  1  0  0  0  0
 36 35  1  0  0  0  0
 37 38  2  0  0  0  0
 38 40  1  0  0  0  0
 38 39  1  0  0  0  0
 40 41  2  0  0  0  0
M  END
>  <minimizedAffinity>
-5.70286846

>  <minimizedRMSD>
0.200893566

$$$$
