
 OpenBabel03242523043D

 35 38  0  0  0  0  0  0  0  0999 V2000
   41.9010   33.3670   40.4450 C   0  0  0  0  0  0  0  0  0  0  0  0
   40.8880   32.4330   40.6900 C   0  0  0  0  0  0  0  0  0  0  0  0
   41.0580   31.5790   41.7590 C   0  0  0  0  0  0  0  0  0  0  0  0
   42.1650   31.6410   42.5450 N   0  0  0  0  0  0  0  0  0  0  0  0
   43.1370   32.5690   42.2750 C   0  0  0  0  0  0  0  0  0  0  0  0
   42.9940   33.4020   41.2500 N   0  0  0  0  0  0  0  0  0  0  0  0
   41.9370   34.1010   39.6610 H   0  0  0  0  0  0  0  0  0  0  0  0
   44.0490   32.6610   42.8770 H   0  0  0  0  0  0  0  0  0  0  0  0
   39.7770   32.4650   39.8350 N   0  0  0  0  0  0  0  0  0  0  0  0
   39.7400   31.6350   38.6920 C   0  0  0  0  0  0  0  0  0  0  0  0
   38.5470   31.8710   37.8340 C   0  0  0  0  0  0  0  0  0  0  0  0
   37.3260   32.0100   38.5110 N   0  0  0  0  0  0  0  0  0  0  0  0
   37.3450   32.6570   39.7550 C   0  0  0  0  0  0  0  0  0  0  0  0
   38.6430   33.3300   40.0240 C   0  0  0  0  0  0  0  0  0  0  0  0
   40.6360   31.8940   38.0310 H   0  0  0  0  0  0  0  0  0  0  0  0
   39.6800   30.5630   38.9450 H   0  0  0  0  0  0  0  0  0  0  0  0
   38.7780   32.7610   37.1720 H   0  0  0  0  0  0  0  0  0  0  0  0
   38.4660   31.0190   37.1110 H   0  0  0  0  0  0  0  0  0  0  0  0
   36.5870   32.3020   37.8340 H   0  0  0  0  0  0  0  0  0  0  0  0
   37.0670   31.9110   40.5480 H   0  0  0  0  0  0  0  0  0  0  0  0
   36.5390   33.4270   39.7660 H   0  0  0  0  0  0  0  0  0  0  0  0
   38.5510   33.7290   41.0750 H   0  0  0  0  0  0  0  0  0  0  0  0
   38.7140   34.1880   39.3060 H   0  0  0  0  0  0  0  0  0  0  0  0
   40.8950   29.3800   42.4910 C   0  0  0  0  0  3  0  0  0  0  0  0
   40.1780   30.5770   42.2720 C   0  0  0  0  0  0  0  0  0  0  0  0
   38.8410   30.3910   42.5550 C   0  0  0  0  0  0  0  0  0  0  0  0
   38.3180   31.3350   42.3510 H   0  0  0  0  0  0  0  0  0  0  0  0
   38.2610   29.2510   42.9830 C   0  0  0  0  0  0  0  0  0  0  0  0
   36.9620   29.0590   43.2610 N   0  0  0  0  0  0  0  0  0  0  0  0
   36.1590   29.7110   43.2120 H   0  0  0  0  0  0  0  0  0  0  0  0
   36.8470   27.7850   43.6480 N   0  0  0  0  0  0  0  0  0  0  0  0
   38.0540   27.1930   43.6100 C   0  0  0  0  0  0  0  0  0  0  0  0
   38.3320   26.1580   43.8590 H   0  0  0  0  0  0  0  0  0  0  0  0
   38.9960   28.1110   43.1840 C   0  0  0  0  0  0  0  0  0  0  0  0
   40.3400   28.1870   42.9300 C   0  0  0  0  0  3  0  0  0  0  0  0
  1  2  2  0  0  0  0
  1  6  1  0  0  0  0
  2  3  1  0  0  0  0
  3 25  1  0  0  0  0
  3  4  2  0  0  0  0
  5  4  1  0  0  0  0
  5  8  1  0  0  0  0
  6  5  2  0  0  0  0
  7  1  1  0  0  0  0
  9 14  1  0  0  0  0
  9  2  1  0  0  0  0
 10 16  1  0  0  0  0
 10  9  1  0  0  0  0
 11 12  1  0  0  0  0
 11 10  1  0  0  0  0
 12 13  1  0  0  0  0
 13 21  1  0  0  0  0
 13 14  1  0  0  0  0
 13 20  1  0  0  0  0
 14 22  1  0  0  0  0
 15 10  1  0  0  0  0
 17 11  1  0  0  0  0
 18 11  1  0  0  0  0
 19 12  1  0  0  0  0
 23 14  1  0  0  0  0
 24 35  1  0  0  0  0
 25 24  2  0  0  0  0
 25 26  1  0  0  0  0
 26 28  2  0  0  0  0
 27 26  1  0  0  0  0
 28 34  1  0  0  0  0
 28 29  1  0  0  0  0
 29 31  1  0  0  0  0
 30 29  1  0  0  0  0
 32 31  2  0  0  0  0
 32 33  1  0  0  0  0
 34 32  1  0  0  0  0
 35 34  2  0  0  0  0
M  END
>  <minimizedAffinity>
-5.71337271

$$$$

 OpenBabel03242523043D

 35 38  0  0  0  0  0  0  0  0999 V2000
   38.2900   29.8180   42.5510 C   0  0  0  0  0  0  0  0  0  0  0  0
   37.5800   29.7980   41.3440 C   0  0  0  0  0  0  0  0  0  0  0  0
   36.6550   28.7910   41.1710 C   0  0  0  0  0  0  0  0  0  0  0  0
   36.4390   27.8550   42.1310 N   0  0  0  0  0  0  0  0  0  0  0  0
   37.1520   27.9060   43.3010 C   0  0  0  0  0  0  0  0  0  0  0  0
   38.0490   28.8670   43.4900 N   0  0  0  0  0  0  0  0  0  0  0  0
   39.0440   30.5210   42.8540 H   0  0  0  0  0  0  0  0  0  0  0  0
   37.0160   27.1760   44.1070 H   0  0  0  0  0  0  0  0  0  0  0  0
   37.8610   30.8210   40.4280 N   0  0  0  0  0  0  0  0  0  0  0  0
   37.0200   31.9540   40.3530 C   0  0  0  0  0  0  0  0  0  0  0  0
   37.3930   32.8900   39.2580 C   0  0  0  0  0  0  0  0  0  0  0  0
   38.7650   33.1530   39.1190 N   0  0  0  0  0  0  0  0  0  0  0  0
   39.6550   32.1020   39.3800 C   0  0  0  0  0  0  0  0  0  0  0  0
   38.9640   30.7910   39.5040 C   0  0  0  0  0  0  0  0  0  0  0  0
   35.9650   31.6020   40.0950 H   0  0  0  0  0  0  0  0  0  0  0  0
   37.0630   32.5770   41.2620 H   0  0  0  0  0  0  0  0  0  0  0  0
   36.9310   32.4920   38.3030 H   0  0  0  0  0  0  0  0  0  0  0  0
   36.8540   33.8570   39.4290 H   0  0  0  0  0  0  0  0  0  0  0  0
   38.9240   33.7070   38.2480 H   0  0  0  0  0  0  0  0  0  0  0  0
   40.2600   32.3650   40.2890 H   0  0  0  0  0  0  0  0  0  0  0  0
   40.3840   32.0380   38.5390 H   0  0  0  0  0  0  0  0  0  0  0  0
   39.7750   30.0620   39.7950 H   0  0  0  0  0  0  0  0  0  0  0  0
   38.5800   30.5330   38.4840 H   0  0  0  0  0  0  0  0  0  0  0  0
   36.2790   27.5400   39.2490 C   0  0  0  0  0  3  0  0  0  0  0  0
   35.7600   28.5560   40.0810 C   0  0  0  0  0  0  0  0  0  0  0  0
   34.5880   29.0550   39.5520 C   0  0  0  0  0  0  0  0  0  0  0  0
   34.2320   29.8540   40.2150 H   0  0  0  0  0  0  0  0  0  0  0  0
   33.9890   28.6570   38.4110 C   0  0  0  0  0  0  0  0  0  0  0  0
   32.8490   29.1340   37.8870 N   0  0  0  0  0  0  0  0  0  0  0  0
   32.2100   29.8750   38.2250 H   0  0  0  0  0  0  0  0  0  0  0  0
   32.6410   28.4480   36.7580 N   0  0  0  0  0  0  0  0  0  0  0  0
   33.6350   27.5590   36.5830 C   0  0  0  0  0  0  0  0  0  0  0  0
   33.7870   26.8350   35.7690 H   0  0  0  0  0  0  0  0  0  0  0  0
   34.5280   27.6640   37.6320 C   0  0  0  0  0  0  0  0  0  0  0  0
   35.6980   27.1000   38.0700 C   0  0  0  0  0  3  0  0  0  0  0  0
  1  7  1  0  0  0  0
  1  6  1  0  0  0  0
  2  1  2  0  0  0  0
  3  2  1  0  0  0  0
  3  4  2  0  0  0  0
  4  5  1  0  0  0  0
  5  6  2  0  0  0  0
  5  8  1  0  0  0  0
  9  2  1  0  0  0  0
 10  9  1  0  0  0  0
 10 16  1  0  0  0  0
 11 18  1  0  0  0  0
 11 10  1  0  0  0  0
 12 11  1  0  0  0  0
 12 13  1  0  0  0  0
 13 14  1  0  0  0  0
 13 20  1  0  0  0  0
 14 22  1  0  0  0  0
 14  9  1  0  0  0  0
 15 10  1  0  0  0  0
 17 11  1  0  0  0  0
 19 12  1  0  0  0  0
 21 13  1  0  0  0  0
 23 14  1  0  0  0  0
 24 25  1  0  0  0  0
 25  3  1  0  0  0  0
 26 25  2  0  0  0  0
 26 27  1  0  0  0  0
 28 26  1  0  0  0  0
 29 30  1  0  0  0  0
 29 28  1  0  0  0  0
 31 29  1  0  0  0  0
 32 31  2  0  0  0  0
 32 34  1  0  0  0  0
 33 32  1  0  0  0  0
 34 35  1  0  0  0  0
 34 28  2  0  0  0  0
 35 24  2  0  0  0  0
M  END
>  <minimizedAffinity>
-5.61116695

$$$$

 OpenBabel03242523043D

 35 38  0  0  0  0  0  0  0  0999 V2000
   36.4140   28.8450   41.3910 C   0  0  0  0  0  0  0  0  0  0  0  0
   37.6210   29.5540   41.3940 C   0  0  0  0  0  0  0  0  0  0  0  0
   38.5490   29.2220   42.3590 C   0  0  0  0  0  0  0  0  0  0  0  0
   38.3030   28.2450   43.2700 N   0  0  0  0  0  0  0  0  0  0  0  0
   37.1090   27.5710   43.2370 C   0  0  0  0  0  0  0  0  0  0  0  0
   36.2010   27.8740   42.3170 N   0  0  0  0  0  0  0  0  0  0  0  0
   35.5840   28.9700   40.7210 H   0  0  0  0  0  0  0  0  0  0  0  0
   36.8610   26.7750   43.9490 H   0  0  0  0  0  0  0  0  0  0  0  0
   37.7860   30.5270   40.3980 N   0  0  0  0  0  0  0  0  0  0  0  0
   37.1360   31.7770   40.5170 C   0  0  0  0  0  0  0  0  0  0  0  0
   37.3240   32.6500   39.3270 C   0  0  0  0  0  0  0  0  0  0  0  0
   38.6260   32.7000   38.8040 N   0  0  0  0  0  0  0  0  0  0  0  0
   39.3870   31.5230   38.8480 C   0  0  0  0  0  0  0  0  0  0  0  0
   38.5700   30.3330   39.2080 C   0  0  0  0  0  0  0  0  0  0  0  0
   36.0100   31.5920   40.5740 H   0  0  0  0  0  0  0  0  0  0  0  0
   37.5230   32.3800   41.3550 H   0  0  0  0  0  0  0  0  0  0  0  0
   36.5600   32.3340   38.5520 H   0  0  0  0  0  0  0  0  0  0  0  0
   37.0050   33.6880   39.6040 H   0  0  0  0  0  0  0  0  0  0  0  0
   38.6170   33.2280   37.9040 H   0  0  0  0  0  0  0  0  0  0  0  0
   40.2530   31.6840   39.5450 H   0  0  0  0  0  0  0  0  0  0  0  0
   39.8340   31.3520   37.8420 H   0  0  0  0  0  0  0  0  0  0  0  0
   39.3110   29.4870   39.2900 H   0  0  0  0  0  0  0  0  0  0  0  0
   37.8830   30.1430   38.3430 H   0  0  0  0  0  0  0  0  0  0  0  0
   40.7340   28.6780   42.9290 C   0  0  0  0  0  3  0  0  0  0  0  0
   39.8670   29.7320   42.5650 C   0  0  0  0  0  0  0  0  0  0  0  0
   40.5420   30.9340   42.5870 C   0  0  0  0  0  0  0  0  0  0  0  0
   39.8300   31.7260   42.3210 H   0  0  0  0  0  0  0  0  0  0  0  0
   41.8410   31.1210   42.9020 C   0  0  0  0  0  0  0  0  0  0  0  0
   42.5080   32.2850   42.9260 N   0  0  0  0  0  0  0  0  0  0  0  0
   42.1900   33.2490   42.7180 H   0  0  0  0  0  0  0  0  0  0  0  0
   43.7600   31.9910   43.2910 N   0  0  0  0  0  0  0  0  0  0  0  0
   43.8700   30.6660   43.4910 C   0  0  0  0  0  0  0  0  0  0  0  0
   44.7480   30.0770   43.7970 H   0  0  0  0  0  0  0  0  0  0  0  0
   42.6480   30.0670   43.2490 C   0  0  0  0  0  0  0  0  0  0  0  0
   42.0720   28.8240   43.2600 C   0  0  0  0  0  3  0  0  0  0  0  0
  1  2  2  0  0  0  0
  1  6  1  0  0  0  0
  2  3  1  0  0  0  0
  3 25  1  0  0  0  0
  3  4  2  0  0  0  0
  5  4  1  0  0  0  0
  5  8  1  0  0  0  0
  6  5  2  0  0  0  0
  7  1  1  0  0  0  0
  9 10  1  0  0  0  0
  9  2  1  0  0  0  0
 10 15  1  0  0  0  0
 10 16  1  0  0  0  0
 11 18  1  0  0  0  0
 11 10  1  0  0  0  0
 12 13  1  0  0  0  0
 12 11  1  0  0  0  0
 13 14  1  0  0  0  0
 13 20  1  0  0  0  0
 14 22  1  0  0  0  0
 14  9  1  0  0  0  0
 17 11  1  0  0  0  0
 19 12  1  0  0  0  0
 21 13  1  0  0  0  0
 23 14  1  0  0  0  0
 24 35  1  0  0  0  0
 25 26  1  0  0  0  0
 25 24  2  0  0  0  0
 26 28  2  0  0  0  0
 27 26  1  0  0  0  0
 28 29  1  0  0  0  0
 28 34  1  0  0  0  0
 29 31  1  0  0  0  0
 30 29  1  0  0  0  0
 31 32  2  0  0  0  0
 32 33  1  0  0  0  0
 34 35  2  0  0  0  0
 34 32  1  0  0  0  0
M  END
>  <minimizedAffinity>
-5.51585579

$$$$

 OpenBabel03242523043D

 35 38  0  0  0  0  0  0  0  0999 V2000
   37.7020   29.3320   42.3700 C   0  0  0  0  0  0  0  0  0  0  0  0
   37.5840   29.6980   41.0230 C   0  0  0  0  0  0  0  0  0  0  0  0
   37.1160   28.7430   40.1460 C   0  0  0  0  0  0  0  0  0  0  0  0
   36.7800   27.4970   40.5700 N   0  0  0  0  0  0  0  0  0  0  0  0
   36.9080   27.1740   41.8960 C   0  0  0  0  0  0  0  0  0  0  0  0
   37.3570   28.0780   42.7600 N   0  0  0  0  0  0  0  0  0  0  0  0
   38.0490   29.9410   43.1850 H   0  0  0  0  0  0  0  0  0  0  0  0
   36.6510   26.1840   42.2900 H   0  0  0  0  0  0  0  0  0  0  0  0
   37.9360   31.0150   40.6930 N   0  0  0  0  0  0  0  0  0  0  0  0
   39.2980   31.3870   40.6240 C   0  0  0  0  0  0  0  0  0  0  0  0
   39.4960   32.8400   40.3710 C   0  0  0  0  0  0  0  0  0  0  0  0
   38.6700   33.4070   39.3880 N   0  0  0  0  0  0  0  0  0  0  0  0
   37.3590   32.9240   39.2860 C   0  0  0  0  0  0  0  0  0  0  0  0
   36.9820   32.0600   40.4360 C   0  0  0  0  0  0  0  0  0  0  0  0
   39.7740   31.1960   41.6450 H   0  0  0  0  0  0  0  0  0  0  0  0
   39.8320   30.8950   39.7940 H   0  0  0  0  0  0  0  0  0  0  0  0
   39.4080   33.3710   41.3680 H   0  0  0  0  0  0  0  0  0  0  0  0
   40.5670   32.9980   40.0820 H   0  0  0  0  0  0  0  0  0  0  0  0
   38.7980   34.4440   39.3860 H   0  0  0  0  0  0  0  0  0  0  0  0
   37.2460   32.4060   38.2950 H   0  0  0  0  0  0  0  0  0  0  0  0
   36.6620   33.7930   39.2550 H   0  0  0  0  0  0  0  0  0  0  0  0
   35.9510   31.6770   40.1860 H   0  0  0  0  0  0  0  0  0  0  0  0
   36.9220   32.7290   41.3330 H   0  0  0  0  0  0  0  0  0  0  0  0
   35.4600   29.0270   38.5410 C   0  0  0  0  0  3  0  0  0  0  0  0
   36.8460   28.8490   38.7470 C   0  0  0  0  0  0  0  0  0  0  0  0
   37.5010   28.7640   37.5370 C   0  0  0  0  0  0  0  0  0  0  0  0
   38.5680   28.6040   37.7410 H   0  0  0  0  0  0  0  0  0  0  0  0
   36.9400   28.8380   36.3120 C   0  0  0  0  0  0  0  0  0  0  0  0
   37.5670   28.7580   35.1290 N   0  0  0  0  0  0  0  0  0  0  0  0
   38.5700   28.6280   34.9050 H   0  0  0  0  0  0  0  0  0  0  0  0
   36.6200   28.8810   34.1940 N   0  0  0  0  0  0  0  0  0  0  0  0
   35.4220   29.0350   34.7860 C   0  0  0  0  0  0  0  0  0  0  0  0
   34.4300   29.1640   34.3290 H   0  0  0  0  0  0  0  0  0  0  0  0
   35.5880   29.0120   36.1580 C   0  0  0  0  0  0  0  0  0  0  0  0
   34.8410   29.1080   37.3030 C   0  0  0  0  0  3  0  0  0  0  0  0
  1  6  1  0  0  0  0
  1  7  1  0  0  0  0
  2  1  2  0  0  0  0
  3  4  2  0  0  0  0
  3  2  1  0  0  0  0
  4  5  1  0  0  0  0
  5  8  1  0  0  0  0
  5  6  2  0  0  0  0
  9  2  1  0  0  0  0
 10  9  1  0  0  0  0
 10 15  1  0  0  0  0
 11 10  1  0  0  0  0
 11 17  1  0  0  0  0
 12 11  1  0  0  0  0
 13 12  1  0  0  0  0
 13 14  1  0  0  0  0
 14  9  1  0  0  0  0
 14 23  1  0  0  0  0
 16 10  1  0  0  0  0
 18 11  1  0  0  0  0
 19 12  1  0  0  0  0
 20 13  1  0  0  0  0
 21 13  1  0  0  0  0
 22 14  1  0  0  0  0
 24 25  1  0  0  0  0
 25  3  1  0  0  0  0
 26 27  1  0  0  0  0
 26 25  2  0  0  0  0
 28 26  1  0  0  0  0
 29 28  1  0  0  0  0
 30 29  1  0  0  0  0
 31 32  2  0  0  0  0
 31 29  1  0  0  0  0
 32 34  1  0  0  0  0
 33 32  1  0  0  0  0
 34 28  2  0  0  0  0
 34 35  1  0  0  0  0
 35 24  2  0  0  0  0
M  END
>  <minimizedAffinity>
-5.35243082

$$$$

 OpenBabel03242523043D

 35 38  0  0  0  0  0  0  0  0999 V2000
   38.8730   31.9680   41.4160 C   0  0  0  0  0  0  0  0  0  0  0  0
   38.1320   30.9400   40.8210 C   0  0  0  0  0  0  0  0  0  0  0  0
   37.3510   31.2680   39.7340 C   0  0  0  0  0  0  0  0  0  0  0  0
   37.3010   32.5390   39.2560 N   0  0  0  0  0  0  0  0  0  0  0  0
   38.0410   33.5210   39.8630 C   0  0  0  0  0  0  0  0  0  0  0  0
   38.8010   33.2280   40.9120 N   0  0  0  0  0  0  0  0  0  0  0  0
   39.5270   31.8970   42.2650 H   0  0  0  0  0  0  0  0  0  0  0  0
   38.0370   34.5610   39.5180 H   0  0  0  0  0  0  0  0  0  0  0  0
   38.2690   29.6590   41.3770 N   0  0  0  0  0  0  0  0  0  0  0  0
   39.3560   28.8380   41.0000 C   0  0  0  0  0  0  0  0  0  0  0  0
   39.2940   27.4750   41.5930 C   0  0  0  0  0  0  0  0  0  0  0  0
   38.9410   27.4150   42.9500 N   0  0  0  0  0  0  0  0  0  0  0  0
   38.0070   28.3480   43.4180 C   0  0  0  0  0  0  0  0  0  0  0  0
   37.3400   29.0860   42.3130 C   0  0  0  0  0  0  0  0  0  0  0  0
   39.3060   28.6720   39.8710 H   0  0  0  0  0  0  0  0  0  0  0  0
   40.3270   29.2340   41.3400 H   0  0  0  0  0  0  0  0  0  0  0  0
   38.6070   26.8540   40.9400 H   0  0  0  0  0  0  0  0  0  0  0  0
   40.2960   26.9910   41.4560 H   0  0  0  0  0  0  0  0  0  0  0  0
   38.7980   26.4180   43.2260 H   0  0  0  0  0  0  0  0  0  0  0  0
   38.5190   29.0290   44.1510 H   0  0  0  0  0  0  0  0  0  0  0  0
   37.2270   27.8060   44.0010 H   0  0  0  0  0  0  0  0  0  0  0  0
   36.6880   29.8510   42.8260 H   0  0  0  0  0  0  0  0  0  0  0  0
   36.6920   28.3440   41.7780 H   0  0  0  0  0  0  0  0  0  0  0  0
   37.0590   30.4150   37.5930 C   0  0  0  0  0  3  0  0  0  0  0  0
   36.5430   30.4270   38.9080 C   0  0  0  0  0  0  0  0  0  0  0  0
   35.3860   29.6810   38.9740 C   0  0  0  0  0  0  0  0  0  0  0  0
   35.0080   29.7350   40.0030 H   0  0  0  0  0  0  0  0  0  0  0  0
   34.7980   29.0180   37.9560 C   0  0  0  0  0  0  0  0  0  0  0  0
   33.6730   28.2880   38.0090 N   0  0  0  0  0  0  0  0  0  0  0  0
   33.0390   28.0830   38.8020 H   0  0  0  0  0  0  0  0  0  0  0  0
   33.4710   27.8220   36.7720 N   0  0  0  0  0  0  0  0  0  0  0  0
   34.4550   28.2540   35.9640 C   0  0  0  0  0  0  0  0  0  0  0  0
   34.6080   28.0670   34.8900 H   0  0  0  0  0  0  0  0  0  0  0  0
   35.3340   29.0320   36.6940 C   0  0  0  0  0  0  0  0  0  0  0  0
   36.4890   29.7490   36.5190 C   0  0  0  0  0  3  0  0  0  0  0  0
  1  7  1  0  0  0  0
  2  9  1  0  0  0  0
  2  1  2  0  0  0  0
  3  2  1  0  0  0  0
  4  3  2  0  0  0  0
  4  5  1  0  0  0  0
  5  6  2  0  0  0  0
  6  1  1  0  0  0  0
  8  5  1  0  0  0  0
  9 14  1  0  0  0  0
 10 16  1  0  0  0  0
 10  9  1  0  0  0  0
 10 11  1  0  0  0  0
 11 12  1  0  0  0  0
 12 19  1  0  0  0  0
 12 13  1  0  0  0  0
 13 21  1  0  0  0  0
 13 20  1  0  0  0  0
 14 22  1  0  0  0  0
 14 13  1  0  0  0  0
 15 10  1  0  0  0  0
 17 11  1  0  0  0  0
 18 11  1  0  0  0  0
 23 14  1  0  0  0  0
 24 25  1  0  0  0  0
 25 26  2  0  0  0  0
 25  3  1  0  0  0  0
 26 27  1  0  0  0  0
 28 29  1  0  0  0  0
 28 26  1  0  0  0  0
 29 30  1  0  0  0  0
 31 29  1  0  0  0  0
 32 34  1  0  0  0  0
 32 31  2  0  0  0  0
 33 32  1  0  0  0  0
 34 28  2  0  0  0  0
 35 34  1  0  0  0  0
 35 24  2  0  0  0  0
M  END
>  <minimizedAffinity>
-5.2048893

$$$$

 OpenBabel03242523043D

 35 38  0  0  0  0  0  0  0  0999 V2000
   36.6020   24.7950   40.2020 C   0  0  0  0  0  0  0  0  0  0  0  0
   36.9100   26.1500   40.3780 C   0  0  0  0  0  0  0  0  0  0  0  0
   36.4790   27.0290   39.4080 C   0  0  0  0  0  0  0  0  0  0  0  0
   35.7830   26.6000   38.3230 N   0  0  0  0  0  0  0  0  0  0  0  0
   35.4990   25.2660   38.1830 C   0  0  0  0  0  0  0  0  0  0  0  0
   35.9040   24.4010   39.1050 N   0  0  0  0  0  0  0  0  0  0  0  0
   36.8580   23.9770   40.8490 H   0  0  0  0  0  0  0  0  0  0  0  0
   34.9410   24.8680   37.3280 H   0  0  0  0  0  0  0  0  0  0  0  0
   37.6140   26.4920   41.5420 N   0  0  0  0  0  0  0  0  0  0  0  0
   39.0240   26.4070   41.5660 C   0  0  0  0  0  0  0  0  0  0  0  0
   39.6060   26.6970   42.9040 C   0  0  0  0  0  0  0  0  0  0  0  0
   39.0610   27.7990   43.5820 N   0  0  0  0  0  0  0  0  0  0  0  0
   37.6900   28.0430   43.4250 C   0  0  0  0  0  0  0  0  0  0  0  0
   36.9850   26.9110   42.7660 C   0  0  0  0  0  0  0  0  0  0  0  0
   39.3220   25.3270   41.3410 H   0  0  0  0  0  0  0  0  0  0  0  0
   39.5070   27.1410   40.9000 H   0  0  0  0  0  0  0  0  0  0  0  0
   39.5440   25.7430   43.5130 H   0  0  0  0  0  0  0  0  0  0  0  0
   40.7070   26.8570   42.7770 H   0  0  0  0  0  0  0  0  0  0  0  0
   39.4430   27.8310   44.5530 H   0  0  0  0  0  0  0  0  0  0  0  0
   37.5610   29.0160   42.8780 H   0  0  0  0  0  0  0  0  0  0  0  0
   37.2400   28.1990   44.4330 H   0  0  0  0  0  0  0  0  0  0  0  0
   35.9250   27.2710   42.6270 H   0  0  0  0  0  0  0  0  0  0  0  0
   36.9960   26.0590   43.4940 H   0  0  0  0  0  0  0  0  0  0  0  0
   37.0570   28.8410   38.0740 C   0  0  0  0  0  3  0  0  0  0  0  0
   36.6000   28.4520   39.3520 C   0  0  0  0  0  0  0  0  0  0  0  0
   36.4750   29.5540   40.1710 C   0  0  0  0  0  0  0  0  0  0  0  0
   36.1400   29.2060   41.1570 H   0  0  0  0  0  0  0  0  0  0  0  0
   36.7380   30.8350   39.8400 C   0  0  0  0  0  0  0  0  0  0  0  0
   36.6200   31.9150   40.6280 N   0  0  0  0  0  0  0  0  0  0  0  0
   36.3160   32.0000   41.6140 H   0  0  0  0  0  0  0  0  0  0  0  0
   36.9880   32.9630   39.8840 N   0  0  0  0  0  0  0  0  0  0  0  0
   37.3290   32.5420   38.6530 C   0  0  0  0  0  0  0  0  0  0  0  0
   37.6780   33.1260   37.7880 H   0  0  0  0  0  0  0  0  0  0  0  0
   37.1810   31.1690   38.5860 C   0  0  0  0  0  0  0  0  0  0  0  0
   37.3410   30.1440   37.6910 C   0  0  0  0  0  3  0  0  0  0  0  0
  1  2  1  0  0  0  0
  1  7  1  0  0  0  0
  2  9  1  0  0  0  0
  3  2  2  0  0  0  0
  4  3  1  0  0  0  0
  5  4  2  0  0  0  0
  5  6  1  0  0  0  0
  6  1  2  0  0  0  0
  8  5  1  0  0  0  0
  9 10  1  0  0  0  0
  9 14  1  0  0  0  0
 10 11  1  0  0  0  0
 11 17  1  0  0  0  0
 11 12  1  0  0  0  0
 12 19  1  0  0  0  0
 13 12  1  0  0  0  0
 13 21  1  0  0  0  0
 14 13  1  0  0  0  0
 14 23  1  0  0  0  0
 15 10  1  0  0  0  0
 16 10  1  0  0  0  0
 18 11  1  0  0  0  0
 20 13  1  0  0  0  0
 22 14  1  0  0  0  0
 24 25  1  0  0  0  0
 25  3  1  0  0  0  0
 25 26  2  0  0  0  0
 26 27  1  0  0  0  0
 28 26  1  0  0  0  0
 28 29  1  0  0  0  0
 29 30  1  0  0  0  0
 31 29  1  0  0  0  0
 32 31  2  0  0  0  0
 33 32  1  0  0  0  0
 34 32  1  0  0  0  0
 34 28  2  0  0  0  0
 35 24  2  0  0  0  0
 35 34  1  0  0  0  0
M  END
>  <minimizedAffinity>
-5.19276381

$$$$

 OpenBabel03242523043D

 35 38  0  0  0  0  0  0  0  0999 V2000
   37.2000   32.8210   39.4270 C   0  0  0  0  0  0  0  0  0  0  0  0
   37.4810   31.5470   39.9360 C   0  0  0  0  0  0  0  0  0  0  0  0
   38.4830   31.4470   40.8770 C   0  0  0  0  0  0  0  0  0  0  0  0
   39.1720   32.5410   41.2950 N   0  0  0  0  0  0  0  0  0  0  0  0
   38.8700   33.7730   40.7760 C   0  0  0  0  0  0  0  0  0  0  0  0
   37.9080   33.8940   39.8680 N   0  0  0  0  0  0  0  0  0  0  0  0
   36.4610   33.0840   38.6930 H   0  0  0  0  0  0  0  0  0  0  0  0
   39.3950   34.6860   41.0790 H   0  0  0  0  0  0  0  0  0  0  0  0
   36.6980   30.4880   39.4550 N   0  0  0  0  0  0  0  0  0  0  0  0
   35.5460   30.0800   40.1650 C   0  0  0  0  0  0  0  0  0  0  0  0
   34.8940   28.8770   39.5830 C   0  0  0  0  0  0  0  0  0  0  0  0
   34.7700   28.8650   38.1840 N   0  0  0  0  0  0  0  0  0  0  0  0
   35.8050   29.4430   37.4380 C   0  0  0  0  0  0  0  0  0  0  0  0
   37.0050   29.7380   38.2650 C   0  0  0  0  0  0  0  0  0  0  0  0
   35.8650   29.7650   41.2160 H   0  0  0  0  0  0  0  0  0  0  0  0
   34.7510   30.8440   40.1610 H   0  0  0  0  0  0  0  0  0  0  0  0
   35.4490   27.9690   39.9740 H   0  0  0  0  0  0  0  0  0  0  0  0
   33.8750   28.7790   40.0380 H   0  0  0  0  0  0  0  0  0  0  0  0
   34.4250   27.9280   37.8760 H   0  0  0  0  0  0  0  0  0  0  0  0
   35.4020   30.3510   36.9130 H   0  0  0  0  0  0  0  0  0  0  0  0
   36.1000   28.7330   36.6310 H   0  0  0  0  0  0  0  0  0  0  0  0
   37.7140   30.2710   37.5690 H   0  0  0  0  0  0  0  0  0  0  0  0
   37.4430   28.7500   38.5590 H   0  0  0  0  0  0  0  0  0  0  0  0
   40.3160   30.4450   41.8950 C   0  0  0  0  0  3  0  0  0  0  0  0
   38.9420   30.3020   41.5980 C   0  0  0  0  0  0  0  0  0  0  0  0
   38.4850   29.0760   42.0340 C   0  0  0  0  0  0  0  0  0  0  0  0
   37.4230   28.9970   41.7640 H   0  0  0  0  0  0  0  0  0  0  0  0
   39.2080   28.1250   42.6590 C   0  0  0  0  0  0  0  0  0  0  0  0
   38.7740   26.9300   43.0880 N   0  0  0  0  0  0  0  0  0  0  0  0
   37.8350   26.4960   43.0370 H   0  0  0  0  0  0  0  0  0  0  0  0
   39.8290   26.3250   43.6420 N   0  0  0  0  0  0  0  0  0  0  0  0
   40.9030   27.1310   43.5600 C   0  0  0  0  0  0  0  0  0  0  0  0
   41.9320   26.9600   43.9100 H   0  0  0  0  0  0  0  0  0  0  0  0
   40.5410   28.3060   42.9290 C   0  0  0  0  0  0  0  0  0  0  0  0
   41.0970   29.4950   42.5340 C   0  0  0  0  0  3  0  0  0  0  0  0
  1  6  2  0  0  0  0
  1  2  1  0  0  0  0
  2  3  2  0  0  0  0
  3  4  1  0  0  0  0
  3 25  1  0  0  0  0
  5  8  1  0  0  0  0
  5  4  2  0  0  0  0
  6  5  1  0  0  0  0
  7  1  1  0  0  0  0
  9  2  1  0  0  0  0
  9 10  1  0  0  0  0
 10 15  1  0  0  0  0
 11 17  1  0  0  0  0
 11 18  1  0  0  0  0
 11 10  1  0  0  0  0
 12 11  1  0  0  0  0
 13 12  1  0  0  0  0
 13 14  1  0  0  0  0
 14 23  1  0  0  0  0
 14  9  1  0  0  0  0
 16 10  1  0  0  0  0
 19 12  1  0  0  0  0
 20 13  1  0  0  0  0
 21 13  1  0  0  0  0
 22 14  1  0  0  0  0
 24 35  1  0  0  0  0
 25 24  2  0  0  0  0
 25 26  1  0  0  0  0
 26 28  2  0  0  0  0
 27 26  1  0  0  0  0
 28 34  1  0  0  0  0
 28 29  1  0  0  0  0
 29 31  1  0  0  0  0
 30 29  1  0  0  0  0
 32 31  2  0  0  0  0
 32 33  1  0  0  0  0
 34 32  1  0  0  0  0
 35 34  2  0  0  0  0
M  END
>  <minimizedAffinity>
-5.17378807

$$$$

 OpenBabel03242523043D

 35 38  0  0  0  0  0  0  0  0999 V2000
   36.3910   26.3000   38.9500 C   0  0  0  0  0  0  0  0  0  0  0  0
   36.9340   27.4550   39.5260 C   0  0  0  0  0  0  0  0  0  0  0  0
   37.0530   28.5690   38.7230 C   0  0  0  0  0  0  0  0  0  0  0  0
   36.6590   28.5490   37.4230 N   0  0  0  0  0  0  0  0  0  0  0  0
   36.1320   27.4010   36.8910 C   0  0  0  0  0  0  0  0  0  0  0  0
   36.0070   26.3150   37.6470 N   0  0  0  0  0  0  0  0  0  0  0  0
   36.2290   25.3490   39.4210 H   0  0  0  0  0  0  0  0  0  0  0  0
   35.7990   27.3310   35.8490 H   0  0  0  0  0  0  0  0  0  0  0  0
   37.2890   27.3790   40.8810 N   0  0  0  0  0  0  0  0  0  0  0  0
   38.4250   26.6360   41.2730 C   0  0  0  0  0  0  0  0  0  0  0  0
   38.5980   26.5640   42.7490 C   0  0  0  0  0  0  0  0  0  0  0  0
   38.3980   27.7660   43.4470 N   0  0  0  0  0  0  0  0  0  0  0  0
   37.4070   28.6340   42.9710 C   0  0  0  0  0  0  0  0  0  0  0  0
   36.5410   27.9970   41.9430 C   0  0  0  0  0  0  0  0  0  0  0  0
   38.2790   25.5530   40.9390 H   0  0  0  0  0  0  0  0  0  0  0  0
   39.3690   27.0800   40.9150 H   0  0  0  0  0  0  0  0  0  0  0  0
   37.9300   25.7300   43.1270 H   0  0  0  0  0  0  0  0  0  0  0  0
   39.6330   26.1900   42.9600 H   0  0  0  0  0  0  0  0  0  0  0  0
   38.4120   27.5750   44.4740 H   0  0  0  0  0  0  0  0  0  0  0  0
   37.9020   29.5730   42.6030 H   0  0  0  0  0  0  0  0  0  0  0  0
   36.7660   28.9450   43.8280 H   0  0  0  0  0  0  0  0  0  0  0  0
   35.8550   28.8210   41.5900 H   0  0  0  0  0  0  0  0  0  0  0  0
   35.9400   27.2130   42.4720 H   0  0  0  0  0  0  0  0  0  0  0  0
   38.9140   29.9490   38.8890 C   0  0  0  0  0  3  0  0  0  0  0  0
   37.5130   29.8820   39.0510 C   0  0  0  0  0  0  0  0  0  0  0  0
   37.0310   31.0780   39.5380 C   0  0  0  0  0  0  0  0  0  0  0  0
   35.9450   30.9760   39.6690 H   0  0  0  0  0  0  0  0  0  0  0  0
   37.7550   32.1780   39.8290 C   0  0  0  0  0  0  0  0  0  0  0  0
   37.2970   33.3470   40.3020 N   0  0  0  0  0  0  0  0  0  0  0  0
   36.3340   33.6480   40.5370 H   0  0  0  0  0  0  0  0  0  0  0  0
   38.3650   34.1390   40.4400 N   0  0  0  0  0  0  0  0  0  0  0  0
   39.4690   33.4740   40.0580 C   0  0  0  0  0  0  0  0  0  0  0  0
   40.5160   33.8130   40.0390 H   0  0  0  0  0  0  0  0  0  0  0  0
   39.1160   32.2000   39.6560 C   0  0  0  0  0  0  0  0  0  0  0  0
   39.6980   31.0560   39.1750 C   0  0  0  0  0  3  0  0  0  0  0  0
  1  7  1  0  0  0  0
  1  2  1  0  0  0  0
  2  9  1  0  0  0  0
  3 25  1  0  0  0  0
  3  2  2  0  0  0  0
  4  3  1  0  0  0  0
  5  4  2  0  0  0  0
  5  6  1  0  0  0  0
  6  1  2  0  0  0  0
  8  5  1  0  0  0  0
  9 10  1  0  0  0  0
  9 14  1  0  0  0  0
 10 11  1  0  0  0  0
 11 18  1  0  0  0  0
 11 17  1  0  0  0  0
 11 12  1  0  0  0  0
 12 19  1  0  0  0  0
 13 12  1  0  0  0  0
 13 21  1  0  0  0  0
 14 23  1  0  0  0  0
 14 13  1  0  0  0  0
 15 10  1  0  0  0  0
 16 10  1  0  0  0  0
 20 13  1  0  0  0  0
 22 14  1  0  0  0  0
 24 25  2  0  0  0  0
 24 35  1  0  0  0  0
 25 26  1  0  0  0  0
 26 27  1  0  0  0  0
 26 28  2  0  0  0  0
 28 29  1  0  0  0  0
 29 31  1  0  0  0  0
 29 30  1  0  0  0  0
 32 31  2  0  0  0  0
 33 32  1  0  0  0  0
 34 28  1  0  0  0  0
 34 32  1  0  0  0  0
 35 34  2  0  0  0  0
M  END
>  <minimizedAffinity>
-5.13070917

$$$$

 OpenBabel03242523043D

 35 38  0  0  0  0  0  0  0  0999 V2000
   40.5640   30.0390   42.3640 C   0  0  0  0  0  0  0  0  0  0  0  0
   39.5360   29.3230   41.7380 C   0  0  0  0  0  0  0  0  0  0  0  0
   39.6410   27.9490   41.7200 C   0  0  0  0  0  0  0  0  0  0  0  0
   40.6990   27.3130   42.2880 N   0  0  0  0  0  0  0  0  0  0  0  0
   41.6870   28.0460   42.8930 C   0  0  0  0  0  0  0  0  0  0  0  0
   41.6070   29.3710   42.9220 N   0  0  0  0  0  0  0  0  0  0  0  0
   40.6480   31.1050   42.4690 H   0  0  0  0  0  0  0  0  0  0  0  0
   42.5610   27.5830   43.3650 H   0  0  0  0  0  0  0  0  0  0  0  0
   38.4790   30.0720   41.2020 N   0  0  0  0  0  0  0  0  0  0  0  0
   37.1880   29.9810   41.7720 C   0  0  0  0  0  0  0  0  0  0  0  0
   36.1600   30.7510   41.0200 C   0  0  0  0  0  0  0  0  0  0  0  0
   36.5420   32.0360   40.6040 N   0  0  0  0  0  0  0  0  0  0  0  0
   37.8760   32.2220   40.2160 C   0  0  0  0  0  0  0  0  0  0  0  0
   38.6050   30.9360   40.0580 C   0  0  0  0  0  0  0  0  0  0  0  0
   36.8460   28.8930   41.7120 H   0  0  0  0  0  0  0  0  0  0  0  0
   37.1420   30.3990   42.7910 H   0  0  0  0  0  0  0  0  0  0  0  0
   35.8180   30.1020   40.1560 H   0  0  0  0  0  0  0  0  0  0  0  0
   35.2480   30.8340   41.6650 H   0  0  0  0  0  0  0  0  0  0  0  0
   35.8040   32.4300   39.9780 H   0  0  0  0  0  0  0  0  0  0  0  0
   38.3670   32.9150   40.9510 H   0  0  0  0  0  0  0  0  0  0  0  0
   37.8890   32.7570   39.2390 H   0  0  0  0  0  0  0  0  0  0  0  0
   39.6700   31.2320   39.8330 H   0  0  0  0  0  0  0  0  0  0  0  0
   38.1630   30.4250   39.1640 H   0  0  0  0  0  0  0  0  0  0  0  0
   38.0940   26.3080   42.2790 C   0  0  0  0  0  3  0  0  0  0  0  0
   38.7310   26.9740   41.2080 C   0  0  0  0  0  0  0  0  0  0  0  0
   38.3300   26.4340   40.0040 C   0  0  0  0  0  0  0  0  0  0  0  0
   38.8630   26.9630   39.2030 H   0  0  0  0  0  0  0  0  0  0  0  0
   37.4570   25.4200   39.8290 C   0  0  0  0  0  0  0  0  0  0  0  0
   37.0590   24.8880   38.6630 N   0  0  0  0  0  0  0  0  0  0  0  0
   37.3200   25.1250   37.6890 H   0  0  0  0  0  0  0  0  0  0  0  0
   36.1960   23.9150   38.9720 N   0  0  0  0  0  0  0  0  0  0  0  0
   36.0590   23.8430   40.3070 C   0  0  0  0  0  0  0  0  0  0  0  0
   35.4360   23.1640   40.9090 H   0  0  0  0  0  0  0  0  0  0  0  0
   36.8610   24.8020   40.8980 C   0  0  0  0  0  0  0  0  0  0  0  0
   37.1930   25.2630   42.1450 C   0  0  0  0  0  3  0  0  0  0  0  0
  1  7  1  0  0  0  0
  1  6  1  0  0  0  0
  2  1  2  0  0  0  0
  3  2  1  0  0  0  0
  3  4  2  0  0  0  0
  4  5  1  0  0  0  0
  5  6  2  0  0  0  0
  5  8  1  0  0  0  0
  9  2  1  0  0  0  0
  9 10  1  0  0  0  0
 10 16  1  0  0  0  0
 11 18  1  0  0  0  0
 11 10  1  0  0  0  0
 12 11  1  0  0  0  0
 13 12  1  0  0  0  0
 13 20  1  0  0  0  0
 14 13  1  0  0  0  0
 14  9  1  0  0  0  0
 15 10  1  0  0  0  0
 17 11  1  0  0  0  0
 19 12  1  0  0  0  0
 21 13  1  0  0  0  0
 22 14  1  0  0  0  0
 23 14  1  0  0  0  0
 25  3  1  0  0  0  0
 25 24  2  0  0  0  0
 26 25  1  0  0  0  0
 27 26  1  0  0  0  0
 28 26  2  0  0  0  0
 28 34  1  0  0  0  0
 29 31  1  0  0  0  0
 29 28  1  0  0  0  0
 30 29  1  0  0  0  0
 31 32  2  0  0  0  0
 32 34  1  0  0  0  0
 32 33  1  0  0  0  0
 34 35  2  0  0  0  0
 35 24  1  0  0  0  0
M  END
>  <minimizedAffinity>
-5.07228231

$$$$
