
 OpenBabel03252509043D

 51 54  0  0  1  0  0  0  0  0999 V2000
   47.1560   34.1660   43.0780 N   0  0  0  0  0  0  0  0  0  0  0  0
   46.6480   35.3170   42.4370 C   0  0  0  0  0  0  0  0  0  0  0  0
   45.1510   35.5310   42.6040 C   0  0  0  0  0  0  0  0  0  0  0  0
   44.6280   35.0930   43.9480 C   0  0  0  0  0  0  0  0  0  0  0  0
   45.7450   34.6070   44.8570 C   0  0  0  0  0  0  0  0  0  0  0  0
   46.4190   33.4610   43.9990 C   0  0  2  0  0  0  0  0  0  0  0  0
   46.8460   35.4120   41.3650 H   0  0  0  0  0  0  0  0  0  0  0  0
   47.1200   36.2220   42.8990 H   0  0  0  0  0  0  0  0  0  0  0  0
   44.6460   34.9710   41.7720 H   0  0  0  0  0  0  0  0  0  0  0  0
   44.9320   36.6050   42.4250 H   0  0  0  0  0  0  0  0  0  0  0  0
   44.0360   35.8760   44.4630 H   0  0  0  0  0  0  0  0  0  0  0  0
   43.9520   34.2180   43.8170 H   0  0  0  0  0  0  0  0  0  0  0  0
   45.3080   34.1640   45.7530 H   0  0  0  0  0  0  0  0  0  0  0  0
   46.5000   35.3820   45.0370 H   0  0  0  0  0  0  0  0  0  0  0  0
   45.6030   32.8060   43.6500 H   0  0  0  0  0  0  0  0  0  0  0  0
   48.1680   33.4650   42.3250 C   0  0  0  0  0  0  0  0  0  0  0  0
   48.8710   34.1790   41.8750 H   0  0  0  0  0  0  0  0  0  0  0  0
   48.7610   32.8400   43.0480 H   0  0  0  0  0  0  0  0  0  0  0  0
   47.4900   32.5520   41.3720 C   0  0  0  0  0  0  0  0  0  0  0  0
   46.4040   32.7880   41.2710 H   0  0  0  0  0  0  0  0  0  0  0  0
   47.5450   31.4760   41.6430 H   0  0  0  0  0  0  0  0  0  0  0  0
   49.4260   31.9740   38.1970 C   0  0  0  0  0  0  0  0  0  0  0  0
   48.8840   31.8060   39.4840 C   0  0  0  0  0  0  0  0  0  0  0  0
   48.0520   32.7490   40.0080 C   0  0  0  0  0  0  0  0  0  0  0  0
   47.7770   33.8260   39.2540 N   0  0  0  0  0  0  0  0  0  0  0  0
   48.2880   33.9940   38.0260 C   0  0  0  0  0  0  0  0  0  0  0  0
   49.1120   33.0810   37.4840 N   0  0  0  0  0  0  0  0  0  0  0  0
   50.0860   31.2120   37.7980 H   0  0  0  0  0  0  0  0  0  0  0  0
   49.1670   30.9000   40.0160 H   0  0  0  0  0  0  0  0  0  0  0  0
   47.9660   34.9140   37.5570 H   0  0  0  0  0  0  0  0  0  0  0  0
   47.1970   32.8440   44.9590 O   0  0  0  0  0  0  0  0  0  0  0  0
   46.0670   30.5900   44.1050 O   0  0  0  0  0  0  0  0  0  0  0  0
   46.6780   31.2970   45.3260 P   0  0  2  0  0  0  0  0  0  0  0  0
   45.3510   31.4940   46.4010 O   0  0  0  0  0  0  0  0  0  0  0  0
   44.5120   31.6220   45.9240 H   0  0  0  0  0  0  0  0  0  0  0  0
   47.8180   30.3610   46.1030 O   0  0  0  0  0  0  0  0  0  0  0  0
   47.7430   29.0680   45.6190 C   0  0  0  0  0  0  0  0  0  0  0  0
   46.7210   28.7080   45.8430 H   0  0  0  0  0  0  0  0  0  0  0  0
   47.9010   29.0160   44.5170 H   0  0  0  0  0  0  0  0  0  0  0  0
   48.7430   28.0160   47.6840 C   0  0  0  0  0  3  0  0  0  0  0  0
   48.7460   28.2130   46.3060 C   0  0  0  0  0  0  0  0  0  0  0  0
   49.7100   27.6070   45.4920 C   0  0  0  0  0  0  0  0  0  0  0  0
   49.7340   27.7450   44.4250 H   0  0  0  0  0  0  0  0  0  0  0  0
   50.6620   26.8050   46.0910 C   0  0  0  0  0  0  0  0  0  0  0  0
   51.7050   26.0970   45.5750 N   0  0  0  0  0  0  0  0  0  0  0  0
   51.9210   26.0840   44.5470 H   0  0  0  0  0  0  0  0  0  0  0  0
   52.3320   25.4820   46.5670 N   0  0  0  0  0  0  0  0  0  0  0  0
   51.7290   25.7630   47.7430 C   0  0  0  0  0  0  0  0  0  0  0  0
   52.0440   25.3840   48.7120 H   0  0  0  0  0  0  0  0  0  0  0  0
   50.6580   26.6070   47.4670 C   0  0  0  0  0  0  0  0  0  0  0  0
   49.7120   27.2010   48.2740 C   0  0  0  0  0  3  0  0  0  0  0  0
  1  6  1  0  0  0  0
  2  3  1  0  0  0  0
  2  8  1  0  0  0  0
  2  1  1  0  0  0  0
  3  4  1  0  0  0  0
  4 11  1  0  0  0  0
  4  5  1  0  0  0  0
  5 14  1  0  0  0  0
  5 13  1  0  0  0  0
  6 15  1  6  0  0  0
  6  5  1  0  0  0  0
  6 31  1  0  0  0  0
  7  2  1  0  0  0  0
  9  3  1  0  0  0  0
 10  3  1  0  0  0  0
 12  4  1  0  0  0  0
 16 18  1  0  0  0  0
 16  1  1  0  0  0  0
 17 16  1  0  0  0  0
 19 21  1  0  0  0  0
 19 16  1  0  0  0  0
 20 19  1  0  0  0  0
 22 23  1  0  0  0  0
 23 24  2  0  0  0  0
 23 29  1  0  0  0  0
 24 19  1  0  0  0  0
 25 24  1  0  0  0  0
 26 25  2  0  0  0  0
 27 26  1  0  0  0  0
 27 22  2  0  0  0  0
 28 22  1  0  0  0  0
 30 26  1  0  0  0  0
 31 33  1  0  0  0  0
 33 32  2  6  0  0  0
 33 36  1  0  0  0  0
 33 34  1  0  0  0  0
 35 34  1  0  0  0  0
 37 38  1  0  0  0  0
 37 36  1  0  0  0  0
 37 41  1  0  0  0  0
 39 37  1  0  0  0  0
 40 51  1  0  0  0  0
 41 40  2  0  0  0  0
 42 44  2  0  0  0  0
 42 41  1  0  0  0  0
 43 42  1  0  0  0  0
 44 50  1  0  0  0  0
 45 44  1  0  0  0  0
 45 47  1  0  0  0  0
 46 45  1  0  0  0  0
 47 48  2  0  0  0  0
 48 49  1  0  0  0  0
 50 48  1  0  0  0  0
 50 51  2  0  0  0  0
M  END
>  <minimizedAffinity>
-3.68991065

>  <minimizedRMSD>
0.473222733

$$$$
