
 OpenBabel03242516283D

 49 54  0  0  0  0  0  0  0  0999 V2000
   49.7910   30.1090   49.6510 C   0  0  0  0  0  0  0  0  0  0  0  0
   49.9670   31.3750   50.1420 N   0  0  0  0  0  0  0  0  0  0  0  0
   50.7120   31.6590   51.2050 C   0  0  0  0  0  0  0  0  0  0  0  0
   51.3190   30.6380   51.8210 N   0  0  0  0  0  0  0  0  0  0  0  0
   51.1990   29.3690   51.4070 C   0  0  0  0  0  0  0  0  0  0  0  0
   51.8290   28.2980   52.0370 C   0  0  0  0  0  0  0  0  0  0  0  0
   51.6940   27.0230   51.5970 C   0  0  0  0  0  0  0  0  0  0  0  0
   50.9230   26.7650   50.5090 C   0  0  0  0  0  0  0  0  0  0  0  0
   50.2630   27.7990   49.8320 C   0  0  0  0  0  0  0  0  0  0  0  0
   50.4130   29.0720   50.2860 C   0  0  0  0  0  0  0  0  0  0  0  0
   50.7870   32.6870   51.5130 H   0  0  0  0  0  0  0  0  0  0  0  0
   52.4300   28.5470   52.8960 H   0  0  0  0  0  0  0  0  0  0  0  0
   52.2100   26.2290   52.1290 H   0  0  0  0  0  0  0  0  0  0  0  0
   50.8500   25.7180   50.2020 H   0  0  0  0  0  0  0  0  0  0  0  0
   49.4330   27.3880   48.6800 C   0  0  0  0  0  0  0  0  0  0  0  0
   50.0020   27.1770   47.7510 H   0  0  0  0  0  0  0  0  0  0  0  0
   48.4730   27.9030   48.5770 H   0  0  0  0  0  0  0  0  0  0  0  0
   47.5510   25.6400   48.9170 C   0  0  0  0  0  0  0  0  0  0  0  0
   48.9120   25.9760   48.8990 C   0  0  0  0  0  0  0  0  0  0  0  0
   49.7590   24.8970   49.0950 C   0  0  0  0  0  0  0  0  0  0  0  0
   50.8230   25.1010   49.0900 H   0  0  0  0  0  0  0  0  0  0  0  0
   49.3730   23.5920   49.2960 C   0  0  0  0  0  0  0  0  0  0  0  0
   50.0500   22.4480   49.4980 N   0  0  0  0  0  0  0  0  0  0  0  0
   51.0970   22.3430   49.5420 H   0  0  0  0  0  0  0  0  0  0  0  0
   49.1470   21.4810   49.6300 N   0  0  0  0  0  0  0  0  0  0  0  0
   47.9010   21.9870   49.5150 C   0  0  0  0  0  0  0  0  0  0  0  0
   46.9600   21.4270   49.5800 H   0  0  0  0  0  0  0  0  0  0  0  0
   48.0170   23.3450   49.2990 C   0  0  0  0  0  0  0  0  0  0  0  0
   47.1000   24.3560   49.1120 C   0  0  0  0  0  0  0  0  0  0  0  0
   48.8500   29.8170   48.2380 S   0  0  0  0  0  0  0  0  0  0  0  0
   46.2200   32.5200   46.9070 C   0  0  0  0  0  0  0  0  0  0  0  0
   47.3010   31.6700   47.0300 C   0  0  0  0  0  0  0  0  0  0  0  0
   47.4390   30.8510   48.1300 C   0  0  0  0  0  0  0  0  0  0  0  0
   46.4970   30.8640   49.1310 C   0  0  0  0  0  0  0  0  0  0  0  0
   45.4130   31.6860   49.0560 C   0  0  0  0  0  0  0  0  0  0  0  0
   45.2900   32.4960   47.9530 C   0  0  0  0  0  0  0  0  0  0  0  0
   48.0210   31.6890   46.2210 H   0  0  0  0  0  0  0  0  0  0  0  0
   46.6640   30.1890   49.9800 H   0  0  0  0  0  0  0  0  0  0  0  0
   44.6790   31.6850   49.8520 H   0  0  0  0  0  0  0  0  0  0  0  0
   44.4300   33.1450   47.8980 H   0  0  0  0  0  0  0  0  0  0  0  0
   44.9170   35.1570   44.7510 C   0  0  0  0  0  0  0  0  0  0  0  0
   45.7340   35.0600   43.5920 C   0  0  0  0  0  0  0  0  0  0  0  0
   46.7220   34.0910   43.5660 C   0  0  0  0  0  0  0  0  0  0  0  0
   46.8980   33.2500   44.6380 N   0  0  0  0  0  0  0  0  0  0  0  0
   46.0780   33.3870   45.7360 C   0  0  0  0  0  0  0  0  0  0  0  0
   45.0920   34.3300   45.8020 N   0  0  0  0  0  0  0  0  0  0  0  0
   44.1380   35.9150   44.7820 H   0  0  0  0  0  0  0  0  0  0  0  0
   45.6020   35.7120   42.7540 H   0  0  0  0  0  0  0  0  0  0  0  0
   47.3790   33.9610   42.7190 H   0  0  0  0  0  0  0  0  0  0  0  0
  1  2  2  0  0  0  0
  1 10  1  0  0  0  0
  2  3  1  0  0  0  0
  3 11  1  0  0  0  0
  3  4  2  0  0  0  0
  5  4  1  0  0  0  0
  5  6  1  0  0  0  0
  6 12  1  0  0  0  0
  7  6  2  0  0  0  0
  7 13  1  0  0  0  0
  8  7  1  0  0  0  0
  9 10  1  0  0  0  0
  9  8  2  0  0  0  0
 10  5  2  0  0  0  0
 14  8  1  0  0  0  0
 15 19  1  0  0  0  0
 15  9  1  0  0  0  0
 16 15  1  0  0  0  0
 17 15  1  0  0  0  0
 18 29  1  0  0  0  0
 19 18  2  0  0  0  0
 19 20  1  0  0  0  0
 20 22  2  0  0  0  0
 21 20  1  0  0  0  0
 22 28  1  0  0  0  0
 22 23  1  0  0  0  0
 23 24  1  0  0  0  0
 23 25  1  0  0  0  0
 26 27  1  0  0  0  0
 26 25  2  0  0  0  0
 28 26  1  0  0  0  0
 29 28  2  0  0  0  0
 30  1  1  0  0  0  0
 31 32  2  0  0  0  0
 31 36  1  0  0  0  0
 32 33  1  0  0  0  0
 33 30  1  0  0  0  0
 33 34  2  0  0  0  0
 34 38  1  0  0  0  0
 35 34  1  0  0  0  0
 35 39  1  0  0  0  0
 36 35  2  0  0  0  0
 37 32  1  0  0  0  0
 40 36  1  0  0  0  0
 41 47  1  0  0  0  0
 41 46  1  0  0  0  0
 42 41  2  0  0  0  0
 43 42  1  0  0  0  0
 43 44  2  0  0  0  0
 44 45  1  0  0  0  0
 45 46  2  0  0  0  0
 45 31  1  0  0  0  0
 48 42  1  0  0  0  0
 49 43  1  0  0  0  0
M  END
>  <minimizedAffinity>
-7.10810661

>  <minimizedRMSD>
0.927458942

$$$$
