
 OpenBabel03242515593D

 31 34  0  0  0  0  0  0  0  0999 V2000
   44.9400   33.1630   40.9990 Cl  0  0  0  0  0  0  0  0  0  0  0  0
   46.4560   34.0240   40.8620 C   0  0  0  0  0  0  0  0  0  0  0  0
   46.9300   34.7890   41.8770 C   0  0  0  0  0  0  0  0  0  0  0  0
   48.1320   35.4220   41.6630 C   0  0  0  0  0  0  0  0  0  0  0  0
   48.8360   35.3120   40.5140 C   0  0  0  0  0  0  0  0  0  0  0  0
   48.3570   34.5380   39.4890 C   0  0  0  0  0  0  0  0  0  0  0  0
   47.1510   33.8910   39.6760 C   0  0  0  0  0  0  0  0  0  0  0  0
   48.5340   36.0460   42.4670 H   0  0  0  0  0  0  0  0  0  0  0  0
   49.7790   35.8250   40.3810 H   0  0  0  0  0  0  0  0  0  0  0  0
   48.9290   34.4600   38.5770 H   0  0  0  0  0  0  0  0  0  0  0  0
   46.8640   31.6970   38.6780 C   0  0  0  0  0  0  0  0  0  0  0  0
   46.6890   33.0810   38.5510 C   0  0  0  0  0  0  0  0  0  0  0  0
   46.1130   33.5690   37.4110 C   0  0  0  0  0  0  0  0  0  0  0  0
   45.9830   34.6200   37.3190 H   0  0  0  0  0  0  0  0  0  0  0  0
   45.6910   32.7680   36.3700 C   0  0  0  0  0  0  0  0  0  0  0  0
   45.1080   33.0380   35.1790 N   0  0  0  0  0  0  0  0  0  0  0  0
   44.8850   34.0120   34.8760 H   0  0  0  0  0  0  0  0  0  0  0  0
   44.9100   31.8780   34.5510 N   0  0  0  0  0  0  0  0  0  0  0  0
   45.3590   30.8640   35.3280 C   0  0  0  0  0  0  0  0  0  0  0  0
   45.3210   29.8140   35.0620 H   0  0  0  0  0  0  0  0  0  0  0  0
   45.8640   31.3940   36.4980 C   0  0  0  0  0  0  0  0  0  0  0  0
   46.4440   30.8640   37.6370 C   0  0  0  0  0  0  0  0  0  0  0  0
   44.4890   35.9680   44.5250 C   0  0  0  0  0  0  0  0  0  0  0  0
   45.2250   35.9010   43.3300 C   0  0  0  0  0  0  0  0  0  0  0  0
   46.1530   34.8890   43.0990 C   0  0  0  0  0  0  0  0  0  0  0  0
   46.2950   33.9770   44.1040 N   0  0  0  0  0  0  0  0  0  0  0  0
   45.5820   34.0540   45.2430 C   0  0  0  0  0  0  0  0  0  0  0  0
   44.6840   35.0370   45.4610 N   0  0  0  0  0  0  0  0  0  0  0  0
   43.8230   36.8210   44.5140 H   0  0  0  0  0  0  0  0  0  0  0  0
   45.1390   36.6040   42.5130 H   0  0  0  0  0  0  0  0  0  0  0  0
   45.6940   33.3270   46.0430 H   0  0  0  0  0  0  0  0  0  0  0  0
  2  1  1  0  0  0  0
  2  3  1  0  0  0  0
  3 25  1  0  0  0  0
  4  3  2  0  0  0  0
  4  8  1  0  0  0  0
  5  4  1  0  0  0  0
  6  7  1  0  0  0  0
  6  5  2  0  0  0  0
  7  2  2  0  0  0  0
  9  5  1  0  0  0  0
 10  6  1  0  0  0  0
 12 11  1  0  0  0  0
 12  7  1  0  0  0  0
 13 12  2  0  0  0  0
 14 13  1  0  0  0  0
 15 21  2  0  0  0  0
 15 13  1  0  0  0  0
 16 15  1  0  0  0  0
 17 16  1  0  0  0  0
 18 16  1  0  0  0  0
 18 19  2  0  0  0  0
 19 21  1  0  0  0  0
 20 19  1  0  0  0  0
 21 22  1  0  0  0  0
 22 11  2  0  0  0  0
 23 28  1  0  0  0  0
 24 23  2  0  0  0  0
 25 24  1  0  0  0  0
 25 26  2  0  0  0  0
 26 27  1  0  0  0  0
 27 28  2  0  0  0  0
 27 31  1  0  0  0  0
 29 23  1  0  0  0  0
 30 24  1  0  0  0  0
M  END
>  <minimizedAffinity>
-6.49563408

>  <minimizedRMSD>
0.902717233

$$$$
