
 OpenBabel03252509033D

 51 54  0  0  1  0  0  0  0  0999 V2000
   46.8850   34.3800   43.3450 N   0  0  0  0  0  0  0  0  0  0  0  0
   46.5530   34.9230   42.0840 C   0  0  0  0  0  0  0  0  0  0  0  0
   45.0790   34.8300   41.7200 C   0  0  0  0  0  0  0  0  0  0  0  0
   44.1570   34.9860   42.9020 C   0  0  0  0  0  0  0  0  0  0  0  0
   44.9250   35.2770   44.1820 C   0  0  0  0  0  0  0  0  0  0  0  0
   45.9260   34.0560   44.2730 C   0  0  2  0  0  0  0  0  0  0  0  0
   47.1000   34.5320   41.2210 H   0  0  0  0  0  0  0  0  0  0  0  0
   46.7770   36.0200   42.0960 H   0  0  0  0  0  0  0  0  0  0  0  0
   44.9280   33.8380   41.2180 H   0  0  0  0  0  0  0  0  0  0  0  0
   44.8640   35.5980   40.9470 H   0  0  0  0  0  0  0  0  0  0  0  0
   43.3740   35.7550   42.7480 H   0  0  0  0  0  0  0  0  0  0  0  0
   43.6270   34.0250   43.0880 H   0  0  0  0  0  0  0  0  0  0  0  0
   44.2370   35.2320   45.0280 H   0  0  0  0  0  0  0  0  0  0  0  0
   45.5200   36.1960   44.1080 H   0  0  0  0  0  0  0  0  0  0  0  0
   45.3250   33.1420   44.1310 H   0  0  0  0  0  0  0  0  0  0  0  0
   48.1380   33.6640   43.3710 C   0  0  0  0  0  0  0  0  0  0  0  0
   48.9360   34.2750   42.9270 H   0  0  0  0  0  0  0  0  0  0  0  0
   48.4170   33.5030   44.4490 H   0  0  0  0  0  0  0  0  0  0  0  0
   47.9290   32.3360   42.7440 C   0  0  0  0  0  0  0  0  0  0  0  0
   46.9880   32.3030   42.1440 H   0  0  0  0  0  0  0  0  0  0  0  0
   47.8630   31.4900   43.4610 H   0  0  0  0  0  0  0  0  0  0  0  0
   51.3550   32.0150   41.2220 C   0  0  0  0  0  0  0  0  0  0  0  0
   50.3140   32.2590   42.1350 C   0  0  0  0  0  0  0  0  0  0  0  0
   49.0160   32.0720   41.7620 C   0  0  0  0  0  0  0  0  0  0  0  0
   48.7820   31.6510   40.5090 N   0  0  0  0  0  0  0  0  0  0  0  0
   49.7690   31.4150   39.6320 C   0  0  0  0  0  0  0  0  0  0  0  0
   51.0580   31.5920   39.9710 N   0  0  0  0  0  0  0  0  0  0  0  0
   52.3810   32.1700   41.5370 H   0  0  0  0  0  0  0  0  0  0  0  0
   50.6050   32.5980   43.1270 H   0  0  0  0  0  0  0  0  0  0  0  0
   49.4070   31.0830   38.6690 H   0  0  0  0  0  0  0  0  0  0  0  0
   46.3670   34.1810   45.5770 O   0  0  0  0  0  0  0  0  0  0  0  0
   45.5240   31.6570   45.6510 O   0  0  0  0  0  0  0  0  0  0  0  0
   46.1000   32.8070   46.4930 P   0  0  2  0  0  0  0  0  0  0  0  0
   44.8260   33.2110   47.5750 O   0  0  0  0  0  0  0  0  0  0  0  0
   43.9500   33.0680   47.1740 H   0  0  0  0  0  0  0  0  0  0  0  0
   47.4080   32.3350   47.4110 O   0  0  0  0  0  0  0  0  0  0  0  0
   47.6170   30.9800   47.2320 C   0  0  0  0  0  0  0  0  0  0  0  0
   46.6330   30.4910   47.3560 H   0  0  0  0  0  0  0  0  0  0  0  0
   48.0040   30.7410   46.2140 H   0  0  0  0  0  0  0  0  0  0  0  0
   49.0420   29.1680   48.2600 C   0  0  0  0  0  3  0  0  0  0  0  0
   48.5690   30.4770   48.2570 C   0  0  0  0  0  0  0  0  0  0  0  0
   48.9720   31.3930   49.2350 C   0  0  0  0  0  0  0  0  0  0  0  0
   48.6210   32.4110   49.2540 H   0  0  0  0  0  0  0  0  0  0  0  0
   49.8570   30.9660   50.2070 C   0  0  0  0  0  0  0  0  0  0  0  0
   50.4190   31.6110   51.2650 N   0  0  0  0  0  0  0  0  0  0  0  0
   50.2180   32.6210   51.4810 H   0  0  0  0  0  0  0  0  0  0  0  0
   51.2080   30.7630   51.9080 N   0  0  0  0  0  0  0  0  0  0  0  0
   51.1860   29.5570   51.3010 C   0  0  0  0  0  0  0  0  0  0  0  0
   51.7450   28.6840   51.6280 H   0  0  0  0  0  0  0  0  0  0  0  0
   50.3300   29.6590   50.2090 C   0  0  0  0  0  0  0  0  0  0  0  0
   49.9360   28.7520   49.2500 C   0  0  0  0  0  3  0  0  0  0  0  0
  1 16  1  0  0  0  0
  1  6  1  0  0  0  0
  2  8  1  0  0  0  0
  2  1  1  0  0  0  0
  3  2  1  0  0  0  0
  3  4  1  0  0  0  0
  4 12  1  0  0  0  0
  4  5  1  0  0  0  0
  5  6  1  0  0  0  0
  5 13  1  0  0  0  0
  6 15  1  6  0  0  0
  6 31  1  0  0  0  0
  7  2  1  0  0  0  0
  9  3  1  0  0  0  0
 10  3  1  0  0  0  0
 11  4  1  0  0  0  0
 14  5  1  0  0  0  0
 16 18  1  0  0  0  0
 17 16  1  0  0  0  0
 19 16  1  0  0  0  0
 19 21  1  0  0  0  0
 20 19  1  0  0  0  0
 22 28  1  0  0  0  0
 22 23  1  0  0  0  0
 23 29  1  0  0  0  0
 24 23  2  0  0  0  0
 24 19  1  0  0  0  0
 25 24  1  0  0  0  0
 26 27  1  0  0  0  0
 26 25  2  0  0  0  0
 27 22  2  0  0  0  0
 30 26  1  0  0  0  0
 31 33  1  0  0  0  0
 33 32  2  6  0  0  0
 33 36  1  0  0  0  0
 33 34  1  0  0  0  0
 35 34  1  0  0  0  0
 37 38  1  0  0  0  0
 37 36  1  0  0  0  0
 37 41  1  0  0  0  0
 39 37  1  0  0  0  0
 40 51  1  0  0  0  0
 41 40  2  0  0  0  0
 41 42  1  0  0  0  0
 42 43  1  0  0  0  0
 42 44  2  0  0  0  0
 44 50  1  0  0  0  0
 44 45  1  0  0  0  0
 45 46  1  0  0  0  0
 45 47  1  0  0  0  0
 48 49  1  0  0  0  0
 48 47  2  0  0  0  0
 50 48  1  0  0  0  0
 51 50  2  0  0  0  0
M  END
>  <minimizedAffinity>
-5.69991302

>  <minimizedRMSD>
3.64169526

$$$$
