
 OpenBabel03252509043D

 51 54  0  0  1  0  0  0  0  0999 V2000
   46.7760   34.3840   43.5950 N   0  0  0  0  0  0  0  0  0  0  0  0
   46.4000   35.2920   42.5790 C   0  0  0  0  0  0  0  0  0  0  0  0
   44.8990   35.4440   42.3860 C   0  0  0  0  0  0  0  0  0  0  0  0
   44.1150   35.3430   43.6690 C   0  0  0  0  0  0  0  0  0  0  0  0
   45.0260   35.1860   44.8770 C   0  0  0  0  0  0  0  0  0  0  0  0
   45.8720   33.9010   44.5090 C   0  0  2  0  0  0  0  0  0  0  0  0
   46.8140   35.1130   41.5820 H   0  0  0  0  0  0  0  0  0  0  0  0
   46.7590   36.3150   42.8620 H   0  0  0  0  0  0  0  0  0  0  0  0
   44.5810   34.6540   41.6550 H   0  0  0  0  0  0  0  0  0  0  0  0
   44.7120   36.4170   41.8840 H   0  0  0  0  0  0  0  0  0  0  0  0
   43.4220   36.1940   43.8260 H   0  0  0  0  0  0  0  0  0  0  0  0
   43.4890   34.4230   43.6500 H   0  0  0  0  0  0  0  0  0  0  0  0
   44.4170   34.9670   45.7560 H   0  0  0  0  0  0  0  0  0  0  0  0
   45.7210   36.0280   44.9830 H   0  0  0  0  0  0  0  0  0  0  0  0
   45.1520   33.1260   44.1980 H   0  0  0  0  0  0  0  0  0  0  0  0
   47.9280   33.5770   43.2730 C   0  0  0  0  0  0  0  0  0  0  0  0
   48.6990   34.1890   42.7860 H   0  0  0  0  0  0  0  0  0  0  0  0
   48.3700   33.2110   44.2400 H   0  0  0  0  0  0  0  0  0  0  0  0
   47.4680   32.3980   42.4980 C   0  0  0  0  0  0  0  0  0  0  0  0
   46.3850   32.4700   42.2350 H   0  0  0  0  0  0  0  0  0  0  0  0
   47.5920   31.4250   43.0190 H   0  0  0  0  0  0  0  0  0  0  0  0
   50.0420   31.6290   39.8630 C   0  0  0  0  0  0  0  0  0  0  0  0
   49.3570   31.6810   41.0900 C   0  0  0  0  0  0  0  0  0  0  0  0
   48.1760   32.3550   41.1890 C   0  0  0  0  0  0  0  0  0  0  0  0
   47.7060   32.9540   40.0840 N   0  0  0  0  0  0  0  0  0  0  0  0
   48.3510   32.9090   38.9100 C   0  0  0  0  0  0  0  0  0  0  0  0
   49.5170   32.2520   38.7820 N   0  0  0  0  0  0  0  0  0  0  0  0
   50.9800   31.0880   39.8040 H   0  0  0  0  0  0  0  0  0  0  0  0
   49.8200   31.1640   41.9280 H   0  0  0  0  0  0  0  0  0  0  0  0
   47.8350   33.4420   38.1240 H   0  0  0  0  0  0  0  0  0  0  0  0
   46.4410   33.6100   45.7340 O   0  0  0  0  0  0  0  0  0  0  0  0
   45.5310   31.1880   45.1090 O   0  0  0  0  0  0  0  0  0  0  0  0
   46.1760   32.0320   46.2200 P   0  0  2  0  0  0  0  0  0  0  0  0
   44.9630   32.1170   47.4350 O   0  0  0  0  0  0  0  0  0  0  0  0
   44.0660   32.1110   47.0550 H   0  0  0  0  0  0  0  0  0  0  0  0
   47.5090   31.2920   46.8940 O   0  0  0  0  0  0  0  0  0  0  0  0
   47.9240   30.2690   46.0610 C   0  0  0  0  0  0  0  0  0  0  0  0
   47.0270   29.9280   45.5120 H   0  0  0  0  0  0  0  0  0  0  0  0
   48.6840   30.6070   45.3200 H   0  0  0  0  0  0  0  0  0  0  0  0
   49.8190   29.0990   47.2490 C   0  0  0  0  0  3  0  0  0  0  0  0
   48.4810   29.1540   46.8710 C   0  0  0  0  0  0  0  0  0  0  0  0
   47.5840   28.1460   47.2420 C   0  0  0  0  0  0  0  0  0  0  0  0
   46.5440   28.1650   46.9630 H   0  0  0  0  0  0  0  0  0  0  0  0
   48.0610   27.0900   47.9960 C   0  0  0  0  0  0  0  0  0  0  0  0
   47.4450   25.9850   48.4990 N   0  0  0  0  0  0  0  0  0  0  0  0
   46.4230   25.7940   48.3490 H   0  0  0  0  0  0  0  0  0  0  0  0
   48.3400   25.2650   49.1600 N   0  0  0  0  0  0  0  0  0  0  0  0
   49.5480   25.8660   49.1120 C   0  0  0  0  0  0  0  0  0  0  0  0
   50.4540   25.4840   49.5740 H   0  0  0  0  0  0  0  0  0  0  0  0
   49.3990   27.0360   48.3730 C   0  0  0  0  0  0  0  0  0  0  0  0
   50.2850   28.0260   48.0110 C   0  0  0  0  0  3  0  0  0  0  0  0
  1  6  1  0  0  0  0
  2  8  1  0  0  0  0
  2  1  1  0  0  0  0
  3  2  1  0  0  0  0
  3  4  1  0  0  0  0
  4 11  1  0  0  0  0
  4  5  1  0  0  0  0
  5 14  1  0  0  0  0
  5 13  1  0  0  0  0
  6 15  1  6  0  0  0
  6  5  1  0  0  0  0
  6 31  1  0  0  0  0
  7  2  1  0  0  0  0
  9  3  1  0  0  0  0
 10  3  1  0  0  0  0
 12  4  1  0  0  0  0
 16  1  1  0  0  0  0
 16 18  1  0  0  0  0
 17 16  1  0  0  0  0
 19 21  1  0  0  0  0
 19 16  1  0  0  0  0
 20 19  1  0  0  0  0
 22 23  1  0  0  0  0
 23 24  2  0  0  0  0
 23 29  1  0  0  0  0
 24 19  1  0  0  0  0
 25 24  1  0  0  0  0
 26 25  2  0  0  0  0
 27 26  1  0  0  0  0
 27 22  2  0  0  0  0
 28 22  1  0  0  0  0
 30 26  1  0  0  0  0
 31 33  1  0  0  0  0
 33 32  2  6  0  0  0
 33 36  1  0  0  0  0
 33 34  1  0  0  0  0
 35 34  1  0  0  0  0
 37 41  1  0  0  0  0
 37 36  1  0  0  0  0
 38 37  1  0  0  0  0
 39 37  1  0  0  0  0
 40 51  1  0  0  0  0
 41 42  1  0  0  0  0
 41 40  2  0  0  0  0
 42 44  2  0  0  0  0
 43 42  1  0  0  0  0
 44 50  1  0  0  0  0
 44 45  1  0  0  0  0
 45 47  1  0  0  0  0
 46 45  1  0  0  0  0
 48 47  2  0  0  0  0
 48 49  1  0  0  0  0
 50 48  1  0  0  0  0
 51 50  2  0  0  0  0
M  END
>  <minimizedAffinity>
-4.73653793

>  <minimizedRMSD>
1.59414244

$$$$
