
 OpenBabel03252509033D

 51 54  0  0  1  0  0  0  0  0999 V2000
   47.1550   34.1790   43.0790 N   0  0  0  0  0  0  0  0  0  0  0  0
   46.6490   35.2700   42.3370 C   0  0  0  0  0  0  0  0  0  0  0  0
   45.1440   35.4680   42.4410 C   0  0  0  0  0  0  0  0  0  0  0  0
   44.5870   35.1230   43.7980 C   0  0  0  0  0  0  0  0  0  0  0  0
   45.6820   34.7280   44.7760 C   0  0  0  0  0  0  0  0  0  0  0  0
   46.4010   33.5330   44.0280 C   0  0  2  0  0  0  0  0  0  0  0  0
   46.8800   35.2860   41.2680 H   0  0  0  0  0  0  0  0  0  0  0  0
   47.0920   36.2150   42.7430 H   0  0  0  0  0  0  0  0  0  0  0  0
   44.6760   34.8380   41.6400 H   0  0  0  0  0  0  0  0  0  0  0  0
   44.9150   36.5210   42.1750 H   0  0  0  0  0  0  0  0  0  0  0  0
   43.9660   35.9320   44.2340 H   0  0  0  0  0  0  0  0  0  0  0  0
   43.9290   34.2290   43.7130 H   0  0  0  0  0  0  0  0  0  0  0  0
   45.2230   34.3450   45.6890 H   0  0  0  0  0  0  0  0  0  0  0  0
   46.4180   35.5280   44.9190 H   0  0  0  0  0  0  0  0  0  0  0  0
   45.6070   32.8380   43.7050 H   0  0  0  0  0  0  0  0  0  0  0  0
   48.2010   33.4420   42.4130 C   0  0  0  0  0  0  0  0  0  0  0  0
   48.9010   34.1320   41.9210 H   0  0  0  0  0  0  0  0  0  0  0  0
   48.7880   32.8940   43.2010 H   0  0  0  0  0  0  0  0  0  0  0  0
   47.5690   32.4360   41.5240 C   0  0  0  0  0  0  0  0  0  0  0  0
   46.4800   32.6350   41.3790 H   0  0  0  0  0  0  0  0  0  0  0  0
   47.6420   31.3880   41.8850 H   0  0  0  0  0  0  0  0  0  0  0  0
   49.5940   31.6470   38.4520 C   0  0  0  0  0  0  0  0  0  0  0  0
   49.0260   31.5720   39.7360 C   0  0  0  0  0  0  0  0  0  0  0  0
   48.1600   32.5350   40.1610 C   0  0  0  0  0  0  0  0  0  0  0  0
   47.8790   33.5380   39.3140 N   0  0  0  0  0  0  0  0  0  0  0  0
   48.4160   33.6180   38.0890 C   0  0  0  0  0  0  0  0  0  0  0  0
   49.2740   32.6840   37.6430 N   0  0  0  0  0  0  0  0  0  0  0  0
   50.2810   30.8720   38.1320 H   0  0  0  0  0  0  0  0  0  0  0  0
   49.3150   30.7210   40.3480 H   0  0  0  0  0  0  0  0  0  0  0  0
   48.0850   34.4880   37.5380 H   0  0  0  0  0  0  0  0  0  0  0  0
   47.1570   33.0040   45.0560 O   0  0  0  0  0  0  0  0  0  0  0  0
   46.1520   30.6540   44.3140 O   0  0  0  0  0  0  0  0  0  0  0  0
   46.6640   31.4720   45.5100 P   0  0  2  0  0  0  0  0  0  0  0  0
   45.2650   31.7040   46.4840 O   0  0  0  0  0  0  0  0  0  0  0  0
   44.4550   31.7650   45.9480 H   0  0  0  0  0  0  0  0  0  0  0  0
   47.7800   30.6390   46.4260 O   0  0  0  0  0  0  0  0  0  0  0  0
   47.7910   29.3160   46.0250 C   0  0  0  0  0  0  0  0  0  0  0  0
   46.7700   28.9260   46.2000 H   0  0  0  0  0  0  0  0  0  0  0  0
   48.0320   29.2010   44.9440 H   0  0  0  0  0  0  0  0  0  0  0  0
   48.4120   27.4500   47.6090 C   0  0  0  0  0  3  0  0  0  0  0  0
   48.7740   28.5510   46.8380 C   0  0  0  0  0  0  0  0  0  0  0  0
   50.1000   28.9970   46.7920 C   0  0  0  0  0  0  0  0  0  0  0  0
   50.4040   29.8460   46.2030 H   0  0  0  0  0  0  0  0  0  0  0  0
   51.0470   28.3150   47.5320 C   0  0  0  0  0  0  0  0  0  0  0  0
   52.3850   28.5040   47.6860 N   0  0  0  0  0  0  0  0  0  0  0  0
   52.9020   29.2800   47.2020 H   0  0  0  0  0  0  0  0  0  0  0  0
   52.8530   27.5790   48.5090 N   0  0  0  0  0  0  0  0  0  0  0  0
   51.8520   26.7660   48.9130 C   0  0  0  0  0  0  0  0  0  0  0  0
   51.9660   25.9240   49.5890 H   0  0  0  0  0  0  0  0  0  0  0  0
   50.6840   27.2150   48.3020 C   0  0  0  0  0  0  0  0  0  0  0  0
   49.3820   26.7720   48.3520 C   0  0  0  0  0  3  0  0  0  0  0  0
  1  6  1  0  0  0  0
  2  3  1  0  0  0  0
  2  8  1  0  0  0  0
  2  1  1  0  0  0  0
  3  4  1  0  0  0  0
  4 11  1  0  0  0  0
  4  5  1  0  0  0  0
  5 14  1  0  0  0  0
  5 13  1  0  0  0  0
  6 15  1  6  0  0  0
  6  5  1  0  0  0  0
  6 31  1  0  0  0  0
  7  2  1  0  0  0  0
  9  3  1  0  0  0  0
 10  3  1  0  0  0  0
 12  4  1  0  0  0  0
 16  1  1  0  0  0  0
 16 18  1  0  0  0  0
 17 16  1  0  0  0  0
 19 21  1  0  0  0  0
 19 16  1  0  0  0  0
 20 19  1  0  0  0  0
 22 23  1  0  0  0  0
 23 24  2  0  0  0  0
 23 29  1  0  0  0  0
 24 19  1  0  0  0  0
 25 24  1  0  0  0  0
 26 25  2  0  0  0  0
 27 26  1  0  0  0  0
 27 22  2  0  0  0  0
 28 22  1  0  0  0  0
 30 26  1  0  0  0  0
 31 33  1  0  0  0  0
 33 32  2  6  0  0  0
 33 36  1  0  0  0  0
 33 34  1  0  0  0  0
 35 34  1  0  0  0  0
 37 38  1  0  0  0  0
 37 36  1  0  0  0  0
 37 41  1  0  0  0  0
 39 37  1  0  0  0  0
 40 51  1  0  0  0  0
 41 40  2  0  0  0  0
 42 41  1  0  0  0  0
 42 44  2  0  0  0  0
 43 42  1  0  0  0  0
 44 45  1  0  0  0  0
 44 50  1  0  0  0  0
 45 47  1  0  0  0  0
 46 45  1  0  0  0  0
 47 48  2  0  0  0  0
 48 49  1  0  0  0  0
 50 51  2  0  0  0  0
 50 48  1  0  0  0  0
M  END
>  <minimizedAffinity>
-3.91072083

>  <minimizedRMSD>
1.0085094

$$$$
