
 OpenBabel03252507423D

 34 37  0  0  0  0  0  0  0  0999 V2000
   44.3610   34.1590   41.4410 C   0  0  0  0  0  0  0  0  0  0  0  0
   44.0120   35.3000   42.2400 C   0  0  0  0  0  0  0  0  0  0  0  0
   42.2820   35.6560   41.6660 S   0  0  0  0  0  0  0  0  0  0  0  0
   42.3550   34.2050   40.4610 C   0  0  0  0  0  0  0  0  0  0  0  0
   43.4010   33.7810   40.6300 N   0  0  0  0  0  0  0  0  0  0  0  0
   44.6390   35.7750   42.9640 H   0  0  0  0  0  0  0  0  0  0  0  0
   40.2240   34.8020   39.3400 C   0  0  0  0  0  0  0  0  0  0  0  0
   41.2120   33.8780   39.6030 C   0  0  0  0  0  0  0  0  0  0  0  0
   41.1190   32.6120   39.0380 C   0  0  0  0  0  0  0  0  0  0  0  0
   41.8890   31.8610   39.2310 H   0  0  0  0  0  0  0  0  0  0  0  0
   40.0600   32.2650   38.2240 C   0  0  0  0  0  0  0  0  0  0  0  0
   39.7470   31.1120   37.5650 N   0  0  0  0  0  0  0  0  0  0  0  0
   40.2750   30.2160   37.5450 H   0  0  0  0  0  0  0  0  0  0  0  0
   38.6020   31.3240   36.9180 N   0  0  0  0  0  0  0  0  0  0  0  0
   38.1480   32.5690   37.1250 C   0  0  0  0  0  0  0  0  0  0  0  0
   37.2560   33.0520   36.7490 H   0  0  0  0  0  0  0  0  0  0  0  0
   39.0610   33.1770   37.9500 C   0  0  0  0  0  0  0  0  0  0  0  0
   39.1780   34.4260   38.5230 C   0  0  0  0  0  0  0  0  0  0  0  0
   45.7050   33.5270   41.5830 C   0  0  0  0  0  0  0  0  0  0  0  0
   46.0340   33.6140   42.6320 H   0  0  0  0  0  0  0  0  0  0  0  0
   45.6400   32.4350   41.3290 H   0  0  0  0  0  0  0  0  0  0  0  0
   46.7670   34.1050   40.7120 C   0  0  0  0  0  0  0  0  0  0  0  0
   46.7400   33.7090   39.7070 H   0  0  0  0  0  0  0  0  0  0  0  0
   46.5610   35.2110   40.6080 H   0  0  0  0  0  0  0  0  0  0  0  0
   48.1220   34.0340   41.3060 C   0  0  0  0  0  0  0  0  0  0  0  0
   48.9060   32.9240   40.9870 C   0  0  0  0  0  0  0  0  0  0  0  0
   50.1690   32.8360   41.5300 C   0  0  0  0  0  0  0  0  0  0  0  0
   50.6130   33.8220   42.3510 N   0  0  0  0  0  0  0  0  0  0  0  0
   49.8300   34.8780   42.6370 C   0  0  0  0  0  0  0  0  0  0  0  0
   48.6160   34.9650   42.1180 N   0  0  0  0  0  0  0  0  0  0  0  0
   50.7270   31.9500   41.2410 H   0  0  0  0  0  0  0  0  0  0  0  0
   50.3000   35.5930   43.3030 H   0  0  0  0  0  0  0  0  0  0  0  0
   48.2590   31.6510   39.8900 S   0  0  0  0  0  0  0  0  0  0  0  0
   47.8960   30.4920   40.6070 H   0  0  0  0  0  0  0  0  0  0  0  0
  1 19  1  0  0  0  0
  1  2  2  0  0  0  0
  2  6  1  0  0  0  0
  3  2  1  0  0  0  0
  4  5  2  0  0  0  0
  4  3  1  0  0  0  0
  5  1  1  0  0  0  0
  7  8  1  0  0  0  0
  8  4  1  0  0  0  0
  9 10  1  0  0  0  0
  9  8  2  0  0  0  0
 11  9  1  0  0  0  0
 12 11  1  0  0  0  0
 13 12  1  0  0  0  0
 14 15  2  0  0  0  0
 14 12  1  0  0  0  0
 15 17  1  0  0  0  0
 16 15  1  0  0  0  0
 17 11  2  0  0  0  0
 17 18  1  0  0  0  0
 18  7  2  0  0  0  0
 19 20  1  0  0  0  0
 21 19  1  0  0  0  0
 22 25  1  0  0  0  0
 22 19  1  0  0  0  0
 23 22  1  0  0  0  0
 24 22  1  0  0  0  0
 25 30  1  0  0  0  0
 26 25  2  0  0  0  0
 26 27  1  0  0  0  0
 27 28  2  0  0  0  0
 28 29  1  0  0  0  0
 29 32  1  0  0  0  0
 30 29  2  0  0  0  0
 31 27  1  0  0  0  0
 33 34  1  0  0  0  0
 33 26  1  0  0  0  0
M  END
>  <minimizedAffinity>
-5.13095951

>  <minimizedRMSD>
2.02277327

$$$$
