
 OpenBabel03252502203D

 36 39  0  0  1  0  0  0  0  0999 V2000
   46.6610   34.5500   42.2530 N   0  0  0  0  0  0  0  0  0  0  0  0
   48.1150   34.3910   42.2860 C   0  0  0  0  0  0  0  0  0  0  0  0
   48.5820   35.0910   40.9930 C   0  0  0  0  0  0  0  0  0  0  0  0
   48.0510   34.3830   39.7760 C   0  0  0  0  0  0  0  0  0  0  0  0
   46.7140   33.7730   39.9410 C   0  0  0  0  0  0  0  0  0  0  0  0
   45.9150   34.4560   41.0280 C   0  0  1  0  0  0  0  0  0  0  0  0
   48.4980   35.0130   43.1040 H   0  0  0  0  0  0  0  0  0  0  0  0
   48.4430   33.3520   42.2700 H   0  0  0  0  0  0  0  0  0  0  0  0
   49.6740   35.1560   40.9790 H   0  0  0  0  0  0  0  0  0  0  0  0
   48.1210   36.1130   40.9950 H   0  0  0  0  0  0  0  0  0  0  0  0
   48.8010   33.6020   39.5050 H   0  0  0  0  0  0  0  0  0  0  0  0
   48.0740   35.1460   38.9440 H   0  0  0  0  0  0  0  0  0  0  0  0
   46.8000   32.6920   40.2490 H   0  0  0  0  0  0  0  0  0  0  0  0
   46.1320   33.8460   39.0100 H   0  0  0  0  0  0  0  0  0  0  0  0
   45.8120   35.5040   40.6730 H   0  0  0  0  0  0  0  0  0  0  0  0
   43.4660   34.5220   40.5460 C   0  0  0  0  0  0  0  0  0  0  0  0
   44.5600   33.8990   41.1610 C   0  0  0  0  0  0  0  0  0  0  0  0
   44.2260   32.7610   41.8680 C   0  0  0  0  0  0  0  0  0  0  0  0
   45.0130   32.2320   42.3650 H   0  0  0  0  0  0  0  0  0  0  0  0
   42.9550   32.2600   41.9780 C   0  0  0  0  0  0  0  0  0  0  0  0
   42.4320   31.1860   42.6070 N   0  0  0  0  0  0  0  0  0  0  0  0
   42.9760   30.4810   43.1790 H   0  0  0  0  0  0  0  0  0  0  0  0
   41.1250   31.1450   42.4000 N   0  0  0  0  0  0  0  0  0  0  0  0
   40.7570   32.1860   41.6340 C   0  0  0  0  0  0  0  0  0  0  0  0
   39.7600   32.4400   41.2830 H   0  0  0  0  0  0  0  0  0  0  0  0
   41.9040   32.9010   41.3570 C   0  0  0  0  0  0  0  0  0  0  0  0
   42.1790   34.0350   40.6430 C   0  0  0  0  0  0  0  0  0  0  0  0
   44.4560   36.1450   44.8050 C   0  0  0  0  0  0  0  0  0  0  0  0
   45.1400   35.9390   43.6110 C   0  0  0  0  0  0  0  0  0  0  0  0
   45.9450   34.8060   43.4500 C   0  0  0  0  0  0  0  0  0  0  0  0
   46.0010   33.9640   44.5110 N   0  0  0  0  0  0  0  0  0  0  0  0
   45.3340   34.1740   45.6640 C   0  0  0  0  0  0  0  0  0  0  0  0
   44.5650   35.2670   45.8030 N   0  0  0  0  0  0  0  0  0  0  0  0
   43.8370   37.0470   44.8860 H   0  0  0  0  0  0  0  0  0  0  0  0
   45.0480   36.6500   42.8110 H   0  0  0  0  0  0  0  0  0  0  0  0
   45.4520   33.4240   46.4600 H   0  0  0  0  0  0  0  0  0  0  0  0
  1  2  1  0  0  0  0
  1 30  1  0  0  0  0
  2  7  1  0  0  0  0
  3 10  1  0  0  0  0
  3  2  1  0  0  0  0
  4  5  1  0  0  0  0
  4  3  1  0  0  0  0
  5 13  1  0  0  0  0
  5  6  1  0  0  0  0
  6 15  1  6  0  0  0
  6 17  1  0  0  0  0
  6  1  1  0  0  0  0
  8  2  1  0  0  0  0
  9  3  1  0  0  0  0
 11  4  1  0  0  0  0
 12  4  1  0  0  0  0
 14  5  1  0  0  0  0
 16 27  2  0  0  0  0
 16 17  1  0  0  0  0
 17 18  2  0  0  0  0
 18 20  1  0  0  0  0
 18 19  1  0  0  0  0
 20 21  1  0  0  0  0
 21 22  1  0  0  0  0
 23 21  1  0  0  0  0
 24 23  2  0  0  0  0
 25 24  1  0  0  0  0
 26 24  1  0  0  0  0
 26 20  2  0  0  0  0
 27 26  1  0  0  0  0
 28 34  1  0  0  0  0
 28 33  1  0  0  0  0
 29 28  2  0  0  0  0
 30 29  1  0  0  0  0
 30 31  2  0  0  0  0
 31 32  1  0  0  0  0
 32 33  2  0  0  0  0
 32 36  1  0  0  0  0
 35 29  1  0  0  0  0
M  END
>  <minimizedAffinity>
-6.38739824

>  <minimizedRMSD>
0.612185419

$$$$
