
 OpenBabel03252509033D

 51 54  0  0  1  0  0  0  0  0999 V2000
   47.1530   34.1780   43.0780 N   0  0  0  0  0  0  0  0  0  0  0  0
   46.6720   35.2850   42.3440 C   0  0  0  0  0  0  0  0  0  0  0  0
   45.1730   35.5210   42.4560 C   0  0  0  0  0  0  0  0  0  0  0  0
   44.6130   35.1840   43.8140 C   0  0  0  0  0  0  0  0  0  0  0  0
   45.7020   34.7560   44.7850 C   0  0  0  0  0  0  0  0  0  0  0  0
   46.3860   33.5460   44.0280 C   0  0  2  0  0  0  0  0  0  0  0  0
   46.8990   35.3010   41.2740 H   0  0  0  0  0  0  0  0  0  0  0  0
   47.1410   36.2170   42.7530 H   0  0  0  0  0  0  0  0  0  0  0  0
   44.6850   34.9070   41.6540 H   0  0  0  0  0  0  0  0  0  0  0  0
   44.9700   36.5810   42.1960 H   0  0  0  0  0  0  0  0  0  0  0  0
   44.0150   36.0070   44.2570 H   0  0  0  0  0  0  0  0  0  0  0  0
   43.9320   34.3080   43.7280 H   0  0  0  0  0  0  0  0  0  0  0  0
   45.2380   34.3810   45.6980 H   0  0  0  0  0  0  0  0  0  0  0  0
   46.4600   35.5360   44.9280 H   0  0  0  0  0  0  0  0  0  0  0  0
   45.5730   32.8740   43.7050 H   0  0  0  0  0  0  0  0  0  0  0  0
   48.1770   33.4180   42.4040 C   0  0  0  0  0  0  0  0  0  0  0  0
   48.8940   34.0920   41.9160 H   0  0  0  0  0  0  0  0  0  0  0  0
   48.7500   32.8480   43.1860 H   0  0  0  0  0  0  0  0  0  0  0  0
   47.5150   32.4370   41.5090 C   0  0  0  0  0  0  0  0  0  0  0  0
   46.4320   32.6680   41.3660 H   0  0  0  0  0  0  0  0  0  0  0  0
   47.5580   31.3840   41.8620 H   0  0  0  0  0  0  0  0  0  0  0  0
   49.5140   31.6090   38.4300 C   0  0  0  0  0  0  0  0  0  0  0  0
   48.9440   31.5420   39.7140 C   0  0  0  0  0  0  0  0  0  0  0  0
   48.1070   32.5270   40.1460 C   0  0  0  0  0  0  0  0  0  0  0  0
   47.8560   33.5440   39.3060 N   0  0  0  0  0  0  0  0  0  0  0  0
   48.3940   33.6160   38.0810 C   0  0  0  0  0  0  0  0  0  0  0  0
   49.2230   32.6600   37.6280 N   0  0  0  0  0  0  0  0  0  0  0  0
   50.1780   30.8160   38.1040 H   0  0  0  0  0  0  0  0  0  0  0  0
   49.2090   30.6780   40.3200 H   0  0  0  0  0  0  0  0  0  0  0  0
   48.0880   34.4990   37.5360 H   0  0  0  0  0  0  0  0  0  0  0  0
   47.1330   32.9930   45.0490 O   0  0  0  0  0  0  0  0  0  0  0  0
   46.0100   30.6860   44.3430 O   0  0  0  0  0  0  0  0  0  0  0  0
   46.5800   31.4880   45.5240 P   0  0  2  0  0  0  0  0  0  0  0  0
   45.2110   31.7900   46.5210 O   0  0  0  0  0  0  0  0  0  0  0  0
   44.3950   31.8840   45.9990 H   0  0  0  0  0  0  0  0  0  0  0  0
   47.6730   30.6120   46.4260 O   0  0  0  0  0  0  0  0  0  0  0  0
   47.6000   29.2820   46.0530 C   0  0  0  0  0  0  0  0  0  0  0  0
   46.5630   28.9550   46.2590 H   0  0  0  0  0  0  0  0  0  0  0  0
   47.8080   29.1330   44.9680 H   0  0  0  0  0  0  0  0  0  0  0  0
   48.3330   27.1420   47.1720 C   0  0  0  0  0  3  0  0  0  0  0  0
   48.5570   28.4790   46.8580 C   0  0  0  0  0  0  0  0  0  0  0  0
   49.7130   29.1400   47.2920 C   0  0  0  0  0  0  0  0  0  0  0  0
   49.9090   30.1720   47.0610 H   0  0  0  0  0  0  0  0  0  0  0  0
   50.6300   28.4290   48.0430 C   0  0  0  0  0  0  0  0  0  0  0  0
   51.8200   28.7880   48.5960 N   0  0  0  0  0  0  0  0  0  0  0  0
   52.2150   29.7580   48.4990 H   0  0  0  0  0  0  0  0  0  0  0  0
   52.3280   27.7410   49.2290 N   0  0  0  0  0  0  0  0  0  0  0  0
   51.5000   26.6800   49.1110 C   0  0  0  0  0  0  0  0  0  0  0  0
   51.6810   25.6980   49.5360 H   0  0  0  0  0  0  0  0  0  0  0  0
   50.4050   27.0930   48.3570 C   0  0  0  0  0  0  0  0  0  0  0  0
   49.2700   26.4380   47.9340 C   0  0  0  0  0  3  0  0  0  0  0  0
  1  6  1  0  0  0  0
  2  3  1  0  0  0  0
  2  8  1  0  0  0  0
  2  1  1  0  0  0  0
  3  4  1  0  0  0  0
  4 11  1  0  0  0  0
  4  5  1  0  0  0  0
  5 14  1  0  0  0  0
  5 13  1  0  0  0  0
  6 15  1  6  0  0  0
  6  5  1  0  0  0  0
  6 31  1  0  0  0  0
  7  2  1  0  0  0  0
  9  3  1  0  0  0  0
 10  3  1  0  0  0  0
 12  4  1  0  0  0  0
 16  1  1  0  0  0  0
 16 18  1  0  0  0  0
 17 16  1  0  0  0  0
 19 21  1  0  0  0  0
 19 16  1  0  0  0  0
 20 19  1  0  0  0  0
 22 23  1  0  0  0  0
 23 24  2  0  0  0  0
 23 29  1  0  0  0  0
 24 19  1  0  0  0  0
 25 24  1  0  0  0  0
 26 25  2  0  0  0  0
 27 26  1  0  0  0  0
 27 22  2  0  0  0  0
 28 22  1  0  0  0  0
 30 26  1  0  0  0  0
 31 33  1  0  0  0  0
 33 32  2  6  0  0  0
 33 36  1  0  0  0  0
 33 34  1  0  0  0  0
 35 34  1  0  0  0  0
 37 38  1  0  0  0  0
 37 36  1  0  0  0  0
 37 41  1  0  0  0  0
 39 37  1  0  0  0  0
 40 51  1  0  0  0  0
 41 40  2  0  0  0  0
 41 42  1  0  0  0  0
 42 44  2  0  0  0  0
 43 42  1  0  0  0  0
 44 50  1  0  0  0  0
 44 45  1  0  0  0  0
 45 47  1  0  0  0  0
 46 45  1  0  0  0  0
 48 47  2  0  0  0  0
 48 49  1  0  0  0  0
 50 48  1  0  0  0  0
 51 50  2  0  0  0  0
M  END
>  <minimizedAffinity>
-3.89948726

>  <minimizedRMSD>
0.978396595

$$$$
