
 OpenBabel03252509033D

 51 54  0  0  1  0  0  0  0  0999 V2000
   47.0250   34.2930   43.4360 N   0  0  0  0  0  0  0  0  0  0  0  0
   46.6840   35.1140   42.3380 C   0  0  0  0  0  0  0  0  0  0  0  0
   45.2050   35.1170   41.9810 C   0  0  0  0  0  0  0  0  0  0  0  0
   44.2980   35.0030   43.1790 C   0  0  0  0  0  0  0  0  0  0  0  0
   45.0820   34.9870   44.4810 C   0  0  0  0  0  0  0  0  0  0  0  0
   46.0730   33.7710   44.2770 C   0  0  2  0  0  0  0  0  0  0  0  0
   47.2180   34.9290   41.4010 H   0  0  0  0  0  0  0  0  0  0  0  0
   46.9190   36.1780   42.5990 H   0  0  0  0  0  0  0  0  0  0  0  0
   45.0390   34.2680   41.2660 H   0  0  0  0  0  0  0  0  0  0  0  0
   44.9890   36.0440   41.4080 H   0  0  0  0  0  0  0  0  0  0  0  0
   43.5200   35.7920   43.2150 H   0  0  0  0  0  0  0  0  0  0  0  0
   43.7600   34.0290   43.1460 H   0  0  0  0  0  0  0  0  0  0  0  0
   44.4030   34.7540   45.3030 H   0  0  0  0  0  0  0  0  0  0  0  0
   45.6850   35.8940   44.6130 H   0  0  0  0  0  0  0  0  0  0  0  0
   45.4610   32.9180   43.9360 H   0  0  0  0  0  0  0  0  0  0  0  0
   48.2710   33.5820   43.2820 C   0  0  0  0  0  0  0  0  0  0  0  0
   49.0290   34.2350   42.8290 H   0  0  0  0  0  0  0  0  0  0  0  0
   48.6440   33.3180   44.3090 H   0  0  0  0  0  0  0  0  0  0  0  0
   47.9990   32.3200   42.5500 C   0  0  0  0  0  0  0  0  0  0  0  0
   47.0970   32.4040   41.8970 H   0  0  0  0  0  0  0  0  0  0  0  0
   47.8250   31.4360   43.1990 H   0  0  0  0  0  0  0  0  0  0  0  0
   51.4770   31.9980   41.1500 C   0  0  0  0  0  0  0  0  0  0  0  0
   50.4030   32.2600   42.0190 C   0  0  0  0  0  0  0  0  0  0  0  0
   49.1210   32.0360   41.6140 C   0  0  0  0  0  0  0  0  0  0  0  0
   48.9340   31.5610   40.3720 N   0  0  0  0  0  0  0  0  0  0  0  0
   49.9510   31.3080   39.5370 C   0  0  0  0  0  0  0  0  0  0  0  0
   51.2260   31.5200   39.9080 N   0  0  0  0  0  0  0  0  0  0  0  0
   52.4900   32.1820   41.4900 H   0  0  0  0  0  0  0  0  0  0  0  0
   50.6570   32.6430   43.0050 H   0  0  0  0  0  0  0  0  0  0  0  0
   49.6260   30.9310   38.5770 H   0  0  0  0  0  0  0  0  0  0  0  0
   46.5280   33.5900   45.5690 O   0  0  0  0  0  0  0  0  0  0  0  0
   45.5840   31.1460   45.1000 O   0  0  0  0  0  0  0  0  0  0  0  0
   46.2270   32.0550   46.1600 P   0  0  2  0  0  0  0  0  0  0  0  0
   44.9970   32.2470   47.3460 O   0  0  0  0  0  0  0  0  0  0  0  0
   44.1070   32.2290   46.9520 H   0  0  0  0  0  0  0  0  0  0  0  0
   47.5360   31.3420   46.9060 O   0  0  0  0  0  0  0  0  0  0  0  0
   47.9480   30.2590   46.1520 C   0  0  0  0  0  0  0  0  0  0  0  0
   47.0380   29.8350   45.6880 H   0  0  0  0  0  0  0  0  0  0  0  0
   48.6540   30.5500   45.3400 H   0  0  0  0  0  0  0  0  0  0  0  0
   49.8750   29.4100   47.5430 C   0  0  0  0  0  3  0  0  0  0  0  0
   48.5910   29.2470   47.0310 C   0  0  0  0  0  0  0  0  0  0  0  0
   47.8340   28.1080   47.3250 C   0  0  0  0  0  0  0  0  0  0  0  0
   46.8390   27.9590   46.9420 H   0  0  0  0  0  0  0  0  0  0  0  0
   48.3950   27.1420   48.1410 C   0  0  0  0  0  0  0  0  0  0  0  0
   47.9180   25.9510   48.5940 N   0  0  0  0  0  0  0  0  0  0  0  0
   46.9600   25.5980   48.3440 H   0  0  0  0  0  0  0  0  0  0  0  0
   48.8440   25.3850   49.3530 N   0  0  0  0  0  0  0  0  0  0  0  0
   49.9390   26.1730   49.4190 C   0  0  0  0  0  0  0  0  0  0  0  0
   50.8420   25.9420   49.9770 H   0  0  0  0  0  0  0  0  0  0  0  0
   49.6790   27.3050   48.6510 C   0  0  0  0  0  0  0  0  0  0  0  0
   50.4270   28.4250   48.3660 C   0  0  0  0  0  3  0  0  0  0  0  0
  1  6  1  0  0  0  0
  2  8  1  0  0  0  0
  2  1  1  0  0  0  0
  3  2  1  0  0  0  0
  3  4  1  0  0  0  0
  4 11  1  0  0  0  0
  4  5  1  0  0  0  0
  5 14  1  0  0  0  0
  5 13  1  0  0  0  0
  6 15  1  6  0  0  0
  6  5  1  0  0  0  0
  6 31  1  0  0  0  0
  7  2  1  0  0  0  0
  9  3  1  0  0  0  0
 10  3  1  0  0  0  0
 12  4  1  0  0  0  0
 16  1  1  0  0  0  0
 16 18  1  0  0  0  0
 17 16  1  0  0  0  0
 19 21  1  0  0  0  0
 19 16  1  0  0  0  0
 20 19  1  0  0  0  0
 22 28  1  0  0  0  0
 22 23  1  0  0  0  0
 23 29  1  0  0  0  0
 24 23  2  0  0  0  0
 24 19  1  0  0  0  0
 25 24  1  0  0  0  0
 26 27  1  0  0  0  0
 26 25  2  0  0  0  0
 27 22  2  0  0  0  0
 30 26  1  0  0  0  0
 31 33  1  0  0  0  0
 33 32  2  6  0  0  0
 33 36  1  0  0  0  0
 33 34  1  0  0  0  0
 35 34  1  0  0  0  0
 37 36  1  0  0  0  0
 37 41  1  0  0  0  0
 38 37  1  0  0  0  0
 39 37  1  0  0  0  0
 40 51  1  0  0  0  0
 41 42  1  0  0  0  0
 41 40  2  0  0  0  0
 42 44  2  0  0  0  0
 43 42  1  0  0  0  0
 44 45  1  0  0  0  0
 44 50  1  0  0  0  0
 45 47  1  0  0  0  0
 46 45  1  0  0  0  0
 47 48  2  0  0  0  0
 48 49  1  0  0  0  0
 50 48  1  0  0  0  0
 51 50  2  0  0  0  0
M  END
>  <minimizedAffinity>
-4.83394718

>  <minimizedRMSD>
2.09405494

$$$$
