
 OpenBabel03242521353D

 34 38  0  0  0  0  0  0  0  0999 V2000
   35.6400   27.4610   36.0490 C   0  0  0  0  0  0  0  0  0  0  0  0
   34.4220   28.1680   35.8850 C   0  0  0  0  0  0  0  0  0  0  0  0
   33.8150   28.6730   37.0280 C   0  0  0  0  0  0  0  0  0  0  0  0
   34.3940   28.4770   38.2360 N   0  0  0  0  0  0  0  0  0  0  0  0
   35.5620   27.7940   38.3660 C   0  0  0  0  0  0  0  0  0  0  0  0
   36.1630   27.3000   37.2790 N   0  0  0  0  0  0  0  0  0  0  0  0
   36.0440   27.1030   35.1130 H   0  0  0  0  0  0  0  0  0  0  0  0
   33.9490   28.3320   34.9250 H   0  0  0  0  0  0  0  0  0  0  0  0
   32.1400   29.9050   35.7730 C   0  0  0  0  0  0  0  0  0  0  0  0
   32.5580   29.4210   37.0050 C   0  0  0  0  0  0  0  0  0  0  0  0
   31.7800   29.6690   38.1050 C   0  0  0  0  0  0  0  0  0  0  0  0
   30.5970   30.3810   38.0390 C   0  0  0  0  0  0  0  0  0  0  0  0
   29.6820   30.7430   38.9650 N   0  0  0  0  0  0  0  0  0  0  0  0
   28.6990   31.4460   38.3340 C   0  0  0  0  0  0  0  0  0  0  0  0
   29.0150   31.5120   37.0190 N   0  0  0  0  0  0  0  0  0  0  0  0
   30.1780   30.8650   36.8080 C   0  0  0  0  0  0  0  0  0  0  0  0
   30.9450   30.6270   35.6910 C   0  0  0  0  0  0  0  0  0  0  0  0
   32.7140   29.7420   34.8540 H   0  0  0  0  0  0  0  0  0  0  0  0
   32.1140   29.2870   39.0630 H   0  0  0  0  0  0  0  0  0  0  0  0
   29.6940   30.5400   39.9880 H   0  0  0  0  0  0  0  0  0  0  0  0
   27.8040   31.8970   38.7420 H   0  0  0  0  0  0  0  0  0  0  0  0
   30.6430   30.9940   34.7150 H   0  0  0  0  0  0  0  0  0  0  0  0
   36.6640   26.3810   40.0510 C   0  0  0  0  0  3  0  0  0  0  0  0
   36.1480   27.6080   39.6890 C   0  0  0  0  0  0  0  0  0  0  0  0
   36.1820   28.6690   40.5710 C   0  0  0  0  0  0  0  0  0  0  0  0
   35.7840   29.6460   40.3110 H   0  0  0  0  0  0  0  0  0  0  0  0
   36.7320   28.5220   41.8290 C   0  0  0  0  0  0  0  0  0  0  0  0
   36.9110   29.3370   42.8880 N   0  0  0  0  0  0  0  0  0  0  0  0
   36.6160   30.3400   42.9050 H   0  0  0  0  0  0  0  0  0  0  0  0
   37.5010   28.6670   43.8540 N   0  0  0  0  0  0  0  0  0  0  0  0
   37.7380   27.3780   43.4750 C   0  0  0  0  0  0  0  0  0  0  0  0
   38.2210   26.6240   44.1160 H   0  0  0  0  0  0  0  0  0  0  0  0
   37.2430   27.2850   42.1740 C   0  0  0  0  0  0  0  0  0  0  0  0
   37.2280   26.1950   41.3170 C   0  0  0  0  0  3  0  0  0  0  0  0
  1  6  1  0  0  0  0
  2  1  2  0  0  0  0
  2  3  1  0  0  0  0
  3  4  2  0  0  0  0
  4  5  1  0  0  0  0
  5 24  1  0  0  0  0
  6  5  2  0  0  0  0
  7  1  1  0  0  0  0
  8  2  1  0  0  0  0
  9 10  1  0  0  0  0
 10  3  1  0  0  0  0
 10 11  2  0  0  0  0
 11 19  1  0  0  0  0
 12 11  1  0  0  0  0
 12 13  1  0  0  0  0
 13 20  1  0  0  0  0
 14 21  1  0  0  0  0
 14 13  1  0  0  0  0
 15 14  2  0  0  0  0
 16 15  1  0  0  0  0
 16 12  2  0  0  0  0
 17  9  2  0  0  0  0
 17 16  1  0  0  0  0
 18  9  1  0  0  0  0
 22 17  1  0  0  0  0
 23 34  1  0  0  0  0
 24 23  2  0  0  0  0
 24 25  1  0  0  0  0
 25 27  2  0  0  0  0
 26 25  1  0  0  0  0
 27 33  1  0  0  0  0
 27 28  1  0  0  0  0
 28 29  1  0  0  0  0
 28 30  1  0  0  0  0
 31 30  2  0  0  0  0
 31 32  1  0  0  0  0
 33 31  1  0  0  0  0
 34 33  2  0  0  0  0
M  END
>  <minimizedAffinity>
-6.4010191

$$$$

 OpenBabel03242521353D

 34 38  0  0  0  0  0  0  0  0999 V2000
   37.4430   27.9620   43.8150 C   0  0  0  0  0  0  0  0  0  0  0  0
   37.1170   26.8700   42.9710 C   0  0  0  0  0  0  0  0  0  0  0  0
   37.1150   27.0980   41.6010 C   0  0  0  0  0  0  0  0  0  0  0  0
   37.4190   28.3300   41.1250 N   0  0  0  0  0  0  0  0  0  0  0  0
   37.7270   29.3600   41.9560 C   0  0  0  0  0  0  0  0  0  0  0  0
   37.7350   29.1620   43.2780 N   0  0  0  0  0  0  0  0  0  0  0  0
   37.4210   27.7000   44.8620 H   0  0  0  0  0  0  0  0  0  0  0  0
   36.8730   25.8820   43.3370 H   0  0  0  0  0  0  0  0  0  0  0  0
   36.8130   24.7500   41.0620 C   0  0  0  0  0  0  0  0  0  0  0  0
   36.7980   26.0640   40.6150 C   0  0  0  0  0  0  0  0  0  0  0  0
   36.4920   26.3080   39.3030 C   0  0  0  0  0  0  0  0  0  0  0  0
   36.1970   25.2990   38.4050 C   0  0  0  0  0  0  0  0  0  0  0  0
   35.8720   25.2940   37.0930 N   0  0  0  0  0  0  0  0  0  0  0  0
   35.6850   24.0000   36.7100 C   0  0  0  0  0  0  0  0  0  0  0  0
   35.8940   23.2120   37.7920 N   0  0  0  0  0  0  0  0  0  0  0  0
   36.2110   23.9850   38.8490 C   0  0  0  0  0  0  0  0  0  0  0  0
   36.5160   23.7190   40.1640 C   0  0  0  0  0  0  0  0  0  0  0  0
   37.0490   24.4850   42.0980 H   0  0  0  0  0  0  0  0  0  0  0  0
   36.4820   27.3370   38.9640 H   0  0  0  0  0  0  0  0  0  0  0  0
   35.7750   26.1140   36.4560 H   0  0  0  0  0  0  0  0  0  0  0  0
   35.4160   23.5990   35.7410 H   0  0  0  0  0  0  0  0  0  0  0  0
   36.5360   22.7010   40.5400 H   0  0  0  0  0  0  0  0  0  0  0  0
   37.1080   31.3550   40.6570 C   0  0  0  0  0  3  0  0  0  0  0  0
   38.0480   30.6690   41.3980 C   0  0  0  0  0  0  0  0  0  0  0  0
   39.2970   31.2130   41.6200 C   0  0  0  0  0  0  0  0  0  0  0  0
   40.0550   30.6950   42.2010 H   0  0  0  0  0  0  0  0  0  0  0  0
   39.6280   32.4510   41.1050 C   0  0  0  0  0  0  0  0  0  0  0  0
   40.7270   33.2310   41.1420 N   0  0  0  0  0  0  0  0  0  0  0  0
   41.6080   32.9700   41.6380 H   0  0  0  0  0  0  0  0  0  0  0  0
   40.4930   34.3360   40.4670 N   0  0  0  0  0  0  0  0  0  0  0  0
   39.2300   34.3350   39.9550 C   0  0  0  0  0  0  0  0  0  0  0  0
   38.8050   35.1520   39.3510 H   0  0  0  0  0  0  0  0  0  0  0  0
   38.6730   33.1220   40.3640 C   0  0  0  0  0  0  0  0  0  0  0  0
   37.4080   32.6100   40.1190 C   0  0  0  0  0  3  0  0  0  0  0  0
  1  7  1  0  0  0  0
  2  8  1  0  0  0  0
  2  1  2  0  0  0  0
  3  2  1  0  0  0  0
  4  3  2  0  0  0  0
  4  5  1  0  0  0  0
  5  6  2  0  0  0  0
  6  1  1  0  0  0  0
  9 18  1  0  0  0  0
 10  9  1  0  0  0  0
 10  3  1  0  0  0  0
 11 10  2  0  0  0  0
 12 16  2  0  0  0  0
 12 11  1  0  0  0  0
 13 12  1  0  0  0  0
 14 13  1  0  0  0  0
 14 15  2  0  0  0  0
 15 16  1  0  0  0  0
 16 17  1  0  0  0  0
 17 22  1  0  0  0  0
 17  9  2  0  0  0  0
 19 11  1  0  0  0  0
 20 13  1  0  0  0  0
 21 14  1  0  0  0  0
 23 24  1  0  0  0  0
 24 25  2  0  0  0  0
 24  5  1  0  0  0  0
 25 26  1  0  0  0  0
 27 28  1  0  0  0  0
 27 25  1  0  0  0  0
 28 29  1  0  0  0  0
 30 28  1  0  0  0  0
 31 33  1  0  0  0  0
 31 30  2  0  0  0  0
 32 31  1  0  0  0  0
 33 27  2  0  0  0  0
 34 33  1  0  0  0  0
 34 23  2  0  0  0  0
M  END
>  <minimizedAffinity>
-6.35209084

$$$$

 OpenBabel03242521353D

 34 38  0  0  0  0  0  0  0  0999 V2000
   38.8000   27.1320   43.4890 C   0  0  0  0  0  0  0  0  0  0  0  0
   38.8380   28.5030   43.1290 C   0  0  0  0  0  0  0  0  0  0  0  0
   38.2450   28.8650   41.9270 C   0  0  0  0  0  0  0  0  0  0  0  0
   37.6610   27.9190   41.1540 N   0  0  0  0  0  0  0  0  0  0  0  0
   37.6390   26.6110   41.5220 C   0  0  0  0  0  0  0  0  0  0  0  0
   38.2040   26.2400   42.6760 N   0  0  0  0  0  0  0  0  0  0  0  0
   39.2820   26.9360   44.4360 H   0  0  0  0  0  0  0  0  0  0  0  0
   39.3010   29.2690   43.7370 H   0  0  0  0  0  0  0  0  0  0  0  0
   37.0630   30.6380   40.7610 C   0  0  0  0  0  0  0  0  0  0  0  0
   38.2120   30.2420   41.4320 C   0  0  0  0  0  0  0  0  0  0  0  0
   39.2270   31.1490   41.5860 C   0  0  0  0  0  0  0  0  0  0  0  0
   39.1540   32.4420   41.1030 C   0  0  0  0  0  0  0  0  0  0  0  0
   40.0060   33.4910   41.1330 N   0  0  0  0  0  0  0  0  0  0  0  0
   39.4110   34.5360   40.4920 C   0  0  0  0  0  0  0  0  0  0  0  0
   38.1910   34.1240   40.0710 N   0  0  0  0  0  0  0  0  0  0  0  0
   38.0070   32.8400   40.4330 C   0  0  0  0  0  0  0  0  0  0  0  0
   36.9750   31.9440   40.2660 C   0  0  0  0  0  0  0  0  0  0  0  0
   36.2150   29.9640   40.6030 H   0  0  0  0  0  0  0  0  0  0  0  0
   40.1200   30.8310   42.1110 H   0  0  0  0  0  0  0  0  0  0  0  0
   40.9570   33.5290   41.5590 H   0  0  0  0  0  0  0  0  0  0  0  0
   39.7810   35.5380   40.3160 H   0  0  0  0  0  0  0  0  0  0  0  0
   36.0650   32.2260   39.7460 H   0  0  0  0  0  0  0  0  0  0  0  0
   36.8510   24.3220   41.0840 C   0  0  0  0  0  3  0  0  0  0  0  0
   36.9980   25.6260   40.6580 C   0  0  0  0  0  0  0  0  0  0  0  0
   36.5410   26.0110   39.4140 C   0  0  0  0  0  0  0  0  0  0  0  0
   36.6440   27.0310   39.0540 H   0  0  0  0  0  0  0  0  0  0  0  0
   35.9300   25.1010   38.5740 C   0  0  0  0  0  0  0  0  0  0  0  0
   35.3940   25.1600   37.3390 N   0  0  0  0  0  0  0  0  0  0  0  0
   35.3600   26.0300   36.7610 H   0  0  0  0  0  0  0  0  0  0  0  0
   34.9390   23.9710   37.0090 N   0  0  0  0  0  0  0  0  0  0  0  0
   35.1540   23.0730   38.0120 C   0  0  0  0  0  0  0  0  0  0  0  0
   34.8610   22.0120   37.9680 H   0  0  0  0  0  0  0  0  0  0  0  0
   35.7930   23.7990   39.0190 C   0  0  0  0  0  0  0  0  0  0  0  0
   36.2370   23.3730   40.2610 C   0  0  0  0  0  3  0  0  0  0  0  0
  1  7  1  0  0  0  0
  2  1  1  0  0  0  0
  2  8  1  0  0  0  0
  3  2  2  0  0  0  0
  4  5  2  0  0  0  0
  4  3  1  0  0  0  0
  5  6  1  0  0  0  0
  6  1  2  0  0  0  0
  9 10  1  0  0  0  0
 10 11  2  0  0  0  0
 10  3  1  0  0  0  0
 11 19  1  0  0  0  0
 12 13  1  0  0  0  0
 12 11  1  0  0  0  0
 13 20  1  0  0  0  0
 14 13  1  0  0  0  0
 15 16  1  0  0  0  0
 15 14  2  0  0  0  0
 16 12  2  0  0  0  0
 17 16  1  0  0  0  0
 17  9  2  0  0  0  0
 18  9  1  0  0  0  0
 21 14  1  0  0  0  0
 22 17  1  0  0  0  0
 24 23  1  0  0  0  0
 24  5  1  0  0  0  0
 25 24  2  0  0  0  0
 26 25  1  0  0  0  0
 27 33  2  0  0  0  0
 27 25  1  0  0  0  0
 28 27  1  0  0  0  0
 29 28  1  0  0  0  0
 30 28  1  0  0  0  0
 30 31  2  0  0  0  0
 31 33  1  0  0  0  0
 32 31  1  0  0  0  0
 33 34  1  0  0  0  0
 34 23  2  0  0  0  0
M  END
>  <minimizedAffinity>
-6.32881498

$$$$

 OpenBabel03242521353D

 34 38  0  0  0  0  0  0  0  0999 V2000
   35.4580   27.4240   35.9110 C   0  0  0  0  0  0  0  0  0  0  0  0
   36.1230   27.2130   37.1460 C   0  0  0  0  0  0  0  0  0  0  0  0
   35.5400   27.7480   38.2870 C   0  0  0  0  0  0  0  0  0  0  0  0
   34.3810   28.4410   38.1860 N   0  0  0  0  0  0  0  0  0  0  0  0
   33.7640   28.6300   36.9900 C   0  0  0  0  0  0  0  0  0  0  0  0
   34.3080   28.1220   35.8790 N   0  0  0  0  0  0  0  0  0  0  0  0
   35.9770   26.9760   35.0760 H   0  0  0  0  0  0  0  0  0  0  0  0
   37.0490   26.6620   37.2400 H   0  0  0  0  0  0  0  0  0  0  0  0
   36.6550   26.3690   39.9460 C   0  0  0  0  0  0  0  0  0  0  0  0
   36.1170   27.6070   39.6240 C   0  0  0  0  0  0  0  0  0  0  0  0
   36.1580   28.6040   40.5630 C   0  0  0  0  0  0  0  0  0  0  0  0
   36.7150   28.4280   41.8160 C   0  0  0  0  0  0  0  0  0  0  0  0
   36.8680   29.2440   42.8830 N   0  0  0  0  0  0  0  0  0  0  0  0
   37.4920   28.5370   43.8670 C   0  0  0  0  0  0  0  0  0  0  0  0
   37.7210   27.2860   43.3990 N   0  0  0  0  0  0  0  0  0  0  0  0
   37.2530   27.1920   42.1390 C   0  0  0  0  0  0  0  0  0  0  0  0
   37.2210   26.1760   41.2110 C   0  0  0  0  0  0  0  0  0  0  0  0
   36.6550   25.5290   39.2430 H   0  0  0  0  0  0  0  0  0  0  0  0
   35.7360   29.5680   40.3020 H   0  0  0  0  0  0  0  0  0  0  0  0
   36.5730   30.2390   42.9730 H   0  0  0  0  0  0  0  0  0  0  0  0
   37.7840   28.8490   44.8620 H   0  0  0  0  0  0  0  0  0  0  0  0
   37.6340   25.1980   41.4350 H   0  0  0  0  0  0  0  0  0  0  0  0
   32.0780   29.9030   35.7290 C   0  0  0  0  0  3  0  0  0  0  0  0
   32.5160   29.3820   36.9300 C   0  0  0  0  0  0  0  0  0  0  0  0
   31.7790   29.5660   38.0820 C   0  0  0  0  0  0  0  0  0  0  0  0
   32.1000   29.1670   39.0400 H   0  0  0  0  0  0  0  0  0  0  0  0
   30.5930   30.2740   38.0550 C   0  0  0  0  0  0  0  0  0  0  0  0
   29.6720   30.6180   38.9770 N   0  0  0  0  0  0  0  0  0  0  0  0
   29.7360   30.3590   39.9870 H   0  0  0  0  0  0  0  0  0  0  0  0
   28.7170   31.3100   38.3950 N   0  0  0  0  0  0  0  0  0  0  0  0
   28.9650   31.4540   37.0620 C   0  0  0  0  0  0  0  0  0  0  0  0
   28.3080   31.9970   36.3650 H   0  0  0  0  0  0  0  0  0  0  0  0
   30.1720   30.7880   36.8430 C   0  0  0  0  0  0  0  0  0  0  0  0
   30.8830   30.6250   35.6640 C   0  0  0  0  0  3  0  0  0  0  0  0
  1  2  1  0  0  0  0
  2  8  1  0  0  0  0
  2  3  2  0  0  0  0
  3 10  1  0  0  0  0
  4  3  1  0  0  0  0
  5  4  2  0  0  0  0
  6  1  2  0  0  0  0
  6  5  1  0  0  0  0
  7  1  1  0  0  0  0
  9 17  1  0  0  0  0
 10  9  2  0  0  0  0
 10 11  1  0  0  0  0
 11 12  2  0  0  0  0
 12 16  1  0  0  0  0
 12 13  1  0  0  0  0
 13 20  1  0  0  0  0
 13 14  1  0  0  0  0
 14 21  1  0  0  0  0
 15 14  2  0  0  0  0
 16 15  1  0  0  0  0
 17 22  1  0  0  0  0
 17 16  2  0  0  0  0
 18  9  1  0  0  0  0
 19 11  1  0  0  0  0
 23 24  1  0  0  0  0
 24  5  1  0  0  0  0
 24 25  2  0  0  0  0
 25 26  1  0  0  0  0
 27 25  1  0  0  0  0
 27 28  1  0  0  0  0
 28 29  1  0  0  0  0
 30 28  1  0  0  0  0
 31 30  2  0  0  0  0
 32 31  1  0  0  0  0
 33 31  1  0  0  0  0
 33 27  2  0  0  0  0
 34 23  2  0  0  0  0
 34 33  1  0  0  0  0
M  END
>  <minimizedAffinity>
-6.31836271

$$$$

 OpenBabel03242521353D

 34 38  0  0  0  0  0  0  0  0999 V2000
   38.4500   34.5240   40.3690 C   0  0  0  0  0  0  0  0  0  0  0  0
   37.6350   33.5160   39.7950 C   0  0  0  0  0  0  0  0  0  0  0  0
   38.2630   32.5470   39.0240 C   0  0  0  0  0  0  0  0  0  0  0  0
   39.6050   32.5940   38.8490 N   0  0  0  0  0  0  0  0  0  0  0  0
   40.3640   33.5710   39.4100 C   0  0  0  0  0  0  0  0  0  0  0  0
   39.7790   34.5150   40.1560 N   0  0  0  0  0  0  0  0  0  0  0  0
   37.8840   35.2370   40.9510 H   0  0  0  0  0  0  0  0  0  0  0  0
   36.5620   33.4660   39.9270 H   0  0  0  0  0  0  0  0  0  0  0  0
   36.6420   30.7420   39.1550 C   0  0  0  0  0  0  0  0  0  0  0  0
   37.5450   31.4500   38.3730 C   0  0  0  0  0  0  0  0  0  0  0  0
   37.7050   31.0850   37.0630 C   0  0  0  0  0  0  0  0  0  0  0  0
   37.0050   30.0420   36.4870 C   0  0  0  0  0  0  0  0  0  0  0  0
   36.9930   29.5090   35.2450 N   0  0  0  0  0  0  0  0  0  0  0  0
   36.1000   28.4790   35.2360 C   0  0  0  0  0  0  0  0  0  0  0  0
   35.5640   28.3840   36.4760 N   0  0  0  0  0  0  0  0  0  0  0  0
   36.1030   29.3330   37.2660 C   0  0  0  0  0  0  0  0  0  0  0  0
   35.9270   29.6830   38.5850 C   0  0  0  0  0  0  0  0  0  0  0  0
   36.4660   30.9810   40.2090 H   0  0  0  0  0  0  0  0  0  0  0  0
   38.4110   31.6440   36.4600 H   0  0  0  0  0  0  0  0  0  0  0  0
   37.5540   29.8050   34.4180 H   0  0  0  0  0  0  0  0  0  0  0  0
   35.8180   27.8180   34.4260 H   0  0  0  0  0  0  0  0  0  0  0  0
   35.2280   29.1470   39.2200 H   0  0  0  0  0  0  0  0  0  0  0  0
   42.6550   33.9740   40.2090 C   0  0  0  0  0  3  0  0  0  0  0  0
   41.8060   33.5820   39.1950 C   0  0  0  0  0  0  0  0  0  0  0  0
   42.3120   33.1960   37.9700 C   0  0  0  0  0  0  0  0  0  0  0  0
   41.6650   32.8830   37.1540 H   0  0  0  0  0  0  0  0  0  0  0  0
   43.6730   33.1950   37.7370 C   0  0  0  0  0  0  0  0  0  0  0  0
   44.4560   32.8850   36.6850 N   0  0  0  0  0  0  0  0  0  0  0  0
   44.0880   32.5520   35.7650 H   0  0  0  0  0  0  0  0  0  0  0  0
   45.7150   33.0680   37.0150 N   0  0  0  0  0  0  0  0  0  0  0  0
   45.8210   33.5090   38.3010 C   0  0  0  0  0  0  0  0  0  0  0  0
   46.7750   33.7350   38.8030 H   0  0  0  0  0  0  0  0  0  0  0  0
   44.5070   33.5920   38.7660 C   0  0  0  0  0  0  0  0  0  0  0  0
   44.0390   33.9860   40.0100 C   0  0  0  0  0  3  0  0  0  0  0  0
  1  7  1  0  0  0  0
  2  8  1  0  0  0  0
  2  1  2  0  0  0  0
  3  2  1  0  0  0  0
  4  3  2  0  0  0  0
  4  5  1  0  0  0  0
  5  6  2  0  0  0  0
  6  1  1  0  0  0  0
  9 18  1  0  0  0  0
 10  3  1  0  0  0  0
 10  9  2  0  0  0  0
 11 10  1  0  0  0  0
 12 11  2  0  0  0  0
 12 16  1  0  0  0  0
 13 12  1  0  0  0  0
 14 13  1  0  0  0  0
 14 15  2  0  0  0  0
 15 16  1  0  0  0  0
 16 17  2  0  0  0  0
 17  9  1  0  0  0  0
 17 22  1  0  0  0  0
 19 11  1  0  0  0  0
 20 13  1  0  0  0  0
 21 14  1  0  0  0  0
 24  5  1  0  0  0  0
 24 23  2  0  0  0  0
 25 24  1  0  0  0  0
 26 25  1  0  0  0  0
 27 25  2  0  0  0  0
 27 33  1  0  0  0  0
 28 30  1  0  0  0  0
 28 27  1  0  0  0  0
 29 28  1  0  0  0  0
 30 31  2  0  0  0  0
 31 33  1  0  0  0  0
 31 32  1  0  0  0  0
 33 34  2  0  0  0  0
 34 23  1  0  0  0  0
M  END
>  <minimizedAffinity>
-6.08565331

$$$$

 OpenBabel03242521353D

 34 38  0  0  0  0  0  0  0  0999 V2000
   34.3490   26.7900   36.5520 C   0  0  0  0  0  0  0  0  0  0  0  0
   35.1650   27.0050   37.6920 C   0  0  0  0  0  0  0  0  0  0  0  0
   34.9200   28.1430   38.4500 C   0  0  0  0  0  0  0  0  0  0  0  0
   33.9320   28.9930   38.0830 N   0  0  0  0  0  0  0  0  0  0  0  0
   33.1640   28.7650   36.9850 C   0  0  0  0  0  0  0  0  0  0  0  0
   33.3830   27.6750   36.2420 N   0  0  0  0  0  0  0  0  0  0  0  0
   34.6050   25.8850   36.0210 H   0  0  0  0  0  0  0  0  0  0  0  0
   35.9570   26.3340   37.9960 H   0  0  0  0  0  0  0  0  0  0  0  0
   35.6440   29.8140   40.0570 C   0  0  0  0  0  0  0  0  0  0  0  0
   35.6850   28.4880   39.6490 C   0  0  0  0  0  0  0  0  0  0  0  0
   36.4260   27.5990   40.3820 C   0  0  0  0  0  0  0  0  0  0  0  0
   37.1330   27.9680   41.5100 C   0  0  0  0  0  0  0  0  0  0  0  0
   37.9160   27.2860   42.3760 N   0  0  0  0  0  0  0  0  0  0  0  0
   38.3660   28.1620   43.3180 C   0  0  0  0  0  0  0  0  0  0  0  0
   37.8560   29.3830   43.0270 N   0  0  0  0  0  0  0  0  0  0  0  0
   37.0930   29.2930   41.9190 C   0  0  0  0  0  0  0  0  0  0  0  0
   36.3550   30.2020   41.1970 C   0  0  0  0  0  0  0  0  0  0  0  0
   35.0710   30.5760   39.5170 H   0  0  0  0  0  0  0  0  0  0  0  0
   36.4510   26.5650   40.0560 H   0  0  0  0  0  0  0  0  0  0  0  0
   38.1560   26.2710   42.3570 H   0  0  0  0  0  0  0  0  0  0  0  0
   39.0120   27.9890   44.1690 H   0  0  0  0  0  0  0  0  0  0  0  0
   36.3060   31.2450   41.4920 H   0  0  0  0  0  0  0  0  0  0  0  0
   31.1990   30.1190   37.5800 C   0  0  0  0  0  3  0  0  0  0  0  0
   32.1110   29.7080   36.6290 C   0  0  0  0  0  0  0  0  0  0  0  0
   32.0360   30.1850   35.3360 C   0  0  0  0  0  0  0  0  0  0  0  0
   32.7410   29.8780   34.5690 H   0  0  0  0  0  0  0  0  0  0  0  0
   31.0490   31.0790   34.9700 C   0  0  0  0  0  0  0  0  0  0  0  0
   30.7160   31.7100   33.8270 N   0  0  0  0  0  0  0  0  0  0  0  0
   31.2350   31.5930   32.9270 H   0  0  0  0  0  0  0  0  0  0  0  0
   29.6640   32.4690   34.0430 N   0  0  0  0  0  0  0  0  0  0  0  0
   29.2550   32.3730   35.3400 C   0  0  0  0  0  0  0  0  0  0  0  0
   28.3920   32.9150   35.7590 H   0  0  0  0  0  0  0  0  0  0  0  0
   30.1450   31.4790   35.9370 C   0  0  0  0  0  0  0  0  0  0  0  0
   30.1860   31.0240   37.2460 C   0  0  0  0  0  3  0  0  0  0  0  0
  1  2  1  0  0  0  0
  2  8  1  0  0  0  0
  2  3  2  0  0  0  0
  3 10  1  0  0  0  0
  4  3  1  0  0  0  0
  5  4  2  0  0  0  0
  6  1  2  0  0  0  0
  6  5  1  0  0  0  0
  7  1  1  0  0  0  0
  9 17  1  0  0  0  0
 10  9  2  0  0  0  0
 10 11  1  0  0  0  0
 11 12  2  0  0  0  0
 12 16  1  0  0  0  0
 12 13  1  0  0  0  0
 13 14  1  0  0  0  0
 14 21  1  0  0  0  0
 15 14  2  0  0  0  0
 16 15  1  0  0  0  0
 17 22  1  0  0  0  0
 17 16  2  0  0  0  0
 18  9  1  0  0  0  0
 19 11  1  0  0  0  0
 20 13  1  0  0  0  0
 24  5  1  0  0  0  0
 24 23  2  0  0  0  0
 25 24  1  0  0  0  0
 26 25  1  0  0  0  0
 27 25  2  0  0  0  0
 27 33  1  0  0  0  0
 28 30  1  0  0  0  0
 28 27  1  0  0  0  0
 29 28  1  0  0  0  0
 30 31  2  0  0  0  0
 31 32  1  0  0  0  0
 31 33  1  0  0  0  0
 33 34  2  0  0  0  0
 34 23  1  0  0  0  0
M  END
>  <minimizedAffinity>
-6.04537582

$$$$

 OpenBabel03242521353D

 34 38  0  0  0  0  0  0  0  0999 V2000
   35.7540   27.8960   35.9800 C   0  0  0  0  0  0  0  0  0  0  0  0
   34.4870   28.5120   35.8210 C   0  0  0  0  0  0  0  0  0  0  0  0
   33.7990   28.8680   36.9730 C   0  0  0  0  0  0  0  0  0  0  0  0
   34.3480   28.6220   38.1860 N   0  0  0  0  0  0  0  0  0  0  0  0
   35.5650   28.0300   38.3120 C   0  0  0  0  0  0  0  0  0  0  0  0
   36.2450   27.6790   37.2150 N   0  0  0  0  0  0  0  0  0  0  0  0
   36.2210   27.6520   35.0370 H   0  0  0  0  0  0  0  0  0  0  0  0
   34.0370   28.7150   34.8580 H   0  0  0  0  0  0  0  0  0  0  0  0
   31.8250   29.6190   38.1730 C   0  0  0  0  0  0  0  0  0  0  0  0
   32.4830   29.5090   36.9550 C   0  0  0  0  0  0  0  0  0  0  0  0
   31.8710   29.9990   35.8320 C   0  0  0  0  0  0  0  0  0  0  0  0
   30.6270   30.5990   35.8610 C   0  0  0  0  0  0  0  0  0  0  0  0
   29.8410   31.1450   34.9070 N   0  0  0  0  0  0  0  0  0  0  0  0
   28.7010   31.5940   35.5050 C   0  0  0  0  0  0  0  0  0  0  0  0
   28.7930   31.3220   36.8290 N   0  0  0  0  0  0  0  0  0  0  0  0
   29.9670   30.7100   37.0760 C   0  0  0  0  0  0  0  0  0  0  0  0
   30.5640   30.2240   38.2170 C   0  0  0  0  0  0  0  0  0  0  0  0
   32.2570   29.2490   39.1080 H   0  0  0  0  0  0  0  0  0  0  0  0
   32.3930   29.9090   34.8860 H   0  0  0  0  0  0  0  0  0  0  0  0
   30.0370   31.2250   33.8860 H   0  0  0  0  0  0  0  0  0  0  0  0
   27.8410   32.0870   35.0700 H   0  0  0  0  0  0  0  0  0  0  0  0
   30.0720   30.2960   39.1820 H   0  0  0  0  0  0  0  0  0  0  0  0
   36.5900   26.5320   39.9720 C   0  0  0  0  0  3  0  0  0  0  0  0
   36.1170   27.7850   39.6390 C   0  0  0  0  0  0  0  0  0  0  0  0
   36.1620   28.8150   40.5560 C   0  0  0  0  0  0  0  0  0  0  0  0
   35.7970   29.8110   40.3190 H   0  0  0  0  0  0  0  0  0  0  0  0
   36.6800   28.6130   41.8200 C   0  0  0  0  0  0  0  0  0  0  0  0
   36.8590   29.3870   42.9080 N   0  0  0  0  0  0  0  0  0  0  0  0
   36.5920   30.3970   42.9520 H   0  0  0  0  0  0  0  0  0  0  0  0
   37.4090   28.6700   43.8630 N   0  0  0  0  0  0  0  0  0  0  0  0
   37.6180   27.3880   43.4480 C   0  0  0  0  0  0  0  0  0  0  0  0
   38.0660   26.6000   44.0730 H   0  0  0  0  0  0  0  0  0  0  0  0
   37.1490   27.3500   42.1340 C   0  0  0  0  0  0  0  0  0  0  0  0
   37.1220   26.2890   41.2420 C   0  0  0  0  0  3  0  0  0  0  0  0
  1  6  1  0  0  0  0
  2  1  2  0  0  0  0
  2  3  1  0  0  0  0
  3  4  2  0  0  0  0
  4  5  1  0  0  0  0
  5 24  1  0  0  0  0
  6  5  2  0  0  0  0
  7  1  1  0  0  0  0
  8  2  1  0  0  0  0
  9 17  1  0  0  0  0
  9 18  1  0  0  0  0
 10  3  1  0  0  0  0
 10  9  2  0  0  0  0
 11 12  2  0  0  0  0
 11 10  1  0  0  0  0
 12 16  1  0  0  0  0
 13 14  1  0  0  0  0
 13 12  1  0  0  0  0
 14 15  2  0  0  0  0
 15 16  1  0  0  0  0
 16 17  2  0  0  0  0
 17 22  1  0  0  0  0
 19 11  1  0  0  0  0
 20 13  1  0  0  0  0
 21 14  1  0  0  0  0
 23 34  1  0  0  0  0
 24 23  2  0  0  0  0
 24 25  1  0  0  0  0
 25 27  2  0  0  0  0
 26 25  1  0  0  0  0
 27 33  1  0  0  0  0
 27 28  1  0  0  0  0
 28 29  1  0  0  0  0
 28 30  1  0  0  0  0
 31 30  2  0  0  0  0
 31 32  1  0  0  0  0
 33 31  1  0  0  0  0
 34 33  2  0  0  0  0
M  END
>  <minimizedAffinity>
-5.98614979

$$$$

 OpenBabel03242521353D

 34 38  0  0  0  0  0  0  0  0999 V2000
   36.6000   30.0030   41.5390 C   0  0  0  0  0  0  0  0  0  0  0  0
   35.8030   29.4470   40.5070 C   0  0  0  0  0  0  0  0  0  0  0  0
   36.1050   29.8090   39.2000 C   0  0  0  0  0  0  0  0  0  0  0  0
   37.1290   30.6630   38.9600 N   0  0  0  0  0  0  0  0  0  0  0  0
   37.8770   31.1820   39.9690 C   0  0  0  0  0  0  0  0  0  0  0  0
   37.6030   30.8470   41.2340 N   0  0  0  0  0  0  0  0  0  0  0  0
   36.2990   29.6710   42.5230 H   0  0  0  0  0  0  0  0  0  0  0  0
   34.9830   28.7640   40.6840 H   0  0  0  0  0  0  0  0  0  0  0  0
   36.0090   29.3850   36.8110 C   0  0  0  0  0  0  0  0  0  0  0  0
   35.3660   29.3120   38.0390 C   0  0  0  0  0  0  0  0  0  0  0  0
   34.1020   28.7890   38.0870 C   0  0  0  0  0  0  0  0  0  0  0  0
   33.4400   28.3290   36.9640 C   0  0  0  0  0  0  0  0  0  0  0  0
   32.2180   27.7840   36.7690 N   0  0  0  0  0  0  0  0  0  0  0  0
   32.0850   27.5150   35.4390 C   0  0  0  0  0  0  0  0  0  0  0  0
   33.2290   27.8960   34.8220 N   0  0  0  0  0  0  0  0  0  0  0  0
   34.0800   28.4010   35.7360 C   0  0  0  0  0  0  0  0  0  0  0  0
   35.3510   28.9240   35.6650 C   0  0  0  0  0  0  0  0  0  0  0  0
   37.0200   29.7920   36.7010 H   0  0  0  0  0  0  0  0  0  0  0  0
   33.6080   28.7360   39.0510 H   0  0  0  0  0  0  0  0  0  0  0  0
   31.4830   27.5910   37.4820 H   0  0  0  0  0  0  0  0  0  0  0  0
   31.2520   27.0780   34.9040 H   0  0  0  0  0  0  0  0  0  0  0  0
   35.8770   28.9930   34.7190 H   0  0  0  0  0  0  0  0  0  0  0  0
   39.3440   33.0610   40.5760 C   0  0  0  0  0  3  0  0  0  0  0  0
   38.9700   32.0980   39.6620 C   0  0  0  0  0  0  0  0  0  0  0  0
   39.6250   31.9910   38.4520 C   0  0  0  0  0  0  0  0  0  0  0  0
   39.3510   31.2410   37.7150 H   0  0  0  0  0  0  0  0  0  0  0  0
   40.6640   32.8440   38.1350 C   0  0  0  0  0  0  0  0  0  0  0  0
   41.4780   32.9930   37.0710 N   0  0  0  0  0  0  0  0  0  0  0  0
   41.4300   32.3960   36.2140 H   0  0  0  0  0  0  0  0  0  0  0  0
   42.3100   33.9850   37.3010 N   0  0  0  0  0  0  0  0  0  0  0  0
   42.0820   34.5360   38.5280 C   0  0  0  0  0  0  0  0  0  0  0  0
   42.6520   35.3820   38.9430 H   0  0  0  0  0  0  0  0  0  0  0  0
   41.0230   33.8030   39.0640 C   0  0  0  0  0  0  0  0  0  0  0  0
   40.3900   33.9420   40.2900 C   0  0  0  0  0  3  0  0  0  0  0  0
  1  7  1  0  0  0  0
  2  8  1  0  0  0  0
  2  1  2  0  0  0  0
  3  2  1  0  0  0  0
  4  3  2  0  0  0  0
  4  5  1  0  0  0  0
  5  6  2  0  0  0  0
  6  1  1  0  0  0  0
  9 10  1  0  0  0  0
 10 11  2  0  0  0  0
 10  3  1  0  0  0  0
 11 19  1  0  0  0  0
 12 11  1  0  0  0  0
 13 12  1  0  0  0  0
 13 20  1  0  0  0  0
 14 13  1  0  0  0  0
 15 14  2  0  0  0  0
 15 16  1  0  0  0  0
 16 12  2  0  0  0  0
 17 16  1  0  0  0  0
 17  9  2  0  0  0  0
 18  9  1  0  0  0  0
 21 14  1  0  0  0  0
 22 17  1  0  0  0  0
 24  5  1  0  0  0  0
 24 23  2  0  0  0  0
 25 24  1  0  0  0  0
 26 25  1  0  0  0  0
 27 25  2  0  0  0  0
 27 33  1  0  0  0  0
 28 30  1  0  0  0  0
 28 27  1  0  0  0  0
 29 28  1  0  0  0  0
 30 31  2  0  0  0  0
 31 32  1  0  0  0  0
 31 33  1  0  0  0  0
 33 34  2  0  0  0  0
 34 23  1  0  0  0  0
M  END
>  <minimizedAffinity>
-5.96784687

$$$$

 OpenBabel03242521353D

 34 38  0  0  0  0  0  0  0  0999 V2000
   37.6970   28.3350   43.6650 C   0  0  0  0  0  0  0  0  0  0  0  0
   38.2970   29.4280   42.9890 C   0  0  0  0  0  0  0  0  0  0  0  0
   38.5980   29.2610   41.6430 C   0  0  0  0  0  0  0  0  0  0  0  0
   38.3130   28.0860   41.0330 N   0  0  0  0  0  0  0  0  0  0  0  0
   37.7370   27.0540   41.7040 C   0  0  0  0  0  0  0  0  0  0  0  0
   37.4400   27.1930   43.0000 N   0  0  0  0  0  0  0  0  0  0  0  0
   37.4970   28.5480   44.7050 H   0  0  0  0  0  0  0  0  0  0  0  0
   38.5300   30.3720   43.4640 H   0  0  0  0  0  0  0  0  0  0  0  0
   39.4870   31.5130   41.4510 C   0  0  0  0  0  0  0  0  0  0  0  0
   39.2190   30.3030   40.8250 C   0  0  0  0  0  0  0  0  0  0  0  0
   39.5450   30.1620   39.5020 C   0  0  0  0  0  0  0  0  0  0  0  0
   40.1320   31.1740   38.7660 C   0  0  0  0  0  0  0  0  0  0  0  0
   40.5370   31.2670   37.4790 N   0  0  0  0  0  0  0  0  0  0  0  0
   41.0530   32.5140   37.2890 C   0  0  0  0  0  0  0  0  0  0  0  0
   40.9640   33.1840   38.4630 N   0  0  0  0  0  0  0  0  0  0  0  0
   40.4010   32.3830   39.3890 C   0  0  0  0  0  0  0  0  0  0  0  0
   40.0810   32.5460   40.7170 C   0  0  0  0  0  0  0  0  0  0  0  0
   39.2510   31.6920   42.5050 H   0  0  0  0  0  0  0  0  0  0  0  0
   39.3320   29.2140   39.0220 H   0  0  0  0  0  0  0  0  0  0  0  0
   40.4780   30.5370   36.7370 H   0  0  0  0  0  0  0  0  0  0  0  0
   41.4740   32.9570   36.3950 H   0  0  0  0  0  0  0  0  0  0  0  0
   40.2790   33.4810   41.2320 H   0  0  0  0  0  0  0  0  0  0  0  0
   36.5830   25.8000   39.9300 C   0  0  0  0  0  3  0  0  0  0  0  0
   37.4490   25.8070   41.0040 C   0  0  0  0  0  0  0  0  0  0  0  0
   38.0490   24.6380   41.4270 C   0  0  0  0  0  0  0  0  0  0  0  0
   38.7350   24.6160   42.2690 H   0  0  0  0  0  0  0  0  0  0  0  0
   37.7950   23.4430   40.7840 C   0  0  0  0  0  0  0  0  0  0  0  0
   38.2090   22.1700   40.9470 N   0  0  0  0  0  0  0  0  0  0  0  0
   38.8780   21.8680   41.6910 H   0  0  0  0  0  0  0  0  0  0  0  0
   37.6410   21.4120   40.0350 N   0  0  0  0  0  0  0  0  0  0  0  0
   36.8260   22.1500   39.2280 C   0  0  0  0  0  0  0  0  0  0  0  0
   36.2420   21.7350   38.3920 H   0  0  0  0  0  0  0  0  0  0  0  0
   36.9250   23.4560   39.7090 C   0  0  0  0  0  0  0  0  0  0  0  0
   36.3020   24.6080   39.2550 C   0  0  0  0  0  3  0  0  0  0  0  0
  1  7  1  0  0  0  0
  2  8  1  0  0  0  0
  2  1  2  0  0  0  0
  3  2  1  0  0  0  0
  4  3  2  0  0  0  0
  4  5  1  0  0  0  0
  5  6  2  0  0  0  0
  6  1  1  0  0  0  0
  9 18  1  0  0  0  0
 10  9  1  0  0  0  0
 10  3  1  0  0  0  0
 11 10  2  0  0  0  0
 12 16  2  0  0  0  0
 12 11  1  0  0  0  0
 13 12  1  0  0  0  0
 14 13  1  0  0  0  0
 14 15  2  0  0  0  0
 15 16  1  0  0  0  0
 16 17  1  0  0  0  0
 17 22  1  0  0  0  0
 17  9  2  0  0  0  0
 19 11  1  0  0  0  0
 20 13  1  0  0  0  0
 21 14  1  0  0  0  0
 23 24  1  0  0  0  0
 24 25  2  0  0  0  0
 24  5  1  0  0  0  0
 25 26  1  0  0  0  0
 27 28  1  0  0  0  0
 27 25  1  0  0  0  0
 28 29  1  0  0  0  0
 30 28  1  0  0  0  0
 31 33  1  0  0  0  0
 31 30  2  0  0  0  0
 32 31  1  0  0  0  0
 33 27  2  0  0  0  0
 34 33  1  0  0  0  0
 34 23  2  0  0  0  0
M  END
>  <minimizedAffinity>
-5.96420002

$$$$
