
 OpenBabel03242512343D

 27 29  0  0  1  0  0  0  0  0999 V2000
   42.8560   34.7230   39.6660 C   0  0  0  0  0  0  0  0  0  0  0  0
   43.0820   33.4510   39.4750 C   0  0  0  0  0  0  0  0  0  0  0  0
   43.7780   32.6950   40.4600 N   0  0  0  0  0  0  0  0  0  0  0  0
   44.7640   31.6740   40.7240 C   0  0  0  0  0  0  0  0  0  0  0  0
   45.4930   30.8750   40.0420 O   0  0  0  0  0  0  0  0  0  0  0  0
   44.6130   31.9050   42.1650 C   0  0  2  0  0  3  0  0  0  0  0  0
   43.5290   32.8880   41.9000 C   0  0  1  0  0  3  0  0  0  0  0  0
   43.8810   34.6070   42.2290 S   0  0  0  0  0  0  0  0  0  0  0  0
   43.2550   35.5420   40.8310 C   0  0  0  0  0  3  0  0  0  0  0  0
   42.3080   36.0470   41.1870 H   0  0  0  0  0  0  0  0  0  0  0  0
   45.8240   32.4210   42.8760 C   0  0  0  0  0  0  0  0  0  0  0  0
   46.6380   33.0380   42.1220 O   0  0  0  0  0  0  0  0  0  0  0  0
   45.9590   32.1870   44.2770 C   0  0  0  0  0  0  0  0  0  0  0  0
   46.2080   33.3430   45.0150 C   0  0  0  0  0  0  0  0  0  0  0  0
   46.3570   33.2110   46.4080 C   0  0  0  0  0  0  0  0  0  0  0  0
   46.2460   31.9540   46.9350 N   0  0  0  0  0  0  0  0  0  0  0  0
   46.0050   30.8700   46.1850 C   0  0  0  0  0  0  0  0  0  0  0  0
   45.8620   30.9900   44.8510 N   0  0  0  0  0  0  0  0  0  0  0  0
   46.2950   34.3360   44.5890 H   0  0  0  0  0  0  0  0  0  0  0  0
   46.5510   34.0740   47.0310 H   0  0  0  0  0  0  0  0  0  0  0  0
   45.9420   29.9350   46.7290 H   0  0  0  0  0  0  0  0  0  0  0  0
   42.1150   35.3960   38.5690 C   0  0  0  0  0  2  0  0  0  0  0  0
   41.9680   36.4620   38.8340 H   0  0  0  0  0  0  0  0  0  0  0  0
   42.6370   32.7470   38.2640 C   0  0  0  0  0  0  0  0  0  0  0  0
   41.5140   32.2370   38.0300 O   0  0  0  0  0  0  0  0  0  0  0  0
   43.4390   32.5410   37.1570 O   0  0  0  0  0  0  0  0  0  0  0  0
   43.0990   32.6400   36.2130 H   0  0  0  0  0  0  0  0  0  0  0  0
  1  9  1  0  0  0  0
  2  1  2  0  0  0  0
  2  3  1  0  0  0  0
  3  4  1  0  0  0  0
  3  7  1  0  0  0  0
  4  6  1  0  0  0  0
  5  4  2  0  0  0  0
  6 11  1  6  0  0  0
  7  6  1  0  0  0  0
  7  8  1  1  0  0  0
  9 10  1  0  0  0  0
  9  8  1  0  0  0  0
 11 13  1  0  0  0  0
 12 11  2  0  0  0  0
 13 18  2  0  0  0  0
 13 14  1  0  0  0  0
 14 15  2  0  0  0  0
 15 16  1  0  0  0  0
 15 20  1  0  0  0  0
 17 21  1  0  0  0  0
 17 16  2  0  0  0  0
 18 17  1  0  0  0  0
 19 14  1  0  0  0  0
 22 23  1  0  0  0  0
 22  1  1  0  0  0  0
 24  2  1  0  0  0  0
 25 24  2  0  0  0  0
 26 24  1  0  0  0  0
 27 26  1  0  0  0  0
M  END
>  <minimizedAffinity>
-4.01382685

>  <minimizedRMSD>
2.77710438

$$$$
