
 OpenBabel03242518343D

 42 46  0  0  1  0  0  0  0  0999 V2000
   46.1120   32.8360   36.6060 C   0  0  2  0  0  0  0  0  0  0  0  0
   44.9170   31.9910   36.7910 C   0  0  0  0  0  0  0  0  0  0  0  0
   46.2000   31.3350   36.4080 C   0  0  1  0  0  0  0  0  0  0  0  0
   46.1850   33.4740   35.7140 H   0  0  0  0  0  0  0  0  0  0  0  0
   44.5960   31.8960   37.8620 H   0  0  0  0  0  0  0  0  0  0  0  0
   44.0580   32.0710   36.1270 H   0  0  0  0  0  0  0  0  0  0  0  0
   46.6660   30.7450   37.2360 H   0  0  0  0  0  0  0  0  0  0  0  0
   47.3630   33.6820   39.8580 C   0  0  0  0  0  0  0  0  0  0  0  0
   48.2790   34.3570   39.0500 C   0  0  0  0  0  0  0  0  0  0  0  0
   47.9560   34.1440   37.7230 C   0  0  0  0  0  0  0  0  0  0  0  0
   46.8470   33.3420   37.7990 C   0  0  0  0  0  0  0  0  0  0  0  0
   46.4970   33.0680   39.0390 O   0  0  0  0  0  0  0  0  0  0  0  0
   49.0890   34.9360   39.4630 H   0  0  0  0  0  0  0  0  0  0  0  0
   48.4700   34.5290   36.8540 H   0  0  0  0  0  0  0  0  0  0  0  0
   47.2500   33.5820   41.2540 O   0  0  0  0  0  0  0  0  0  0  0  0
   47.3400   34.7510   42.0470 C   0  0  0  0  0  0  0  0  0  0  0  0
   48.1960   35.5980   41.6850 O   0  0  0  0  0  0  0  0  0  0  0  0
   46.4510   34.8220   43.1550 C   0  0  0  0  0  0  0  0  0  0  0  0
   45.5630   35.8700   43.1190 C   0  0  0  0  0  0  0  0  0  0  0  0
   44.6600   36.0060   44.1710 C   0  0  0  0  0  0  0  0  0  0  0  0
   44.6970   35.1070   45.1690 N   0  0  0  0  0  0  0  0  0  0  0  0
   45.5860   34.0920   45.1660 C   0  0  0  0  0  0  0  0  0  0  0  0
   46.4500   33.9640   44.1580 N   0  0  0  0  0  0  0  0  0  0  0  0
   45.5130   36.5990   42.3340 H   0  0  0  0  0  0  0  0  0  0  0  0
   43.9380   36.8300   44.1740 H   0  0  0  0  0  0  0  0  0  0  0  0
   45.6550   33.3400   45.9510 H   0  0  0  0  0  0  0  0  0  0  0  0
   46.4870   30.8380   35.0480 C   0  0  0  0  0  2  0  0  0  0  0  0
   47.8250   30.3030   34.7670 C   0  0  0  0  0  0  0  0  0  0  0  0
   48.5160   31.0570   33.8690 C   0  0  0  0  0  0  0  0  0  0  0  0
   49.8710   30.7460   33.4590 N   0  0  0  0  0  0  0  0  0  0  0  0
   50.7520   30.4950   32.3560 C   0  0  0  0  0  0  0  0  0  0  0  0
   50.7240   30.8490   31.1370 O   0  0  0  0  0  0  0  0  0  0  0  0
   51.5760   29.7050   33.3450 C   0  0  0  0  0  3  0  0  0  0  0  0
   52.6460   29.9500   33.2290 H   0  0  0  0  0  0  0  0  0  0  0  0
   50.9750   30.5630   34.4360 C   0  0  2  0  0  3  0  0  0  0  0  0
   50.2220   29.6640   35.8200 S   0  0  0  0  0  0  0  0  0  0  0  0
   48.6030   29.1070   35.1680 C   0  0  0  0  0  3  0  0  0  0  0  0
   48.0490   28.4820   35.8470 H   0  0  0  0  0  0  0  0  0  0  0  0
   47.9270   32.2740   33.2710 C   0  0  0  0  0  0  0  0  0  0  0  0
   48.5200   33.1560   32.5500 O   0  0  0  0  0  0  0  0  0  0  0  0
   47.0430   33.2440   32.9100 O   0  0  0  0  0  0  0  0  0  0  0  0
   46.4590   33.6860   33.6400 H   0  0  0  0  0  0  0  0  0  0  0  0
  1  4  1  6  0  0  0
  1  2  1  0  0  0  0
  1 11  1  0  0  0  0
  2  5  1  0  0  0  0
  3  1  1  0  0  0  0
  3  2  1  0  0  0  0
  3  7  1  1  0  0  0
  6  2  1  0  0  0  0
  8 15  1  0  0  0  0
  9 13  1  0  0  0  0
  9  8  2  0  0  0  0
 10 11  2  0  0  0  0
 10  9  1  0  0  0  0
 11 12  1  0  0  0  0
 12  8  1  0  0  0  0
 14 10  1  0  0  0  0
 15 16  1  0  0  0  0
 16 18  1  0  0  0  0
 17 16  2  0  0  0  0
 18 23  1  0  0  0  0
 19 18  2  0  0  0  0
 19 20  1  0  0  0  0
 20 25  1  0  0  0  0
 20 21  2  0  0  0  0
 22 21  1  0  0  0  0
 22 26  1  0  0  0  0
 23 22  2  0  0  0  0
 24 19  1  0  0  0  0
 27  3  1  0  0  0  0
 28 27  1  0  0  0  0
 28 37  1  0  0  0  0
 29 28  2  0  0  0  0
 30 29  1  0  0  0  0
 30 35  1  0  0  0  0
 31 33  1  0  0  0  0
 31 30  1  0  0  0  0
 32 31  2  0  0  0  0
 34 33  1  0  0  0  0
 35 33  1  6  0  0  0
 35 36  1  0  0  0  0
 37 36  1  0  0  0  0
 37 38  1  0  0  0  0
 39 29  1  0  0  0  0
 40 39  2  0  0  0  0
 41 39  1  0  0  0  0
 41 42  1  0  0  0  0
M  END
>  <minimizedAffinity>
-5.98475933

>  <minimizedRMSD>
2.15809584

$$$$
