
 OpenBabel03242520463D

 29 31  0  0  1  0  0  0  0  0999 V2000
   37.3570   32.0340   39.2640 C   0  0  0  0  0  0  0  0  0  0  0  0
   38.1880   31.9250   40.2870 C   0  0  0  0  0  0  0  0  0  0  0  0
   38.2640   30.6840   40.9780 N   0  0  0  0  0  0  0  0  0  0  0  0
   39.1140   29.6400   41.5200 C   0  0  0  0  0  0  0  0  0  0  0  0
   40.3420   29.5770   41.8670 O   0  0  0  0  0  0  0  0  0  0  0  0
   37.9450   28.6820   41.4990 C   0  0  2  0  0  3  0  0  0  0  0  0
   37.0960   29.9350   41.4640 C   0  0  2  0  0  3  0  0  0  0  0  0
   35.8480   29.9960   40.1630 S   0  0  0  0  0  0  0  0  0  0  0  0
   36.5080   30.9390   38.7680 C   0  0  0  0  0  3  0  0  0  0  0  0
   35.7050   31.3380   38.1180 H   0  0  0  0  0  0  0  0  0  0  0  0
   37.8620   27.8920   42.7690 C   0  0  0  0  0  0  0  0  0  0  0  0
   37.1600   28.3900   43.6800 O   0  0  0  0  0  0  0  0  0  0  0  0
   38.6820   24.3220   42.2260 C   0  0  0  0  0  0  0  0  0  0  0  0
   38.0290   25.5720   42.1440 C   0  0  0  0  0  0  0  0  0  0  0  0
   38.5600   26.6480   42.8860 C   0  0  0  0  0  0  0  0  0  0  0  0
   39.6710   26.4090   43.6320 N   0  0  0  0  0  0  0  0  0  0  0  0
   40.2630   25.1950   43.6790 C   0  0  0  0  0  0  0  0  0  0  0  0
   39.7600   24.1790   42.9790 N   0  0  0  0  0  0  0  0  0  0  0  0
   38.1590   23.2330   41.4890 N   0  0  0  0  0  0  0  0  0  0  0  0
   37.1460   25.6680   41.5210 H   0  0  0  0  0  0  0  0  0  0  0  0
   41.1470   25.0630   44.2920 H   0  0  0  0  0  0  0  0  0  0  0  0
   37.2630   22.9260   41.9660 H   0  0  0  0  0  0  0  0  0  0  0  0
   38.5560   22.7790   40.6190 H   0  0  0  0  0  0  0  0  0  0  0  0
   37.3040   33.3280   38.5890 C   0  0  0  0  0  2  0  0  0  0  0  0
   36.9880   34.1410   39.2740 H   0  0  0  0  0  0  0  0  0  0  0  0
   39.0250   33.0280   40.7420 C   0  0  0  0  0  0  0  0  0  0  0  0
   40.2370   33.2140   40.5360 O   0  0  0  0  0  0  0  0  0  0  0  0
   38.6640   34.1220   41.5100 O   0  0  0  0  0  0  0  0  0  0  0  0
   39.0730   34.3590   42.4000 H   0  0  0  0  0  0  0  0  0  0  0  0
  1  2  2  0  0  0  0
  2 26  1  0  0  0  0
  2  3  1  0  0  0  0
  3  7  1  0  0  0  0
  3  4  1  0  0  0  0
  4  5  2  0  0  0  0
  6  4  1  0  0  0  0
  6 11  1  1  0  0  0
  7  8  1  6  0  0  0
  7  6  1  0  0  0  0
  9  1  1  0  0  0  0
  9  8  1  0  0  0  0
 10  9  1  0  0  0  0
 11 15  1  0  0  0  0
 11 12  2  0  0  0  0
 13 18  1  0  0  0  0
 14 13  2  0  0  0  0
 14 15  1  0  0  0  0
 15 16  2  0  0  0  0
 16 17  1  0  0  0  0
 17 21  1  0  0  0  0
 18 17  2  0  0  0  0
 19 22  1  0  0  0  0
 19 13  1  0  0  0  0
 20 14  1  0  0  0  0
 23 19  1  0  0  0  0
 24  1  1  0  0  0  0
 24 25  1  0  0  0  0
 26 28  1  0  0  0  0
 27 26  2  0  0  0  0
 28 29  1  0  0  0  0
M  END
>  <minimizedAffinity>
-5.80116653

$$$$

 OpenBabel03242520463D

 29 31  0  0  1  0  0  0  0  0999 V2000
   37.2630   25.3390   41.2070 C   0  0  0  0  0  0  0  0  0  0  0  0
   36.9990   26.6070   41.4710 C   0  0  0  0  0  0  0  0  0  0  0  0
   36.6560   27.4740   40.3980 N   0  0  0  0  0  0  0  0  0  0  0  0
   35.7390   28.4740   39.8830 C   0  0  0  0  0  0  0  0  0  0  0  0
   34.9010   29.2790   40.4160 O   0  0  0  0  0  0  0  0  0  0  0  0
   36.1940   28.1620   38.4750 C   0  0  2  0  0  3  0  0  0  0  0  0
   37.4210   27.5850   39.1470 C   0  0  2  0  0  3  0  0  0  0  0  0
   37.8700   25.9110   38.6480 S   0  0  0  0  0  0  0  0  0  0  0  0
   37.2050   24.7460   39.8610 C   0  0  0  0  0  3  0  0  0  0  0  0
   37.7390   23.7760   39.8430 H   0  0  0  0  0  0  0  0  0  0  0  0
   36.4290   29.4140   37.6860 C   0  0  0  0  0  0  0  0  0  0  0  0
   35.7550   29.5360   36.6370 O   0  0  0  0  0  0  0  0  0  0  0  0
   37.7350   32.4750   39.3100 C   0  0  0  0  0  0  0  0  0  0  0  0
   36.8410   31.4900   38.8360 C   0  0  0  0  0  0  0  0  0  0  0  0
   37.3770   30.3830   38.1460 C   0  0  0  0  0  0  0  0  0  0  0  0
   38.7260   30.3370   37.9840 N   0  0  0  0  0  0  0  0  0  0  0  0
   39.5440   31.3040   38.4550 C   0  0  0  0  0  0  0  0  0  0  0  0
   39.0360   32.3490   39.1060 N   0  0  0  0  0  0  0  0  0  0  0  0
   37.2110   33.5930   40.0020 N   0  0  0  0  0  0  0  0  0  0  0  0
   35.7770   31.6120   39.0130 H   0  0  0  0  0  0  0  0  0  0  0  0
   40.6120   31.2150   38.2960 H   0  0  0  0  0  0  0  0  0  0  0  0
   36.7260   34.2110   39.2890 H   0  0  0  0  0  0  0  0  0  0  0  0
   37.2690   33.8090   41.0370 H   0  0  0  0  0  0  0  0  0  0  0  0
   37.6200   24.4860   42.3380 C   0  0  0  0  0  2  0  0  0  0  0  0
   38.5330   24.8440   42.8550 H   0  0  0  0  0  0  0  0  0  0  0  0
   37.0530   27.1580   42.8210 C   0  0  0  0  0  0  0  0  0  0  0  0
   38.0540   27.4900   43.4800 O   0  0  0  0  0  0  0  0  0  0  0  0
   36.0030   27.4350   43.6790 O   0  0  0  0  0  0  0  0  0  0  0  0
   35.8890   27.0320   44.5950 H   0  0  0  0  0  0  0  0  0  0  0  0
  1  2  2  0  0  0  0
  1 24  1  0  0  0  0
  2 26  1  0  0  0  0
  3  2  1  0  0  0  0
  4  3  1  0  0  0  0
  4  5  2  0  0  0  0
  6 11  1  6  0  0  0
  6  7  1  0  0  0  0
  6  4  1  0  0  0  0
  7  8  1  6  0  0  0
  7  3  1  0  0  0  0
  8  9  1  0  0  0  0
  9  1  1  0  0  0  0
 10  9  1  0  0  0  0
 11 15  1  0  0  0  0
 12 11  2  0  0  0  0
 13 19  1  0  0  0  0
 14 20  1  0  0  0  0
 14 13  2  0  0  0  0
 15 14  1  0  0  0  0
 16 15  2  0  0  0  0
 16 17  1  0  0  0  0
 17 18  2  0  0  0  0
 18 13  1  0  0  0  0
 19 23  1  0  0  0  0
 21 17  1  0  0  0  0
 22 19  1  0  0  0  0
 24 25  1  0  0  0  0
 26 27  2  0  0  0  0
 26 28  1  0  0  0  0
 28 29  1  0  0  0  0
M  END
>  <minimizedAffinity>
-5.68784809

$$$$

 OpenBabel03242520463D

 29 31  0  0  1  0  0  0  0  0999 V2000
   38.3920   29.3700   42.2730 C   0  0  0  0  0  0  0  0  0  0  0  0
   37.9480   30.1370   41.2910 C   0  0  0  0  0  0  0  0  0  0  0  0
   38.8820   30.9080   40.5470 N   0  0  0  0  0  0  0  0  0  0  0  0
   39.3680   31.3060   39.2390 C   0  0  0  0  0  0  0  0  0  0  0  0
   38.8680   31.3130   38.0630 O   0  0  0  0  0  0  0  0  0  0  0  0
   40.6910   31.7020   39.8540 C   0  0  2  0  0  3  0  0  0  0  0  0
   39.9130   31.7670   41.1510 C   0  0  2  0  0  3  0  0  0  0  0  0
   40.6230   30.8520   42.5340 S   0  0  0  0  0  0  0  0  0  0  0  0
   39.8100   29.2400   42.6430 C   0  0  0  0  0  3  0  0  0  0  0  0
   39.9070   28.7930   43.6510 H   0  0  0  0  0  0  0  0  0  0  0  0
   41.1650   33.0230   39.3290 C   0  0  0  0  0  0  0  0  0  0  0  0
   40.3600   33.9780   39.4390 O   0  0  0  0  0  0  0  0  0  0  0  0
   44.0480   32.2770   37.1280 C   0  0  0  0  0  0  0  0  0  0  0  0
   42.7730   32.2060   37.7340 C   0  0  0  0  0  0  0  0  0  0  0  0
   42.4680   33.1380   38.7480 C   0  0  0  0  0  0  0  0  0  0  0  0
   43.4240   34.0460   39.0760 N   0  0  0  0  0  0  0  0  0  0  0  0
   44.6310   34.0760   38.4680 C   0  0  0  0  0  0  0  0  0  0  0  0
   44.9190   33.1960   37.5110 N   0  0  0  0  0  0  0  0  0  0  0  0
   44.3690   31.3490   36.1100 N   0  0  0  0  0  0  0  0  0  0  0  0
   42.0730   31.4450   37.4060 H   0  0  0  0  0  0  0  0  0  0  0  0
   45.3550   34.8240   38.7710 H   0  0  0  0  0  0  0  0  0  0  0  0
   44.5130   30.4050   36.5730 H   0  0  0  0  0  0  0  0  0  0  0  0
   44.4570   31.5210   35.0690 H   0  0  0  0  0  0  0  0  0  0  0  0
   37.3960   28.6030   43.0170 C   0  0  0  0  0  2  0  0  0  0  0  0
   36.6500   29.2590   43.5100 H   0  0  0  0  0  0  0  0  0  0  0  0
   36.5340   30.2310   40.9430 C   0  0  0  0  0  0  0  0  0  0  0  0
   35.9010   29.5730   40.0990 O   0  0  0  0  0  0  0  0  0  0  0  0
   35.5730   31.0750   41.4720 O   0  0  0  0  0  0  0  0  0  0  0  0
   35.0350   31.7380   40.9380 H   0  0  0  0  0  0  0  0  0  0  0  0
  1  9  1  0  0  0  0
  1 24  1  0  0  0  0
  2  1  2  0  0  0  0
  3  7  1  0  0  0  0
  3  2  1  0  0  0  0
  4  6  1  0  0  0  0
  4  3  1  0  0  0  0
  5  4  2  0  0  0  0
  6 11  1  6  0  0  0
  6  7  1  0  0  0  0
  7  8  1  1  0  0  0
  8  9  1  0  0  0  0
  9 10  1  0  0  0  0
 11 12  2  0  0  0  0
 13 18  2  0  0  0  0
 13 14  1  0  0  0  0
 14 15  2  0  0  0  0
 15 16  1  0  0  0  0
 15 11  1  0  0  0  0
 17 21  1  0  0  0  0
 17 16  2  0  0  0  0
 18 17  1  0  0  0  0
 19 22  1  0  0  0  0
 19 13  1  0  0  0  0
 20 14  1  0  0  0  0
 23 19  1  0  0  0  0
 24 25  1  0  0  0  0
 26  2  1  0  0  0  0
 26 28  1  0  0  0  0
 27 26  2  0  0  0  0
 29 28  1  0  0  0  0
M  END
>  <minimizedAffinity>
-5.51435995

$$$$

 OpenBabel03242520463D

 29 31  0  0  1  0  0  0  0  0999 V2000
   39.3630   31.6320   40.2440 C   0  0  0  0  0  0  0  0  0  0  0  0
   38.4870   30.7190   39.8590 C   0  0  0  0  0  0  0  0  0  0  0  0
   37.9250   29.8530   40.8380 N   0  0  0  0  0  0  0  0  0  0  0  0
   36.7250   29.2640   41.4000 C   0  0  0  0  0  0  0  0  0  0  0  0
   35.5370   29.0700   40.9690 O   0  0  0  0  0  0  0  0  0  0  0  0
   37.4690   28.9810   42.6850 C   0  0  2  0  0  3  0  0  0  0  0  0
   38.7130   29.1080   41.8320 C   0  0  2  0  0  3  0  0  0  0  0  0
   39.9770   30.2310   42.4580 S   0  0  0  0  0  0  0  0  0  0  0  0
   39.7900   31.8320   41.6380 C   0  0  0  0  0  3  0  0  0  0  0  0
   40.7210   32.4300   41.6740 H   0  0  0  0  0  0  0  0  0  0  0  0
   37.1820   27.6000   43.1910 C   0  0  0  0  0  0  0  0  0  0  0  0
   36.0430   27.4200   43.6800 O   0  0  0  0  0  0  0  0  0  0  0  0
   38.7990   24.4200   42.1940 C   0  0  0  0  0  0  0  0  0  0  0  0
   37.8440   25.4550   42.3180 C   0  0  0  0  0  0  0  0  0  0  0  0
   38.1830   26.5810   43.0970 C   0  0  0  0  0  0  0  0  0  0  0  0
   39.4120   26.5960   43.6780 N   0  0  0  0  0  0  0  0  0  0  0  0
   40.2930   25.5820   43.5320 C   0  0  0  0  0  0  0  0  0  0  0  0
   39.9720   24.5190   42.7960 N   0  0  0  0  0  0  0  0  0  0  0  0
   38.4720   23.2840   41.4160 N   0  0  0  0  0  0  0  0  0  0  0  0
   36.8870   25.3540   41.8160 H   0  0  0  0  0  0  0  0  0  0  0  0
   41.2590   25.6480   44.0190 H   0  0  0  0  0  0  0  0  0  0  0  0
   37.7590   22.7190   41.9620 H   0  0  0  0  0  0  0  0  0  0  0  0
   38.8450   23.0120   40.4640 H   0  0  0  0  0  0  0  0  0  0  0  0
   39.9210   32.4940   39.2050 C   0  0  0  0  0  2  0  0  0  0  0  0
   40.4650   31.9140   38.4320 H   0  0  0  0  0  0  0  0  0  0  0  0
   38.0760   30.5580   38.4690 C   0  0  0  0  0  0  0  0  0  0  0  0
   37.1960   31.1780   37.8470 O   0  0  0  0  0  0  0  0  0  0  0  0
   38.5720   29.6770   37.5240 O   0  0  0  0  0  0  0  0  0  0  0  0
   38.0220   28.9850   37.0400 H   0  0  0  0  0  0  0  0  0  0  0  0
  1  9  1  0  0  0  0
  2  1  2  0  0  0  0
  2  3  1  0  0  0  0
  3  4  1  0  0  0  0
  3  7  1  0  0  0  0
  4  6  1  0  0  0  0
  5  4  2  0  0  0  0
  6 11  1  6  0  0  0
  7  8  1  1  0  0  0
  7  6  1  0  0  0  0
  9 10  1  0  0  0  0
  9  8  1  0  0  0  0
 11 12  2  0  0  0  0
 13 14  2  0  0  0  0
 13 18  1  0  0  0  0
 14 15  1  0  0  0  0
 15 11  1  0  0  0  0
 15 16  2  0  0  0  0
 17 16  1  0  0  0  0
 17 21  1  0  0  0  0
 18 17  2  0  0  0  0
 19 22  1  0  0  0  0
 19 13  1  0  0  0  0
 20 14  1  0  0  0  0
 23 19  1  0  0  0  0
 24  1  1  0  0  0  0
 25 24  1  0  0  0  0
 26  2  1  0  0  0  0
 27 26  2  0  0  0  0
 28 26  1  0  0  0  0
 29 28  1  0  0  0  0
M  END
>  <minimizedAffinity>
-5.50404119

$$$$

 OpenBabel03242520463D

 29 31  0  0  1  0  0  0  0  0999 V2000
   36.6290   25.9530   39.4350 C   0  0  0  0  0  0  0  0  0  0  0  0
   37.1110   26.0950   40.6580 C   0  0  0  0  0  0  0  0  0  0  0  0
   37.5100   27.3890   41.0910 N   0  0  0  0  0  0  0  0  0  0  0  0
   37.4380   28.4050   42.1240 C   0  0  0  0  0  0  0  0  0  0  0  0
   37.1490   28.3970   43.3690 O   0  0  0  0  0  0  0  0  0  0  0  0
   37.8460   29.4550   41.1160 C   0  0  2  0  0  3  0  0  0  0  0  0
   38.3860   28.2860   40.3210 C   0  0  2  0  0  3  0  0  0  0  0  0
   37.8540   28.1990   38.6000 S   0  0  0  0  0  0  0  0  0  0  0  0
   36.4540   27.0600   38.4810 C   0  0  0  0  0  3  0  0  0  0  0  0
   36.3220   26.6680   37.4540 H   0  0  0  0  0  0  0  0  0  0  0  0
   38.8850   30.3780   41.6760 C   0  0  0  0  0  0  0  0  0  0  0  0
   39.5460   29.9370   42.6440 O   0  0  0  0  0  0  0  0  0  0  0  0
   38.0790   33.5240   39.8950 C   0  0  0  0  0  0  0  0  0  0  0  0
   37.9440   32.2430   40.4760 C   0  0  0  0  0  0  0  0  0  0  0  0
   39.0740   31.6760   41.1030 C   0  0  0  0  0  0  0  0  0  0  0  0
   40.2220   32.4050   41.1060 N   0  0  0  0  0  0  0  0  0  0  0  0
   40.3040   33.6270   40.5370 C   0  0  0  0  0  0  0  0  0  0  0  0
   39.2370   34.1610   39.9450 N   0  0  0  0  0  0  0  0  0  0  0  0
   36.9550   34.1040   39.2610 N   0  0  0  0  0  0  0  0  0  0  0  0
   36.9860   31.7360   40.4230 H   0  0  0  0  0  0  0  0  0  0  0  0
   41.2460   34.1620   40.5700 H   0  0  0  0  0  0  0  0  0  0  0  0
   36.7960   33.5800   38.3520 H   0  0  0  0  0  0  0  0  0  0  0  0
   36.3560   34.9090   39.5970 H   0  0  0  0  0  0  0  0  0  0  0  0
   36.2400   24.6050   39.0280 C   0  0  0  0  0  2  0  0  0  0  0  0
   37.0950   23.8990   39.0590 H   0  0  0  0  0  0  0  0  0  0  0  0
   37.2570   24.9760   41.5810 C   0  0  0  0  0  0  0  0  0  0  0  0
   38.2050   24.1770   41.6820 O   0  0  0  0  0  0  0  0  0  0  0  0
   36.3750   24.5450   42.5560 O   0  0  0  0  0  0  0  0  0  0  0  0
   35.9690   23.6230   42.5970 H   0  0  0  0  0  0  0  0  0  0  0  0
  1  2  2  0  0  0  0
  2  3  1  0  0  0  0
  2 26  1  0  0  0  0
  3  4  1  0  0  0  0
  4  5  2  0  0  0  0
  6 11  1  1  0  0  0
  6  4  1  0  0  0  0
  7  8  1  6  0  0  0
  7  3  1  0  0  0  0
  7  6  1  0  0  0  0
  9  8  1  0  0  0  0
  9  1  1  0  0  0  0
 10  9  1  0  0  0  0
 11 12  2  0  0  0  0
 13 18  2  0  0  0  0
 13 14  1  0  0  0  0
 14 15  2  0  0  0  0
 15 16  1  0  0  0  0
 15 11  1  0  0  0  0
 17 21  1  0  0  0  0
 17 16  2  0  0  0  0
 18 17  1  0  0  0  0
 19 23  1  0  0  0  0
 19 13  1  0  0  0  0
 20 14  1  0  0  0  0
 22 19  1  0  0  0  0
 24 25  1  0  0  0  0
 24  1  1  0  0  0  0
 26 27  2  0  0  0  0
 26 28  1  0  0  0  0
 28 29  1  0  0  0  0
M  END
>  <minimizedAffinity>
-5.42732525

$$$$

 OpenBabel03242520463D

 29 31  0  0  1  0  0  0  0  0999 V2000
   37.4670   26.0980   42.4230 C   0  0  0  0  0  0  0  0  0  0  0  0
   38.7600   26.2840   42.2140 C   0  0  0  0  0  0  0  0  0  0  0  0
   39.2980   27.5920   42.3690 N   0  0  0  0  0  0  0  0  0  0  0  0
   40.3350   28.4220   42.9520 C   0  0  0  0  0  0  0  0  0  0  0  0
   41.5100   28.2010   43.4040 O   0  0  0  0  0  0  0  0  0  0  0  0
   39.4480   29.6360   42.7940 C   0  0  2  0  0  3  0  0  0  0  0  0
   38.7220   28.8000   41.7610 C   0  0  2  0  0  3  0  0  0  0  0  0
   36.9320   28.6940   41.9600 S   0  0  0  0  0  0  0  0  0  0  0  0
   36.5340   27.1600   42.8320 C   0  0  0  0  0  3  0  0  0  0  0  0
   35.4880   26.8430   42.6590 H   0  0  0  0  0  0  0  0  0  0  0  0
   40.2100   30.8040   42.2460 C   0  0  0  0  0  0  0  0  0  0  0  0
   41.1750   31.2030   42.9390 O   0  0  0  0  0  0  0  0  0  0  0  0
   38.2450   32.8130   39.8340 C   0  0  0  0  0  0  0  0  0  0  0  0
   38.6710   32.2090   41.0380 C   0  0  0  0  0  0  0  0  0  0  0  0
   39.8210   31.3920   41.0010 C   0  0  0  0  0  0  0  0  0  0  0  0
   40.4460   31.2420   39.8030 N   0  0  0  0  0  0  0  0  0  0  0  0
   40.0020   31.8410   38.6760 C   0  0  0  0  0  0  0  0  0  0  0  0
   38.9160   32.6110   38.7120 N   0  0  0  0  0  0  0  0  0  0  0  0
   37.0920   33.6340   39.8560 N   0  0  0  0  0  0  0  0  0  0  0  0
   38.1070   32.3870   41.9480 H   0  0  0  0  0  0  0  0  0  0  0  0
   40.5410   31.6850   37.7480 H   0  0  0  0  0  0  0  0  0  0  0  0
   36.2510   32.9980   39.9700 H   0  0  0  0  0  0  0  0  0  0  0  0
   37.0360   34.6880   39.7780 H   0  0  0  0  0  0  0  0  0  0  0  0
   36.9560   24.7420   42.2430 C   0  0  0  0  0  2  0  0  0  0  0  0
   37.1130   24.3720   41.2100 H   0  0  0  0  0  0  0  0  0  0  0  0
   39.6580   25.2040   41.8230 C   0  0  0  0  0  0  0  0  0  0  0  0
   39.9460   24.8160   40.6770 O   0  0  0  0  0  0  0  0  0  0  0  0
   40.3940   24.3610   42.6370 O   0  0  0  0  0  0  0  0  0  0  0  0
   40.3130   23.3560   42.6460 H   0  0  0  0  0  0  0  0  0  0  0  0
  1  9  1  0  0  0  0
  2  3  1  0  0  0  0
  2  1  2  0  0  0  0
  3  4  1  0  0  0  0
  4  5  2  0  0  0  0
  6 11  1  6  0  0  0
  6  4  1  0  0  0  0
  7  8  1  1  0  0  0
  7  3  1  0  0  0  0
  7  6  1  0  0  0  0
  8  9  1  0  0  0  0
 10  9  1  0  0  0  0
 11 12  2  0  0  0  0
 13 19  1  0  0  0  0
 13 14  1  0  0  0  0
 14 20  1  0  0  0  0
 15 14  2  0  0  0  0
 15 11  1  0  0  0  0
 16 15  1  0  0  0  0
 17 18  1  0  0  0  0
 17 16  2  0  0  0  0
 18 13  2  0  0  0  0
 19 22  1  0  0  0  0
 21 17  1  0  0  0  0
 23 19  1  0  0  0  0
 24  1  1  0  0  0  0
 25 24  1  0  0  0  0
 26  2  1  0  0  0  0
 26 28  1  0  0  0  0
 27 26  2  0  0  0  0
 28 29  1  0  0  0  0
M  END
>  <minimizedAffinity>
-5.41721916

$$$$

 OpenBabel03242520463D

 29 31  0  0  1  0  0  0  0  0999 V2000
   38.5430   32.0240   40.1540 C   0  0  0  0  0  0  0  0  0  0  0  0
   37.9760   30.9680   40.7120 C   0  0  0  0  0  0  0  0  0  0  0  0
   38.7830   30.0800   41.4760 N   0  0  0  0  0  0  0  0  0  0  0  0
   38.9500   29.3450   42.7150 C   0  0  0  0  0  0  0  0  0  0  0  0
   38.1560   28.9480   43.6350 O   0  0  0  0  0  0  0  0  0  0  0  0
   40.4360   29.2490   42.4550 C   0  0  2  0  0  3  0  0  0  0  0  0
   40.0620   29.5200   41.0130 C   0  0  2  0  0  3  0  0  0  0  0  0
   40.9670   30.8560   40.2090 S   0  0  0  0  0  0  0  0  0  0  0  0
   39.9690   32.3630   40.2860 C   0  0  0  0  0  3  0  0  0  0  0  0
   40.2650   33.0980   39.5120 H   0  0  0  0  0  0  0  0  0  0  0  0
   40.9530   27.8700   42.7300 C   0  0  0  0  0  0  0  0  0  0  0  0
   41.7690   27.7690   43.6750 O   0  0  0  0  0  0  0  0  0  0  0  0
   39.1390   24.7740   41.8150 C   0  0  0  0  0  0  0  0  0  0  0  0
   39.6070   25.8800   42.5590 C   0  0  0  0  0  0  0  0  0  0  0  0
   40.5090   26.7670   41.9340 C   0  0  0  0  0  0  0  0  0  0  0  0
   40.8680   26.4970   40.6510 N   0  0  0  0  0  0  0  0  0  0  0  0
   40.3930   25.4250   39.9780 C   0  0  0  0  0  0  0  0  0  0  0  0
   39.5420   24.5890   40.5690 N   0  0  0  0  0  0  0  0  0  0  0  0
   38.2350   23.8750   42.4300 N   0  0  0  0  0  0  0  0  0  0  0  0
   39.2640   26.0140   43.5800 H   0  0  0  0  0  0  0  0  0  0  0  0
   40.7150   25.2600   38.9560 H   0  0  0  0  0  0  0  0  0  0  0  0
   38.7820   23.3120   43.1430 H   0  0  0  0  0  0  0  0  0  0  0  0
   37.2000   23.7560   42.2430 H   0  0  0  0  0  0  0  0  0  0  0  0
   37.6790   32.9040   39.3710 C   0  0  0  0  0  2  0  0  0  0  0  0
   37.2100   32.3730   38.5170 H   0  0  0  0  0  0  0  0  0  0  0  0
   36.5550   30.6710   40.5710 C   0  0  0  0  0  0  0  0  0  0  0  0
   35.9790   30.0740   39.6450 O   0  0  0  0  0  0  0  0  0  0  0  0
   35.5210   30.9870   41.4350 O   0  0  0  0  0  0  0  0  0  0  0  0
   34.7190   31.5450   41.1910 H   0  0  0  0  0  0  0  0  0  0  0  0
  1  9  1  0  0  0  0
  1  2  2  0  0  0  0
  2  3  1  0  0  0  0
  3  4  1  0  0  0  0
  4  5  2  0  0  0  0
  6  4  1  0  0  0  0
  6 11  1  6  0  0  0
  7  8  1  1  0  0  0
  7  3  1  0  0  0  0
  7  6  1  0  0  0  0
  8  9  1  0  0  0  0
 10  9  1  0  0  0  0
 11 12  2  0  0  0  0
 13 19  1  0  0  0  0
 13 14  1  0  0  0  0
 14 20  1  0  0  0  0
 15 14  2  0  0  0  0
 15 11  1  0  0  0  0
 16 15  1  0  0  0  0
 17 18  1  0  0  0  0
 17 16  2  0  0  0  0
 18 13  2  0  0  0  0
 19 22  1  0  0  0  0
 21 17  1  0  0  0  0
 23 19  1  0  0  0  0
 24  1  1  0  0  0  0
 25 24  1  0  0  0  0
 26  2  1  0  0  0  0
 26 28  1  0  0  0  0
 27 26  2  0  0  0  0
 29 28  1  0  0  0  0
M  END
>  <minimizedAffinity>
-5.38194942

$$$$

 OpenBabel03242520463D

 29 31  0  0  1  0  0  0  0  0999 V2000
   38.0940   28.7450   42.2810 C   0  0  0  0  0  0  0  0  0  0  0  0
   37.6850   29.5770   41.3380 C   0  0  0  0  0  0  0  0  0  0  0  0
   38.6570   30.2410   40.5400 N   0  0  0  0  0  0  0  0  0  0  0  0
   39.1010   30.5990   39.2070 C   0  0  0  0  0  0  0  0  0  0  0  0
   38.5300   30.6890   38.0670 O   0  0  0  0  0  0  0  0  0  0  0  0
   40.5010   30.8190   39.7350 C   0  0  2  0  0  3  0  0  0  0  0  0
   39.8230   30.9560   41.0820 C   0  0  2  0  0  3  0  0  0  0  0  0
   40.5040   29.9370   42.4050 S   0  0  0  0  0  0  0  0  0  0  0  0
   39.5070   28.4350   42.5530 C   0  0  0  0  0  3  0  0  0  0  0  0
   39.6130   27.9610   43.5490 H   0  0  0  0  0  0  0  0  0  0  0  0
   41.0990   32.0810   39.1920 C   0  0  0  0  0  0  0  0  0  0  0  0
   40.4410   32.6590   38.2960 O   0  0  0  0  0  0  0  0  0  0  0  0
   43.5220   33.5910   41.5510 C   0  0  0  0  0  0  0  0  0  0  0  0
   42.3140   33.1050   41.0020 C   0  0  0  0  0  0  0  0  0  0  0  0
   42.3480   32.5590   39.7020 C   0  0  0  0  0  0  0  0  0  0  0  0
   43.5470   32.5350   39.0620 N   0  0  0  0  0  0  0  0  0  0  0  0
   44.6780   33.0120   39.6270 C   0  0  0  0  0  0  0  0  0  0  0  0
   44.6450   33.5280   40.8540 N   0  0  0  0  0  0  0  0  0  0  0  0
   43.5030   34.1430   42.8540 N   0  0  0  0  0  0  0  0  0  0  0  0
   41.4040   33.1660   41.5900 H   0  0  0  0  0  0  0  0  0  0  0  0
   45.6060   32.9670   39.0690 H   0  0  0  0  0  0  0  0  0  0  0  0
   43.0160   35.0840   42.7940 H   0  0  0  0  0  0  0  0  0  0  0  0
   43.8890   33.7280   43.7480 H   0  0  0  0  0  0  0  0  0  0  0  0
   37.0620   28.0920   43.0830 C   0  0  0  0  0  2  0  0  0  0  0  0
   36.4370   28.8260   43.6310 H   0  0  0  0  0  0  0  0  0  0  0  0
   36.2740   29.8500   41.0870 C   0  0  0  0  0  0  0  0  0  0  0  0
   35.4350   29.1240   40.5260 O   0  0  0  0  0  0  0  0  0  0  0  0
   35.5460   30.9800   41.4140 O   0  0  0  0  0  0  0  0  0  0  0  0
   35.0620   31.5640   40.7510 H   0  0  0  0  0  0  0  0  0  0  0  0
  1  9  1  0  0  0  0
  1 24  1  0  0  0  0
  2  1  2  0  0  0  0
  3  7  1  0  0  0  0
  3  2  1  0  0  0  0
  4  6  1  0  0  0  0
  4  3  1  0  0  0  0
  5  4  2  0  0  0  0
  6 11  1  6  0  0  0
  6  7  1  0  0  0  0
  7  8  1  1  0  0  0
  8  9  1  0  0  0  0
  9 10  1  0  0  0  0
 11 15  1  0  0  0  0
 12 11  2  0  0  0  0
 13 19  1  0  0  0  0
 14 13  1  0  0  0  0
 14 20  1  0  0  0  0
 15 14  2  0  0  0  0
 16 17  2  0  0  0  0
 16 15  1  0  0  0  0
 17 18  1  0  0  0  0
 18 13  2  0  0  0  0
 19 23  1  0  0  0  0
 21 17  1  0  0  0  0
 22 19  1  0  0  0  0
 24 25  1  0  0  0  0
 26  2  1  0  0  0  0
 26 28  1  0  0  0  0
 27 26  2  0  0  0  0
 29 28  1  0  0  0  0
M  END
>  <minimizedAffinity>
-5.37197971

$$$$

 OpenBabel03242520463D

 29 31  0  0  1  0  0  0  0  0999 V2000
   39.1340   25.1390   39.8040 C   0  0  0  0  0  0  0  0  0  0  0  0
   38.5180   25.5730   40.8900 C   0  0  0  0  0  0  0  0  0  0  0  0
   38.4520   26.9740   41.1270 N   0  0  0  0  0  0  0  0  0  0  0  0
   37.6230   28.1150   41.4650 C   0  0  0  0  0  0  0  0  0  0  0  0
   36.4890   28.2600   42.0370 O   0  0  0  0  0  0  0  0  0  0  0  0
   38.6570   29.0410   40.8650 C   0  0  2  0  0  3  0  0  0  0  0  0
   39.6090   27.8800   41.0610 C   0  0  2  0  0  3  0  0  0  0  0  0
   40.5710   27.4060   39.6110 S   0  0  0  0  0  0  0  0  0  0  0  0
   39.7490   26.0170   38.7950 C   0  0  0  0  0  3  0  0  0  0  0  0
   40.4430   25.4410   38.1530 H   0  0  0  0  0  0  0  0  0  0  0  0
   38.9090   30.2250   41.7470 C   0  0  0  0  0  0  0  0  0  0  0  0
   38.9320   29.9980   42.9790 O   0  0  0  0  0  0  0  0  0  0  0  0
   38.1040   33.4100   40.0360 C   0  0  0  0  0  0  0  0  0  0  0  0
   37.9600   32.1310   40.6190 C   0  0  0  0  0  0  0  0  0  0  0  0
   39.1070   31.5190   41.1680 C   0  0  0  0  0  0  0  0  0  0  0  0
   40.2790   32.2050   41.0990 N   0  0  0  0  0  0  0  0  0  0  0  0
   40.3680   33.4280   40.5310 C   0  0  0  0  0  0  0  0  0  0  0  0
   39.2850   34.0040   40.0120 N   0  0  0  0  0  0  0  0  0  0  0  0
   36.9620   34.0340   39.4800 N   0  0  0  0  0  0  0  0  0  0  0  0
   36.9830   31.6600   40.6280 H   0  0  0  0  0  0  0  0  0  0  0  0
   41.3290   33.9280   40.5040 H   0  0  0  0  0  0  0  0  0  0  0  0
   36.7240   33.5230   38.5810 H   0  0  0  0  0  0  0  0  0  0  0  0
   36.4160   34.8590   39.8580 H   0  0  0  0  0  0  0  0  0  0  0  0
   39.1870   23.6930   39.6050 C   0  0  0  0  0  2  0  0  0  0  0  0
   39.7170   23.1790   40.4330 H   0  0  0  0  0  0  0  0  0  0  0  0
   37.9090   24.6730   41.8630 C   0  0  0  0  0  0  0  0  0  0  0  0
   36.7040   24.4090   42.0220 O   0  0  0  0  0  0  0  0  0  0  0  0
   38.5310   23.9060   42.8320 O   0  0  0  0  0  0  0  0  0  0  0  0
   38.3520   23.9750   43.8220 H   0  0  0  0  0  0  0  0  0  0  0  0
  1  2  2  0  0  0  0
  2  3  1  0  0  0  0
  2 26  1  0  0  0  0
  3  4  1  0  0  0  0
  4  5  2  0  0  0  0
  6  7  1  0  0  0  0
  6  4  1  0  0  0  0
  6 11  1  1  0  0  0
  7  8  1  6  0  0  0
  7  3  1  0  0  0  0
  9  8  1  0  0  0  0
  9  1  1  0  0  0  0
 10  9  1  0  0  0  0
 11 12  2  0  0  0  0
 13 14  1  0  0  0  0
 14 20  1  0  0  0  0
 14 15  2  0  0  0  0
 15 11  1  0  0  0  0
 16 15  1  0  0  0  0
 17 16  2  0  0  0  0
 18 13  2  0  0  0  0
 18 17  1  0  0  0  0
 19 23  1  0  0  0  0
 19 13  1  0  0  0  0
 21 17  1  0  0  0  0
 22 19  1  0  0  0  0
 24  1  1  0  0  0  0
 24 25  1  0  0  0  0
 26 27  2  0  0  0  0
 26 28  1  0  0  0  0
 28 29  1  0  0  0  0
M  END
>  <minimizedAffinity>
-5.34843254

$$$$
