
 OpenBabel03242523353D

 44 48  0  0  1  0  0  0  0  0999 V2000
   36.9680   30.1820   36.0330 C   0  0  0  0  0  0  0  0  0  0  0  0
   36.7720   30.2070   37.4180 C   0  0  0  0  0  0  0  0  0  0  0  0
   35.7010   29.5230   38.0000 C   0  0  0  0  0  0  0  0  0  0  0  0
   34.8540   28.8280   37.1650 N   0  0  0  0  0  0  0  0  0  0  0  0
   35.0590   28.8150   35.8240 C   0  0  0  0  0  0  0  0  0  0  0  0
   36.1000   29.4850   35.2910 N   0  0  0  0  0  0  0  0  0  0  0  0
   37.8030   30.7190   35.6050 H   0  0  0  0  0  0  0  0  0  0  0  0
   37.4260   30.7430   38.0660 H   0  0  0  0  0  0  0  0  0  0  0  0
   34.0820   28.0390   35.0240 C   0  0  0  0  0  0  0  0  0  0  0  0
   34.0250   28.5420   34.0620 H   0  0  0  0  0  0  0  0  0  0  0  0
   34.4510   26.9960   34.8300 H   0  0  0  0  0  0  0  0  0  0  0  0
   32.5570   27.9390   35.9630 S   0  0  0  0  0  0  0  0  0  0  0  0
   31.5150   29.3400   35.6290 C   0  0  0  0  0  0  0  0  0  0  0  0
   31.0770   30.0900   36.6990 C   0  0  0  0  0  0  0  0  0  0  0  0
   30.2750   31.1620   36.4450 C   0  0  0  0  0  0  0  0  0  0  0  0
   29.8900   31.5160   35.1410 C   0  0  0  0  0  0  0  0  0  0  0  0
   29.0980   32.5860   34.9500 N   0  0  0  0  0  0  0  0  0  0  0  0
   28.7120   32.9530   33.7100 C   0  0  0  0  0  0  0  0  0  0  0  0
   29.1370   32.2200   32.6450 C   0  0  0  0  0  0  0  0  0  0  0  0
   29.9480   31.1290   32.8560 C   0  0  0  0  0  0  0  0  0  0  0  0
   30.3710   30.7140   34.1110 C   0  0  0  0  0  0  0  0  0  0  0  0
   31.1770   29.6280   34.3280 C   0  0  0  0  0  0  0  0  0  0  0  0
   31.3020   29.9200   37.7430 H   0  0  0  0  0  0  0  0  0  0  0  0
   29.8920   31.8010   37.2510 H   0  0  0  0  0  0  0  0  0  0  0  0
   28.0760   33.8240   33.6450 H   0  0  0  0  0  0  0  0  0  0  0  0
   28.8390   32.4980   31.6410 H   0  0  0  0  0  0  0  0  0  0  0  0
   30.2730   30.5620   31.9890 H   0  0  0  0  0  0  0  0  0  0  0  0
   31.5090   29.0580   33.4960 H   0  0  0  0  0  0  0  0  0  0  0  0
   35.3770   29.5270   39.4130 C   0  0  0  0  0  2  0  0  0  0  0  0
   36.3960   29.3980   40.4220 C   0  0  0  0  0  0  0  0  0  0  0  0
   37.1580   30.2720   41.0680 C   0  0  0  0  0  0  0  0  0  0  0  0
   38.1320   29.9250   42.0760 N   0  0  0  0  0  0  0  0  0  0  0  0
   39.4210   30.0720   42.6580 C   0  0  0  0  0  0  0  0  0  0  0  0
   40.1330   31.1170   42.7290 O   0  0  0  0  0  0  0  0  0  0  0  0
   39.3120   28.6020   42.9870 C   0  0  0  0  0  3  0  0  0  0  0  0
   39.8220   28.3190   43.9140 H   0  0  0  0  0  0  0  0  0  0  0  0
   37.8490   28.9510   43.1200 C   0  0  2  0  0  3  0  0  0  0  0  0
   36.6780   27.7030   42.5510 S   0  0  0  0  0  0  0  0  0  0  0  0
   36.6100   27.9670   40.7590 C   0  0  0  0  0  3  0  0  0  0  0  0
   37.5450   27.5860   40.2890 H   0  0  0  0  0  0  0  0  0  0  0  0
   36.9620   31.6740   40.7170 C   0  0  0  0  0  2  0  0  0  0  0  0
   37.9110   32.2900   40.1180 O   0  0  0  0  0  0  0  0  0  0  0  0
   36.8120   33.0020   40.3700 O   0  0  0  0  0  0  0  0  0  0  0  0
   35.8900   33.4180   40.2210 H   0  0  0  0  0  0  0  0  0  0  0  0
  1  2  1  0  0  0  0
  2  3  2  0  0  0  0
  2  8  1  0  0  0  0
  3 29  1  0  0  0  0
  4  3  1  0  0  0  0
  5  4  2  0  0  0  0
  6  5  1  0  0  0  0
  6  1  2  0  0  0  0
  7  1  1  0  0  0  0
  9  5  1  0  0  0  0
  9 12  1  0  0  0  0
 10  9  1  0  0  0  0
 11  9  1  0  0  0  0
 13 12  1  0  0  0  0
 13 14  1  0  0  0  0
 14 23  1  0  0  0  0
 15 14  2  0  0  0  0
 15 24  1  0  0  0  0
 16 15  1  0  0  0  0
 17 16  1  0  0  0  0
 18 17  2  0  0  0  0
 19 20  2  0  0  0  0
 19 18  1  0  0  0  0
 20 21  1  0  0  0  0
 21 22  1  0  0  0  0
 21 16  2  0  0  0  0
 22 13  2  0  0  0  0
 25 18  1  0  0  0  0
 26 19  1  0  0  0  0
 27 20  1  0  0  0  0
 28 22  1  0  0  0  0
 29 30  1  0  0  0  0
 30 39  1  0  0  0  0
 30 31  2  0  0  0  0
 31 32  1  0  0  0  0
 32 33  1  0  0  0  0
 32 37  1  0  0  0  0
 33 34  2  0  0  0  0
 33 35  1  0  0  0  0
 35 37  1  0  0  0  0
 35 36  1  0  0  0  0
 37 38  1  6  0  0  0
 39 38  1  0  0  0  0
 40 39  1  0  0  0  0
 41 31  1  0  0  0  0
 42 43  1  0  0  0  0
 42 41  1  0  0  0  0
 44 43  1  0  0  0  0
M  END
>  <minimizedAffinity>
-6.62168074

$$$$

 OpenBabel03242523353D

 44 48  0  0  1  0  0  0  0  0999 V2000
   41.5520   33.3730   40.3620 C   0  0  0  0  0  0  0  0  0  0  0  0
   40.2010   33.5410   40.0390 C   0  0  0  0  0  0  0  0  0  0  0  0
   39.2260   32.7060   40.5930 C   0  0  0  0  0  0  0  0  0  0  0  0
   39.6420   31.7220   41.4610 N   0  0  0  0  0  0  0  0  0  0  0  0
   40.9570   31.5740   41.7630 C   0  0  0  0  0  0  0  0  0  0  0  0
   41.8740   32.3930   41.2130 N   0  0  0  0  0  0  0  0  0  0  0  0
   42.2890   34.0310   39.9210 H   0  0  0  0  0  0  0  0  0  0  0  0
   39.8760   34.3020   39.3670 H   0  0  0  0  0  0  0  0  0  0  0  0
   41.2890   30.4790   42.7050 C   0  0  0  0  0  0  0  0  0  0  0  0
   42.1250   30.8440   43.2960 H   0  0  0  0  0  0  0  0  0  0  0  0
   40.4420   30.2840   43.4180 H   0  0  0  0  0  0  0  0  0  0  0  0
   41.5780   28.9930   41.7440 S   0  0  0  0  0  0  0  0  0  0  0  0
   40.2180   27.8590   41.9080 C   0  0  0  0  0  0  0  0  0  0  0  0
   39.4360   27.9480   43.0390 C   0  0  0  0  0  0  0  0  0  0  0  0
   38.3950   27.0770   43.1680 C   0  0  0  0  0  0  0  0  0  0  0  0
   38.1050   26.1090   42.1930 C   0  0  0  0  0  0  0  0  0  0  0  0
   37.0630   25.2770   42.3730 N   0  0  0  0  0  0  0  0  0  0  0  0
   36.7580   24.3360   41.4540 C   0  0  0  0  0  0  0  0  0  0  0  0
   37.5230   24.2380   40.3340 C   0  0  0  0  0  0  0  0  0  0  0  0
   38.5850   25.0970   40.1630 C   0  0  0  0  0  0  0  0  0  0  0  0
   38.9370   26.0790   41.0780 C   0  0  0  0  0  0  0  0  0  0  0  0
   39.9930   26.9360   40.9150 C   0  0  0  0  0  0  0  0  0  0  0  0
   39.5570   28.6460   43.8560 H   0  0  0  0  0  0  0  0  0  0  0  0
   37.7340   27.0940   44.0430 H   0  0  0  0  0  0  0  0  0  0  0  0
   35.9070   23.7100   41.6760 H   0  0  0  0  0  0  0  0  0  0  0  0
   37.2950   23.4900   39.5830 H   0  0  0  0  0  0  0  0  0  0  0  0
   39.1790   24.9980   39.2600 H   0  0  0  0  0  0  0  0  0  0  0  0
   40.5890   26.8590   40.0390 H   0  0  0  0  0  0  0  0  0  0  0  0
   37.8100   32.7580   40.2850 C   0  0  0  0  0  2  0  0  0  0  0  0
   37.1210   31.6310   39.7110 C   0  0  0  0  0  0  0  0  0  0  0  0
   37.1270   31.0730   38.5070 C   0  0  0  0  0  0  0  0  0  0  0  0
   36.3520   29.9120   38.1360 N   0  0  0  0  0  0  0  0  0  0  0  0
   35.5130   29.2220   37.2170 C   0  0  0  0  0  0  0  0  0  0  0  0
   35.5400   29.2630   35.9520 O   0  0  0  0  0  0  0  0  0  0  0  0
   34.8440   28.6440   38.4410 C   0  0  0  0  0  3  0  0  0  0  0  0
   34.4610   27.6290   38.2960 H   0  0  0  0  0  0  0  0  0  0  0  0
   36.2430   28.7470   39.0010 C   0  0  2  0  0  3  0  0  0  0  0  0
   36.3720   29.2090   40.7400 S   0  0  0  0  0  0  0  0  0  0  0  0
   36.2160   31.0150   40.7150 C   0  0  0  0  0  3  0  0  0  0  0  0
   35.1560   31.2950   40.5170 H   0  0  0  0  0  0  0  0  0  0  0  0
   37.9980   31.6960   37.5170 C   0  0  0  0  0  2  0  0  0  0  0  0
   37.5280   31.9240   36.3500 O   0  0  0  0  0  0  0  0  0  0  0  0
   38.7950   32.2840   36.5550 O   0  0  0  0  0  0  0  0  0  0  0  0
   39.5900   32.8770   36.8040 H   0  0  0  0  0  0  0  0  0  0  0  0
  1  6  1  0  0  0  0
  2  1  2  0  0  0  0
  2  3  1  0  0  0  0
  3  4  2  0  0  0  0
  4  5  1  0  0  0  0
  5  9  1  0  0  0  0
  6  5  2  0  0  0  0
  7  1  1  0  0  0  0
  8  2  1  0  0  0  0
  9 10  1  0  0  0  0
  9 11  1  0  0  0  0
 12 13  1  0  0  0  0
 12  9  1  0  0  0  0
 13 14  1  0  0  0  0
 14 15  2  0  0  0  0
 14 23  1  0  0  0  0
 15 24  1  0  0  0  0
 16 17  1  0  0  0  0
 16 15  1  0  0  0  0
 18 25  1  0  0  0  0
 18 17  2  0  0  0  0
 19 18  1  0  0  0  0
 20 19  2  0  0  0  0
 20 21  1  0  0  0  0
 21 16  2  0  0  0  0
 22 21  1  0  0  0  0
 22 13  2  0  0  0  0
 26 19  1  0  0  0  0
 27 20  1  0  0  0  0
 28 22  1  0  0  0  0
 29  3  1  0  0  0  0
 30 29  1  0  0  0  0
 30 39  1  0  0  0  0
 31 30  2  0  0  0  0
 32 31  1  0  0  0  0
 32 37  1  0  0  0  0
 33 32  1  0  0  0  0
 33 35  1  0  0  0  0
 34 33  2  0  0  0  0
 36 35  1  0  0  0  0
 37 35  1  1  0  0  0
 37 38  1  0  0  0  0
 39 38  1  0  0  0  0
 40 39  1  0  0  0  0
 41 31  1  0  0  0  0
 42 43  1  0  0  0  0
 42 41  1  0  0  0  0
 43 44  1  0  0  0  0
M  END
>  <minimizedAffinity>
-6.52895689

$$$$

 OpenBabel03242523353D

 44 48  0  0  1  0  0  0  0  0999 V2000
   34.3130   27.7220   36.4620 C   0  0  0  0  0  0  0  0  0  0  0  0
   34.1230   28.2510   37.7420 C   0  0  0  0  0  0  0  0  0  0  0  0
   35.2060   28.7320   38.4850 C   0  0  0  0  0  0  0  0  0  0  0  0
   36.4560   28.6650   37.9110 N   0  0  0  0  0  0  0  0  0  0  0  0
   36.6220   28.1480   36.6670 C   0  0  0  0  0  0  0  0  0  0  0  0
   35.5590   27.6920   35.9760 N   0  0  0  0  0  0  0  0  0  0  0  0
   33.4600   27.3560   35.9060 H   0  0  0  0  0  0  0  0  0  0  0  0
   33.1560   28.3040   38.1890 H   0  0  0  0  0  0  0  0  0  0  0  0
   38.0120   28.1230   36.1530 C   0  0  0  0  0  0  0  0  0  0  0  0
   38.0640   27.2640   35.4900 H   0  0  0  0  0  0  0  0  0  0  0  0
   38.2340   29.0330   35.5330 H   0  0  0  0  0  0  0  0  0  0  0  0
   39.1200   28.1100   37.5630 S   0  0  0  0  0  0  0  0  0  0  0  0
   40.3350   29.4020   37.4240 C   0  0  0  0  0  0  0  0  0  0  0  0
   41.5380   29.0960   36.8260 C   0  0  0  0  0  0  0  0  0  0  0  0
   42.4720   30.0830   36.7210 C   0  0  0  0  0  0  0  0  0  0  0  0
   42.2410   31.3840   37.1990 C   0  0  0  0  0  0  0  0  0  0  0  0
   43.1990   32.3190   37.0670 N   0  0  0  0  0  0  0  0  0  0  0  0
   43.0080   33.5780   37.5160 C   0  0  0  0  0  0  0  0  0  0  0  0
   41.8250   33.8920   38.1090 C   0  0  0  0  0  0  0  0  0  0  0  0
   40.8540   32.9250   38.2360 C   0  0  0  0  0  0  0  0  0  0  0  0
   41.0040   31.6190   37.7910 C   0  0  0  0  0  0  0  0  0  0  0  0
   40.0430   30.6520   37.9150 C   0  0  0  0  0  0  0  0  0  0  0  0
   41.8330   28.1370   36.4200 H   0  0  0  0  0  0  0  0  0  0  0  0
   43.4490   29.9060   36.2550 H   0  0  0  0  0  0  0  0  0  0  0  0
   43.8270   34.2670   37.3700 H   0  0  0  0  0  0  0  0  0  0  0  0
   41.6510   34.8970   38.4760 H   0  0  0  0  0  0  0  0  0  0  0  0
   39.9190   33.2020   38.7130 H   0  0  0  0  0  0  0  0  0  0  0  0
   39.1190   30.8990   38.3770 H   0  0  0  0  0  0  0  0  0  0  0  0
   35.1280   29.2480   39.8360 C   0  0  0  0  0  2  0  0  0  0  0  0
   36.2440   29.1620   40.7430 C   0  0  0  0  0  0  0  0  0  0  0  0
   37.0820   30.0590   41.2470 C   0  0  0  0  0  0  0  0  0  0  0  0
   38.1490   29.7560   42.1730 N   0  0  0  0  0  0  0  0  0  0  0  0
   39.4940   29.9100   42.6090 C   0  0  0  0  0  0  0  0  0  0  0  0
   40.2260   30.9420   42.5370 O   0  0  0  0  0  0  0  0  0  0  0  0
   39.3970   28.4680   43.0450 C   0  0  0  0  0  3  0  0  0  0  0  0
   39.9950   28.2340   43.9310 H   0  0  0  0  0  0  0  0  0  0  0  0
   37.9610   28.8580   43.3030 C   0  0  2  0  0  3  0  0  0  0  0  0
   36.7180   27.6030   42.9410 S   0  0  0  0  0  0  0  0  0  0  0  0
   36.4680   27.7520   41.1510 C   0  0  0  0  0  3  0  0  0  0  0  0
   37.3440   27.3190   40.6150 H   0  0  0  0  0  0  0  0  0  0  0  0
   36.8740   31.4390   40.8250 C   0  0  0  0  0  2  0  0  0  0  0  0
   37.8250   32.0390   40.2150 O   0  0  0  0  0  0  0  0  0  0  0  0
   36.7110   32.7470   40.4110 O   0  0  0  0  0  0  0  0  0  0  0  0
   35.7860   33.1410   40.2260 H   0  0  0  0  0  0  0  0  0  0  0  0
  1  2  1  0  0  0  0
  2  8  1  0  0  0  0
  2  3  2  0  0  0  0
  3 29  1  0  0  0  0
  4  3  1  0  0  0  0
  5  4  2  0  0  0  0
  6  1  2  0  0  0  0
  6  5  1  0  0  0  0
  7  1  1  0  0  0  0
  9  5  1  0  0  0  0
  9 12  1  0  0  0  0
 10  9  1  0  0  0  0
 11  9  1  0  0  0  0
 13 12  1  0  0  0  0
 13 22  1  0  0  0  0
 14 13  2  0  0  0  0
 15 14  1  0  0  0  0
 15 16  2  0  0  0  0
 16 21  1  0  0  0  0
 17 16  1  0  0  0  0
 17 18  2  0  0  0  0
 18 19  1  0  0  0  0
 19 20  2  0  0  0  0
 19 26  1  0  0  0  0
 20 27  1  0  0  0  0
 21 22  2  0  0  0  0
 21 20  1  0  0  0  0
 22 28  1  0  0  0  0
 23 14  1  0  0  0  0
 24 15  1  0  0  0  0
 25 18  1  0  0  0  0
 29 30  1  0  0  0  0
 30 39  1  0  0  0  0
 30 31  2  0  0  0  0
 31 32  1  0  0  0  0
 32 33  1  0  0  0  0
 32 37  1  0  0  0  0
 33 35  1  0  0  0  0
 34 33  2  0  0  0  0
 35 37  1  0  0  0  0
 35 36  1  0  0  0  0
 37 38  1  6  0  0  0
 39 38  1  0  0  0  0
 40 39  1  0  0  0  0
 41 31  1  0  0  0  0
 42 43  1  0  0  0  0
 42 41  1  0  0  0  0
 44 43  1  0  0  0  0
M  END
>  <minimizedAffinity>
-6.33317614

$$$$

 OpenBabel03242523353D

 44 48  0  0  1  0  0  0  0  0999 V2000
   35.8780   29.2080   36.1110 C   0  0  0  0  0  0  0  0  0  0  0  0
   35.8190   29.6360   37.4420 C   0  0  0  0  0  0  0  0  0  0  0  0
   35.3140   28.7970   38.4400 C   0  0  0  0  0  0  0  0  0  0  0  0
   34.8810   27.5450   38.0650 N   0  0  0  0  0  0  0  0  0  0  0  0
   34.9450   27.1460   36.7690 C   0  0  0  0  0  0  0  0  0  0  0  0
   35.4370   27.9770   35.8300 N   0  0  0  0  0  0  0  0  0  0  0  0
   36.2720   29.8750   35.3560 H   0  0  0  0  0  0  0  0  0  0  0  0
   36.1530   30.6050   37.7340 H   0  0  0  0  0  0  0  0  0  0  0  0
   34.4480   25.7800   36.4830 C   0  0  0  0  0  0  0  0  0  0  0  0
   33.6550   25.6000   37.2050 H   0  0  0  0  0  0  0  0  0  0  0  0
   33.9840   25.7210   35.4620 H   0  0  0  0  0  0  0  0  0  0  0  0
   35.8480   24.6610   36.5390 S   0  0  0  0  0  0  0  0  0  0  0  0
   36.4500   24.4830   38.2030 C   0  0  0  0  0  0  0  0  0  0  0  0
   35.6240   23.8790   39.1280 C   0  0  0  0  0  0  0  0  0  0  0  0
   36.0820   23.7450   40.4040 C   0  0  0  0  0  0  0  0  0  0  0  0
   37.3540   24.1990   40.7940 C   0  0  0  0  0  0  0  0  0  0  0  0
   37.7540   24.0380   42.0680 N   0  0  0  0  0  0  0  0  0  0  0  0
   38.9690   24.4620   42.4740 C   0  0  0  0  0  0  0  0  0  0  0  0
   39.7920   25.0600   41.5710 C   0  0  0  0  0  0  0  0  0  0  0  0
   39.3700   25.2170   40.2710 C   0  0  0  0  0  0  0  0  0  0  0  0
   38.1310   24.7970   39.8080 C   0  0  0  0  0  0  0  0  0  0  0  0
   37.7040   24.9510   38.5160 C   0  0  0  0  0  0  0  0  0  0  0  0
   34.6300   23.4910   38.9510 H   0  0  0  0  0  0  0  0  0  0  0  0
   35.4760   23.2740   41.1880 H   0  0  0  0  0  0  0  0  0  0  0  0
   39.2110   24.2950   43.5130 H   0  0  0  0  0  0  0  0  0  0  0  0
   40.7720   25.4080   41.8760 H   0  0  0  0  0  0  0  0  0  0  0  0
   40.0460   25.6970   39.5710 H   0  0  0  0  0  0  0  0  0  0  0  0
   38.3480   25.4170   37.8120 H   0  0  0  0  0  0  0  0  0  0  0  0
   35.1580   29.1590   39.8350 C   0  0  0  0  0  2  0  0  0  0  0  0
   36.2630   29.1020   40.7570 C   0  0  0  0  0  0  0  0  0  0  0  0
   37.0780   30.0200   41.2620 C   0  0  0  0  0  0  0  0  0  0  0  0
   38.1380   29.7460   42.2050 N   0  0  0  0  0  0  0  0  0  0  0  0
   39.4740   29.9300   42.6570 C   0  0  0  0  0  0  0  0  0  0  0  0
   40.1880   30.9730   42.5840 O   0  0  0  0  0  0  0  0  0  0  0  0
   39.3960   28.4910   43.1080 C   0  0  0  0  0  3  0  0  0  0  0  0
   39.9860   28.2770   44.0050 H   0  0  0  0  0  0  0  0  0  0  0  0
   37.9500   28.8580   43.3430 C   0  0  2  0  0  3  0  0  0  0  0  0
   36.7340   27.5760   42.9780 S   0  0  0  0  0  0  0  0  0  0  0  0
   36.5070   27.7010   41.1840 C   0  0  0  0  0  3  0  0  0  0  0  0
   37.3970   27.2780   40.6640 H   0  0  0  0  0  0  0  0  0  0  0  0
   36.8510   31.3910   40.8220 C   0  0  0  0  0  2  0  0  0  0  0  0
   37.8320   32.0380   40.3160 O   0  0  0  0  0  0  0  0  0  0  0  0
   36.6720   32.6920   40.3950 O   0  0  0  0  0  0  0  0  0  0  0  0
   35.7540   33.0440   40.1130 H   0  0  0  0  0  0  0  0  0  0  0  0
  1  2  1  0  0  0  0
  2  8  1  0  0  0  0
  2  3  2  0  0  0  0
  3 29  1  0  0  0  0
  4  3  1  0  0  0  0
  5  4  2  0  0  0  0
  6  1  2  0  0  0  0
  6  5  1  0  0  0  0
  7  1  1  0  0  0  0
  9 12  1  0  0  0  0
  9  5  1  0  0  0  0
  9 10  1  0  0  0  0
 11  9  1  0  0  0  0
 12 13  1  0  0  0  0
 13 22  2  0  0  0  0
 13 14  1  0  0  0  0
 14 15  2  0  0  0  0
 15 16  1  0  0  0  0
 15 24  1  0  0  0  0
 16 17  1  0  0  0  0
 17 18  2  0  0  0  0
 18 25  1  0  0  0  0
 19 26  1  0  0  0  0
 19 18  1  0  0  0  0
 20 19  2  0  0  0  0
 21 20  1  0  0  0  0
 21 16  2  0  0  0  0
 22 21  1  0  0  0  0
 23 14  1  0  0  0  0
 27 20  1  0  0  0  0
 28 22  1  0  0  0  0
 29 30  1  0  0  0  0
 30 39  1  0  0  0  0
 30 31  2  0  0  0  0
 31 32  1  0  0  0  0
 32 33  1  0  0  0  0
 32 37  1  0  0  0  0
 33 35  1  0  0  0  0
 34 33  2  0  0  0  0
 35 37  1  0  0  0  0
 35 36  1  0  0  0  0
 37 38  1  6  0  0  0
 39 38  1  0  0  0  0
 40 39  1  0  0  0  0
 41 31  1  0  0  0  0
 42 43  1  0  0  0  0
 42 41  1  0  0  0  0
 44 43  1  0  0  0  0
M  END
>  <minimizedAffinity>
-6.31152916

$$$$

 OpenBabel03242523353D

 44 48  0  0  1  0  0  0  0  0999 V2000
   37.6880   31.9440   37.4070 C   0  0  0  0  0  0  0  0  0  0  0  0
   37.4280   31.7040   38.7610 C   0  0  0  0  0  0  0  0  0  0  0  0
   36.8170   30.5150   39.1700 C   0  0  0  0  0  0  0  0  0  0  0  0
   36.4850   29.5980   38.1990 N   0  0  0  0  0  0  0  0  0  0  0  0
   36.7440   29.8480   36.8900 C   0  0  0  0  0  0  0  0  0  0  0  0
   37.3330   31.0030   36.5260 N   0  0  0  0  0  0  0  0  0  0  0  0
   38.1610   32.8720   37.1140 H   0  0  0  0  0  0  0  0  0  0  0  0
   37.6850   32.4120   39.5150 H   0  0  0  0  0  0  0  0  0  0  0  0
   36.3380   28.7920   35.9340 C   0  0  0  0  0  0  0  0  0  0  0  0
   36.1970   29.2970   34.9810 H   0  0  0  0  0  0  0  0  0  0  0  0
   37.1570   28.0360   35.7880 H   0  0  0  0  0  0  0  0  0  0  0  0
   34.9050   27.9540   36.6120 S   0  0  0  0  0  0  0  0  0  0  0  0
   33.4290   28.9080   36.3440 C   0  0  0  0  0  0  0  0  0  0  0  0
   33.1460   29.3140   35.0580 C   0  0  0  0  0  0  0  0  0  0  0  0
   32.0170   30.0480   34.8510 C   0  0  0  0  0  0  0  0  0  0  0  0
   31.1480   30.3960   35.8990 C   0  0  0  0  0  0  0  0  0  0  0  0
   30.0470   31.1210   35.6350 N   0  0  0  0  0  0  0  0  0  0  0  0
   29.1920   31.4710   36.6200 C   0  0  0  0  0  0  0  0  0  0  0  0
   29.4600   31.0770   37.8940 C   0  0  0  0  0  0  0  0  0  0  0  0
   30.5900   30.3340   38.1490 C   0  0  0  0  0  0  0  0  0  0  0  0
   31.4970   29.9510   37.1700 C   0  0  0  0  0  0  0  0  0  0  0  0
   32.6240   29.2130   37.4160 C   0  0  0  0  0  0  0  0  0  0  0  0
   33.7330   29.1110   34.1720 H   0  0  0  0  0  0  0  0  0  0  0  0
   31.7340   30.4020   33.8510 H   0  0  0  0  0  0  0  0  0  0  0  0
   28.3320   32.0530   36.3220 H   0  0  0  0  0  0  0  0  0  0  0  0
   28.7870   31.3460   38.6990 H   0  0  0  0  0  0  0  0  0  0  0  0
   30.7810   30.0320   39.1730 H   0  0  0  0  0  0  0  0  0  0  0  0
   32.8320   28.9060   38.4110 H   0  0  0  0  0  0  0  0  0  0  0  0
   36.4550   30.1900   40.5360 C   0  0  0  0  0  2  0  0  0  0  0  0
   37.2670   29.3170   41.3440 C   0  0  0  0  0  0  0  0  0  0  0  0
   38.4050   29.4810   42.0060 C   0  0  0  0  0  0  0  0  0  0  0  0
   39.0590   28.4540   42.7840 N   0  0  0  0  0  0  0  0  0  0  0  0
   40.2330   27.7570   43.1810 C   0  0  0  0  0  0  0  0  0  0  0  0
   41.4050   28.2160   43.3200 O   0  0  0  0  0  0  0  0  0  0  0  0
   39.3410   26.5420   43.2710 C   0  0  0  0  0  3  0  0  0  0  0  0
   39.6400   25.8320   44.0490 H   0  0  0  0  0  0  0  0  0  0  0  0
   38.3200   27.5760   43.6790 C   0  0  2  0  0  3  0  0  0  0  0  0
   36.6360   27.3070   43.0910 S   0  0  0  0  0  0  0  0  0  0  0  0
   36.6660   27.9600   41.3990 C   0  0  0  0  0  3  0  0  0  0  0  0
   37.2180   27.2550   40.7370 H   0  0  0  0  0  0  0  0  0  0  0  0
   39.0050   30.8080   41.9290 C   0  0  0  0  0  2  0  0  0  0  0  0
   40.0980   30.9450   41.2780 O   0  0  0  0  0  0  0  0  0  0  0  0
   39.6010   32.0500   41.8360 O   0  0  0  0  0  0  0  0  0  0  0  0
   39.0610   32.9130   41.9250 H   0  0  0  0  0  0  0  0  0  0  0  0
  1  2  1  0  0  0  0
  2  3  2  0  0  0  0
  2  8  1  0  0  0  0
  3 29  1  0  0  0  0
  4  3  1  0  0  0  0
  5  4  2  0  0  0  0
  6  5  1  0  0  0  0
  6  1  2  0  0  0  0
  7  1  1  0  0  0  0
  9 12  1  0  0  0  0
  9  5  1  0  0  0  0
 10  9  1  0  0  0  0
 11  9  1  0  0  0  0
 13 12  1  0  0  0  0
 13 22  1  0  0  0  0
 14 13  2  0  0  0  0
 15 14  1  0  0  0  0
 15 16  2  0  0  0  0
 16 21  1  0  0  0  0
 17 16  1  0  0  0  0
 17 18  2  0  0  0  0
 18 19  1  0  0  0  0
 19 20  2  0  0  0  0
 19 26  1  0  0  0  0
 20 27  1  0  0  0  0
 21 22  2  0  0  0  0
 21 20  1  0  0  0  0
 22 28  1  0  0  0  0
 23 14  1  0  0  0  0
 24 15  1  0  0  0  0
 25 18  1  0  0  0  0
 29 30  1  0  0  0  0
 30 39  1  0  0  0  0
 30 31  2  0  0  0  0
 31 32  1  0  0  0  0
 32 33  1  0  0  0  0
 32 37  1  0  0  0  0
 33 35  1  0  0  0  0
 33 34  2  0  0  0  0
 35 37  1  0  0  0  0
 35 36  1  0  0  0  0
 37 38  1  6  0  0  0
 39 38  1  0  0  0  0
 40 39  1  0  0  0  0
 41 31  1  0  0  0  0
 42 43  1  0  0  0  0
 42 41  1  0  0  0  0
 43 44  1  0  0  0  0
M  END
>  <minimizedAffinity>
-6.27603245

$$$$

 OpenBabel03242523353D

 44 48  0  0  1  0  0  0  0  0999 V2000
   37.1320   30.7400   39.6830 C   0  0  0  0  0  0  0  0  0  0  0  0
   37.9450   31.7970   39.2590 C   0  0  0  0  0  0  0  0  0  0  0  0
   39.0650   32.1790   40.0030 C   0  0  0  0  0  0  0  0  0  0  0  0
   39.3370   31.4800   41.1580 N   0  0  0  0  0  0  0  0  0  0  0  0
   38.5370   30.4570   41.5540 C   0  0  0  0  0  0  0  0  0  0  0  0
   37.4640   30.1120   40.8170 N   0  0  0  0  0  0  0  0  0  0  0  0
   36.2700   30.4630   39.0920 H   0  0  0  0  0  0  0  0  0  0  0  0
   37.7370   32.3400   38.3660 H   0  0  0  0  0  0  0  0  0  0  0  0
   38.9240   29.7810   42.8150 C   0  0  0  0  0  0  0  0  0  0  0  0
   39.8890   29.3210   42.6170 H   0  0  0  0  0  0  0  0  0  0  0  0
   39.0760   30.5220   43.6450 H   0  0  0  0  0  0  0  0  0  0  0  0
   37.5920   28.6720   43.2770 S   0  0  0  0  0  0  0  0  0  0  0  0
   37.8840   27.0350   42.6470 C   0  0  0  0  0  0  0  0  0  0  0  0
   39.0090   26.3670   43.0820 C   0  0  0  0  0  0  0  0  0  0  0  0
   39.2370   25.1140   42.5980 C   0  0  0  0  0  0  0  0  0  0  0  0
   38.3680   24.4960   41.6830 C   0  0  0  0  0  0  0  0  0  0  0  0
   38.6430   23.2550   41.2410 N   0  0  0  0  0  0  0  0  0  0  0  0
   37.8280   22.6350   40.3620 C   0  0  0  0  0  0  0  0  0  0  0  0
   36.7150   23.2840   39.9250 C   0  0  0  0  0  0  0  0  0  0  0  0
   36.4460   24.5520   40.3870 C   0  0  0  0  0  0  0  0  0  0  0  0
   37.2540   25.2300   41.2900 C   0  0  0  0  0  0  0  0  0  0  0  0
   36.9930   26.4920   41.7530 C   0  0  0  0  0  0  0  0  0  0  0  0
   39.7490   26.7340   43.7800 H   0  0  0  0  0  0  0  0  0  0  0  0
   40.1120   24.5270   42.9040 H   0  0  0  0  0  0  0  0  0  0  0  0
   38.1210   21.6400   40.0580 H   0  0  0  0  0  0  0  0  0  0  0  0
   36.0470   22.8030   39.2200 H   0  0  0  0  0  0  0  0  0  0  0  0
   35.5520   25.0470   40.0230 H   0  0  0  0  0  0  0  0  0  0  0  0
   36.1230   26.9970   41.4110 H   0  0  0  0  0  0  0  0  0  0  0  0
   39.9400   33.2900   39.6840 C   0  0  0  0  0  2  0  0  0  0  0  0
   41.2620   33.0820   39.1520 C   0  0  0  0  0  0  0  0  0  0  0  0
   42.4670   33.0090   39.7030 C   0  0  0  0  0  0  0  0  0  0  0  0
   43.6910   32.7760   38.9720 N   0  0  0  0  0  0  0  0  0  0  0  0
   45.0590   33.0710   38.7160 C   0  0  0  0  0  0  0  0  0  0  0  0
   45.9490   33.4300   39.5430 O   0  0  0  0  0  0  0  0  0  0  0  0
   44.7390   32.7490   37.2760 C   0  0  0  0  0  3  0  0  0  0  0  0
   45.5770   32.3060   36.7270 H   0  0  0  0  0  0  0  0  0  0  0  0
   43.7850   31.7720   37.9220 C   0  0  2  0  0  3  0  0  0  0  0  0
   42.2000   31.5430   37.0930 S   0  0  0  0  0  0  0  0  0  0  0  0
   41.2070   32.9440   37.6740 C   0  0  0  0  0  3  0  0  0  0  0  0
   41.5530   33.8790   37.1770 H   0  0  0  0  0  0  0  0  0  0  0  0
   42.5200   33.1690   41.1510 C   0  0  0  0  0  2  0  0  0  0  0  0
   43.1740   34.1580   41.6310 O   0  0  0  0  0  0  0  0  0  0  0  0
   42.5920   33.3510   42.5180 O   0  0  0  0  0  0  0  0  0  0  0  0
   41.8740   32.9850   43.1470 H   0  0  0  0  0  0  0  0  0  0  0  0
  1  6  1  0  0  0  0
  2  1  2  0  0  0  0
  2  3  1  0  0  0  0
  3  4  2  0  0  0  0
  4  5  1  0  0  0  0
  5  9  1  0  0  0  0
  6  5  2  0  0  0  0
  7  1  1  0  0  0  0
  8  2  1  0  0  0  0
  9 12  1  0  0  0  0
  9 11  1  0  0  0  0
 10  9  1  0  0  0  0
 13 14  1  0  0  0  0
 13 12  1  0  0  0  0
 14 23  1  0  0  0  0
 15 24  1  0  0  0  0
 15 14  2  0  0  0  0
 16 15  1  0  0  0  0
 17 16  2  0  0  0  0
 18 17  1  0  0  0  0
 19 18  2  0  0  0  0
 19 20  1  0  0  0  0
 20 21  2  0  0  0  0
 21 16  1  0  0  0  0
 21 22  1  0  0  0  0
 22 13  2  0  0  0  0
 25 18  1  0  0  0  0
 26 19  1  0  0  0  0
 27 20  1  0  0  0  0
 28 22  1  0  0  0  0
 29  3  1  0  0  0  0
 30 29  1  0  0  0  0
 30 31  2  0  0  0  0
 31 41  1  0  0  0  0
 32 31  1  0  0  0  0
 33 32  1  0  0  0  0
 33 34  2  0  0  0  0
 35 37  1  0  0  0  0
 35 33  1  0  0  0  0
 36 35  1  0  0  0  0
 37 38  1  6  0  0  0
 37 32  1  0  0  0  0
 38 39  1  0  0  0  0
 39 30  1  0  0  0  0
 40 39  1  0  0  0  0
 41 42  1  0  0  0  0
 42 43  1  0  0  0  0
 43 44  1  0  0  0  0
M  END
>  <minimizedAffinity>
-6.22059202

$$$$

 OpenBabel03242523353D

 44 48  0  0  1  0  0  0  0  0999 V2000
   42.7640   32.8510   39.5540 C   0  0  0  0  0  0  0  0  0  0  0  0
   41.7570   32.6960   38.5950 C   0  0  0  0  0  0  0  0  0  0  0  0
   40.6540   31.8750   38.8450 C   0  0  0  0  0  0  0  0  0  0  0  0
   40.5960   31.2310   40.0610 N   0  0  0  0  0  0  0  0  0  0  0  0
   41.5830   31.3930   40.9790 C   0  0  0  0  0  0  0  0  0  0  0  0
   42.6340   32.1900   40.7100 N   0  0  0  0  0  0  0  0  0  0  0  0
   43.6090   33.4910   39.3380 H   0  0  0  0  0  0  0  0  0  0  0  0
   41.7990   33.1930   37.6530 H   0  0  0  0  0  0  0  0  0  0  0  0
   41.4170   30.6480   42.2490 C   0  0  0  0  0  0  0  0  0  0  0  0
   41.8070   29.6510   42.0580 H   0  0  0  0  0  0  0  0  0  0  0  0
   42.0430   31.0950   43.0690 H   0  0  0  0  0  0  0  0  0  0  0  0
   39.6920   30.7520   42.7290 S   0  0  0  0  0  0  0  0  0  0  0  0
   38.8980   29.1680   42.5810 C   0  0  0  0  0  0  0  0  0  0  0  0
   37.8240   28.9040   43.4040 C   0  0  0  0  0  0  0  0  0  0  0  0
   37.2160   27.6890   43.2950 C   0  0  0  0  0  0  0  0  0  0  0  0
   37.6500   26.7160   42.3800 C   0  0  0  0  0  0  0  0  0  0  0  0
   37.0100   25.5340   42.3150 N   0  0  0  0  0  0  0  0  0  0  0  0
   37.4020   24.5780   41.4460 C   0  0  0  0  0  0  0  0  0  0  0  0
   38.4610   24.8260   40.6300 C   0  0  0  0  0  0  0  0  0  0  0  0
   39.1050   26.0400   40.7060 C   0  0  0  0  0  0  0  0  0  0  0  0
   38.7390   27.0520   41.5830 C   0  0  0  0  0  0  0  0  0  0  0  0
   39.3760   28.2620   41.6650 C   0  0  0  0  0  0  0  0  0  0  0  0
   37.3990   29.5680   44.1450 H   0  0  0  0  0  0  0  0  0  0  0  0
   36.3560   27.4160   43.9190 H   0  0  0  0  0  0  0  0  0  0  0  0
   36.8340   23.6590   41.4590 H   0  0  0  0  0  0  0  0  0  0  0  0
   38.7920   24.0720   39.9240 H   0  0  0  0  0  0  0  0  0  0  0  0
   39.9470   26.2120   40.0430 H   0  0  0  0  0  0  0  0  0  0  0  0
   40.2020   28.4540   41.0260 H   0  0  0  0  0  0  0  0  0  0  0  0
   39.5850   31.6020   37.9040 C   0  0  0  0  0  2  0  0  0  0  0  0
   38.5890   30.5950   38.1640 C   0  0  0  0  0  0  0  0  0  0  0  0
   37.4600   30.5860   38.8610 C   0  0  0  0  0  0  0  0  0  0  0  0
   36.5810   29.4470   38.9850 N   0  0  0  0  0  0  0  0  0  0  0  0
   35.7580   28.5940   39.7720 C   0  0  0  0  0  0  0  0  0  0  0  0
   35.0420   28.9030   40.7700 O   0  0  0  0  0  0  0  0  0  0  0  0
   36.2230   27.4900   38.8540 C   0  0  0  0  0  3  0  0  0  0  0  0
   35.4740   26.7070   38.6910 H   0  0  0  0  0  0  0  0  0  0  0  0
   36.2310   28.6130   37.8440 C   0  0  2  0  0  3  0  0  0  0  0  0
   37.5610   28.5790   36.6270 S   0  0  0  0  0  0  0  0  0  0  0  0
   38.9640   29.3180   37.5050 C   0  0  0  0  0  3  0  0  0  0  0  0
   39.3630   28.5910   38.2500 H   0  0  0  0  0  0  0  0  0  0  0  0
   37.1080   31.8340   39.5270 C   0  0  0  0  0  2  0  0  0  0  0  0
   36.8300   31.8020   40.7750 O   0  0  0  0  0  0  0  0  0  0  0  0
   36.7700   32.9990   40.1890 O   0  0  0  0  0  0  0  0  0  0  0  0
   37.0800   33.9150   39.8580 H   0  0  0  0  0  0  0  0  0  0  0  0
  1  6  1  0  0  0  0
  2  3  1  0  0  0  0
  2  1  2  0  0  0  0
  3  4  2  0  0  0  0
  4  5  1  0  0  0  0
  5  9  1  0  0  0  0
  6  5  2  0  0  0  0
  7  1  1  0  0  0  0
  8  2  1  0  0  0  0
  9 12  1  0  0  0  0
  9 11  1  0  0  0  0
 10  9  1  0  0  0  0
 13 12  1  0  0  0  0
 13 14  1  0  0  0  0
 14 23  1  0  0  0  0
 15 14  2  0  0  0  0
 15 24  1  0  0  0  0
 16 15  1  0  0  0  0
 17 16  1  0  0  0  0
 18 25  1  0  0  0  0
 18 17  2  0  0  0  0
 19 20  2  0  0  0  0
 19 18  1  0  0  0  0
 20 21  1  0  0  0  0
 21 22  1  0  0  0  0
 21 16  2  0  0  0  0
 22 13  2  0  0  0  0
 26 19  1  0  0  0  0
 27 20  1  0  0  0  0
 28 22  1  0  0  0  0
 29 30  1  0  0  0  0
 29  3  1  0  0  0  0
 30 31  2  0  0  0  0
 31 32  1  0  0  0  0
 31 41  1  0  0  0  0
 32 33  1  0  0  0  0
 33 34  2  0  0  0  0
 35 33  1  0  0  0  0
 36 35  1  0  0  0  0
 37 38  1  6  0  0  0
 37 35  1  0  0  0  0
 37 32  1  0  0  0  0
 38 39  1  0  0  0  0
 39 30  1  0  0  0  0
 39 40  1  0  0  0  0
 41 42  1  0  0  0  0
 43 42  1  0  0  0  0
 44 43  1  0  0  0  0
M  END
>  <minimizedAffinity>
-6.03937435

$$$$

 OpenBabel03242523353D

 44 48  0  0  1  0  0  0  0  0999 V2000
   36.8840   30.0710   36.2290 C   0  0  0  0  0  0  0  0  0  0  0  0
   36.8850   29.7590   37.5920 C   0  0  0  0  0  0  0  0  0  0  0  0
   35.9610   28.8510   38.1180 C   0  0  0  0  0  0  0  0  0  0  0  0
   35.0590   28.2790   37.2480 N   0  0  0  0  0  0  0  0  0  0  0  0
   35.0720   28.5930   35.9280 C   0  0  0  0  0  0  0  0  0  0  0  0
   35.9740   29.4730   35.4510 N   0  0  0  0  0  0  0  0  0  0  0  0
   37.6080   30.7760   35.8440 H   0  0  0  0  0  0  0  0  0  0  0  0
   37.5820   30.2000   38.2670 H   0  0  0  0  0  0  0  0  0  0  0  0
   34.0530   27.9210   35.0890 C   0  0  0  0  0  0  0  0  0  0  0  0
   34.0910   28.4200   34.1240 H   0  0  0  0  0  0  0  0  0  0  0  0
   34.3160   26.8430   34.9130 H   0  0  0  0  0  0  0  0  0  0  0  0
   32.4870   27.9890   35.9620 S   0  0  0  0  0  0  0  0  0  0  0  0
   31.5280   29.3890   35.4300 C   0  0  0  0  0  0  0  0  0  0  0  0
   31.2750   30.3860   36.3480 C   0  0  0  0  0  0  0  0  0  0  0  0
   30.5370   31.4570   35.9430 C   0  0  0  0  0  0  0  0  0  0  0  0
   30.0360   31.5700   34.6350 C   0  0  0  0  0  0  0  0  0  0  0  0
   29.3150   32.6520   34.2920 N   0  0  0  0  0  0  0  0  0  0  0  0
   28.8200   32.7890   33.0430 C   0  0  0  0  0  0  0  0  0  0  0  0
   29.0620   31.8120   32.1280 C   0  0  0  0  0  0  0  0  0  0  0  0
   29.8030   30.7120   32.4940 C   0  0  0  0  0  0  0  0  0  0  0  0
   30.3310   30.5260   33.7640 C   0  0  0  0  0  0  0  0  0  0  0  0
   31.0680   29.4330   34.1350 C   0  0  0  0  0  0  0  0  0  0  0  0
   31.6040   30.4140   37.3780 H   0  0  0  0  0  0  0  0  0  0  0  0
   30.3000   32.2850   36.6240 H   0  0  0  0  0  0  0  0  0  0  0  0
   28.2520   33.6880   32.8510 H   0  0  0  0  0  0  0  0  0  0  0  0
   28.6750   31.9040   31.1200 H   0  0  0  0  0  0  0  0  0  0  0  0
   29.9820   29.9470   31.7450 H   0  0  0  0  0  0  0  0  0  0  0  0
   31.2570   28.6720   33.4190 H   0  0  0  0  0  0  0  0  0  0  0  0
   35.8390   28.5000   39.5190 C   0  0  0  0  0  2  0  0  0  0  0  0
   36.5930   27.4160   40.0930 C   0  0  0  0  0  0  0  0  0  0  0  0
   37.1560   27.2230   41.2790 C   0  0  0  0  0  0  0  0  0  0  0  0
   37.8730   26.0290   41.6640 N   0  0  0  0  0  0  0  0  0  0  0  0
   38.9830   25.3950   42.2870 C   0  0  0  0  0  0  0  0  0  0  0  0
   39.6280   25.7740   43.3080 O   0  0  0  0  0  0  0  0  0  0  0  0
   38.8400   24.3460   41.2100 C   0  0  0  0  0  3  0  0  0  0  0  0
   39.1230   23.3390   41.5350 H   0  0  0  0  0  0  0  0  0  0  0  0
   37.3770   24.6960   41.3510 C   0  0  2  0  0  3  0  0  0  0  0  0
   36.4100   24.6980   39.8290 S   0  0  0  0  0  0  0  0  0  0  0  0
   36.7600   26.3220   39.1020 C   0  0  0  0  0  3  0  0  0  0  0  0
   37.7900   26.3260   38.6780 H   0  0  0  0  0  0  0  0  0  0  0  0
   37.0110   28.3090   42.2410 C   0  0  0  0  0  2  0  0  0  0  0  0
   37.8250   28.3630   43.2260 O   0  0  0  0  0  0  0  0  0  0  0  0
   36.9030   29.3240   43.1720 O   0  0  0  0  0  0  0  0  0  0  0  0
   36.4740   30.2230   42.9390 H   0  0  0  0  0  0  0  0  0  0  0  0
  1  2  1  0  0  0  0
  2  3  2  0  0  0  0
  2  8  1  0  0  0  0
  3 29  1  0  0  0  0
  4  3  1  0  0  0  0
  5  4  2  0  0  0  0
  6  5  1  0  0  0  0
  6  1  2  0  0  0  0
  7  1  1  0  0  0  0
  9  5  1  0  0  0  0
  9 12  1  0  0  0  0
 10  9  1  0  0  0  0
 11  9  1  0  0  0  0
 13 12  1  0  0  0  0
 13 14  1  0  0  0  0
 14 23  1  0  0  0  0
 15 14  2  0  0  0  0
 15 24  1  0  0  0  0
 16 15  1  0  0  0  0
 17 16  1  0  0  0  0
 18 17  2  0  0  0  0
 19 20  2  0  0  0  0
 19 18  1  0  0  0  0
 20 21  1  0  0  0  0
 21 22  1  0  0  0  0
 21 16  2  0  0  0  0
 22 13  2  0  0  0  0
 25 18  1  0  0  0  0
 26 19  1  0  0  0  0
 27 20  1  0  0  0  0
 28 22  1  0  0  0  0
 29 30  1  0  0  0  0
 30 31  2  0  0  0  0
 31 32  1  0  0  0  0
 31 41  1  0  0  0  0
 32 33  1  0  0  0  0
 33 34  2  0  0  0  0
 35 37  1  0  0  0  0
 35 36  1  0  0  0  0
 35 33  1  0  0  0  0
 37 38  1  6  0  0  0
 37 32  1  0  0  0  0
 39 38  1  0  0  0  0
 39 30  1  0  0  0  0
 40 39  1  0  0  0  0
 41 42  1  0  0  0  0
 43 42  1  0  0  0  0
 44 43  1  0  0  0  0
M  END
>  <minimizedAffinity>
-6.02539253

$$$$

 OpenBabel03242523353D

 44 48  0  0  1  0  0  0  0  0999 V2000
   42.7370   31.9800   37.4650 C   0  0  0  0  0  0  0  0  0  0  0  0
   41.4490   31.6770   37.0100 C   0  0  0  0  0  0  0  0  0  0  0  0
   40.3330   31.9140   37.8180 C   0  0  0  0  0  0  0  0  0  0  0  0
   40.5480   32.4520   39.0670 N   0  0  0  0  0  0  0  0  0  0  0  0
   41.8050   32.7390   39.4920 C   0  0  0  0  0  0  0  0  0  0  0  0
   42.8610   32.5000   38.6910 N   0  0  0  0  0  0  0  0  0  0  0  0
   43.5850   31.7880   36.8220 H   0  0  0  0  0  0  0  0  0  0  0  0
   41.2790   31.2610   36.0440 H   0  0  0  0  0  0  0  0  0  0  0  0
   41.9160   33.3100   40.8550 C   0  0  0  0  0  0  0  0  0  0  0  0
   42.4340   34.2580   40.7340 H   0  0  0  0  0  0  0  0  0  0  0  0
   40.9030   33.5400   41.2850 H   0  0  0  0  0  0  0  0  0  0  0  0
   42.7150   32.0920   41.9000 S   0  0  0  0  0  0  0  0  0  0  0  0
   41.5930   30.7740   42.3080 C   0  0  0  0  0  0  0  0  0  0  0  0
   40.2410   31.0340   42.2430 C   0  0  0  0  0  0  0  0  0  0  0  0
   39.3790   30.0260   42.5590 C   0  0  0  0  0  0  0  0  0  0  0  0
   39.8270   28.7510   42.9420 C   0  0  0  0  0  0  0  0  0  0  0  0
   38.9300   27.7940   43.2400 N   0  0  0  0  0  0  0  0  0  0  0  0
   39.3290   26.5590   43.6110 C   0  0  0  0  0  0  0  0  0  0  0  0
   40.6600   26.2910   43.6800 C   0  0  0  0  0  0  0  0  0  0  0  0
   41.5670   27.2790   43.3700 C   0  0  0  0  0  0  0  0  0  0  0  0
   41.2050   28.5630   42.9840 C   0  0  0  0  0  0  0  0  0  0  0  0
   42.1010   29.5510   42.6760 C   0  0  0  0  0  0  0  0  0  0  0  0
   39.7750   31.9690   41.9630 H   0  0  0  0  0  0  0  0  0  0  0  0
   38.2910   30.1660   42.5270 H   0  0  0  0  0  0  0  0  0  0  0  0
   38.5440   25.8500   43.8340 H   0  0  0  0  0  0  0  0  0  0  0  0
   41.0020   25.3050   43.9750 H   0  0  0  0  0  0  0  0  0  0  0  0
   42.6230   27.0390   43.4330 H   0  0  0  0  0  0  0  0  0  0  0  0
   43.1400   29.3400   42.7290 H   0  0  0  0  0  0  0  0  0  0  0  0
   38.9640   31.5880   37.4680 C   0  0  0  0  0  2  0  0  0  0  0  0
   38.2830   30.4620   38.0510 C   0  0  0  0  0  0  0  0  0  0  0  0
   37.4920   30.3190   39.1070 C   0  0  0  0  0  0  0  0  0  0  0  0
   36.8890   29.0730   39.5200 N   0  0  0  0  0  0  0  0  0  0  0  0
   36.5340   28.1430   40.5350 C   0  0  0  0  0  0  0  0  0  0  0  0
   36.1860   28.3840   41.7290 O   0  0  0  0  0  0  0  0  0  0  0  0
   36.7930   27.0820   39.4930 C   0  0  0  0  0  3  0  0  0  0  0  0
   36.1580   26.1970   39.5970 H   0  0  0  0  0  0  0  0  0  0  0  0
   36.2780   28.1580   38.5670 C   0  0  2  0  0  3  0  0  0  0  0  0
   37.0750   28.2670   36.9520 S   0  0  0  0  0  0  0  0  0  0  0  0
   38.5770   29.2260   37.2810 C   0  0  0  0  0  3  0  0  0  0  0  0
   39.3160   28.5900   37.8200 H   0  0  0  0  0  0  0  0  0  0  0  0
   37.2260   31.5300   39.8750 C   0  0  0  0  0  2  0  0  0  0  0  0
   36.2460   31.5250   40.6980 O   0  0  0  0  0  0  0  0  0  0  0  0
   36.9450   32.6590   40.6190 O   0  0  0  0  0  0  0  0  0  0  0  0
   37.6630   33.3540   40.8340 H   0  0  0  0  0  0  0  0  0  0  0  0
  1  6  1  0  0  0  0
  2  1  2  0  0  0  0
  2  3  1  0  0  0  0
  3  4  2  0  0  0  0
  4  5  1  0  0  0  0
  5  9  1  0  0  0  0
  6  5  2  0  0  0  0
  7  1  1  0  0  0  0
  8  2  1  0  0  0  0
  9 11  1  0  0  0  0
  9 12  1  0  0  0  0
 10  9  1  0  0  0  0
 12 13  1  0  0  0  0
 13 22  1  0  0  0  0
 14 13  2  0  0  0  0
 14 15  1  0  0  0  0
 15 16  2  0  0  0  0
 16 21  1  0  0  0  0
 16 17  1  0  0  0  0
 17 18  2  0  0  0  0
 18 19  1  0  0  0  0
 18 25  1  0  0  0  0
 19 26  1  0  0  0  0
 20 27  1  0  0  0  0
 20 19  2  0  0  0  0
 21 20  1  0  0  0  0
 22 28  1  0  0  0  0
 22 21  2  0  0  0  0
 23 14  1  0  0  0  0
 24 15  1  0  0  0  0
 29  3  1  0  0  0  0
 29 30  1  0  0  0  0
 30 31  2  0  0  0  0
 31 32  1  0  0  0  0
 31 41  1  0  0  0  0
 32 33  1  0  0  0  0
 33 34  2  0  0  0  0
 35 36  1  0  0  0  0
 35 33  1  0  0  0  0
 37 38  1  6  0  0  0
 37 35  1  0  0  0  0
 37 32  1  0  0  0  0
 38 39  1  0  0  0  0
 39 40  1  0  0  0  0
 39 30  1  0  0  0  0
 41 42  1  0  0  0  0
 43 42  1  0  0  0  0
 43 44  1  0  0  0  0
M  END
>  <minimizedAffinity>
-5.97524881

$$$$
