
 OpenBabel03242510083D

 35 38  0  0  1  0  0  0  0  0999 V2000
   44.7530   32.6040   41.6180 Br  0  0  0  0  0  0  0  0  0  0  0  0
   46.3020   33.6440   41.2170 C   0  0  0  0  0  0  0  0  0  0  0  0
   46.7700   34.5800   42.1230 C   0  0  0  0  0  0  0  0  0  0  0  0
   47.8910   35.3580   41.8500 C   0  0  0  0  0  0  0  0  0  0  0  0
   48.5150   35.1630   40.6490 C   0  0  0  0  0  0  0  0  0  0  0  0
   48.0220   34.2240   39.7720 C   0  0  0  0  0  0  0  0  0  0  0  0
   46.9350   33.4570   40.0180 C   0  0  0  0  0  0  0  0  0  0  0  0
   48.2410   36.0890   42.5790 H   0  0  0  0  0  0  0  0  0  0  0  0
   49.4000   35.7700   40.4190 H   0  0  0  0  0  0  0  0  0  0  0  0
   48.5790   34.1530   38.8540 H   0  0  0  0  0  0  0  0  0  0  0  0
   45.6290   33.9990   45.5460 C   0  0  0  0  0  0  0  0  0  0  0  0
   44.6980   35.0250   45.7800 C   0  0  0  0  0  0  0  0  0  0  0  0
   44.4770   35.9160   44.7330 C   0  0  0  0  0  0  0  0  0  0  0  0
   45.1600   35.7390   43.5760 N   0  0  0  0  0  0  0  0  0  0  0  0
   46.0520   34.7330   43.3910 C   0  0  0  0  0  0  0  0  0  0  0  0
   46.2810   33.8610   44.3910 N   0  0  0  0  0  0  0  0  0  0  0  0
   45.7420   33.3510   46.4100 H   0  0  0  0  0  0  0  0  0  0  0  0
   44.1400   35.2040   46.6660 H   0  0  0  0  0  0  0  0  0  0  0  0
   43.7980   36.7720   44.7210 H   0  0  0  0  0  0  0  0  0  0  0  0
   46.4120   32.4530   39.0510 C   0  0  0  0  0  2  0  0  0  0  0  0
   47.3840   31.9830   38.0660 C   0  0  0  0  0  0  0  0  0  0  0  0
   47.1460   32.2020   36.7980 C   0  0  0  0  0  0  0  0  0  0  0  0
   48.0890   31.7570   35.8330 N   0  0  0  0  0  0  0  0  0  0  0  0
   48.3030   31.0980   34.5650 C   0  0  0  0  0  0  0  0  0  0  0  0
   47.5980   30.8160   33.5370 O   0  0  0  0  0  0  0  0  0  0  0  0
   49.7350   30.8560   34.9200 C   0  0  0  0  0  3  0  0  0  0  0  0
   50.3730   31.1970   34.0650 H   0  0  0  0  0  0  0  0  0  0  0  0
   49.5400   31.9350   35.9610 C   0  0  2  0  0  3  0  0  0  0  0  0
   50.0030   31.5560   37.6350 S   0  0  0  0  0  0  0  0  0  0  0  0
   48.5410   31.2650   38.6400 C   0  0  0  0  0  3  0  0  0  0  0  0
   48.3250   30.1670   38.7570 H   0  0  0  0  0  0  0  0  0  0  0  0
   45.9670   32.8890   36.2640 C   0  0  0  0  0  0  0  0  0  0  0  0
   45.2850   32.5570   35.2670 O   0  0  0  0  0  0  0  0  0  0  0  0
   45.1070   33.9410   36.3940 O   0  0  0  0  0  0  0  0  0  0  0  0
   44.3230   33.9190   37.0600 H   0  0  0  0  0  0  0  0  0  0  0  0
  2  1  1  0  0  0  0
  2  3  1  0  0  0  0
  3 15  1  0  0  0  0
  4  3  2  0  0  0  0
  4  8  1  0  0  0  0
  5  4  1  0  0  0  0
  6  7  1  0  0  0  0
  6  5  2  0  0  0  0
  7  2  2  0  0  0  0
  9  5  1  0  0  0  0
 10  6  1  0  0  0  0
 11 12  1  0  0  0  0
 11 17  1  0  0  0  0
 12 18  1  0  0  0  0
 13 12  2  0  0  0  0
 14 13  1  0  0  0  0
 15 14  2  0  0  0  0
 15 16  1  0  0  0  0
 16 11  2  0  0  0  0
 19 13  1  0  0  0  0
 20  7  1  0  0  0  0
 21 30  1  0  0  0  0
 21 20  1  0  0  0  0
 22 21  2  0  0  0  0
 23 28  1  0  0  0  0
 23 22  1  0  0  0  0
 24 26  1  0  0  0  0
 24 23  1  0  0  0  0
 25 24  2  0  0  0  0
 27 26  1  0  0  0  0
 28 26  1  6  0  0  0
 28 29  1  0  0  0  0
 29 30  1  0  0  0  0
 30 31  1  0  0  0  0
 32 34  1  0  0  0  0
 32 22  1  0  0  0  0
 33 32  2  0  0  0  0
 34 35  1  0  0  0  0
M  END
>  <minimizedAffinity>
-6.21179962

>  <minimizedRMSD>
2.00389147

$$$$
