
 OpenBabel03242519213D

 41 44  0  0  1  0  0  0  0  0999 V2000
   47.7680   33.5790   42.4930 C   0  0  0  0  0  0  0  0  0  0  0  0
   48.7130   34.6270   42.6760 C   0  0  0  0  0  0  0  0  0  0  0  0
   50.0630   34.3780   42.4330 C   0  0  0  0  0  0  0  0  0  0  0  0
   50.3810   33.1000   42.0260 N   0  0  0  0  0  0  0  0  0  0  0  0
   49.4780   32.1270   41.8600 C   0  0  0  0  0  0  0  0  0  0  0  0
   48.1730   32.3700   42.0930 N   0  0  0  0  0  0  0  0  0  0  0  0
   48.5470   35.6280   42.9830 H   0  0  0  0  0  0  0  0  0  0  0  0
   50.8450   35.0940   42.5410 H   0  0  0  0  0  0  0  0  0  0  0  0
   46.3620   33.9240   42.7820 C   0  0  0  0  0  0  0  0  0  0  0  0
   45.4120   33.3280   41.8210 C   0  0  0  0  0  0  0  0  0  0  0  0
   44.7650   34.3340   40.9130 C   0  0  0  0  0  0  0  0  0  0  0  0
   44.0560   35.4240   41.6980 C   0  0  0  0  0  0  0  0  0  0  0  0
   44.8450   35.9190   42.8730 C   0  0  0  0  0  0  0  0  0  0  0  0
   46.2730   35.4440   42.8430 C   0  0  0  0  0  0  0  0  0  0  0  0
   46.1940   33.6130   43.8560 H   0  0  0  0  0  0  0  0  0  0  0  0
   44.5650   32.8990   42.4350 H   0  0  0  0  0  0  0  0  0  0  0  0
   45.7870   32.4870   41.2360 H   0  0  0  0  0  0  0  0  0  0  0  0
   44.0060   33.8060   40.3040 H   0  0  0  0  0  0  0  0  0  0  0  0
   45.4240   34.8430   40.2100 H   0  0  0  0  0  0  0  0  0  0  0  0
   43.0300   35.1080   42.0070 H   0  0  0  0  0  0  0  0  0  0  0  0
   43.8850   36.2790   41.0120 H   0  0  0  0  0  0  0  0  0  0  0  0
   44.3480   35.4950   43.7940 H   0  0  0  0  0  0  0  0  0  0  0  0
   44.8400   37.0040   42.9700 H   0  0  0  0  0  0  0  0  0  0  0  0
   46.7560   35.8720   41.9590 H   0  0  0  0  0  0  0  0  0  0  0  0
   46.7710   35.7950   43.7720 H   0  0  0  0  0  0  0  0  0  0  0  0
   49.8960   30.7610   41.4130 C   0  0  0  0  0  2  0  0  0  0  0  0
   50.8770   30.1430   42.3010 C   0  0  0  0  0  0  0  0  0  0  0  0
   52.1740   30.0350   42.0710 C   0  0  0  0  0  0  0  0  0  0  0  0
   52.9630   29.3870   43.0570 N   0  0  0  0  0  0  0  0  0  0  0  0
   54.2010   29.3280   43.8000 C   0  0  0  0  0  0  0  0  0  0  0  0
   55.3280   29.9280   43.7270 O   0  0  0  0  0  0  0  0  0  0  0  0
   53.7040   28.2890   44.7210 C   0  0  0  0  0  3  0  0  0  0  0  0
   54.3230   27.3690   44.7940 H   0  0  0  0  0  0  0  0  0  0  0  0
   52.5290   28.2010   43.8120 C   0  0  1  0  0  3  0  0  0  0  0  0
   51.0310   28.7540   44.6680 S   0  0  0  0  0  0  0  0  0  0  0  0
   50.0870   29.6960   43.4720 C   0  0  0  0  0  3  0  0  0  0  0  0
   49.6910   30.6020   43.9840 H   0  0  0  0  0  0  0  0  0  0  0  0
   52.8310   30.5380   40.8600 C   0  0  0  0  0  0  0  0  0  0  0  0
   53.3930   30.0200   39.8870 O   0  0  0  0  0  0  0  0  0  0  0  0
   52.9310   31.8770   40.5940 O   0  0  0  0  0  0  0  0  0  0  0  0
   52.7200   32.2630   39.6910 H   0  0  0  0  0  0  0  0  0  0  0  0
  1  2  1  0  0  0  0
  1  9  1  0  0  0  0
  2  7  1  0  0  0  0
  3  8  1  0  0  0  0
  3  2  2  0  0  0  0
  4  3  1  0  0  0  0
  5  4  2  0  0  0  0
  5  6  1  0  0  0  0
  6  1  2  0  0  0  0
  9 14  1  0  0  0  0
  9 15  1  0  0  0  0
 10 16  1  0  0  0  0
 10  9  1  0  0  0  0
 11 12  1  0  0  0  0
 11 10  1  0  0  0  0
 12 20  1  0  0  0  0
 12 13  1  0  0  0  0
 13 23  1  0  0  0  0
 13 22  1  0  0  0  0
 14 13  1  0  0  0  0
 14 25  1  0  0  0  0
 17 10  1  0  0  0  0
 18 11  1  0  0  0  0
 19 11  1  0  0  0  0
 21 12  1  0  0  0  0
 24 14  1  0  0  0  0
 26  5  1  0  0  0  0
 26 27  1  0  0  0  0
 27 36  1  0  0  0  0
 28 27  2  0  0  0  0
 28 29  1  0  0  0  0
 29 30  1  0  0  0  0
 29 34  1  0  0  0  0
 30 32  1  0  0  0  0
 31 30  2  0  0  0  0
 32 33  1  0  0  0  0
 34 35  1  1  0  0  0
 34 32  1  0  0  0  0
 36 37  1  0  0  0  0
 36 35  1  0  0  0  0
 38 28  1  0  0  0  0
 39 38  2  0  0  0  0
 40 38  1  0  0  0  0
 41 40  1  0  0  0  0
M  END
>  <minimizedAffinity>
-4.64137363

>  <minimizedRMSD>
3.56973433

$$$$
