
 OpenBabel03252503073D

 27 29  0  0  1  0  0  0  0  0999 V2000
   36.5180   28.3980   40.2260 C   0  0  0  0  0  0  0  0  0  0  0  0
   36.6120   29.6050   39.7030 C   0  0  0  0  0  0  0  0  0  0  0  0
   36.7940   29.7620   38.3050 N   0  0  0  0  0  0  0  0  0  0  0  0
   37.5620   30.3810   37.2500 C   0  0  0  0  0  0  0  0  0  0  0  0
   38.2200   31.4720   37.1570 O   0  0  0  0  0  0  0  0  0  0  0  0
   37.2010   29.1760   36.4260 C   0  0  0  0  0  3  0  0  0  0  0  0
   37.8880   28.3540   36.6460 H   0  0  0  0  0  0  0  0  0  0  0  0
   35.9600   29.1160   37.2780 C   0  0  1  0  0  3  0  0  0  0  0  0
   35.5200   27.4840   37.9260 S   0  0  0  0  0  0  0  0  0  0  0  0
   36.6370   27.2300   39.3610 C   0  0  0  0  0  3  0  0  0  0  0  0
   37.6650   27.2980   38.8920 H   0  0  0  0  0  0  0  0  0  0  0  0
   36.5130   30.8100   40.5550 C   0  0  0  0  0  0  0  0  0  0  0  0
   37.1570   31.8760   40.6970 O   0  0  0  0  0  0  0  0  0  0  0  0
   35.5740   31.0720   41.5030 O   0  0  0  0  0  0  0  0  0  0  0  0
   34.9180   31.8410   41.4620 H   0  0  0  0  0  0  0  0  0  0  0  0
   36.3160   28.0100   41.6020 C   0  0  0  0  0  2  0  0  0  0  0  0
   39.4390   27.1180   43.5020 C   0  0  0  0  0  0  0  0  0  0  0  0
   38.3930   27.8930   42.9910 C   0  0  0  0  0  0  0  0  0  0  0  0
   37.4640   27.2550   42.1890 C   0  0  0  0  0  0  0  0  0  0  0  0
   37.6140   25.9370   41.9460 N   0  0  0  0  0  0  0  0  0  0  0  0
   38.6350   25.2120   42.4540 C   0  0  0  0  0  0  0  0  0  0  0  0
   39.5480   25.7940   43.2290 N   0  0  0  0  0  0  0  0  0  0  0  0
   40.2170   27.5340   44.1420 H   0  0  0  0  0  0  0  0  0  0  0  0
   38.6030   24.1680   42.1580 H   0  0  0  0  0  0  0  0  0  0  0  0
   38.3230   29.2790   43.3070 C   0  0  0  0  0  0  0  0  0  0  0  0
   39.1270   30.0620   42.7470 O   0  0  0  0  0  0  0  0  0  0  0  0
   37.7000   29.8760   43.9620 H   0  0  0  0  0  0  0  0  0  0  0  0
  1 16  1  0  0  0  0
  2  1  2  0  0  0  0
  2 12  1  0  0  0  0
  3  2  1  0  0  0  0
  4  3  1  0  0  0  0
  5  4  2  0  0  0  0
  6  7  1  0  0  0  0
  6  4  1  0  0  0  0
  8  6  1  6  0  0  0
  8  9  1  0  0  0  0
  8  3  1  0  0  0  0
  9 10  1  0  0  0  0
 10  1  1  0  0  0  0
 11 10  1  0  0  0  0
 12 13  2  0  0  0  0
 12 14  1  0  0  0  0
 15 14  1  0  0  0  0
 16 19  1  0  0  0  0
 17 23  1  0  0  0  0
 18 25  1  0  0  0  0
 18 17  2  0  0  0  0
 19 18  1  0  0  0  0
 20 19  2  0  0  0  0
 20 21  1  0  0  0  0
 21 22  2  0  0  0  0
 22 17  1  0  0  0  0
 24 21  1  0  0  0  0
 25 27  1  0  0  0  0
 26 25  2  0  0  0  0
M  END
>  <minimizedAffinity>
-5.45094299

$$$$

 OpenBabel03252503073D

 27 29  0  0  1  0  0  0  0  0999 V2000
   38.3890   29.6920   40.0610 C   0  0  0  0  0  0  0  0  0  0  0  0
   37.4750   29.4820   40.9870 C   0  0  0  0  0  0  0  0  0  0  0  0
   37.8070   28.7630   42.1640 N   0  0  0  0  0  0  0  0  0  0  0  0
   37.4590   27.6810   43.0560 C   0  0  0  0  0  0  0  0  0  0  0  0
   36.3580   27.1220   43.3830 O   0  0  0  0  0  0  0  0  0  0  0  0
   38.9320   27.5900   43.3480 C   0  0  0  0  0  3  0  0  0  0  0  0
   39.4280   26.9940   42.5770 H   0  0  0  0  0  0  0  0  0  0  0  0
   38.9620   29.0620   43.0260 C   0  0  1  0  0  3  0  0  0  0  0  0
   40.2940   29.6070   41.9280 S   0  0  0  0  0  0  0  0  0  0  0  0
   39.7310   29.1500   40.2410 C   0  0  0  0  0  3  0  0  0  0  0  0
   39.6020   28.0280   40.3170 H   0  0  0  0  0  0  0  0  0  0  0  0
   36.0990   30.0040   40.8280 C   0  0  0  0  0  0  0  0  0  0  0  0
   35.0520   29.6370   40.2450 O   0  0  0  0  0  0  0  0  0  0  0  0
   35.5900   31.1530   41.3480 O   0  0  0  0  0  0  0  0  0  0  0  0
   34.8320   31.1920   42.0150 H   0  0  0  0  0  0  0  0  0  0  0  0
   38.2770   30.4050   38.8100 C   0  0  0  0  0  2  0  0  0  0  0  0
   40.4280   33.4810   39.0650 C   0  0  0  0  0  0  0  0  0  0  0  0
   39.3830   32.5880   39.3240 C   0  0  0  0  0  0  0  0  0  0  0  0
   39.3590   31.4130   38.5950 C   0  0  0  0  0  0  0  0  0  0  0  0
   40.3300   31.1940   37.6860 N   0  0  0  0  0  0  0  0  0  0  0  0
   41.3280   32.0750   37.4560 C   0  0  0  0  0  0  0  0  0  0  0  0
   41.3830   33.2180   38.1390 N   0  0  0  0  0  0  0  0  0  0  0  0
   40.5280   34.4320   39.5900 H   0  0  0  0  0  0  0  0  0  0  0  0
   42.0230   31.7410   36.6920 H   0  0  0  0  0  0  0  0  0  0  0  0
   38.4060   32.9130   40.3060 C   0  0  0  0  0  0  0  0  0  0  0  0
   37.3040   33.3750   39.9250 O   0  0  0  0  0  0  0  0  0  0  0  0
   38.3710   32.8560   41.3870 H   0  0  0  0  0  0  0  0  0  0  0  0
  1 10  1  0  0  0  0
  1  2  2  0  0  0  0
  2  3  1  0  0  0  0
  3  8  1  0  0  0  0
  3  4  1  0  0  0  0
  4  6  1  0  0  0  0
  4  5  2  0  0  0  0
  7  6  1  0  0  0  0
  8  9  1  6  0  0  0
  8  6  1  0  0  0  0
 10 11  1  0  0  0  0
 10  9  1  0  0  0  0
 12  2  1  0  0  0  0
 12 14  1  0  0  0  0
 13 12  2  0  0  0  0
 14 15  1  0  0  0  0
 16  1  1  0  0  0  0
 17 18  1  0  0  0  0
 17 23  1  0  0  0  0
 18 25  1  0  0  0  0
 19 16  1  0  0  0  0
 19 18  2  0  0  0  0
 20 19  1  0  0  0  0
 21 20  2  0  0  0  0
 21 22  1  0  0  0  0
 22 17  2  0  0  0  0
 24 21  1  0  0  0  0
 25 27  1  0  0  0  0
 26 25  2  0  0  0  0
M  END
>  <minimizedAffinity>
-5.38679075

$$$$

 OpenBabel03252503073D

 27 29  0  0  1  0  0  0  0  0999 V2000
   38.4240   29.4120   42.2250 C   0  0  0  0  0  0  0  0  0  0  0  0
   37.9680   30.3060   41.3710 C   0  0  0  0  0  0  0  0  0  0  0  0
   38.8520   31.2560   40.7960 N   0  0  0  0  0  0  0  0  0  0  0  0
   39.1090   32.6480   40.5130 C   0  0  0  0  0  0  0  0  0  0  0  0
   38.3600   33.6620   40.3040 O   0  0  0  0  0  0  0  0  0  0  0  0
   40.5660   32.2850   40.5920 C   0  0  0  0  0  3  0  0  0  0  0  0
   40.8940   32.2820   41.6350 H   0  0  0  0  0  0  0  0  0  0  0  0
   40.1240   30.9170   40.1380 C   0  0  1  0  0  3  0  0  0  0  0  0
   40.8180   29.5160   41.0500 S   0  0  0  0  0  0  0  0  0  0  0  0
   39.8330   29.4280   42.5980 C   0  0  0  0  0  3  0  0  0  0  0  0
   40.0160   30.4420   43.0660 H   0  0  0  0  0  0  0  0  0  0  0  0
   36.5400   30.3270   40.9840 C   0  0  0  0  0  0  0  0  0  0  0  0
   35.8050   29.6910   40.1930 O   0  0  0  0  0  0  0  0  0  0  0  0
   35.5700   31.1510   41.4630 O   0  0  0  0  0  0  0  0  0  0  0  0
   34.7560   30.8400   41.9760 H   0  0  0  0  0  0  0  0  0  0  0  0
   37.7150   28.3540   42.9080 C   0  0  0  0  0  2  0  0  0  0  0  0
   38.6920   24.9140   41.7390 C   0  0  0  0  0  0  0  0  0  0  0  0
   38.0290   26.1450   41.7780 C   0  0  0  0  0  0  0  0  0  0  0  0
   38.3750   27.0180   42.7940 C   0  0  0  0  0  0  0  0  0  0  0  0
   39.3180   26.6410   43.6800 N   0  0  0  0  0  0  0  0  0  0  0  0
   39.9420   25.4450   43.6170 C   0  0  0  0  0  0  0  0  0  0  0  0
   39.6350   24.5780   42.6540 N   0  0  0  0  0  0  0  0  0  0  0  0
   38.4850   24.1630   40.9750 H   0  0  0  0  0  0  0  0  0  0  0  0
   40.6730   25.3040   44.4080 H   0  0  0  0  0  0  0  0  0  0  0  0
   37.0470   26.4490   40.7940 C   0  0  0  0  0  0  0  0  0  0  0  0
   37.4300   26.8350   39.6640 O   0  0  0  0  0  0  0  0  0  0  0  0
   35.9640   26.4280   40.7740 H   0  0  0  0  0  0  0  0  0  0  0  0
  1 10  1  0  0  0  0
  1 16  1  0  0  0  0
  2  1  2  0  0  0  0
  3  2  1  0  0  0  0
  4  6  1  0  0  0  0
  4  3  1  0  0  0  0
  5  4  2  0  0  0  0
  6  7  1  0  0  0  0
  8  6  1  1  0  0  0
  8  3  1  0  0  0  0
  8  9  1  0  0  0  0
  9 10  1  0  0  0  0
 10 11  1  0  0  0  0
 12  2  1  0  0  0  0
 12 14  1  0  0  0  0
 13 12  2  0  0  0  0
 14 15  1  0  0  0  0
 17 18  2  0  0  0  0
 17 22  1  0  0  0  0
 18 19  1  0  0  0  0
 19 16  1  0  0  0  0
 19 20  2  0  0  0  0
 21 20  1  0  0  0  0
 21 24  1  0  0  0  0
 22 21  2  0  0  0  0
 23 17  1  0  0  0  0
 25 18  1  0  0  0  0
 26 25  2  0  0  0  0
 27 25  1  0  0  0  0
M  END
>  <minimizedAffinity>
-5.24442768

$$$$

 OpenBabel03252503073D

 27 29  0  0  1  0  0  0  0  0999 V2000
   38.4870   29.4700   40.3390 C   0  0  0  0  0  0  0  0  0  0  0  0
   37.5080   29.2720   41.2000 C   0  0  0  0  0  0  0  0  0  0  0  0
   37.7280   28.4760   42.3550 N   0  0  0  0  0  0  0  0  0  0  0  0
   37.2650   27.3750   43.1670 C   0  0  0  0  0  0  0  0  0  0  0  0
   36.1160   26.8700   43.4020 O   0  0  0  0  0  0  0  0  0  0  0  0
   38.7100   27.1800   43.5350 C   0  0  0  0  0  3  0  0  0  0  0  0
   39.2160   26.5930   42.7640 H   0  0  0  0  0  0  0  0  0  0  0  0
   38.8460   28.6610   43.2940 C   0  0  1  0  0  3  0  0  0  0  0  0
   40.2700   29.1770   42.3030 S   0  0  0  0  0  0  0  0  0  0  0  0
   39.7810   28.8390   40.5650 C   0  0  0  0  0  3  0  0  0  0  0  0
   39.5830   27.7250   40.5750 H   0  0  0  0  0  0  0  0  0  0  0  0
   36.1780   29.8850   40.9920 C   0  0  0  0  0  0  0  0  0  0  0  0
   35.0810   29.5260   40.5030 O   0  0  0  0  0  0  0  0  0  0  0  0
   35.7900   31.1440   41.3290 O   0  0  0  0  0  0  0  0  0  0  0  0
   35.0650   31.3590   41.9990 H   0  0  0  0  0  0  0  0  0  0  0  0
   38.4910   30.2500   39.1230 C   0  0  0  0  0  2  0  0  0  0  0  0
   40.7340   33.2570   38.8340 C   0  0  0  0  0  0  0  0  0  0  0  0
   40.2470   31.9620   38.6300 C   0  0  0  0  0  0  0  0  0  0  0  0
   39.0790   31.6130   39.2860 C   0  0  0  0  0  0  0  0  0  0  0  0
   38.4820   32.5290   40.0750 N   0  0  0  0  0  0  0  0  0  0  0  0
   38.9750   33.7740   40.2530 C   0  0  0  0  0  0  0  0  0  0  0  0
   40.0970   34.1430   39.6390 N   0  0  0  0  0  0  0  0  0  0  0  0
   41.6460   33.6200   38.3600 H   0  0  0  0  0  0  0  0  0  0  0  0
   38.3690   34.3800   40.9200 H   0  0  0  0  0  0  0  0  0  0  0  0
   40.9530   31.0690   37.7760 C   0  0  0  0  0  0  0  0  0  0  0  0
   41.7680   31.5470   36.9520 O   0  0  0  0  0  0  0  0  0  0  0  0
   40.9640   29.9930   37.6480 H   0  0  0  0  0  0  0  0  0  0  0  0
  1 10  1  0  0  0  0
  1  2  2  0  0  0  0
  2  3  1  0  0  0  0
  3  4  1  0  0  0  0
  3  8  1  0  0  0  0
  4  5  2  0  0  0  0
  4  6  1  0  0  0  0
  7  6  1  0  0  0  0
  8  9  1  6  0  0  0
  8  6  1  0  0  0  0
 10 11  1  0  0  0  0
 10  9  1  0  0  0  0
 12  2  1  0  0  0  0
 12 14  1  0  0  0  0
 13 12  2  0  0  0  0
 14 15  1  0  0  0  0
 16 19  1  0  0  0  0
 16  1  1  0  0  0  0
 17 22  1  0  0  0  0
 18 17  2  0  0  0  0
 18 19  1  0  0  0  0
 19 20  2  0  0  0  0
 20 21  1  0  0  0  0
 21 24  1  0  0  0  0
 22 21  2  0  0  0  0
 23 17  1  0  0  0  0
 25 18  1  0  0  0  0
 26 25  2  0  0  0  0
 27 25  1  0  0  0  0
M  END
>  <minimizedAffinity>
-5.1337924

$$$$

 OpenBabel03252503073D

 27 29  0  0  1  0  0  0  0  0999 V2000
   36.5900   28.0770   40.0210 C   0  0  0  0  0  0  0  0  0  0  0  0
   36.6020   29.3560   39.7010 C   0  0  0  0  0  0  0  0  0  0  0  0
   36.5190   29.7490   38.3400 N   0  0  0  0  0  0  0  0  0  0  0  0
   37.0830   30.5500   37.2790 C   0  0  0  0  0  0  0  0  0  0  0  0
   37.7280   31.6530   37.2490 O   0  0  0  0  0  0  0  0  0  0  0  0
   36.5550   29.4950   36.3470 C   0  0  0  0  0  3  0  0  0  0  0  0
   37.2580   28.6590   36.2930 H   0  0  0  0  0  0  0  0  0  0  0  0
   35.4960   29.2710   37.3960 C   0  0  1  0  0  3  0  0  0  0  0  0
   35.1620   27.5460   37.8310 S   0  0  0  0  0  0  0  0  0  0  0  0
   36.5260   27.0730   38.9660 C   0  0  0  0  0  3  0  0  0  0  0  0
   37.4470   27.2370   38.3290 H   0  0  0  0  0  0  0  0  0  0  0  0
   36.6840   30.4000   40.7470 C   0  0  0  0  0  0  0  0  0  0  0  0
   37.5970   30.9870   41.3730 O   0  0  0  0  0  0  0  0  0  0  0  0
   35.6480   31.0460   41.3470 O   0  0  0  0  0  0  0  0  0  0  0  0
   35.4800   32.0400   41.2830 H   0  0  0  0  0  0  0  0  0  0  0  0
   36.6450   27.4600   41.3260 C   0  0  0  0  0  2  0  0  0  0  0  0
   39.3030   24.9610   42.2470 C   0  0  0  0  0  0  0  0  0  0  0  0
   38.0350   25.4840   41.9730 C   0  0  0  0  0  0  0  0  0  0  0  0
   37.9610   26.8230   41.6340 C   0  0  0  0  0  0  0  0  0  0  0  0
   39.1010   27.5420   41.5860 N   0  0  0  0  0  0  0  0  0  0  0  0
   40.3120   27.0100   41.8550 C   0  0  0  0  0  0  0  0  0  0  0  0
   40.4210   25.7250   42.1860 N   0  0  0  0  0  0  0  0  0  0  0  0
   39.4580   23.9170   42.5230 H   0  0  0  0  0  0  0  0  0  0  0  0
   41.1220   27.7300   41.7700 H   0  0  0  0  0  0  0  0  0  0  0  0
   36.8920   24.6390   42.0520 C   0  0  0  0  0  0  0  0  0  0  0  0
   36.6300   23.8940   41.0780 O   0  0  0  0  0  0  0  0  0  0  0  0
   36.1300   24.4630   42.8020 H   0  0  0  0  0  0  0  0  0  0  0  0
  1 16  1  0  0  0  0
  2  1  2  0  0  0  0
  2 12  1  0  0  0  0
  3  2  1  0  0  0  0
  4  3  1  0  0  0  0
  5  4  2  0  0  0  0
  6  4  1  0  0  0  0
  7  6  1  0  0  0  0
  8  6  1  6  0  0  0
  8  9  1  0  0  0  0
  8  3  1  0  0  0  0
  9 10  1  0  0  0  0
 10  1  1  0  0  0  0
 11 10  1  0  0  0  0
 12 14  1  0  0  0  0
 12 13  2  0  0  0  0
 15 14  1  0  0  0  0
 16 19  1  0  0  0  0
 17 23  1  0  0  0  0
 18 25  1  0  0  0  0
 18 17  2  0  0  0  0
 19 18  1  0  0  0  0
 20 19  2  0  0  0  0
 20 21  1  0  0  0  0
 21 22  2  0  0  0  0
 22 17  1  0  0  0  0
 24 21  1  0  0  0  0
 25 27  1  0  0  0  0
 26 25  2  0  0  0  0
M  END
>  <minimizedAffinity>
-5.00618792

$$$$

 OpenBabel03252503073D

 27 29  0  0  1  0  0  0  0  0999 V2000
   38.6220   29.7890   41.9220 C   0  0  0  0  0  0  0  0  0  0  0  0
   37.5420   29.4590   41.2420 C   0  0  0  0  0  0  0  0  0  0  0  0
   37.0970   28.1110   41.2230 N   0  0  0  0  0  0  0  0  0  0  0  0
   36.6800   26.9900   40.4150 C   0  0  0  0  0  0  0  0  0  0  0  0
   36.1080   26.8820   39.2780 O   0  0  0  0  0  0  0  0  0  0  0  0
   37.2260   26.1280   41.5200 C   0  0  0  0  0  3  0  0  0  0  0  0
   38.3060   26.0050   41.3980 H   0  0  0  0  0  0  0  0  0  0  0  0
   36.8910   27.2860   42.4240 C   0  0  1  0  0  3  0  0  0  0  0  0
   38.1740   27.7680   43.6060 S   0  0  0  0  0  0  0  0  0  0  0  0
   39.3720   28.7540   42.6250 C   0  0  0  0  0  3  0  0  0  0  0  0
   39.7050   28.0210   41.8290 H   0  0  0  0  0  0  0  0  0  0  0  0
   36.7680   30.4810   40.5040 C   0  0  0  0  0  0  0  0  0  0  0  0
   36.6170   30.8150   39.3050 O   0  0  0  0  0  0  0  0  0  0  0  0
   35.9310   31.4160   41.0290 O   0  0  0  0  0  0  0  0  0  0  0  0
   34.9390   31.4660   40.8410 H   0  0  0  0  0  0  0  0  0  0  0  0
   39.2360   31.0850   42.0920 C   0  0  0  0  0  2  0  0  0  0  0  0
   40.5410   33.1010   39.1960 C   0  0  0  0  0  0  0  0  0  0  0  0
   39.7580   32.7500   40.3010 C   0  0  0  0  0  0  0  0  0  0  0  0
   40.0250   31.5360   40.9060 C   0  0  0  0  0  0  0  0  0  0  0  0
   41.0130   30.7660   40.4060 N   0  0  0  0  0  0  0  0  0  0  0  0
   41.7530   31.1300   39.3370 C   0  0  0  0  0  0  0  0  0  0  0  0
   41.5240   32.2920   38.7280 N   0  0  0  0  0  0  0  0  0  0  0  0
   40.4030   34.0380   38.6550 H   0  0  0  0  0  0  0  0  0  0  0  0
   42.5040   30.3930   39.0680 H   0  0  0  0  0  0  0  0  0  0  0  0
   38.7390   33.6350   40.7510 C   0  0  0  0  0  0  0  0  0  0  0  0
   37.7380   33.8180   40.0200 O   0  0  0  0  0  0  0  0  0  0  0  0
   38.5990   34.2390   41.6400 H   0  0  0  0  0  0  0  0  0  0  0  0
  1 16  1  0  0  0  0
  1 10  1  0  0  0  0
  2  1  2  0  0  0  0
  3  2  1  0  0  0  0
  3  8  1  0  0  0  0
  4  3  1  0  0  0  0
  4  6  1  0  0  0  0
  5  4  2  0  0  0  0
  7  6  1  0  0  0  0
  8  6  1  6  0  0  0
  8  9  1  0  0  0  0
 10  9  1  0  0  0  0
 11 10  1  0  0  0  0
 12 14  1  0  0  0  0
 12  2  1  0  0  0  0
 13 12  2  0  0  0  0
 15 14  1  0  0  0  0
 17 18  1  0  0  0  0
 18 25  1  0  0  0  0
 18 19  2  0  0  0  0
 19 16  1  0  0  0  0
 20 19  1  0  0  0  0
 21 20  2  0  0  0  0
 22 17  2  0  0  0  0
 22 21  1  0  0  0  0
 23 17  1  0  0  0  0
 24 21  1  0  0  0  0
 25 27  1  0  0  0  0
 26 25  2  0  0  0  0
M  END
>  <minimizedAffinity>
-4.98437071

$$$$

 OpenBabel03252503073D

 27 29  0  0  1  0  0  0  0  0999 V2000
   39.7890   30.9900   41.0920 C   0  0  0  0  0  0  0  0  0  0  0  0
   39.6800   31.9910   40.2420 C   0  0  0  0  0  0  0  0  0  0  0  0
   40.4180   31.9790   39.0300 N   0  0  0  0  0  0  0  0  0  0  0  0
   41.3100   32.7000   38.1530 C   0  0  0  0  0  0  0  0  0  0  0  0
   41.5020   33.9390   37.9100 O   0  0  0  0  0  0  0  0  0  0  0  0
   41.8240   31.3490   37.7390 C   0  0  0  0  0  3  0  0  0  0  0  0
   42.5710   30.9980   38.4560 H   0  0  0  0  0  0  0  0  0  0  0  0
   40.4420   30.8540   38.0810 C   0  0  1  0  0  3  0  0  0  0  0  0
   40.3630   29.3420   39.0730 S   0  0  0  0  0  0  0  0  0  0  0  0
   40.6980   29.8900   40.7940 C   0  0  0  0  0  3  0  0  0  0  0  0
   41.7270   30.3550   40.7100 H   0  0  0  0  0  0  0  0  0  0  0  0
   38.7780   33.1300   40.5220 C   0  0  0  0  0  0  0  0  0  0  0  0
   37.6960   33.5650   40.0630 O   0  0  0  0  0  0  0  0  0  0  0  0
   38.9400   34.0930   41.4700 O   0  0  0  0  0  0  0  0  0  0  0  0
   38.3100   34.2430   42.2450 H   0  0  0  0  0  0  0  0  0  0  0  0
   39.1250   30.7890   42.3590 C   0  0  0  0  0  2  0  0  0  0  0  0
   36.5070   28.1050   42.0460 C   0  0  0  0  0  0  0  0  0  0  0  0
   37.1260   29.3530   41.9160 C   0  0  0  0  0  0  0  0  0  0  0  0
   38.3930   29.4900   42.4550 C   0  0  0  0  0  0  0  0  0  0  0  0
   38.9550   28.4290   43.0670 N   0  0  0  0  0  0  0  0  0  0  0  0
   38.3340   27.2350   43.1780 C   0  0  0  0  0  0  0  0  0  0  0  0
   37.1130   27.0670   42.6730 N   0  0  0  0  0  0  0  0  0  0  0  0
   35.5090   27.9040   41.6540 H   0  0  0  0  0  0  0  0  0  0  0  0
   38.9290   26.4910   43.7000 H   0  0  0  0  0  0  0  0  0  0  0  0
   36.4470   30.4110   41.2510 C   0  0  0  0  0  0  0  0  0  0  0  0
   36.4010   30.3990   39.9980 O   0  0  0  0  0  0  0  0  0  0  0  0
   35.9170   31.2960   41.5810 H   0  0  0  0  0  0  0  0  0  0  0  0
  1 16  1  0  0  0  0
  2 12  1  0  0  0  0
  2  1  2  0  0  0  0
  3  2  1  0  0  0  0
  4  3  1  0  0  0  0
  5  4  2  0  0  0  0
  6  4  1  0  0  0  0
  6  7  1  0  0  0  0
  8  6  1  1  0  0  0
  8  3  1  0  0  0  0
  8  9  1  0  0  0  0
  9 10  1  0  0  0  0
 10  1  1  0  0  0  0
 11 10  1  0  0  0  0
 12 14  1  0  0  0  0
 13 12  2  0  0  0  0
 14 15  1  0  0  0  0
 16 19  1  0  0  0  0
 17 22  1  0  0  0  0
 18 17  2  0  0  0  0
 18 19  1  0  0  0  0
 19 20  2  0  0  0  0
 20 21  1  0  0  0  0
 21 24  1  0  0  0  0
 22 21  2  0  0  0  0
 23 17  1  0  0  0  0
 25 27  1  0  0  0  0
 25 18  1  0  0  0  0
 26 25  2  0  0  0  0
M  END
>  <minimizedAffinity>
-4.89736462

$$$$

 OpenBabel03252503073D

 27 29  0  0  1  0  0  0  0  0999 V2000
   37.8550   28.3290   41.3410 C   0  0  0  0  0  0  0  0  0  0  0  0
   37.5670   29.5520   40.9420 C   0  0  0  0  0  0  0  0  0  0  0  0
   38.6100   30.4530   40.6030 N   0  0  0  0  0  0  0  0  0  0  0  0
   39.1760   31.7680   40.7900 C   0  0  0  0  0  0  0  0  0  0  0  0
   38.6840   32.9120   41.0750 O   0  0  0  0  0  0  0  0  0  0  0  0
   40.5030   31.1210   40.4990 C   0  0  0  0  0  3  0  0  0  0  0  0
   40.8980   30.6570   41.4070 H   0  0  0  0  0  0  0  0  0  0  0  0
   39.7070   30.1440   39.6710 C   0  0  1  0  0  3  0  0  0  0  0  0
   40.1050   28.3940   39.9080 S   0  0  0  0  0  0  0  0  0  0  0  0
   39.2500   27.9220   41.4630 C   0  0  0  0  0  3  0  0  0  0  0  0
   39.7100   28.6250   42.2220 H   0  0  0  0  0  0  0  0  0  0  0  0
   36.1620   30.0000   40.8240 C   0  0  0  0  0  0  0  0  0  0  0  0
   35.1430   29.6330   40.1940 O   0  0  0  0  0  0  0  0  0  0  0  0
   35.5790   31.0530   41.4570 O   0  0  0  0  0  0  0  0  0  0  0  0
   34.8170   30.9730   42.1160 H   0  0  0  0  0  0  0  0  0  0  0  0
   36.9650   27.2540   41.7140 C   0  0  0  0  0  2  0  0  0  0  0  0
   36.9120   23.9690   39.8820 C   0  0  0  0  0  0  0  0  0  0  0  0
   37.0860   24.8840   40.9250 C   0  0  0  0  0  0  0  0  0  0  0  0
   36.8050   26.2120   40.6560 C   0  0  0  0  0  0  0  0  0  0  0  0
   36.3840   26.5470   39.4200 N   0  0  0  0  0  0  0  0  0  0  0  0
   36.2240   25.6410   38.4310 C   0  0  0  0  0  0  0  0  0  0  0  0
   36.4870   24.3540   38.6540 N   0  0  0  0  0  0  0  0  0  0  0  0
   37.1090   22.9030   40.0010 H   0  0  0  0  0  0  0  0  0  0  0  0
   35.8790   26.0820   37.5010 H   0  0  0  0  0  0  0  0  0  0  0  0
   37.5360   24.4280   42.1950 C   0  0  0  0  0  0  0  0  0  0  0  0
   38.7500   24.1490   42.3370 O   0  0  0  0  0  0  0  0  0  0  0  0
   37.0540   24.2470   43.1490 H   0  0  0  0  0  0  0  0  0  0  0  0
  1 10  1  0  0  0  0
  1 16  1  0  0  0  0
  2  1  2  0  0  0  0
  3  4  1  0  0  0  0
  3  2  1  0  0  0  0
  4  5  2  0  0  0  0
  6  4  1  0  0  0  0
  6  7  1  0  0  0  0
  8  9  1  1  0  0  0
  8  6  1  0  0  0  0
  8  3  1  0  0  0  0
  9 10  1  0  0  0  0
 10 11  1  0  0  0  0
 12  2  1  0  0  0  0
 12 14  1  0  0  0  0
 13 12  2  0  0  0  0
 14 15  1  0  0  0  0
 17 23  1  0  0  0  0
 17 18  1  0  0  0  0
 18 25  1  0  0  0  0
 19 18  2  0  0  0  0
 19 16  1  0  0  0  0
 20 19  1  0  0  0  0
 21 22  1  0  0  0  0
 21 20  2  0  0  0  0
 22 17  2  0  0  0  0
 24 21  1  0  0  0  0
 25 26  2  0  0  0  0
 25 27  1  0  0  0  0
M  END
>  <minimizedAffinity>
-4.89048815

$$$$

 OpenBabel03252503073D

 27 29  0  0  1  0  0  0  0  0999 V2000
   38.7870   30.4490   41.2290 C   0  0  0  0  0  0  0  0  0  0  0  0
   39.4720   31.3480   40.5510 C   0  0  0  0  0  0  0  0  0  0  0  0
   39.0680   31.7100   39.2400 N   0  0  0  0  0  0  0  0  0  0  0  0
   39.4640   31.8950   37.8630 C   0  0  0  0  0  0  0  0  0  0  0  0
   40.5610   32.2150   37.2930 O   0  0  0  0  0  0  0  0  0  0  0  0
   38.0420   31.5430   37.5190 C   0  0  0  0  0  3  0  0  0  0  0  0
   37.9230   30.4570   37.4950 H   0  0  0  0  0  0  0  0  0  0  0  0
   37.7020   32.1160   38.8710 C   0  0  1  0  0  3  0  0  0  0  0  0
   36.5790   31.1280   39.8920 S   0  0  0  0  0  0  0  0  0  0  0  0
   37.6340   29.8070   40.6080 C   0  0  0  0  0  3  0  0  0  0  0  0
   38.0320   29.2810   39.6890 H   0  0  0  0  0  0  0  0  0  0  0  0
   40.6560   32.0060   41.1460 C   0  0  0  0  0  0  0  0  0  0  0  0
   41.7500   31.6360   41.6340 O   0  0  0  0  0  0  0  0  0  0  0  0
   40.8550   33.3400   41.3200 O   0  0  0  0  0  0  0  0  0  0  0  0
   41.5910   33.8720   40.8760 H   0  0  0  0  0  0  0  0  0  0  0  0
   39.0040   29.9500   42.5670 C   0  0  0  0  0  2  0  0  0  0  0  0
   39.1410   26.2350   43.1460 C   0  0  0  0  0  0  0  0  0  0  0  0
   38.6450   27.5420   43.1420 C   0  0  0  0  0  0  0  0  0  0  0  0
   39.4580   28.5270   42.6100 C   0  0  0  0  0  0  0  0  0  0  0  0
   40.6700   28.1780   42.1320 N   0  0  0  0  0  0  0  0  0  0  0  0
   41.1240   26.9060   42.1500 C   0  0  0  0  0  0  0  0  0  0  0  0
   40.3680   25.9320   42.6550 N   0  0  0  0  0  0  0  0  0  0  0  0
   38.5710   25.3940   43.5450 H   0  0  0  0  0  0  0  0  0  0  0  0
   42.1180   26.8030   41.7260 H   0  0  0  0  0  0  0  0  0  0  0  0
   37.3500   27.8070   43.6710 C   0  0  0  0  0  0  0  0  0  0  0  0
   36.3940   27.0850   43.3030 O   0  0  0  0  0  0  0  0  0  0  0  0
   36.9510   28.5340   44.3680 H   0  0  0  0  0  0  0  0  0  0  0  0
  1 16  1  0  0  0  0
  2 12  1  0  0  0  0
  2  1  2  0  0  0  0
  3  2  1  0  0  0  0
  4  3  1  0  0  0  0
  5  4  2  0  0  0  0
  6  4  1  0  0  0  0
  7  6  1  0  0  0  0
  8  6  1  6  0  0  0
  8  3  1  0  0  0  0
  8  9  1  0  0  0  0
  9 10  1  0  0  0  0
 10  1  1  0  0  0  0
 11 10  1  0  0  0  0
 12 14  1  0  0  0  0
 12 13  2  0  0  0  0
 15 14  1  0  0  0  0
 16 19  1  0  0  0  0
 17 23  1  0  0  0  0
 18 17  1  0  0  0  0
 18 25  1  0  0  0  0
 19 18  2  0  0  0  0
 20 21  2  0  0  0  0
 20 19  1  0  0  0  0
 21 22  1  0  0  0  0
 22 17  2  0  0  0  0
 24 21  1  0  0  0  0
 25 27  1  0  0  0  0
 26 25  2  0  0  0  0
M  END
>  <minimizedAffinity>
-4.77546406

$$$$
