
 OpenBabel03242510293D

 41 45  0  0  1  0  0  0  0  0999 V2000
   42.3040   29.3470   38.7770 C   0  0  1  0  0  0  0  0  0  0  0  0
   41.3860   29.5490   37.6030 C   0  0  0  0  0  0  0  0  0  0  0  0
   42.3120   29.6400   36.3950 C   0  0  0  0  0  0  0  0  0  0  0  0
   43.0250   30.9700   36.5180 C   0  0  0  0  0  0  0  0  0  0  0  0
   43.7430   31.1540   37.8020 C   0  0  0  0  0  0  0  0  0  0  0  0
   43.0940   30.6210   39.0120 C   0  0  2  0  0  0  0  0  0  0  0  0
   43.0000   28.5450   38.5430 H   0  0  0  0  0  0  0  0  0  0  0  0
   40.8210   30.5130   37.7330 H   0  0  0  0  0  0  0  0  0  0  0  0
   40.7410   28.6800   37.4280 H   0  0  0  0  0  0  0  0  0  0  0  0
   41.7730   29.6020   35.4530 H   0  0  0  0  0  0  0  0  0  0  0  0
   43.0470   28.8020   36.5220 H   0  0  0  0  0  0  0  0  0  0  0  0
   42.2010   31.7420   36.4850 H   0  0  0  0  0  0  0  0  0  0  0  0
   43.6710   31.1980   35.6710 H   0  0  0  0  0  0  0  0  0  0  0  0
   44.7540   30.6840   37.6990 H   0  0  0  0  0  0  0  0  0  0  0  0
   43.9120   32.2440   37.9200 H   0  0  0  0  0  0  0  0  0  0  0  0
   42.3620   31.3620   39.3910 H   0  0  0  0  0  0  0  0  0  0  0  0
   41.0650   27.7660   42.0090 C   0  0  0  0  0  0  0  0  0  0  0  0
   41.8590   27.9520   40.8770 C   0  0  0  0  0  0  0  0  0  0  0  0
   41.5530   29.0260   40.0190 C   0  0  0  0  0  0  0  0  0  0  0  0
   40.4950   29.8020   40.3680 N   0  0  0  0  0  0  0  0  0  0  0  0
   39.7520   29.6010   41.4580 C   0  0  0  0  0  0  0  0  0  0  0  0
   40.0200   28.5910   42.2900 N   0  0  0  0  0  0  0  0  0  0  0  0
   41.3440   26.9300   42.6320 H   0  0  0  0  0  0  0  0  0  0  0  0
   42.6870   27.3510   40.5940 H   0  0  0  0  0  0  0  0  0  0  0  0
   38.9460   30.3010   41.6010 H   0  0  0  0  0  0  0  0  0  0  0  0
   44.1160   30.3040   40.1130 C   0  0  0  0  0  2  0  0  0  0  0  0
   44.7350   31.5120   40.6900 C   0  0  0  0  0  0  0  0  0  0  0  0
   44.1080   32.3870   41.4540 C   0  0  0  0  0  0  0  0  0  0  0  0
   44.8270   33.5040   41.9490 N   0  0  0  0  0  0  0  0  0  0  0  0
   44.8350   34.8580   42.3710 C   0  0  2  0  0  0  0  0  0  0  0  0
   43.9430   35.6990   42.6600 O   0  0  0  0  0  1  0  0  0  0  0  0
   46.2950   34.9850   42.3650 C   0  0  0  0  0  3  0  0  0  0  0  0
   46.6090   35.5510   41.4710 H   0  0  0  0  0  0  0  0  0  0  0  0
   46.2340   33.4800   42.2340 C   0  0  1  0  0  0  0  0  0  0  0  0
   47.0470   33.0270   40.6600 S   0  0  0  0  0  0  0  0  0  0  0  0
   46.1510   31.5350   40.2440 C   0  0  0  0  0  3  0  0  0  0  0  0
   46.7470   30.6890   40.7030 H   0  0  0  0  0  0  0  0  0  0  0  0
   42.7030   32.2570   41.8230 C   0  0  0  0  0  0  0  0  0  0  0  0
   41.6150   32.7880   41.5070 O   0  0  0  0  0  0  0  0  0  0  0  0
   42.2610   31.3540   42.7630 O   0  0  0  0  0  0  0  0  0  0  0  0
   41.6100   31.5220   43.5200 H   0  0  0  0  0  0  0  0  0  0  0  0
  1  7  1  6  0  0  0
  1  6  1  0  0  0  0
  1 19  1  0  0  0  0
  2  8  1  0  0  0  0
  2  1  1  0  0  0  0
  3  4  1  0  0  0  0
  3 11  1  0  0  0  0
  3  2  1  0  0  0  0
  4  5  1  0  0  0  0
  5 15  1  0  0  0  0
  5  6  1  0  0  0  0
  6 16  1  1  0  0  0
  6 26  1  0  0  0  0
  9  2  1  0  0  0  0
 10  3  1  0  0  0  0
 12  4  1  0  0  0  0
 13  4  1  0  0  0  0
 14  5  1  0  0  0  0
 17 22  1  0  0  0  0
 17 23  1  0  0  0  0
 18 17  2  0  0  0  0
 19 20  2  0  0  0  0
 19 18  1  0  0  0  0
 20 21  1  0  0  0  0
 21 25  1  0  0  0  0
 21 22  2  0  0  0  0
 24 18  1  0  0  0  0
 26 27  1  0  0  0  0
 27 28  2  0  0  0  0
 28 38  1  0  0  0  0
 28 29  1  0  0  0  0
 29 34  1  0  0  0  0
 29 30  1  0  0  0  0
 30 31  1  1  0  0  0
 32 30  1  0  0  0  0
 33 32  1  0  0  0  0
 34 35  1  6  0  0  0
 34 32  1  0  0  0  0
 34 30  1  0  0  0  0
 36 35  1  0  0  0  0
 36 27  1  0  0  0  0
 36 37  1  0  0  0  0
 38 40  1  0  0  0  0
 39 38  2  0  0  0  0
 40 41  1  0  0  0  0
M  END
>  <minimizedAffinity>
-3.3368125

>  <minimizedRMSD>
7.30409193

$$$$
