
 OpenBabel03242523333D

 44 48  0  0  1  0  0  0  0  0999 V2000
   44.6180   36.4590   44.2740 C   0  0  0  0  0  0  0  0  0  0  0  0
   45.0770   36.1040   43.0020 C   0  0  0  0  0  0  0  0  0  0  0  0
   45.6640   34.8550   42.7780 C   0  0  0  0  0  0  0  0  0  0  0  0
   45.7710   33.9960   43.8490 N   0  0  0  0  0  0  0  0  0  0  0  0
   45.3200   34.3570   45.0770 C   0  0  0  0  0  0  0  0  0  0  0  0
   44.7590   35.5680   45.2620 N   0  0  0  0  0  0  0  0  0  0  0  0
   44.1670   37.4310   44.4240 H   0  0  0  0  0  0  0  0  0  0  0  0
   44.9960   36.7660   42.1710 H   0  0  0  0  0  0  0  0  0  0  0  0
   45.4920   33.3540   46.1540 C   0  0  0  0  0  0  0  0  0  0  0  0
   45.8100   33.9150   47.0290 H   0  0  0  0  0  0  0  0  0  0  0  0
   44.5150   32.8640   46.4140 H   0  0  0  0  0  0  0  0  0  0  0  0
   46.6210   32.0940   45.5590 S   0  0  0  0  0  0  0  0  0  0  0  0
   47.5430   31.3850   46.9050 C   0  0  0  0  0  0  0  0  0  0  0  0
   47.7060   32.1420   48.0450 C   0  0  0  0  0  0  0  0  0  0  0  0
   48.4150   31.6020   49.0770 C   0  0  0  0  0  0  0  0  0  0  0  0
   48.9730   30.3150   49.0070 C   0  0  0  0  0  0  0  0  0  0  0  0
   49.6620   29.8320   50.0570 N   0  0  0  0  0  0  0  0  0  0  0  0
   50.2090   28.5990   50.0220 C   0  0  0  0  0  0  0  0  0  0  0  0
   50.0550   27.8430   48.9020 C   0  0  0  0  0  0  0  0  0  0  0  0
   49.3470   28.3490   47.8360 C   0  0  0  0  0  0  0  0  0  0  0  0
   48.7670   29.6100   47.8260 C   0  0  0  0  0  0  0  0  0  0  0  0
   48.0610   30.1200   46.7690 C   0  0  0  0  0  0  0  0  0  0  0  0
   47.3280   33.1400   48.2190 H   0  0  0  0  0  0  0  0  0  0  0  0
   48.5820   32.1510   50.0120 H   0  0  0  0  0  0  0  0  0  0  0  0
   50.7460   28.2880   50.9070 H   0  0  0  0  0  0  0  0  0  0  0  0
   50.4860   26.8490   48.8530 H   0  0  0  0  0  0  0  0  0  0  0  0
   49.2380   27.7250   46.9550 H   0  0  0  0  0  0  0  0  0  0  0  0
   47.9410   29.5280   45.8950 H   0  0  0  0  0  0  0  0  0  0  0  0
   46.2210   34.4080   41.5170 C   0  0  0  0  0  2  0  0  0  0  0  0
   47.2380   33.3890   41.4590 C   0  0  0  0  0  0  0  0  0  0  0  0
   48.5500   33.3970   41.6460 C   0  0  0  0  0  0  0  0  0  0  0  0
   49.4020   32.2340   41.5520 N   0  0  0  0  0  0  0  0  0  0  0  0
   50.5990   31.6050   41.1130 C   0  0  0  0  0  0  0  0  0  0  0  0
   51.7550   32.1130   41.0040 O   0  0  0  0  0  0  0  0  0  0  0  0
   49.7520   30.3670   40.9470 C   0  0  0  0  0  3  0  0  0  0  0  0
   50.2940   29.4330   41.1320 H   0  0  0  0  0  0  0  0  0  0  0  0
   49.0270   30.9540   42.1370 C   0  0  2  0  0  3  0  0  0  0  0  0
   47.2370   30.7440   42.1600 S   0  0  0  0  0  0  0  0  0  0  0  0
   46.6350   32.0810   41.0940 C   0  0  0  0  0  3  0  0  0  0  0  0
   46.8460   31.8330   40.0280 H   0  0  0  0  0  0  0  0  0  0  0  0
   49.1410   34.6880   41.9820 C   0  0  0  0  0  2  0  0  0  0  0  0
   50.2360   34.7030   42.6430 O   0  0  0  0  0  0  0  0  0  0  0  0
   49.7290   35.8930   42.3170 O   0  0  0  0  0  0  0  0  0  0  0  0
   49.5630   36.7410   41.7720 H   0  0  0  0  0  0  0  0  0  0  0  0
  1  7  1  0  0  0  0
  1  6  1  0  0  0  0
  2  1  2  0  0  0  0
  3  2  1  0  0  0  0
  3  4  2  0  0  0  0
  4  5  1  0  0  0  0
  5  6  2  0  0  0  0
  5  9  1  0  0  0  0
  8  2  1  0  0  0  0
  9 11  1  0  0  0  0
  9 10  1  0  0  0  0
 12  9  1  0  0  0  0
 12 13  1  0  0  0  0
 13 14  1  0  0  0  0
 14 23  1  0  0  0  0
 14 15  2  0  0  0  0
 15 24  1  0  0  0  0
 16 15  1  0  0  0  0
 16 17  1  0  0  0  0
 18 17  2  0  0  0  0
 18 25  1  0  0  0  0
 19 18  1  0  0  0  0
 20 19  2  0  0  0  0
 21 20  1  0  0  0  0
 21 16  2  0  0  0  0
 22 13  2  0  0  0  0
 22 21  1  0  0  0  0
 26 19  1  0  0  0  0
 27 20  1  0  0  0  0
 28 22  1  0  0  0  0
 29  3  1  0  0  0  0
 30 29  1  0  0  0  0
 30 31  2  0  0  0  0
 31 41  1  0  0  0  0
 32 31  1  0  0  0  0
 32 37  1  0  0  0  0
 33 32  1  0  0  0  0
 34 33  2  0  0  0  0
 35 33  1  0  0  0  0
 35 36  1  0  0  0  0
 37 35  1  6  0  0  0
 37 38  1  0  0  0  0
 39 30  1  0  0  0  0
 39 38  1  0  0  0  0
 40 39  1  0  0  0  0
 41 42  1  0  0  0  0
 43 42  1  0  0  0  0
 44 43  1  0  0  0  0
M  END
>  <minimizedAffinity>
-6.23994875

>  <minimizedRMSD>
1.96381044

$$$$
