
 OpenBabel03252505533D

 40 43  0  0  1  0  0  0  0  0999 V2000
   47.0630   30.7160   47.6890 C   0  0  0  0  0  0  0  0  0  0  0  0
   47.6920   29.7380   46.9310 C   0  0  0  0  0  0  0  0  0  0  0  0
   48.9870   29.4300   47.1880 C   0  0  0  0  0  0  0  0  0  0  0  0
   49.6720   30.0370   48.1450 N   0  0  0  0  0  0  0  0  0  0  0  0
   49.0750   30.9840   48.8850 C   0  0  0  0  0  0  0  0  0  0  0  0
   47.7730   31.3390   48.6750 N   0  0  0  0  0  0  0  0  0  0  0  0
   47.0140   29.3340   46.1940 H   0  0  0  0  0  0  0  0  0  0  0  0
   49.3990   28.6630   46.5570 H   0  0  0  0  0  0  0  0  0  0  0  0
   45.6880   31.2540   47.6410 C   0  0  0  0  0  0  0  0  0  0  0  0
   45.1660   30.8460   46.7700 H   0  0  0  0  0  0  0  0  0  0  0  0
   45.1880   30.9260   48.5670 H   0  0  0  0  0  0  0  0  0  0  0  0
   45.7860   32.6560   47.5810 O   0  0  0  0  0  0  0  0  0  0  0  0
   44.9120   35.0140   45.0650 C   0  0  0  0  0  0  0  0  0  0  0  0
   45.7880   34.7150   44.0160 C   0  0  0  0  0  0  0  0  0  0  0  0
   46.6940   33.6630   44.2130 C   0  0  0  0  0  0  0  0  0  0  0  0
   46.6790   33.0000   45.3870 N   0  0  0  0  0  0  0  0  0  0  0  0
   45.8160   33.3260   46.3680 C   0  0  0  0  0  0  0  0  0  0  0  0
   44.9370   34.3220   46.2180 N   0  0  0  0  0  0  0  0  0  0  0  0
   44.2110   35.8300   44.9110 H   0  0  0  0  0  0  0  0  0  0  0  0
   47.3670   33.4440   43.3870 H   0  0  0  0  0  0  0  0  0  0  0  0
   45.7000   35.5280   42.7670 C   0  0  0  0  0  0  0  0  0  0  0  0
   45.2720   36.7670   43.1690 F   0  0  0  0  0  0  0  0  0  0  0  0
   44.7120   34.9200   41.9800 F   0  0  0  0  0  0  0  0  0  0  0  0
   46.9120   35.5360   42.1530 F   0  0  0  0  0  0  0  0  0  0  0  0
   49.8990   31.6450   49.9620 C   0  0  0  0  0  2  0  0  0  0  0  0
   50.7960   30.6380   50.5550 C   0  0  0  0  0  0  0  0  0  0  0  0
   52.0920   30.8870   50.6280 C   0  0  0  0  0  0  0  0  0  0  0  0
   52.9510   29.9160   51.2120 N   0  0  0  0  0  0  0  0  0  0  0  0
   54.1560   29.1580   51.0830 C   0  0  0  0  0  0  0  0  0  0  0  0
   55.2580   29.2840   50.4480 O   0  0  0  0  0  0  0  0  0  0  0  0
   53.5770   28.1380   52.0210 C   0  0  0  0  0  3  0  0  0  0  0  0
   54.3310   27.9020   52.8020 H   0  0  0  0  0  0  0  0  0  0  0  0
   52.6970   29.2690   52.5110 C   0  0  2  0  0  3  0  0  0  0  0  0
   50.9320   28.9190   52.6010 S   0  0  0  0  0  0  0  0  0  0  0  0
   50.1720   29.3830   51.0270 C   0  0  0  0  0  3  0  0  0  0  0  0
   50.3380   28.6030   50.2430 H   0  0  0  0  0  0  0  0  0  0  0  0
   52.6630   32.1250   50.1370 C   0  0  0  0  0  0  0  0  0  0  0  0
   53.9040   32.4360   50.1670 O   0  0  0  0  0  0  0  0  0  0  0  0
   52.8140   33.3670   49.5890 O   0  0  0  0  0  0  0  0  0  0  0  0
   52.1720   34.1260   49.8690 H   0  0  0  0  0  0  0  0  0  0  0  0
  1  6  1  0  0  0  0
  2  3  1  0  0  0  0
  2  1  2  0  0  0  0
  3  4  2  0  0  0  0
  4  5  1  0  0  0  0
  5 25  1  0  0  0  0
  6  5  2  0  0  0  0
  7  2  1  0  0  0  0
  8  3  1  0  0  0  0
  9  1  1  0  0  0  0
  9 11  1  0  0  0  0
 10  9  1  0  0  0  0
 12  9  1  0  0  0  0
 13 18  1  0  0  0  0
 14 15  1  0  0  0  0
 14 13  2  0  0  0  0
 15 16  2  0  0  0  0
 16 17  1  0  0  0  0
 17 12  1  0  0  0  0
 18 17  2  0  0  0  0
 19 13  1  0  0  0  0
 20 15  1  0  0  0  0
 21 22  1  0  0  0  0
 21 14  1  0  0  0  0
 23 21  1  0  0  0  0
 24 21  1  0  0  0  0
 25 26  1  0  0  0  0
 26 27  2  0  0  0  0
 26 35  1  0  0  0  0
 27 28  1  0  0  0  0
 28 33  1  0  0  0  0
 29 28  1  0  0  0  0
 29 31  1  0  0  0  0
 30 29  2  0  0  0  0
 31 32  1  0  0  0  0
 33 31  1  6  0  0  0
 33 34  1  0  0  0  0
 35 34  1  0  0  0  0
 36 35  1  0  0  0  0
 37 38  2  0  0  0  0
 37 27  1  0  0  0  0
 39 40  1  0  0  0  0
 39 37  1  0  0  0  0
M  END
>  <minimizedAffinity>
-6.14308453

>  <minimizedRMSD>
1.20310485

$$$$
