
 OpenBabel03242512413D

 30 32  0  0  1  0  0  0  0  0999 V2000
   47.6110   31.5170   47.1690 C   0  0  0  0  0  0  0  0  0  0  0  0
   47.3500   30.0800   47.0410 C   0  0  0  0  0  0  0  0  0  0  0  0
   46.1960   29.6610   47.5280 C   0  0  0  0  0  0  0  0  0  0  0  0
   45.8390   28.2990   47.4560 N   0  0  0  0  0  0  0  0  0  0  0  0
   45.2310   27.1240   48.0330 C   0  0  0  0  0  0  0  0  0  0  0  0
   44.2320   27.0100   48.7680 O   0  0  0  0  0  0  0  0  0  0  0  0
   46.3260   26.3620   47.3310 C   0  0  0  0  0  0  0  0  0  0  0  0
   47.2930   26.4630   47.8680 H   0  0  0  0  0  0  0  0  0  0  0  0
   46.1380   27.4630   46.3080 C   0  0  2  0  0  0  0  0  0  0  0  0
   47.5960   27.9760   45.4220 S   0  0  0  0  0  0  0  0  0  0  0  0
   48.3840   29.2560   46.3940 C   0  0  0  0  0  0  0  0  0  0  0  0
   48.9510   29.8990   45.6710 H   0  0  0  0  0  0  0  0  0  0  0  0
   45.2360   30.5640   48.1580 C   0  0  0  0  0  0  0  0  0  0  0  0
   44.8910   30.4950   49.3720 O   0  0  0  0  0  0  0  0  0  0  0  0
   44.3330   31.5860   48.3160 O   0  0  0  0  0  0  0  0  0  0  0  0
   43.5180   31.6110   47.7030 H   0  0  0  0  0  0  0  0  0  0  0  0
   45.6600   34.0280   45.2970 C   0  0  0  0  0  0  0  0  0  0  0  0
   46.0050   33.7720   43.9620 C   0  0  0  0  0  0  0  0  0  0  0  0
   46.9120   32.7320   43.7020 C   0  0  0  0  0  0  0  0  0  0  0  0
   47.3980   32.0390   44.7750 N   0  0  0  0  0  0  0  0  0  0  0  0
   47.0410   32.3180   46.0310 C   0  0  0  0  0  0  0  0  0  0  0  0
   46.1850   33.2980   46.2810 N   0  0  0  0  0  0  0  0  0  0  0  0
   45.6480   34.2910   43.0880 H   0  0  0  0  0  0  0  0  0  0  0  0
   47.2410   32.4540   42.7150 H   0  0  0  0  0  0  0  0  0  0  0  0
   44.7830   35.0390   45.5070 O   0  0  0  0  0  0  0  0  0  0  0  0
   44.3710   35.9390   44.5290 C   0  0  0  0  0  0  0  0  0  0  0  0
   44.9670   37.0380   44.2420 O   0  0  0  0  0  0  0  0  0  0  0  0
   43.2190   35.7650   43.7030 N   0  0  0  0  0  0  0  0  0  0  0  0
   43.1320   35.6310   42.6590 H   0  0  0  0  0  0  0  0  0  0  0  0
   42.1670   35.6880   43.6040 H   0  0  0  0  0  0  0  0  0  0  0  0
  2  1  1  0  0  0  0
  2  3  2  0  0  0  0
  3 13  1  0  0  0  0
  4  3  1  0  0  0  0
  4  5  1  0  0  0  0
  5  6  2  0  0  0  0
  7  8  1  0  0  0  0
  7  5  1  0  0  0  0
  9 10  1  1  0  0  0
  9  7  1  0  0  0  0
  9  4  1  0  0  0  0
 10 11  1  0  0  0  0
 11  2  1  0  0  0  0
 12 11  1  0  0  0  0
 13 15  1  0  0  0  0
 13 14  2  0  0  0  0
 16 15  1  0  0  0  0
 17 25  1  0  0  0  0
 17 22  1  0  0  0  0
 18 17  2  0  0  0  0
 19 18  1  0  0  0  0
 19 20  2  0  0  0  0
 20 21  1  0  0  0  0
 21 22  2  0  0  0  0
 21  1  1  0  0  0  0
 23 18  1  0  0  0  0
 24 19  1  0  0  0  0
 26 25  1  0  0  0  0
 27 26  2  0  0  0  0
 28 26  1  0  0  0  0
 29 28  1  0  0  0  0
 30 28  1  0  0  0  0
M  END
>  <minimizedAffinity>
-5.3138237

>  <minimizedRMSD>
1.07994819

$$$$
