
 OpenBabel03252507163D

 36 39  0  0  1  0  0  0  0  0999 V2000
   44.8810   35.7760   43.3430 C   0  0  0  0  0  0  0  0  0  0  0  0
   45.5370   34.5410   43.1310 C   0  0  0  0  0  0  0  0  0  0  0  0
   45.7370   33.7120   44.2130 C   0  0  0  0  0  0  0  0  0  0  0  0
   45.3050   34.0950   45.4390 N   0  0  0  0  0  0  0  0  0  0  0  0
   44.6710   35.2930   45.6280 C   0  0  0  0  0  0  0  0  0  0  0  0
   44.4780   36.0920   44.5920 N   0  0  0  0  0  0  0  0  0  0  0  0
   44.7060   36.4540   42.5180 H   0  0  0  0  0  0  0  0  0  0  0  0
   44.3460   35.5530   46.6250 H   0  0  0  0  0  0  0  0  0  0  0  0
   46.4110   32.4390   44.0010 C   0  0  0  0  0  0  0  0  0  0  0  0
   45.6940   31.2670   44.0060 C   0  0  0  0  0  0  0  0  0  0  0  0
   46.3640   30.0820   43.8020 C   0  0  0  0  0  0  0  0  0  0  0  0
   47.7320   30.0060   43.5920 C   0  0  0  0  0  0  0  0  0  0  0  0
   48.3890   31.2130   43.5980 C   0  0  0  0  0  0  0  0  0  0  0  0
   47.7250   32.3720   43.7990 N   0  0  0  0  0  0  0  0  0  0  0  0
   44.6450   31.2660   44.1620 H   0  0  0  0  0  0  0  0  0  0  0  0
   45.8000   29.1360   43.8050 H   0  0  0  0  0  0  0  0  0  0  0  0
   48.2750   29.1010   43.4310 H   0  0  0  0  0  0  0  0  0  0  0  0
   49.4550   31.2430   43.4420 H   0  0  0  0  0  0  0  0  0  0  0  0
   45.9700   34.1930   41.8110 C   0  0  0  0  0  0  0  0  0  0  0  0
   46.8960   34.8890   41.3040 O   0  0  0  0  0  0  0  0  0  0  0  0
   47.6960   32.5430   37.5100 C   0  0  0  0  0  0  0  0  0  0  0  0
   46.3960   32.5930   37.6600 C   0  0  0  0  0  0  0  0  0  0  0  0
   45.8130   32.8580   38.9300 N   0  0  0  0  0  0  0  0  0  0  0  0
   44.7890   33.4410   39.7260 C   0  0  0  0  0  0  0  0  0  0  0  0
   43.7020   34.0560   39.4950 O   0  0  0  0  0  0  0  0  0  0  0  0
   45.4220   33.0870   40.9960 C   0  0  1  0  0  3  0  0  0  0  0  0
   46.4270   32.3650   40.1730 C   0  0  2  0  0  3  0  0  0  0  0  0
   48.1000   32.9830   40.2030 S   0  0  0  0  0  0  0  0  0  0  0  0
   48.7080   32.7380   38.5430 C   0  0  0  0  0  3  0  0  0  0  0  0
   49.2710   33.6800   38.2730 H   0  0  0  0  0  0  0  0  0  0  0  0
   48.1830   32.2630   36.1570 C   0  0  0  0  0  2  0  0  0  0  0  0
   47.8840   31.2400   35.7790 H   0  0  0  0  0  0  0  0  0  0  0  0
   45.4890   32.3810   36.5360 C   0  0  0  0  0  0  0  0  0  0  0  0
   44.9780   31.3050   36.1410 O   0  0  0  0  0  0  0  0  0  0  0  0
   45.0470   33.3990   35.7060 O   0  0  0  0  0  0  0  0  0  0  0  0
   44.8640   33.3190   34.7190 H   0  0  0  0  0  0  0  0  0  0  0  0
  1  6  1  0  0  0  0
  2  1  2  0  0  0  0
  2  3  1  0  0  0  0
  3  4  2  0  0  0  0
  4  5  1  0  0  0  0
  5  8  1  0  0  0  0
  6  5  2  0  0  0  0
  7  1  1  0  0  0  0
  9 10  1  0  0  0  0
  9  3  1  0  0  0  0
 10 15  1  0  0  0  0
 11 16  1  0  0  0  0
 11 10  2  0  0  0  0
 12 13  2  0  0  0  0
 12 11  1  0  0  0  0
 13 14  1  0  0  0  0
 14  9  2  0  0  0  0
 17 12  1  0  0  0  0
 18 13  1  0  0  0  0
 19  2  1  0  0  0  0
 20 19  2  0  0  0  0
 21 22  2  0  0  0  0
 21 29  1  0  0  0  0
 22 23  1  0  0  0  0
 23 24  1  0  0  0  0
 23 27  1  0  0  0  0
 24 26  1  0  0  0  0
 25 24  2  0  0  0  0
 26 19  1  6  0  0  0
 27 28  1  1  0  0  0
 27 26  1  0  0  0  0
 29 28  1  0  0  0  0
 30 29  1  0  0  0  0
 31 21  1  0  0  0  0
 32 31  1  0  0  0  0
 33 22  1  0  0  0  0
 34 33  2  0  0  0  0
 35 33  1  0  0  0  0
 36 35  1  0  0  0  0
M  END
>  <minimizedAffinity>
-5.25513172

>  <minimizedRMSD>
1.69046605

$$$$
