
 OpenBabel03242518463D

 52 56  0  0  1  0  0  0  0  0999 V2000
   47.4960   31.3130   45.9220 O   0  0  0  0  0  0  0  0  0  0  0  0
   47.4760   33.0760   44.3820 C   0  0  2  0  0  0  0  0  0  0  0  0
   47.3610   33.3930   42.9330 C   0  0  1  0  0  0  0  0  0  0  0  0
   47.2730   32.1330   42.0720 C   0  0  0  0  0  0  0  0  0  0  0  0
   48.3930   31.3860   42.4330 O   0  0  0  0  0  0  0  0  0  0  0  0
   48.2550   30.8300   43.6870 C   0  0  0  0  0  0  0  0  0  0  0  0
   47.3020   31.5580   44.5810 C   0  0  1  0  0  0  0  0  0  0  0  0
   48.4990   33.2980   44.7350 H   0  0  0  0  0  0  0  0  0  0  0  0
   48.2690   33.9540   42.5870 H   0  0  0  0  0  0  0  0  0  0  0  0
   46.3220   31.5940   42.2330 H   0  0  0  0  0  0  0  0  0  0  0  0
   47.3460   32.3900   41.0010 H   0  0  0  0  0  0  0  0  0  0  0  0
   47.9250   29.7610   43.5840 H   0  0  0  0  0  0  0  0  0  0  0  0
   49.2560   30.7820   44.1870 H   0  0  0  0  0  0  0  0  0  0  0  0
   46.2620   31.2890   44.2980 H   0  0  0  0  0  0  0  0  0  0  0  0
   45.0200   36.1990   42.7240 C   0  0  0  0  0  0  0  0  0  0  0  0
   43.9970   35.7340   41.8620 C   0  0  0  0  0  0  0  0  0  0  0  0
   44.1600   34.4090   41.3640 C   0  0  0  0  0  0  0  0  0  0  0  0
   45.2500   33.7020   41.7350 N   0  0  0  0  0  0  0  0  0  0  0  0
   46.1910   34.2010   42.5580 C   0  0  0  0  0  0  0  0  0  0  0  0
   46.0710   35.4570   43.0530 N   0  0  0  0  0  0  0  0  0  0  0  0
   43.1710   36.3550   41.6190 H   0  0  0  0  0  0  0  0  0  0  0  0
   43.3860   34.0420   40.7050 H   0  0  0  0  0  0  0  0  0  0  0  0
   44.8660   37.4630   43.2000 O   0  0  0  0  0  0  0  0  0  0  0  0
   44.4270   37.6610   44.0960 H   0  0  0  0  0  0  0  0  0  0  0  0
   46.5360   33.7300   45.1790 O   0  0  0  0  0  0  0  0  0  0  0  0
   45.7030   33.2070   45.2130 H   0  0  0  0  0  0  0  0  0  0  0  0
   46.4580   28.8220   46.0010 F   0  0  0  0  0  0  0  0  0  0  0  0
   46.2450   29.7700   46.9320 C   0  0  0  0  0  0  0  0  0  0  0  0
   46.7290   31.0580   46.9690 C   0  0  0  0  0  0  0  0  0  0  0  0
   46.3300   31.8110   48.0660 C   0  0  0  0  0  0  0  0  0  0  0  0
   45.5150   31.3890   49.0840 C   0  0  0  0  0  0  0  0  0  0  0  0
   45.0690   30.1040   48.9880 C   0  0  0  0  0  0  0  0  0  0  0  0
   45.4120   29.2490   47.9200 C   0  0  0  0  0  0  0  0  0  0  0  0
   46.7520   32.8270   48.0300 H   0  0  0  0  0  0  0  0  0  0  0  0
   45.2990   32.0910   49.8570 H   0  0  0  0  0  0  0  0  0  0  0  0
   44.4220   29.8470   49.8400 H   0  0  0  0  0  0  0  0  0  0  0  0
   44.7950   27.9130   48.1410 C   0  0  0  0  0  2  0  0  0  0  0  0
   44.4650   27.1680   46.9160 C   0  0  0  0  0  0  0  0  0  0  0  0
   45.1780   26.0880   46.6150 C   0  0  0  0  0  0  0  0  0  0  0  0
   44.9090   25.3520   45.4260 N   0  0  0  0  0  0  0  0  0  0  0  0
   45.0280   24.1820   44.6960 C   0  0  0  0  0  0  0  0  0  0  0  0
   45.6650   23.1170   44.6960 O   0  0  0  0  0  0  0  0  0  0  0  0
   44.0120   24.5780   43.7190 C   0  0  0  0  0  3  0  0  0  0  0  0
   42.9840   24.2000   43.9040 H   0  0  0  0  0  0  0  0  0  0  0  0
   44.1770   25.9190   44.3330 C   0  0  1  0  0  3  0  0  0  0  0  0
   42.6630   26.6720   44.9700 S   0  0  0  0  0  0  0  0  0  0  0  0
   43.3480   27.7790   46.2140 C   0  0  0  0  0  3  0  0  0  0  0  0
   42.4630   27.9610   46.9150 H   0  0  0  0  0  0  0  0  0  0  0  0
   46.3060   25.5520   47.4230 C   0  0  0  0  0  0  0  0  0  0  0  0
   47.3090   26.0120   48.0230 O   0  0  0  0  0  0  0  0  0  0  0  0
   46.4710   24.2170   47.7030 O   0  0  0  0  0  0  0  0  0  0  0  0
   46.6450   23.8810   48.6330 H   0  0  0  0  0  0  0  0  0  0  0  0
  1 29  1  0  0  0  0
  2  7  1  0  0  0  0
  2  8  1  1  0  0  0
  2 25  1  0  0  0  0
  3  9  1  6  0  0  0
  3  2  1  0  0  0  0
  4 10  1  0  0  0  0
  4  5  1  0  0  0  0
  4  3  1  0  0  0  0
  5  6  1  0  0  0  0
  6 13  1  0  0  0  0
  6  7  1  0  0  0  0
  7 14  1  6  0  0  0
  7  1  1  0  0  0  0
 11  4  1  0  0  0  0
 12  6  1  0  0  0  0
 15 20  1  0  0  0  0
 15 23  1  0  0  0  0
 16 15  2  0  0  0  0
 17 18  2  0  0  0  0
 17 16  1  0  0  0  0
 18 19  1  0  0  0  0
 19  3  1  0  0  0  0
 19 20  2  0  0  0  0
 21 16  1  0  0  0  0
 22 17  1  0  0  0  0
 23 24  1  0  0  0  0
 25 26  1  0  0  0  0
 27 28  1  0  0  0  0
 28 29  2  0  0  0  0
 28 33  1  0  0  0  0
 29 30  1  0  0  0  0
 30 31  2  0  0  0  0
 31 35  1  0  0  0  0
 32 31  1  0  0  0  0
 32 36  1  0  0  0  0
 33 37  1  0  0  0  0
 33 32  2  0  0  0  0
 34 30  1  0  0  0  0
 38 37  1  0  0  0  0
 39 38  2  0  0  0  0
 39 49  1  0  0  0  0
 40 39  1  0  0  0  0
 41 40  1  0  0  0  0
 42 41  2  0  0  0  0
 43 44  1  0  0  0  0
 43 41  1  0  0  0  0
 45 43  1  6  0  0  0
 45 46  1  0  0  0  0
 45 40  1  0  0  0  0
 46 47  1  0  0  0  0
 47 48  1  0  0  0  0
 47 38  1  0  0  0  0
 49 51  1  0  0  0  0
 49 50  2  0  0  0  0
 51 52  1  0  0  0  0
M  END
>  <minimizedAffinity>
-5.53164339

>  <minimizedRMSD>
1.18870091

$$$$
