
 OpenBabel03242513273D

 37 40  0  0  1  0  0  0  0  0999 V2000
   46.3850   33.8760   41.0380 C   0  0  0  0  0  0  0  0  0  0  0  0
   46.8560   34.7120   42.0100 C   0  0  0  0  0  0  0  0  0  0  0  0
   48.0200   35.3920   41.7450 C   0  0  0  0  0  0  0  0  0  0  0  0
   48.6920   35.2410   40.5440 C   0  0  0  0  0  0  0  0  0  0  0  0
   48.2080   34.4090   39.5940 C   0  0  0  0  0  0  0  0  0  0  0  0
   47.0240   33.6900   39.8120 C   0  0  0  0  0  0  0  0  0  0  0  0
   48.4170   36.0620   42.4970 H   0  0  0  0  0  0  0  0  0  0  0  0
   49.6140   35.7730   40.3210 H   0  0  0  0  0  0  0  0  0  0  0  0
   48.7210   34.2800   38.6520 H   0  0  0  0  0  0  0  0  0  0  0  0
   44.5230   35.9680   44.7010 C   0  0  0  0  0  0  0  0  0  0  0  0
   45.2310   35.8880   43.4900 C   0  0  0  0  0  0  0  0  0  0  0  0
   46.1100   34.8280   43.2380 C   0  0  0  0  0  0  0  0  0  0  0  0
   46.2100   33.9220   44.2280 N   0  0  0  0  0  0  0  0  0  0  0  0
   45.5280   34.0020   45.3860 C   0  0  0  0  0  0  0  0  0  0  0  0
   44.6900   35.0120   45.6300 N   0  0  0  0  0  0  0  0  0  0  0  0
   43.8670   36.8230   44.8050 H   0  0  0  0  0  0  0  0  0  0  0  0
   45.1190   36.6430   42.7210 H   0  0  0  0  0  0  0  0  0  0  0  0
   45.7070   33.2000   46.0950 H   0  0  0  0  0  0  0  0  0  0  0  0
   45.2150   33.1670   41.2570 O   0  0  0  0  0  0  0  0  0  0  0  0
   45.3410   32.1710   41.4160 H   0  0  0  0  0  0  0  0  0  0  0  0
   46.4670   32.8230   38.8920 O   0  0  0  0  0  0  0  0  0  0  0  0
   46.0610   33.4160   37.6460 C   0  0  0  0  0  2  0  0  0  0  0  0
   45.9720   32.4200   36.5770 C   0  0  0  0  0  0  0  0  0  0  0  0
   46.9110   32.1320   35.7260 C   0  0  0  0  0  0  0  0  0  0  0  0
   46.6690   31.1410   34.7420 N   0  0  0  0  0  0  0  0  0  0  0  0
   47.2050   30.0420   34.0010 C   0  0  0  0  0  0  0  0  0  0  0  0
   48.3200   29.4390   33.8340 O   0  0  0  0  0  0  0  0  0  0  0  0
   45.8890   29.7600   33.3850 C   0  0  0  0  0  3  0  0  0  0  0  0
   45.4200   28.8050   33.6980 H   0  0  0  0  0  0  0  0  0  0  0  0
   45.3760   30.9940   34.0510 C   0  0  1  0  0  3  0  0  0  0  0  0
   44.1830   30.6830   35.3960 S   0  0  0  0  0  0  0  0  0  0  0  0
   44.6100   31.8510   36.7160 C   0  0  0  0  0  3  0  0  0  0  0  0
   43.8140   32.6540   36.6560 H   0  0  0  0  0  0  0  0  0  0  0  0
   48.2130   32.7870   35.7290 C   0  0  0  0  0  0  0  0  0  0  0  0
   48.7810   33.7140   36.3550 O   0  0  0  0  0  0  0  0  0  0  0  0
   49.2490   32.4440   34.8890 O   0  0  0  0  0  0  0  0  0  0  0  0
   50.2100   32.2550   35.1400 H   0  0  0  0  0  0  0  0  0  0  0  0
  1 19  1  0  0  0  0
  1  2  1  0  0  0  0
  2 12  1  0  0  0  0
  3  2  2  0  0  0  0
  3  7  1  0  0  0  0
  4  3  1  0  0  0  0
  5  6  1  0  0  0  0
  5  4  2  0  0  0  0
  6  1  2  0  0  0  0
  8  4  1  0  0  0  0
  9  5  1  0  0  0  0
 10 16  1  0  0  0  0
 10 15  1  0  0  0  0
 11 10  2  0  0  0  0
 12 11  1  0  0  0  0
 12 13  2  0  0  0  0
 13 14  1  0  0  0  0
 14 15  2  0  0  0  0
 14 18  1  0  0  0  0
 17 11  1  0  0  0  0
 19 20  1  0  0  0  0
 21  6  1  0  0  0  0
 22 21  1  0  0  0  0
 23 32  1  0  0  0  0
 23 22  1  0  0  0  0
 24 34  1  0  0  0  0
 24 23  2  0  0  0  0
 25 24  1  0  0  0  0
 26 25  1  0  0  0  0
 27 26  2  0  0  0  0
 28 29  1  0  0  0  0
 28 26  1  0  0  0  0
 30 28  1  6  0  0  0
 30 25  1  0  0  0  0
 30 31  1  0  0  0  0
 31 32  1  0  0  0  0
 33 32  1  0  0  0  0
 34 35  2  0  0  0  0
 36 37  1  0  0  0  0
 36 34  1  0  0  0  0
M  END
>  <minimizedAffinity>
-6.17839241

>  <minimizedRMSD>
1.49440038

$$$$
