
 OpenBabel03242517023D

 39 42  0  0  1  0  0  0  0  0999 V2000
   35.5770   28.1700   38.5300 C   0  0  0  0  0  0  0  0  0  0  0  0
   34.6190   27.7490   37.8790 O   0  0  0  0  0  0  0  0  0  0  0  0
   36.4610   27.3860   39.3370 N   0  0  0  0  0  0  0  0  0  0  0  0
   37.2760   27.8030   39.8610 H   0  0  0  0  0  0  0  0  0  0  0  0
   37.0280   25.7660   40.9280 C   0  0  0  0  0  0  0  0  0  0  0  0
   37.1650   24.4460   41.3540 C   0  0  0  0  0  0  0  0  0  0  0  0
   36.8250   23.4210   40.4870 C   0  0  0  0  0  0  0  0  0  0  0  0
   36.3630   23.7320   39.2300 C   0  0  0  0  0  0  0  0  0  0  0  0
   36.2120   25.0050   38.7710 C   0  0  0  0  0  0  0  0  0  0  0  0
   36.5660   26.0160   39.6770 C   0  0  0  0  0  0  0  0  0  0  0  0
   37.5330   24.2310   42.3520 H   0  0  0  0  0  0  0  0  0  0  0  0
   36.9390   22.4130   40.8350 H   0  0  0  0  0  0  0  0  0  0  0  0
   36.1180   22.8840   38.6080 H   0  0  0  0  0  0  0  0  0  0  0  0
   35.8540   25.2560   37.7960 H   0  0  0  0  0  0  0  0  0  0  0  0
   37.1550   28.1250   43.8670 C   0  0  0  0  0  0  0  0  0  0  0  0
   36.6930   27.1000   43.0200 C   0  0  0  0  0  0  0  0  0  0  0  0
   37.4000   26.7980   41.8820 C   0  0  0  0  0  0  0  0  0  0  0  0
   38.5340   27.5250   41.6310 N   0  0  0  0  0  0  0  0  0  0  0  0
   38.9750   28.5040   42.4430 C   0  0  0  0  0  0  0  0  0  0  0  0
   38.2740   28.8110   43.5820 N   0  0  0  0  0  0  0  0  0  0  0  0
   36.5560   28.3140   44.7460 H   0  0  0  0  0  0  0  0  0  0  0  0
   35.8030   26.5350   43.2220 H   0  0  0  0  0  0  0  0  0  0  0  0
   39.8730   28.9910   42.1310 H   0  0  0  0  0  0  0  0  0  0  0  0
   38.8200   32.3010   39.6440 C   0  0  0  0  0  0  0  0  0  0  0  0
   38.8340   31.5410   38.5880 C   0  0  0  0  0  0  0  0  0  0  0  0
   37.7640   30.6380   38.3610 N   0  0  0  0  0  0  0  0  0  0  0  0
   36.8890   29.9560   37.4560 C   0  0  0  0  0  0  0  0  0  0  0  0
   36.9180   29.7080   36.2150 O   0  0  0  0  0  0  0  0  0  0  0  0
   35.8990   29.6290   38.5180 C   0  0  2  0  0  3  0  0  0  0  0  0
   37.0570   29.9490   39.4270 C   0  0  2  0  0  3  0  0  0  0  0  0
   36.5040   31.1820   40.6380 S   0  0  0  0  0  0  0  0  0  0  0  0
   37.8150   32.3860   40.7020 C   0  0  0  0  0  3  0  0  0  0  0  0
   38.3720   32.2140   41.6700 H   0  0  0  0  0  0  0  0  0  0  0  0
   39.9680   33.2110   39.8080 C   0  0  0  0  0  2  0  0  0  0  0  0
   40.0810   33.9350   38.9470 H   0  0  0  0  0  0  0  0  0  0  0  0
   39.9120   31.5650   37.6070 C   0  0  0  0  0  0  0  0  0  0  0  0
   40.9840   30.9110   37.5800 O   0  0  0  0  0  0  0  0  0  0  0  0
   39.9140   32.3700   36.4790 O   0  0  0  0  0  0  0  0  0  0  0  0
   40.2660   32.1340   35.5730 H   0  0  0  0  0  0  0  0  0  0  0  0
  1  3  1  0  0  0  0
  2  1  2  0  0  0  0
  3 10  1  0  0  0  0
  3  4  1  0  0  0  0
  5  6  1  0  0  0  0
  5 17  1  0  0  0  0
  6 11  1  0  0  0  0
  7 12  1  0  0  0  0
  7  6  2  0  0  0  0
  8  7  1  0  0  0  0
  9  8  2  0  0  0  0
  9 10  1  0  0  0  0
 10  5  2  0  0  0  0
 13  8  1  0  0  0  0
 14  9  1  0  0  0  0
 15 21  1  0  0  0  0
 16 22  1  0  0  0  0
 16 15  2  0  0  0  0
 17 16  1  0  0  0  0
 18 17  2  0  0  0  0
 18 19  1  0  0  0  0
 19 20  2  0  0  0  0
 20 15  1  0  0  0  0
 23 19  1  0  0  0  0
 24 34  1  0  0  0  0
 24 32  1  0  0  0  0
 25 24  2  0  0  0  0
 26 25  1  0  0  0  0
 26 30  1  0  0  0  0
 27 26  1  0  0  0  0
 27 29  1  0  0  0  0
 28 27  2  0  0  0  0
 29  1  1  6  0  0  0
 29 30  1  0  0  0  0
 30 31  1  1  0  0  0
 31 32  1  0  0  0  0
 32 33  1  0  0  0  0
 35 34  1  0  0  0  0
 36 25  1  0  0  0  0
 37 36  2  0  0  0  0
 38 36  1  0  0  0  0
 39 38  1  0  0  0  0
M  END
>  <minimizedAffinity>
-6.82131147

$$$$

 OpenBabel03242517023D

 39 42  0  0  1  0  0  0  0  0999 V2000
   38.6730   28.1970   42.5620 C   0  0  0  0  0  0  0  0  0  0  0  0
   39.3090   27.4960   43.3530 O   0  0  0  0  0  0  0  0  0  0  0  0
   37.7360   27.7330   41.5870 N   0  0  0  0  0  0  0  0  0  0  0  0
   37.2100   28.3840   40.9450 H   0  0  0  0  0  0  0  0  0  0  0  0
   36.7970   26.4040   39.9030 C   0  0  0  0  0  0  0  0  0  0  0  0
   36.2950   25.1990   39.4150 C   0  0  0  0  0  0  0  0  0  0  0  0
   36.2650   24.0950   40.2510 C   0  0  0  0  0  0  0  0  0  0  0  0
   36.7310   24.2160   41.5390 C   0  0  0  0  0  0  0  0  0  0  0  0
   37.2310   25.3720   42.0580 C   0  0  0  0  0  0  0  0  0  0  0  0
   37.2450   26.4670   41.1830 C   0  0  0  0  0  0  0  0  0  0  0  0
   35.9340   25.1330   38.3940 H   0  0  0  0  0  0  0  0  0  0  0  0
   35.8740   23.1780   39.8540 H   0  0  0  0  0  0  0  0  0  0  0  0
   36.6780   23.3170   42.1340 H   0  0  0  0  0  0  0  0  0  0  0  0
   37.5940   25.4760   43.0580 H   0  0  0  0  0  0  0  0  0  0  0  0
   35.8180   29.2980   37.6930 C   0  0  0  0  0  0  0  0  0  0  0  0
   35.6840   28.2260   38.5970 C   0  0  0  0  0  0  0  0  0  0  0  0
   36.8020   27.5270   38.9810 C   0  0  0  0  0  0  0  0  0  0  0  0
   38.0050   27.9180   38.4530 N   0  0  0  0  0  0  0  0  0  0  0  0
   38.1300   28.9440   37.5890 C   0  0  0  0  0  0  0  0  0  0  0  0
   37.0180   29.6470   37.2020 N   0  0  0  0  0  0  0  0  0  0  0  0
   34.9020   29.8080   37.4310 H   0  0  0  0  0  0  0  0  0  0  0  0
   34.7400   27.9240   39.0060 H   0  0  0  0  0  0  0  0  0  0  0  0
   39.1250   29.1450   37.2550 H   0  0  0  0  0  0  0  0  0  0  0  0
   40.3330   32.7670   40.2870 C   0  0  0  0  0  0  0  0  0  0  0  0
   39.1860   32.1730   40.1350 C   0  0  0  0  0  0  0  0  0  0  0  0
   38.8380   31.0920   40.9830 N   0  0  0  0  0  0  0  0  0  0  0  0
   37.8490   30.3550   41.7100 C   0  0  0  0  0  0  0  0  0  0  0  0
   36.5860   30.2840   41.6610 O   0  0  0  0  0  0  0  0  0  0  0  0
   38.8560   29.6790   42.5730 C   0  0  2  0  0  3  0  0  0  0  0  0
   39.8020   30.1300   41.4900 C   0  0  2  0  0  3  0  0  0  0  0  0
   41.1650   31.0390   42.2680 S   0  0  0  0  0  0  0  0  0  0  0  0
   41.3910   32.4860   41.2560 C   0  0  0  0  0  3  0  0  0  0  0  0
   42.3280   32.3190   40.6480 H   0  0  0  0  0  0  0  0  0  0  0  0
   40.6190   33.8820   39.3660 C   0  0  0  0  0  2  0  0  0  0  0  0
   39.8630   34.7190   39.4410 H   0  0  0  0  0  0  0  0  0  0  0  0
   38.2180   32.5660   39.1170 C   0  0  0  0  0  0  0  0  0  0  0  0
   37.1280   33.1770   39.2440 O   0  0  0  0  0  0  0  0  0  0  0  0
   38.3680   32.3060   37.7650 O   0  0  0  0  0  0  0  0  0  0  0  0
   38.1030   32.9000   37.0050 H   0  0  0  0  0  0  0  0  0  0  0  0
  1  2  2  0  0  0  0
  3  1  1  0  0  0  0
  4  3  1  0  0  0  0
  5 10  1  0  0  0  0
  6  5  2  0  0  0  0
  6  7  1  0  0  0  0
  7  8  2  0  0  0  0
  8  9  1  0  0  0  0
  8 13  1  0  0  0  0
  9 14  1  0  0  0  0
 10  3  1  0  0  0  0
 10  9  2  0  0  0  0
 11  6  1  0  0  0  0
 12  7  1  0  0  0  0
 15 16  1  0  0  0  0
 16 17  2  0  0  0  0
 16 22  1  0  0  0  0
 17  5  1  0  0  0  0
 18 17  1  0  0  0  0
 19 18  2  0  0  0  0
 20 19  1  0  0  0  0
 20 15  2  0  0  0  0
 21 15  1  0  0  0  0
 23 19  1  0  0  0  0
 24 32  1  0  0  0  0
 25 24  2  0  0  0  0
 25 26  1  0  0  0  0
 26 30  1  0  0  0  0
 26 27  1  0  0  0  0
 27 29  1  0  0  0  0
 28 27  2  0  0  0  0
 29  1  1  6  0  0  0
 30 31  1  1  0  0  0
 30 29  1  0  0  0  0
 32 31  1  0  0  0  0
 33 32  1  0  0  0  0
 34 35  1  0  0  0  0
 34 24  1  0  0  0  0
 36 37  2  0  0  0  0
 36 25  1  0  0  0  0
 38 36  1  0  0  0  0
 39 38  1  0  0  0  0
M  END
>  <minimizedAffinity>
-6.35079527

$$$$

 OpenBabel03242517023D

 39 42  0  0  1  0  0  0  0  0999 V2000
   36.6550   29.3080   40.8350 C   0  0  0  0  0  0  0  0  0  0  0  0
   35.4250   29.3880   40.8770 O   0  0  0  0  0  0  0  0  0  0  0  0
   37.4250   28.1020   40.8660 N   0  0  0  0  0  0  0  0  0  0  0  0
   38.4780   28.0960   40.8120 H   0  0  0  0  0  0  0  0  0  0  0  0
   36.7680   26.1260   39.7960 C   0  0  0  0  0  0  0  0  0  0  0  0
   36.4600   24.7680   39.7910 C   0  0  0  0  0  0  0  0  0  0  0  0
   36.5310   24.0560   40.9770 C   0  0  0  0  0  0  0  0  0  0  0  0
   36.9030   24.7100   42.1290 C   0  0  0  0  0  0  0  0  0  0  0  0
   37.2130   26.0340   42.1820 C   0  0  0  0  0  0  0  0  0  0  0  0
   37.1310   26.7200   40.9610 C   0  0  0  0  0  0  0  0  0  0  0  0
   36.1690   24.2790   38.8660 H   0  0  0  0  0  0  0  0  0  0  0  0
   36.2890   23.0120   40.9490 H   0  0  0  0  0  0  0  0  0  0  0  0
   36.9360   24.0950   43.0150 H   0  0  0  0  0  0  0  0  0  0  0  0
   37.5030   26.5510   43.0720 H   0  0  0  0  0  0  0  0  0  0  0  0
   35.5500   27.6960   36.5910 C   0  0  0  0  0  0  0  0  0  0  0  0
   35.5110   27.0080   37.8190 C   0  0  0  0  0  0  0  0  0  0  0  0
   36.6760   26.8190   38.5220 C   0  0  0  0  0  0  0  0  0  0  0  0
   37.8300   27.3190   37.9780 N   0  0  0  0  0  0  0  0  0  0  0  0
   37.8650   27.9780   36.8040 C   0  0  0  0  0  0  0  0  0  0  0  0
   36.7050   28.1700   36.0970 N   0  0  0  0  0  0  0  0  0  0  0  0
   34.6010   27.8120   36.0880 H   0  0  0  0  0  0  0  0  0  0  0  0
   34.6040   26.6170   38.2390 H   0  0  0  0  0  0  0  0  0  0  0  0
   38.8300   28.3170   36.4950 H   0  0  0  0  0  0  0  0  0  0  0  0
   41.3120   31.8390   39.9860 C   0  0  0  0  0  0  0  0  0  0  0  0
   40.4290   31.4800   39.1010 C   0  0  0  0  0  0  0  0  0  0  0  0
   39.1580   31.0190   39.5270 N   0  0  0  0  0  0  0  0  0  0  0  0
   37.7440   30.9220   39.3270 C   0  0  0  0  0  0  0  0  0  0  0  0
   36.9770   31.0840   38.3320 O   0  0  0  0  0  0  0  0  0  0  0  0
   37.4770   30.5510   40.7440 C   0  0  2  0  0  3  0  0  0  0  0  0
   38.9520   30.2430   40.7380 C   0  0  2  0  0  3  0  0  0  0  0  0
   39.7220   31.1260   42.1230 S   0  0  0  0  0  0  0  0  0  0  0  0
   41.2010   31.8490   41.4440 C   0  0  0  0  0  3  0  0  0  0  0  0
   42.0710   31.2350   41.8220 H   0  0  0  0  0  0  0  0  0  0  0  0
   42.6090   32.3070   39.4620 C   0  0  0  0  0  2  0  0  0  0  0  0
   42.5100   33.2090   38.7880 H   0  0  0  0  0  0  0  0  0  0  0  0
   40.6800   31.5270   37.6650 C   0  0  0  0  0  0  0  0  0  0  0  0
   41.4120   30.7910   36.9580 O   0  0  0  0  0  0  0  0  0  0  0  0
   40.1080   32.4530   36.8090 O   0  0  0  0  0  0  0  0  0  0  0  0
   39.8010   32.2950   35.8700 H   0  0  0  0  0  0  0  0  0  0  0  0
  1  3  1  0  0  0  0
  1  2  2  0  0  0  0
  3 10  1  0  0  0  0
  4  3  1  0  0  0  0
  5 10  1  0  0  0  0
  6  5  2  0  0  0  0
  6  7  1  0  0  0  0
  7  8  2  0  0  0  0
  8  9  1  0  0  0  0
  8 13  1  0  0  0  0
  9 14  1  0  0  0  0
 10  9  2  0  0  0  0
 11  6  1  0  0  0  0
 12  7  1  0  0  0  0
 15 16  1  0  0  0  0
 16 22  1  0  0  0  0
 16 17  2  0  0  0  0
 17  5  1  0  0  0  0
 18 17  1  0  0  0  0
 19 18  2  0  0  0  0
 20 15  2  0  0  0  0
 20 19  1  0  0  0  0
 21 15  1  0  0  0  0
 23 19  1  0  0  0  0
 24 32  1  0  0  0  0
 25 26  1  0  0  0  0
 25 24  2  0  0  0  0
 26 30  1  0  0  0  0
 27 26  1  0  0  0  0
 27 29  1  0  0  0  0
 28 27  2  0  0  0  0
 29  1  1  6  0  0  0
 30 29  1  0  0  0  0
 30 31  1  1  0  0  0
 32 33  1  0  0  0  0
 32 31  1  0  0  0  0
 34 24  1  0  0  0  0
 35 34  1  0  0  0  0
 36 25  1  0  0  0  0
 37 36  2  0  0  0  0
 38 36  1  0  0  0  0
 39 38  1  0  0  0  0
M  END
>  <minimizedAffinity>
-6.06576872

$$$$

 OpenBabel03242517023D

 39 42  0  0  1  0  0  0  0  0999 V2000
   36.3690   29.8920   38.6210 C   0  0  0  0  0  0  0  0  0  0  0  0
   36.4980   30.2560   37.4500 O   0  0  0  0  0  0  0  0  0  0  0  0
   36.8520   30.5820   39.7780 N   0  0  0  0  0  0  0  0  0  0  0  0
   36.6980   30.2280   40.7590 H   0  0  0  0  0  0  0  0  0  0  0  0
   38.7350   31.6190   40.7050 C   0  0  0  0  0  0  0  0  0  0  0  0
   39.5200   32.7360   40.9810 C   0  0  0  0  0  0  0  0  0  0  0  0
   39.1000   33.9800   40.5390 C   0  0  0  0  0  0  0  0  0  0  0  0
   37.9200   34.0790   39.8400 C   0  0  0  0  0  0  0  0  0  0  0  0
   37.1220   33.0160   39.5460 C   0  0  0  0  0  0  0  0  0  0  0  0
   37.5800   31.7740   40.0100 C   0  0  0  0  0  0  0  0  0  0  0  0
   40.4470   32.6270   41.5360 H   0  0  0  0  0  0  0  0  0  0  0  0
   39.7200   34.8260   40.7640 H   0  0  0  0  0  0  0  0  0  0  0  0
   37.6540   35.0780   39.5270 H   0  0  0  0  0  0  0  0  0  0  0  0
   36.2030   33.0840   39.0040 H   0  0  0  0  0  0  0  0  0  0  0  0
   39.8880   28.7550   42.8700 C   0  0  0  0  0  0  0  0  0  0  0  0
   39.4020   30.0290   42.5200 C   0  0  0  0  0  0  0  0  0  0  0  0
   39.2270   30.3410   41.1940 C   0  0  0  0  0  0  0  0  0  0  0  0
   39.5410   29.3790   40.2710 N   0  0  0  0  0  0  0  0  0  0  0  0
   40.0050   28.1600   40.6080 C   0  0  0  0  0  0  0  0  0  0  0  0
   40.1820   27.8410   41.9310 N   0  0  0  0  0  0  0  0  0  0  0  0
   40.0020   28.5710   43.9290 H   0  0  0  0  0  0  0  0  0  0  0  0
   39.1580   30.7790   43.2470 H   0  0  0  0  0  0  0  0  0  0  0  0
   40.2110   27.5040   39.7900 H   0  0  0  0  0  0  0  0  0  0  0  0
   36.2200   24.5450   39.0700 C   0  0  0  0  0  0  0  0  0  0  0  0
   36.5920   25.4090   39.9680 C   0  0  0  0  0  0  0  0  0  0  0  0
   36.3580   26.7900   39.7520 N   0  0  0  0  0  0  0  0  0  0  0  0
   36.0360   28.0880   40.2630 C   0  0  0  0  0  0  0  0  0  0  0  0
   36.0600   28.6160   41.4140 O   0  0  0  0  0  0  0  0  0  0  0  0
   35.6510   28.6190   38.9280 C   0  0  2  0  0  3  0  0  0  0  0  0
   36.4210   27.4180   38.4430 C   0  0  2  0  0  3  0  0  0  0  0  0
   35.3590   26.4830   37.3070 S   0  0  0  0  0  0  0  0  0  0  0  0
   35.5530   24.7800   37.7900 C   0  0  0  0  0  3  0  0  0  0  0  0
   36.2060   24.2890   37.0090 H   0  0  0  0  0  0  0  0  0  0  0  0
   36.5000   23.1290   39.3710 C   0  0  0  0  0  2  0  0  0  0  0  0
   35.9980   22.7740   40.3190 H   0  0  0  0  0  0  0  0  0  0  0  0
   37.2510   25.0270   41.2120 C   0  0  0  0  0  0  0  0  0  0  0  0
   36.7490   24.6380   42.2960 O   0  0  0  0  0  0  0  0  0  0  0  0
   38.6240   25.0360   41.3950 O   0  0  0  0  0  0  0  0  0  0  0  0
   39.1650   24.3800   41.9230 H   0  0  0  0  0  0  0  0  0  0  0  0
  1  3  1  0  0  0  0
  2  1  2  0  0  0  0
  3 10  1  0  0  0  0
  3  4  1  0  0  0  0
  5  6  1  0  0  0  0
  5 17  1  0  0  0  0
  6 11  1  0  0  0  0
  7 12  1  0  0  0  0
  7  6  2  0  0  0  0
  8  7  1  0  0  0  0
  9  8  2  0  0  0  0
  9 10  1  0  0  0  0
 10  5  2  0  0  0  0
 13  8  1  0  0  0  0
 14  9  1  0  0  0  0
 15 21  1  0  0  0  0
 16 15  1  0  0  0  0
 16 22  1  0  0  0  0
 17 16  2  0  0  0  0
 18 19  2  0  0  0  0
 18 17  1  0  0  0  0
 19 20  1  0  0  0  0
 20 15  2  0  0  0  0
 23 19  1  0  0  0  0
 24 34  1  0  0  0  0
 24 25  2  0  0  0  0
 25 36  1  0  0  0  0
 26 25  1  0  0  0  0
 26 27  1  0  0  0  0
 27 28  2  0  0  0  0
 29  1  1  6  0  0  0
 29 27  1  0  0  0  0
 30 31  1  6  0  0  0
 30 29  1  0  0  0  0
 30 26  1  0  0  0  0
 31 32  1  0  0  0  0
 32 24  1  0  0  0  0
 33 32  1  0  0  0  0
 34 35  1  0  0  0  0
 36 38  1  0  0  0  0
 36 37  2  0  0  0  0
 38 39  1  0  0  0  0
M  END
>  <minimizedAffinity>
-5.81663561

$$$$

 OpenBabel03242517023D

 39 42  0  0  1  0  0  0  0  0999 V2000
   36.6480   29.9000   40.0830 C   0  0  0  0  0  0  0  0  0  0  0  0
   35.4480   30.0580   40.3200 O   0  0  0  0  0  0  0  0  0  0  0  0
   37.2720   28.6850   39.6600 N   0  0  0  0  0  0  0  0  0  0  0  0
   38.3050   28.6140   39.4580 H   0  0  0  0  0  0  0  0  0  0  0  0
   37.2390   26.4330   40.2990 C   0  0  0  0  0  0  0  0  0  0  0  0
   36.8550   25.1040   40.1250 C   0  0  0  0  0  0  0  0  0  0  0  0
   36.0690   24.7670   39.0350 C   0  0  0  0  0  0  0  0  0  0  0  0
   35.6880   25.7520   38.1540 C   0  0  0  0  0  0  0  0  0  0  0  0
   36.0380   27.0620   38.2840 C   0  0  0  0  0  0  0  0  0  0  0  0
   36.8330   27.3640   39.3990 C   0  0  0  0  0  0  0  0  0  0  0  0
   37.1720   24.3480   40.8370 H   0  0  0  0  0  0  0  0  0  0  0  0
   35.7860   23.7390   38.9210 H   0  0  0  0  0  0  0  0  0  0  0  0
   35.0780   25.4190   37.3290 H   0  0  0  0  0  0  0  0  0  0  0  0
   35.7470   27.8340   37.6040 H   0  0  0  0  0  0  0  0  0  0  0  0
   38.4950   27.0950   43.7920 C   0  0  0  0  0  0  0  0  0  0  0  0
   37.5960   26.8030   42.7490 C   0  0  0  0  0  0  0  0  0  0  0  0
   38.0630   26.7240   41.4600 C   0  0  0  0  0  0  0  0  0  0  0  0
   39.4010   26.9390   41.2590 N   0  0  0  0  0  0  0  0  0  0  0  0
   40.2600   27.2170   42.2580 C   0  0  0  0  0  0  0  0  0  0  0  0
   39.8000   27.2970   43.5480 N   0  0  0  0  0  0  0  0  0  0  0  0
   38.0650   27.1420   44.7830 H   0  0  0  0  0  0  0  0  0  0  0  0
   36.5480   26.6380   42.9120 H   0  0  0  0  0  0  0  0  0  0  0  0
   41.2770   27.3610   41.9640 H   0  0  0  0  0  0  0  0  0  0  0  0
   41.5980   31.9790   40.0580 C   0  0  0  0  0  0  0  0  0  0  0  0
   40.7960   31.8200   39.0460 C   0  0  0  0  0  0  0  0  0  0  0  0
   39.4440   31.4580   39.2730 N   0  0  0  0  0  0  0  0  0  0  0  0
   38.0620   31.5400   38.9110 C   0  0  0  0  0  0  0  0  0  0  0  0
   37.4400   31.8950   37.8660 O   0  0  0  0  0  0  0  0  0  0  0  0
   37.5920   31.0480   40.2340 C   0  0  2  0  0  3  0  0  0  0  0  0
   39.0200   30.5800   40.3500 C   0  0  2  0  0  3  0  0  0  0  0  0
   39.7000   31.2140   41.9080 S   0  0  0  0  0  0  0  0  0  0  0  0
   41.3130   31.8400   41.4860 C   0  0  0  0  0  3  0  0  0  0  0  0
   42.0670   31.0950   41.8780 H   0  0  0  0  0  0  0  0  0  0  0  0
   42.9870   32.3550   39.7380 C   0  0  0  0  0  2  0  0  0  0  0  0
   43.0580   33.3310   39.1740 H   0  0  0  0  0  0  0  0  0  0  0  0
   41.2210   31.9960   37.6620 C   0  0  0  0  0  0  0  0  0  0  0  0
   41.7300   31.1640   36.8710 O   0  0  0  0  0  0  0  0  0  0  0  0
   41.1200   33.1890   36.9670 O   0  0  0  0  0  0  0  0  0  0  0  0
   40.8940   33.3040   35.9990 H   0  0  0  0  0  0  0  0  0  0  0  0
  1  2  2  0  0  0  0
  3  1  1  0  0  0  0
  4  3  1  0  0  0  0
  5 17  1  0  0  0  0
  6  5  1  0  0  0  0
  6 11  1  0  0  0  0
  7  6  2  0  0  0  0
  8  9  2  0  0  0  0
  8  7  1  0  0  0  0
  9 10  1  0  0  0  0
 10  3  1  0  0  0  0
 10  5  2  0  0  0  0
 12  7  1  0  0  0  0
 13  8  1  0  0  0  0
 14  9  1  0  0  0  0
 15 21  1  0  0  0  0
 16 22  1  0  0  0  0
 16 15  2  0  0  0  0
 17 16  1  0  0  0  0
 18 17  2  0  0  0  0
 18 19  1  0  0  0  0
 19 20  2  0  0  0  0
 20 15  1  0  0  0  0
 23 19  1  0  0  0  0
 24 32  1  0  0  0  0
 25 26  1  0  0  0  0
 25 24  2  0  0  0  0
 26 30  1  0  0  0  0
 27 26  1  0  0  0  0
 27 29  1  0  0  0  0
 28 27  2  0  0  0  0
 29  1  1  6  0  0  0
 29 30  1  0  0  0  0
 30 31  1  1  0  0  0
 32 33  1  0  0  0  0
 32 31  1  0  0  0  0
 34 24  1  0  0  0  0
 35 34  1  0  0  0  0
 36 25  1  0  0  0  0
 37 36  2  0  0  0  0
 38 36  1  0  0  0  0
 39 38  1  0  0  0  0
M  END
>  <minimizedAffinity>
-5.81550407

$$$$

 OpenBabel03242517023D

 39 42  0  0  1  0  0  0  0  0999 V2000
   36.9110   27.8640   42.3920 C   0  0  0  0  0  0  0  0  0  0  0  0
   36.3200   27.4810   43.4040 O   0  0  0  0  0  0  0  0  0  0  0  0
   37.3940   27.0360   41.3310 N   0  0  0  0  0  0  0  0  0  0  0  0
   37.8810   27.4240   40.4800 H   0  0  0  0  0  0  0  0  0  0  0  0
   38.5610   25.0070   41.3630 C   0  0  0  0  0  0  0  0  0  0  0  0
   38.6640   23.6360   41.1320 C   0  0  0  0  0  0  0  0  0  0  0  0
   37.5780   22.9600   40.6000 C   0  0  0  0  0  0  0  0  0  0  0  0
   36.4290   23.6580   40.3120 C   0  0  0  0  0  0  0  0  0  0  0  0
   36.2830   24.9960   40.5210 C   0  0  0  0  0  0  0  0  0  0  0  0
   37.4020   25.6460   41.0610 C   0  0  0  0  0  0  0  0  0  0  0  0
   39.5840   23.1120   41.3690 H   0  0  0  0  0  0  0  0  0  0  0  0
   37.6800   21.9060   40.4310 H   0  0  0  0  0  0  0  0  0  0  0  0
   35.6250   23.0680   39.9000 H   0  0  0  0  0  0  0  0  0  0  0  0
   35.3940   25.5470   40.3000 H   0  0  0  0  0  0  0  0  0  0  0  0
   41.9500   26.5760   41.8770 C   0  0  0  0  0  0  0  0  0  0  0  0
   40.8800   25.9380   41.2220 C   0  0  0  0  0  0  0  0  0  0  0  0
   39.7320   25.6610   41.9230 C   0  0  0  0  0  0  0  0  0  0  0  0
   39.6920   26.0290   43.2420 N   0  0  0  0  0  0  0  0  0  0  0  0
   40.7160   26.6410   43.8660 C   0  0  0  0  0  0  0  0  0  0  0  0
   41.8660   26.9200   43.1720 N   0  0  0  0  0  0  0  0  0  0  0  0
   42.8250   26.7670   41.2710 H   0  0  0  0  0  0  0  0  0  0  0  0
   40.9180   25.6510   40.1890 H   0  0  0  0  0  0  0  0  0  0  0  0
   40.5540   26.8750   44.8960 H   0  0  0  0  0  0  0  0  0  0  0  0
   39.6620   31.9020   40.1690 C   0  0  0  0  0  0  0  0  0  0  0  0
   38.6310   31.2780   39.6800 C   0  0  0  0  0  0  0  0  0  0  0  0
   37.8980   30.3850   40.5020 N   0  0  0  0  0  0  0  0  0  0  0  0
   36.6510   29.7990   40.8920 C   0  0  0  0  0  0  0  0  0  0  0  0
   35.5100   29.7060   40.3510 O   0  0  0  0  0  0  0  0  0  0  0  0
   37.1800   29.3200   42.1980 C   0  0  2  0  0  3  0  0  0  0  0  0
   38.5080   29.5540   41.5260 C   0  0  2  0  0  3  0  0  0  0  0  0
   39.5110   30.6150   42.6030 S   0  0  0  0  0  0  0  0  0  0  0  0
   40.2240   31.8320   41.5170 C   0  0  0  0  0  3  0  0  0  0  0  0
   41.3120   31.5560   41.3820 H   0  0  0  0  0  0  0  0  0  0  0  0
   40.3700   32.8120   39.2500 C   0  0  0  0  0  2  0  0  0  0  0  0
   39.7090   33.6390   38.8550 H   0  0  0  0  0  0  0  0  0  0  0  0
   38.1790   31.4480   38.3040 C   0  0  0  0  0  0  0  0  0  0  0  0
   37.2580   32.1710   37.8500 O   0  0  0  0  0  0  0  0  0  0  0  0
   38.7360   30.7920   37.2200 O   0  0  0  0  0  0  0  0  0  0  0  0
   38.8780   31.1620   36.3000 H   0  0  0  0  0  0  0  0  0  0  0  0
  1  2  2  0  0  0  0
  3  1  1  0  0  0  0
  4  3  1  0  0  0  0
  5 17  1  0  0  0  0
  6  5  1  0  0  0  0
  6 11  1  0  0  0  0
  7  6  2  0  0  0  0
  8  9  2  0  0  0  0
  8  7  1  0  0  0  0
  9 10  1  0  0  0  0
 10  3  1  0  0  0  0
 10  5  2  0  0  0  0
 12  7  1  0  0  0  0
 13  8  1  0  0  0  0
 14  9  1  0  0  0  0
 15 20  1  0  0  0  0
 16 15  2  0  0  0  0
 16 17  1  0  0  0  0
 17 18  2  0  0  0  0
 18 19  1  0  0  0  0
 19 23  1  0  0  0  0
 20 19  2  0  0  0  0
 21 15  1  0  0  0  0
 22 16  1  0  0  0  0
 24 32  1  0  0  0  0
 25 24  2  0  0  0  0
 25 26  1  0  0  0  0
 26 27  1  0  0  0  0
 26 30  1  0  0  0  0
 27 29  1  0  0  0  0
 28 27  2  0  0  0  0
 29  1  1  6  0  0  0
 30 29  1  0  0  0  0
 30 31  1  1  0  0  0
 32 31  1  0  0  0  0
 33 32  1  0  0  0  0
 34 24  1  0  0  0  0
 35 34  1  0  0  0  0
 36 25  1  0  0  0  0
 37 36  2  0  0  0  0
 38 36  1  0  0  0  0
 39 38  1  0  0  0  0
M  END
>  <minimizedAffinity>
-5.78834581

$$$$

 OpenBabel03242517023D

 39 42  0  0  1  0  0  0  0  0999 V2000
   40.3250   30.2070   41.8030 C   0  0  0  0  0  0  0  0  0  0  0  0
   40.8120   30.8030   42.7660 O   0  0  0  0  0  0  0  0  0  0  0  0
   39.5510   30.7920   40.7510 N   0  0  0  0  0  0  0  0  0  0  0  0
   39.1720   30.2310   39.9420 H   0  0  0  0  0  0  0  0  0  0  0  0
   37.8160   32.1570   39.9730 C   0  0  0  0  0  0  0  0  0  0  0  0
   37.2710   33.3970   39.6460 C   0  0  0  0  0  0  0  0  0  0  0  0
   38.0420   34.5360   39.8110 C   0  0  0  0  0  0  0  0  0  0  0  0
   39.3240   34.4130   40.2940 C   0  0  0  0  0  0  0  0  0  0  0  0
   39.8970   33.2240   40.6270 C   0  0  0  0  0  0  0  0  0  0  0  0
   39.0860   32.0940   40.4460 C   0  0  0  0  0  0  0  0  0  0  0  0
   36.2560   33.4630   39.2670 H   0  0  0  0  0  0  0  0  0  0  0  0
   37.6020   35.4790   39.5520 H   0  0  0  0  0  0  0  0  0  0  0  0
   39.8670   35.3410   40.3970 H   0  0  0  0  0  0  0  0  0  0  0  0
   40.8930   33.1190   41.0020 H   0  0  0  0  0  0  0  0  0  0  0  0
   35.7280   29.3870   38.4940 C   0  0  0  0  0  0  0  0  0  0  0  0
   36.5620   30.5200   38.5530 C   0  0  0  0  0  0  0  0  0  0  0  0
   36.9600   30.9990   39.7780 C   0  0  0  0  0  0  0  0  0  0  0  0
   36.5150   30.3350   40.8910 N   0  0  0  0  0  0  0  0  0  0  0  0
   35.7180   29.2510   40.8310 C   0  0  0  0  0  0  0  0  0  0  0  0
   35.3170   28.7680   39.6110 N   0  0  0  0  0  0  0  0  0  0  0  0
   35.4520   29.0600   37.5010 H   0  0  0  0  0  0  0  0  0  0  0  0
   36.9070   31.0360   37.6780 H   0  0  0  0  0  0  0  0  0  0  0  0
   35.4440   28.8290   41.7740 H   0  0  0  0  0  0  0  0  0  0  0  0
   38.4770   25.1670   41.8250 C   0  0  0  0  0  0  0  0  0  0  0  0
   38.4930   26.0040   40.8290 C   0  0  0  0  0  0  0  0  0  0  0  0
   39.2190   27.2160   40.9450 N   0  0  0  0  0  0  0  0  0  0  0  0
   40.0240   28.2400   40.3510 C   0  0  0  0  0  0  0  0  0  0  0  0
   40.2470   28.6120   39.1620 O   0  0  0  0  0  0  0  0  0  0  0  0
   40.5250   28.7340   41.6630 C   0  0  2  0  0  3  0  0  0  0  0  0
   39.3420   27.9610   42.1870 C   0  0  2  0  0  3  0  0  0  0  0  0
   39.9290   26.8290   43.4780 S   0  0  0  0  0  0  0  0  0  0  0  0
   39.1300   25.2770   43.1280 C   0  0  0  0  0  3  0  0  0  0  0  0
   38.3100   25.1490   43.8950 H   0  0  0  0  0  0  0  0  0  0  0  0
   37.6990   23.9300   41.6250 C   0  0  0  0  0  2  0  0  0  0  0  0
   38.0700   23.3140   40.7530 H   0  0  0  0  0  0  0  0  0  0  0  0
   37.7900   25.7590   39.5750 C   0  0  0  0  0  0  0  0  0  0  0  0
   38.2160   25.2580   38.5050 O   0  0  0  0  0  0  0  0  0  0  0  0
   36.4560   26.0660   39.3630 O   0  0  0  0  0  0  0  0  0  0  0  0
   35.7950   25.5370   38.8290 H   0  0  0  0  0  0  0  0  0  0  0  0
  1  2  2  0  0  0  0
  3  1  1  0  0  0  0
  4  3  1  0  0  0  0
  5 10  1  0  0  0  0
  6  7  1  0  0  0  0
  6  5  2  0  0  0  0
  7  8  2  0  0  0  0
  8 13  1  0  0  0  0
  8  9  1  0  0  0  0
  9 14  1  0  0  0  0
 10  9  2  0  0  0  0
 10  3  1  0  0  0  0
 11  6  1  0  0  0  0
 12  7  1  0  0  0  0
 15 16  2  0  0  0  0
 15 20  1  0  0  0  0
 16 17  1  0  0  0  0
 17  5  1  0  0  0  0
 17 18  2  0  0  0  0
 19 18  1  0  0  0  0
 19 23  1  0  0  0  0
 20 19  2  0  0  0  0
 21 15  1  0  0  0  0
 22 16  1  0  0  0  0
 24 32  1  0  0  0  0
 25 26  1  0  0  0  0
 25 24  2  0  0  0  0
 26 30  1  0  0  0  0
 27 26  1  0  0  0  0
 27 29  1  0  0  0  0
 28 27  2  0  0  0  0
 29  1  1  6  0  0  0
 29 30  1  0  0  0  0
 30 31  1  1  0  0  0
 32 31  1  0  0  0  0
 32 33  1  0  0  0  0
 34 24  1  0  0  0  0
 35 34  1  0  0  0  0
 36 25  1  0  0  0  0
 37 36  2  0  0  0  0
 38 36  1  0  0  0  0
 39 38  1  0  0  0  0
M  END
>  <minimizedAffinity>
-5.75408506

$$$$

 OpenBabel03242517023D

 39 42  0  0  1  0  0  0  0  0999 V2000
   37.4060   30.6730   38.5600 C   0  0  0  0  0  0  0  0  0  0  0  0
   37.2880   31.0490   37.3910 O   0  0  0  0  0  0  0  0  0  0  0  0
   38.2740   31.2390   39.5450 N   0  0  0  0  0  0  0  0  0  0  0  0
   38.3220   30.8830   40.5370 H   0  0  0  0  0  0  0  0  0  0  0  0
   40.4720   31.9530   39.1680 C   0  0  0  0  0  0  0  0  0  0  0  0
   41.4710   32.9240   39.1580 C   0  0  0  0  0  0  0  0  0  0  0  0
   41.1620   34.2130   39.5590 C   0  0  0  0  0  0  0  0  0  0  0  0
   39.8780   34.5010   39.9580 C   0  0  0  0  0  0  0  0  0  0  0  0
   38.8700   33.5860   39.9840 C   0  0  0  0  0  0  0  0  0  0  0  0
   39.2210   32.2930   39.5700 C   0  0  0  0  0  0  0  0  0  0  0  0
   42.4760   32.6670   38.8380 H   0  0  0  0  0  0  0  0  0  0  0  0
   41.9470   34.9440   39.5440 H   0  0  0  0  0  0  0  0  0  0  0  0
   39.7080   35.5240   40.2580 H   0  0  0  0  0  0  0  0  0  0  0  0
   37.8690   33.8000   40.2920 H   0  0  0  0  0  0  0  0  0  0  0  0
   41.5360   28.9510   37.1500 C   0  0  0  0  0  0  0  0  0  0  0  0
   41.1790   30.2800   37.4450 C   0  0  0  0  0  0  0  0  0  0  0  0
   40.8560   30.6200   38.7360 C   0  0  0  0  0  0  0  0  0  0  0  0
   40.8990   29.6270   39.6800 N   0  0  0  0  0  0  0  0  0  0  0  0
   41.2410   28.3560   39.3960 C   0  0  0  0  0  0  0  0  0  0  0  0
   41.5650   28.0110   38.1080 N   0  0  0  0  0  0  0  0  0  0  0  0
   41.7800   28.7480   36.1170 H   0  0  0  0  0  0  0  0  0  0  0  0
   41.1460   31.0530   36.7010 H   0  0  0  0  0  0  0  0  0  0  0  0
   41.2350   27.6820   40.2250 H   0  0  0  0  0  0  0  0  0  0  0  0
   36.9590   25.9150   41.0040 C   0  0  0  0  0  0  0  0  0  0  0  0
   36.9650   27.0940   41.5530 C   0  0  0  0  0  0  0  0  0  0  0  0
   36.8700   28.2480   40.7350 N   0  0  0  0  0  0  0  0  0  0  0  0
   36.4040   29.5860   40.5290 C   0  0  0  0  0  0  0  0  0  0  0  0
   35.9820   30.5040   41.2920 O   0  0  0  0  0  0  0  0  0  0  0  0
   36.5940   29.5220   39.0540 C   0  0  2  0  0  3  0  0  0  0  0  0
   37.4630   28.3430   39.4130 C   0  0  2  0  0  3  0  0  0  0  0  0
   36.9170   26.9160   38.4350 S   0  0  0  0  0  0  0  0  0  0  0  0
   36.8620   25.5610   39.5890 C   0  0  0  0  0  3  0  0  0  0  0  0
   37.7580   24.9090   39.3730 H   0  0  0  0  0  0  0  0  0  0  0  0
   37.0610   24.7660   41.9230 C   0  0  0  0  0  2  0  0  0  0  0  0
   36.2150   24.7260   42.6710 H   0  0  0  0  0  0  0  0  0  0  0  0
   37.0660   27.2980   42.9940 C   0  0  0  0  0  0  0  0  0  0  0  0
   36.1560   27.3750   43.8560 O   0  0  0  0  0  0  0  0  0  0  0  0
   38.2650   27.4480   43.6710 O   0  0  0  0  0  0  0  0  0  0  0  0
   38.4880   27.1000   44.5820 H   0  0  0  0  0  0  0  0  0  0  0  0
  1  3  1  0  0  0  0
  2  1  2  0  0  0  0
  3 10  1  0  0  0  0
  3  4  1  0  0  0  0
  5 10  1  0  0  0  0
  6  5  2  0  0  0  0
  6  7  1  0  0  0  0
  7  8  2  0  0  0  0
  8  9  1  0  0  0  0
  8 13  1  0  0  0  0
  9 14  1  0  0  0  0
 10  9  2  0  0  0  0
 11  6  1  0  0  0  0
 12  7  1  0  0  0  0
 15 16  2  0  0  0  0
 15 20  1  0  0  0  0
 16 17  1  0  0  0  0
 17  5  1  0  0  0  0
 17 18  2  0  0  0  0
 19 18  1  0  0  0  0
 19 23  1  0  0  0  0
 20 19  2  0  0  0  0
 21 15  1  0  0  0  0
 22 16  1  0  0  0  0
 24 25  2  0  0  0  0
 24 34  1  0  0  0  0
 25 36  1  0  0  0  0
 26 25  1  0  0  0  0
 27 26  1  0  0  0  0
 27 28  2  0  0  0  0
 29  1  1  1  0  0  0
 29 30  1  0  0  0  0
 29 27  1  0  0  0  0
 30 31  1  6  0  0  0
 30 26  1  0  0  0  0
 31 32  1  0  0  0  0
 32 24  1  0  0  0  0
 33 32  1  0  0  0  0
 34 35  1  0  0  0  0
 36 38  1  0  0  0  0
 36 37  2  0  0  0  0
 38 39  1  0  0  0  0
M  END
>  <minimizedAffinity>
-5.72933722

$$$$

 OpenBabel03242517023D

 39 42  0  0  1  0  0  0  0  0999 V2000
   41.0400   28.2710   42.1700 C   0  0  0  0  0  0  0  0  0  0  0  0
   41.9590   27.4650   42.0060 O   0  0  0  0  0  0  0  0  0  0  0  0
   39.6430   27.9640   42.2000 N   0  0  0  0  0  0  0  0  0  0  0  0
   38.9010   28.6970   42.3590 H   0  0  0  0  0  0  0  0  0  0  0  0
   37.7290   26.9340   41.3310 C   0  0  0  0  0  0  0  0  0  0  0  0
   36.8990   25.8320   41.1360 C   0  0  0  0  0  0  0  0  0  0  0  0
   37.2550   24.6140   41.6920 C   0  0  0  0  0  0  0  0  0  0  0  0
   38.4180   24.5250   42.4200 C   0  0  0  0  0  0  0  0  0  0  0  0
   39.2590   25.5740   42.6360 C   0  0  0  0  0  0  0  0  0  0  0  0
   38.8650   26.7890   42.0580 C   0  0  0  0  0  0  0  0  0  0  0  0
   35.9870   25.9330   40.5560 H   0  0  0  0  0  0  0  0  0  0  0  0
   36.6010   23.7800   41.5290 H   0  0  0  0  0  0  0  0  0  0  0  0
   38.6330   23.5470   42.8240 H   0  0  0  0  0  0  0  0  0  0  0  0
   40.1650   25.5140   43.2010 H   0  0  0  0  0  0  0  0  0  0  0  0
   35.8620   30.0800   40.4150 C   0  0  0  0  0  0  0  0  0  0  0  0
   36.1710   28.8770   41.0790 C   0  0  0  0  0  0  0  0  0  0  0  0
   37.3020   28.1840   40.7240 C   0  0  0  0  0  0  0  0  0  0  0  0
   38.0790   28.7120   39.7270 N   0  0  0  0  0  0  0  0  0  0  0  0
   37.7830   29.8620   39.0930 C   0  0  0  0  0  0  0  0  0  0  0  0
   36.6550   30.5600   39.4430 N   0  0  0  0  0  0  0  0  0  0  0  0
   34.9600   30.5780   40.7410 H   0  0  0  0  0  0  0  0  0  0  0  0
   35.5580   28.4690   41.8590 H   0  0  0  0  0  0  0  0  0  0  0  0
   38.4740   30.1620   38.3350 H   0  0  0  0  0  0  0  0  0  0  0  0
   41.8260   33.2220   40.2500 C   0  0  0  0  0  0  0  0  0  0  0  0
   40.6970   32.6660   40.5800 C   0  0  0  0  0  0  0  0  0  0  0  0
   40.7010   31.4310   41.2750 N   0  0  0  0  0  0  0  0  0  0  0  0
   40.1220   30.5540   42.2480 C   0  0  0  0  0  0  0  0  0  0  0  0
   38.9940   30.4880   42.8190 O   0  0  0  0  0  0  0  0  0  0  0  0
   41.3490   29.7190   42.3590 C   0  0  2  0  0  3  0  0  0  0  0  0
   41.6890   30.3890   41.0530 C   0  0  2  0  0  3  0  0  0  0  0  0
   43.3410   31.1250   41.2050 S   0  0  0  0  0  0  0  0  0  0  0  0
   43.1880   32.7520   40.4980 C   0  0  0  0  0  3  0  0  0  0  0  0
   43.6910   32.7190   39.4860 H   0  0  0  0  0  0  0  0  0  0  0  0
   41.7360   34.5040   39.5290 C   0  0  0  0  0  2  0  0  0  0  0  0
   41.1980   35.3030   40.1190 H   0  0  0  0  0  0  0  0  0  0  0  0
   39.4010   33.2560   40.2660 C   0  0  0  0  0  0  0  0  0  0  0  0
   38.6780   34.0120   40.9610 O   0  0  0  0  0  0  0  0  0  0  0  0
   38.7280   33.0560   39.0720 O   0  0  0  0  0  0  0  0  0  0  0  0
   38.1790   33.7260   38.5710 H   0  0  0  0  0  0  0  0  0  0  0  0
  1  3  1  0  0  0  0
  2  1  2  0  0  0  0
  3  4  1  0  0  0  0
  5 10  1  0  0  0  0
  6  5  2  0  0  0  0
  6  7  1  0  0  0  0
  7  8  2  0  0  0  0
  8  9  1  0  0  0  0
  8 13  1  0  0  0  0
  9 14  1  0  0  0  0
 10  3  1  0  0  0  0
 10  9  2  0  0  0  0
 11  6  1  0  0  0  0
 12  7  1  0  0  0  0
 15 21  1  0  0  0  0
 15 16  1  0  0  0  0
 16 22  1  0  0  0  0
 17 16  2  0  0  0  0
 17  5  1  0  0  0  0
 18 17  1  0  0  0  0
 19 20  1  0  0  0  0
 19 18  2  0  0  0  0
 20 15  2  0  0  0  0
 23 19  1  0  0  0  0
 24 32  1  0  0  0  0
 24 25  2  0  0  0  0
 25 26  1  0  0  0  0
 26 27  1  0  0  0  0
 27 29  1  0  0  0  0
 27 28  2  0  0  0  0
 29  1  1  6  0  0  0
 30 31  1  1  0  0  0
 30 26  1  0  0  0  0
 30 29  1  0  0  0  0
 32 31  1  0  0  0  0
 33 32  1  0  0  0  0
 34 35  1  0  0  0  0
 34 24  1  0  0  0  0
 36 25  1  0  0  0  0
 36 37  2  0  0  0  0
 38 36  1  0  0  0  0
 39 38  1  0  0  0  0
M  END
>  <minimizedAffinity>
-5.69942617

$$$$
