
 OpenBabel03242517003D

 39 42  0  0  1  0  0  0  0  0999 V2000
   43.4990   33.9410   40.8120 C   0  0  0  0  0  0  0  0  0  0  0  0
   43.1860   34.9760   40.2190 O   0  0  0  0  0  0  0  0  0  0  0  0
   44.8260   33.5300   41.1520 N   0  0  0  0  0  0  0  0  0  0  0  0
   45.0310   32.6370   41.6760 H   0  0  0  0  0  0  0  0  0  0  0  0
   46.6270   34.7580   42.0070 C   0  0  0  0  0  0  0  0  0  0  0  0
   47.9000   35.3160   41.9090 C   0  0  0  0  0  0  0  0  0  0  0  0
   48.6230   35.1410   40.7400 C   0  0  0  0  0  0  0  0  0  0  0  0
   48.0660   34.4230   39.7090 C   0  0  0  0  0  0  0  0  0  0  0  0
   46.8270   33.8600   39.7590 C   0  0  0  0  0  0  0  0  0  0  0  0
   46.1260   34.0580   40.9580 C   0  0  0  0  0  0  0  0  0  0  0  0
   48.3140   35.8780   42.7400 H   0  0  0  0  0  0  0  0  0  0  0  0
   49.6010   35.5790   40.6870 H   0  0  0  0  0  0  0  0  0  0  0  0
   48.6850   34.3270   38.8290 H   0  0  0  0  0  0  0  0  0  0  0  0
   46.3860   33.3010   38.9620 H   0  0  0  0  0  0  0  0  0  0  0  0
   44.5010   36.1710   44.7830 C   0  0  0  0  0  0  0  0  0  0  0  0
   45.1400   36.0740   43.5320 C   0  0  0  0  0  0  0  0  0  0  0  0
   45.9170   34.9750   43.2560 C   0  0  0  0  0  0  0  0  0  0  0  0
   46.0280   34.0200   44.2320 N   0  0  0  0  0  0  0  0  0  0  0  0
   45.4160   34.1140   45.4280 C   0  0  0  0  0  0  0  0  0  0  0  0
   44.6380   35.2090   45.7090 N   0  0  0  0  0  0  0  0  0  0  0  0
   43.9040   37.0580   44.9370 H   0  0  0  0  0  0  0  0  0  0  0  0
   45.0490   36.8260   42.7720 H   0  0  0  0  0  0  0  0  0  0  0  0
   45.5860   33.2990   46.0980 H   0  0  0  0  0  0  0  0  0  0  0  0
   38.9650   31.2060   39.9280 C   0  0  0  0  0  0  0  0  0  0  0  0
   40.1790   30.8580   39.6140 C   0  0  0  0  0  0  0  0  0  0  0  0
   41.2740   31.6010   40.1200 N   0  0  0  0  0  0  0  0  0  0  0  0
   42.6190   31.6500   40.6090 C   0  0  0  0  0  0  0  0  0  0  0  0
   43.6140   30.8690   40.5420 O   0  0  0  0  0  0  0  0  0  0  0  0
   42.4370   32.9840   41.2430 C   0  0  2  0  0  0  0  0  0  0  0  0
   41.2380   33.0380   40.3320 C   0  0  2  0  0  0  0  0  0  0  0  0
   39.7790   33.4330   41.3360 S   0  0  0  0  0  0  0  0  0  0  0  0
   38.5170   32.3080   40.7770 C   0  0  0  0  0  0  0  0  0  0  0  0
   37.7980   32.9090   40.1450 H   0  0  0  0  0  0  0  0  0  0  0  0
   37.8830   30.3820   39.3600 C   0  0  0  0  0  0  0  0  0  0  0  0
   37.9480   29.2970   39.6700 H   0  0  0  0  0  0  0  0  0  0  0  0
   40.4800   29.7220   38.7500 C   0  0  0  0  0  0  0  0  0  0  0  0
   40.5900   29.6770   37.4990 O   0  0  0  0  0  0  0  0  0  0  0  0
   40.7060   28.4360   39.2120 O   0  0  0  0  0  0  0  0  0  0  0  0
   41.3620   27.7730   38.8490 H   0  0  0  0  0  0  0  0  0  0  0  0
  1  3  1  0  0  0  0
  2  1  2  0  0  0  0
  3  4  1  0  0  0  0
  5 17  1  0  0  0  0
  6  5  1  0  0  0  0
  6 11  1  0  0  0  0
  7  6  2  0  0  0  0
  8  9  2  0  0  0  0
  8  7  1  0  0  0  0
  9 10  1  0  0  0  0
 10  3  1  0  0  0  0
 10  5  2  0  0  0  0
 12  7  1  0  0  0  0
 13  8  1  0  0  0  0
 14  9  1  0  0  0  0
 15 21  1  0  0  0  0
 15 20  1  0  0  0  0
 16 15  2  0  0  0  0
 17 16  1  0  0  0  0
 17 18  2  0  0  0  0
 18 19  1  0  0  0  0
 19 20  2  0  0  0  0
 19 23  1  0  0  0  0
 22 16  1  0  0  0  0
 24 32  1  0  0  0  0
 25 24  2  0  0  0  0
 25 26  1  0  0  0  0
 26 30  1  0  0  0  0
 26 27  1  0  0  0  0
 27 29  1  0  0  0  0
 28 27  2  0  0  0  0
 29  1  1  6  0  0  0
 30 29  1  0  0  0  0
 30 31  1  1  0  0  0
 32 31  1  0  0  0  0
 33 32  1  0  0  0  0
 34 35  1  0  0  0  0
 34 24  1  0  0  0  0
 36 38  1  0  0  0  0
 36 25  1  0  0  0  0
 37 36  2  0  0  0  0
 39 38  1  0  0  0  0
M  END
>  <minimizedAffinity>
-6.73497725

>  <minimizedRMSD>
1.38593495

$$$$
