
 OpenBabel03242512343D

 27 29  0  0  1  0  0  0  0  0999 V2000
   41.8120   31.0860   42.1310 C   0  0  0  0  0  0  0  0  0  0  0  0
   41.4690   32.2160   41.5740 C   0  0  0  0  0  0  0  0  0  0  0  0
   42.4690   33.1450   41.1730 N   0  0  0  0  0  0  0  0  0  0  0  0
   42.8680   34.5300   41.0950 C   0  0  0  0  0  0  0  0  0  0  0  0
   42.3580   35.6710   41.3680 O   0  0  0  0  0  0  0  0  0  0  0  0
   44.1680   34.1210   40.5510 C   0  0  2  0  0  3  0  0  0  0  0  0
   43.7240   32.7030   40.5390 C   0  0  1  0  0  3  0  0  0  0  0  0
   44.4940   31.5920   41.7060 S   0  0  0  0  0  0  0  0  0  0  0  0
   43.1790   30.6110   42.4330 C   0  0  0  0  0  3  0  0  0  0  0  0
   43.2540   29.5850   41.9660 H   0  0  0  0  0  0  0  0  0  0  0  0
   45.3610   34.4430   41.3940 C   0  0  0  0  0  0  0  0  0  0  0  0
   46.4650   34.3650   40.7720 O   0  0  0  0  0  0  0  0  0  0  0  0
   45.1710   34.7920   42.7640 C   0  0  0  0  0  0  0  0  0  0  0  0
   44.9770   36.1560   42.9710 C   0  0  0  0  0  0  0  0  0  0  0  0
   44.7810   36.5960   44.2940 C   0  0  0  0  0  0  0  0  0  0  0  0
   44.7940   35.6480   45.2790 N   0  0  0  0  0  0  0  0  0  0  0  0
   44.9850   34.3450   45.0320 C   0  0  0  0  0  0  0  0  0  0  0  0
   45.1730   33.9180   43.7680 N   0  0  0  0  0  0  0  0  0  0  0  0
   44.9680   36.9010   42.1850 H   0  0  0  0  0  0  0  0  0  0  0  0
   44.6250   37.6430   44.5140 H   0  0  0  0  0  0  0  0  0  0  0  0
   44.9730   33.7010   45.9040 H   0  0  0  0  0  0  0  0  0  0  0  0
   40.6750   30.2020   42.4970 C   0  0  0  0  0  2  0  0  0  0  0  0
   41.0740   29.2720   42.9510 H   0  0  0  0  0  0  0  0  0  0  0  0
   40.0640   32.5780   41.3310 C   0  0  0  0  0  0  0  0  0  0  0  0
   39.3230   32.2270   40.3800 O   0  0  0  0  0  0  0  0  0  0  0  0
   39.3290   33.4000   42.1650 O   0  0  0  0  0  0  0  0  0  0  0  0
   38.3670   33.2120   42.4030 H   0  0  0  0  0  0  0  0  0  0  0  0
  1  9  1  0  0  0  0
  1 22  1  0  0  0  0
  2  1  2  0  0  0  0
  3  2  1  0  0  0  0
  4  3  1  0  0  0  0
  4  5  2  0  0  0  0
  6  4  1  0  0  0  0
  6 11  1  1  0  0  0
  7  6  1  0  0  0  0
  7  3  1  0  0  0  0
  7  8  1  1  0  0  0
  8  9  1  0  0  0  0
 10  9  1  0  0  0  0
 11 13  1  0  0  0  0
 12 11  2  0  0  0  0
 13 14  2  0  0  0  0
 13 18  1  0  0  0  0
 14 15  1  0  0  0  0
 15 20  1  0  0  0  0
 15 16  2  0  0  0  0
 17 16  1  0  0  0  0
 17 21  1  0  0  0  0
 18 17  2  0  0  0  0
 19 14  1  0  0  0  0
 22 23  1  0  0  0  0
 24  2  1  0  0  0  0
 24 26  1  0  0  0  0
 25 24  2  0  0  0  0
 26 27  1  0  0  0  0
M  END
>  <minimizedAffinity>
-4.97741556

>  <minimizedRMSD>
2.21013236

$$$$
