
 OpenBabel03242510303D

 41 45  0  0  1  0  0  0  0  0999 V2000
   36.5290   26.3950   39.9120 C   0  0  1  0  0  0  0  0  0  0  0  0
   36.7970   24.9920   39.4420 C   0  0  0  0  0  0  0  0  0  0  0  0
   36.1550   24.0980   40.4960 C   0  0  0  0  0  0  0  0  0  0  0  0
   37.0210   24.2260   41.7320 C   0  0  0  0  0  0  0  0  0  0  0  0
   37.2020   25.6200   42.2000 C   0  0  0  0  0  0  0  0  0  0  0  0
   37.3430   26.6590   41.1650 C   0  0  2  0  0  0  0  0  0  0  0  0
   35.4740   26.4860   40.1580 H   0  0  0  0  0  0  0  0  0  0  0  0
   37.9080   24.8160   39.4050 H   0  0  0  0  0  0  0  0  0  0  0  0
   36.2850   24.7670   38.4980 H   0  0  0  0  0  0  0  0  0  0  0  0
   36.1120   23.0560   40.1890 H   0  0  0  0  0  0  0  0  0  0  0  0
   35.1460   24.5470   40.6910 H   0  0  0  0  0  0  0  0  0  0  0  0
   38.0370   23.8500   41.4110 H   0  0  0  0  0  0  0  0  0  0  0  0
   36.7140   23.5740   42.5490 H   0  0  0  0  0  0  0  0  0  0  0  0
   36.3290   25.8780   42.8520 H   0  0  0  0  0  0  0  0  0  0  0  0
   38.0980   25.6240   42.8550 H   0  0  0  0  0  0  0  0  0  0  0  0
   38.3990   26.7040   40.8330 H   0  0  0  0  0  0  0  0  0  0  0  0
   36.4760   29.0740   37.2110 C   0  0  0  0  0  0  0  0  0  0  0  0
   35.9810   28.1620   38.1430 C   0  0  0  0  0  0  0  0  0  0  0  0
   36.9040   27.4040   38.8880 C   0  0  0  0  0  0  0  0  0  0  0  0
   38.2200   27.6260   38.6320 N   0  0  0  0  0  0  0  0  0  0  0  0
   38.6660   28.5050   37.7330 C   0  0  0  0  0  0  0  0  0  0  0  0
   37.8120   29.2370   37.0140 N   0  0  0  0  0  0  0  0  0  0  0  0
   35.7250   29.6280   36.6690 H   0  0  0  0  0  0  0  0  0  0  0  0
   34.9550   27.9810   38.3500 H   0  0  0  0  0  0  0  0  0  0  0  0
   39.7370   28.5670   37.6440 H   0  0  0  0  0  0  0  0  0  0  0  0
   36.9110   28.0390   41.6830 C   0  0  0  0  0  2  0  0  0  0  0  0
   38.0310   28.9920   41.7870 C   0  0  0  0  0  0  0  0  0  0  0  0
   37.9910   30.2490   41.3840 C   0  0  0  0  0  0  0  0  0  0  0  0
   39.1400   31.0600   41.5500 N   0  0  0  0  0  0  0  0  0  0  0  0
   39.9470   32.1370   41.1030 C   0  0  2  0  0  0  0  0  0  0  0  0
   39.7910   33.0730   40.2740 O   0  0  0  0  0  1  0  0  0  0  0  0
   41.0890   31.8060   41.9570 C   0  0  0  0  0  3  0  0  0  0  0  0
   41.8760   31.3290   41.3460 H   0  0  0  0  0  0  0  0  0  0  0  0
   40.0870   30.8880   42.6160 C   0  0  1  0  0  0  0  0  0  0  0  0
   40.7090   29.1750   42.4510 S   0  0  0  0  0  0  0  0  0  0  0  0
   39.1670   28.2680   42.4130 C   0  0  0  0  0  3  0  0  0  0  0  0
   38.9490   27.9990   43.4890 H   0  0  0  0  0  0  0  0  0  0  0  0
   36.8090   30.8500   40.7770 C   0  0  0  0  0  0  0  0  0  0  0  0
   36.4920   31.3520   39.6770 O   0  0  0  0  0  0  0  0  0  0  0  0
   35.6160   30.9890   41.4520 O   0  0  0  0  0  0  0  0  0  0  0  0
   35.0220   31.8060   41.4890 H   0  0  0  0  0  0  0  0  0  0  0  0
  1  7  1  1  0  0  0
  1  6  1  0  0  0  0
  2  1  1  0  0  0  0
  2  3  1  0  0  0  0
  3 11  1  0  0  0  0
  3  4  1  0  0  0  0
  4  5  1  0  0  0  0
  4 13  1  0  0  0  0
  5 14  1  0  0  0  0
  5 15  1  0  0  0  0
  6 16  1  6  0  0  0
  6 26  1  0  0  0  0
  6  5  1  0  0  0  0
  8  2  1  0  0  0  0
  9  2  1  0  0  0  0
 10  3  1  0  0  0  0
 12  4  1  0  0  0  0
 17 18  1  0  0  0  0
 18 24  1  0  0  0  0
 18 19  2  0  0  0  0
 19  1  1  0  0  0  0
 20 19  1  0  0  0  0
 21 20  2  0  0  0  0
 22 17  2  0  0  0  0
 22 21  1  0  0  0  0
 23 17  1  0  0  0  0
 25 21  1  0  0  0  0
 26 27  1  0  0  0  0
 27 36  1  0  0  0  0
 28 29  1  0  0  0  0
 28 27  2  0  0  0  0
 29 34  1  0  0  0  0
 30 31  1  1  0  0  0
 30 29  1  0  0  0  0
 30 32  1  0  0  0  0
 30 34  1  0  0  0  0
 33 32  1  0  0  0  0
 34 32  1  1  0  0  0
 35 34  1  0  0  0  0
 36 35  1  0  0  0  0
 36 37  1  0  0  0  0
 38 28  1  0  0  0  0
 38 40  1  0  0  0  0
 39 38  2  0  0  0  0
 40 41  1  0  0  0  0
M  END
>  <minimizedAffinity>
-6.05199242

$$$$

 OpenBabel03242510303D

 41 45  0  0  1  0  0  0  0  0999 V2000
   36.0430   29.5110   38.6730 C   0  0  1  0  0  0  0  0  0  0  0  0
   35.9790   29.6540   37.1770 C   0  0  0  0  0  0  0  0  0  0  0  0
   34.7010   28.9290   36.7710 C   0  0  0  0  0  0  0  0  0  0  0  0
   34.9790   27.4540   36.9720 C   0  0  0  0  0  0  0  0  0  0  0  0
   35.4220   27.1040   38.3420 C   0  0  0  0  0  0  0  0  0  0  0  0
   36.3170   28.0590   39.0180 C   0  0  2  0  0  0  0  0  0  0  0  0
   35.0810   29.7930   39.0930 H   0  0  0  0  0  0  0  0  0  0  0  0
   36.8740   29.1530   36.7150 H   0  0  0  0  0  0  0  0  0  0  0  0
   35.8490   30.6980   36.8660 H   0  0  0  0  0  0  0  0  0  0  0  0
   34.4310   29.1090   35.7340 H   0  0  0  0  0  0  0  0  0  0  0  0
   33.9220   29.2710   37.5010 H   0  0  0  0  0  0  0  0  0  0  0  0
   35.8400   27.2270   36.2770 H   0  0  0  0  0  0  0  0  0  0  0  0
   34.1640   26.8080   36.6460 H   0  0  0  0  0  0  0  0  0  0  0  0
   34.5070   26.9610   38.9710 H   0  0  0  0  0  0  0  0  0  0  0  0
   35.9180   26.1140   38.2760 H   0  0  0  0  0  0  0  0  0  0  0  0
   37.3620   27.8670   38.7030 H   0  0  0  0  0  0  0  0  0  0  0  0
   38.0110   32.1640   40.5610 C   0  0  0  0  0  0  0  0  0  0  0  0
   36.9010   31.4720   40.0760 C   0  0  0  0  0  0  0  0  0  0  0  0
   37.1230   30.3440   39.2630 C   0  0  0  0  0  0  0  0  0  0  0  0
   38.4180   30.0210   39.0120 N   0  0  0  0  0  0  0  0  0  0  0  0
   39.4620   30.7010   39.4890 C   0  0  0  0  0  0  0  0  0  0  0  0
   39.2800   31.7730   40.2630 N   0  0  0  0  0  0  0  0  0  0  0  0
   37.7840   33.0190   41.1790 H   0  0  0  0  0  0  0  0  0  0  0  0
   35.8860   31.7170   40.2660 H   0  0  0  0  0  0  0  0  0  0  0  0
   40.4280   30.3210   39.2020 H   0  0  0  0  0  0  0  0  0  0  0  0
   36.2160   27.9480   40.5470 C   0  0  0  0  0  2  0  0  0  0  0  0
   37.2600   27.0870   41.1330 C   0  0  0  0  0  0  0  0  0  0  0  0
   38.0860   27.4540   42.0960 C   0  0  0  0  0  0  0  0  0  0  0  0
   39.0400   26.5220   42.5730 N   0  0  0  0  0  0  0  0  0  0  0  0
   40.3160   26.2630   43.1360 C   0  0  2  0  0  0  0  0  0  0  0  0
   41.2020   26.9750   43.6800 O   0  0  0  0  0  1  0  0  0  0  0  0
   40.2820   24.8230   42.8750 C   0  0  0  0  0  3  0  0  0  0  0  0
   40.9270   24.5940   42.0080 H   0  0  0  0  0  0  0  0  0  0  0  0
   38.8270   25.1020   42.5870 C   0  0  1  0  0  0  0  0  0  0  0  0
   38.5050   24.6350   40.8470 S   0  0  0  0  0  0  0  0  0  0  0  0
   37.1880   25.7760   40.4380 C   0  0  0  0  0  3  0  0  0  0  0  0
   36.2290   25.2280   40.6790 H   0  0  0  0  0  0  0  0  0  0  0  0
   38.0600   28.7800   42.7010 C   0  0  0  0  0  0  0  0  0  0  0  0
   38.8490   29.7370   42.8580 O   0  0  0  0  0  0  0  0  0  0  0  0
   36.9410   29.2930   43.3190 O   0  0  0  0  0  0  0  0  0  0  0  0
   36.8940   29.7680   44.2110 H   0  0  0  0  0  0  0  0  0  0  0  0
  1  6  1  0  0  0  0
  1  7  1  1  0  0  0
  1 19  1  0  0  0  0
  2  1  1  0  0  0  0
  3  4  1  0  0  0  0
  3  2  1  0  0  0  0
  3 11  1  0  0  0  0
  4  5  1  0  0  0  0
  5 14  1  0  0  0  0
  5  6  1  0  0  0  0
  6 16  1  6  0  0  0
  6 26  1  0  0  0  0
  8  2  1  0  0  0  0
  9  2  1  0  0  0  0
 10  3  1  0  0  0  0
 12  4  1  0  0  0  0
 13  4  1  0  0  0  0
 15  5  1  0  0  0  0
 17 23  1  0  0  0  0
 18 24  1  0  0  0  0
 18 17  2  0  0  0  0
 19 18  1  0  0  0  0
 20 19  2  0  0  0  0
 20 21  1  0  0  0  0
 21 22  2  0  0  0  0
 22 17  1  0  0  0  0
 25 21  1  0  0  0  0
 26 27  1  0  0  0  0
 27 28  2  0  0  0  0
 28 29  1  0  0  0  0
 28 38  1  0  0  0  0
 29 34  1  0  0  0  0
 29 30  1  0  0  0  0
 30 31  1  1  0  0  0
 32 30  1  0  0  0  0
 33 32  1  0  0  0  0
 34 35  1  6  0  0  0
 34 32  1  0  0  0  0
 34 30  1  0  0  0  0
 36 37  1  0  0  0  0
 36 35  1  0  0  0  0
 36 27  1  0  0  0  0
 38 39  2  0  0  0  0
 38 40  1  0  0  0  0
 40 41  1  0  0  0  0
M  END
>  <minimizedAffinity>
-5.81420088

$$$$

 OpenBabel03242510303D

 41 45  0  0  1  0  0  0  0  0999 V2000
   36.9210   28.6760   41.1340 C   0  0  1  0  0  0  0  0  0  0  0  0
   36.9380   27.2090   41.4660 C   0  0  0  0  0  0  0  0  0  0  0  0
   36.5980   27.1410   42.9500 C   0  0  0  0  0  0  0  0  0  0  0  0
   37.8110   27.6810   43.6790 C   0  0  0  0  0  0  0  0  0  0  0  0
   38.2180   29.0390   43.2490 C   0  0  0  0  0  0  0  0  0  0  0  0
   38.0990   29.3490   41.8140 C   0  0  2  0  0  0  0  0  0  0  0  0
   36.0030   29.1110   41.5190 H   0  0  0  0  0  0  0  0  0  0  0  0
   37.9690   26.7960   41.2830 H   0  0  0  0  0  0  0  0  0  0  0  0
   36.1450   26.6580   40.9450 H   0  0  0  0  0  0  0  0  0  0  0  0
   36.3940   26.1270   43.2850 H   0  0  0  0  0  0  0  0  0  0  0  0
   35.7310   27.8390   43.0870 H   0  0  0  0  0  0  0  0  0  0  0  0
   38.6500   26.9780   43.3990 H   0  0  0  0  0  0  0  0  0  0  0  0
   37.7300   27.6200   44.7640 H   0  0  0  0  0  0  0  0  0  0  0  0
   37.6090   29.7780   43.8290 H   0  0  0  0  0  0  0  0  0  0  0  0
   39.2710   29.1750   43.5710 H   0  0  0  0  0  0  0  0  0  0  0  0
   39.0010   28.9830   41.2840 H   0  0  0  0  0  0  0  0  0  0  0  0
   36.2100   29.5580   37.5020 C   0  0  0  0  0  0  0  0  0  0  0  0
   35.9700   29.3820   38.8650 C   0  0  0  0  0  0  0  0  0  0  0  0
   37.0260   28.9140   39.6710 C   0  0  0  0  0  0  0  0  0  0  0  0
   38.2060   28.6670   39.0450 N   0  0  0  0  0  0  0  0  0  0  0  0
   38.4070   28.8440   37.7380 C   0  0  0  0  0  0  0  0  0  0  0  0
   37.4240   29.2880   36.9510 N   0  0  0  0  0  0  0  0  0  0  0  0
   35.3680   29.9200   36.9320 H   0  0  0  0  0  0  0  0  0  0  0  0
   35.0520   29.5720   39.3630 H   0  0  0  0  0  0  0  0  0  0  0  0
   39.3980   28.6040   37.3890 H   0  0  0  0  0  0  0  0  0  0  0  0
   37.9400   30.8560   41.5690 C   0  0  0  0  0  2  0  0  0  0  0  0
   39.1880   31.5040   41.1260 C   0  0  0  0  0  0  0  0  0  0  0  0
   39.3210   32.2020   40.0130 C   0  0  0  0  0  0  0  0  0  0  0  0
   40.5790   32.7780   39.7110 N   0  0  0  0  0  0  0  0  0  0  0  0
   41.5240   33.2060   38.7430 C   0  0  2  0  0  0  0  0  0  0  0  0
   41.4860   33.4020   37.4990 O   0  0  0  0  0  1  0  0  0  0  0  0
   42.6250   33.3580   39.6950 C   0  0  0  0  0  3  0  0  0  0  0  0
   43.3200   32.5060   39.5900 H   0  0  0  0  0  0  0  0  0  0  0  0
   41.5160   33.2120   40.7090 C   0  0  1  0  0  0  0  0  0  0  0  0
   41.8790   31.7320   41.7210 S   0  0  0  0  0  0  0  0  0  0  0  0
   40.2210   31.2140   42.1540 C   0  0  0  0  0  3  0  0  0  0  0  0
   39.9910   31.7280   43.1340 H   0  0  0  0  0  0  0  0  0  0  0  0
   38.2250   32.4170   39.0760 C   0  0  0  0  0  0  0  0  0  0  0  0
   37.0130   32.7190   39.1290 O   0  0  0  0  0  0  0  0  0  0  0  0
   38.3790   32.2970   37.7130 O   0  0  0  0  0  0  0  0  0  0  0  0
   37.7700   31.8140   37.0650 H   0  0  0  0  0  0  0  0  0  0  0  0
  1  2  1  0  0  0  0
  1  7  1  1  0  0  0
  1  6  1  0  0  0  0
  2  3  1  0  0  0  0
  3 11  1  0  0  0  0
  3 10  1  0  0  0  0
  3  4  1  0  0  0  0
  4 13  1  0  0  0  0
  5 15  1  0  0  0  0
  5  4  1  0  0  0  0
  5 14  1  0  0  0  0
  6 16  1  6  0  0  0
  6  5  1  0  0  0  0
  8  2  1  0  0  0  0
  9  2  1  0  0  0  0
 12  4  1  0  0  0  0
 17 18  1  0  0  0  0
 18 24  1  0  0  0  0
 18 19  2  0  0  0  0
 19  1  1  0  0  0  0
 20 19  1  0  0  0  0
 21 20  2  0  0  0  0
 22 17  2  0  0  0  0
 22 21  1  0  0  0  0
 23 17  1  0  0  0  0
 25 21  1  0  0  0  0
 26  6  1  0  0  0  0
 27 26  1  0  0  0  0
 27 36  1  0  0  0  0
 28 27  2  0  0  0  0
 29 28  1  0  0  0  0
 29 34  1  0  0  0  0
 30 31  1  6  0  0  0
 30 32  1  0  0  0  0
 30 29  1  0  0  0  0
 30 34  1  0  0  0  0
 33 32  1  0  0  0  0
 34 32  1  1  0  0  0
 34 35  1  0  0  0  0
 35 36  1  0  0  0  0
 36 37  1  0  0  0  0
 38 39  2  0  0  0  0
 38 28  1  0  0  0  0
 40 38  1  0  0  0  0
 41 40  1  0  0  0  0
M  END
>  <minimizedAffinity>
-5.69264269

$$$$

 OpenBabel03242510303D

 41 45  0  0  1  0  0  0  0  0999 V2000
   37.2970   26.8380   41.2000 C   0  0  1  0  0  0  0  0  0  0  0  0
   36.9590   26.2370   42.5370 C   0  0  0  0  0  0  0  0  0  0  0  0
   36.5720   27.4230   43.4110 C   0  0  0  0  0  0  0  0  0  0  0  0
   37.8570   28.1780   43.6800 C   0  0  0  0  0  0  0  0  0  0  0  0
   38.5840   28.5860   42.4550 C   0  0  0  0  0  0  0  0  0  0  0  0
   38.5810   27.6360   41.3290 C   0  0  2  0  0  0  0  0  0  0  0  0
   36.4970   27.5120   40.9070 H   0  0  0  0  0  0  0  0  0  0  0  0
   37.8680   25.7240   42.9570 H   0  0  0  0  0  0  0  0  0  0  0  0
   36.0730   25.5910   42.4880 H   0  0  0  0  0  0  0  0  0  0  0  0
   36.1250   27.1180   44.3540 H   0  0  0  0  0  0  0  0  0  0  0  0
   35.8890   28.0480   42.7770 H   0  0  0  0  0  0  0  0  0  0  0  0
   38.5140   27.4400   44.2260 H   0  0  0  0  0  0  0  0  0  0  0  0
   37.7340   29.0190   44.3620 H   0  0  0  0  0  0  0  0  0  0  0  0
   38.1500   29.5580   42.1070 H   0  0  0  0  0  0  0  0  0  0  0  0
   39.6300   28.7970   42.7590 H   0  0  0  0  0  0  0  0  0  0  0  0
   39.3860   26.8890   41.4780 H   0  0  0  0  0  0  0  0  0  0  0  0
   36.9910   24.6300   38.1170 C   0  0  0  0  0  0  0  0  0  0  0  0
   36.6900   25.6570   39.0120 C   0  0  0  0  0  0  0  0  0  0  0  0
   37.4950   25.7970   40.1590 C   0  0  0  0  0  0  0  0  0  0  0  0
   38.5100   24.9060   40.3010 N   0  0  0  0  0  0  0  0  0  0  0  0
   38.7750   23.9320   39.4290 C   0  0  0  0  0  0  0  0  0  0  0  0
   38.0290   23.7780   38.3330 N   0  0  0  0  0  0  0  0  0  0  0  0
   36.3430   24.5690   37.2550 H   0  0  0  0  0  0  0  0  0  0  0  0
   35.8990   26.3580   38.9090 H   0  0  0  0  0  0  0  0  0  0  0  0
   39.6140   23.3050   39.6810 H   0  0  0  0  0  0  0  0  0  0  0  0
   38.7880   28.3480   39.9840 C   0  0  0  0  0  2  0  0  0  0  0  0
   38.9380   29.8090   40.1220 C   0  0  0  0  0  0  0  0  0  0  0  0
   37.9480   30.6790   40.0460 C   0  0  0  0  0  0  0  0  0  0  0  0
   38.2320   32.0570   40.2030 N   0  0  0  0  0  0  0  0  0  0  0  0
   37.9270   33.4080   39.8970 C   0  0  2  0  0  0  0  0  0  0  0  0
   36.9490   33.9910   39.3570 O   0  0  0  0  0  1  0  0  0  0  0  0
   39.1750   33.9490   40.4380 C   0  0  0  0  0  3  0  0  0  0  0  0
   39.8530   34.2050   39.6050 H   0  0  0  0  0  0  0  0  0  0  0  0
   39.3020   32.5610   41.0180 C   0  0  1  0  0  0  0  0  0  0  0  0
   40.8300   31.8140   40.3430 S   0  0  0  0  0  0  0  0  0  0  0  0
   40.3810   30.0810   40.3520 C   0  0  0  0  0  3  0  0  0  0  0  0
   40.7260   29.6860   41.3530 H   0  0  0  0  0  0  0  0  0  0  0  0
   36.5640   30.2860   39.8120 C   0  0  0  0  0  0  0  0  0  0  0  0
   35.5590   29.9970   40.4990 O   0  0  0  0  0  0  0  0  0  0  0  0
   36.0360   30.1400   38.5490 O   0  0  0  0  0  0  0  0  0  0  0  0
   35.4640   29.3800   38.2050 H   0  0  0  0  0  0  0  0  0  0  0  0
  1  7  1  6  0  0  0
  1  6  1  0  0  0  0
  1  2  1  0  0  0  0
  2  8  1  0  0  0  0
  2  3  1  0  0  0  0
  3  4  1  0  0  0  0
  3 10  1  0  0  0  0
  4 12  1  0  0  0  0
  4 13  1  0  0  0  0
  5 15  1  0  0  0  0
  5  4  1  0  0  0  0
  6 16  1  1  0  0  0
  6  5  1  0  0  0  0
  9  2  1  0  0  0  0
 11  3  1  0  0  0  0
 14  5  1  0  0  0  0
 17 22  2  0  0  0  0
 17 18  1  0  0  0  0
 18 19  2  0  0  0  0
 19 20  1  0  0  0  0
 19  1  1  0  0  0  0
 21 25  1  0  0  0  0
 21 20  2  0  0  0  0
 22 21  1  0  0  0  0
 23 17  1  0  0  0  0
 24 18  1  0  0  0  0
 26 27  1  0  0  0  0
 26  6  1  0  0  0  0
 27 36  1  0  0  0  0
 28 27  2  0  0  0  0
 28 29  1  0  0  0  0
 29 34  1  0  0  0  0
 30 31  1  1  0  0  0
 30 29  1  0  0  0  0
 30 32  1  0  0  0  0
 30 34  1  0  0  0  0
 32 34  1  0  0  0  0
 33 32  1  0  0  0  0
 34 35  1  6  0  0  0
 35 36  1  0  0  0  0
 36 37  1  0  0  0  0
 38 28  1  0  0  0  0
 38 39  2  0  0  0  0
 40 38  1  0  0  0  0
 41 40  1  0  0  0  0
M  END
>  <minimizedAffinity>
-5.68235922

$$$$

 OpenBabel03242510303D

 41 45  0  0  1  0  0  0  0  0999 V2000
   37.7010   25.7730   41.0560 C   0  0  1  0  0  0  0  0  0  0  0  0
   37.2840   24.5900   41.8860 C   0  0  0  0  0  0  0  0  0  0  0  0
   37.3600   23.4000   40.9350 C   0  0  0  0  0  0  0  0  0  0  0  0
   36.2110   23.5720   39.9630 C   0  0  0  0  0  0  0  0  0  0  0  0
   36.2110   24.8710   39.2520 C   0  0  0  0  0  0  0  0  0  0  0  0
   36.6250   26.0550   40.0240 C   0  0  2  0  0  0  0  0  0  0  0  0
   38.6240   25.5280   40.5370 H   0  0  0  0  0  0  0  0  0  0  0  0
   36.2270   24.7360   42.2410 H   0  0  0  0  0  0  0  0  0  0  0  0
   37.9950   24.3800   42.6940 H   0  0  0  0  0  0  0  0  0  0  0  0
   37.2620   22.4480   41.4500 H   0  0  0  0  0  0  0  0  0  0  0  0
   38.3360   23.5160   40.3940 H   0  0  0  0  0  0  0  0  0  0  0  0
   35.2840   23.5460   40.6080 H   0  0  0  0  0  0  0  0  0  0  0  0
   36.1030   22.7420   39.2660 H   0  0  0  0  0  0  0  0  0  0  0  0
   36.8800   24.7720   38.3590 H   0  0  0  0  0  0  0  0  0  0  0  0
   35.1830   25.0230   38.8620 H   0  0  0  0  0  0  0  0  0  0  0  0
   35.7570   26.4430   40.5940 H   0  0  0  0  0  0  0  0  0  0  0  0
   37.2900   28.5900   43.5800 C   0  0  0  0  0  0  0  0  0  0  0  0
   36.9890   27.4210   42.8800 C   0  0  0  0  0  0  0  0  0  0  0  0
   37.8880   26.9920   41.8840 C   0  0  0  0  0  0  0  0  0  0  0  0
   38.9880   27.7620   41.6850 N   0  0  0  0  0  0  0  0  0  0  0  0
   39.2520   28.8760   42.3710 C   0  0  0  0  0  0  0  0  0  0  0  0
   38.4170   29.3060   43.3200 N   0  0  0  0  0  0  0  0  0  0  0  0
   36.5680   28.8720   44.3320 H   0  0  0  0  0  0  0  0  0  0  0  0
   36.1320   26.8130   43.0270 H   0  0  0  0  0  0  0  0  0  0  0  0
   40.1640   29.3790   42.0980 H   0  0  0  0  0  0  0  0  0  0  0  0
   37.1750   27.1640   39.1140 C   0  0  0  0  0  2  0  0  0  0  0  0
   36.2110   27.5960   38.0850 C   0  0  0  0  0  0  0  0  0  0  0  0
   35.2230   28.4490   38.2890 C   0  0  0  0  0  0  0  0  0  0  0  0
   34.3720   28.7830   37.2070 N   0  0  0  0  0  0  0  0  0  0  0  0
   33.0910   29.1720   36.7390 C   0  0  2  0  0  0  0  0  0  0  0  0
   32.0440   29.6070   37.2890 O   0  0  0  0  0  1  0  0  0  0  0  0
   33.3790   28.8940   35.3300 C   0  0  0  0  0  3  0  0  0  0  0  0
   32.8920   27.9480   35.0370 H   0  0  0  0  0  0  0  0  0  0  0  0
   34.7990   28.8020   35.8360 C   0  0  1  0  0  0  0  0  0  0  0  0
   35.4050   27.1120   35.4850 S   0  0  0  0  0  0  0  0  0  0  0  0
   36.5710   26.8960   36.8260 C   0  0  0  0  0  3  0  0  0  0  0  0
   37.5650   27.2500   36.4200 H   0  0  0  0  0  0  0  0  0  0  0  0
   34.9680   29.0730   39.5810 C   0  0  0  0  0  0  0  0  0  0  0  0
   35.6390   29.5500   40.5230 O   0  0  0  0  0  0  0  0  0  0  0  0
   33.6970   29.2760   40.0700 O   0  0  0  0  0  0  0  0  0  0  0  0
   33.3580   29.0820   41.0030 H   0  0  0  0  0  0  0  0  0  0  0  0
  1  7  1  6  0  0  0
  1 19  1  0  0  0  0
  1  2  1  0  0  0  0
  2  8  1  0  0  0  0
  2  9  1  0  0  0  0
  3 10  1  0  0  0  0
  3  2  1  0  0  0  0
  4 12  1  0  0  0  0
  4  3  1  0  0  0  0
  5  4  1  0  0  0  0
  5  6  1  0  0  0  0
  6 16  1  1  0  0  0
  6  1  1  0  0  0  0
 11  3  1  0  0  0  0
 13  4  1  0  0  0  0
 14  5  1  0  0  0  0
 15  5  1  0  0  0  0
 17 23  1  0  0  0  0
 18 24  1  0  0  0  0
 18 17  2  0  0  0  0
 19 18  1  0  0  0  0
 20 19  2  0  0  0  0
 20 21  1  0  0  0  0
 21 22  2  0  0  0  0
 22 17  1  0  0  0  0
 25 21  1  0  0  0  0
 26  6  1  0  0  0  0
 27 28  2  0  0  0  0
 27 26  1  0  0  0  0
 28 38  1  0  0  0  0
 29 28  1  0  0  0  0
 30 29  1  0  0  0  0
 30 31  1  1  0  0  0
 32 30  1  0  0  0  0
 33 32  1  0  0  0  0
 34 32  1  6  0  0  0
 34 30  1  0  0  0  0
 34 29  1  0  0  0  0
 35 34  1  0  0  0  0
 35 36  1  0  0  0  0
 36 27  1  0  0  0  0
 37 36  1  0  0  0  0
 38 40  1  0  0  0  0
 38 39  2  0  0  0  0
 40 41  1  0  0  0  0
M  END
>  <minimizedAffinity>
-5.65747929

$$$$

 OpenBabel03242510303D

 41 45  0  0  1  0  0  0  0  0999 V2000
   36.3900   28.6550   41.5280 C   0  0  1  0  0  0  0  0  0  0  0  0
   36.6090   27.3680   42.2740 C   0  0  0  0  0  0  0  0  0  0  0  0
   37.0160   27.7960   43.6800 C   0  0  0  0  0  0  0  0  0  0  0  0
   38.4110   28.3710   43.5500 C   0  0  0  0  0  0  0  0  0  0  0  0
   38.5220   29.4710   42.5640 C   0  0  0  0  0  0  0  0  0  0  0  0
   37.7260   29.3450   41.3310 C   0  0  2  0  0  0  0  0  0  0  0  0
   35.7500   29.3000   42.1250 H   0  0  0  0  0  0  0  0  0  0  0  0
   37.4430   26.7910   41.7870 H   0  0  0  0  0  0  0  0  0  0  0  0
   35.6820   26.7920   42.3880 H   0  0  0  0  0  0  0  0  0  0  0  0
   37.0280   26.9660   44.3820 H   0  0  0  0  0  0  0  0  0  0  0  0
   36.2960   28.6080   43.9620 H   0  0  0  0  0  0  0  0  0  0  0  0
   39.0400   27.5150   43.1640 H   0  0  0  0  0  0  0  0  0  0  0  0
   38.8570   28.6510   44.5040 H   0  0  0  0  0  0  0  0  0  0  0  0
   38.2370   30.4230   43.0810 H   0  0  0  0  0  0  0  0  0  0  0  0
   39.5970   29.5610   42.3050 H   0  0  0  0  0  0  0  0  0  0  0  0
   38.2810   28.7230   40.6000 H   0  0  0  0  0  0  0  0  0  0  0  0
   34.2230   28.8320   38.4060 C   0  0  0  0  0  0  0  0  0  0  0  0
   34.6960   29.1600   39.6760 C   0  0  0  0  0  0  0  0  0  0  0  0
   35.7800   28.4240   40.1930 C   0  0  0  0  0  0  0  0  0  0  0  0
   36.2800   27.4410   39.4010 N   0  0  0  0  0  0  0  0  0  0  0  0
   35.8070   27.1480   38.1880 C   0  0  0  0  0  0  0  0  0  0  0  0
   34.7820   27.8310   37.6740 N   0  0  0  0  0  0  0  0  0  0  0  0
   33.3930   29.4280   38.0580 H   0  0  0  0  0  0  0  0  0  0  0  0
   34.3120   29.9260   40.3030 H   0  0  0  0  0  0  0  0  0  0  0  0
   36.3090   26.3410   37.6820 H   0  0  0  0  0  0  0  0  0  0  0  0
   37.4220   30.7150   40.7090 C   0  0  0  0  0  2  0  0  0  0  0  0
   38.6010   31.3390   40.0800 C   0  0  0  0  0  0  0  0  0  0  0  0
   39.0700   31.0290   38.8850 C   0  0  0  0  0  0  0  0  0  0  0  0
   40.2110   31.7130   38.3980 N   0  0  0  0  0  0  0  0  0  0  0  0
   41.3850   31.7130   37.6030 C   0  0  2  0  0  0  0  0  0  0  0  0
   41.8490   30.9510   36.7130 O   0  0  0  0  0  1  0  0  0  0  0  0
   41.9260   32.9490   38.1700 C   0  0  0  0  0  3  0  0  0  0  0  0
   42.7390   32.7030   38.8750 H   0  0  0  0  0  0  0  0  0  0  0  0
   40.5350   33.0680   38.7470 C   0  0  1  0  0  0  0  0  0  0  0  0
   40.6890   33.0850   40.5700 S   0  0  0  0  0  0  0  0  0  0  0  0
   39.1280   32.3440   41.0390 C   0  0  0  0  0  3  0  0  0  0  0  0
   38.4130   33.2100   41.1720 H   0  0  0  0  0  0  0  0  0  0  0  0
   38.4620   30.0150   38.0340 C   0  0  0  0  0  0  0  0  0  0  0  0
   37.5450   29.9520   37.1860 O   0  0  0  0  0  0  0  0  0  0  0  0
   38.8820   28.7030   38.0240 O   0  0  0  0  0  0  0  0  0  0  0  0
   38.3060   27.8720   38.0510 H   0  0  0  0  0  0  0  0  0  0  0  0
  1  7  1  1  0  0  0
  1  2  1  0  0  0  0
  2  9  1  0  0  0  0
  2  3  1  0  0  0  0
  3 11  1  0  0  0  0
  3 10  1  0  0  0  0
  4  3  1  0  0  0  0
  4 13  1  0  0  0  0
  5 14  1  0  0  0  0
  5  4  1  0  0  0  0
  6 16  1  6  0  0  0
  6  1  1  0  0  0  0
  6  5  1  0  0  0  0
  8  2  1  0  0  0  0
 12  4  1  0  0  0  0
 15  5  1  0  0  0  0
 17 18  1  0  0  0  0
 18 19  2  0  0  0  0
 18 24  1  0  0  0  0
 19  1  1  0  0  0  0
 20 19  1  0  0  0  0
 21 20  2  0  0  0  0
 22 21  1  0  0  0  0
 22 17  2  0  0  0  0
 23 17  1  0  0  0  0
 25 21  1  0  0  0  0
 26  6  1  0  0  0  0
 27 26  1  0  0  0  0
 27 36  1  0  0  0  0
 28 27  2  0  0  0  0
 29 34  1  0  0  0  0
 29 28  1  0  0  0  0
 30 31  1  6  0  0  0
 30 32  1  0  0  0  0
 30 29  1  0  0  0  0
 30 34  1  0  0  0  0
 32 33  1  0  0  0  0
 34 32  1  6  0  0  0
 34 35  1  0  0  0  0
 35 36  1  0  0  0  0
 36 37  1  0  0  0  0
 38 28  1  0  0  0  0
 39 38  2  0  0  0  0
 40 38  1  0  0  0  0
 40 41  1  0  0  0  0
M  END
>  <minimizedAffinity>
-5.6036315

$$$$

 OpenBabel03242510303D

 41 45  0  0  1  0  0  0  0  0999 V2000
   36.8980   27.6350   39.8160 C   0  0  1  0  0  0  0  0  0  0  0  0
   36.0490   27.0230   38.7360 C   0  0  0  0  0  0  0  0  0  0  0  0
   35.5290   28.2070   37.9290 C   0  0  0  0  0  0  0  0  0  0  0  0
   34.5210   28.9040   38.8180 C   0  0  0  0  0  0  0  0  0  0  0  0
   35.0560   29.3050   40.1400 C   0  0  0  0  0  0  0  0  0  0  0  0
   36.0000   28.3780   40.7870 C   0  0  2  0  0  0  0  0  0  0  0  0
   37.5820   28.3470   39.3610 H   0  0  0  0  0  0  0  0  0  0  0  0
   35.1910   26.4660   39.2060 H   0  0  0  0  0  0  0  0  0  0  0  0
   36.6390   26.4150   38.0400 H   0  0  0  0  0  0  0  0  0  0  0  0
   35.0480   27.9020   37.0030 H   0  0  0  0  0  0  0  0  0  0  0  0
   36.4190   28.8710   37.7720 H   0  0  0  0  0  0  0  0  0  0  0  0
   33.7200   28.1300   39.0060 H   0  0  0  0  0  0  0  0  0  0  0  0
   34.0120   29.7360   38.3310 H   0  0  0  0  0  0  0  0  0  0  0  0
   35.5550   30.3010   40.0190 H   0  0  0  0  0  0  0  0  0  0  0  0
   34.1820   29.4690   40.8040 H   0  0  0  0  0  0  0  0  0  0  0  0
   35.4320   27.5960   41.3290 H   0  0  0  0  0  0  0  0  0  0  0  0
   37.9800   24.9630   42.2990 C   0  0  0  0  0  0  0  0  0  0  0  0
   37.1520   25.9010   41.6810 C   0  0  0  0  0  0  0  0  0  0  0  0
   37.6580   26.6070   40.5730 C   0  0  0  0  0  0  0  0  0  0  0  0
   38.9280   26.3130   40.1930 N   0  0  0  0  0  0  0  0  0  0  0  0
   39.6990   25.4100   40.8020 C   0  0  0  0  0  0  0  0  0  0  0  0
   39.2440   24.7260   41.8550 N   0  0  0  0  0  0  0  0  0  0  0  0
   37.5420   24.4510   43.1420 H   0  0  0  0  0  0  0  0  0  0  0  0
   36.1590   26.1380   41.9700 H   0  0  0  0  0  0  0  0  0  0  0  0
   40.6840   25.2890   40.3850 H   0  0  0  0  0  0  0  0  0  0  0  0
   36.9300   29.1070   41.7690 C   0  0  0  0  0  2  0  0  0  0  0  0
   37.6960   30.1970   41.1370 C   0  0  0  0  0  0  0  0  0  0  0  0
   39.0130   30.2520   41.0710 C   0  0  0  0  0  0  0  0  0  0  0  0
   39.6220   31.3580   40.4270 N   0  0  0  0  0  0  0  0  0  0  0  0
   40.7180   32.2510   40.3140 C   0  0  2  0  0  0  0  0  0  0  0  0
   41.8910   32.2710   40.7730 O   0  0  0  0  0  1  0  0  0  0  0  0
   40.0220   33.2000   39.4440 C   0  0  0  0  0  3  0  0  0  0  0  0
   39.7220   34.0840   40.0340 H   0  0  0  0  0  0  0  0  0  0  0  0
   39.0180   32.0770   39.3410 C   0  0  1  0  0  0  0  0  0  0  0  0
   37.4220   32.6970   39.9860 S   0  0  0  0  0  0  0  0  0  0  0  0
   36.7110   31.1800   40.6170 C   0  0  0  0  0  3  0  0  0  0  0  0
   36.1070   30.7530   39.7610 H   0  0  0  0  0  0  0  0  0  0  0  0
   39.8790   29.2190   41.6260 C   0  0  0  0  0  0  0  0  0  0  0  0
   40.0120   28.6140   42.7130 O   0  0  0  0  0  0  0  0  0  0  0  0
   40.8890   28.6280   40.9000 O   0  0  0  0  0  0  0  0  0  0  0  0
   41.8390   28.4510   41.1990 H   0  0  0  0  0  0  0  0  0  0  0  0
  1  7  1  6  0  0  0
  1 19  1  0  0  0  0
  1  6  1  0  0  0  0
  2  8  1  0  0  0  0
  2  1  1  0  0  0  0
  3  2  1  0  0  0  0
  3  4  1  0  0  0  0
  4 12  1  0  0  0  0
  4  5  1  0  0  0  0
  5  6  1  0  0  0  0
  5 15  1  0  0  0  0
  6 16  1  1  0  0  0
  6 26  1  0  0  0  0
  9  2  1  0  0  0  0
 10  3  1  0  0  0  0
 11  3  1  0  0  0  0
 13  4  1  0  0  0  0
 14  5  1  0  0  0  0
 17 23  1  0  0  0  0
 18 24  1  0  0  0  0
 18 17  2  0  0  0  0
 19 18  1  0  0  0  0
 20 19  2  0  0  0  0
 20 21  1  0  0  0  0
 21 22  2  0  0  0  0
 22 17  1  0  0  0  0
 25 21  1  0  0  0  0
 27 26  1  0  0  0  0
 28 27  2  0  0  0  0
 28 38  1  0  0  0  0
 29 28  1  0  0  0  0
 30 29  1  0  0  0  0
 30 31  1  6  0  0  0
 32 33  1  0  0  0  0
 32 30  1  0  0  0  0
 34 32  1  6  0  0  0
 34 35  1  0  0  0  0
 34 30  1  0  0  0  0
 34 29  1  0  0  0  0
 35 36  1  0  0  0  0
 36 27  1  0  0  0  0
 37 36  1  0  0  0  0
 38 39  2  0  0  0  0
 40 41  1  0  0  0  0
 40 38  1  0  0  0  0
M  END
>  <minimizedAffinity>
-5.39637899

$$$$

 OpenBabel03242510303D

 41 45  0  0  1  0  0  0  0  0999 V2000
   38.2010   30.7950   40.4370 C   0  0  1  0  0  0  0  0  0  0  0  0
   36.8600   31.4350   40.2020 C   0  0  0  0  0  0  0  0  0  0  0  0
   37.1250   32.5290   39.1740 C   0  0  0  0  0  0  0  0  0  0  0  0
   37.9050   33.6030   39.9030 C   0  0  0  0  0  0  0  0  0  0  0  0
   39.1460   33.1150   40.5490 C   0  0  0  0  0  0  0  0  0  0  0  0
   39.0960   31.7790   41.1670 C   0  0  2  0  0  0  0  0  0  0  0  0
   38.6510   30.5630   39.4750 H   0  0  0  0  0  0  0  0  0  0  0  0
   36.4870   31.8860   41.1630 H   0  0  0  0  0  0  0  0  0  0  0  0
   36.1480   30.7440   39.7340 H   0  0  0  0  0  0  0  0  0  0  0  0
   36.2090   32.9550   38.7720 H   0  0  0  0  0  0  0  0  0  0  0  0
   37.7740   32.0520   38.3940 H   0  0  0  0  0  0  0  0  0  0  0  0
   37.2150   33.9480   40.7280 H   0  0  0  0  0  0  0  0  0  0  0  0
   38.1000   34.4880   39.2970 H   0  0  0  0  0  0  0  0  0  0  0  0
   39.9590   33.1240   39.7780 H   0  0  0  0  0  0  0  0  0  0  0  0
   39.4270   33.8680   41.3140 H   0  0  0  0  0  0  0  0  0  0  0  0
   38.6760   31.8640   42.1900 H   0  0  0  0  0  0  0  0  0  0  0  0
   38.2440   27.2000   41.6810 C   0  0  0  0  0  0  0  0  0  0  0  0
   38.3990   28.2690   40.7980 C   0  0  0  0  0  0  0  0  0  0  0  0
   38.0890   29.5630   41.2590 C   0  0  0  0  0  0  0  0  0  0  0  0
   37.6590   29.6640   42.5440 N   0  0  0  0  0  0  0  0  0  0  0  0
   37.5200   28.6230   43.3670 C   0  0  0  0  0  0  0  0  0  0  0  0
   37.8070   27.3860   42.9550 N   0  0  0  0  0  0  0  0  0  0  0  0
   38.4960   26.2310   41.2760 H   0  0  0  0  0  0  0  0  0  0  0  0
   38.7340   28.2000   39.7930 H   0  0  0  0  0  0  0  0  0  0  0  0
   37.1680   28.8630   44.3560 H   0  0  0  0  0  0  0  0  0  0  0  0
   40.4870   31.1320   41.2380 C   0  0  0  0  0  2  0  0  0  0  0  0
   41.4770   31.7980   40.3720 C   0  0  0  0  0  0  0  0  0  0  0  0
   41.7060   31.4830   39.1100 C   0  0  0  0  0  0  0  0  0  0  0  0
   42.6840   32.2100   38.3880 N   0  0  0  0  0  0  0  0  0  0  0  0
   43.6680   32.2480   37.3680 C   0  0  2  0  0  0  0  0  0  0  0  0
   43.9780   31.4890   36.4110 O   0  0  0  0  0  1  0  0  0  0  0  0
   44.2480   33.5230   37.7950 C   0  0  0  0  0  3  0  0  0  0  0  0
   45.2010   33.3330   38.3200 H   0  0  0  0  0  0  0  0  0  0  0  0
   43.0020   33.5870   38.6450 C   0  0  1  0  0  0  0  0  0  0  0  0
   43.5270   33.6540   40.3970 S   0  0  0  0  0  0  0  0  0  0  0  0
   42.1360   32.8500   41.1870 C   0  0  0  0  0  3  0  0  0  0  0  0
   41.4190   33.6820   41.4540 H   0  0  0  0  0  0  0  0  0  0  0  0
   40.9900   30.4200   38.4150 C   0  0  0  0  0  0  0  0  0  0  0  0
   40.9390   29.1710   38.4440 O   0  0  0  0  0  0  0  0  0  0  0  0
   40.0740   30.6710   37.4170 O   0  0  0  0  0  0  0  0  0  0  0  0
   39.9960   30.2060   36.5220 H   0  0  0  0  0  0  0  0  0  0  0  0
  1  7  1  6  0  0  0
  1  6  1  0  0  0  0
  1 19  1  0  0  0  0
  2  1  1  0  0  0  0
  2  8  1  0  0  0  0
  3  4  1  0  0  0  0
  3  2  1  0  0  0  0
  4  5  1  0  0  0  0
  4 12  1  0  0  0  0
  5  6  1  0  0  0  0
  5 15  1  0  0  0  0
  6 26  1  0  0  0  0
  6 16  1  1  0  0  0
  9  2  1  0  0  0  0
 10  3  1  0  0  0  0
 11  3  1  0  0  0  0
 13  4  1  0  0  0  0
 14  5  1  0  0  0  0
 17 22  1  0  0  0  0
 18 19  1  0  0  0  0
 18 17  2  0  0  0  0
 19 20  2  0  0  0  0
 20 21  1  0  0  0  0
 21 25  1  0  0  0  0
 22 21  2  0  0  0  0
 23 17  1  0  0  0  0
 24 18  1  0  0  0  0
 27 36  1  0  0  0  0
 27 26  1  0  0  0  0
 28 27  2  0  0  0  0
 29 34  1  0  0  0  0
 29 28  1  0  0  0  0
 30 31  1  6  0  0  0
 30 32  1  0  0  0  0
 30 29  1  0  0  0  0
 30 34  1  0  0  0  0
 32 33  1  0  0  0  0
 34 32  1  6  0  0  0
 34 35  1  0  0  0  0
 35 36  1  0  0  0  0
 36 37  1  0  0  0  0
 38 39  2  0  0  0  0
 38 28  1  0  0  0  0
 40 38  1  0  0  0  0
 41 40  1  0  0  0  0
M  END
>  <minimizedAffinity>
-5.30378628

$$$$

 OpenBabel03242510303D

 41 45  0  0  1  0  0  0  0  0999 V2000
   36.2040   26.1460   39.3380 C   0  0  1  0  0  0  0  0  0  0  0  0
   36.0500   25.2190   38.1640 C   0  0  0  0  0  0  0  0  0  0  0  0
   35.1890   24.0730   38.6810 C   0  0  0  0  0  0  0  0  0  0  0  0
   36.0670   23.2910   39.6340 C   0  0  0  0  0  0  0  0  0  0  0  0
   36.6480   24.1060   40.7270 C   0  0  0  0  0  0  0  0  0  0  0  0
   37.0720   25.4750   40.3860 C   0  0  2  0  0  0  0  0  0  0  0  0
   35.2220   26.3320   39.7670 H   0  0  0  0  0  0  0  0  0  0  0  0
   37.0620   24.8360   37.8550 H   0  0  0  0  0  0  0  0  0  0  0  0
   35.4850   25.6800   37.3440 H   0  0  0  0  0  0  0  0  0  0  0  0
   34.8430   23.4180   37.8850 H   0  0  0  0  0  0  0  0  0  0  0  0
   34.3540   24.5630   39.2480 H   0  0  0  0  0  0  0  0  0  0  0  0
   36.9280   22.9270   38.9990 H   0  0  0  0  0  0  0  0  0  0  0  0
   35.5930   22.3910   40.0250 H   0  0  0  0  0  0  0  0  0  0  0  0
   35.8930   24.1580   41.5520 H   0  0  0  0  0  0  0  0  0  0  0  0
   37.5130   23.5380   41.1260 H   0  0  0  0  0  0  0  0  0  0  0  0
   38.0930   25.4450   39.9550 H   0  0  0  0  0  0  0  0  0  0  0  0
   38.6560   28.8270   38.2100 C   0  0  0  0  0  0  0  0  0  0  0  0
   38.1860   27.5570   38.5430 C   0  0  0  0  0  0  0  0  0  0  0  0
   36.8440   27.4290   38.9510 C   0  0  0  0  0  0  0  0  0  0  0  0
   36.1090   28.5710   38.9870 N   0  0  0  0  0  0  0  0  0  0  0  0
   36.5840   29.7740   38.6630 C   0  0  0  0  0  0  0  0  0  0  0  0
   37.8530   29.9230   38.2720 N   0  0  0  0  0  0  0  0  0  0  0  0
   39.6900   28.8670   37.9040 H   0  0  0  0  0  0  0  0  0  0  0  0
   38.7520   26.6590   38.5180 H   0  0  0  0  0  0  0  0  0  0  0  0
   35.8790   30.5840   38.7430 H   0  0  0  0  0  0  0  0  0  0  0  0
   37.0620   26.3960   41.6140 C   0  0  0  0  0  2  0  0  0  0  0  0
   38.4120   26.8230   42.0260 C   0  0  0  0  0  0  0  0  0  0  0  0
   38.7230   28.0360   42.4470 C   0  0  0  0  0  0  0  0  0  0  0  0
   40.0620   28.3110   42.8180 N   0  0  0  0  0  0  0  0  0  0  0  0
   41.1310   29.2360   42.9300 C   0  0  2  0  0  0  0  0  0  0  0  0
   41.2240   30.4900   42.8530 O   0  0  0  0  0  1  0  0  0  0  0  0
   42.1550   28.2210   43.1800 C   0  0  0  0  0  3  0  0  0  0  0  0
   42.7510   28.0690   42.2620 H   0  0  0  0  0  0  0  0  0  0  0  0
   40.9530   27.3270   43.3670 C   0  0  1  0  0  0  0  0  0  0  0  0
   41.0490   25.9960   42.1160 S   0  0  0  0  0  0  0  0  0  0  0  0
   39.3100   25.6500   41.8680 C   0  0  0  0  0  3  0  0  0  0  0  0
   39.0590   24.8300   42.6050 H   0  0  0  0  0  0  0  0  0  0  0  0
   37.7460   29.1120   42.5560 C   0  0  0  0  0  0  0  0  0  0  0  0
   37.3460   30.0680   41.8560 O   0  0  0  0  0  0  0  0  0  0  0  0
   36.9500   29.2830   43.6670 O   0  0  0  0  0  0  0  0  0  0  0  0
   36.7570   30.1450   44.1590 H   0  0  0  0  0  0  0  0  0  0  0  0
  1  7  1  1  0  0  0
  1  6  1  0  0  0  0
  2  3  1  0  0  0  0
  2  1  1  0  0  0  0
  3 11  1  0  0  0  0
  3  4  1  0  0  0  0
  4 13  1  0  0  0  0
  4  5  1  0  0  0  0
  5 15  1  0  0  0  0
  5 14  1  0  0  0  0
  6 16  1  6  0  0  0
  6  5  1  0  0  0  0
  6 26  1  0  0  0  0
  8  2  1  0  0  0  0
  9  2  1  0  0  0  0
 10  3  1  0  0  0  0
 12  4  1  0  0  0  0
 17 22  2  0  0  0  0
 17 18  1  0  0  0  0
 18 19  2  0  0  0  0
 19 20  1  0  0  0  0
 19  1  1  0  0  0  0
 21 25  1  0  0  0  0
 21 20  2  0  0  0  0
 22 21  1  0  0  0  0
 23 17  1  0  0  0  0
 24 18  1  0  0  0  0
 26 27  1  0  0  0  0
 27 28  2  0  0  0  0
 28 38  1  0  0  0  0
 28 29  1  0  0  0  0
 29 30  1  0  0  0  0
 29 34  1  0  0  0  0
 30 31  1  1  0  0  0
 30 32  1  0  0  0  0
 30 34  1  0  0  0  0
 32 34  1  0  0  0  0
 33 32  1  0  0  0  0
 34 35  1  6  0  0  0
 36 27  1  0  0  0  0
 36 35  1  0  0  0  0
 36 37  1  0  0  0  0
 38 40  1  0  0  0  0
 39 38  2  0  0  0  0
 40 41  1  0  0  0  0
M  END
>  <minimizedAffinity>
-5.24338388

$$$$
