
 OpenBabel03242520453D

 29 31  0  0  1  0  0  0  0  0999 V2000
   49.1010   31.5880   37.4530 C   0  0  0  0  0  0  0  0  0  0  0  0
   49.7930   31.8150   38.5570 C   0  0  0  0  0  0  0  0  0  0  0  0
   49.1590   32.4880   39.6370 N   0  0  0  0  0  0  0  0  0  0  0  0
   48.8680   32.5110   41.0580 C   0  0  0  0  0  0  0  0  0  0  0  0
   49.4010   31.9710   42.0890 O   0  0  0  0  0  0  0  0  0  0  0  0
   47.6930   33.4260   40.8020 C   0  0  2  0  0  3  0  0  0  0  0  0
   48.3980   33.7410   39.5000 C   0  0  2  0  0  3  0  0  0  0  0  0
   47.3930   33.5910   38.0100 S   0  0  0  0  0  0  0  0  0  0  0  0
   47.6920   31.9700   37.2680 C   0  0  0  0  0  3  0  0  0  0  0  0
   47.4250   31.9490   36.1920 H   0  0  0  0  0  0  0  0  0  0  0  0
   47.6510   34.5510   41.7900 C   0  0  0  0  0  0  0  0  0  0  0  0
   48.3380   35.5590   41.5050 O   0  0  0  0  0  0  0  0  0  0  0  0
   44.8580   35.1310   44.1530 C   0  0  0  0  0  0  0  0  0  0  0  0
   45.6780   35.2110   43.0050 C   0  0  0  0  0  0  0  0  0  0  0  0
   46.8550   34.4340   42.9750 C   0  0  0  0  0  0  0  0  0  0  0  0
   47.1230   33.6560   44.0570 N   0  0  0  0  0  0  0  0  0  0  0  0
   46.3080   33.6120   45.1340 C   0  0  0  0  0  0  0  0  0  0  0  0
   45.1970   34.3460   45.1620 N   0  0  0  0  0  0  0  0  0  0  0  0
   43.6750   35.9060   44.1980 N   0  0  0  0  0  0  0  0  0  0  0  0
   45.3830   35.8620   42.1880 H   0  0  0  0  0  0  0  0  0  0  0  0
   46.5720   32.9730   45.9690 H   0  0  0  0  0  0  0  0  0  0  0  0
   43.9620   36.9190   44.3310 H   0  0  0  0  0  0  0  0  0  0  0  0
   42.6730   35.5770   44.1170 H   0  0  0  0  0  0  0  0  0  0  0  0
   49.7960   30.9040   36.3650 C   0  0  0  0  0  2  0  0  0  0  0  0
   50.6790   31.4730   36.0120 H   0  0  0  0  0  0  0  0  0  0  0  0
   51.1870   31.4110   38.7110 C   0  0  0  0  0  0  0  0  0  0  0  0
   51.9550   31.6380   39.6610 O   0  0  0  0  0  0  0  0  0  0  0  0
   51.9720   30.6820   37.8340 O   0  0  0  0  0  0  0  0  0  0  0  0
   52.8360   31.0090   37.4310 H   0  0  0  0  0  0  0  0  0  0  0  0
  1  2  2  0  0  0  0
  2 26  1  0  0  0  0
  2  3  1  0  0  0  0
  3  4  1  0  0  0  0
  4  5  2  0  0  0  0
  6  4  1  0  0  0  0
  6 11  1  1  0  0  0
  7  8  1  6  0  0  0
  7  3  1  0  0  0  0
  7  6  1  0  0  0  0
  9  1  1  0  0  0  0
  9  8  1  0  0  0  0
 10  9  1  0  0  0  0
 11 15  1  0  0  0  0
 12 11  2  0  0  0  0
 13 19  1  0  0  0  0
 13 18  1  0  0  0  0
 14 13  2  0  0  0  0
 15 14  1  0  0  0  0
 15 16  2  0  0  0  0
 16 17  1  0  0  0  0
 17 18  2  0  0  0  0
 17 21  1  0  0  0  0
 19 22  1  0  0  0  0
 20 14  1  0  0  0  0
 23 19  1  0  0  0  0
 24  1  1  0  0  0  0
 25 24  1  0  0  0  0
 26 27  2  0  0  0  0
 28 26  1  0  0  0  0
 29 28  1  0  0  0  0
M  END
>  <minimizedAffinity>
-5.21485853

>  <minimizedRMSD>
1.12224042

$$$$
