
 OpenBabel03252504413D

 52 56  0  0  1  0  0  0  0  0999 V2000
   45.5350   32.9540   46.8830 C   0  0  0  0  0  0  0  0  0  0  0  0
   44.5380   32.5000   46.6890 H   0  0  0  0  0  0  0  0  0  0  0  0
   45.3760   33.9780   47.2770 H   0  0  0  0  0  0  0  0  0  0  0  0
   46.3070   32.1540   47.8800 C   0  0  0  0  0  0  0  0  0  0  0  0
   45.8500   31.6990   49.0890 C   0  0  0  0  0  0  0  0  0  0  0  0
   46.8620   31.0360   49.6490 N   0  0  0  0  0  0  0  0  0  0  0  0
   47.9460   31.0440   48.8570 C   0  0  0  0  0  0  0  0  0  0  0  0
   47.5870   31.7490   47.7480 N   0  0  0  0  0  0  0  0  0  0  0  0
   49.2360   30.4840   49.0160 N   0  0  0  0  0  0  0  0  0  0  0  0
   50.2520   31.3110   49.7020 C   0  0  0  0  0  0  0  0  0  0  0  0
   50.3750   30.6910   51.0890 C   0  0  0  0  0  0  0  0  0  0  0  0
   50.5160   29.1930   50.9900 C   0  0  0  0  0  0  0  0  0  0  0  0
   50.8980   28.8150   49.5800 C   0  0  0  0  0  0  0  0  0  0  0  0
   49.7910   29.2210   48.6320 C   0  0  0  0  0  0  0  0  0  0  0  0
   44.8620   31.8390   49.5270 H   0  0  0  0  0  0  0  0  0  0  0  0
   46.8650   30.5540   50.5820 H   0  0  0  0  0  0  0  0  0  0  0  0
   51.1960   31.3430   49.1540 H   0  0  0  0  0  0  0  0  0  0  0  0
   49.8800   32.3520   49.8580 H   0  0  0  0  0  0  0  0  0  0  0  0
   49.5600   31.0190   51.7360 H   0  0  0  0  0  0  0  0  0  0  0  0
   51.3300   31.0950   51.5240 H   0  0  0  0  0  0  0  0  0  0  0  0
   49.5260   28.7350   51.2030 H   0  0  0  0  0  0  0  0  0  0  0  0
   51.2140   28.7740   51.7280 H   0  0  0  0  0  0  0  0  0  0  0  0
   51.8160   29.3990   49.3190 H   0  0  0  0  0  0  0  0  0  0  0  0
   51.1510   27.7470   49.4980 H   0  0  0  0  0  0  0  0  0  0  0  0
   49.0280   28.4070   48.7050 H   0  0  0  0  0  0  0  0  0  0  0  0
   50.1240   29.3020   47.5820 H   0  0  0  0  0  0  0  0  0  0  0  0
   45.9290   33.9130   44.6480 C   0  0  0  0  0  3  0  0  0  0  0  0
   46.3010   33.0990   45.6260 C   0  0  0  0  0  3  0  0  0  0  0  0
   46.7790   33.9600   43.4580 C   0  0  0  0  0  0  0  0  0  0  0  0
   46.6480   35.0240   42.5170 C   0  0  0  0  0  0  0  0  0  0  0  0
   47.5070   34.9720   41.4190 C   0  0  0  0  0  0  0  0  0  0  0  0
   48.4040   33.9660   41.2710 N   0  0  0  0  0  0  0  0  0  0  0  0
   48.4970   32.9680   42.1950 C   0  0  0  0  0  0  0  0  0  0  0  0
   47.6890   32.9920   43.2520 N   0  0  0  0  0  0  0  0  0  0  0  0
   45.9150   35.7610   42.7280 H   0  0  0  0  0  0  0  0  0  0  0  0
   47.4000   35.7780   40.7170 H   0  0  0  0  0  0  0  0  0  0  0  0
   49.4740   31.8960   42.1080 C   0  0  0  0  0  2  0  0  0  0  0  0
   50.2010   31.6720   40.8810 C   0  0  0  0  0  0  0  0  0  0  0  0
   49.8900   31.2190   39.6830 C   0  0  0  0  0  0  0  0  0  0  0  0
   50.8560   31.0870   38.6460 N   0  0  0  0  0  0  0  0  0  0  0  0
   51.2320   31.3320   37.2980 C   0  0  0  0  0  0  0  0  0  0  0  0
   50.5420   31.4010   36.2350 O   0  0  0  0  0  0  0  0  0  0  0  0
   52.6340   31.4360   37.7900 C   0  0  0  0  0  3  0  0  0  0  0  0
   53.4030   31.1100   37.0810 H   0  0  0  0  0  0  0  0  0  0  0  0
   52.1710   30.4220   38.7850 C   0  0  1  0  0  3  0  0  0  0  0  0
   52.6640   30.7080   40.4990 S   0  0  0  0  0  0  0  0  0  0  0  0
   51.6110   32.1010   41.0690 C   0  0  0  0  0  3  0  0  0  0  0  0
   51.8100   32.9410   40.3660 H   0  0  0  0  0  0  0  0  0  0  0  0
   48.5060   30.8340   39.4630 C   0  0  0  0  0  0  0  0  0  0  0  0
   48.2520   29.8520   38.7280 O   0  0  0  0  0  0  0  0  0  0  0  0
   47.1790   30.5310   39.3020 O   0  0  0  0  0  0  0  0  0  0  0  0
   46.4650   30.5760   40.0490 H   0  0  0  0  0  0  0  0  0  0  0  0
  1  3  1  0  0  0  0
  1  4  1  0  0  0  0
  2  1  1  0  0  0  0
  4  5  2  0  0  0  0
  5 15  1  0  0  0  0
  5  6  1  0  0  0  0
  6 16  1  0  0  0  0
  7  9  1  0  0  0  0
  7  6  1  0  0  0  0
  8  4  1  0  0  0  0
  8  7  2  0  0  0  0
  9 10  1  0  0  0  0
 10 18  1  0  0  0  0
 10 11  1  0  0  0  0
 11 20  1  0  0  0  0
 11 19  1  0  0  0  0
 12 11  1  0  0  0  0
 12 21  1  0  0  0  0
 12 22  1  0  0  0  0
 13 12  1  0  0  0  0
 14 25  1  0  0  0  0
 14  9  1  0  0  0  0
 14 13  1  0  0  0  0
 17 10  1  0  0  0  0
 23 13  1  0  0  0  0
 24 13  1  0  0  0  0
 26 14  1  0  0  0  0
 27 28  2  0  0  0  0
 28  1  1  0  0  0  0
 29 27  1  0  0  0  0
 30 35  1  0  0  0  0
 30 29  2  0  0  0  0
 31 30  1  0  0  0  0
 32 31  2  0  0  0  0
 32 33  1  0  0  0  0
 33 34  2  0  0  0  0
 34 29  1  0  0  0  0
 36 31  1  0  0  0  0
 37 33  1  0  0  0  0
 38 47  1  0  0  0  0
 38 37  1  0  0  0  0
 39 38  2  0  0  0  0
 40 45  1  0  0  0  0
 40 39  1  0  0  0  0
 41 43  1  0  0  0  0
 41 40  1  0  0  0  0
 42 41  2  0  0  0  0
 44 43  1  0  0  0  0
 45 43  1  6  0  0  0
 45 46  1  0  0  0  0
 46 47  1  0  0  0  0
 48 47  1  0  0  0  0
 49 39  1  0  0  0  0
 50 49  2  0  0  0  0
 51 49  1  0  0  0  0
 51 52  1  0  0  0  0
M  END
>  <minimizedAffinity>
-6.16281366

>  <minimizedRMSD>
1.30452943

$$$$
