
 OpenBabel03242510083D

 35 38  0  0  1  0  0  0  0  0999 V2000
   44.6770   33.1360   41.3110 Br  0  0  0  0  0  0  0  0  0  0  0  0
   46.3550   34.0230   41.1190 C   0  0  0  0  0  0  0  0  0  0  0  0
   46.8740   34.7740   42.1600 C   0  0  0  0  0  0  0  0  0  0  0  0
   48.0900   35.4390   42.0410 C   0  0  0  0  0  0  0  0  0  0  0  0
   48.7570   35.3240   40.8510 C   0  0  0  0  0  0  0  0  0  0  0  0
   48.2110   34.5700   39.8380 C   0  0  0  0  0  0  0  0  0  0  0  0
   47.0310   33.9150   39.9340 C   0  0  0  0  0  0  0  0  0  0  0  0
   48.4790   36.0240   42.8740 H   0  0  0  0  0  0  0  0  0  0  0  0
   49.7170   35.8440   40.7430 H   0  0  0  0  0  0  0  0  0  0  0  0
   48.8090   34.5490   38.9430 H   0  0  0  0  0  0  0  0  0  0  0  0
   45.5900   33.9820   45.4890 C   0  0  0  0  0  0  0  0  0  0  0  0
   44.6570   34.9990   45.7520 C   0  0  0  0  0  0  0  0  0  0  0  0
   44.4850   35.9580   44.7570 C   0  0  0  0  0  0  0  0  0  0  0  0
   45.2130   35.8510   43.6190 N   0  0  0  0  0  0  0  0  0  0  0  0
   46.1050   34.8510   43.4050 C   0  0  0  0  0  0  0  0  0  0  0  0
   46.2880   33.9130   44.3540 N   0  0  0  0  0  0  0  0  0  0  0  0
   45.6630   33.2780   46.3120 H   0  0  0  0  0  0  0  0  0  0  0  0
   44.0640   35.1250   46.6240 H   0  0  0  0  0  0  0  0  0  0  0  0
   43.8120   36.8190   44.7730 H   0  0  0  0  0  0  0  0  0  0  0  0
   46.4540   33.1130   38.8200 C   0  0  0  0  0  2  0  0  0  0  0  0
   47.2080   31.9100   38.4720 C   0  0  0  0  0  0  0  0  0  0  0  0
   47.9560   31.9310   37.3990 C   0  0  0  0  0  0  0  0  0  0  0  0
   48.7020   30.7700   37.0570 N   0  0  0  0  0  0  0  0  0  0  0  0
   49.1150   29.8620   36.0120 C   0  0  0  0  0  0  0  0  0  0  0  0
   49.1680   29.8830   34.7350 O   0  0  0  0  0  0  0  0  0  0  0  0
   49.4780   28.8330   37.0330 C   0  0  0  0  0  3  0  0  0  0  0  0
   50.5120   28.4630   36.8100 H   0  0  0  0  0  0  0  0  0  0  0  0
   49.4760   29.9790   38.0210 C   0  0  2  0  0  3  0  0  0  0  0  0
   48.5040   29.7910   39.4970 S   0  0  0  0  0  0  0  0  0  0  0  0
   47.0010   30.7690   39.3880 C   0  0  0  0  0  3  0  0  0  0  0  0
   46.1190   30.1470   39.0740 H   0  0  0  0  0  0  0  0  0  0  0  0
   48.1110   33.0730   36.4950 C   0  0  0  0  0  0  0  0  0  0  0  0
   48.4480   33.0420   35.2890 O   0  0  0  0  0  0  0  0  0  0  0  0
   48.0350   34.4280   36.3510 O   0  0  0  0  0  0  0  0  0  0  0  0
   47.1370   34.9050   36.1880 H   0  0  0  0  0  0  0  0  0  0  0  0
  2  1  1  0  0  0  0
  2  3  1  0  0  0  0
  3 15  1  0  0  0  0
  4  3  2  0  0  0  0
  4  8  1  0  0  0  0
  5  4  1  0  0  0  0
  6  7  1  0  0  0  0
  6  5  2  0  0  0  0
  7  2  2  0  0  0  0
  9  5  1  0  0  0  0
 10  6  1  0  0  0  0
 11 12  1  0  0  0  0
 11 17  1  0  0  0  0
 12 18  1  0  0  0  0
 13 19  1  0  0  0  0
 13 12  2  0  0  0  0
 14 13  1  0  0  0  0
 15 14  2  0  0  0  0
 15 16  1  0  0  0  0
 16 11  2  0  0  0  0
 20  7  1  0  0  0  0
 21 20  1  0  0  0  0
 21 30  1  0  0  0  0
 22 21  2  0  0  0  0
 23 22  1  0  0  0  0
 23 28  1  0  0  0  0
 24 26  1  0  0  0  0
 24 23  1  0  0  0  0
 25 24  2  0  0  0  0
 27 26  1  0  0  0  0
 28 26  1  6  0  0  0
 28 29  1  0  0  0  0
 30 29  1  0  0  0  0
 31 30  1  0  0  0  0
 32 22  1  0  0  0  0
 33 32  2  0  0  0  0
 34 32  1  0  0  0  0
 35 34  1  0  0  0  0
M  END
>  <minimizedAffinity>
-5.81628323

>  <minimizedRMSD>
1.46136332

$$$$
