
 OpenBabel03252503093D

 34 38  0  0  1  0  0  0  0  0999 V2000
   46.2160   34.9000   42.1250 C   0  0  2  0  0  3  0  0  0  0  0  0
   47.4000   35.3910   42.0090 O   0  0  0  0  0  1  0  0  0  0  0  0
   43.2620   31.9160   38.8490 C   0  0  0  0  0  0  0  0  0  0  0  0
   42.7980   32.9370   39.5120 C   0  0  0  0  0  0  0  0  0  0  0  0
   43.5830   33.7440   40.3820 N   0  0  0  0  0  0  0  0  0  0  0  0
   43.9670   34.9720   40.9960 C   0  0  2  0  0  0  0  0  0  0  0  0
   43.2830   35.9600   41.3610 O   0  0  0  0  0  1  0  0  0  0  0  0
   45.3440   34.4890   40.9520 C   0  0  2  0  0  3  0  0  0  0  0  0
   44.6390   33.1660   41.1810 C   0  0  2  0  0  0  0  0  0  0  0  0
   45.5180   31.8330   40.4040 S   0  0  0  0  0  0  0  0  0  0  0  0
   44.6420   31.4450   38.8940 C   0  0  0  0  0  3  0  0  0  0  0  0
   44.6190   30.3290   38.7940 H   0  0  0  0  0  0  0  0  0  0  0  0
   42.2420   31.2520   38.0220 C   0  0  0  0  0  2  0  0  0  0  0  0
   42.7660   30.6420   37.2320 H   0  0  0  0  0  0  0  0  0  0  0  0
   41.3890   33.2810   39.3580 C   0  0  0  0  0  0  0  0  0  0  0  0
   40.6360   33.6940   40.3040 O   0  0  0  0  0  0  0  0  0  0  0  0
   40.1010   33.5400   38.9770 O   0  0  0  0  0  0  0  0  0  0  0  0
   39.7750   33.3710   38.0150 H   0  0  0  0  0  0  0  0  0  0  0  0
   44.9410   35.7620   44.0260 C   0  0  0  0  0  0  0  0  0  0  0  0
   45.7790   34.7810   43.4630 C   0  0  0  0  0  0  0  0  0  0  0  0
   46.0890   33.7250   44.3250 C   0  0  0  0  0  0  0  0  0  0  0  0
   45.6190   33.6580   45.5820 N   0  0  0  0  0  0  0  0  0  0  0  0
   44.8100   34.6370   46.0730 C   0  0  0  0  0  0  0  0  0  0  0  0
   44.4760   35.6850   45.2890 N   0  0  0  0  0  0  0  0  0  0  0  0
   44.6770   36.6020   43.3880 H   0  0  0  0  0  0  0  0  0  0  0  0
   44.4620   34.5330   47.0880 H   0  0  0  0  0  0  0  0  0  0  0  0
   46.9210   32.7140   43.8550 C   0  0  0  0  0  0  0  0  0  0  0  0
   48.1630   32.6670   43.2660 C   0  0  0  0  0  0  0  0  0  0  0  0
   48.7750   31.5740   42.8860 C   0  0  0  0  0  0  0  0  0  0  0  0
   48.0880   30.3990   43.1120 C   0  0  0  0  0  0  0  0  0  0  0  0
   46.5120   30.9920   43.9050 S   0  0  0  0  0  0  0  0  0  0  0  0
   48.8300   33.4910   43.0640 H   0  0  0  0  0  0  0  0  0  0  0  0
   49.6860   31.2560   42.4310 H   0  0  0  0  0  0  0  0  0  0  0  0
   48.1350   29.3260   43.0000 H   0  0  0  0  0  0  0  0  0  0  0  0
  1  2  1  6  0  0  0
  1 20  1  0  0  0  0
  3 11  1  0  0  0  0
  3  4  2  0  0  0  0
  4  5  1  0  0  0  0
  5  6  1  0  0  0  0
  5  9  1  0  0  0  0
  6  9  1  0  0  0  0
  6  7  1  1  0  0  0
  8  6  1  0  0  0  0
  8  9  1  0  0  0  0
  8  1  1  1  0  0  0
  9 10  1  1  0  0  0
 11 10  1  0  0  0  0
 12 11  1  0  0  0  0
 13  3  1  0  0  0  0
 14 13  1  0  0  0  0
 15  4  1  0  0  0  0
 15 16  2  0  0  0  0
 17 15  1  0  0  0  0
 18 17  1  0  0  0  0
 19 24  1  0  0  0  0
 20 19  2  0  0  0  0
 20 21  1  0  0  0  0
 21 22  2  0  0  0  0
 22 23  1  0  0  0  0
 23 26  1  0  0  0  0
 24 23  2  0  0  0  0
 25 19  1  0  0  0  0
 27 31  1  0  0  0  0
 27 21  1  0  0  0  0
 28 27  2  0  0  0  0
 29 30  2  0  0  0  0
 29 28  1  0  0  0  0
 30 31  1  0  0  0  0
 32 28  1  0  0  0  0
 33 29  1  0  0  0  0
 34 30  1  0  0  0  0
M  END
>  <minimizedAffinity>
-5.21247435

>  <minimizedRMSD>
1.99750972

$$$$
