
 OpenBabel03242512413D

 30 32  0  0  1  0  0  0  0  0999 V2000
   46.0560   30.6040   47.1830 C   0  0  0  0  0  2  0  0  0  0  0  0
   47.2410   30.3900   48.0180 C   0  0  0  0  0  0  0  0  0  0  0  0
   47.9410   29.3020   47.7540 C   0  0  0  0  0  0  0  0  0  0  0  0
   49.1010   28.9980   48.4930 N   0  0  0  0  0  0  0  0  0  0  0  0
   49.9690   28.0430   49.1410 C   0  0  0  0  0  0  0  0  0  0  0  0
   50.2570   26.8710   48.8270 O   0  0  0  0  0  0  0  0  0  0  0  0
   50.2070   29.1290   50.1570 C   0  0  0  0  0  3  0  0  0  0  0  0
   49.3420   29.2290   50.8480 H   0  0  0  0  0  0  0  0  0  0  0  0
   50.0460   30.0060   48.9350 C   0  0  2  0  0  3  0  0  0  0  0  0
   49.3020   31.6040   49.2000 S   0  0  0  0  0  0  0  0  0  0  0  0
   47.5290   31.3900   49.0590 C   0  0  0  0  0  3  0  0  0  0  0  0
   47.1160   32.3790   48.7280 H   0  0  0  0  0  0  0  0  0  0  0  0
   47.5660   28.3650   46.6980 C   0  0  0  0  0  0  0  0  0  0  0  0
   48.1950   28.2350   45.6090 O   0  0  0  0  0  0  0  0  0  0  0  0
   46.8770   27.3920   46.0180 O   0  0  0  0  0  0  0  0  0  0  0  0
   45.8800   27.5300   45.8530 H   0  0  0  0  0  0  0  0  0  0  0  0
   45.5950   33.8820   45.5520 C   0  0  0  0  0  0  0  0  0  0  0  0
   46.5110   33.8450   44.4900 C   0  0  0  0  0  0  0  0  0  0  0  0
   47.2900   32.6880   44.3330 C   0  0  0  0  0  0  0  0  0  0  0  0
   47.1010   31.6750   45.2310 N   0  0  0  0  0  0  0  0  0  0  0  0
   46.2170   31.7550   46.2280 C   0  0  0  0  0  0  0  0  0  0  0  0
   45.4780   32.8440   46.3790 N   0  0  0  0  0  0  0  0  0  0  0  0
   46.6920   34.6160   43.7620 H   0  0  0  0  0  0  0  0  0  0  0  0
   48.0210   32.5570   43.5520 H   0  0  0  0  0  0  0  0  0  0  0  0
   44.8600   35.0160   45.6700 O   0  0  0  0  0  0  0  0  0  0  0  0
   44.5030   35.8370   44.6060 C   0  0  0  0  0  0  0  0  0  0  0  0
   44.9880   37.0020   44.3800 O   0  0  0  0  0  0  0  0  0  0  0  0
   43.5390   35.4950   43.6100 N   0  0  0  0  0  0  0  0  0  0  0  0
   43.6460   35.3350   42.5700 H   0  0  0  0  0  0  0  0  0  0  0  0
   42.5370   35.2730   43.3420 H   0  0  0  0  0  0  0  0  0  0  0  0
  1  2  1  0  0  0  0
  2 11  1  0  0  0  0
  3  2  2  0  0  0  0
  3  4  1  0  0  0  0
  4  9  1  0  0  0  0
  4  5  1  0  0  0  0
  5  7  1  0  0  0  0
  6  5  2  0  0  0  0
  7  8  1  0  0  0  0
  9 10  1  1  0  0  0
  9  7  1  0  0  0  0
 11 10  1  0  0  0  0
 12 11  1  0  0  0  0
 13  3  1  0  0  0  0
 14 13  2  0  0  0  0
 15 13  1  0  0  0  0
 16 15  1  0  0  0  0
 17 25  1  0  0  0  0
 17 22  1  0  0  0  0
 18 17  2  0  0  0  0
 19 18  1  0  0  0  0
 19 20  2  0  0  0  0
 20 21  1  0  0  0  0
 21 22  2  0  0  0  0
 21  1  1  0  0  0  0
 23 18  1  0  0  0  0
 24 19  1  0  0  0  0
 26 25  1  0  0  0  0
 27 26  2  0  0  0  0
 28 26  1  0  0  0  0
 29 28  1  0  0  0  0
 30 28  1  0  0  0  0
M  END
>  <minimizedAffinity>
-4.93114996

>  <minimizedRMSD>
1.00258946

$$$$
