
 OpenBabel03242520453D

 29 31  0  0  1  0  0  0  0  0999 V2000
   45.2590   31.1540   38.4930 C   0  0  0  0  0  0  0  0  0  0  0  0
   44.6330   31.7980   39.4630 C   0  0  0  0  0  0  0  0  0  0  0  0
   45.3230   32.8280   40.1580 N   0  0  0  0  0  0  0  0  0  0  0  0
   45.3010   34.1920   40.6550 C   0  0  0  0  0  0  0  0  0  0  0  0
   44.3740   35.0310   40.9250 O   0  0  0  0  0  0  0  0  0  0  0  0
   46.8120   34.1940   40.7120 C   0  0  2  0  0  3  0  0  0  0  0  0
   46.6760   32.6860   40.7200 C   0  0  2  0  0  3  0  0  0  0  0  0
   47.6680   31.8050   39.4990 S   0  0  0  0  0  0  0  0  0  0  0  0
   46.6340   31.4460   38.0590 C   0  0  0  0  0  3  0  0  0  0  0  0
   47.0360   30.6080   37.4560 H   0  0  0  0  0  0  0  0  0  0  0  0
   47.3100   34.7940   41.9910 C   0  0  0  0  0  0  0  0  0  0  0  0
   48.1320   35.7330   41.8730 O   0  0  0  0  0  0  0  0  0  0  0  0
   45.3030   34.5620   45.0940 C   0  0  0  0  0  0  0  0  0  0  0  0
   45.7980   35.0180   43.8520 C   0  0  0  0  0  0  0  0  0  0  0  0
   46.8440   34.2900   43.2470 C   0  0  0  0  0  0  0  0  0  0  0  0
   47.3080   33.1930   43.9030 N   0  0  0  0  0  0  0  0  0  0  0  0
   46.8030   32.7940   45.0900 C   0  0  0  0  0  0  0  0  0  0  0  0
   45.8150   33.4820   45.6610 N   0  0  0  0  0  0  0  0  0  0  0  0
   44.2550   35.2820   45.7140 N   0  0  0  0  0  0  0  0  0  0  0  0
   45.3650   35.9060   43.4040 H   0  0  0  0  0  0  0  0  0  0  0  0
   47.2120   31.9110   45.5670 H   0  0  0  0  0  0  0  0  0  0  0  0
   44.6640   36.1900   46.0790 H   0  0  0  0  0  0  0  0  0  0  0  0
   43.2380   35.0040   45.8140 H   0  0  0  0  0  0  0  0  0  0  0  0
   44.5160   30.0960   37.8130 C   0  0  0  0  0  2  0  0  0  0  0  0
   44.2070   29.2900   38.5090 H   0  0  0  0  0  0  0  0  0  0  0  0
   43.2630   31.4890   39.8590 C   0  0  0  0  0  0  0  0  0  0  0  0
   42.8720   30.6900   40.7250 O   0  0  0  0  0  0  0  0  0  0  0  0
   42.0850   32.0170   39.3590 O   0  0  0  0  0  0  0  0  0  0  0  0
   41.3480   31.4750   38.9360 H   0  0  0  0  0  0  0  0  0  0  0  0
  1  2  2  0  0  0  0
  2 26  1  0  0  0  0
  2  3  1  0  0  0  0
  3  4  1  0  0  0  0
  3  7  1  0  0  0  0
  4  6  1  0  0  0  0
  4  5  2  0  0  0  0
  6  7  1  0  0  0  0
  6 11  1  1  0  0  0
  7  8  1  6  0  0  0
  9  1  1  0  0  0  0
  9  8  1  0  0  0  0
 10  9  1  0  0  0  0
 11 15  1  0  0  0  0
 12 11  2  0  0  0  0
 13 18  1  0  0  0  0
 13 19  1  0  0  0  0
 14 13  2  0  0  0  0
 15 14  1  0  0  0  0
 15 16  2  0  0  0  0
 16 17  1  0  0  0  0
 17 21  1  0  0  0  0
 17 18  2  0  0  0  0
 19 23  1  0  0  0  0
 19 22  1  0  0  0  0
 20 14  1  0  0  0  0
 24  1  1  0  0  0  0
 24 25  1  0  0  0  0
 26 27  2  0  0  0  0
 28 26  1  0  0  0  0
 29 28  1  0  0  0  0
M  END
>  <minimizedAffinity>
-4.64306688

>  <minimizedRMSD>
1.16061401

$$$$
