
 OpenBabel03242520453D

 29 31  0  0  1  0  0  0  0  0999 V2000
   47.5900   30.4480   38.7190 C   0  0  0  0  0  0  0  0  0  0  0  0
   46.6240   30.9790   39.4490 C   0  0  0  0  0  0  0  0  0  0  0  0
   46.8350   32.2510   40.0470 N   0  0  0  0  0  0  0  0  0  0  0  0
   46.3260   33.5890   40.2810 C   0  0  0  0  0  0  0  0  0  0  0  0
   45.1630   34.1230   40.2480 O   0  0  0  0  0  0  0  0  0  0  0  0
   47.7290   34.0710   40.5710 C   0  0  2  0  0  3  0  0  0  0  0  0
   48.0290   32.6090   40.8290 C   0  0  2  0  0  3  0  0  0  0  0  0
   49.4580   31.9400   39.9550 S   0  0  0  0  0  0  0  0  0  0  0  0
   48.8830   31.1010   38.4590 C   0  0  0  0  0  3  0  0  0  0  0  0
   49.6210   30.3620   38.0870 H   0  0  0  0  0  0  0  0  0  0  0  0
   47.7650   34.9500   41.7840 C   0  0  0  0  0  0  0  0  0  0  0  0
   48.5140   35.9520   41.7140 O   0  0  0  0  0  0  0  0  0  0  0  0
   44.9740   35.0960   44.2150 C   0  0  0  0  0  0  0  0  0  0  0  0
   45.7930   35.3800   43.0990 C   0  0  0  0  0  0  0  0  0  0  0  0
   46.9710   34.6230   42.9290 C   0  0  0  0  0  0  0  0  0  0  0  0
   47.2410   33.6650   43.8560 N   0  0  0  0  0  0  0  0  0  0  0  0
   46.4280   33.4290   44.9090 C   0  0  0  0  0  0  0  0  0  0  0  0
   45.3160   34.1440   45.0680 N   0  0  0  0  0  0  0  0  0  0  0  0
   43.7900   35.8480   44.3980 N   0  0  0  0  0  0  0  0  0  0  0  0
   45.4950   36.1650   42.4110 H   0  0  0  0  0  0  0  0  0  0  0  0
   46.6940   32.6520   45.6160 H   0  0  0  0  0  0  0  0  0  0  0  0
   44.0760   36.8210   44.7090 H   0  0  0  0  0  0  0  0  0  0  0  0
   42.7880   35.5370   44.2610 H   0  0  0  0  0  0  0  0  0  0  0  0
   47.3340   29.1350   38.1330 C   0  0  0  0  0  2  0  0  0  0  0  0
   47.1320   28.3670   38.9060 H   0  0  0  0  0  0  0  0  0  0  0  0
   45.3480   30.3070   39.6750 C   0  0  0  0  0  0  0  0  0  0  0  0
   45.0290   29.5510   40.6070 O   0  0  0  0  0  0  0  0  0  0  0  0
   44.2010   30.3600   38.9030 O   0  0  0  0  0  0  0  0  0  0  0  0
   43.7550   29.5600   38.4810 H   0  0  0  0  0  0  0  0  0  0  0  0
  1  2  2  0  0  0  0
  2 26  1  0  0  0  0
  2  3  1  0  0  0  0
  3  4  1  0  0  0  0
  3  7  1  0  0  0  0
  4  6  1  0  0  0  0
  5  4  2  0  0  0  0
  6  7  1  0  0  0  0
  6 11  1  1  0  0  0
  7  8  1  6  0  0  0
  9  1  1  0  0  0  0
  9  8  1  0  0  0  0
 10  9  1  0  0  0  0
 11 15  1  0  0  0  0
 12 11  2  0  0  0  0
 13 19  1  0  0  0  0
 13 18  1  0  0  0  0
 14 13  2  0  0  0  0
 15 14  1  0  0  0  0
 15 16  2  0  0  0  0
 16 17  1  0  0  0  0
 17 18  2  0  0  0  0
 17 21  1  0  0  0  0
 19 22  1  0  0  0  0
 20 14  1  0  0  0  0
 23 19  1  0  0  0  0
 24  1  1  0  0  0  0
 24 25  1  0  0  0  0
 26 27  2  0  0  0  0
 28 26  1  0  0  0  0
 29 28  1  0  0  0  0
M  END
>  <minimizedAffinity>
-4.73601627

>  <minimizedRMSD>
0.965585649

$$$$
