
 OpenBabel03242519013D

 46 50  0  0  1  0  0  0  0  0999 V2000
   46.0990   31.7410   43.6380 C   0  0  0  0  0  0  0  0  0  0  0  0
   47.0720   31.2030   42.7850 C   0  0  0  0  0  0  0  0  0  0  0  0
   48.1320   30.5110   43.3970 C   0  0  0  0  0  0  0  0  0  0  0  0
   48.1290   30.4160   44.7630 N   0  0  0  0  0  0  0  0  0  0  0  0
   47.1450   30.9630   45.5440 C   0  0  0  0  0  0  0  0  0  0  0  0
   46.1100   31.6390   44.9810 N   0  0  0  0  0  0  0  0  0  0  0  0
   47.1220   31.2110   41.7370 H   0  0  0  0  0  0  0  0  0  0  0  0
   48.9450   30.0510   42.8520 H   0  0  0  0  0  0  0  0  0  0  0  0
   44.9970   32.4640   43.0060 C   0  0  1  0  0  0  0  0  0  0  0  0
   44.6980   33.8720   43.4330 C   0  0  0  0  0  0  0  0  0  0  0  0
   45.2150   33.6940   42.1580 C   0  0  1  0  0  0  0  0  0  0  0  0
   44.1760   31.7680   42.6860 H   0  0  0  0  0  0  0  0  0  0  0  0
   43.5850   34.0440   43.5570 H   0  0  0  0  0  0  0  0  0  0  0  0
   45.2170   34.2730   44.3380 H   0  0  0  0  0  0  0  0  0  0  0  0
   44.6050   33.6040   41.2290 H   0  0  0  0  0  0  0  0  0  0  0  0
   46.5630   34.2240   41.8210 C   0  0  0  0  0  0  0  0  0  0  0  0
   47.4160   34.7490   42.7630 C   0  0  0  0  0  0  0  0  0  0  0  0
   48.6440   35.2870   42.4960 C   0  0  0  0  0  0  0  0  0  0  0  0
   49.0610   35.3050   41.1850 C   0  0  0  0  0  0  0  0  0  0  0  0
   48.2260   34.7830   40.2000 C   0  0  0  0  0  0  0  0  0  0  0  0
   47.0090   34.2610   40.5390 C   0  0  0  0  0  0  0  0  0  0  0  0
   47.1120   34.7460   43.8090 H   0  0  0  0  0  0  0  0  0  0  0  0
   49.2600   35.6830   43.2970 H   0  0  0  0  0  0  0  0  0  0  0  0
   50.0570   35.7480   41.0190 H   0  0  0  0  0  0  0  0  0  0  0  0
   48.7090   34.8780   39.2350 H   0  0  0  0  0  0  0  0  0  0  0  0
   46.8530   32.5300   38.8860 C   0  0  0  0  0  0  0  0  0  0  0  0
   47.6580   32.1220   39.7260 O   0  0  0  0  0  0  0  0  0  0  0  0
   46.3890   33.8230   39.3150 N   0  0  0  0  0  0  0  0  0  0  0  0
   46.4270   32.1760   37.9500 H   0  0  0  0  0  0  0  0  0  0  0  0
   45.6720   34.4430   38.8330 H   0  0  0  0  0  0  0  0  0  0  0  0
   47.2240   30.8070   47.0430 C   0  0  0  0  0  2  0  0  0  0  0  0
   47.8890   29.5510   47.4180 C   0  0  0  0  0  0  0  0  0  0  0  0
   48.9230   29.4880   48.2390 C   0  0  0  0  0  0  0  0  0  0  0  0
   49.4840   28.2170   48.5370 N   0  0  0  0  0  0  0  0  0  0  0  0
   50.6540   27.4760   48.8060 C   0  0  0  0  0  0  0  0  0  0  0  0
   51.8850   27.6610   49.0110 O   0  0  0  0  0  0  0  0  0  0  0  0
   49.9540   26.1720   48.7850 C   0  0  0  0  0  3  0  0  0  0  0  0
   50.2100   25.5570   47.8970 H   0  0  0  0  0  0  0  0  0  0  0  0
   48.7180   26.9940   48.6750 C   0  0  2  0  0  3  0  0  0  0  0  0
   47.8280   26.8120   47.0890 S   0  0  0  0  0  0  0  0  0  0  0  0
   47.1850   28.4610   46.7040 C   0  0  0  0  0  3  0  0  0  0  0  0
   47.3160   28.6170   45.5940 H   0  0  0  0  0  0  0  0  0  0  0  0
   49.5250   30.6560   48.8670 C   0  0  0  0  0  0  0  0  0  0  0  0
   49.1530   31.7150   49.4170 O   0  0  0  0  0  0  0  0  0  0  0  0
   50.8830   30.8350   48.9880 O   0  0  0  0  0  0  0  0  0  0  0  0
   51.4240   31.6590   48.7580 H   0  0  0  0  0  0  0  0  0  0  0  0
  1  6  1  0  0  0  0
  2  3  1  0  0  0  0
  2  1  2  0  0  0  0
  3  4  2  0  0  0  0
  4  5  1  0  0  0  0
  5 31  1  0  0  0  0
  6  5  2  0  0  0  0
  7  2  1  0  0  0  0
  8  3  1  0  0  0  0
  9 12  1  6  0  0  0
  9 10  1  0  0  0  0
  9  1  1  0  0  0  0
 10 13  1  0  0  0  0
 10 14  1  0  0  0  0
 11 15  1  6  0  0  0
 11  9  1  0  0  0  0
 11 10  1  0  0  0  0
 16 11  1  0  0  0  0
 16 17  1  0  0  0  0
 17 22  1  0  0  0  0
 18 17  2  0  0  0  0
 18 23  1  0  0  0  0
 19 18  1  0  0  0  0
 20 21  1  0  0  0  0
 20 19  2  0  0  0  0
 21 16  2  0  0  0  0
 24 19  1  0  0  0  0
 25 20  1  0  0  0  0
 26 28  1  0  0  0  0
 26 27  2  0  0  0  0
 28 21  1  0  0  0  0
 29 26  1  0  0  0  0
 30 28  1  0  0  0  0
 31 32  1  0  0  0  0
 32 33  2  0  0  0  0
 33 34  1  0  0  0  0
 33 43  1  0  0  0  0
 34 39  1  0  0  0  0
 34 35  1  0  0  0  0
 35 36  2  0  0  0  0
 37 35  1  0  0  0  0
 38 37  1  0  0  0  0
 39 40  1  6  0  0  0
 39 37  1  0  0  0  0
 41 40  1  0  0  0  0
 41 32  1  0  0  0  0
 42 41  1  0  0  0  0
 43 45  1  0  0  0  0
 43 44  2  0  0  0  0
 46 45  1  0  0  0  0
M  END
>  <minimizedAffinity>
-4.95839882

>  <minimizedRMSD>
2.4688375

$$$$
