
 OpenBabel03242510083D

 35 38  0  0  1  0  0  0  0  0999 V2000
   44.6510   32.8320   41.4450 Br  0  0  0  0  0  0  0  0  0  0  0  0
   46.2640   33.7960   41.1120 C   0  0  0  0  0  0  0  0  0  0  0  0
   46.7830   34.6450   42.0750 C   0  0  0  0  0  0  0  0  0  0  0  0
   47.9510   35.3670   41.8530 C   0  0  0  0  0  0  0  0  0  0  0  0
   48.5700   35.2080   40.6430 C   0  0  0  0  0  0  0  0  0  0  0  0
   48.0250   34.3570   39.7090 C   0  0  0  0  0  0  0  0  0  0  0  0
   46.8920   33.6450   39.9060 C   0  0  0  0  0  0  0  0  0  0  0  0
   48.3420   36.0290   42.6260 H   0  0  0  0  0  0  0  0  0  0  0  0
   49.4920   35.7730   40.4530 H   0  0  0  0  0  0  0  0  0  0  0  0
   48.5830   34.3080   38.7900 H   0  0  0  0  0  0  0  0  0  0  0  0
   45.6530   33.9750   45.4850 C   0  0  0  0  0  0  0  0  0  0  0  0
   44.7200   34.9930   45.7480 C   0  0  0  0  0  0  0  0  0  0  0  0
   44.4940   35.9080   44.7240 C   0  0  0  0  0  0  0  0  0  0  0  0
   45.1740   35.7630   43.5610 N   0  0  0  0  0  0  0  0  0  0  0  0
   46.0690   34.7640   43.3490 C   0  0  0  0  0  0  0  0  0  0  0  0
   46.3030   33.8680   44.3250 N   0  0  0  0  0  0  0  0  0  0  0  0
   45.7700   33.3060   46.3320 H   0  0  0  0  0  0  0  0  0  0  0  0
   44.1640   35.1480   46.6400 H   0  0  0  0  0  0  0  0  0  0  0  0
   43.8130   36.7630   44.7350 H   0  0  0  0  0  0  0  0  0  0  0  0
   46.3140   32.7370   38.8770 C   0  0  0  0  0  2  0  0  0  0  0  0
   47.2940   32.0900   38.0070 C   0  0  0  0  0  0  0  0  0  0  0  0
   47.0800   32.0910   36.7160 C   0  0  0  0  0  0  0  0  0  0  0  0
   48.0310   31.4720   35.8590 N   0  0  0  0  0  0  0  0  0  0  0  0
   48.2550   30.6020   34.7280 C   0  0  0  0  0  0  0  0  0  0  0  0
   47.5610   30.1580   33.7500 O   0  0  0  0  0  0  0  0  0  0  0  0
   49.6750   30.4030   35.1480 C   0  0  0  0  0  3  0  0  0  0  0  0
   50.3340   30.5830   34.2590 H   0  0  0  0  0  0  0  0  0  0  0  0
   49.4820   31.6480   35.9850 C   0  0  2  0  0  3  0  0  0  0  0  0
   49.9110   31.5560   37.7070 S   0  0  0  0  0  0  0  0  0  0  0  0
   48.4270   31.4640   38.7180 C   0  0  0  0  0  3  0  0  0  0  0  0
   48.1910   30.4070   39.0170 H   0  0  0  0  0  0  0  0  0  0  0  0
   45.9230   32.6930   36.0480 C   0  0  0  0  0  0  0  0  0  0  0  0
   45.3520   32.2850   35.0110 O   0  0  0  0  0  0  0  0  0  0  0  0
   45.0050   33.7020   36.0550 O   0  0  0  0  0  0  0  0  0  0  0  0
   44.1650   33.6660   36.6490 H   0  0  0  0  0  0  0  0  0  0  0  0
  2  1  1  0  0  0  0
  2  3  1  0  0  0  0
  3 15  1  0  0  0  0
  4  3  2  0  0  0  0
  4  8  1  0  0  0  0
  5  4  1  0  0  0  0
  6  7  1  0  0  0  0
  6  5  2  0  0  0  0
  7  2  2  0  0  0  0
  9  5  1  0  0  0  0
 10  6  1  0  0  0  0
 11 12  1  0  0  0  0
 11 17  1  0  0  0  0
 12 18  1  0  0  0  0
 13 19  1  0  0  0  0
 13 12  2  0  0  0  0
 14 13  1  0  0  0  0
 15 14  2  0  0  0  0
 15 16  1  0  0  0  0
 16 11  2  0  0  0  0
 20  7  1  0  0  0  0
 21 30  1  0  0  0  0
 21 20  1  0  0  0  0
 22 21  2  0  0  0  0
 23 28  1  0  0  0  0
 23 22  1  0  0  0  0
 24 26  1  0  0  0  0
 24 23  1  0  0  0  0
 25 24  2  0  0  0  0
 27 26  1  0  0  0  0
 28 26  1  6  0  0  0
 28 29  1  0  0  0  0
 29 30  1  0  0  0  0
 30 31  1  0  0  0  0
 32 34  1  0  0  0  0
 32 22  1  0  0  0  0
 33 32  2  0  0  0  0
 34 35  1  0  0  0  0
M  END
>  <minimizedAffinity>
-6.21586275

>  <minimizedRMSD>
1.66257215

$$$$
