
 OpenBabel03242510293D

 41 45  0  0  1  0  0  0  0  0999 V2000
   46.9030   33.0550   42.5730 C   0  0  1  0  0  0  0  0  0  0  0  0
   46.9130   34.3530   43.3320 C   0  0  0  0  0  0  0  0  0  0  0  0
   46.9910   35.4320   42.2580 C   0  0  0  0  0  0  0  0  0  0  0  0
   48.3900   35.3480   41.6860 C   0  0  0  0  0  0  0  0  0  0  0  0
   48.7540   34.0060   41.1740 C   0  0  0  0  0  0  0  0  0  0  0  0
   48.2650   32.8450   41.9370 C   0  0  2  0  0  0  0  0  0  0  0  0
   46.1570   33.1160   41.7850 H   0  0  0  0  0  0  0  0  0  0  0  0
   47.8240   34.3940   43.9910 H   0  0  0  0  0  0  0  0  0  0  0  0
   45.9720   34.5250   43.8700 H   0  0  0  0  0  0  0  0  0  0  0  0
   46.8190   36.4290   42.6550 H   0  0  0  0  0  0  0  0  0  0  0  0
   46.2430   35.1280   41.4790 H   0  0  0  0  0  0  0  0  0  0  0  0
   49.0710   35.5640   42.5610 H   0  0  0  0  0  0  0  0  0  0  0  0
   48.6070   36.1220   40.9500 H   0  0  0  0  0  0  0  0  0  0  0  0
   48.3780   33.9290   40.1210 H   0  0  0  0  0  0  0  0  0  0  0  0
   49.8610   33.9740   41.1170 H   0  0  0  0  0  0  0  0  0  0  0  0
   48.9600   32.6400   42.7760 H   0  0  0  0  0  0  0  0  0  0  0  0
   47.0440   30.3890   45.2840 C   0  0  0  0  0  0  0  0  0  0  0  0
   47.4340   31.4990   44.5360 C   0  0  0  0  0  0  0  0  0  0  0  0
   46.6170   31.8970   43.4600 C   0  0  0  0  0  0  0  0  0  0  0  0
   45.5020   31.1550   43.2360 N   0  0  0  0  0  0  0  0  0  0  0  0
   45.1520   30.0960   43.9690 C   0  0  0  0  0  0  0  0  0  0  0  0
   45.9080   29.6980   44.9950 N   0  0  0  0  0  0  0  0  0  0  0  0
   47.7050   30.1290   46.0970 H   0  0  0  0  0  0  0  0  0  0  0  0
   48.3030   32.0860   44.7020 H   0  0  0  0  0  0  0  0  0  0  0  0
   44.2400   29.6100   43.6680 H   0  0  0  0  0  0  0  0  0  0  0  0
   48.1460   31.5940   41.0550 C   0  0  0  0  0  0  0  0  0  0  0  0
   48.3380   31.8780   39.6210 C   0  0  0  0  0  0  0  0  0  0  0  0
   47.3850   32.2710   38.7960 C   0  0  0  0  0  0  0  0  0  0  0  0
   47.7100   32.5160   37.4390 N   0  0  0  0  0  0  0  0  0  0  0  0
   47.3210   32.5300   36.0760 C   0  0  2  0  0  0  0  0  0  0  0  0
   46.2190   32.4460   35.4710 O   0  0  0  0  0  0  0  0  0  0  0  0
   48.6810   32.6810   35.5550 C   0  0  0  0  0  0  0  0  0  0  0  0
   49.0300   31.7130   35.1570 H   0  0  0  0  0  0  0  0  0  0  0  0
   48.9970   32.9790   37.0010 C   0  0  1  0  0  0  0  0  0  0  0  0
   50.1950   31.7220   37.5780 S   0  0  0  0  0  0  0  0  0  0  0  0
   49.7720   31.6370   39.3150 C   0  0  0  0  0  0  0  0  0  0  0  0
   50.4410   32.3920   39.8250 H   0  0  0  0  0  0  0  0  0  0  0  0
   46.0040   32.4730   39.2180 C   0  0  0  0  0  0  0  0  0  0  0  0
   45.0130   31.7630   39.4990 O   0  0  0  0  0  0  0  0  0  0  0  0
   45.4620   33.7230   39.4130 O   0  0  0  0  0  0  0  0  0  0  0  0
   44.5650   34.0620   39.0910 H   0  0  0  0  0  0  0  0  0  0  0  0
  1  7  1  6  0  0  0
  1  2  1  0  0  0  0
  1 19  1  0  0  0  0
  2  9  1  0  0  0  0
  2  8  1  0  0  0  0
  3 10  1  0  0  0  0
  3  2  1  0  0  0  0
  4  3  1  0  0  0  0
  4 12  1  0  0  0  0
  5  4  1  0  0  0  0
  5  6  1  0  0  0  0
  6  1  1  0  0  0  0
  6 16  1  1  0  0  0
 11  3  1  0  0  0  0
 13  4  1  0  0  0  0
 14  5  1  0  0  0  0
 15  5  1  0  0  0  0
 17 23  1  0  0  0  0
 18 24  1  0  0  0  0
 18 17  2  0  0  0  0
 19 18  1  0  0  0  0
 20 19  2  0  0  0  0
 20 21  1  0  0  0  0
 21 22  2  0  0  0  0
 22 17  1  0  0  0  0
 25 21  1  0  0  0  0
 26  6  1  0  0  0  0
 27 26  1  0  0  0  0
 28 38  1  0  0  0  0
 28 27  2  0  0  0  0
 29 28  1  0  0  0  0
 30 31  1  6  0  0  0
 30 34  1  0  0  0  0
 30 29  1  0  0  0  0
 32 30  1  0  0  0  0
 33 32  1  0  0  0  0
 34 32  1  1  0  0  0
 34 29  1  0  0  0  0
 34 35  1  0  0  0  0
 35 36  1  0  0  0  0
 36 27  1  0  0  0  0
 36 37  1  0  0  0  0
 38 40  1  0  0  0  0
 38 39  2  0  0  0  0
 41 40  1  0  0  0  0
M  END
>  <minimizedAffinity>
-4.36348248

>  <minimizedRMSD>
5.95791721

$$$$
