
 OpenBabel03242520453D

 29 31  0  0  1  0  0  0  0  0999 V2000
   46.5230   30.6730   38.3880 C   0  0  0  0  0  0  0  0  0  0  0  0
   46.4960   31.9820   38.2060 C   0  0  0  0  0  0  0  0  0  0  0  0
   47.0240   32.8270   39.2200 N   0  0  0  0  0  0  0  0  0  0  0  0
   47.8950   33.9390   39.5500 C   0  0  0  0  0  0  0  0  0  0  0  0
   48.3920   34.9140   38.8870 O   0  0  0  0  0  0  0  0  0  0  0  0
   47.9600   33.4630   40.9820 C   0  0  2  0  0  3  0  0  0  0  0  0
   46.6850   32.7190   40.6480 C   0  0  2  0  0  3  0  0  0  0  0  0
   46.6720   30.9630   41.0600 S   0  0  0  0  0  0  0  0  0  0  0  0
   47.0890   30.0160   39.5770 C   0  0  0  0  0  3  0  0  0  0  0  0
   46.7400   28.9660   39.6410 H   0  0  0  0  0  0  0  0  0  0  0  0
   47.8000   34.5990   41.9460 C   0  0  0  0  0  0  0  0  0  0  0  0
   48.4450   35.6400   41.6800 O   0  0  0  0  0  0  0  0  0  0  0  0
   44.9010   35.1340   44.1880 C   0  0  0  0  0  0  0  0  0  0  0  0
   45.7760   35.2400   43.0830 C   0  0  0  0  0  0  0  0  0  0  0  0
   46.9480   34.4550   43.0870 C   0  0  0  0  0  0  0  0  0  0  0  0
   47.1580   33.6440   44.1580 N   0  0  0  0  0  0  0  0  0  0  0  0
   46.2920   33.5760   45.1930 C   0  0  0  0  0  0  0  0  0  0  0  0
   45.1860   34.3180   45.1890 N   0  0  0  0  0  0  0  0  0  0  0  0
   43.7220   35.9170   44.1980 N   0  0  0  0  0  0  0  0  0  0  0  0
   45.5250   35.9160   42.2720 H   0  0  0  0  0  0  0  0  0  0  0  0
   46.5110   32.9120   46.0210 H   0  0  0  0  0  0  0  0  0  0  0  0
   44.0090   36.9230   44.3740 H   0  0  0  0  0  0  0  0  0  0  0  0
   42.7220   35.5990   44.0590 H   0  0  0  0  0  0  0  0  0  0  0  0
   45.9600   29.8450   37.3260 C   0  0  0  0  0  2  0  0  0  0  0  0
   44.8870   30.0660   37.1500 H   0  0  0  0  0  0  0  0  0  0  0  0
   45.9360   32.6000   37.0090 C   0  0  0  0  0  0  0  0  0  0  0  0
   46.4780   32.7740   35.9040 O   0  0  0  0  0  0  0  0  0  0  0  0
   44.6720   33.1320   36.8280 O   0  0  0  0  0  0  0  0  0  0  0  0
   44.4830   34.0870   36.5650 H   0  0  0  0  0  0  0  0  0  0  0  0
  1  9  1  0  0  0  0
  2  1  2  0  0  0  0
  2  3  1  0  0  0  0
  3  4  1  0  0  0  0
  3  7  1  0  0  0  0
  4  6  1  0  0  0  0
  5  4  2  0  0  0  0
  6 11  1  1  0  0  0
  7  6  1  0  0  0  0
  7  8  1  1  0  0  0
  9 10  1  0  0  0  0
  9  8  1  0  0  0  0
 11 15  1  0  0  0  0
 12 11  2  0  0  0  0
 13 19  1  0  0  0  0
 13 18  1  0  0  0  0
 14 15  1  0  0  0  0
 14 13  2  0  0  0  0
 15 16  2  0  0  0  0
 16 17  1  0  0  0  0
 17 21  1  0  0  0  0
 18 17  2  0  0  0  0
 19 22  1  0  0  0  0
 20 14  1  0  0  0  0
 23 19  1  0  0  0  0
 24  1  1  0  0  0  0
 25 24  1  0  0  0  0
 26  2  1  0  0  0  0
 27 26  2  0  0  0  0
 28 26  1  0  0  0  0
 29 28  1  0  0  0  0
M  END
>  <minimizedAffinity>
-5.14824295

>  <minimizedRMSD>
1.98442507

$$$$
