
 OpenBabel03242520453D

 29 31  0  0  1  0  0  0  0  0999 V2000
   48.9530   31.6030   37.3190 C   0  0  0  0  0  0  0  0  0  0  0  0
   49.7300   31.9320   38.3370 C   0  0  0  0  0  0  0  0  0  0  0  0
   49.1450   32.5610   39.4710 N   0  0  0  0  0  0  0  0  0  0  0  0
   49.0090   32.5890   40.9140 C   0  0  0  0  0  0  0  0  0  0  0  0
   49.7040   32.1370   41.8880 O   0  0  0  0  0  0  0  0  0  0  0  0
   47.7200   33.3670   40.7750 C   0  0  2  0  0  0  0  0  0  0  0  0
   48.2440   33.7210   39.4000 C   0  0  2  0  0  0  0  0  0  0  0  0
   47.1050   33.4250   38.0320 S   0  0  0  0  0  0  0  0  0  0  0  0
   47.4990   31.8270   37.2830 C   0  0  0  0  0  0  0  0  0  0  0  0
   47.1210   31.7490   36.2450 H   0  0  0  0  0  0  0  0  0  0  0  0
   47.6620   34.5060   41.7460 C   0  0  0  0  0  0  0  0  0  0  0  0
   48.3160   35.5280   41.4340 O   0  0  0  0  0  0  0  0  0  0  0  0
   44.9190   35.0870   44.1660 C   0  0  0  0  0  0  0  0  0  0  0  0
   45.7170   35.1700   43.0030 C   0  0  0  0  0  0  0  0  0  0  0  0
   46.8880   34.3860   42.9450 C   0  0  0  0  0  0  0  0  0  0  0  0
   47.1720   33.6000   44.0170 N   0  0  0  0  0  0  0  0  0  0  0  0
   46.3780   33.5530   45.1100 C   0  0  0  0  0  0  0  0  0  0  0  0
   45.2720   34.2940   45.1630 N   0  0  0  0  0  0  0  0  0  0  0  0
   43.7410   35.8690   44.2380 N   0  0  0  0  0  0  0  0  0  0  0  0
   45.4100   35.8270   42.1960 H   0  0  0  0  0  0  0  0  0  0  0  0
   46.6540   32.9080   45.9350 H   0  0  0  0  0  0  0  0  0  0  0  0
   44.0370   36.8790   44.3720 H   0  0  0  0  0  0  0  0  0  0  0  0
   42.7350   35.5460   44.1750 H   0  0  0  0  0  0  0  0  0  0  0  0
   49.5960   30.9680   36.1710 C   0  0  0  0  0  0  0  0  0  0  0  0
   50.3690   31.6200   35.7150 H   0  0  0  0  0  0  0  0  0  0  0  0
   51.1670   31.6830   38.3430 C   0  0  0  0  0  0  0  0  0  0  0  0
   51.7850   30.7360   38.8620 O   0  0  0  0  0  0  0  0  0  0  0  0
   52.1730   32.4430   37.7740 O   0  0  0  0  0  0  0  0  0  0  0  0
   52.9440   32.8480   38.2810 H   0  0  0  0  0  0  0  0  0  0  0  0
  1  2  2  0  0  0  0
  2 26  1  0  0  0  0
  2  3  1  0  0  0  0
  3  4  1  0  0  0  0
  4  5  2  0  0  0  0
  6  4  1  0  0  0  0
  6 11  1  1  0  0  0
  7  8  1  6  0  0  0
  7  3  1  0  0  0  0
  7  6  1  0  0  0  0
  9  1  1  0  0  0  0
  9  8  1  0  0  0  0
 10  9  1  0  0  0  0
 11 15  1  0  0  0  0
 12 11  2  0  0  0  0
 13 19  1  0  0  0  0
 13 18  1  0  0  0  0
 14 13  2  0  0  0  0
 15 14  1  0  0  0  0
 15 16  2  0  0  0  0
 16 17  1  0  0  0  0
 17 18  2  0  0  0  0
 17 21  1  0  0  0  0
 19 22  1  0  0  0  0
 20 14  1  0  0  0  0
 23 19  1  0  0  0  0
 24  1  1  0  0  0  0
 25 24  1  0  0  0  0
 26 27  2  0  0  0  0
 28 29  1  0  0  0  0
 28 26  1  0  0  0  0
M  END
>  <minimizedAffinity>
-5.7322011

>  <minimizedRMSD>
1.22633219

$$$$
