
 OpenBabel03252503353D

 29 31  0  0  1  0  0  0  0  0999 V2000
   47.2700   31.0010   37.0760 C   0  0  0  0  0  0  0  0  0  0  0  0
   48.3680   31.3660   37.7160 C   0  0  0  0  0  0  0  0  0  0  0  0
   48.3520   32.4680   38.6110 N   0  0  0  0  0  0  0  0  0  0  0  0
   48.7990   33.0650   39.8060 C   0  0  0  0  0  0  0  0  0  0  0  0
   49.6520   32.7860   40.7120 O   0  0  0  0  0  0  0  0  0  0  0  0
   47.8930   34.2370   39.6910 C   0  0  1  0  0  3  0  0  0  0  0  0
   47.5530   33.6580   38.3650 C   0  0  2  0  0  3  0  0  0  0  0  0
   45.8460   33.0860   38.1770 S   0  0  0  0  0  0  0  0  0  0  0  0
   45.9220   31.6090   37.1650 C   0  0  0  0  0  3  0  0  0  0  0  0
   45.1840   30.8300   37.4830 H   0  0  0  0  0  0  0  0  0  0  0  0
   46.8710   34.2200   40.7370 C   0  0  0  0  0  0  0  0  0  0  0  0
   45.7160   33.7260   40.7540 O   0  0  0  0  0  0  0  0  0  0  0  0
   47.2510   34.8780   41.9500 N   0  0  0  0  0  0  0  0  0  0  0  0
   48.1780   35.3360   42.1230 H   0  0  0  0  0  0  0  0  0  0  0  0
   44.6020   36.0360   44.2810 C   0  0  0  0  0  0  0  0  0  0  0  0
   45.4480   36.0040   43.1620 C   0  0  0  0  0  0  0  0  0  0  0  0
   46.3670   34.9670   43.0600 C   0  0  0  0  0  0  0  0  0  0  0  0
   46.4200   34.0330   44.0260 N   0  0  0  0  0  0  0  0  0  0  0  0
   45.5870   34.0820   45.1100 C   0  0  0  0  0  0  0  0  0  0  0  0
   44.6940   35.0840   45.2170 N   0  0  0  0  0  0  0  0  0  0  0  0
   43.9210   36.8810   44.2720 H   0  0  0  0  0  0  0  0  0  0  0  0
   45.4420   36.7320   42.3600 H   0  0  0  0  0  0  0  0  0  0  0  0
   45.6400   33.3110   45.8950 H   0  0  0  0  0  0  0  0  0  0  0  0
   47.4290   29.8370   36.1690 C   0  0  0  0  0  2  0  0  0  0  0  0
   48.2070   30.1540   35.4130 H   0  0  0  0  0  0  0  0  0  0  0  0
   49.6370   30.6630   37.5300 C   0  0  0  0  0  0  0  0  0  0  0  0
   50.5450   31.0700   36.7620 O   0  0  0  0  0  0  0  0  0  0  0  0
   50.1650   29.5010   38.0610 O   0  0  0  0  0  0  0  0  0  0  0  0
   50.9700   29.5770   38.6630 H   0  0  0  0  0  0  0  0  0  0  0  0
  1  9  1  0  0  0  0
  1  2  2  0  0  0  0
  2  3  1  0  0  0  0
  3  4  1  0  0  0  0
  4  5  2  0  0  0  0
  6  4  1  0  0  0  0
  6 11  1  1  0  0  0
  7  8  1  1  0  0  0
  7  3  1  0  0  0  0
  7  6  1  0  0  0  0
  9 10  1  0  0  0  0
  9  8  1  0  0  0  0
 11 12  2  0  0  0  0
 11 13  1  0  0  0  0
 13 14  1  0  0  0  0
 13 17  1  0  0  0  0
 15 20  1  0  0  0  0
 16 15  2  0  0  0  0
 17 16  1  0  0  0  0
 17 18  2  0  0  0  0
 18 19  1  0  0  0  0
 19 20  2  0  0  0  0
 19 23  1  0  0  0  0
 21 15  1  0  0  0  0
 22 16  1  0  0  0  0
 24  1  1  0  0  0  0
 25 24  1  0  0  0  0
 26  2  1  0  0  0  0
 26 28  1  0  0  0  0
 27 26  2  0  0  0  0
 28 29  1  0  0  0  0
M  END
>  <minimizedAffinity>
-4.65967846

>  <minimizedRMSD>
0.648047209

$$$$
