
 OpenBabel03242515023D

 44 48  0  0  1  0  0  0  0  0999 V2000
   37.2650   28.3080   40.0630 C   0  0  0  0  0  0  0  0  0  0  0  0
   35.8910   28.5200   40.1950 C   0  0  0  0  0  0  0  0  0  0  0  0
   35.4490   29.8050   40.5390 C   0  0  0  0  0  0  0  0  0  0  0  0
   36.3860   30.7800   40.7270 N   0  0  0  0  0  0  0  0  0  0  0  0
   37.7040   30.5500   40.5940 C   0  0  0  0  0  0  0  0  0  0  0  0
   38.1200   29.3220   40.2660 N   0  0  0  0  0  0  0  0  0  0  0  0
   35.1620   27.7460   40.0450 H   0  0  0  0  0  0  0  0  0  0  0  0
   34.3850   30.0030   40.6480 H   0  0  0  0  0  0  0  0  0  0  0  0
   38.6180   31.6540   40.8140 C   0  0  0  0  0  0  0  0  0  0  0  0
   39.3500   31.6120   41.8320 O   0  0  0  0  0  0  0  0  0  0  0  0
   42.8130   32.4250   39.5740 C   0  0  0  0  0  0  0  0  0  0  0  0
   41.9970   33.1390   40.2870 C   0  0  0  0  0  0  0  0  0  0  0  0
   40.6140   33.3840   40.0990 N   0  0  0  0  0  0  0  0  0  0  0  0
   39.3980   33.9590   40.4600 C   0  0  2  0  0  0  0  0  0  0  0  0
   39.0750   35.0340   41.0510 O   0  0  0  0  0  1  0  0  0  0  0  0
   38.6860   32.7980   39.8680 C   0  0  1  0  0  3  0  0  0  0  0  0
   39.9070   32.8190   38.9840 C   0  0  2  0  0  0  0  0  0  0  0  0
   40.6040   31.2260   38.5700 S   0  0  0  0  0  0  0  0  0  0  0  0
   42.3630   31.7190   38.3790 C   0  0  0  0  0  3  0  0  0  0  0  0
   42.4820   32.3950   37.5020 H   0  0  0  0  0  0  0  0  0  0  0  0
   44.1880   32.3970   40.0710 C   0  0  0  0  0  2  0  0  0  0  0  0
   44.5830   33.4170   40.3100 H   0  0  0  0  0  0  0  0  0  0  0  0
   42.5710   33.7910   41.4540 C   0  0  0  0  0  0  0  0  0  0  0  0
   42.6970   35.0420   41.6060 O   0  0  0  0  0  0  0  0  0  0  0  0
   43.1480   34.1690   42.6510 O   0  0  0  0  0  0  0  0  0  0  0  0
   43.4600   33.5250   43.3800 H   0  0  0  0  0  0  0  0  0  0  0  0
   37.7740   26.6500   39.6250 S   0  0  0  0  0  0  0  0  0  0  0  0
   37.0890   25.4030   40.7120 C   0  0  0  0  0  0  0  0  0  0  0  0
   36.0960   25.0290   40.3850 H   0  0  0  0  0  0  0  0  0  0  0  0
   37.7560   24.4960   40.6340 H   0  0  0  0  0  0  0  0  0  0  0  0
   37.0940   25.7940   42.1580 C   0  0  0  0  0  0  0  0  0  0  0  0
   36.6160   26.7750   42.3480 H   0  0  0  0  0  0  0  0  0  0  0  0
   36.5450   25.0150   42.7260 H   0  0  0  0  0  0  0  0  0  0  0  0
   37.7740   28.3480   43.6530 Cl  0  0  0  0  0  0  0  0  0  0  0  0
   38.8880   27.0310   43.3870 C   0  0  0  0  0  0  0  0  0  0  0  0
   38.4710   25.8880   42.6790 C   0  0  0  0  0  0  0  0  0  0  0  0
   39.4060   24.9050   42.5170 C   0  0  0  0  0  0  0  0  0  0  0  0
   40.7180   24.9220   42.9780 C   0  0  0  0  0  0  0  0  0  0  0  0
   41.0980   26.0630   43.6720 C   0  0  0  0  0  0  0  0  0  0  0  0
   42.7420   26.1790   44.2950 Cl  0  0  0  0  0  0  0  0  0  0  0  0
   40.1950   27.0880   43.8670 C   0  0  0  0  0  0  0  0  0  0  0  0
   39.1210   24.0120   41.9770 H   0  0  0  0  0  0  0  0  0  0  0  0
   41.3830   24.0850   42.7940 H   0  0  0  0  0  0  0  0  0  0  0  0
   40.5190   27.9650   44.4120 H   0  0  0  0  0  0  0  0  0  0  0  0
  1  2  2  0  0  0  0
  1  6  1  0  0  0  0
  2  3  1  0  0  0  0
  3  8  1  0  0  0  0
  3  4  2  0  0  0  0
  5  4  1  0  0  0  0
  5  9  1  0  0  0  0
  6  5  2  0  0  0  0
  7  2  1  0  0  0  0
  9 10  2  0  0  0  0
 11 21  1  0  0  0  0
 11 12  2  0  0  0  0
 12 23  1  0  0  0  0
 13 12  1  0  0  0  0
 13 14  1  0  0  0  0
 14 15  1  6  0  0  0
 16 14  1  0  0  0  0
 16  9  1  1  0  0  0
 17 18  1  6  0  0  0
 17 16  1  0  0  0  0
 17 13  1  0  0  0  0
 17 14  1  0  0  0  0
 19 18  1  0  0  0  0
 19 11  1  0  0  0  0
 20 19  1  0  0  0  0
 21 22  1  0  0  0  0
 23 24  2  0  0  0  0
 23 25  1  0  0  0  0
 25 26  1  0  0  0  0
 27  1  1  0  0  0  0
 27 28  1  0  0  0  0
 28 31  1  0  0  0  0
 29 28  1  0  0  0  0
 30 28  1  0  0  0  0
 31 32  1  0  0  0  0
 31 36  1  0  0  0  0
 31 33  1  0  0  0  0
 35 34  1  0  0  0  0
 35 41  1  0  0  0  0
 36 35  2  0  0  0  0
 37 36  1  0  0  0  0
 37 38  2  0  0  0  0
 38 39  1  0  0  0  0
 39 41  2  0  0  0  0
 39 40  1  0  0  0  0
 41 44  1  0  0  0  0
 42 37  1  0  0  0  0
 43 38  1  0  0  0  0
M  END
>  <minimizedAffinity>
-6.63659334

$$$$

 OpenBabel03242515023D

 44 48  0  0  1  0  0  0  0  0999 V2000
   38.8340   33.0130   39.5860 C   0  0  0  0  0  0  0  0  0  0  0  0
   38.4130   34.0940   40.3620 C   0  0  0  0  0  0  0  0  0  0  0  0
   39.2920   35.1720   40.5320 C   0  0  0  0  0  0  0  0  0  0  0  0
   40.5160   35.1060   39.9280 N   0  0  0  0  0  0  0  0  0  0  0  0
   40.8980   34.0520   39.1840 C   0  0  0  0  0  0  0  0  0  0  0  0
   40.0540   33.0270   39.0270 N   0  0  0  0  0  0  0  0  0  0  0  0
   37.4480   34.1350   40.8330 H   0  0  0  0  0  0  0  0  0  0  0  0
   38.9930   36.0290   41.1290 H   0  0  0  0  0  0  0  0  0  0  0  0
   42.2170   34.0800   38.5840 C   0  0  0  0  0  0  0  0  0  0  0  0
   42.2900   34.2400   37.3420 O   0  0  0  0  0  0  0  0  0  0  0  0
   42.3840   30.0330   40.4060 C   0  0  0  0  0  0  0  0  0  0  0  0
   42.2370   31.2000   40.9530 C   0  0  0  0  0  0  0  0  0  0  0  0
   42.8900   32.4230   40.6560 N   0  0  0  0  0  0  0  0  0  0  0  0
   43.1220   33.7820   40.8510 C   0  0  2  0  0  0  0  0  0  0  0  0
   43.0690   34.5460   41.8620 O   0  0  0  0  0  1  0  0  0  0  0  0
   43.4430   33.9230   39.4080 C   0  0  1  0  0  3  0  0  0  0  0  0
   43.8850   32.4980   39.6240 C   0  0  2  0  0  0  0  0  0  0  0  0
   43.4900   31.3470   38.3150 S   0  0  0  0  0  0  0  0  0  0  0  0
   43.3280   29.8150   39.3140 C   0  0  0  0  0  3  0  0  0  0  0  0
   44.3120   29.5310   39.7490 H   0  0  0  0  0  0  0  0  0  0  0  0
   41.5350   28.9860   40.9740 C   0  0  0  0  0  2  0  0  0  0  0  0
   41.5690   28.9600   42.0920 H   0  0  0  0  0  0  0  0  0  0  0  0
   41.2630   31.2840   42.0300 C   0  0  0  0  0  0  0  0  0  0  0  0
   41.5410   31.3890   43.2610 O   0  0  0  0  0  0  0  0  0  0  0  0
   40.1630   31.3450   42.8640 O   0  0  0  0  0  0  0  0  0  0  0  0
   39.1910   31.3120   42.5540 H   0  0  0  0  0  0  0  0  0  0  0  0
   37.6730   31.6630   39.4050 S   0  0  0  0  0  0  0  0  0  0  0  0
   37.2610   30.8890   40.9660 C   0  0  0  0  0  0  0  0  0  0  0  0
   38.1240   30.3900   41.4540 H   0  0  0  0  0  0  0  0  0  0  0  0
   36.9920   31.7190   41.6840 H   0  0  0  0  0  0  0  0  0  0  0  0
   36.0600   29.9980   40.9000 C   0  0  0  0  0  0  0  0  0  0  0  0
   35.2770   30.2630   41.6380 H   0  0  0  0  0  0  0  0  0  0  0  0
   35.6290   30.0770   39.8810 H   0  0  0  0  0  0  0  0  0  0  0  0
   36.1280   28.1770   38.4700 Cl  0  0  0  0  0  0  0  0  0  0  0  0
   36.4840   27.6650   40.1010 C   0  0  0  0  0  0  0  0  0  0  0  0
   36.4240   28.5920   41.1590 C   0  0  0  0  0  0  0  0  0  0  0  0
   36.7180   28.1070   42.4020 C   0  0  0  0  0  0  0  0  0  0  0  0
   37.0690   26.8010   42.7220 C   0  0  0  0  0  0  0  0  0  0  0  0
   37.1190   25.9120   41.6570 C   0  0  0  0  0  0  0  0  0  0  0  0
   37.5540   24.2310   41.9630 Cl  0  0  0  0  0  0  0  0  0  0  0  0
   36.8320   26.3450   40.3790 C   0  0  0  0  0  0  0  0  0  0  0  0
   36.6810   28.7920   43.2390 H   0  0  0  0  0  0  0  0  0  0  0  0
   37.2840   26.5180   43.7470 H   0  0  0  0  0  0  0  0  0  0  0  0
   36.8800   25.6310   39.5680 H   0  0  0  0  0  0  0  0  0  0  0  0
  1  2  1  0  0  0  0
  2  3  2  0  0  0  0
  2  7  1  0  0  0  0
  3  8  1  0  0  0  0
  4  3  1  0  0  0  0
  5  4  2  0  0  0  0
  6  5  1  0  0  0  0
  6  1  2  0  0  0  0
  9  5  1  0  0  0  0
 10  9  2  0  0  0  0
 11 12  2  0  0  0  0
 11 21  1  0  0  0  0
 12 23  1  0  0  0  0
 13 14  1  0  0  0  0
 13 12  1  0  0  0  0
 14 15  1  1  0  0  0
 16  9  1  6  0  0  0
 16 17  1  0  0  0  0
 16 14  1  0  0  0  0
 17 18  1  6  0  0  0
 17 13  1  0  0  0  0
 17 14  1  0  0  0  0
 18 19  1  0  0  0  0
 19 20  1  0  0  0  0
 19 11  1  0  0  0  0
 21 22  1  0  0  0  0
 23 25  1  0  0  0  0
 23 24  2  0  0  0  0
 26 25  1  0  0  0  0
 27  1  1  0  0  0  0
 27 28  1  0  0  0  0
 28 29  1  0  0  0  0
 28 30  1  0  0  0  0
 31 28  1  0  0  0  0
 31 36  1  0  0  0  0
 31 32  1  0  0  0  0
 33 31  1  0  0  0  0
 34 35  1  0  0  0  0
 35 41  2  0  0  0  0
 35 36  1  0  0  0  0
 36 37  2  0  0  0  0
 37 38  1  0  0  0  0
 37 42  1  0  0  0  0
 38 43  1  0  0  0  0
 39 40  1  0  0  0  0
 39 38  2  0  0  0  0
 41 39  1  0  0  0  0
 44 41  1  0  0  0  0
M  END
>  <minimizedAffinity>
-6.34391928

$$$$

 OpenBabel03242515023D

 44 48  0  0  1  0  0  0  0  0999 V2000
   38.0450   32.7070   40.0410 C   0  0  0  0  0  0  0  0  0  0  0  0
   37.5470   32.5440   38.7470 C   0  0  0  0  0  0  0  0  0  0  0  0
   36.9170   31.3340   38.4260 C   0  0  0  0  0  0  0  0  0  0  0  0
   36.8240   30.3790   39.3970 N   0  0  0  0  0  0  0  0  0  0  0  0
   37.3130   30.5600   40.6370 C   0  0  0  0  0  0  0  0  0  0  0  0
   37.9130   31.7170   40.9370 N   0  0  0  0  0  0  0  0  0  0  0  0
   37.6260   33.3020   37.9900 H   0  0  0  0  0  0  0  0  0  0  0  0
   36.5180   31.1770   37.4270 H   0  0  0  0  0  0  0  0  0  0  0  0
   37.1620   29.4840   41.5970 C   0  0  0  0  0  0  0  0  0  0  0  0
   36.2900   28.6120   41.3640 O   0  0  0  0  0  0  0  0  0  0  0  0
   40.1260   26.1920   41.2710 C   0  0  0  0  0  0  0  0  0  0  0  0
   39.1060   26.3360   42.0590 C   0  0  0  0  0  0  0  0  0  0  0  0
   38.6490   27.4910   42.7410 N   0  0  0  0  0  0  0  0  0  0  0  0
   37.7660   28.1650   43.5820 C   0  0  2  0  0  0  0  0  0  0  0  0
   37.0660   27.8170   44.5800 O   0  0  0  0  0  1  0  0  0  0  0  0
   38.0080   29.4140   42.8160 C   0  0  1  0  0  3  0  0  0  0  0  0
   39.3440   28.7420   42.6250 C   0  0  2  0  0  0  0  0  0  0  0  0
   40.0670   28.8840   40.9970 S   0  0  0  0  0  0  0  0  0  0  0  0
   41.0120   27.3090   40.9600 C   0  0  0  0  0  3  0  0  0  0  0  0
   41.8310   27.3320   41.7140 H   0  0  0  0  0  0  0  0  0  0  0  0
   40.2980   24.8410   40.7400 C   0  0  0  0  0  2  0  0  0  0  0  0
   40.2340   24.0520   41.5320 H   0  0  0  0  0  0  0  0  0  0  0  0
   38.3020   25.1440   42.2870 C   0  0  0  0  0  0  0  0  0  0  0  0
   37.0430   25.0780   42.1690 O   0  0  0  0  0  0  0  0  0  0  0  0
   37.7640   23.9010   42.5570 O   0  0  0  0  0  0  0  0  0  0  0  0
   38.3020   23.0770   42.8310 H   0  0  0  0  0  0  0  0  0  0  0  0
   38.8420   34.2690   40.3950 S   0  0  0  0  0  0  0  0  0  0  0  0
   40.5030   34.3660   39.7350 C   0  0  0  0  0  0  0  0  0  0  0  0
   40.5340   34.5370   38.6390 H   0  0  0  0  0  0  0  0  0  0  0  0
   40.9730   35.2990   40.1640 H   0  0  0  0  0  0  0  0  0  0  0  0
   41.3870   33.2320   40.1530 C   0  0  0  0  0  0  0  0  0  0  0  0
   42.2910   33.5600   40.7030 H   0  0  0  0  0  0  0  0  0  0  0  0
   40.7960   32.5590   40.8090 H   0  0  0  0  0  0  0  0  0  0  0  0
   44.1160   34.0120   39.0750 Cl  0  0  0  0  0  0  0  0  0  0  0  0
   43.1130   32.7500   38.4060 C   0  0  0  0  0  0  0  0  0  0  0  0
   41.8600   32.4670   38.9840 C   0  0  0  0  0  0  0  0  0  0  0  0
   41.1400   31.4640   38.3980 C   0  0  0  0  0  0  0  0  0  0  0  0
   41.5190   30.7020   37.2990 C   0  0  0  0  0  0  0  0  0  0  0  0
   42.7590   31.0060   36.7530 C   0  0  0  0  0  0  0  0  0  0  0  0
   43.3280   30.0940   35.3560 Cl  0  0  0  0  0  0  0  0  0  0  0  0
   43.5310   32.0090   37.3030 C   0  0  0  0  0  0  0  0  0  0  0  0
   40.1720   31.2190   38.8150 H   0  0  0  0  0  0  0  0  0  0  0  0
   40.8690   29.9250   36.9100 H   0  0  0  0  0  0  0  0  0  0  0  0
   44.4930   32.2230   36.8580 H   0  0  0  0  0  0  0  0  0  0  0  0
  1 27  1  0  0  0  0
  1  6  1  0  0  0  0
  2  1  2  0  0  0  0
  3  2  1  0  0  0  0
  3  4  2  0  0  0  0
  4  5  1  0  0  0  0
  5  6  2  0  0  0  0
  5  9  1  0  0  0  0
  7  2  1  0  0  0  0
  8  3  1  0  0  0  0
 10  9  2  0  0  0  0
 11 12  2  0  0  0  0
 12 23  1  0  0  0  0
 12 13  1  0  0  0  0
 13 14  1  0  0  0  0
 14 15  1  1  0  0  0
 16  9  1  6  0  0  0
 16 14  1  0  0  0  0
 17 18  1  1  0  0  0
 17 13  1  0  0  0  0
 17 16  1  0  0  0  0
 17 14  1  0  0  0  0
 19 18  1  0  0  0  0
 19 11  1  0  0  0  0
 19 20  1  0  0  0  0
 21 11  1  0  0  0  0
 21 22  1  0  0  0  0
 23 25  1  0  0  0  0
 24 23  2  0  0  0  0
 25 26  1  0  0  0  0
 28 31  1  0  0  0  0
 28 30  1  0  0  0  0
 28 27  1  0  0  0  0
 29 28  1  0  0  0  0
 31 32  1  0  0  0  0
 31 33  1  0  0  0  0
 35 36  1  0  0  0  0
 35 34  1  0  0  0  0
 36 31  1  0  0  0  0
 37 42  1  0  0  0  0
 37 36  2  0  0  0  0
 38 37  1  0  0  0  0
 39 38  2  0  0  0  0
 39 41  1  0  0  0  0
 40 39  1  0  0  0  0
 41 35  2  0  0  0  0
 43 38  1  0  0  0  0
 44 41  1  0  0  0  0
M  END
>  <minimizedAffinity>
-6.27470112

$$$$

 OpenBabel03242515023D

 44 48  0  0  1  0  0  0  0  0999 V2000
   41.2640   26.4060   40.5660 C   0  0  0  0  0  0  0  0  0  0  0  0
   41.1220   25.6650   39.3920 C   0  0  0  0  0  0  0  0  0  0  0  0
   40.4270   26.2450   38.3210 C   0  0  0  0  0  0  0  0  0  0  0  0
   39.9270   27.5050   38.4850 N   0  0  0  0  0  0  0  0  0  0  0  0
   40.0770   28.1980   39.6280 C   0  0  0  0  0  0  0  0  0  0  0  0
   40.7410   27.6390   40.6450 N   0  0  0  0  0  0  0  0  0  0  0  0
   41.5190   24.6740   39.2730 H   0  0  0  0  0  0  0  0  0  0  0  0
   40.3010   25.6940   37.3920 H   0  0  0  0  0  0  0  0  0  0  0  0
   39.5090   29.5300   39.7000 C   0  0  0  0  0  0  0  0  0  0  0  0
   39.6550   30.1700   40.7700 O   0  0  0  0  0  0  0  0  0  0  0  0
   41.0030   33.6170   38.8090 C   0  0  0  0  0  0  0  0  0  0  0  0
   39.8540   33.2160   39.2590 C   0  0  0  0  0  0  0  0  0  0  0  0
   39.0720   32.1010   38.8690 N   0  0  0  0  0  0  0  0  0  0  0  0
   37.9490   31.2820   38.9620 C   0  0  2  0  0  0  0  0  0  0  0  0
   36.7370   31.4850   39.2740 O   0  0  0  0  0  1  0  0  0  0  0  0
   38.7770   30.1200   38.5500 C   0  0  1  0  0  3  0  0  0  0  0  0
   39.5110   31.2180   37.8250 C   0  0  2  0  0  0  0  0  0  0  0  0
   41.2950   31.1090   37.8350 S   0  0  0  0  0  0  0  0  0  0  0  0
   41.6970   32.8980   37.7450 C   0  0  0  0  0  3  0  0  0  0  0  0
   41.3750   33.3180   36.7650 H   0  0  0  0  0  0  0  0  0  0  0  0
   41.5200   34.8230   39.4520 C   0  0  0  0  0  2  0  0  0  0  0  0
   40.7590   35.6410   39.5150 H   0  0  0  0  0  0  0  0  0  0  0  0
   39.2690   34.0200   40.3210 C   0  0  0  0  0  0  0  0  0  0  0  0
   38.2250   34.7280   40.2120 O   0  0  0  0  0  0  0  0  0  0  0  0
   38.9100   34.6950   41.4720 O   0  0  0  0  0  0  0  0  0  0  0  0
   39.4170   34.6530   42.3570 H   0  0  0  0  0  0  0  0  0  0  0  0
   42.1560   25.6170   41.9010 S   0  0  0  0  0  0  0  0  0  0  0  0
   41.2940   25.7180   43.4670 C   0  0  0  0  0  0  0  0  0  0  0  0
   41.9110   25.4000   44.3330 H   0  0  0  0  0  0  0  0  0  0  0  0
   41.1000   26.8130   43.6650 H   0  0  0  0  0  0  0  0  0  0  0  0
   39.9500   25.0580   43.4610 C   0  0  0  0  0  0  0  0  0  0  0  0
   39.9230   24.1270   42.8600 H   0  0  0  0  0  0  0  0  0  0  0  0
   39.6820   24.8140   44.5090 H   0  0  0  0  0  0  0  0  0  0  0  0
   38.3550   23.9420   41.1300 Cl  0  0  0  0  0  0  0  0  0  0  0  0
   38.1250   25.5310   41.8150 C   0  0  0  0  0  0  0  0  0  0  0  0
   38.9200   25.9520   42.8980 C   0  0  0  0  0  0  0  0  0  0  0  0
   38.6740   27.2100   43.3730 C   0  0  0  0  0  0  0  0  0  0  0  0
   37.7240   28.1060   42.8970 C   0  0  0  0  0  0  0  0  0  0  0  0
   36.9560   27.6600   41.8280 C   0  0  0  0  0  0  0  0  0  0  0  0
   35.7250   28.7260   41.1540 Cl  0  0  0  0  0  0  0  0  0  0  0  0
   37.1600   26.3990   41.3080 C   0  0  0  0  0  0  0  0  0  0  0  0
   39.2660   27.5670   44.2050 H   0  0  0  0  0  0  0  0  0  0  0  0
   37.6080   29.0870   43.3470 H   0  0  0  0  0  0  0  0  0  0  0  0
   36.5470   26.0780   40.4760 H   0  0  0  0  0  0  0  0  0  0  0  0
  1  6  1  0  0  0  0
  1 27  1  0  0  0  0
  2  1  2  0  0  0  0
  3  4  2  0  0  0  0
  3  2  1  0  0  0  0
  4  5  1  0  0  0  0
  5  9  1  0  0  0  0
  5  6  2  0  0  0  0
  7  2  1  0  0  0  0
  8  3  1  0  0  0  0
  9 10  2  0  0  0  0
 11 12  2  0  0  0  0
 11 21  1  0  0  0  0
 12 23  1  0  0  0  0
 13 14  1  0  0  0  0
 13 12  1  0  0  0  0
 14 15  1  6  0  0  0
 16 14  1  0  0  0  0
 16  9  1  1  0  0  0
 17 18  1  6  0  0  0
 17 16  1  0  0  0  0
 17 13  1  0  0  0  0
 17 14  1  0  0  0  0
 19 18  1  0  0  0  0
 19 11  1  0  0  0  0
 20 19  1  0  0  0  0
 21 22  1  0  0  0  0
 23 25  1  0  0  0  0
 24 23  2  0  0  0  0
 25 26  1  0  0  0  0
 27 28  1  0  0  0  0
 28 30  1  0  0  0  0
 28 29  1  0  0  0  0
 31 28  1  0  0  0  0
 31 33  1  0  0  0  0
 32 31  1  0  0  0  0
 34 35  1  0  0  0  0
 35 36  1  0  0  0  0
 36 37  2  0  0  0  0
 36 31  1  0  0  0  0
 37 42  1  0  0  0  0
 38 43  1  0  0  0  0
 38 37  1  0  0  0  0
 39 38  2  0  0  0  0
 40 39  1  0  0  0  0
 41 35  2  0  0  0  0
 41 39  1  0  0  0  0
 44 41  1  0  0  0  0
M  END
>  <minimizedAffinity>
-6.2472353

$$$$

 OpenBabel03242515023D

 44 48  0  0  1  0  0  0  0  0999 V2000
   37.8240   29.4720   37.9110 C   0  0  0  0  0  0  0  0  0  0  0  0
   37.3050   30.5590   37.2060 C   0  0  0  0  0  0  0  0  0  0  0  0
   37.9920   31.7780   37.2670 C   0  0  0  0  0  0  0  0  0  0  0  0
   39.1340   31.8370   38.0140 N   0  0  0  0  0  0  0  0  0  0  0  0
   39.6140   30.7750   38.6840 C   0  0  0  0  0  0  0  0  0  0  0  0
   38.9530   29.6140   38.6220 N   0  0  0  0  0  0  0  0  0  0  0  0
   36.4050   30.5020   36.6210 H   0  0  0  0  0  0  0  0  0  0  0  0
   37.6150   32.6440   36.7280 H   0  0  0  0  0  0  0  0  0  0  0  0
   40.8350   30.9410   39.4470 C   0  0  0  0  0  0  0  0  0  0  0  0
   41.8770   30.3960   39.0080 O   0  0  0  0  0  0  0  0  0  0  0  0
   38.2690   29.0390   42.5340 C   0  0  0  0  0  0  0  0  0  0  0  0
   38.1390   30.1650   41.9030 C   0  0  0  0  0  0  0  0  0  0  0  0
   39.1210   31.1310   41.5720 N   0  0  0  0  0  0  0  0  0  0  0  0
   39.5330   32.3330   41.0000 C   0  0  2  0  0  0  0  0  0  0  0  0
   38.9760   33.4580   40.8230 O   0  0  0  0  0  1  0  0  0  0  0  0
   40.8570   31.7270   40.7080 C   0  0  1  0  0  3  0  0  0  0  0  0
   40.4950   30.9490   41.9470 C   0  0  2  0  0  0  0  0  0  0  0  0
   40.9010   29.2090   41.9280 S   0  0  0  0  0  0  0  0  0  0  0  0
   39.5670   28.5860   43.0250 C   0  0  0  0  0  3  0  0  0  0  0  0
   39.7070   28.9700   44.0610 H   0  0  0  0  0  0  0  0  0  0  0  0
   37.0260   28.2880   42.6990 C   0  0  0  0  0  2  0  0  0  0  0  0
   36.1870   28.9200   43.0870 H   0  0  0  0  0  0  0  0  0  0  0  0
   36.7920   30.4990   41.4640 C   0  0  0  0  0  0  0  0  0  0  0  0
   36.5070   31.3080   40.5330 O   0  0  0  0  0  0  0  0  0  0  0  0
   35.4390   30.6520   41.2320 O   0  0  0  0  0  0  0  0  0  0  0  0
   34.6990   30.1710   41.7450 H   0  0  0  0  0  0  0  0  0  0  0  0
   36.9050   27.9410   37.8000 S   0  0  0  0  0  0  0  0  0  0  0  0
   36.6740   27.1540   39.3920 C   0  0  0  0  0  0  0  0  0  0  0  0
   37.0870   27.7410   40.2390 H   0  0  0  0  0  0  0  0  0  0  0  0
   35.5630   27.1400   39.5930 H   0  0  0  0  0  0  0  0  0  0  0  0
   37.1170   25.7240   39.4290 C   0  0  0  0  0  0  0  0  0  0  0  0
   36.3530   25.0400   39.8480 H   0  0  0  0  0  0  0  0  0  0  0  0
   37.3470   25.4080   38.3910 H   0  0  0  0  0  0  0  0  0  0  0  0
   36.6720   24.6160   42.2220 Cl  0  0  0  0  0  0  0  0  0  0  0  0
   38.2300   25.0570   41.5690 C   0  0  0  0  0  0  0  0  0  0  0  0
   38.3270   25.5630   40.2590 C   0  0  0  0  0  0  0  0  0  0  0  0
   39.5840   25.8830   39.8280 C   0  0  0  0  0  0  0  0  0  0  0  0
   40.7660   25.7590   40.5480 C   0  0  0  0  0  0  0  0  0  0  0  0
   40.6360   25.2570   41.8370 C   0  0  0  0  0  0  0  0  0  0  0  0
   42.0790   25.0640   42.8300 Cl  0  0  0  0  0  0  0  0  0  0  0  0
   39.3920   24.9170   42.3260 C   0  0  0  0  0  0  0  0  0  0  0  0
   39.6950   26.2750   38.8250 H   0  0  0  0  0  0  0  0  0  0  0  0
   41.7170   26.0430   40.1110 H   0  0  0  0  0  0  0  0  0  0  0  0
   39.3210   24.5280   43.3330 H   0  0  0  0  0  0  0  0  0  0  0  0
  1  6  1  0  0  0  0
  2  3  1  0  0  0  0
  2  1  2  0  0  0  0
  3  4  2  0  0  0  0
  4  5  1  0  0  0  0
  5  9  1  0  0  0  0
  6  5  2  0  0  0  0
  7  2  1  0  0  0  0
  8  3  1  0  0  0  0
 10  9  2  0  0  0  0
 11 21  1  0  0  0  0
 11 19  1  0  0  0  0
 12 11  2  0  0  0  0
 13 12  1  0  0  0  0
 13 17  1  0  0  0  0
 14 15  1  1  0  0  0
 14 13  1  0  0  0  0
 14 17  1  0  0  0  0
 16  9  1  6  0  0  0
 16 14  1  0  0  0  0
 16 17  1  0  0  0  0
 17 18  1  1  0  0  0
 18 19  1  0  0  0  0
 19 20  1  0  0  0  0
 21 22  1  0  0  0  0
 23 12  1  0  0  0  0
 24 23  2  0  0  0  0
 25 23  1  0  0  0  0
 25 26  1  0  0  0  0
 27  1  1  0  0  0  0
 27 28  1  0  0  0  0
 28 31  1  0  0  0  0
 28 30  1  0  0  0  0
 28 29  1  0  0  0  0
 31 32  1  0  0  0  0
 31 36  1  0  0  0  0
 33 31  1  0  0  0  0
 35 34  1  0  0  0  0
 35 41  1  0  0  0  0
 36 35  2  0  0  0  0
 37 36  1  0  0  0  0
 37 38  2  0  0  0  0
 38 39  1  0  0  0  0
 39 41  2  0  0  0  0
 39 40  1  0  0  0  0
 41 44  1  0  0  0  0
 42 37  1  0  0  0  0
 43 38  1  0  0  0  0
M  END
>  <minimizedAffinity>
-6.21823835

$$$$

 OpenBabel03242515023D

 44 48  0  0  1  0  0  0  0  0999 V2000
   38.1960   27.0540   42.0310 C   0  0  0  0  0  0  0  0  0  0  0  0
   37.3570   27.4930   43.0560 C   0  0  0  0  0  0  0  0  0  0  0  0
   37.6190   28.7410   43.6390 C   0  0  0  0  0  0  0  0  0  0  0  0
   38.6810   29.4600   43.1710 N   0  0  0  0  0  0  0  0  0  0  0  0
   39.4750   29.0150   42.1810 C   0  0  0  0  0  0  0  0  0  0  0  0
   39.2200   27.8230   41.6290 N   0  0  0  0  0  0  0  0  0  0  0  0
   36.5240   26.9190   43.4170 H   0  0  0  0  0  0  0  0  0  0  0  0
   36.9830   29.1120   44.4390 H   0  0  0  0  0  0  0  0  0  0  0  0
   40.5760   29.8550   41.7550 C   0  0  0  0  0  0  0  0  0  0  0  0
   41.2260   30.4600   42.6420 O   0  0  0  0  0  0  0  0  0  0  0  0
   40.1720   34.0830   40.4530 C   0  0  0  0  0  0  0  0  0  0  0  0
   39.4940   33.0280   40.1210 C   0  0  0  0  0  0  0  0  0  0  0  0
   39.9480   31.7140   39.8460 N   0  0  0  0  0  0  0  0  0  0  0  0
   39.7450   30.3800   39.5010 C   0  0  2  0  0  0  0  0  0  0  0  0
   38.8910   29.7790   38.7810 O   0  0  0  0  0  1  0  0  0  0  0  0
   40.9250   30.0000   40.3180 C   0  0  1  0  0  3  0  0  0  0  0  0
   41.3450   31.3870   39.9030 C   0  0  2  0  0  0  0  0  0  0  0  0
   42.1470   32.3730   41.1600 S   0  0  0  0  0  0  0  0  0  0  0  0
   41.6240   34.0410   40.5980 C   0  0  0  0  0  3  0  0  0  0  0  0
   42.0850   34.2800   39.6140 H   0  0  0  0  0  0  0  0  0  0  0  0
   39.3640   35.2830   40.6610 C   0  0  0  0  0  2  0  0  0  0  0  0
   38.6370   35.4660   39.8300 H   0  0  0  0  0  0  0  0  0  0  0  0
   38.0540   33.2020   40.0110 C   0  0  0  0  0  0  0  0  0  0  0  0
   37.1830   32.4290   40.5070 O   0  0  0  0  0  0  0  0  0  0  0  0
   36.7470   33.5800   39.7710 O   0  0  0  0  0  0  0  0  0  0  0  0
   36.4640   34.4060   39.2420 H   0  0  0  0  0  0  0  0  0  0  0  0
   37.8180   25.4540   41.3250 S   0  0  0  0  0  0  0  0  0  0  0  0
   36.6180   25.5470   39.9990 C   0  0  0  0  0  0  0  0  0  0  0  0
   36.3420   24.5550   39.5830 H   0  0  0  0  0  0  0  0  0  0  0  0
   35.6560   25.9240   40.4530 H   0  0  0  0  0  0  0  0  0  0  0  0
   36.9790   26.5260   38.9260 C   0  0  0  0  0  0  0  0  0  0  0  0
   37.6050   27.3650   39.2900 H   0  0  0  0  0  0  0  0  0  0  0  0
   37.5370   25.9820   38.1370 H   0  0  0  0  0  0  0  0  0  0  0  0
   35.9800   29.0730   40.2440 Cl  0  0  0  0  0  0  0  0  0  0  0  0
   35.2270   28.3120   38.8650 C   0  0  0  0  0  0  0  0  0  0  0  0
   35.7720   27.1300   38.3290 C   0  0  0  0  0  0  0  0  0  0  0  0
   35.1200   26.6010   37.2500 C   0  0  0  0  0  0  0  0  0  0  0  0
   33.9830   27.1120   36.6350 C   0  0  0  0  0  0  0  0  0  0  0  0
   33.4710   28.2780   37.1880 C   0  0  0  0  0  0  0  0  0  0  0  0
   32.0290   29.0020   36.4770 Cl  0  0  0  0  0  0  0  0  0  0  0  0
   34.0870   28.8580   38.2780 C   0  0  0  0  0  0  0  0  0  0  0  0
   35.5110   25.6920   36.8120 H   0  0  0  0  0  0  0  0  0  0  0  0
   33.5410   26.6120   35.7790 H   0  0  0  0  0  0  0  0  0  0  0  0
   33.6670   29.7660   38.6860 H   0  0  0  0  0  0  0  0  0  0  0  0
  1  2  1  0  0  0  0
  2  7  1  0  0  0  0
  2  3  2  0  0  0  0
  3  8  1  0  0  0  0
  4  3  1  0  0  0  0
  5  4  2  0  0  0  0
  6  1  2  0  0  0  0
  6  5  1  0  0  0  0
  9  5  1  0  0  0  0
  9 10  2  0  0  0  0
 11 19  1  0  0  0  0
 11 21  1  0  0  0  0
 12 11  2  0  0  0  0
 13 17  1  0  0  0  0
 13 12  1  0  0  0  0
 14 15  1  6  0  0  0
 14 13  1  0  0  0  0
 14 17  1  0  0  0  0
 14 16  1  0  0  0  0
 16  9  1  1  0  0  0
 17 16  1  0  0  0  0
 17 18  1  6  0  0  0
 19 18  1  0  0  0  0
 20 19  1  0  0  0  0
 22 21  1  0  0  0  0
 23 12  1  0  0  0  0
 23 24  2  0  0  0  0
 25 23  1  0  0  0  0
 26 25  1  0  0  0  0
 27  1  1  0  0  0  0
 28 30  1  0  0  0  0
 28 27  1  0  0  0  0
 29 28  1  0  0  0  0
 31 32  1  0  0  0  0
 31 28  1  0  0  0  0
 33 31  1  0  0  0  0
 35 34  1  0  0  0  0
 36 35  1  0  0  0  0
 36 31  1  0  0  0  0
 37 36  2  0  0  0  0
 38 39  2  0  0  0  0
 38 37  1  0  0  0  0
 39 41  1  0  0  0  0
 40 39  1  0  0  0  0
 41 44  1  0  0  0  0
 41 35  2  0  0  0  0
 42 37  1  0  0  0  0
 43 38  1  0  0  0  0
M  END
>  <minimizedAffinity>
-6.1784234

$$$$

 OpenBabel03242515023D

 44 48  0  0  1  0  0  0  0  0999 V2000
   40.3710   32.6650   40.8770 C   0  0  0  0  0  0  0  0  0  0  0  0
   40.3190   34.0320   40.6000 C   0  0  0  0  0  0  0  0  0  0  0  0
   39.1080   34.5710   40.1460 C   0  0  0  0  0  0  0  0  0  0  0  0
   38.0420   33.7290   39.9990 N   0  0  0  0  0  0  0  0  0  0  0  0
   38.1180   32.4150   40.2730 C   0  0  0  0  0  0  0  0  0  0  0  0
   39.2770   31.9060   40.7060 N   0  0  0  0  0  0  0  0  0  0  0  0
   41.1630   34.6850   40.7190 H   0  0  0  0  0  0  0  0  0  0  0  0
   39.0350   35.6330   39.9230 H   0  0  0  0  0  0  0  0  0  0  0  0
   36.9290   31.6070   40.0850 C   0  0  0  0  0  0  0  0  0  0  0  0
   36.2230   31.3630   41.0940 O   0  0  0  0  0  0  0  0  0  0  0  0
   37.9380   27.2940   39.7480 C   0  0  0  0  0  0  0  0  0  0  0  0
   38.4320   28.3280   39.1400 C   0  0  0  0  0  0  0  0  0  0  0  0
   37.7700   29.4620   38.6080 N   0  0  0  0  0  0  0  0  0  0  0  0
   37.7530   30.6930   37.9560 C   0  0  2  0  0  0  0  0  0  0  0  0
   38.4780   31.2240   37.0610 O   0  0  0  0  0  1  0  0  0  0  0  0
   36.5570   31.0810   38.7460 C   0  0  1  0  0  3  0  0  0  0  0  0
   36.3430   29.5900   38.6860 C   0  0  2  0  0  0  0  0  0  0  0  0
   35.7470   28.8220   40.1860 S   0  0  0  0  0  0  0  0  0  0  0  0
   36.5030   27.1610   39.9820 C   0  0  0  0  0  3  0  0  0  0  0  0
   36.0500   26.6350   39.1120 H   0  0  0  0  0  0  0  0  0  0  0  0
   38.9290   26.3040   40.1660 C   0  0  0  0  0  2  0  0  0  0  0  0
   39.6450   26.0370   39.3490 H   0  0  0  0  0  0  0  0  0  0  0  0
   39.8770   28.3390   38.9720 C   0  0  0  0  0  0  0  0  0  0  0  0
   40.6370   29.3160   39.2410 O   0  0  0  0  0  0  0  0  0  0  0  0
   41.2170   28.1080   38.7270 O   0  0  0  0  0  0  0  0  0  0  0  0
   41.6040   27.2370   38.3610 H   0  0  0  0  0  0  0  0  0  0  0  0
   41.9410   32.0280   41.4510 S   0  0  0  0  0  0  0  0  0  0  0  0
   41.7770   30.9590   42.8770 C   0  0  0  0  0  0  0  0  0  0  0  0
   42.5230   31.1650   43.6730 H   0  0  0  0  0  0  0  0  0  0  0  0
   40.7900   31.2110   43.3650 H   0  0  0  0  0  0  0  0  0  0  0  0
   41.7060   29.5030   42.5360 C   0  0  0  0  0  0  0  0  0  0  0  0
   41.8740   29.2970   41.4600 H   0  0  0  0  0  0  0  0  0  0  0  0
   42.4820   28.9730   43.1250 H   0  0  0  0  0  0  0  0  0  0  0  0
   41.6990   26.6420   43.5540 Cl  0  0  0  0  0  0  0  0  0  0  0  0
   40.2690   27.6230   43.3500 C   0  0  0  0  0  0  0  0  0  0  0  0
   40.3830   28.9410   42.8690 C   0  0  0  0  0  0  0  0  0  0  0  0
   39.2140   29.6380   42.7400 C   0  0  0  0  0  0  0  0  0  0  0  0
   37.9360   29.1780   43.0330 C   0  0  0  0  0  0  0  0  0  0  0  0
   37.8580   27.8740   43.5050 C   0  0  0  0  0  0  0  0  0  0  0  0
   36.2790   27.2000   43.9040 Cl  0  0  0  0  0  0  0  0  0  0  0  0
   39.0050   27.1220   43.6560 C   0  0  0  0  0  0  0  0  0  0  0  0
   39.2640   30.6550   42.3730 H   0  0  0  0  0  0  0  0  0  0  0  0
   37.0690   29.8150   42.8940 H   0  0  0  0  0  0  0  0  0  0  0  0
   38.9140   26.1100   44.0260 H   0  0  0  0  0  0  0  0  0  0  0  0
  1 27  1  0  0  0  0
  2  7  1  0  0  0  0
  2  1  2  0  0  0  0
  3  2  1  0  0  0  0
  4  3  2  0  0  0  0
  4  5  1  0  0  0  0
  5  6  2  0  0  0  0
  6  1  1  0  0  0  0
  8  3  1  0  0  0  0
  9  5  1  0  0  0  0
  9 10  2  0  0  0  0
 11 19  1  0  0  0  0
 11 21  1  0  0  0  0
 12 11  2  0  0  0  0
 13 17  1  0  0  0  0
 13 12  1  0  0  0  0
 14 15  1  6  0  0  0
 14 13  1  0  0  0  0
 14 17  1  0  0  0  0
 14 16  1  0  0  0  0
 16  9  1  1  0  0  0
 17 16  1  0  0  0  0
 17 18  1  6  0  0  0
 19 18  1  0  0  0  0
 20 19  1  0  0  0  0
 22 21  1  0  0  0  0
 23 12  1  0  0  0  0
 23 24  2  0  0  0  0
 25 23  1  0  0  0  0
 26 25  1  0  0  0  0
 27 28  1  0  0  0  0
 28 30  1  0  0  0  0
 28 29  1  0  0  0  0
 31 36  1  0  0  0  0
 31 28  1  0  0  0  0
 31 33  1  0  0  0  0
 32 31  1  0  0  0  0
 35 34  1  0  0  0  0
 35 41  1  0  0  0  0
 36 35  2  0  0  0  0
 37 36  1  0  0  0  0
 37 38  2  0  0  0  0
 38 39  1  0  0  0  0
 39 41  2  0  0  0  0
 39 40  1  0  0  0  0
 41 44  1  0  0  0  0
 42 37  1  0  0  0  0
 43 38  1  0  0  0  0
M  END
>  <minimizedAffinity>
-6.14941645

$$$$

 OpenBabel03242515023D

 44 48  0  0  1  0  0  0  0  0999 V2000
   37.2480   30.2440   40.5140 C   0  0  0  0  0  0  0  0  0  0  0  0
   36.8840   31.5580   40.2140 C   0  0  0  0  0  0  0  0  0  0  0  0
   37.7990   32.5810   40.4950 C   0  0  0  0  0  0  0  0  0  0  0  0
   39.0000   32.2370   41.0490 N   0  0  0  0  0  0  0  0  0  0  0  0
   39.3270   30.9630   41.3290 C   0  0  0  0  0  0  0  0  0  0  0  0
   38.4490   29.9920   41.0580 N   0  0  0  0  0  0  0  0  0  0  0  0
   35.9370   31.8180   39.7790 H   0  0  0  0  0  0  0  0  0  0  0  0
   37.5460   33.6150   40.2720 H   0  0  0  0  0  0  0  0  0  0  0  0
   40.6280   30.7030   41.9130 C   0  0  0  0  0  0  0  0  0  0  0  0
   40.8430   31.1310   43.0730 O   0  0  0  0  0  0  0  0  0  0  0  0
   42.4890   33.2800   38.8110 C   0  0  0  0  0  0  0  0  0  0  0  0
   41.7410   32.2260   38.6970 C   0  0  0  0  0  0  0  0  0  0  0  0
   41.7610   31.0210   39.4420 N   0  0  0  0  0  0  0  0  0  0  0  0
   41.2910   29.7460   39.7480 C   0  0  2  0  0  0  0  0  0  0  0  0
   40.7630   28.8170   39.0640 O   0  0  0  0  0  1  0  0  0  0  0  0
   41.6740   29.9570   41.1670 C   0  0  1  0  0  3  0  0  0  0  0  0
   42.7130   30.8200   40.4980 C   0  0  2  0  0  0  0  0  0  0  0  0
   43.0710   32.3790   41.2950 S   0  0  0  0  0  0  0  0  0  0  0  0
   43.5430   33.3600   39.8170 C   0  0  0  0  0  3  0  0  0  0  0  0
   44.4860   32.9650   39.3750 H   0  0  0  0  0  0  0  0  0  0  0  0
   42.1830   34.3480   37.8610 C   0  0  0  0  0  2  0  0  0  0  0  0
   42.0940   33.9790   36.8080 H   0  0  0  0  0  0  0  0  0  0  0  0
   40.7260   32.2730   37.6550 C   0  0  0  0  0  0  0  0  0  0  0  0
   39.5830   31.7330   37.7230 O   0  0  0  0  0  0  0  0  0  0  0  0
   39.9370   32.4580   36.5360 O   0  0  0  0  0  0  0  0  0  0  0  0
   40.2150   32.9790   35.7030 H   0  0  0  0  0  0  0  0  0  0  0  0
   36.0410   28.9790   40.1380 S   0  0  0  0  0  0  0  0  0  0  0  0
   36.7920   27.4280   39.6510 C   0  0  0  0  0  0  0  0  0  0  0  0
   36.3690   27.0060   38.7150 H   0  0  0  0  0  0  0  0  0  0  0  0
   37.8650   27.6520   39.3810 H   0  0  0  0  0  0  0  0  0  0  0  0
   36.8480   26.4130   40.7510 C   0  0  0  0  0  0  0  0  0  0  0  0
   35.9660   26.4440   41.4200 H   0  0  0  0  0  0  0  0  0  0  0  0
   36.9090   25.4070   40.2870 H   0  0  0  0  0  0  0  0  0  0  0  0
   36.2910   27.3310   43.5910 Cl  0  0  0  0  0  0  0  0  0  0  0  0
   37.8840   27.0450   42.9390 C   0  0  0  0  0  0  0  0  0  0  0  0
   38.0330   26.6190   41.6050 C   0  0  0  0  0  0  0  0  0  0  0  0
   39.3150   26.4190   41.1770 C   0  0  0  0  0  0  0  0  0  0  0  0
   40.4770   26.5910   41.9210 C   0  0  0  0  0  0  0  0  0  0  0  0
   40.2950   27.0110   43.2320 C   0  0  0  0  0  0  0  0  0  0  0  0
   41.7090   27.2590   44.2550 Cl  0  0  0  0  0  0  0  0  0  0  0  0
   39.0230   27.2300   43.7200 C   0  0  0  0  0  0  0  0  0  0  0  0
   39.4680   26.0910   40.1560 H   0  0  0  0  0  0  0  0  0  0  0  0
   41.4520   26.4040   41.4830 H   0  0  0  0  0  0  0  0  0  0  0  0
   38.9130   27.5560   44.7450 H   0  0  0  0  0  0  0  0  0  0  0  0
  1  6  1  0  0  0  0
  2  3  1  0  0  0  0
  2  1  2  0  0  0  0
  3  4  2  0  0  0  0
  4  5  1  0  0  0  0
  5  9  1  0  0  0  0
  6  5  2  0  0  0  0
  7  2  1  0  0  0  0
  8  3  1  0  0  0  0
  9 10  2  0  0  0  0
 11 19  1  0  0  0  0
 12 11  2  0  0  0  0
 12 13  1  0  0  0  0
 13 14  1  0  0  0  0
 13 17  1  0  0  0  0
 14 15  1  6  0  0  0
 14 17  1  0  0  0  0
 14 16  1  0  0  0  0
 16  9  1  1  0  0  0
 17 16  1  0  0  0  0
 17 18  1  6  0  0  0
 19 18  1  0  0  0  0
 20 19  1  0  0  0  0
 21 11  1  0  0  0  0
 22 21  1  0  0  0  0
 23 24  2  0  0  0  0
 23 12  1  0  0  0  0
 25 23  1  0  0  0  0
 26 25  1  0  0  0  0
 27  1  1  0  0  0  0
 28 27  1  0  0  0  0
 28 31  1  0  0  0  0
 29 28  1  0  0  0  0
 30 28  1  0  0  0  0
 31 32  1  0  0  0  0
 31 36  1  0  0  0  0
 33 31  1  0  0  0  0
 35 34  1  0  0  0  0
 35 41  1  0  0  0  0
 36 35  2  0  0  0  0
 37 36  1  0  0  0  0
 37 38  2  0  0  0  0
 38 39  1  0  0  0  0
 39 41  2  0  0  0  0
 39 40  1  0  0  0  0
 41 44  1  0  0  0  0
 42 37  1  0  0  0  0
 43 38  1  0  0  0  0
M  END
>  <minimizedAffinity>
-6.11842012

$$$$

 OpenBabel03242515023D

 44 48  0  0  1  0  0  0  0  0999 V2000
   37.8360   32.5580   39.9450 C   0  0  0  0  0  0  0  0  0  0  0  0
   37.4230   32.3180   38.6330 C   0  0  0  0  0  0  0  0  0  0  0  0
   36.9160   31.0500   38.3180 C   0  0  0  0  0  0  0  0  0  0  0  0
   36.8530   30.1160   39.3130 N   0  0  0  0  0  0  0  0  0  0  0  0
   37.2570   30.3720   40.5700 C   0  0  0  0  0  0  0  0  0  0  0  0
   37.7400   31.5850   40.8640 N   0  0  0  0  0  0  0  0  0  0  0  0
   37.4780   33.0600   37.8570 H   0  0  0  0  0  0  0  0  0  0  0  0
   36.5860   30.8320   37.3050 H   0  0  0  0  0  0  0  0  0  0  0  0
   37.1470   29.3140   41.5540 C   0  0  0  0  0  0  0  0  0  0  0  0
   36.1940   28.5050   41.4380 O   0  0  0  0  0  0  0  0  0  0  0  0
   39.8250   25.8290   40.9080 C   0  0  0  0  0  0  0  0  0  0  0  0
   38.9180   26.0420   41.8100 C   0  0  0  0  0  0  0  0  0  0  0  0
   38.6230   27.2260   42.5310 N   0  0  0  0  0  0  0  0  0  0  0  0
   37.8950   27.9590   43.4650 C   0  0  2  0  0  0  0  0  0  0  0  0
   37.2970   27.6600   44.5430 O   0  0  0  0  0  1  0  0  0  0  0  0
   38.1260   29.1880   42.6640 C   0  0  1  0  0  3  0  0  0  0  0  0
   39.3820   28.4280   42.3210 C   0  0  2  0  0  0  0  0  0  0  0  0
   39.9130   28.5190   40.6180 S   0  0  0  0  0  0  0  0  0  0  0  0
   40.7400   26.8840   40.4830 C   0  0  0  0  0  3  0  0  0  0  0  0
   41.6430   26.8530   41.1340 H   0  0  0  0  0  0  0  0  0  0  0  0
   39.8420   24.4690   40.3720 C   0  0  0  0  0  2  0  0  0  0  0  0
   39.8210   23.6880   41.1730 H   0  0  0  0  0  0  0  0  0  0  0  0
   38.0690   24.9080   42.1430 C   0  0  0  0  0  0  0  0  0  0  0  0
   36.8080   24.8830   42.0360 O   0  0  0  0  0  0  0  0  0  0  0  0
   37.4850   23.7140   42.5210 O   0  0  0  0  0  0  0  0  0  0  0  0
   37.9920   22.8970   42.8620 H   0  0  0  0  0  0  0  0  0  0  0  0
   38.4770   34.1920   40.2900 S   0  0  0  0  0  0  0  0  0  0  0  0
   40.2430   34.3140   40.0270 C   0  0  0  0  0  0  0  0  0  0  0  0
   40.5260   35.0790   39.2730 H   0  0  0  0  0  0  0  0  0  0  0  0
   40.6920   34.7060   40.9860 H   0  0  0  0  0  0  0  0  0  0  0  0
   40.9080   32.9980   39.7700 C   0  0  0  0  0  0  0  0  0  0  0  0
   40.1940   32.1870   39.5220 H   0  0  0  0  0  0  0  0  0  0  0  0
   41.6090   33.1270   38.9200 H   0  0  0  0  0  0  0  0  0  0  0  0
   43.7230   34.1040   40.0460 Cl  0  0  0  0  0  0  0  0  0  0  0  0
   42.9800   32.9970   41.1730 C   0  0  0  0  0  0  0  0  0  0  0  0
   41.6660   32.5430   40.9520 C   0  0  0  0  0  0  0  0  0  0  0  0
   41.1620   31.6790   41.8830 C   0  0  0  0  0  0  0  0  0  0  0  0
   41.8130   31.2090   43.0170 C   0  0  0  0  0  0  0  0  0  0  0  0
   43.1070   31.6750   43.2060 C   0  0  0  0  0  0  0  0  0  0  0  0
   44.0150   31.1340   44.6170 Cl  0  0  0  0  0  0  0  0  0  0  0  0
   43.6680   32.5500   42.2990 C   0  0  0  0  0  0  0  0  0  0  0  0
   40.1540   31.3100   41.7450 H   0  0  0  0  0  0  0  0  0  0  0  0
   41.3200   30.5210   43.6970 H   0  0  0  0  0  0  0  0  0  0  0  0
   44.6780   32.8970   42.4720 H   0  0  0  0  0  0  0  0  0  0  0  0
  1 27  1  0  0  0  0
  1  6  1  0  0  0  0
  2  1  2  0  0  0  0
  3  2  1  0  0  0  0
  3  4  2  0  0  0  0
  4  5  1  0  0  0  0
  5  6  2  0  0  0  0
  5  9  1  0  0  0  0
  7  2  1  0  0  0  0
  8  3  1  0  0  0  0
 10  9  2  0  0  0  0
 11 12  2  0  0  0  0
 12 23  1  0  0  0  0
 12 13  1  0  0  0  0
 13 14  1  0  0  0  0
 14 15  1  1  0  0  0
 16  9  1  6  0  0  0
 16 14  1  0  0  0  0
 17 18  1  1  0  0  0
 17 13  1  0  0  0  0
 17 16  1  0  0  0  0
 17 14  1  0  0  0  0
 19 18  1  0  0  0  0
 19 11  1  0  0  0  0
 19 20  1  0  0  0  0
 21 11  1  0  0  0  0
 21 22  1  0  0  0  0
 23 25  1  0  0  0  0
 24 23  2  0  0  0  0
 25 26  1  0  0  0  0
 28 27  1  0  0  0  0
 28 30  1  0  0  0  0
 29 28  1  0  0  0  0
 31 28  1  0  0  0  0
 31 36  1  0  0  0  0
 32 31  1  0  0  0  0
 33 31  1  0  0  0  0
 34 35  1  0  0  0  0
 35 41  1  0  0  0  0
 36 35  2  0  0  0  0
 36 37  1  0  0  0  0
 37 38  2  0  0  0  0
 38 39  1  0  0  0  0
 38 43  1  0  0  0  0
 39 40  1  0  0  0  0
 41 44  1  0  0  0  0
 41 39  2  0  0  0  0
 42 37  1  0  0  0  0
M  END
>  <minimizedAffinity>
-6.00913906

$$$$
