
 OpenBabel03242520453D

 29 31  0  0  1  0  0  0  0  0999 V2000
   46.9350   31.0990   36.1690 C   0  0  0  0  0  0  0  0  0  0  0  0
   47.8200   31.8800   36.7660 C   0  0  0  0  0  0  0  0  0  0  0  0
   48.8750   31.2800   37.5060 N   0  0  0  0  0  0  0  0  0  0  0  0
   50.3000   31.2230   37.7710 C   0  0  0  0  0  0  0  0  0  0  0  0
   51.2780   32.0260   37.5870 O   0  0  0  0  0  0  0  0  0  0  0  0
   50.1370   29.8340   38.3440 C   0  0  2  0  0  3  0  0  0  0  0  0
   48.6830   30.2240   38.5140 C   0  0  2  0  0  3  0  0  0  0  0  0
   47.4780   29.0630   37.8440 S   0  0  0  0  0  0  0  0  0  0  0  0
   46.9770   29.6280   36.2000 C   0  0  0  0  0  3  0  0  0  0  0  0
   45.9990   29.2080   35.8950 H   0  0  0  0  0  0  0  0  0  0  0  0
   50.9050   29.6740   39.6200 C   0  0  0  0  0  0  0  0  0  0  0  0
   51.9020   28.9160   39.5690 O   0  0  0  0  0  0  0  0  0  0  0  0
   50.6730   32.3680   42.1500 C   0  0  0  0  0  0  0  0  0  0  0  0
   51.0540   31.6430   40.9990 C   0  0  0  0  0  0  0  0  0  0  0  0
   50.4860   30.3670   40.8000 C   0  0  0  0  0  0  0  0  0  0  0  0
   49.6050   29.9190   41.7340 N   0  0  0  0  0  0  0  0  0  0  0  0
   49.2700   30.6480   42.8200 C   0  0  0  0  0  0  0  0  0  0  0  0
   49.8070   31.8530   43.0070 N   0  0  0  0  0  0  0  0  0  0  0  0
   51.2350   33.6490   42.3630 N   0  0  0  0  0  0  0  0  0  0  0  0
   51.7660   32.0830   40.3080 H   0  0  0  0  0  0  0  0  0  0  0  0
   48.5620   30.2400   43.5320 H   0  0  0  0  0  0  0  0  0  0  0  0
   52.2490   33.5090   42.6450 H   0  0  0  0  0  0  0  0  0  0  0  0
   50.7680   34.5940   42.2690 H   0  0  0  0  0  0  0  0  0  0  0  0
   45.8620   31.7580   35.4290 C   0  0  0  0  0  2  0  0  0  0  0  0
   45.2450   32.4070   36.0810 H   0  0  0  0  0  0  0  0  0  0  0  0
   47.7540   33.3360   36.7040 C   0  0  0  0  0  0  0  0  0  0  0  0
   48.6520   34.1370   36.3940 O   0  0  0  0  0  0  0  0  0  0  0  0
   46.6740   34.1590   36.9750 O   0  0  0  0  0  0  0  0  0  0  0  0
   46.6670   34.8830   37.6780 H   0  0  0  0  0  0  0  0  0  0  0  0
  1  9  1  0  0  0  0
  1  2  2  0  0  0  0
  2  3  1  0  0  0  0
  3  4  1  0  0  0  0
  3  7  1  0  0  0  0
  4  6  1  0  0  0  0
  5  4  2  0  0  0  0
  6  7  1  0  0  0  0
  6 11  1  1  0  0  0
  7  8  1  6  0  0  0
  9  8  1  0  0  0  0
 10  9  1  0  0  0  0
 11 15  1  0  0  0  0
 12 11  2  0  0  0  0
 13 19  1  0  0  0  0
 13 18  1  0  0  0  0
 14 13  2  0  0  0  0
 15 14  1  0  0  0  0
 15 16  2  0  0  0  0
 16 17  1  0  0  0  0
 17 18  2  0  0  0  0
 17 21  1  0  0  0  0
 19 22  1  0  0  0  0
 20 14  1  0  0  0  0
 23 19  1  0  0  0  0
 24 25  1  0  0  0  0
 24  1  1  0  0  0  0
 26  2  1  0  0  0  0
 26 28  1  0  0  0  0
 27 26  2  0  0  0  0
 28 29  1  0  0  0  0
M  END
>  <minimizedAffinity>
-3.46083045

>  <minimizedRMSD>
5.23077106

$$$$
