
 OpenBabel03242519213D

 41 44  0  0  1  0  0  0  0  0999 V2000
   48.1600   31.5410   42.7910 C   0  0  0  0  0  0  0  0  0  0  0  0
   49.0860   31.4440   41.7150 C   0  0  0  0  0  0  0  0  0  0  0  0
   50.1740   30.5800   41.8260 C   0  0  0  0  0  0  0  0  0  0  0  0
   50.2680   29.8730   43.0050 N   0  0  0  0  0  0  0  0  0  0  0  0
   49.3880   29.9780   44.0070 C   0  0  0  0  0  0  0  0  0  0  0  0
   48.3360   30.8120   43.8970 N   0  0  0  0  0  0  0  0  0  0  0  0
   49.0790   31.9510   40.7830 H   0  0  0  0  0  0  0  0  0  0  0  0
   50.9200   30.4370   41.0790 H   0  0  0  0  0  0  0  0  0  0  0  0
   47.0440   32.4870   42.5950 C   0  0  0  0  0  0  0  0  0  0  0  0
   47.2130   33.3410   41.4030 C   0  0  0  0  0  0  0  0  0  0  0  0
   47.4840   34.7820   41.7300 C   0  0  0  0  0  0  0  0  0  0  0  0
   46.3980   35.3720   42.6120 C   0  0  0  0  0  0  0  0  0  0  0  0
   45.9640   34.4540   43.7150 C   0  0  0  0  0  0  0  0  0  0  0  0
   46.8970   33.2850   43.8850 C   0  0  0  0  0  0  0  0  0  0  0  0
   46.1110   31.8470   42.5810 H   0  0  0  0  0  0  0  0  0  0  0  0
   46.2160   33.3450   40.8690 H   0  0  0  0  0  0  0  0  0  0  0  0
   47.9270   32.9880   40.6580 H   0  0  0  0  0  0  0  0  0  0  0  0
   47.4980   35.3510   40.7800 H   0  0  0  0  0  0  0  0  0  0  0  0
   48.4310   34.9920   42.2280 H   0  0  0  0  0  0  0  0  0  0  0  0
   45.5230   35.7190   42.0090 H   0  0  0  0  0  0  0  0  0  0  0  0
   46.8000   36.2980   43.0710 H   0  0  0  0  0  0  0  0  0  0  0  0
   44.9470   34.0590   43.4220 H   0  0  0  0  0  0  0  0  0  0  0  0
   45.8540   34.9560   44.6750 H   0  0  0  0  0  0  0  0  0  0  0  0
   47.8750   33.6710   44.1870 H   0  0  0  0  0  0  0  0  0  0  0  0
   46.4760   32.6220   44.6710 H   0  0  0  0  0  0  0  0  0  0  0  0
   49.5540   29.1750   45.2610 C   0  0  0  0  0  2  0  0  0  0  0  0
   48.2850   28.8340   45.8960 C   0  0  0  0  0  0  0  0  0  0  0  0
   47.8210   29.3410   47.0260 C   0  0  0  0  0  0  0  0  0  0  0  0
   46.5640   28.8700   47.4870 N   0  0  0  0  0  0  0  0  0  0  0  0
   45.2940   29.1610   48.1100 C   0  0  0  0  0  0  0  0  0  0  0  0
   44.7890   30.1780   48.7010 O   0  0  0  0  0  0  0  0  0  0  0  0
   44.7440   27.8220   47.8250 C   0  0  0  0  0  3  0  0  0  0  0  0
   44.3570   27.2610   48.7020 H   0  0  0  0  0  0  0  0  0  0  0  0
   46.1240   27.4680   47.3960 C   0  0  1  0  0  3  0  0  0  0  0  0
   46.1560   27.1180   45.6170 S   0  0  0  0  0  0  0  0  0  0  0  0
   47.6750   27.8320   44.9910 C   0  0  0  0  0  3  0  0  0  0  0  0
   47.4450   28.3360   44.0260 H   0  0  0  0  0  0  0  0  0  0  0  0
   48.5340   30.3450   47.8210 C   0  0  0  0  0  0  0  0  0  0  0  0
   49.5890   30.3660   48.4660 O   0  0  0  0  0  0  0  0  0  0  0  0
   48.0480   31.6140   47.9880 O   0  0  0  0  0  0  0  0  0  0  0  0
   48.6270   32.4290   47.8840 H   0  0  0  0  0  0  0  0  0  0  0  0
  1  6  1  0  0  0  0
  2  3  1  0  0  0  0
  2  1  2  0  0  0  0
  3  4  2  0  0  0  0
  4  5  1  0  0  0  0
  5 26  1  0  0  0  0
  6  5  2  0  0  0  0
  7  2  1  0  0  0  0
  8  3  1  0  0  0  0
  9  1  1  0  0  0  0
  9 14  1  0  0  0  0
 10 11  1  0  0  0  0
 10  9  1  0  0  0  0
 11 19  1  0  0  0  0
 11 12  1  0  0  0  0
 12 21  1  0  0  0  0
 12 13  1  0  0  0  0
 13 14  1  0  0  0  0
 13 23  1  0  0  0  0
 14 24  1  0  0  0  0
 14 25  1  0  0  0  0
 15  9  1  0  0  0  0
 16 10  1  0  0  0  0
 17 10  1  0  0  0  0
 18 11  1  0  0  0  0
 20 12  1  0  0  0  0
 22 13  1  0  0  0  0
 26 27  1  0  0  0  0
 27 28  2  0  0  0  0
 28 29  1  0  0  0  0
 28 38  1  0  0  0  0
 29 30  1  0  0  0  0
 30 31  2  0  0  0  0
 32 30  1  0  0  0  0
 32 33  1  0  0  0  0
 34 35  1  6  0  0  0
 34 29  1  0  0  0  0
 34 32  1  0  0  0  0
 36 35  1  0  0  0  0
 36 27  1  0  0  0  0
 37 36  1  0  0  0  0
 38 40  1  0  0  0  0
 38 39  2  0  0  0  0
 41 40  1  0  0  0  0
M  END
>  <minimizedAffinity>
-4.15659189

>  <minimizedRMSD>
4.13298225

$$$$
