
 OpenBabel03242523393D

 26 28  0  0  1  0  0  0  0  0999 V2000
   38.6630   29.4550   40.2070 C   0  0  0  0  0  0  0  0  0  0  0  0
   37.7460   29.2950   41.1170 C   0  0  0  0  0  0  0  0  0  0  0  0
   37.9190   28.4260   42.2160 N   0  0  0  0  0  0  0  0  0  0  0  0
   37.3990   27.5220   43.1710 C   0  0  0  0  0  0  0  0  0  0  0  0
   36.2520   27.1150   43.5580 O   0  0  0  0  0  0  0  0  0  0  0  0
   38.7110   27.1110   43.6790 C   0  0  0  0  0  3  0  0  0  0  0  0
   38.9640   26.0790   43.3600 H   0  0  0  0  0  0  0  0  0  0  0  0
   39.2200   28.2140   42.8190 C   0  0  1  0  0  3  0  0  0  0  0  0
   40.2830   27.6060   41.4540 S   0  0  0  0  0  0  0  0  0  0  0  0
   39.9730   28.7950   40.1560 C   0  0  0  0  0  3  0  0  0  0  0  0
   40.7590   29.5970   40.2320 H   0  0  0  0  0  0  0  0  0  0  0  0
   36.4710   29.9990   41.0780 C   0  0  0  0  0  0  0  0  0  0  0  0
   35.3840   29.5600   40.6260 O   0  0  0  0  0  0  0  0  0  0  0  0
   35.7520   31.1460   41.3560 O   0  0  0  0  0  0  0  0  0  0  0  0
   35.8320   31.9940   40.7810 H   0  0  0  0  0  0  0  0  0  0  0  0
   38.4900   30.3600   39.0620 C   0  0  0  0  0  2  0  0  0  0  0  0
   39.1590   33.8300   40.3240 C   0  0  0  0  0  0  0  0  0  0  0  0
   40.3070   34.1600   39.5450 C   0  0  0  0  0  0  0  0  0  0  0  0
   40.7840   33.1940   38.6450 C   0  0  0  0  0  0  0  0  0  0  0  0
   40.1310   32.0140   38.5670 N   0  0  0  0  0  0  0  0  0  0  0  0
   39.0410   31.7330   39.3240 C   0  0  0  0  0  0  0  0  0  0  0  0
   38.5660   32.6370   40.1900 N   0  0  0  0  0  0  0  0  0  0  0  0
   38.7880   34.5540   41.0110 H   0  0  0  0  0  0  0  0  0  0  0  0
   40.7730   35.1200   39.6620 H   0  0  0  0  0  0  0  0  0  0  0  0
   42.2140   33.5550   37.6480 S   0  0  0  0  0  0  0  0  0  0  0  0
   42.0970   33.0330   36.3470 H   0  0  0  0  0  0  0  0  0  0  0  0
  1  2  2  0  0  0  0
  2  3  1  0  0  0  0
  3  8  1  0  0  0  0
  3  4  1  0  0  0  0
  4  5  2  0  0  0  0
  4  6  1  0  0  0  0
  7  6  1  0  0  0  0
  8  9  1  6  0  0  0
  8  6  1  0  0  0  0
 10  1  1  0  0  0  0
 10 11  1  0  0  0  0
 10  9  1  0  0  0  0
 12  2  1  0  0  0  0
 12 14  1  0  0  0  0
 13 12  2  0  0  0  0
 15 14  1  0  0  0  0
 16 21  1  0  0  0  0
 16  1  1  0  0  0  0
 17 23  1  0  0  0  0
 18 24  1  0  0  0  0
 18 17  2  0  0  0  0
 19 18  1  0  0  0  0
 20 19  2  0  0  0  0
 20 21  1  0  0  0  0
 21 22  2  0  0  0  0
 22 17  1  0  0  0  0
 25 19  1  0  0  0  0
 26 25  1  0  0  0  0
M  END
>  <minimizedAffinity>
-5.48811245

$$$$

 OpenBabel03242523393D

 26 28  0  0  1  0  0  0  0  0999 V2000
   38.1100   29.4600   42.3840 C   0  0  0  0  0  0  0  0  0  0  0  0
   37.5160   29.8680   41.2990 C   0  0  0  0  0  0  0  0  0  0  0  0
   38.0760   30.8560   40.4610 N   0  0  0  0  0  0  0  0  0  0  0  0
   37.9380   31.9480   39.5750 C   0  0  0  0  0  0  0  0  0  0  0  0
   36.9930   32.5550   38.9650 O   0  0  0  0  0  0  0  0  0  0  0  0
   39.3710   32.2530   39.5270 C   0  0  0  0  0  3  0  0  0  0  0  0
   39.6060   33.1850   40.0790 H   0  0  0  0  0  0  0  0  0  0  0  0
   39.5100   30.9790   40.2860 C   0  0  1  0  0  3  0  0  0  0  0  0
   40.1750   31.2400   41.9750 S   0  0  0  0  0  0  0  0  0  0  0  0
   39.3980   29.9270   42.9080 C   0  0  0  0  0  3  0  0  0  0  0  0
   40.1000   29.0480   42.9120 H   0  0  0  0  0  0  0  0  0  0  0  0
   36.2300   29.3400   40.8620 C   0  0  0  0  0  0  0  0  0  0  0  0
   36.0420   28.3730   40.0820 O   0  0  0  0  0  0  0  0  0  0  0  0
   34.8520   29.4150   40.9080 O   0  0  0  0  0  0  0  0  0  0  0  0
   34.3260   30.1350   40.3990 H   0  0  0  0  0  0  0  0  0  0  0  0
   37.5320   28.4300   43.2600 C   0  0  0  0  0  2  0  0  0  0  0  0
   39.8500   25.4860   43.4540 C   0  0  0  0  0  0  0  0  0  0  0  0
   39.1600   24.5710   42.6050 C   0  0  0  0  0  0  0  0  0  0  0  0
   37.9590   25.0020   42.0210 C   0  0  0  0  0  0  0  0  0  0  0  0
   37.5270   26.2520   42.2940 N   0  0  0  0  0  0  0  0  0  0  0  0
   38.2090   27.0980   43.1070 C   0  0  0  0  0  0  0  0  0  0  0  0
   39.3570   26.7110   43.6770 N   0  0  0  0  0  0  0  0  0  0  0  0
   40.7630   25.1710   43.9040 H   0  0  0  0  0  0  0  0  0  0  0  0
   39.5660   23.5920   42.4340 H   0  0  0  0  0  0  0  0  0  0  0  0
   37.0590   23.8990   40.9520 S   0  0  0  0  0  0  0  0  0  0  0  0
   36.4830   24.5740   39.8590 H   0  0  0  0  0  0  0  0  0  0  0  0
  1 10  1  0  0  0  0
  1 16  1  0  0  0  0
  2  1  2  0  0  0  0
  3  2  1  0  0  0  0
  4  3  1  0  0  0  0
  5  4  2  0  0  0  0
  6  4  1  0  0  0  0
  6  7  1  0  0  0  0
  8  6  1  6  0  0  0
  8  3  1  0  0  0  0
  8  9  1  0  0  0  0
  9 10  1  0  0  0  0
 10 11  1  0  0  0  0
 12 14  1  0  0  0  0
 12  2  1  0  0  0  0
 13 12  2  0  0  0  0
 15 14  1  0  0  0  0
 17 22  1  0  0  0  0
 17 23  1  0  0  0  0
 18 17  2  0  0  0  0
 19 20  2  0  0  0  0
 19 18  1  0  0  0  0
 20 21  1  0  0  0  0
 21 16  1  0  0  0  0
 21 22  2  0  0  0  0
 24 18  1  0  0  0  0
 25 19  1  0  0  0  0
 26 25  1  0  0  0  0
M  END
>  <minimizedAffinity>
-5.27076244

$$$$

 OpenBabel03242523393D

 26 28  0  0  1  0  0  0  0  0999 V2000
   38.2090   28.9210   42.3310 C   0  0  0  0  0  0  0  0  0  0  0  0
   38.0750   30.0140   41.6380 C   0  0  0  0  0  0  0  0  0  0  0  0
   39.1780   30.8210   41.2840 N   0  0  0  0  0  0  0  0  0  0  0  0
   39.7490   32.0870   41.0230 C   0  0  0  0  0  0  0  0  0  0  0  0
   39.3500   33.2920   40.8810 O   0  0  0  0  0  0  0  0  0  0  0  0
   41.1260   31.5890   40.9440 C   0  0  0  0  0  3  0  0  0  0  0  0
   41.7190   31.8950   41.8290 H   0  0  0  0  0  0  0  0  0  0  0  0
   40.4810   30.2480   41.0110 C   0  0  1  0  0  3  0  0  0  0  0  0
   40.9270   29.3310   42.5350 S   0  0  0  0  0  0  0  0  0  0  0  0
   39.4610   28.3570   42.8480 C   0  0  0  0  0  3  0  0  0  0  0  0
   39.6060   27.3530   42.3620 H   0  0  0  0  0  0  0  0  0  0  0  0
   36.7810   30.4920   41.1690 C   0  0  0  0  0  0  0  0  0  0  0  0
   36.3430   30.4420   39.9920 O   0  0  0  0  0  0  0  0  0  0  0  0
   35.5730   31.0930   41.4640 O   0  0  0  0  0  0  0  0  0  0  0  0
   35.4890   32.1040   41.6220 H   0  0  0  0  0  0  0  0  0  0  0  0
   37.0640   28.0750   42.7010 C   0  0  0  0  0  2  0  0  0  0  0  0
   37.2090   24.4840   41.6210 C   0  0  0  0  0  0  0  0  0  0  0  0
   36.8830   24.6270   40.2400 C   0  0  0  0  0  0  0  0  0  0  0  0
   36.6340   25.9230   39.7590 C   0  0  0  0  0  0  0  0  0  0  0  0
   36.7190   26.9540   40.6270 N   0  0  0  0  0  0  0  0  0  0  0  0
   37.0320   26.7820   41.9360 C   0  0  0  0  0  0  0  0  0  0  0  0
   37.2730   25.5570   42.4190 N   0  0  0  0  0  0  0  0  0  0  0  0
   37.3990   23.5060   41.9980 H   0  0  0  0  0  0  0  0  0  0  0  0
   36.8350   23.7590   39.6100 H   0  0  0  0  0  0  0  0  0  0  0  0
   36.2230   26.1570   38.0430 S   0  0  0  0  0  0  0  0  0  0  0  0
   36.8060   27.3230   37.5140 H   0  0  0  0  0  0  0  0  0  0  0  0
  1 16  1  0  0  0  0
  1 10  1  0  0  0  0
  2  1  2  0  0  0  0
  3  2  1  0  0  0  0
  4  3  1  0  0  0  0
  5  4  2  0  0  0  0
  6  4  1  0  0  0  0
  6  7  1  0  0  0  0
  8  6  1  1  0  0  0
  8  3  1  0  0  0  0
  8  9  1  0  0  0  0
  9 10  1  0  0  0  0
 11 10  1  0  0  0  0
 12 14  1  0  0  0  0
 12  2  1  0  0  0  0
 13 12  2  0  0  0  0
 14 15  1  0  0  0  0
 17 23  1  0  0  0  0
 17 22  1  0  0  0  0
 18 17  2  0  0  0  0
 19 18  1  0  0  0  0
 19 20  2  0  0  0  0
 20 21  1  0  0  0  0
 21 22  2  0  0  0  0
 21 16  1  0  0  0  0
 24 18  1  0  0  0  0
 25 19  1  0  0  0  0
 26 25  1  0  0  0  0
M  END
>  <minimizedAffinity>
-5.25223446

$$$$

 OpenBabel03242523393D

 26 28  0  0  1  0  0  0  0  0999 V2000
   39.3420   28.4690   42.8920 C   0  0  0  0  0  0  0  0  0  0  0  0
   38.4610   27.5120   42.8630 C   0  0  0  0  0  0  0  0  0  0  0  0
   38.8300   26.1490   42.8760 N   0  0  0  0  0  0  0  0  0  0  0  0
   38.6130   24.8060   42.4920 C   0  0  0  0  0  0  0  0  0  0  0  0
   37.7020   24.1270   41.9070 O   0  0  0  0  0  0  0  0  0  0  0  0
   39.8910   24.3180   43.0170 C   0  0  0  0  0  3  0  0  0  0  0  0
   40.5970   24.0680   42.1980 H   0  0  0  0  0  0  0  0  0  0  0  0
   40.0020   25.6870   43.5920 C   0  0  1  0  0  3  0  0  0  0  0  0
   41.4000   26.6360   42.8800 S   0  0  0  0  0  0  0  0  0  0  0  0
   40.8010   28.3190   42.9390 C   0  0  0  0  0  3  0  0  0  0  0  0
   41.1580   28.7760   43.9030 H   0  0  0  0  0  0  0  0  0  0  0  0
   37.0270   27.7660   42.8160 C   0  0  0  0  0  0  0  0  0  0  0  0
   36.1630   27.3440   43.6250 O   0  0  0  0  0  0  0  0  0  0  0  0
   35.9610   28.3680   42.1770 O   0  0  0  0  0  0  0  0  0  0  0  0
   35.5610   27.9930   41.3080 H   0  0  0  0  0  0  0  0  0  0  0  0
   38.9640   29.8900   42.8800 C   0  0  0  0  0  2  0  0  0  0  0  0
   38.3970   30.6510   39.2500 C   0  0  0  0  0  0  0  0  0  0  0  0
   39.2190   31.8080   39.1070 C   0  0  0  0  0  0  0  0  0  0  0  0
   39.9130   32.2590   40.2420 C   0  0  0  0  0  0  0  0  0  0  0  0
   39.7630   31.5750   41.3970 N   0  0  0  0  0  0  0  0  0  0  0  0
   38.9710   30.4770   41.4970 C   0  0  0  0  0  0  0  0  0  0  0  0
   38.2990   30.0280   40.4300 N   0  0  0  0  0  0  0  0  0  0  0  0
   37.8650   30.3000   38.3960 H   0  0  0  0  0  0  0  0  0  0  0  0
   39.2890   32.2990   38.1550 H   0  0  0  0  0  0  0  0  0  0  0  0
   40.9530   33.6970   40.1180 S   0  0  0  0  0  0  0  0  0  0  0  0
   42.1290   33.5670   40.8800 H   0  0  0  0  0  0  0  0  0  0  0  0
  1 10  1  0  0  0  0
  2  3  1  0  0  0  0
  2  1  2  0  0  0  0
  3  8  1  0  0  0  0
  4  3  1  0  0  0  0
  4  6  1  0  0  0  0
  5  4  2  0  0  0  0
  6  8  1  0  0  0  0
  7  6  1  0  0  0  0
  8  9  1  6  0  0  0
  9 10  1  0  0  0  0
 10 11  1  0  0  0  0
 12  2  1  0  0  0  0
 12 13  2  0  0  0  0
 14 12  1  0  0  0  0
 15 14  1  0  0  0  0
 16  1  1  0  0  0  0
 17 22  1  0  0  0  0
 18 17  2  0  0  0  0
 18 19  1  0  0  0  0
 19 20  2  0  0  0  0
 20 21  1  0  0  0  0
 21 16  1  0  0  0  0
 22 21  2  0  0  0  0
 23 17  1  0  0  0  0
 24 18  1  0  0  0  0
 25 19  1  0  0  0  0
 25 26  1  0  0  0  0
M  END
>  <minimizedAffinity>
-5.18473911

$$$$

 OpenBabel03242523393D

 26 28  0  0  1  0  0  0  0  0999 V2000
   36.2510   28.8500   40.3670 C   0  0  0  0  0  0  0  0  0  0  0  0
   36.6080   27.9180   41.2020 C   0  0  0  0  0  0  0  0  0  0  0  0
   36.9430   26.6140   40.7760 N   0  0  0  0  0  0  0  0  0  0  0  0
   36.9760   25.2160   40.9840 C   0  0  0  0  0  0  0  0  0  0  0  0
   36.7320   24.3970   41.9330 O   0  0  0  0  0  0  0  0  0  0  0  0
   37.4310   24.8990   39.6270 C   0  0  0  0  0  3  0  0  0  0  0  0
   36.6220   24.4360   39.0260 H   0  0  0  0  0  0  0  0  0  0  0  0
   37.5880   26.3740   39.5000 C   0  0  1  0  0  3  0  0  0  0  0  0
   36.4550   27.0950   38.2510 S   0  0  0  0  0  0  0  0  0  0  0  0
   36.1340   28.7260   38.9100 C   0  0  0  0  0  3  0  0  0  0  0  0
   36.8770   29.4340   38.4480 H   0  0  0  0  0  0  0  0  0  0  0  0
   36.6940   28.1420   42.6390 C   0  0  0  0  0  0  0  0  0  0  0  0
   36.2610   27.3850   43.5440 O   0  0  0  0  0  0  0  0  0  0  0  0
   37.1050   28.9510   43.6800 O   0  0  0  0  0  0  0  0  0  0  0  0
   36.6030   29.8100   43.9360 H   0  0  0  0  0  0  0  0  0  0  0  0
   35.9030   30.2100   40.8040 C   0  0  0  0  0  2  0  0  0  0  0  0
   38.0720   33.0690   39.7060 C   0  0  0  0  0  0  0  0  0  0  0  0
   39.2650   32.7660   40.4260 C   0  0  0  0  0  0  0  0  0  0  0  0
   39.2650   31.6190   41.2360 C   0  0  0  0  0  0  0  0  0  0  0  0
   38.1410   30.8720   41.2860 N   0  0  0  0  0  0  0  0  0  0  0  0
   37.0220   31.1890   40.5870 C   0  0  0  0  0  0  0  0  0  0  0  0
   36.9970   32.2780   39.8080 N   0  0  0  0  0  0  0  0  0  0  0  0
   38.0590   33.9370   39.0880 H   0  0  0  0  0  0  0  0  0  0  0  0
   40.1210   33.4080   40.3350 H   0  0  0  0  0  0  0  0  0  0  0  0
   40.7290   31.1950   42.1550 S   0  0  0  0  0  0  0  0  0  0  0  0
   40.9490   29.8050   42.1890 H   0  0  0  0  0  0  0  0  0  0  0  0
  1 16  1  0  0  0  0
  1  2  2  0  0  0  0
  2 12  1  0  0  0  0
  3  4  1  0  0  0  0
  3  2  1  0  0  0  0
  4  5  2  0  0  0  0
  6  4  1  0  0  0  0
  7  6  1  0  0  0  0
  8  9  1  6  0  0  0
  8  6  1  0  0  0  0
  8  3  1  0  0  0  0
  9 10  1  0  0  0  0
 10  1  1  0  0  0  0
 11 10  1  0  0  0  0
 12 13  2  0  0  0  0
 12 14  1  0  0  0  0
 14 15  1  0  0  0  0
 17 22  2  0  0  0  0
 17 18  1  0  0  0  0
 18 19  2  0  0  0  0
 19 20  1  0  0  0  0
 19 25  1  0  0  0  0
 21 16  1  0  0  0  0
 21 20  2  0  0  0  0
 22 21  1  0  0  0  0
 23 17  1  0  0  0  0
 24 18  1  0  0  0  0
 25 26  1  0  0  0  0
M  END
>  <minimizedAffinity>
-5.16966534

$$$$

 OpenBabel03242523393D

 26 28  0  0  1  0  0  0  0  0999 V2000
   36.9010   28.1300   40.3110 C   0  0  0  0  0  0  0  0  0  0  0  0
   36.7510   29.3090   39.7810 C   0  0  0  0  0  0  0  0  0  0  0  0
   36.8720   29.5310   38.3920 N   0  0  0  0  0  0  0  0  0  0  0  0
   37.2370   30.3490   37.2980 C   0  0  0  0  0  0  0  0  0  0  0  0
   37.6110   31.5550   37.1050 O   0  0  0  0  0  0  0  0  0  0  0  0
   37.0490   29.3010   36.2910 C   0  0  0  0  0  3  0  0  0  0  0  0
   38.0200   28.9420   35.8930 H   0  0  0  0  0  0  0  0  0  0  0  0
   36.4710   28.5290   37.4250 C   0  0  1  0  0  3  0  0  0  0  0  0
   37.4640   27.0440   37.8400 S   0  0  0  0  0  0  0  0  0  0  0  0
   37.2080   26.8820   39.6030 C   0  0  0  0  0  3  0  0  0  0  0  0
   36.3410   26.1820   39.7590 H   0  0  0  0  0  0  0  0  0  0  0  0
   36.4460   30.4930   40.5740 C   0  0  0  0  0  0  0  0  0  0  0  0
   37.1710   31.5110   40.7140 O   0  0  0  0  0  0  0  0  0  0  0  0
   35.5670   31.1540   41.4090 O   0  0  0  0  0  0  0  0  0  0  0  0
   35.4560   30.9000   42.3980 H   0  0  0  0  0  0  0  0  0  0  0  0
   36.7740   27.8920   41.7560 C   0  0  0  0  0  2  0  0  0  0  0  0
   39.6290   26.3180   43.6140 C   0  0  0  0  0  0  0  0  0  0  0  0
   40.6140   27.3410   43.4680 C   0  0  0  0  0  0  0  0  0  0  0  0
   40.2540   28.4950   42.7540 C   0  0  0  0  0  0  0  0  0  0  0  0
   39.0040   28.5710   42.2490 N   0  0  0  0  0  0  0  0  0  0  0  0
   38.0920   27.5790   42.4060 C   0  0  0  0  0  0  0  0  0  0  0  0
   38.4100   26.4690   43.0830 N   0  0  0  0  0  0  0  0  0  0  0  0
   39.8900   25.4380   44.1530 H   0  0  0  0  0  0  0  0  0  0  0  0
   41.5880   27.2090   43.8990 H   0  0  0  0  0  0  0  0  0  0  0  0
   41.4450   29.8010   42.5430 S   0  0  0  0  0  0  0  0  0  0  0  0
   40.8540   31.0750   42.6290 H   0  0  0  0  0  0  0  0  0  0  0  0
  1 16  1  0  0  0  0
  2  1  2  0  0  0  0
  2 12  1  0  0  0  0
  3  2  1  0  0  0  0
  4  3  1  0  0  0  0
  5  4  2  0  0  0  0
  6  4  1  0  0  0  0
  7  6  1  0  0  0  0
  8  6  1  6  0  0  0
  8  9  1  0  0  0  0
  8  3  1  0  0  0  0
  9 10  1  0  0  0  0
 10 11  1  0  0  0  0
 10  1  1  0  0  0  0
 12 13  2  0  0  0  0
 12 14  1  0  0  0  0
 14 15  1  0  0  0  0
 16 21  1  0  0  0  0
 17 23  1  0  0  0  0
 18 17  1  0  0  0  0
 18 24  1  0  0  0  0
 19 18  2  0  0  0  0
 20 21  2  0  0  0  0
 20 19  1  0  0  0  0
 21 22  1  0  0  0  0
 22 17  2  0  0  0  0
 25 26  1  0  0  0  0
 25 19  1  0  0  0  0
M  END
>  <minimizedAffinity>
-5.06533194

$$$$

 OpenBabel03242523393D

 26 28  0  0  1  0  0  0  0  0999 V2000
   37.2280   28.9340   42.0420 C   0  0  0  0  0  0  0  0  0  0  0  0
   38.1210   29.8110   41.6840 C   0  0  0  0  0  0  0  0  0  0  0  0
   37.9340   30.6650   40.5760 N   0  0  0  0  0  0  0  0  0  0  0  0
   38.4440   31.3950   39.4780 C   0  0  0  0  0  0  0  0  0  0  0  0
   39.5870   31.7130   39.0050 O   0  0  0  0  0  0  0  0  0  0  0  0
   37.1270   31.7460   38.9390 C   0  0  0  0  0  3  0  0  0  0  0  0
   36.9060   31.1820   38.0090 H   0  0  0  0  0  0  0  0  0  0  0  0
   36.6200   31.1550   40.2080 C   0  0  1  0  0  3  0  0  0  0  0  0
   35.6120   29.6500   39.9270 S   0  0  0  0  0  0  0  0  0  0  0  0
   35.9350   28.6830   41.3960 C   0  0  0  0  0  3  0  0  0  0  0  0
   35.1300   28.9200   42.1460 H   0  0  0  0  0  0  0  0  0  0  0  0
   39.3810   29.9840   42.3950 C   0  0  0  0  0  0  0  0  0  0  0  0
   39.8130   31.0460   42.9100 O   0  0  0  0  0  0  0  0  0  0  0  0
   40.5540   29.4230   42.8600 O   0  0  0  0  0  0  0  0  0  0  0  0
   41.3450   29.2140   42.2380 H   0  0  0  0  0  0  0  0  0  0  0  0
   37.4160   28.0430   43.1970 C   0  0  0  0  0  2  0  0  0  0  0  0
   37.7440   24.4940   42.0260 C   0  0  0  0  0  0  0  0  0  0  0  0
   39.1530   24.3160   42.1630 C   0  0  0  0  0  0  0  0  0  0  0  0
   39.9040   25.4030   42.6400 C   0  0  0  0  0  0  0  0  0  0  0  0
   39.2530   26.5470   42.9410 N   0  0  0  0  0  0  0  0  0  0  0  0
   37.9100   26.6810   42.7990 C   0  0  0  0  0  0  0  0  0  0  0  0
   37.1720   25.6600   42.3460 N   0  0  0  0  0  0  0  0  0  0  0  0
   37.1640   23.6760   41.6650 H   0  0  0  0  0  0  0  0  0  0  0  0
   39.6010   23.3760   41.9030 H   0  0  0  0  0  0  0  0  0  0  0  0
   41.6660   25.2350   42.8290 S   0  0  0  0  0  0  0  0  0  0  0  0
   42.1400   25.8950   43.9780 H   0  0  0  0  0  0  0  0  0  0  0  0
  1 16  1  0  0  0  0
  2  1  2  0  0  0  0
  2 12  1  0  0  0  0
  3  2  1  0  0  0  0
  4  3  1  0  0  0  0
  5  4  2  0  0  0  0
  6  4  1  0  0  0  0
  7  6  1  0  0  0  0
  8  6  1  6  0  0  0
  8  3  1  0  0  0  0
  9  8  1  0  0  0  0
  9 10  1  0  0  0  0
 10  1  1  0  0  0  0
 10 11  1  0  0  0  0
 12 14  1  0  0  0  0
 12 13  2  0  0  0  0
 15 14  1  0  0  0  0
 17 18  2  0  0  0  0
 17 22  1  0  0  0  0
 18 19  1  0  0  0  0
 19 25  1  0  0  0  0
 19 20  2  0  0  0  0
 21 20  1  0  0  0  0
 21 16  1  0  0  0  0
 22 21  2  0  0  0  0
 23 17  1  0  0  0  0
 24 18  1  0  0  0  0
 25 26  1  0  0  0  0
M  END
>  <minimizedAffinity>
-5.02685547

$$$$

 OpenBabel03242523393D

 26 28  0  0  1  0  0  0  0  0999 V2000
   39.4280   31.1890   41.3520 C   0  0  0  0  0  0  0  0  0  0  0  0
   38.1590   30.9900   41.1370 C   0  0  0  0  0  0  0  0  0  0  0  0
   37.4860   29.8430   41.6100 N   0  0  0  0  0  0  0  0  0  0  0  0
   36.4920   28.8490   41.4710 C   0  0  0  0  0  0  0  0  0  0  0  0
   35.5010   28.6050   40.7010 O   0  0  0  0  0  0  0  0  0  0  0  0
   36.9560   28.0470   42.6070 C   0  0  0  0  0  3  0  0  0  0  0  0
   37.4430   27.1090   42.2700 H   0  0  0  0  0  0  0  0  0  0  0  0
   37.8560   29.2070   42.8580 C   0  0  1  0  0  3  0  0  0  0  0  0
   39.6280   28.7740   42.6660 S   0  0  0  0  0  0  0  0  0  0  0  0
   40.3430   30.3050   42.0820 C   0  0  0  0  0  3  0  0  0  0  0  0
   40.7180   30.8710   42.9790 H   0  0  0  0  0  0  0  0  0  0  0  0
   37.3320   31.9330   40.3960 C   0  0  0  0  0  0  0  0  0  0  0  0
   36.7150   31.7100   39.3240 O   0  0  0  0  0  0  0  0  0  0  0  0
   36.8030   33.2050   40.2940 O   0  0  0  0  0  0  0  0  0  0  0  0
   37.3660   34.0090   39.9890 H   0  0  0  0  0  0  0  0  0  0  0  0
   40.1340   32.3820   40.8640 C   0  0  0  0  0  2  0  0  0  0  0  0
   41.1890   31.2150   37.4580 C   0  0  0  0  0  0  0  0  0  0  0  0
   42.4150   31.9320   37.3180 C   0  0  0  0  0  0  0  0  0  0  0  0
   42.8080   32.7630   38.3790 C   0  0  0  0  0  0  0  0  0  0  0  0
   42.0090   32.8360   39.4650 N   0  0  0  0  0  0  0  0  0  0  0  0
   40.8480   32.1390   39.5650 C   0  0  0  0  0  0  0  0  0  0  0  0
   40.4510   31.3400   38.5670 N   0  0  0  0  0  0  0  0  0  0  0  0
   40.8800   30.5810   36.6590 H   0  0  0  0  0  0  0  0  0  0  0  0
   42.9980   31.8230   36.4230 H   0  0  0  0  0  0  0  0  0  0  0  0
   44.3280   33.6800   38.2560 S   0  0  0  0  0  0  0  0  0  0  0  0
   45.0120   33.7380   39.4860 H   0  0  0  0  0  0  0  0  0  0  0  0
  1 10  1  0  0  0  0
  2  1  2  0  0  0  0
  2  3  1  0  0  0  0
  3  8  1  0  0  0  0
  4  3  1  0  0  0  0
  4  6  1  0  0  0  0
  5  4  2  0  0  0  0
  7  6  1  0  0  0  0
  8  6  1  6  0  0  0
  9  8  1  0  0  0  0
 10  9  1  0  0  0  0
 10 11  1  0  0  0  0
 12  2  1  0  0  0  0
 13 12  2  0  0  0  0
 14 12  1  0  0  0  0
 15 14  1  0  0  0  0
 16  1  1  0  0  0  0
 17 22  1  0  0  0  0
 18 17  2  0  0  0  0
 18 19  1  0  0  0  0
 19 20  2  0  0  0  0
 20 21  1  0  0  0  0
 21 16  1  0  0  0  0
 22 21  2  0  0  0  0
 23 17  1  0  0  0  0
 24 18  1  0  0  0  0
 25 19  1  0  0  0  0
 25 26  1  0  0  0  0
M  END
>  <minimizedAffinity>
-4.98053741

$$$$

 OpenBabel03242523393D

 26 28  0  0  1  0  0  0  0  0999 V2000
   36.6250   29.9840   40.4220 C   0  0  0  0  0  0  0  0  0  0  0  0
   37.5380   30.3200   41.2880 C   0  0  0  0  0  0  0  0  0  0  0  0
   38.4130   31.4070   41.0760 N   0  0  0  0  0  0  0  0  0  0  0  0
   39.6750   32.0240   41.2250 C   0  0  0  0  0  0  0  0  0  0  0  0
   40.7620   31.8090   41.8610 O   0  0  0  0  0  0  0  0  0  0  0  0
   39.3730   33.1450   40.3300 C   0  0  0  0  0  3  0  0  0  0  0  0
   39.9230   33.0570   39.3700 H   0  0  0  0  0  0  0  0  0  0  0  0
   37.9910   32.5910   40.3550 C   0  0  1  0  0  3  0  0  0  0  0  0
   37.4510   31.9810   38.7120 S   0  0  0  0  0  0  0  0  0  0  0  0
   36.3540   30.6350   39.1360 C   0  0  0  0  0  3  0  0  0  0  0  0
   35.3080   31.0460   39.1780 H   0  0  0  0  0  0  0  0  0  0  0  0
   37.7290   29.6060   42.5440 C   0  0  0  0  0  0  0  0  0  0  0  0
   38.8210   29.2080   43.0230 O   0  0  0  0  0  0  0  0  0  0  0  0
   37.1680   29.0500   43.6770 O   0  0  0  0  0  0  0  0  0  0  0  0
   36.6680   28.1530   43.6550 H   0  0  0  0  0  0  0  0  0  0  0  0
   35.7100   28.8540   40.6390 C   0  0  0  0  0  2  0  0  0  0  0  0
   36.7570   25.9370   38.5260 C   0  0  0  0  0  0  0  0  0  0  0  0
   37.3750   25.1190   39.5190 C   0  0  0  0  0  0  0  0  0  0  0  0
   37.3990   25.6030   40.8370 C   0  0  0  0  0  0  0  0  0  0  0  0
   36.8400   26.8060   41.0880 N   0  0  0  0  0  0  0  0  0  0  0  0
   36.2610   27.5570   40.1190 C   0  0  0  0  0  0  0  0  0  0  0  0
   36.2240   27.1190   38.8540 N   0  0  0  0  0  0  0  0  0  0  0  0
   36.7330   25.5810   37.5220 H   0  0  0  0  0  0  0  0  0  0  0  0
   37.7990   24.1720   39.2430 H   0  0  0  0  0  0  0  0  0  0  0  0
   38.1570   24.6220   42.1150 S   0  0  0  0  0  0  0  0  0  0  0  0
   37.4510   24.6990   43.3300 H   0  0  0  0  0  0  0  0  0  0  0  0
  1 16  1  0  0  0  0
  1  2  2  0  0  0  0
  2 12  1  0  0  0  0
  3  4  1  0  0  0  0
  3  2  1  0  0  0  0
  4  5  2  0  0  0  0
  6  8  1  0  0  0  0
  6  4  1  0  0  0  0
  7  6  1  0  0  0  0
  8  9  1  6  0  0  0
  8  3  1  0  0  0  0
  9 10  1  0  0  0  0
 10 11  1  0  0  0  0
 10  1  1  0  0  0  0
 12 13  2  0  0  0  0
 12 14  1  0  0  0  0
 15 14  1  0  0  0  0
 17 22  2  0  0  0  0
 17 18  1  0  0  0  0
 18 19  2  0  0  0  0
 19 20  1  0  0  0  0
 19 25  1  0  0  0  0
 21 16  1  0  0  0  0
 21 20  2  0  0  0  0
 22 21  1  0  0  0  0
 23 17  1  0  0  0  0
 24 18  1  0  0  0  0
 25 26  1  0  0  0  0
M  END
>  <minimizedAffinity>
-4.96876574

$$$$
