
 OpenBabel03242520013D

 37 40  0  0  1  0  0  0  0  0999 V2000
   44.6700   33.1120   41.1990 Br  0  0  0  0  0  0  0  0  0  0  0  0
   46.3290   34.0270   41.0280 C   0  0  0  0  0  0  0  0  0  0  0  0
   46.8700   34.7700   42.0620 C   0  0  0  0  0  0  0  0  0  0  0  0
   48.0820   35.4100   41.8440 C   0  0  0  0  0  0  0  0  0  0  0  0
   48.7540   35.3270   40.6390 C   0  0  0  0  0  0  0  0  0  0  0  0
   48.2160   34.5850   39.6050 C   0  0  0  0  0  0  0  0  0  0  0  0
   47.0040   33.9520   39.8400 C   0  0  0  0  0  0  0  0  0  0  0  0
   48.4820   35.9760   42.6500 H   0  0  0  0  0  0  0  0  0  0  0  0
   49.7000   35.8700   40.5760 H   0  0  0  0  0  0  0  0  0  0  0  0
   48.7570   34.5300   38.6610 H   0  0  0  0  0  0  0  0  0  0  0  0
   44.5100   35.7970   44.8320 C   0  0  0  0  0  0  0  0  0  0  0  0
   45.2010   35.7870   43.6100 C   0  0  0  0  0  0  0  0  0  0  0  0
   46.1320   34.8210   43.3120 C   0  0  0  0  0  0  0  0  0  0  0  0
   46.3210   33.8830   44.2990 N   0  0  0  0  0  0  0  0  0  0  0  0
   45.6580   33.9010   45.4610 C   0  0  0  0  0  0  0  0  0  0  0  0
   44.7660   34.8400   45.7290 N   0  0  0  0  0  0  0  0  0  0  0  0
   43.7800   36.5510   45.0720 H   0  0  0  0  0  0  0  0  0  0  0  0
   44.9910   36.5530   42.9010 H   0  0  0  0  0  0  0  0  0  0  0  0
   45.9710   33.0680   46.0800 H   0  0  0  0  0  0  0  0  0  0  0  0
   46.4740   33.1620   38.7500 C   0  0  1  0  0  3  0  0  0  0  0  0
   45.2550   33.3320   38.3750 O   0  0  0  0  0  1  0  0  0  0  0  0
   46.8000   29.4840   34.8150 C   0  0  0  0  0  0  0  0  0  0  0  0
   47.1220   30.7430   34.7500 C   0  0  0  0  0  0  0  0  0  0  0  0
   47.1230   31.5790   35.8730 N   0  0  0  0  0  0  0  0  0  0  0  0
   47.7100   32.6320   36.6500 C   0  0  0  0  0  0  0  0  0  0  0  0
   48.4730   33.6060   36.3350 O   0  0  0  0  0  0  0  0  0  0  0  0
   47.0690   32.1060   37.8840 C   0  0  2  0  0  3  0  0  0  0  0  0
   46.0860   31.4870   36.8850 C   0  0  2  0  0  3  0  0  0  0  0  0
   45.7930   29.7560   37.3600 S   0  0  0  0  0  0  0  0  0  0  0  0
   46.4010   28.7390   36.0160 C   0  0  0  0  0  3  0  0  0  0  0  0
   45.5380   28.0790   35.7040 H   0  0  0  0  0  0  0  0  0  0  0  0
   46.8510   28.7450   33.5290 C   0  0  0  0  0  2  0  0  0  0  0  0
   46.4400   29.3740   32.6940 H   0  0  0  0  0  0  0  0  0  0  0  0
   47.4900   31.2710   33.4430 C   0  0  0  0  0  0  0  0  0  0  0  0
   47.7390   32.5020   33.2230 O   0  0  0  0  0  0  0  0  0  0  0  0
   47.8160   31.5520   32.1440 O   0  0  0  0  0  0  0  0  0  0  0  0
   47.8970   30.8410   31.4080 H   0  0  0  0  0  0  0  0  0  0  0  0
  2  1  1  0  0  0  0
  2  3  1  0  0  0  0
  3 13  1  0  0  0  0
  4  3  2  0  0  0  0
  4  8  1  0  0  0  0
  5  4  1  0  0  0  0
  6  7  1  0  0  0  0
  6  5  2  0  0  0  0
  7  2  2  0  0  0  0
  9  5  1  0  0  0  0
 10  6  1  0  0  0  0
 11 17  1  0  0  0  0
 11 16  1  0  0  0  0
 12 11  2  0  0  0  0
 13 12  1  0  0  0  0
 13 14  2  0  0  0  0
 14 15  1  0  0  0  0
 15 16  2  0  0  0  0
 15 19  1  0  0  0  0
 18 12  1  0  0  0  0
 20 21  1  6  0  0  0
 20  7  1  0  0  0  0
 22 30  1  0  0  0  0
 23 22  2  0  0  0  0
 23 24  1  0  0  0  0
 24 25  1  0  0  0  0
 24 28  1  0  0  0  0
 25 27  1  0  0  0  0
 26 25  2  0  0  0  0
 27 20  1  1  0  0  0
 28 29  1  1  0  0  0
 28 27  1  0  0  0  0
 30 29  1  0  0  0  0
 31 30  1  0  0  0  0
 32 22  1  0  0  0  0
 33 32  1  0  0  0  0
 34 23  1  0  0  0  0
 35 34  2  0  0  0  0
 36 34  1  0  0  0  0
 37 36  1  0  0  0  0
M  END
>  <minimizedAffinity>
-6.6305666

>  <minimizedRMSD>
3.08028293

$$$$
