
 OpenBabel03242519013D

 46 50  0  0  1  0  0  0  0  0999 V2000
   38.3180   28.9300   42.6680 C   0  0  0  0  0  0  0  0  0  0  0  0
   39.7180   28.9620   42.6070 C   0  0  0  0  0  0  0  0  0  0  0  0
   40.2880   29.8290   41.6590 C   0  0  0  0  0  0  0  0  0  0  0  0
   39.4410   30.5690   40.8790 N   0  0  0  0  0  0  0  0  0  0  0  0
   38.0760   30.4960   40.9880 C   0  0  0  0  0  0  0  0  0  0  0  0
   37.4970   29.6650   41.8930 N   0  0  0  0  0  0  0  0  0  0  0  0
   40.4240   28.4490   43.1900 H   0  0  0  0  0  0  0  0  0  0  0  0
   41.3530   29.9440   41.5120 H   0  0  0  0  0  0  0  0  0  0  0  0
   37.7220   28.0280   43.6500 C   0  0  1  0  0  0  0  0  0  0  0  0
   36.2950   27.5910   43.4800 C   0  0  0  0  0  0  0  0  0  0  0  0
   37.2770   26.6280   43.3000 C   0  0  1  0  0  0  0  0  0  0  0  0
   38.1640   28.1780   44.6710 H   0  0  0  0  0  0  0  0  0  0  0  0
   35.7270   27.6240   44.4600 H   0  0  0  0  0  0  0  0  0  0  0  0
   35.6750   28.0980   42.7000 H   0  0  0  0  0  0  0  0  0  0  0  0
   37.6350   25.9280   44.0900 H   0  0  0  0  0  0  0  0  0  0  0  0
   37.4830   26.0180   41.9590 C   0  0  0  0  0  0  0  0  0  0  0  0
   36.8740   26.4910   40.8210 C   0  0  0  0  0  0  0  0  0  0  0  0
   36.9990   25.9380   39.5770 C   0  0  0  0  0  0  0  0  0  0  0  0
   37.7960   24.8230   39.4520 C   0  0  0  0  0  0  0  0  0  0  0  0
   38.4310   24.3110   40.5820 C   0  0  0  0  0  0  0  0  0  0  0  0
   38.2600   24.9160   41.7970 C   0  0  0  0  0  0  0  0  0  0  0  0
   36.2400   27.3730   40.8910 H   0  0  0  0  0  0  0  0  0  0  0  0
   36.4850   26.3700   38.7260 H   0  0  0  0  0  0  0  0  0  0  0  0
   37.8650   24.4130   38.4320 H   0  0  0  0  0  0  0  0  0  0  0  0
   39.0110   23.4410   40.3020 H   0  0  0  0  0  0  0  0  0  0  0  0
   40.3620   24.6530   42.9210 C   0  0  0  0  0  0  0  0  0  0  0  0
   40.4860   25.6480   42.2040 O   0  0  0  0  0  0  0  0  0  0  0  0
   39.0230   24.1540   42.7500 N   0  0  0  0  0  0  0  0  0  0  0  0
   40.9790   24.0860   43.6150 H   0  0  0  0  0  0  0  0  0  0  0  0
   38.5780   23.3200   43.2400 H   0  0  0  0  0  0  0  0  0  0  0  0
   37.2210   31.3510   40.0850 C   0  0  0  0  0  2  0  0  0  0  0  0
   36.6900   30.5780   38.9540 C   0  0  0  0  0  0  0  0  0  0  0  0
   37.2000   30.6210   37.7350 C   0  0  0  0  0  0  0  0  0  0  0  0
   36.6100   29.8260   36.7180 N   0  0  0  0  0  0  0  0  0  0  0  0
   36.2600   29.7200   35.3540 C   0  0  0  0  0  0  0  0  0  0  0  0
   36.4180   30.3440   34.2690 O   0  0  0  0  0  0  0  0  0  0  0  0
   35.5190   28.4530   35.5390 C   0  0  0  0  0  3  0  0  0  0  0  0
   34.4200   28.5730   35.4330 H   0  0  0  0  0  0  0  0  0  0  0  0
   36.0480   28.5050   36.9290 C   0  0  2  0  0  3  0  0  0  0  0  0
   34.7730   28.7360   38.2180 S   0  0  0  0  0  0  0  0  0  0  0  0
   35.5330   29.8080   39.4640 C   0  0  0  0  0  3  0  0  0  0  0  0
   34.7390   30.5370   39.8020 H   0  0  0  0  0  0  0  0  0  0  0  0
   38.3480   31.4410   37.3720 C   0  0  0  0  0  0  0  0  0  0  0  0
   39.5360   31.5940   37.7290 O   0  0  0  0  0  0  0  0  0  0  0  0
   38.3190   32.3830   36.3680 O   0  0  0  0  0  0  0  0  0  0  0  0
   38.6420   33.3410   36.4060 H   0  0  0  0  0  0  0  0  0  0  0  0
  1  9  1  0  0  0  0
  2  1  1  0  0  0  0
  2  7  1  0  0  0  0
  3  2  2  0  0  0  0
  4  5  2  0  0  0  0
  4  3  1  0  0  0  0
  5  6  1  0  0  0  0
  6  1  2  0  0  0  0
  8  3  1  0  0  0  0
  9 12  1  1  0  0  0
 10  9  1  0  0  0  0
 10 13  1  0  0  0  0
 11 10  1  0  0  0  0
 11  9  1  0  0  0  0
 11 15  1  1  0  0  0
 14 10  1  0  0  0  0
 16 11  1  0  0  0  0
 17 22  1  0  0  0  0
 17 16  2  0  0  0  0
 18 17  1  0  0  0  0
 19 18  2  0  0  0  0
 19 20  1  0  0  0  0
 20 21  2  0  0  0  0
 21 16  1  0  0  0  0
 21 28  1  0  0  0  0
 23 18  1  0  0  0  0
 24 19  1  0  0  0  0
 25 20  1  0  0  0  0
 26 29  1  0  0  0  0
 27 26  2  0  0  0  0
 28 26  1  0  0  0  0
 28 30  1  0  0  0  0
 31  5  1  0  0  0  0
 32 41  1  0  0  0  0
 32 31  1  0  0  0  0
 33 32  2  0  0  0  0
 34 39  1  0  0  0  0
 34 33  1  0  0  0  0
 35 37  1  0  0  0  0
 35 34  1  0  0  0  0
 36 35  2  0  0  0  0
 38 37  1  0  0  0  0
 39 37  1  6  0  0  0
 39 40  1  0  0  0  0
 40 41  1  0  0  0  0
 41 42  1  0  0  0  0
 43 44  2  0  0  0  0
 43 33  1  0  0  0  0
 45 46  1  0  0  0  0
 45 43  1  0  0  0  0
M  END
>  <minimizedAffinity>
-6.80147314

$$$$

 OpenBabel03242519013D

 46 50  0  0  1  0  0  0  0  0999 V2000
   36.9570   29.4130   41.9390 C   0  0  0  0  0  0  0  0  0  0  0  0
   35.9840   28.6280   41.3060 C   0  0  0  0  0  0  0  0  0  0  0  0
   35.4170   29.1530   40.1320 C   0  0  0  0  0  0  0  0  0  0  0  0
   35.8570   30.3760   39.7010 N   0  0  0  0  0  0  0  0  0  0  0  0
   36.8160   31.0970   40.3650 C   0  0  0  0  0  0  0  0  0  0  0  0
   37.3800   30.6150   41.5030 N   0  0  0  0  0  0  0  0  0  0  0  0
   35.6230   27.6760   41.5600 H   0  0  0  0  0  0  0  0  0  0  0  0
   34.6570   28.6480   39.5520 H   0  0  0  0  0  0  0  0  0  0  0  0
   37.5470   28.8710   43.1610 C   0  0  1  0  0  0  0  0  0  0  0  0
   37.0790   27.5420   43.6800 C   0  0  0  0  0  0  0  0  0  0  0  0
   38.3690   27.6050   43.1720 C   0  0  1  0  0  0  0  0  0  0  0  0
   37.8650   29.6880   43.8620 H   0  0  0  0  0  0  0  0  0  0  0  0
   36.9260   27.5610   44.8020 H   0  0  0  0  0  0  0  0  0  0  0  0
   36.1760   27.0790   43.2110 H   0  0  0  0  0  0  0  0  0  0  0  0
   39.2860   27.7760   43.7830 H   0  0  0  0  0  0  0  0  0  0  0  0
   38.7220   26.8500   41.9410 C   0  0  0  0  0  0  0  0  0  0  0  0
   37.9880   25.7820   41.4830 C   0  0  0  0  0  0  0  0  0  0  0  0
   38.2960   25.0320   40.3830 C   0  0  0  0  0  0  0  0  0  0  0  0
   39.4280   25.3700   39.6770 C   0  0  0  0  0  0  0  0  0  0  0  0
   40.2000   26.4470   40.1080 C   0  0  0  0  0  0  0  0  0  0  0  0
   39.8320   27.1540   41.2190 C   0  0  0  0  0  0  0  0  0  0  0  0
   37.0860   25.4930   42.0220 H   0  0  0  0  0  0  0  0  0  0  0  0
   37.6650   24.2010   40.0860 H   0  0  0  0  0  0  0  0  0  0  0  0
   39.6360   24.7380   38.7990 H   0  0  0  0  0  0  0  0  0  0  0  0
   41.0450   26.5700   39.4410 H   0  0  0  0  0  0  0  0  0  0  0  0
   40.6750   29.2780   40.4940 C   0  0  0  0  0  0  0  0  0  0  0  0
   39.6850   29.0520   39.7950 O   0  0  0  0  0  0  0  0  0  0  0  0
   40.8260   28.1780   41.4090 N   0  0  0  0  0  0  0  0  0  0  0  0
   41.4250   30.0610   40.5890 H   0  0  0  0  0  0  0  0  0  0  0  0
   41.5650   28.0650   42.1650 H   0  0  0  0  0  0  0  0  0  0  0  0
   37.2400   32.4370   39.8140 C   0  0  0  0  0  2  0  0  0  0  0  0
   38.6740   32.4590   39.4960 C   0  0  0  0  0  0  0  0  0  0  0  0
   39.1690   32.1040   38.3230 C   0  0  0  0  0  0  0  0  0  0  0  0
   40.5730   32.1710   38.1240 N   0  0  0  0  0  0  0  0  0  0  0  0
   41.7080   31.5930   37.5160 C   0  0  0  0  0  0  0  0  0  0  0  0
   42.0030   30.6790   36.6980 O   0  0  0  0  0  0  0  0  0  0  0  0
   42.6590   32.4940   38.2050 C   0  0  0  0  0  3  0  0  0  0  0  0
   43.2640   31.9770   38.9790 H   0  0  0  0  0  0  0  0  0  0  0  0
   41.4360   33.1890   38.6920 C   0  0  2  0  0  3  0  0  0  0  0  0
   41.1690   33.0790   40.4970 S   0  0  0  0  0  0  0  0  0  0  0  0
   39.3780   32.9270   40.7120 C   0  0  0  0  0  3  0  0  0  0  0  0
   39.2060   32.1740   41.5360 H   0  0  0  0  0  0  0  0  0  0  0  0
   38.3480   31.6500   37.2080 C   0  0  0  0  0  0  0  0  0  0  0  0
   37.6600   30.6520   36.9010 O   0  0  0  0  0  0  0  0  0  0  0  0
   38.1460   32.3900   36.0660 O   0  0  0  0  0  0  0  0  0  0  0  0
   38.2270   32.0840   35.1040 H   0  0  0  0  0  0  0  0  0  0  0  0
  1  9  1  0  0  0  0
  2  7  1  0  0  0  0
  2  1  2  0  0  0  0
  3  2  1  0  0  0  0
  4  3  2  0  0  0  0
  4  5  1  0  0  0  0
  5  6  2  0  0  0  0
  6  1  1  0  0  0  0
  8  3  1  0  0  0  0
  9 11  1  0  0  0  0
  9 10  1  0  0  0  0
  9 12  1  1  0  0  0
 10 13  1  0  0  0  0
 11 10  1  0  0  0  0
 11 15  1  1  0  0  0
 14 10  1  0  0  0  0
 16 11  1  0  0  0  0
 17 16  1  0  0  0  0
 17 22  1  0  0  0  0
 18 17  2  0  0  0  0
 19 20  2  0  0  0  0
 19 18  1  0  0  0  0
 20 21  1  0  0  0  0
 21 28  1  0  0  0  0
 21 16  2  0  0  0  0
 23 18  1  0  0  0  0
 24 19  1  0  0  0  0
 25 20  1  0  0  0  0
 26 29  1  0  0  0  0
 26 28  1  0  0  0  0
 27 26  2  0  0  0  0
 28 30  1  0  0  0  0
 31  5  1  0  0  0  0
 32 31  1  0  0  0  0
 32 41  1  0  0  0  0
 33 32  2  0  0  0  0
 34 33  1  0  0  0  0
 34 39  1  0  0  0  0
 35 34  1  0  0  0  0
 35 37  1  0  0  0  0
 36 35  2  0  0  0  0
 37 38  1  0  0  0  0
 39 37  1  1  0  0  0
 39 40  1  0  0  0  0
 40 41  1  0  0  0  0
 41 42  1  0  0  0  0
 43 33  1  0  0  0  0
 44 43  2  0  0  0  0
 45 43  1  0  0  0  0
 46 45  1  0  0  0  0
M  END
>  <minimizedAffinity>
-6.51294899

$$$$

 OpenBabel03242519013D

 46 50  0  0  1  0  0  0  0  0999 V2000
   37.1110   29.0920   41.3560 C   0  0  0  0  0  0  0  0  0  0  0  0
   35.7510   28.7620   41.4050 C   0  0  0  0  0  0  0  0  0  0  0  0
   35.0020   29.0020   40.2400 C   0  0  0  0  0  0  0  0  0  0  0  0
   35.6540   29.5320   39.1590 N   0  0  0  0  0  0  0  0  0  0  0  0
   36.9910   29.8330   39.1720 C   0  0  0  0  0  0  0  0  0  0  0  0
   37.7390   29.6130   40.2850 N   0  0  0  0  0  0  0  0  0  0  0  0
   35.1950   28.3270   42.1830 H   0  0  0  0  0  0  0  0  0  0  0  0
   33.9450   28.7920   40.1500 H   0  0  0  0  0  0  0  0  0  0  0  0
   37.8930   28.8470   42.5660 C   0  0  1  0  0  0  0  0  0  0  0  0
   37.2980   28.0250   43.6740 C   0  0  0  0  0  0  0  0  0  0  0  0
   38.3540   27.4670   42.9670 C   0  0  1  0  0  0  0  0  0  0  0  0
   38.5900   29.6980   42.7870 H   0  0  0  0  0  0  0  0  0  0  0  0
   37.4970   28.4850   44.6900 H   0  0  0  0  0  0  0  0  0  0  0  0
   36.2140   27.7610   43.6150 H   0  0  0  0  0  0  0  0  0  0  0  0
   39.4250   27.5200   43.2740 H   0  0  0  0  0  0  0  0  0  0  0  0
   38.1330   26.2570   42.1310 C   0  0  0  0  0  0  0  0  0  0  0  0
   37.0610   25.4150   42.3050 C   0  0  0  0  0  0  0  0  0  0  0  0
   36.8390   24.2700   41.5900 C   0  0  0  0  0  0  0  0  0  0  0  0
   37.7570   23.9350   40.6220 C   0  0  0  0  0  0  0  0  0  0  0  0
   38.8590   24.7620   40.4150 C   0  0  0  0  0  0  0  0  0  0  0  0
   39.0180   25.8930   41.1680 C   0  0  0  0  0  0  0  0  0  0  0  0
   36.3180   25.6570   43.0630 H   0  0  0  0  0  0  0  0  0  0  0  0
   35.9670   23.6560   41.7880 H   0  0  0  0  0  0  0  0  0  0  0  0
   37.5360   23.0050   40.0740 H   0  0  0  0  0  0  0  0  0  0  0  0
   39.4710   24.3500   39.6230 H   0  0  0  0  0  0  0  0  0  0  0  0
   41.3950   26.0430   41.4460 C   0  0  0  0  0  0  0  0  0  0  0  0
   41.0160   25.1850   42.2450 O   0  0  0  0  0  0  0  0  0  0  0  0
   40.2400   26.5150   40.7290 N   0  0  0  0  0  0  0  0  0  0  0  0
   42.3360   26.5100   41.1600 H   0  0  0  0  0  0  0  0  0  0  0  0
   40.2160   27.2400   39.9510 H   0  0  0  0  0  0  0  0  0  0  0  0
   37.6250   30.4130   37.9320 C   0  0  0  0  0  2  0  0  0  0  0  0
   38.8320   29.6690   37.5450 C   0  0  0  0  0  0  0  0  0  0  0  0
   40.0320   30.2140   37.4590 C   0  0  0  0  0  0  0  0  0  0  0  0
   41.1300   29.3970   37.0810 N   0  0  0  0  0  0  0  0  0  0  0  0
   42.3510   29.3100   36.3780 C   0  0  0  0  0  0  0  0  0  0  0  0
   43.1600   30.0530   35.7580 O   0  0  0  0  0  0  0  0  0  0  0  0
   42.4810   27.8500   36.5840 C   0  0  0  0  0  3  0  0  0  0  0  0
   42.3260   27.2650   35.6540 H   0  0  0  0  0  0  0  0  0  0  0  0
   41.2890   28.0060   37.4610 C   0  0  2  0  0  3  0  0  0  0  0  0
   39.7820   27.1750   36.8460 S   0  0  0  0  0  0  0  0  0  0  0  0
   38.4100   28.2730   37.2840 C   0  0  0  0  0  3  0  0  0  0  0  0
   37.6940   28.2730   36.4100 H   0  0  0  0  0  0  0  0  0  0  0  0
   40.3000   31.6190   37.7390 C   0  0  0  0  0  0  0  0  0  0  0  0
   40.5540   32.3410   38.7270 O   0  0  0  0  0  0  0  0  0  0  0  0
   40.3230   32.5930   36.7680 O   0  0  0  0  0  0  0  0  0  0  0  0
   39.8610   33.4930   36.7790 H   0  0  0  0  0  0  0  0  0  0  0  0
  1  2  1  0  0  0  0
  1  9  1  0  0  0  0
  2  7  1  0  0  0  0
  3  2  2  0  0  0  0
  4  5  2  0  0  0  0
  4  3  1  0  0  0  0
  5  6  1  0  0  0  0
  6  1  2  0  0  0  0
  8  3  1  0  0  0  0
  9 12  1  1  0  0  0
  9 11  1  0  0  0  0
  9 10  1  0  0  0  0
 10 13  1  0  0  0  0
 11 15  1  1  0  0  0
 11 10  1  0  0  0  0
 14 10  1  0  0  0  0
 16 17  1  0  0  0  0
 16 11  1  0  0  0  0
 17 22  1  0  0  0  0
 18 23  1  0  0  0  0
 18 17  2  0  0  0  0
 19 18  1  0  0  0  0
 20 19  2  0  0  0  0
 20 21  1  0  0  0  0
 21 16  2  0  0  0  0
 24 19  1  0  0  0  0
 25 20  1  0  0  0  0
 26 27  2  0  0  0  0
 28 21  1  0  0  0  0
 28 26  1  0  0  0  0
 29 26  1  0  0  0  0
 30 28  1  0  0  0  0
 31  5  1  0  0  0  0
 32 31  1  0  0  0  0
 33 32  2  0  0  0  0
 33 43  1  0  0  0  0
 34 33  1  0  0  0  0
 34 39  1  0  0  0  0
 35 37  1  0  0  0  0
 35 34  1  0  0  0  0
 36 35  2  0  0  0  0
 38 37  1  0  0  0  0
 39 37  1  6  0  0  0
 40 41  1  0  0  0  0
 40 39  1  0  0  0  0
 41 32  1  0  0  0  0
 42 41  1  0  0  0  0
 43 44  2  0  0  0  0
 45 46  1  0  0  0  0
 45 43  1  0  0  0  0
M  END
>  <minimizedAffinity>
-6.27202463

$$$$

 OpenBabel03242519013D

 46 50  0  0  1  0  0  0  0  0999 V2000
   38.7540   25.3520   42.6100 C   0  0  0  0  0  0  0  0  0  0  0  0
   40.0040   25.0530   43.1690 C   0  0  0  0  0  0  0  0  0  0  0  0
   40.7410   26.1350   43.6800 C   0  0  0  0  0  0  0  0  0  0  0  0
   40.1860   27.3830   43.5950 N   0  0  0  0  0  0  0  0  0  0  0  0
   38.9550   27.6130   43.0380 C   0  0  0  0  0  0  0  0  0  0  0  0
   38.2210   26.5870   42.5340 N   0  0  0  0  0  0  0  0  0  0  0  0
   40.4750   24.1230   43.2940 H   0  0  0  0  0  0  0  0  0  0  0  0
   41.7180   26.0370   44.1340 H   0  0  0  0  0  0  0  0  0  0  0  0
   37.9860   24.2310   42.0750 C   0  0  1  0  0  0  0  0  0  0  0  0
   36.5590   24.4450   41.6590 C   0  0  0  0  0  0  0  0  0  0  0  0
   37.4820   24.1980   40.6530 C   0  0  1  0  0  0  0  0  0  0  0  0
   38.3210   23.2540   42.5160 H   0  0  0  0  0  0  0  0  0  0  0  0
   35.8890   23.6020   42.0120 H   0  0  0  0  0  0  0  0  0  0  0  0
   36.0700   25.4150   41.9240 H   0  0  0  0  0  0  0  0  0  0  0  0
   37.6960   23.1950   40.2170 H   0  0  0  0  0  0  0  0  0  0  0  0
   37.7920   25.2550   39.6530 C   0  0  0  0  0  0  0  0  0  0  0  0
   36.9300   26.2860   39.3640 C   0  0  0  0  0  0  0  0  0  0  0  0
   37.1530   27.2540   38.4250 C   0  0  0  0  0  0  0  0  0  0  0  0
   38.3280   27.1930   37.7120 C   0  0  0  0  0  0  0  0  0  0  0  0
   39.2290   26.1630   37.9740 C   0  0  0  0  0  0  0  0  0  0  0  0
   38.9400   25.2270   38.9290 C   0  0  0  0  0  0  0  0  0  0  0  0
   35.9930   26.3600   39.9140 H   0  0  0  0  0  0  0  0  0  0  0  0
   36.4220   28.0370   38.2550 H   0  0  0  0  0  0  0  0  0  0  0  0
   38.4630   27.9940   36.9670 H   0  0  0  0  0  0  0  0  0  0  0  0
   40.0910   26.2690   37.3280 H   0  0  0  0  0  0  0  0  0  0  0  0
   41.2040   24.8350   39.6170 C   0  0  0  0  0  0  0  0  0  0  0  0
   40.9180   25.9610   40.0280 O   0  0  0  0  0  0  0  0  0  0  0  0
   40.0440   24.3030   38.9510 N   0  0  0  0  0  0  0  0  0  0  0  0
   42.0690   24.1740   39.6320 H   0  0  0  0  0  0  0  0  0  0  0  0
   39.9420   23.3440   38.5020 H   0  0  0  0  0  0  0  0  0  0  0  0
   38.4220   29.0240   42.9890 C   0  0  0  0  0  2  0  0  0  0  0  0
   38.7310   29.6720   41.7070 C   0  0  0  0  0  0  0  0  0  0  0  0
   37.8090   30.0770   40.8510 C   0  0  0  0  0  0  0  0  0  0  0  0
   38.2220   30.6980   39.6430 N   0  0  0  0  0  0  0  0  0  0  0  0
   37.9770   30.8800   38.2650 C   0  0  0  0  0  0  0  0  0  0  0  0
   37.1090   30.5950   37.3950 O   0  0  0  0  0  0  0  0  0  0  0  0
   39.2310   31.6350   38.0400 C   0  0  0  0  0  3  0  0  0  0  0  0
   39.9830   31.0630   37.4570 H   0  0  0  0  0  0  0  0  0  0  0  0
   39.3720   31.5740   39.5200 C   0  0  2  0  0  3  0  0  0  0  0  0
   40.7870   30.5780   40.1060 S   0  0  0  0  0  0  0  0  0  0  0  0
   40.2060   29.7480   41.6070 C   0  0  0  0  0  3  0  0  0  0  0  0
   40.6180   28.6960   41.5850 H   0  0  0  0  0  0  0  0  0  0  0  0
   36.3780   29.9270   41.0790 C   0  0  0  0  0  0  0  0  0  0  0  0
   35.5180   29.0210   41.0480 O   0  0  0  0  0  0  0  0  0  0  0  0
   35.5560   30.9690   41.4440 O   0  0  0  0  0  0  0  0  0  0  0  0
   34.6650   31.2280   41.0400 H   0  0  0  0  0  0  0  0  0  0  0  0
  1  2  1  0  0  0  0
  2  7  1  0  0  0  0
  2  3  2  0  0  0  0
  3  8  1  0  0  0  0
  4  3  1  0  0  0  0
  5  4  2  0  0  0  0
  6  1  2  0  0  0  0
  6  5  1  0  0  0  0
  9 12  1  1  0  0  0
  9  1  1  0  0  0  0
 10 14  1  0  0  0  0
 10 13  1  0  0  0  0
 10  9  1  0  0  0  0
 11 15  1  6  0  0  0
 11 10  1  0  0  0  0
 11  9  1  0  0  0  0
 16 11  1  0  0  0  0
 17 16  1  0  0  0  0
 17 22  1  0  0  0  0
 18 17  2  0  0  0  0
 19 20  2  0  0  0  0
 19 18  1  0  0  0  0
 20 21  1  0  0  0  0
 21 28  1  0  0  0  0
 21 16  2  0  0  0  0
 23 18  1  0  0  0  0
 24 19  1  0  0  0  0
 25 20  1  0  0  0  0
 26 29  1  0  0  0  0
 26 27  2  0  0  0  0
 28 26  1  0  0  0  0
 30 28  1  0  0  0  0
 31  5  1  0  0  0  0
 32 31  1  0  0  0  0
 33 43  1  0  0  0  0
 33 32  2  0  0  0  0
 34 33  1  0  0  0  0
 35 34  1  0  0  0  0
 36 35  2  0  0  0  0
 37 35  1  0  0  0  0
 38 37  1  0  0  0  0
 39 37  1  6  0  0  0
 39 34  1  0  0  0  0
 39 40  1  0  0  0  0
 40 41  1  0  0  0  0
 41 32  1  0  0  0  0
 42 41  1  0  0  0  0
 43 45  1  0  0  0  0
 44 43  2  0  0  0  0
 46 45  1  0  0  0  0
M  END
>  <minimizedAffinity>
-6.23389721

$$$$

 OpenBabel03242519013D

 46 50  0  0  1  0  0  0  0  0999 V2000
   37.3760   31.3110   38.8220 C   0  0  0  0  0  0  0  0  0  0  0  0
   37.3260   31.0200   37.4520 C   0  0  0  0  0  0  0  0  0  0  0  0
   36.8350   29.7520   37.0960 C   0  0  0  0  0  0  0  0  0  0  0  0
   36.4450   28.9110   38.1030 N   0  0  0  0  0  0  0  0  0  0  0  0
   36.5170   29.2550   39.4280 C   0  0  0  0  0  0  0  0  0  0  0  0
   36.9890   30.4720   39.8030 N   0  0  0  0  0  0  0  0  0  0  0  0
   37.5780   31.6220   36.6310 H   0  0  0  0  0  0  0  0  0  0  0  0
   36.7480   29.4050   36.0750 H   0  0  0  0  0  0  0  0  0  0  0  0
   37.8890   32.6270   39.1970 C   0  0  1  0  0  0  0  0  0  0  0  0
   38.4460   32.8360   40.5760 C   0  0  0  0  0  0  0  0  0  0  0  0
   39.3440   32.8680   39.5190 C   0  0  1  0  0  0  0  0  0  0  0  0
   37.3460   33.4500   38.6600 H   0  0  0  0  0  0  0  0  0  0  0  0
   38.0900   33.8120   41.0280 H   0  0  0  0  0  0  0  0  0  0  0  0
   38.3020   32.0270   41.3340 H   0  0  0  0  0  0  0  0  0  0  0  0
   39.6810   33.7930   38.9970 H   0  0  0  0  0  0  0  0  0  0  0  0
   40.3910   31.8180   39.4010 C   0  0  0  0  0  0  0  0  0  0  0  0
   40.6090   30.8680   40.3700 C   0  0  0  0  0  0  0  0  0  0  0  0
   41.5850   29.9120   40.3250 C   0  0  0  0  0  0  0  0  0  0  0  0
   42.4140   29.8970   39.2270 C   0  0  0  0  0  0  0  0  0  0  0  0
   42.2260   30.8440   38.2220 C   0  0  0  0  0  0  0  0  0  0  0  0
   41.2290   31.7730   38.3330 C   0  0  0  0  0  0  0  0  0  0  0  0
   39.9670   30.8550   41.2490 H   0  0  0  0  0  0  0  0  0  0  0  0
   41.6940   29.1950   41.1320 H   0  0  0  0  0  0  0  0  0  0  0  0
   43.1850   29.1100   39.2350 H   0  0  0  0  0  0  0  0  0  0  0  0
   42.9600   30.6870   37.4410 H   0  0  0  0  0  0  0  0  0  0  0  0
   42.2170   33.7050   37.3120 C   0  0  0  0  0  0  0  0  0  0  0  0
   42.7270   33.6170   38.4310 O   0  0  0  0  0  0  0  0  0  0  0  0
   41.3030   32.6040   37.1600 N   0  0  0  0  0  0  0  0  0  0  0  0
   42.2810   34.3720   36.4550 H   0  0  0  0  0  0  0  0  0  0  0  0
   40.7140   32.3690   36.3050 H   0  0  0  0  0  0  0  0  0  0  0  0
   36.0630   28.2620   40.4700 C   0  0  0  0  0  2  0  0  0  0  0  0
   37.1620   27.3830   40.8910 C   0  0  0  0  0  0  0  0  0  0  0  0
   37.9730   27.6550   41.8980 C   0  0  0  0  0  0  0  0  0  0  0  0
   38.9990   26.7290   42.2210 N   0  0  0  0  0  0  0  0  0  0  0  0
   40.3230   26.5430   42.6730 C   0  0  0  0  0  0  0  0  0  0  0  0
   41.2860   27.2140   43.1360 O   0  0  0  0  0  0  0  0  0  0  0  0
   40.3090   25.0830   42.4270 C   0  0  0  0  0  3  0  0  0  0  0  0
   40.9480   24.7810   41.5720 H   0  0  0  0  0  0  0  0  0  0  0  0
   38.8660   25.2870   42.1220 C   0  0  2  0  0  3  0  0  0  0  0  0
   38.4100   24.9760   40.3800 S   0  0  0  0  0  0  0  0  0  0  0  0
   37.1510   26.2150   39.9800 C   0  0  0  0  0  3  0  0  0  0  0  0
   37.3630   26.5760   38.9320 H   0  0  0  0  0  0  0  0  0  0  0  0
   37.8710   28.8610   42.7090 C   0  0  0  0  0  0  0  0  0  0  0  0
   38.4630   29.9550   42.8340 O   0  0  0  0  0  0  0  0  0  0  0  0
   36.9080   29.0440   43.6750 O   0  0  0  0  0  0  0  0  0  0  0  0
   37.0370   29.3630   44.6280 H   0  0  0  0  0  0  0  0  0  0  0  0
  1  9  1  0  0  0  0
  1  6  1  0  0  0  0
  2  1  2  0  0  0  0
  3  2  1  0  0  0  0
  3  4  2  0  0  0  0
  4  5  1  0  0  0  0
  5  6  2  0  0  0  0
  5 31  1  0  0  0  0
  7  2  1  0  0  0  0
  8  3  1  0  0  0  0
  9 12  1  6  0  0  0
  9 11  1  0  0  0  0
  9 10  1  0  0  0  0
 10 13  1  0  0  0  0
 10 14  1  0  0  0  0
 11 15  1  6  0  0  0
 11 10  1  0  0  0  0
 16 11  1  0  0  0  0
 16 17  1  0  0  0  0
 17 22  1  0  0  0  0
 18 17  2  0  0  0  0
 18 23  1  0  0  0  0
 19 24  1  0  0  0  0
 19 18  1  0  0  0  0
 20 21  1  0  0  0  0
 20 19  2  0  0  0  0
 21 16  2  0  0  0  0
 25 20  1  0  0  0  0
 26 27  2  0  0  0  0
 28 26  1  0  0  0  0
 28 21  1  0  0  0  0
 29 26  1  0  0  0  0
 30 28  1  0  0  0  0
 31 32  1  0  0  0  0
 32 33  2  0  0  0  0
 33 34  1  0  0  0  0
 33 43  1  0  0  0  0
 34 35  1  0  0  0  0
 35 36  2  0  0  0  0
 37 35  1  0  0  0  0
 38 37  1  0  0  0  0
 39 40  1  6  0  0  0
 39 34  1  0  0  0  0
 39 37  1  0  0  0  0
 41 40  1  0  0  0  0
 41 32  1  0  0  0  0
 42 41  1  0  0  0  0
 43 44  2  0  0  0  0
 43 45  1  0  0  0  0
 45 46  1  0  0  0  0
M  END
>  <minimizedAffinity>
-6.12465048

$$$$

 OpenBabel03242519013D

 46 50  0  0  1  0  0  0  0  0999 V2000
   38.6870   28.8790   42.8990 C   0  0  0  0  0  0  0  0  0  0  0  0
   37.2870   28.8530   42.9580 C   0  0  0  0  0  0  0  0  0  0  0  0
   36.6800   27.5860   42.9330 C   0  0  0  0  0  0  0  0  0  0  0  0
   37.4940   26.4880   42.8580 N   0  0  0  0  0  0  0  0  0  0  0  0
   38.8610   26.5780   42.8050 C   0  0  0  0  0  0  0  0  0  0  0  0
   39.4750   27.7900   42.8250 N   0  0  0  0  0  0  0  0  0  0  0  0
   36.6060   29.6470   43.0470 H   0  0  0  0  0  0  0  0  0  0  0  0
   35.6100   27.4300   42.9710 H   0  0  0  0  0  0  0  0  0  0  0  0
   39.3220   30.1950   42.9210 C   0  0  1  0  0  0  0  0  0  0  0  0
   40.5680   30.4260   42.1150 C   0  0  0  0  0  0  0  0  0  0  0  0
   39.4140   31.0710   41.6950 C   0  0  1  0  0  0  0  0  0  0  0  0
   39.1630   30.7140   43.9030 H   0  0  0  0  0  0  0  0  0  0  0  0
   41.3440   31.0080   42.7010 H   0  0  0  0  0  0  0  0  0  0  0  0
   41.0710   29.5410   41.6520 H   0  0  0  0  0  0  0  0  0  0  0  0
   39.1290   32.1120   41.9730 H   0  0  0  0  0  0  0  0  0  0  0  0
   38.7970   30.7150   40.3900 C   0  0  0  0  0  0  0  0  0  0  0  0
   39.2340   29.6650   39.6170 C   0  0  0  0  0  0  0  0  0  0  0  0
   38.7270   29.3280   38.3940 C   0  0  0  0  0  0  0  0  0  0  0  0
   37.7000   30.0950   37.8950 C   0  0  0  0  0  0  0  0  0  0  0  0
   37.2280   31.1700   38.6460 C   0  0  0  0  0  0  0  0  0  0  0  0
   37.7830   31.4510   39.8640 C   0  0  0  0  0  0  0  0  0  0  0  0
   40.0440   29.0400   39.9890 H   0  0  0  0  0  0  0  0  0  0  0  0
   39.1270   28.4820   37.8440 H   0  0  0  0  0  0  0  0  0  0  0  0
   37.3250   29.7850   36.9060 H   0  0  0  0  0  0  0  0  0  0  0  0
   36.4270   31.6590   38.1060 H   0  0  0  0  0  0  0  0  0  0  0  0
   37.7850   33.8390   40.0820 C   0  0  0  0  0  0  0  0  0  0  0  0
   38.7900   33.5600   39.4250 O   0  0  0  0  0  0  0  0  0  0  0  0
   37.0980   32.6090   40.3750 N   0  0  0  0  0  0  0  0  0  0  0  0
   37.3100   34.7360   40.4760 H   0  0  0  0  0  0  0  0  0  0  0  0
   36.1830   32.4920   40.9050 H   0  0  0  0  0  0  0  0  0  0  0  0
   39.6780   25.3120   42.7240 C   0  0  0  0  0  2  0  0  0  0  0  0
   40.5410   25.3040   41.5350 C   0  0  0  0  0  0  0  0  0  0  0  0
   41.8540   25.4500   41.5830 C   0  0  0  0  0  0  0  0  0  0  0  0
   42.5910   25.4190   40.3690 N   0  0  0  0  0  0  0  0  0  0  0  0
   43.6870   25.9270   39.6400 C   0  0  0  0  0  0  0  0  0  0  0  0
   44.6870   26.6800   39.8030 O   0  0  0  0  0  0  0  0  0  0  0  0
   43.3100   25.2280   38.3920 C   0  0  0  0  0  3  0  0  0  0  0  0
   42.9370   25.9160   37.6040 H   0  0  0  0  0  0  0  0  0  0  0  0
   42.2680   24.5770   39.2330 C   0  0  2  0  0  3  0  0  0  0  0  0
   40.5510   25.0200   38.7910 S   0  0  0  0  0  0  0  0  0  0  0  0
   39.6560   25.1170   40.3620 C   0  0  0  0  0  3  0  0  0  0  0  0
   38.9620   26.0050   40.2940 H   0  0  0  0  0  0  0  0  0  0  0  0
   42.5980   25.6370   42.8220 C   0  0  0  0  0  0  0  0  0  0  0  0
   42.9420   26.5760   43.5710 O   0  0  0  0  0  0  0  0  0  0  0  0
   43.1670   24.6010   43.5260 O   0  0  0  0  0  0  0  0  0  0  0  0
   44.1090   24.5430   43.8930 H   0  0  0  0  0  0  0  0  0  0  0  0
  1  9  1  0  0  0  0
  1  2  1  0  0  0  0
  2  7  1  0  0  0  0
  3  2  2  0  0  0  0
  3  8  1  0  0  0  0
  4  3  1  0  0  0  0
  5  6  1  0  0  0  0
  5  4  2  0  0  0  0
  6  1  2  0  0  0  0
  9 12  1  1  0  0  0
 10 13  1  0  0  0  0
 10  9  1  0  0  0  0
 11 15  1  1  0  0  0
 11 10  1  0  0  0  0
 11  9  1  0  0  0  0
 14 10  1  0  0  0  0
 16 11  1  0  0  0  0
 17 22  1  0  0  0  0
 17 16  2  0  0  0  0
 18 17  1  0  0  0  0
 19 18  2  0  0  0  0
 19 20  1  0  0  0  0
 20 21  2  0  0  0  0
 21 28  1  0  0  0  0
 21 16  1  0  0  0  0
 23 18  1  0  0  0  0
 24 19  1  0  0  0  0
 25 20  1  0  0  0  0
 26 28  1  0  0  0  0
 26 29  1  0  0  0  0
 27 26  2  0  0  0  0
 28 30  1  0  0  0  0
 31  5  1  0  0  0  0
 32 33  2  0  0  0  0
 32 31  1  0  0  0  0
 33 43  1  0  0  0  0
 34 33  1  0  0  0  0
 35 36  2  0  0  0  0
 35 34  1  0  0  0  0
 37 35  1  0  0  0  0
 38 37  1  0  0  0  0
 39 37  1  6  0  0  0
 39 34  1  0  0  0  0
 40 39  1  0  0  0  0
 40 41  1  0  0  0  0
 41 32  1  0  0  0  0
 42 41  1  0  0  0  0
 43 45  1  0  0  0  0
 43 44  2  0  0  0  0
 45 46  1  0  0  0  0
M  END
>  <minimizedAffinity>
-6.0986166

$$$$

 OpenBabel03242519013D

 46 50  0  0  1  0  0  0  0  0999 V2000
   37.1360   28.4500   41.1520 C   0  0  0  0  0  0  0  0  0  0  0  0
   37.0340   27.1650   40.6010 C   0  0  0  0  0  0  0  0  0  0  0  0
   37.1620   27.0660   39.2050 C   0  0  0  0  0  0  0  0  0  0  0  0
   37.3770   28.2200   38.5000 N   0  0  0  0  0  0  0  0  0  0  0  0
   37.4700   29.4500   39.0970 C   0  0  0  0  0  0  0  0  0  0  0  0
   37.3480   29.5760   40.4450 N   0  0  0  0  0  0  0  0  0  0  0  0
   36.9010   26.2410   41.0800 H   0  0  0  0  0  0  0  0  0  0  0  0
   37.1010   26.1340   38.6590 H   0  0  0  0  0  0  0  0  0  0  0  0
   37.0000   28.5570   42.6030 C   0  0  1  0  0  0  0  0  0  0  0  0
   36.6510   27.3350   43.4030 C   0  0  0  0  0  0  0  0  0  0  0  0
   37.9300   27.8490   43.5580 C   0  0  1  0  0  0  0  0  0  0  0  0
   36.6370   29.5740   42.9090 H   0  0  0  0  0  0  0  0  0  0  0  0
   35.8670   27.5600   44.1900 H   0  0  0  0  0  0  0  0  0  0  0  0
   36.3410   26.4130   42.8540 H   0  0  0  0  0  0  0  0  0  0  0  0
   38.2370   28.5630   44.3580 H   0  0  0  0  0  0  0  0  0  0  0  0
   39.1080   27.0580   43.1140 C   0  0  0  0  0  0  0  0  0  0  0  0
   39.0850   25.6900   42.9880 C   0  0  0  0  0  0  0  0  0  0  0  0
   40.1530   24.9170   42.6260 C   0  0  0  0  0  0  0  0  0  0  0  0
   41.3440   25.5560   42.3670 C   0  0  0  0  0  0  0  0  0  0  0  0
   41.4100   26.9430   42.4840 C   0  0  0  0  0  0  0  0  0  0  0  0
   40.3010   27.6530   42.8520 C   0  0  0  0  0  0  0  0  0  0  0  0
   38.1550   25.1580   43.1850 H   0  0  0  0  0  0  0  0  0  0  0  0
   40.0550   23.8400   42.5480 H   0  0  0  0  0  0  0  0  0  0  0  0
   42.1750   24.8920   42.0800 H   0  0  0  0  0  0  0  0  0  0  0  0
   42.4130   27.2740   42.2460 H   0  0  0  0  0  0  0  0  0  0  0  0
   40.8070   29.6280   41.5890 C   0  0  0  0  0  0  0  0  0  0  0  0
   40.5010   28.7670   40.7610 O   0  0  0  0  0  0  0  0  0  0  0  0
   40.6910   29.0380   42.8970 N   0  0  0  0  0  0  0  0  0  0  0  0
   41.1260   30.6680   41.5810 H   0  0  0  0  0  0  0  0  0  0  0  0
   40.8600   29.5110   43.8350 H   0  0  0  0  0  0  0  0  0  0  0  0
   37.7100   30.6670   38.2390 C   0  0  0  0  0  2  0  0  0  0  0  0
   38.6450   31.6020   38.8790 C   0  0  0  0  0  0  0  0  0  0  0  0
   39.9490   31.5980   38.6610 C   0  0  0  0  0  0  0  0  0  0  0  0
   40.7580   32.5530   39.3310 N   0  0  0  0  0  0  0  0  0  0  0  0
   41.9980   32.8240   39.9490 C   0  0  0  0  0  0  0  0  0  0  0  0
   43.1230   32.2830   40.1300 O   0  0  0  0  0  0  0  0  0  0  0  0
   41.5780   34.1600   40.4300 C   0  0  0  0  0  3  0  0  0  0  0  0
   41.4370   34.2000   41.5300 H   0  0  0  0  0  0  0  0  0  0  0  0
   40.3510   33.9140   39.6240 C   0  0  2  0  0  3  0  0  0  0  0  0
   38.8200   33.7460   40.6070 S   0  0  0  0  0  0  0  0  0  0  0  0
   37.8420   32.4750   39.7650 C   0  0  0  0  0  3  0  0  0  0  0  0
   37.3720   31.8340   40.5680 H   0  0  0  0  0  0  0  0  0  0  0  0
   40.6100   30.6640   37.7590 C   0  0  0  0  0  0  0  0  0  0  0  0
   40.7620   29.4290   37.6410 O   0  0  0  0  0  0  0  0  0  0  0  0
   41.3280   31.0590   36.6530 O   0  0  0  0  0  0  0  0  0  0  0  0
   42.2530   30.7590   36.3740 H   0  0  0  0  0  0  0  0  0  0  0  0
  1  9  1  0  0  0  0
  2  7  1  0  0  0  0
  2  1  1  0  0  0  0
  3  2  2  0  0  0  0
  4  5  2  0  0  0  0
  4  3  1  0  0  0  0
  5  6  1  0  0  0  0
  6  1  2  0  0  0  0
  8  3  1  0  0  0  0
  9 12  1  1  0  0  0
  9 10  1  0  0  0  0
  9 11  1  0  0  0  0
 10 11  1  0  0  0  0
 10 13  1  0  0  0  0
 11 15  1  1  0  0  0
 14 10  1  0  0  0  0
 16 11  1  0  0  0  0
 17 16  1  0  0  0  0
 17 22  1  0  0  0  0
 18 17  2  0  0  0  0
 19 20  2  0  0  0  0
 19 18  1  0  0  0  0
 20 21  1  0  0  0  0
 21 28  1  0  0  0  0
 21 16  2  0  0  0  0
 23 18  1  0  0  0  0
 24 19  1  0  0  0  0
 25 20  1  0  0  0  0
 26 28  1  0  0  0  0
 27 26  2  0  0  0  0
 28 30  1  0  0  0  0
 29 26  1  0  0  0  0
 31 32  1  0  0  0  0
 31  5  1  0  0  0  0
 32 41  1  0  0  0  0
 33 32  2  0  0  0  0
 33 34  1  0  0  0  0
 34 39  1  0  0  0  0
 34 35  1  0  0  0  0
 35 36  2  0  0  0  0
 35 37  1  0  0  0  0
 37 38  1  0  0  0  0
 39 37  1  1  0  0  0
 39 40  1  0  0  0  0
 41 42  1  0  0  0  0
 41 40  1  0  0  0  0
 43 33  1  0  0  0  0
 44 43  2  0  0  0  0
 45 43  1  0  0  0  0
 46 45  1  0  0  0  0
M  END
>  <minimizedAffinity>
-6.06346273

$$$$

 OpenBabel03242519013D

 46 50  0  0  1  0  0  0  0  0999 V2000
   37.3570   28.8860   41.5930 C   0  0  0  0  0  0  0  0  0  0  0  0
   36.0230   28.8240   41.1680 C   0  0  0  0  0  0  0  0  0  0  0  0
   35.7570   29.2650   39.8610 C   0  0  0  0  0  0  0  0  0  0  0  0
   36.8100   29.7130   39.1100 N   0  0  0  0  0  0  0  0  0  0  0  0
   38.0970   29.7480   39.5820 C   0  0  0  0  0  0  0  0  0  0  0  0
   38.3840   29.3310   40.8430 N   0  0  0  0  0  0  0  0  0  0  0  0
   35.1760   28.4660   41.6750 H   0  0  0  0  0  0  0  0  0  0  0  0
   34.7710   29.2690   39.4150 H   0  0  0  0  0  0  0  0  0  0  0  0
   37.6370   28.4320   42.9530 C   0  0  1  0  0  0  0  0  0  0  0  0
   36.6410   27.5570   43.6580 C   0  0  0  0  0  0  0  0  0  0  0  0
   37.8480   26.9770   43.2940 C   0  0  1  0  0  0  0  0  0  0  0  0
   38.2550   29.1790   43.5180 H   0  0  0  0  0  0  0  0  0  0  0  0
   36.4870   27.8800   44.7330 H   0  0  0  0  0  0  0  0  0  0  0  0
   35.6370   27.4120   43.1880 H   0  0  0  0  0  0  0  0  0  0  0  0
   38.7380   26.8870   43.9590 H   0  0  0  0  0  0  0  0  0  0  0  0
   37.8750   25.8950   42.2730 C   0  0  0  0  0  0  0  0  0  0  0  0
   36.7850   25.1060   41.9910 C   0  0  0  0  0  0  0  0  0  0  0  0
   36.7740   24.0750   41.0950 C   0  0  0  0  0  0  0  0  0  0  0  0
   37.9430   23.8030   40.4210 C   0  0  0  0  0  0  0  0  0  0  0  0
   39.0720   24.5790   40.6790 C   0  0  0  0  0  0  0  0  0  0  0  0
   39.0100   25.5960   41.5900 C   0  0  0  0  0  0  0  0  0  0  0  0
   35.8460   25.3010   42.5080 H   0  0  0  0  0  0  0  0  0  0  0  0
   35.8720   23.4970   40.9280 H   0  0  0  0  0  0  0  0  0  0  0  0
   37.8860   22.9630   39.7100 H   0  0  0  0  0  0  0  0  0  0  0  0
   39.8930   24.2280   40.0660 H   0  0  0  0  0  0  0  0  0  0  0  0
   41.1770   25.5710   42.6170 C   0  0  0  0  0  0  0  0  0  0  0  0
   40.5450   24.6520   43.1420 O   0  0  0  0  0  0  0  0  0  0  0  0
   40.3210   26.1890   41.6390 N   0  0  0  0  0  0  0  0  0  0  0  0
   42.1690   26.0090   42.7030 H   0  0  0  0  0  0  0  0  0  0  0  0
   40.5620   26.9970   40.9910 H   0  0  0  0  0  0  0  0  0  0  0  0
   39.1950   30.2580   38.6820 C   0  0  0  0  0  2  0  0  0  0  0  0
   39.9660   31.3300   39.3270 C   0  0  0  0  0  0  0  0  0  0  0  0
   41.1230   31.1350   39.9370 C   0  0  0  0  0  0  0  0  0  0  0  0
   41.7850   32.2470   40.5210 N   0  0  0  0  0  0  0  0  0  0  0  0
   42.5840   32.7210   41.5840 C   0  0  0  0  0  0  0  0  0  0  0  0
   43.2210   32.2810   42.5800 O   0  0  0  0  0  0  0  0  0  0  0  0
   42.4730   34.1370   41.1680 C   0  0  0  0  0  3  0  0  0  0  0  0
   41.8460   34.7430   41.8550 H   0  0  0  0  0  0  0  0  0  0  0  0
   41.7820   33.5890   39.9690 C   0  0  2  0  0  3  0  0  0  0  0  0
   40.0160   34.0410   39.8390 S   0  0  0  0  0  0  0  0  0  0  0  0
   39.1930   32.5810   39.1540 C   0  0  0  0  0  3  0  0  0  0  0  0
   38.2090   32.4710   39.6980 H   0  0  0  0  0  0  0  0  0  0  0  0
   41.7680   29.8330   40.0390 C   0  0  0  0  0  0  0  0  0  0  0  0
   42.6780   29.1950   39.4680 O   0  0  0  0  0  0  0  0  0  0  0  0
   41.4160   28.8850   40.9730 O   0  0  0  0  0  0  0  0  0  0  0  0
   41.2300   27.9020   40.8200 H   0  0  0  0  0  0  0  0  0  0  0  0
  1  9  1  0  0  0  0
  2  1  1  0  0  0  0
  2  7  1  0  0  0  0
  3  2  2  0  0  0  0
  4  5  2  0  0  0  0
  4  3  1  0  0  0  0
  5  6  1  0  0  0  0
  6  1  2  0  0  0  0
  8  3  1  0  0  0  0
  9 11  1  0  0  0  0
  9 12  1  1  0  0  0
  9 10  1  0  0  0  0
 10 13  1  0  0  0  0
 11 10  1  0  0  0  0
 11 15  1  1  0  0  0
 14 10  1  0  0  0  0
 16 11  1  0  0  0  0
 17 16  1  0  0  0  0
 17 22  1  0  0  0  0
 18 17  2  0  0  0  0
 19 20  2  0  0  0  0
 19 18  1  0  0  0  0
 20 21  1  0  0  0  0
 21 28  1  0  0  0  0
 21 16  2  0  0  0  0
 23 18  1  0  0  0  0
 24 19  1  0  0  0  0
 25 20  1  0  0  0  0
 26 29  1  0  0  0  0
 26 27  2  0  0  0  0
 28 26  1  0  0  0  0
 30 28  1  0  0  0  0
 31 32  1  0  0  0  0
 31  5  1  0  0  0  0
 32 33  2  0  0  0  0
 33 43  1  0  0  0  0
 33 34  1  0  0  0  0
 34 35  1  0  0  0  0
 35 36  2  0  0  0  0
 37 35  1  0  0  0  0
 37 38  1  0  0  0  0
 39 40  1  1  0  0  0
 39 34  1  0  0  0  0
 39 37  1  0  0  0  0
 41 32  1  0  0  0  0
 41 42  1  0  0  0  0
 41 40  1  0  0  0  0
 43 45  1  0  0  0  0
 44 43  2  0  0  0  0
 46 45  1  0  0  0  0
M  END
>  <minimizedAffinity>
-6.0025754

$$$$

 OpenBabel03242519013D

 46 50  0  0  1  0  0  0  0  0999 V2000
   37.0780   29.2210   41.5260 C   0  0  0  0  0  0  0  0  0  0  0  0
   35.8980   28.6000   41.0930 C   0  0  0  0  0  0  0  0  0  0  0  0
   35.4360   28.9490   39.8120 C   0  0  0  0  0  0  0  0  0  0  0  0
   36.1680   29.8560   39.0940 N   0  0  0  0  0  0  0  0  0  0  0  0
   37.3180   30.4290   39.5720 C   0  0  0  0  0  0  0  0  0  0  0  0
   37.7870   30.1120   40.8070 N   0  0  0  0  0  0  0  0  0  0  0  0
   35.3070   27.8790   41.5740 H   0  0  0  0  0  0  0  0  0  0  0  0
   34.5390   28.5430   39.3640 H   0  0  0  0  0  0  0  0  0  0  0  0
   37.5600   28.8640   42.8580 C   0  0  1  0  0  0  0  0  0  0  0  0
   36.7920   27.8670   43.6770 C   0  0  0  0  0  0  0  0  0  0  0  0
   38.0340   27.4730   43.2020 C   0  0  1  0  0  0  0  0  0  0  0  0
   38.1020   29.7180   43.3440 H   0  0  0  0  0  0  0  0  0  0  0  0
   36.6930   28.1980   44.7560 H   0  0  0  0  0  0  0  0  0  0  0  0
   35.7830   27.5480   43.3150 H   0  0  0  0  0  0  0  0  0  0  0  0
   38.9880   27.5480   43.7740 H   0  0  0  0  0  0  0  0  0  0  0  0
   38.1350   26.3750   42.2040 C   0  0  0  0  0  0  0  0  0  0  0  0
   37.0370   25.7180   41.7020 C   0  0  0  0  0  0  0  0  0  0  0  0
   37.0820   24.6760   40.8180 C   0  0  0  0  0  0  0  0  0  0  0  0
   38.3210   24.2520   40.3960 C   0  0  0  0  0  0  0  0  0  0  0  0
   39.4600   24.8910   40.8810 C   0  0  0  0  0  0  0  0  0  0  0  0
   39.3400   25.9270   41.7650 C   0  0  0  0  0  0  0  0  0  0  0  0
   36.0440   26.0350   42.0180 H   0  0  0  0  0  0  0  0  0  0  0  0
   36.1690   24.2090   40.4680 H   0  0  0  0  0  0  0  0  0  0  0  0
   38.3070   23.4100   39.6840 H   0  0  0  0  0  0  0  0  0  0  0  0
   40.3400   24.4320   40.4470 H   0  0  0  0  0  0  0  0  0  0  0  0
   41.1110   27.4690   41.2770 C   0  0  0  0  0  0  0  0  0  0  0  0
   40.1800   27.7780   40.5310 O   0  0  0  0  0  0  0  0  0  0  0  0
   40.6760   26.3590   42.0830 N   0  0  0  0  0  0  0  0  0  0  0  0
   42.1270   27.8070   41.4700 H   0  0  0  0  0  0  0  0  0  0  0  0
   41.2260   25.8610   42.8460 H   0  0  0  0  0  0  0  0  0  0  0  0
   38.0600   31.4180   38.7070 C   0  0  0  0  0  2  0  0  0  0  0  0
   39.5050   31.1530   38.7040 C   0  0  0  0  0  0  0  0  0  0  0  0
   40.3750   31.8270   39.4380 C   0  0  0  0  0  0  0  0  0  0  0  0
   41.7490   31.4810   39.3600 N   0  0  0  0  0  0  0  0  0  0  0  0
   43.0850   31.9370   39.3760 C   0  0  0  0  0  0  0  0  0  0  0  0
   43.7380   32.9980   39.5780 O   0  0  0  0  0  0  0  0  0  0  0  0
   43.6470   30.6130   39.0290 C   0  0  0  0  0  3  0  0  0  0  0  0
   44.0590   30.5720   37.9990 H   0  0  0  0  0  0  0  0  0  0  0  0
   42.2480   30.1290   39.1910 C   0  0  2  0  0  3  0  0  0  0  0  0
   41.4710   29.5300   37.6490 S   0  0  0  0  0  0  0  0  0  0  0  0
   39.7380   30.0450   37.7500 C   0  0  0  0  0  3  0  0  0  0  0  0
   39.4360   30.3930   36.7180 H   0  0  0  0  0  0  0  0  0  0  0  0
   39.9990   32.9110   40.3360 C   0  0  0  0  0  0  0  0  0  0  0  0
   39.9980   34.1610   40.3410 O   0  0  0  0  0  0  0  0  0  0  0  0
   39.4730   32.7070   41.5910 O   0  0  0  0  0  0  0  0  0  0  0  0
   39.7570   33.1390   42.4610 H   0  0  0  0  0  0  0  0  0  0  0  0
  1  9  1  0  0  0  0
  2  1  1  0  0  0  0
  2  7  1  0  0  0  0
  3  2  2  0  0  0  0
  4  5  2  0  0  0  0
  4  3  1  0  0  0  0
  5  6  1  0  0  0  0
  6  1  2  0  0  0  0
  8  3  1  0  0  0  0
  9 11  1  0  0  0  0
  9 12  1  1  0  0  0
  9 10  1  0  0  0  0
 10 13  1  0  0  0  0
 11 10  1  0  0  0  0
 11 15  1  1  0  0  0
 14 10  1  0  0  0  0
 16 11  1  0  0  0  0
 17 22  1  0  0  0  0
 17 16  2  0  0  0  0
 18 17  1  0  0  0  0
 19 18  2  0  0  0  0
 19 20  1  0  0  0  0
 20 21  2  0  0  0  0
 21 28  1  0  0  0  0
 21 16  1  0  0  0  0
 23 18  1  0  0  0  0
 24 19  1  0  0  0  0
 25 20  1  0  0  0  0
 26 29  1  0  0  0  0
 26 28  1  0  0  0  0
 27 26  2  0  0  0  0
 28 30  1  0  0  0  0
 31  5  1  0  0  0  0
 32 31  1  0  0  0  0
 32 33  2  0  0  0  0
 33 43  1  0  0  0  0
 34 35  1  0  0  0  0
 34 33  1  0  0  0  0
 35 36  2  0  0  0  0
 37 39  1  0  0  0  0
 37 35  1  0  0  0  0
 38 37  1  0  0  0  0
 39 40  1  6  0  0  0
 39 34  1  0  0  0  0
 40 41  1  0  0  0  0
 41 32  1  0  0  0  0
 42 41  1  0  0  0  0
 43 44  2  0  0  0  0
 43 45  1  0  0  0  0
 45 46  1  0  0  0  0
M  END
>  <minimizedAffinity>
-5.92202282

$$$$
