
 OpenBabel03242512413D

 30 32  0  0  1  0  0  0  0  0999 V2000
   45.8840   31.3570   48.0030 C   0  0  0  0  0  2  0  0  0  0  0  0
   46.8320   30.2390   48.0170 C   0  0  0  0  0  0  0  0  0  0  0  0
   46.4000   29.1140   47.4780 C   0  0  0  0  0  0  0  0  0  0  0  0
   47.2290   27.9740   47.4360 N   0  0  0  0  0  0  0  0  0  0  0  0
   47.4120   26.5460   47.5330 C   0  0  0  0  0  0  0  0  0  0  0  0
   46.6620   25.6100   47.1970 O   0  0  0  0  0  0  0  0  0  0  0  0
   48.7480   26.8820   48.1440 C   0  0  0  0  0  3  0  0  0  0  0  0
   48.6350   27.2180   49.1970 H   0  0  0  0  0  0  0  0  0  0  0  0
   48.6550   28.0420   47.1770 C   0  0  2  0  0  3  0  0  0  0  0  0
   49.3960   29.5740   47.7050 S   0  0  0  0  0  0  0  0  0  0  0  0
   48.1510   30.4730   48.6270 C   0  0  0  0  0  3  0  0  0  0  0  0
   48.4040   31.5610   48.5220 H   0  0  0  0  0  0  0  0  0  0  0  0
   45.0640   28.9820   46.9020 C   0  0  0  0  0  0  0  0  0  0  0  0
   44.3110   27.9820   47.0800 O   0  0  0  0  0  0  0  0  0  0  0  0
   43.9270   29.2770   46.1910 O   0  0  0  0  0  0  0  0  0  0  0  0
   44.0210   29.4960   45.2000 H   0  0  0  0  0  0  0  0  0  0  0  0
   45.4350   34.1500   45.6320 C   0  0  0  0  0  0  0  0  0  0  0  0
   46.3220   33.8350   44.5930 C   0  0  0  0  0  0  0  0  0  0  0  0
   47.0790   32.6580   44.7060 C   0  0  0  0  0  0  0  0  0  0  0  0
   46.8970   31.8970   45.8280 N   0  0  0  0  0  0  0  0  0  0  0  0
   46.0400   32.2380   46.7930 C   0  0  0  0  0  0  0  0  0  0  0  0
   45.3230   33.3470   46.6900 N   0  0  0  0  0  0  0  0  0  0  0  0
   46.4980   34.4010   43.6950 H   0  0  0  0  0  0  0  0  0  0  0  0
   47.7870   32.3240   43.9650 H   0  0  0  0  0  0  0  0  0  0  0  0
   44.7220   35.2940   45.4870 O   0  0  0  0  0  0  0  0  0  0  0  0
   44.4540   35.9030   44.2660 C   0  0  0  0  0  0  0  0  0  0  0  0
   45.1360   36.8620   43.7560 O   0  0  0  0  0  0  0  0  0  0  0  0
   43.3740   35.5460   43.4040 N   0  0  0  0  0  0  0  0  0  0  0  0
   43.3740   35.1320   42.4310 H   0  0  0  0  0  0  0  0  0  0  0  0
   42.3320   35.4770   43.2210 H   0  0  0  0  0  0  0  0  0  0  0  0
  1  2  1  0  0  0  0
  2 11  1  0  0  0  0
  3  2  2  0  0  0  0
  4  3  1  0  0  0  0
  4  5  1  0  0  0  0
  5  7  1  0  0  0  0
  6  5  2  0  0  0  0
  7  8  1  0  0  0  0
  9  4  1  0  0  0  0
  9 10  1  1  0  0  0
  9  7  1  0  0  0  0
 10 11  1  0  0  0  0
 12 11  1  0  0  0  0
 13 14  2  0  0  0  0
 13  3  1  0  0  0  0
 15 13  1  0  0  0  0
 16 15  1  0  0  0  0
 17 22  1  0  0  0  0
 18 19  1  0  0  0  0
 18 17  2  0  0  0  0
 19 20  2  0  0  0  0
 20 21  1  0  0  0  0
 21  1  1  0  0  0  0
 22 21  2  0  0  0  0
 23 18  1  0  0  0  0
 24 19  1  0  0  0  0
 25 17  1  0  0  0  0
 26 25  1  0  0  0  0
 27 26  2  0  0  0  0
 28 26  1  0  0  0  0
 29 28  1  0  0  0  0
 30 28  1  0  0  0  0
M  END
>  <minimizedAffinity>
-5.23293161

>  <minimizedRMSD>
1.56621611

$$$$
