
 OpenBabel03242512073D

 34 38  0  0  1  0  0  0  0  0999 V2000
   48.3420   32.9860   41.5260 C   0  0  1  0  0  0  0  0  0  0  0  0
   49.5880   33.3670   42.3910 C   0  0  0  0  0  0  0  0  0  0  0  0
   48.3690   32.7260   42.9450 C   0  0  2  0  0  0  0  0  0  0  0  0
   48.7680   32.4030   40.6680 H   0  0  0  0  0  0  0  0  0  0  0  0
   50.4960   32.7700   42.2960 H   0  0  0  0  0  0  0  0  0  0  0  0
   49.7820   34.4470   42.5370 H   0  0  0  0  0  0  0  0  0  0  0  0
   47.7560   33.4680   43.5580 H   0  0  0  0  0  0  0  0  0  0  0  0
   47.6350   34.1930   40.9890 C   0  0  0  0  0  0  0  0  0  0  0  0
   48.2200   34.8170   40.0920 O   0  0  0  0  0  0  0  0  0  0  0  0
   46.2180   35.4530   42.5220 C   0  0  0  0  0  0  0  0  0  0  0  0
   46.3620   34.6380   41.4360 C   0  0  0  0  0  0  0  0  0  0  0  0
   45.2050   34.2460   40.7370 C   0  0  0  0  0  0  0  0  0  0  0  0
   43.9950   34.6760   41.1490 N   0  0  0  0  0  0  0  0  0  0  0  0
   43.8790   35.4950   42.2450 C   0  0  0  0  0  0  0  0  0  0  0  0
   44.9750   35.8580   42.8950 N   0  0  0  0  0  0  0  0  0  0  0  0
   47.0370   35.7990   43.1110 H   0  0  0  0  0  0  0  0  0  0  0  0
   45.3440   33.5990   39.8780 H   0  0  0  0  0  0  0  0  0  0  0  0
   42.8680   35.7950   42.5080 H   0  0  0  0  0  0  0  0  0  0  0  0
   48.3730   31.3880   43.6110 C   0  0  0  0  0  0  0  0  0  0  0  0
   47.4360   31.2480   44.7500 C   0  0  0  0  0  0  0  0  0  0  0  0
   47.4530   30.2590   45.6220 C   0  0  0  0  0  0  0  0  0  0  0  0
   46.5520   30.1570   46.7170 N   0  0  0  0  0  0  0  0  0  0  0  0
   45.9350   29.4360   47.7850 C   0  0  1  0  0  0  0  0  0  0  0  0
   45.5330   28.2240   47.7780 O   0  0  0  0  0  0  0  0  0  0  0  0
   46.1020   30.7400   48.5430 C   0  0  0  0  0  0  0  0  0  0  0  0
   47.1870   30.9390   48.7040 H   0  0  0  0  0  0  0  0  0  0  0  0
   45.7000   31.2310   47.1990 C   0  0  1  0  0  0  0  0  0  0  0  0
   46.3770   32.7860   46.6030 S   0  0  0  0  0  0  0  0  0  0  0  0
   46.4840   32.3790   44.7980 C   0  0  0  0  0  0  0  0  0  0  0  0
   46.8150   33.3010   44.3320 H   0  0  0  0  0  0  0  0  0  0  0  0
   48.4320   29.1530   45.5600 C   0  0  0  0  0  0  0  0  0  0  0  0
   48.4440   28.0030   45.0640 O   0  0  0  0  0  0  0  0  0  0  0  0
   49.6870   29.1920   46.1180 O   0  0  0  0  0  0  0  0  0  0  0  0
   50.1500   28.4560   46.6220 H   0  0  0  0  0  0  0  0  0  0  0  0
  1  4  1  6  0  0  0
  1  2  1  0  0  0  0
  1  3  1  0  0  0  0
  2  6  1  0  0  0  0
  2  3  1  0  0  0  0
  3  7  1  1  0  0  0
  3 19  1  0  0  0  0
  5  2  1  0  0  0  0
  8 11  1  0  0  0  0
  8  1  1  0  0  0  0
  9  8  2  0  0  0  0
 10 15  1  0  0  0  0
 10 16  1  0  0  0  0
 11 10  2  0  0  0  0
 12 13  2  0  0  0  0
 12 11  1  0  0  0  0
 13 14  1  0  0  0  0
 14 18  1  0  0  0  0
 14 15  2  0  0  0  0
 17 12  1  0  0  0  0
 19 20  1  0  0  0  0
 20 29  1  0  0  0  0
 20 21  2  0  0  0  0
 21 22  1  0  0  0  0
 22 27  1  0  0  0  0
 22 23  1  0  0  0  0
 23 24  1  1  0  0  0
 23 25  1  0  0  0  0
 25 26  1  0  0  0  0
 27 28  1  6  0  0  0
 27 23  1  0  0  0  0
 27 25  1  0  0  0  0
 29 28  1  0  0  0  0
 30 29  1  0  0  0  0
 31 21  1  0  0  0  0
 31 33  1  0  0  0  0
 32 31  2  0  0  0  0
 33 34  1  0  0  0  0
M  END
>  <minimizedAffinity>
-4.64860058

>  <minimizedRMSD>
6.8921442

$$$$
