
 OpenBabel03242519543D

 47 50  0  0  1  0  0  0  0  0999 V2000
   47.3220   34.0750   42.5440 C   0  0  2  0  0  0  0  0  0  0  0  0
   48.6820   34.6360   42.7120 C   0  0  0  0  0  0  0  0  0  0  0  0
   48.9880   35.7090   41.7220 C   0  0  0  0  0  0  0  0  0  0  0  0
   48.7820   35.2870   40.2920 C   0  0  0  0  0  0  0  0  0  0  0  0
   47.6220   34.3670   40.0820 C   0  0  2  0  0  0  0  0  0  0  0  0
   46.6610   34.4100   41.2530 C   0  0  0  0  0  0  0  0  0  0  0  0
   47.4580   32.9460   42.5840 H   0  0  0  0  0  0  0  0  0  0  0  0
   49.4990   33.8880   42.6920 H   0  0  0  0  0  0  0  0  0  0  0  0
   48.7310   35.1060   43.7220 H   0  0  0  0  0  0  0  0  0  0  0  0
   50.0840   35.9410   41.8350 H   0  0  0  0  0  0  0  0  0  0  0  0
   48.4670   36.6440   41.9880 H   0  0  0  0  0  0  0  0  0  0  0  0
   48.6820   36.2390   39.6930 H   0  0  0  0  0  0  0  0  0  0  0  0
   49.7290   34.8310   39.9050 H   0  0  0  0  0  0  0  0  0  0  0  0
   47.0610   34.7540   39.1990 H   0  0  0  0  0  0  0  0  0  0  0  0
   46.1090   35.3240   41.1570 H   0  0  0  0  0  0  0  0  0  0  0  0
   45.9060   33.5810   41.0810 H   0  0  0  0  0  0  0  0  0  0  0  0
   46.4120   34.3840   43.6570 C   0  0  0  0  0  0  0  0  0  0  0  0
   45.5800   35.4740   43.4160 C   0  0  0  0  0  0  0  0  0  0  0  0
   44.6500   35.8680   44.3820 C   0  0  0  0  0  0  0  0  0  0  0  0
   44.6270   35.1200   45.5460 N   0  0  0  0  0  0  0  0  0  0  0  0
   45.4520   34.0730   45.7390 C   0  0  0  0  0  0  0  0  0  0  0  0
   46.3300   33.7180   44.7980 N   0  0  0  0  0  0  0  0  0  0  0  0
   45.4300   36.1890   42.6200 H   0  0  0  0  0  0  0  0  0  0  0  0
   43.9300   36.6540   44.4060 H   0  0  0  0  0  0  0  0  0  0  0  0
   45.3960   33.5190   46.6700 H   0  0  0  0  0  0  0  0  0  0  0  0
   48.1070   33.0090   39.7710 C   0  0  0  0  0  0  0  0  0  0  0  0
   48.0150   32.3620   40.6680 H   0  0  0  0  0  0  0  0  0  0  0  0
   49.2140   33.0790   39.5950 H   0  0  0  0  0  0  0  0  0  0  0  0
   47.4900   32.3090   38.6350 C   0  0  0  0  0  0  0  0  0  0  0  0
   48.2910   31.8810   37.9990 H   0  0  0  0  0  0  0  0  0  0  0  0
   46.8880   31.4530   38.9990 H   0  0  0  0  0  0  0  0  0  0  0  0
   47.1460   31.0690   34.1240 C   0  0  0  0  0  0  0  0  0  0  0  0
   46.0360   31.3360   34.7790 C   0  0  0  0  0  0  0  0  0  0  0  0
   46.0430   32.0330   35.9880 N   0  0  0  0  0  0  0  0  0  0  0  0
   45.5010   32.2280   37.2650 C   0  0  0  0  0  0  0  0  0  0  0  0
   44.4620   31.8440   37.8970 O   0  0  0  0  0  0  0  0  0  0  0  0
   46.6080   33.1130   37.7350 C   0  0  2  0  0  3  0  0  0  0  0  0
   46.9640   33.1020   36.2700 C   0  0  1  0  0  3  0  0  0  0  0  0
   48.6340   32.5550   35.9020 S   0  0  0  0  0  0  0  0  0  0  0  0
   48.5280   31.4280   34.5160 C   0  0  0  0  0  3  0  0  0  0  0  0
   48.9660   31.9780   33.6310 H   0  0  0  0  0  0  0  0  0  0  0  0
   47.1050   30.3300   32.8440 C   0  0  0  0  0  2  0  0  0  0  0  0
   46.1180   30.3780   32.3350 H   0  0  0  0  0  0  0  0  0  0  0  0
   44.7660   30.8900   34.2230 C   0  0  0  0  0  0  0  0  0  0  0  0
   43.6630   31.0300   34.8100 O   0  0  0  0  0  0  0  0  0  0  0  0
   43.7690   30.3740   33.4490 O   0  0  0  0  0  0  0  0  0  0  0  0
   43.9580   29.5880   32.8380 H   0  0  0  0  0  0  0  0  0  0  0  0
  1  7  1  1  0  0  0
  1  2  1  0  0  0  0
  1 17  1  0  0  0  0
  2  9  1  0  0  0  0
  3 10  1  0  0  0  0
  3 11  1  0  0  0  0
  3  2  1  0  0  0  0
  4  3  1  0  0  0  0
  5 14  1  6  0  0  0
  5  4  1  0  0  0  0
  5  6  1  0  0  0  0
  6  1  1  0  0  0  0
  8  2  1  0  0  0  0
 12  4  1  0  0  0  0
 13  4  1  0  0  0  0
 15  6  1  0  0  0  0
 16  6  1  0  0  0  0
 17 22  1  0  0  0  0
 18 17  2  0  0  0  0
 18 19  1  0  0  0  0
 19 24  1  0  0  0  0
 19 20  2  0  0  0  0
 20 21  1  0  0  0  0
 21 25  1  0  0  0  0
 22 21  2  0  0  0  0
 23 18  1  0  0  0  0
 26  5  1  0  0  0  0
 26 27  1  0  0  0  0
 28 26  1  0  0  0  0
 29 31  1  0  0  0  0
 29 26  1  0  0  0  0
 30 29  1  0  0  0  0
 32 40  1  0  0  0  0
 32 33  2  0  0  0  0
 33 34  1  0  0  0  0
 34 38  1  0  0  0  0
 34 35  1  0  0  0  0
 35 37  1  0  0  0  0
 35 36  2  0  0  0  0
 37 29  1  1  0  0  0
 38 39  1  1  0  0  0
 38 37  1  0  0  0  0
 40 39  1  0  0  0  0
 41 40  1  0  0  0  0
 42 32  1  0  0  0  0
 43 42  1  0  0  0  0
 44 33  1  0  0  0  0
 44 45  2  0  0  0  0
 46 44  1  0  0  0  0
 47 46  1  0  0  0  0
M  END
>  <minimizedAffinity>
-6.30490541

>  <minimizedRMSD>
1.56264019

$$$$
