
 OpenBabel03242510383D

 38 41  0  0  1  0  0  0  0  0999 V2000
   47.7070   31.4000   45.4160 Cl  0  0  0  0  0  0  0  0  0  0  0  0
   46.7560   31.5720   46.8780 C   0  0  0  0  0  0  0  0  0  0  0  0
   45.8900   32.6330   46.9470 C   0  0  0  0  0  0  0  0  0  0  0  0
   45.1410   32.7830   48.0750 C   0  0  0  0  0  0  0  0  0  0  0  0
   45.2790   31.8670   49.1120 C   0  0  0  0  0  0  0  0  0  0  0  0
   46.1470   30.8100   49.0360 C   0  0  0  0  0  0  0  0  0  0  0  0
   46.9170   30.6530   47.8760 C   0  0  0  0  0  0  0  0  0  0  0  0
   44.4300   33.6170   48.1820 H   0  0  0  0  0  0  0  0  0  0  0  0
   44.7100   31.9390   50.0330 H   0  0  0  0  0  0  0  0  0  0  0  0
   46.2610   30.0950   49.8290 H   0  0  0  0  0  0  0  0  0  0  0  0
   44.7420   35.3640   44.8010 C   0  0  0  0  0  0  0  0  0  0  0  0
   45.6060   35.2970   43.6780 C   0  0  0  0  0  0  0  0  0  0  0  0
   46.5760   34.2800   43.7170 C   0  0  0  0  0  0  0  0  0  0  0  0
   46.6130   33.4650   44.7890 N   0  0  0  0  0  0  0  0  0  0  0  0
   45.7740   33.5660   45.8310 C   0  0  0  0  0  0  0  0  0  0  0  0
   44.8330   34.5270   45.8280 N   0  0  0  0  0  0  0  0  0  0  0  0
   43.9910   36.1550   44.7640 H   0  0  0  0  0  0  0  0  0  0  0  0
   45.5100   35.9970   42.8480 H   0  0  0  0  0  0  0  0  0  0  0  0
   47.4510   34.2440   42.5360 C   0  0  0  0  0  0  0  0  0  0  0  0
   48.7720   34.1340   42.9720 F   0  0  0  0  0  0  0  0  0  0  0  0
   47.3750   35.4670   41.9350 F   0  0  0  0  0  0  0  0  0  0  0  0
   47.1950   33.1880   41.6960 F   0  0  0  0  0  0  0  0  0  0  0  0
   47.8570   29.4860   47.8250 C   0  0  0  0  0  0  0  0  0  0  0  0
   49.1790   29.8410   48.3610 C   0  0  0  0  0  0  0  0  0  0  0  0
   50.3170   29.5860   47.7890 C   0  0  0  0  0  0  0  0  0  0  0  0
   51.5200   29.9990   48.4260 N   0  0  0  0  0  0  0  0  0  0  0  0
   52.8860   29.7350   48.7310 C   0  0  0  0  0  0  0  0  0  0  0  0
   53.7750   28.9140   48.3570 O   0  0  0  0  0  0  0  0  0  0  0  0
   52.9830   30.8240   49.7310 C   0  0  0  0  0  0  0  0  0  0  0  0
   53.0500   30.5070   50.7780 H   0  0  0  0  0  0  0  0  0  0  0  0
   51.6610   31.2280   49.1840 C   0  0  2  0  0  0  0  0  0  0  0  0
   50.3790   31.1140   50.4930 S   0  0  0  0  0  0  0  0  0  0  0  0
   48.9050   30.5230   49.6450 C   0  0  0  0  0  0  0  0  0  0  0  0
   48.2440   29.9330   50.3150 H   0  0  0  0  0  0  0  0  0  0  0  0
   50.4710   28.8920   46.4940 C   0  0  0  0  0  0  0  0  0  0  0  0
   50.3720   29.2160   45.2890 O   0  0  0  0  0  0  0  0  0  0  0  0
   50.7990   27.5740   46.3610 O   0  0  0  0  0  0  0  0  0  0  0  0
   50.2910   26.9230   45.7760 H   0  0  0  0  0  0  0  0  0  0  0  0
  1  2  1  0  0  0  0
  2  3  2  0  0  0  0
  2  7  1  0  0  0  0
  3  4  1  0  0  0  0
  4  8  1  0  0  0  0
  4  5  2  0  0  0  0
  5  9  1  0  0  0  0
  6  5  1  0  0  0  0
  6 10  1  0  0  0  0
  7  6  2  0  0  0  0
 11 16  1  0  0  0  0
 12 13  1  0  0  0  0
 12 11  2  0  0  0  0
 13 14  2  0  0  0  0
 14 15  1  0  0  0  0
 15  3  1  0  0  0  0
 16 15  2  0  0  0  0
 17 11  1  0  0  0  0
 18 12  1  0  0  0  0
 19 20  1  0  0  0  0
 19 13  1  0  0  0  0
 21 19  1  0  0  0  0
 22 19  1  0  0  0  0
 23  7  1  0  0  0  0
 23 24  1  0  0  0  0
 24 33  1  0  0  0  0
 25 24  2  0  0  0  0
 25 26  1  0  0  0  0
 26 27  1  0  0  0  0
 26 31  1  0  0  0  0
 27 29  1  0  0  0  0
 28 27  2  0  0  0  0
 29 30  1  0  0  0  0
 31 29  1  1  0  0  0
 31 32  1  0  0  0  0
 33 34  1  0  0  0  0
 33 32  1  0  0  0  0
 35 25  1  0  0  0  0
 36 35  2  0  0  0  0
 37 35  1  0  0  0  0
 38 37  1  0  0  0  0
M  END
>  <minimizedAffinity>
-6.25340128

>  <minimizedRMSD>
1.54720259

$$$$
