
 OpenBabel03242519003D

 46 50  0  0  1  0  0  0  0  0999 V2000
   46.2120   31.6910   43.9800 C   0  0  0  0  0  0  0  0  0  0  0  0
   47.0830   31.0640   43.0780 C   0  0  0  0  0  0  0  0  0  0  0  0
   48.1390   30.3220   43.6350 C   0  0  0  0  0  0  0  0  0  0  0  0
   48.2320   30.2670   45.0000 N   0  0  0  0  0  0  0  0  0  0  0  0
   47.3450   30.9010   45.8310 C   0  0  0  0  0  0  0  0  0  0  0  0
   46.3160   31.6270   45.3210 N   0  0  0  0  0  0  0  0  0  0  0  0
   47.0560   31.0390   42.0290 H   0  0  0  0  0  0  0  0  0  0  0  0
   48.8790   29.7940   43.0490 H   0  0  0  0  0  0  0  0  0  0  0  0
   45.1150   32.4660   43.4040 C   0  0  1  0  0  0  0  0  0  0  0  0
   44.9040   33.8850   43.8470 C   0  0  0  0  0  0  0  0  0  0  0  0
   45.3470   33.6860   42.5470 C   0  0  1  0  0  0  0  0  0  0  0  0
   44.2480   31.8100   43.1270 H   0  0  0  0  0  0  0  0  0  0  0  0
   43.8080   34.1090   44.0270 H   0  0  0  0  0  0  0  0  0  0  0  0
   45.4860   34.2590   44.7240 H   0  0  0  0  0  0  0  0  0  0  0  0
   44.6880   33.6280   41.6500 H   0  0  0  0  0  0  0  0  0  0  0  0
   46.7000   34.1540   42.1430 C   0  0  0  0  0  0  0  0  0  0  0  0
   47.6670   34.5180   43.0510 C   0  0  0  0  0  0  0  0  0  0  0  0
   48.9070   34.9940   42.7270 C   0  0  0  0  0  0  0  0  0  0  0  0
   49.2130   35.1200   41.3920 C   0  0  0  0  0  0  0  0  0  0  0  0
   48.2600   34.7630   40.4400 C   0  0  0  0  0  0  0  0  0  0  0  0
   47.0380   34.2930   40.8360 C   0  0  0  0  0  0  0  0  0  0  0  0
   47.4510   34.4270   44.1140 H   0  0  0  0  0  0  0  0  0  0  0  0
   49.6160   35.2610   43.5030 H   0  0  0  0  0  0  0  0  0  0  0  0
   50.2230   35.5080   41.1800 H   0  0  0  0  0  0  0  0  0  0  0  0
   48.6670   34.9240   39.4490 H   0  0  0  0  0  0  0  0  0  0  0  0
   46.5380   32.7200   39.0960 C   0  0  0  0  0  0  0  0  0  0  0  0
   47.3310   32.1500   39.8490 O   0  0  0  0  0  0  0  0  0  0  0  0
   46.2870   34.0300   39.6360 N   0  0  0  0  0  0  0  0  0  0  0  0
   46.0070   32.4930   38.1740 H   0  0  0  0  0  0  0  0  0  0  0  0
   45.6330   34.7730   39.2470 H   0  0  0  0  0  0  0  0  0  0  0  0
   47.5250   30.7840   47.3250 C   0  0  0  0  0  2  0  0  0  0  0  0
   48.2570   29.5610   47.6830 C   0  0  0  0  0  0  0  0  0  0  0  0
   49.3670   29.5560   48.4010 C   0  0  0  0  0  0  0  0  0  0  0  0
   49.9880   28.3130   48.6940 N   0  0  0  0  0  0  0  0  0  0  0  0
   51.1990   27.6120   48.8770 C   0  0  0  0  0  0  0  0  0  0  0  0
   52.4380   27.8340   48.9540 O   0  0  0  0  0  0  0  0  0  0  0  0
   50.5360   26.2930   48.9780 C   0  0  0  0  0  3  0  0  0  0  0  0
   50.7200   25.6470   48.0950 H   0  0  0  0  0  0  0  0  0  0  0  0
   49.2720   27.0800   48.9560 C   0  0  2  0  0  3  0  0  0  0  0  0
   48.2390   26.8100   47.4730 S   0  0  0  0  0  0  0  0  0  0  0  0
   47.5170   28.4260   47.0870 C   0  0  0  0  0  3  0  0  0  0  0  0
   47.5360   28.5370   45.9630 H   0  0  0  0  0  0  0  0  0  0  0  0
   49.9950   30.7640   48.9200 C   0  0  0  0  0  0  0  0  0  0  0  0
   49.6470   31.8490   49.4350 O   0  0  0  0  0  0  0  0  0  0  0  0
   51.3560   30.9640   48.9370 O   0  0  0  0  0  0  0  0  0  0  0  0
   51.8680   31.7790   48.6240 H   0  0  0  0  0  0  0  0  0  0  0  0
  1  6  1  0  0  0  0
  2  3  1  0  0  0  0
  2  1  2  0  0  0  0
  3  4  2  0  0  0  0
  4  5  1  0  0  0  0
  5 31  1  0  0  0  0
  6  5  2  0  0  0  0
  7  2  1  0  0  0  0
  8  3  1  0  0  0  0
  9 12  1  6  0  0  0
  9 10  1  0  0  0  0
  9  1  1  0  0  0  0
 10 13  1  0  0  0  0
 10 14  1  0  0  0  0
 11 15  1  6  0  0  0
 11  9  1  0  0  0  0
 11 10  1  0  0  0  0
 16 11  1  0  0  0  0
 16 17  1  0  0  0  0
 17 22  1  0  0  0  0
 18 17  2  0  0  0  0
 18 23  1  0  0  0  0
 19 18  1  0  0  0  0
 20 21  1  0  0  0  0
 20 19  2  0  0  0  0
 21 16  2  0  0  0  0
 24 19  1  0  0  0  0
 25 20  1  0  0  0  0
 26 28  1  0  0  0  0
 26 27  2  0  0  0  0
 28 21  1  0  0  0  0
 29 26  1  0  0  0  0
 30 28  1  0  0  0  0
 31 32  1  0  0  0  0
 32 33  2  0  0  0  0
 33 34  1  0  0  0  0
 33 43  1  0  0  0  0
 34 35  1  0  0  0  0
 34 39  1  0  0  0  0
 35 36  2  0  0  0  0
 35 37  1  0  0  0  0
 38 37  1  0  0  0  0
 39 40  1  6  0  0  0
 39 37  1  0  0  0  0
 41 40  1  0  0  0  0
 41 32  1  0  0  0  0
 42 41  1  0  0  0  0
 43 45  1  0  0  0  0
 43 44  2  0  0  0  0
 46 45  1  0  0  0  0
M  END
>  <minimizedAffinity>
-5.05621338

>  <minimizedRMSD>
2.44300222

$$$$
