
 OpenBabel03242510083D

 35 38  0  0  1  0  0  0  0  0999 V2000
   44.6160   33.1280   41.3270 Br  0  0  0  0  0  0  0  0  0  0  0  0
   46.3020   33.9980   41.1140 C   0  0  0  0  0  0  0  0  0  0  0  0
   46.8370   34.7510   42.1450 C   0  0  0  0  0  0  0  0  0  0  0  0
   48.0580   35.4030   42.0110 C   0  0  0  0  0  0  0  0  0  0  0  0
   48.7140   35.2720   40.8170 C   0  0  0  0  0  0  0  0  0  0  0  0
   48.1520   34.5160   39.8130 C   0  0  0  0  0  0  0  0  0  0  0  0
   46.9670   33.8740   39.9240 C   0  0  0  0  0  0  0  0  0  0  0  0
   48.4600   35.9900   42.8360 H   0  0  0  0  0  0  0  0  0  0  0  0
   49.6780   35.7820   40.6960 H   0  0  0  0  0  0  0  0  0  0  0  0
   48.7420   34.4830   38.9140 H   0  0  0  0  0  0  0  0  0  0  0  0
   45.5730   33.9960   45.4900 C   0  0  0  0  0  0  0  0  0  0  0  0
   44.6530   35.0250   45.7530 C   0  0  0  0  0  0  0  0  0  0  0  0
   44.4820   35.9780   44.7530 C   0  0  0  0  0  0  0  0  0  0  0  0
   45.1990   35.8550   43.6100 N   0  0  0  0  0  0  0  0  0  0  0  0
   46.0800   34.8440   43.3960 C   0  0  0  0  0  0  0  0  0  0  0  0
   46.2610   33.9120   44.3500 N   0  0  0  0  0  0  0  0  0  0  0  0
   45.6460   33.2980   46.3180 H   0  0  0  0  0  0  0  0  0  0  0  0
   44.0690   35.1630   46.6300 H   0  0  0  0  0  0  0  0  0  0  0  0
   43.8180   36.8460   44.7690 H   0  0  0  0  0  0  0  0  0  0  0  0
   46.3730   33.0690   38.8220 C   0  0  0  0  0  2  0  0  0  0  0  0
   47.1000   31.8450   38.4900 C   0  0  0  0  0  0  0  0  0  0  0  0
   47.8360   31.8290   37.4100 C   0  0  0  0  0  0  0  0  0  0  0  0
   48.5550   30.6470   37.0840 N   0  0  0  0  0  0  0  0  0  0  0  0
   48.9390   29.7090   36.0530 C   0  0  0  0  0  0  0  0  0  0  0  0
   48.9780   29.7020   34.7760 O   0  0  0  0  0  0  0  0  0  0  0  0
   49.2930   28.6960   37.0930 C   0  0  0  0  0  3  0  0  0  0  0  0
   50.3180   28.3010   36.8650 H   0  0  0  0  0  0  0  0  0  0  0  0
   49.3250   29.8610   38.0550 C   0  0  2  0  0  3  0  0  0  0  0  0
   48.3670   29.7230   39.5470 S   0  0  0  0  0  0  0  0  0  0  0  0
   46.8810   30.7280   39.4330 C   0  0  0  0  0  3  0  0  0  0  0  0
   45.9840   30.1170   39.1430 H   0  0  0  0  0  0  0  0  0  0  0  0
   48.0010   32.9480   36.4790 C   0  0  0  0  0  0  0  0  0  0  0  0
   48.2570   32.8820   35.2540 O   0  0  0  0  0  0  0  0  0  0  0  0
   48.0000   34.3040   36.3180 O   0  0  0  0  0  0  0  0  0  0  0  0
   47.1250   34.8340   36.2070 H   0  0  0  0  0  0  0  0  0  0  0  0
  2  1  1  0  0  0  0
  2  3  1  0  0  0  0
  3 15  1  0  0  0  0
  4  3  2  0  0  0  0
  4  8  1  0  0  0  0
  5  4  1  0  0  0  0
  6  7  1  0  0  0  0
  6  5  2  0  0  0  0
  7  2  2  0  0  0  0
  9  5  1  0  0  0  0
 10  6  1  0  0  0  0
 11 12  1  0  0  0  0
 11 17  1  0  0  0  0
 12 18  1  0  0  0  0
 13 19  1  0  0  0  0
 13 12  2  0  0  0  0
 14 13  1  0  0  0  0
 15 14  2  0  0  0  0
 15 16  1  0  0  0  0
 16 11  2  0  0  0  0
 20  7  1  0  0  0  0
 21 20  1  0  0  0  0
 21 30  1  0  0  0  0
 22 21  2  0  0  0  0
 23 22  1  0  0  0  0
 23 28  1  0  0  0  0
 24 23  1  0  0  0  0
 24 26  1  0  0  0  0
 25 24  2  0  0  0  0
 27 26  1  0  0  0  0
 28 26  1  6  0  0  0
 28 29  1  0  0  0  0
 30 29  1  0  0  0  0
 31 30  1  0  0  0  0
 32 22  1  0  0  0  0
 33 32  2  0  0  0  0
 34 32  1  0  0  0  0
 35 34  1  0  0  0  0
M  END
>  <minimizedAffinity>
-5.78346872

>  <minimizedRMSD>
0.69190526

$$$$
