
 OpenBabel03242518353D

 42 46  0  0  1  0  0  0  0  0999 V2000
   46.0670   32.8520   36.6270 C   0  0  2  0  0  0  0  0  0  0  0  0
   44.8910   31.9840   36.8350 C   0  0  0  0  0  0  0  0  0  0  0  0
   46.1730   31.3560   36.4000 C   0  0  1  0  0  0  0  0  0  0  0  0
   46.1000   33.5070   35.7450 H   0  0  0  0  0  0  0  0  0  0  0  0
   44.6060   31.8650   37.9130 H   0  0  0  0  0  0  0  0  0  0  0  0
   44.0110   32.0600   36.2000 H   0  0  0  0  0  0  0  0  0  0  0  0
   46.6740   30.7600   37.2020 H   0  0  0  0  0  0  0  0  0  0  0  0
   47.3910   33.6840   39.8540 C   0  0  0  0  0  0  0  0  0  0  0  0
   48.2990   34.3470   39.0280 C   0  0  0  0  0  0  0  0  0  0  0  0
   47.9470   34.1380   37.7070 C   0  0  0  0  0  0  0  0  0  0  0  0
   46.8310   33.3490   37.8050 C   0  0  0  0  0  0  0  0  0  0  0  0
   46.5020   33.0790   39.0520 O   0  0  0  0  0  0  0  0  0  0  0  0
   49.1240   34.9170   39.4250 H   0  0  0  0  0  0  0  0  0  0  0  0
   48.4490   34.5170   36.8280 H   0  0  0  0  0  0  0  0  0  0  0  0
   47.3040   33.5850   41.2520 O   0  0  0  0  0  0  0  0  0  0  0  0
   47.3710   34.7590   42.0400 C   0  0  0  0  0  0  0  0  0  0  0  0
   48.2160   35.6170   41.6790 O   0  0  0  0  0  0  0  0  0  0  0  0
   46.4740   34.8210   43.1420 C   0  0  0  0  0  0  0  0  0  0  0  0
   45.5820   35.8650   43.1040 C   0  0  0  0  0  0  0  0  0  0  0  0
   44.6710   35.9930   44.1500 C   0  0  0  0  0  0  0  0  0  0  0  0
   44.7050   35.0900   45.1450 N   0  0  0  0  0  0  0  0  0  0  0  0
   45.5980   34.0790   45.1430 C   0  0  0  0  0  0  0  0  0  0  0  0
   46.4690   33.9590   44.1410 N   0  0  0  0  0  0  0  0  0  0  0  0
   45.5340   36.5980   42.3220 H   0  0  0  0  0  0  0  0  0  0  0  0
   43.9460   36.8140   44.1520 H   0  0  0  0  0  0  0  0  0  0  0  0
   45.6650   33.3240   45.9260 H   0  0  0  0  0  0  0  0  0  0  0  0
   46.4240   30.8880   35.0220 C   0  0  0  0  0  2  0  0  0  0  0  0
   47.7290   30.2860   34.7150 C   0  0  0  0  0  0  0  0  0  0  0  0
   48.4520   31.0220   33.8300 C   0  0  0  0  0  0  0  0  0  0  0  0
   49.7840   30.6480   33.3990 N   0  0  0  0  0  0  0  0  0  0  0  0
   50.6410   30.3740   32.2820 C   0  0  0  0  0  0  0  0  0  0  0  0
   50.6220   30.7580   31.0710 O   0  0  0  0  0  0  0  0  0  0  0  0
   51.4280   29.5160   33.2450 C   0  0  0  0  0  3  0  0  0  0  0  0
   52.5090   29.7040   33.1230 H   0  0  0  0  0  0  0  0  0  0  0  0
   50.8840   30.3800   34.3610 C   0  0  2  0  0  3  0  0  0  0  0  0
   50.0940   29.4910   35.7300 S   0  0  0  0  0  0  0  0  0  0  0  0
   48.4420   29.0390   35.0810 C   0  0  0  0  0  3  0  0  0  0  0  0
   47.8590   28.4300   35.7510 H   0  0  0  0  0  0  0  0  0  0  0  0
   47.9260   32.2830   33.2660 C   0  0  0  0  0  0  0  0  0  0  0  0
   48.5950   33.2370   32.7250 O   0  0  0  0  0  0  0  0  0  0  0  0
   47.0810   33.2740   32.8700 O   0  0  0  0  0  0  0  0  0  0  0  0
   46.3870   33.6390   33.5430 H   0  0  0  0  0  0  0  0  0  0  0  0
  1  4  1  6  0  0  0
  1  2  1  0  0  0  0
  1 11  1  0  0  0  0
  2  5  1  0  0  0  0
  3  1  1  0  0  0  0
  3  2  1  0  0  0  0
  3  7  1  1  0  0  0
  6  2  1  0  0  0  0
  8 15  1  0  0  0  0
  9 13  1  0  0  0  0
  9  8  2  0  0  0  0
 10 11  2  0  0  0  0
 10  9  1  0  0  0  0
 11 12  1  0  0  0  0
 12  8  1  0  0  0  0
 14 10  1  0  0  0  0
 15 16  1  0  0  0  0
 16 18  1  0  0  0  0
 17 16  2  0  0  0  0
 18 23  1  0  0  0  0
 19 18  2  0  0  0  0
 19 20  1  0  0  0  0
 20 25  1  0  0  0  0
 20 21  2  0  0  0  0
 22 21  1  0  0  0  0
 22 26  1  0  0  0  0
 23 22  2  0  0  0  0
 24 19  1  0  0  0  0
 27  3  1  0  0  0  0
 28 27  1  0  0  0  0
 28 37  1  0  0  0  0
 29 28  2  0  0  0  0
 30 29  1  0  0  0  0
 30 35  1  0  0  0  0
 31 33  1  0  0  0  0
 31 30  1  0  0  0  0
 32 31  2  0  0  0  0
 34 33  1  0  0  0  0
 35 33  1  6  0  0  0
 35 36  1  0  0  0  0
 37 36  1  0  0  0  0
 37 38  1  0  0  0  0
 39 29  1  0  0  0  0
 40 39  2  0  0  0  0
 41 39  1  0  0  0  0
 41 42  1  0  0  0  0
M  END
>  <minimizedAffinity>
-5.92553329

>  <minimizedRMSD>
1.17663395

$$$$
