
 OpenBabel03252505533D

 40 43  0  0  1  0  0  0  0  0999 V2000
   46.9640   30.7440   47.6460 C   0  0  0  0  0  0  0  0  0  0  0  0
   47.5530   29.7480   46.8800 C   0  0  0  0  0  0  0  0  0  0  0  0
   48.8420   29.4040   47.1170 C   0  0  0  0  0  0  0  0  0  0  0  0
   49.5590   29.9940   48.0620 N   0  0  0  0  0  0  0  0  0  0  0  0
   49.0010   30.9580   48.8090 C   0  0  0  0  0  0  0  0  0  0  0  0
   47.7060   31.3480   48.6190 N   0  0  0  0  0  0  0  0  0  0  0  0
   46.8530   29.3610   46.1540 H   0  0  0  0  0  0  0  0  0  0  0  0
   49.2230   28.6250   46.4810 H   0  0  0  0  0  0  0  0  0  0  0  0
   45.6030   31.3200   47.6180 C   0  0  0  0  0  0  0  0  0  0  0  0
   45.0560   30.9250   46.7560 H   0  0  0  0  0  0  0  0  0  0  0  0
   45.1080   31.0070   48.5520 H   0  0  0  0  0  0  0  0  0  0  0  0
   45.7390   32.7180   47.5530 O   0  0  0  0  0  0  0  0  0  0  0  0
   44.8940   35.0700   45.0210 C   0  0  0  0  0  0  0  0  0  0  0  0
   45.7760   34.7640   43.9810 C   0  0  0  0  0  0  0  0  0  0  0  0
   46.6770   33.7090   44.1880 C   0  0  0  0  0  0  0  0  0  0  0  0
   46.6500   33.0510   45.3650 N   0  0  0  0  0  0  0  0  0  0  0  0
   45.7810   33.3830   46.3380 C   0  0  0  0  0  0  0  0  0  0  0  0
   44.9070   34.3820   46.1780 N   0  0  0  0  0  0  0  0  0  0  0  0
   44.1960   35.8880   44.8590 H   0  0  0  0  0  0  0  0  0  0  0  0
   47.3550   33.4850   43.3680 H   0  0  0  0  0  0  0  0  0  0  0  0
   45.7010   35.5720   42.7280 C   0  0  0  0  0  0  0  0  0  0  0  0
   45.2940   36.8210   43.1250 F   0  0  0  0  0  0  0  0  0  0  0  0
   44.7030   34.9770   41.9440 F   0  0  0  0  0  0  0  0  0  0  0  0
   46.9130   35.5580   42.1130 F   0  0  0  0  0  0  0  0  0  0  0  0
   49.8590   31.5980   49.8720 C   0  0  0  0  0  2  0  0  0  0  0  0
   50.7520   30.5730   50.4390 C   0  0  0  0  0  0  0  0  0  0  0  0
   52.0600   30.7020   50.3010 C   0  0  0  0  0  0  0  0  0  0  0  0
   52.9160   29.7140   50.8610 N   0  0  0  0  0  0  0  0  0  0  0  0
   54.0220   28.8360   50.6480 C   0  0  0  0  0  0  0  0  0  0  0  0
   55.0220   28.7930   49.8530 O   0  0  0  0  0  0  0  0  0  0  0  0
   53.5110   27.9720   51.7630 C   0  0  0  0  0  3  0  0  0  0  0  0
   54.3520   27.7400   52.4510 H   0  0  0  0  0  0  0  0  0  0  0  0
   52.8080   29.2240   52.2450 C   0  0  2  0  0  3  0  0  0  0  0  0
   51.0550   29.0540   52.6220 S   0  0  0  0  0  0  0  0  0  0  0  0
   50.1060   29.4340   51.1300 C   0  0  0  0  0  3  0  0  0  0  0  0
   50.0900   28.5700   50.4210 H   0  0  0  0  0  0  0  0  0  0  0  0
   52.6480   31.8270   49.6020 C   0  0  0  0  0  0  0  0  0  0  0  0
   53.0920   31.8090   48.4030 O   0  0  0  0  0  0  0  0  0  0  0  0
   53.1250   33.0700   49.2960 O   0  0  0  0  0  0  0  0  0  0  0  0
   53.7320   33.5610   49.9720 H   0  0  0  0  0  0  0  0  0  0  0  0
  1  6  1  0  0  0  0
  2  3  1  0  0  0  0
  2  1  2  0  0  0  0
  3  4  2  0  0  0  0
  4  5  1  0  0  0  0
  5 25  1  0  0  0  0
  6  5  2  0  0  0  0
  7  2  1  0  0  0  0
  8  3  1  0  0  0  0
  9  1  1  0  0  0  0
  9 11  1  0  0  0  0
 10  9  1  0  0  0  0
 12  9  1  0  0  0  0
 13 18  1  0  0  0  0
 14 15  1  0  0  0  0
 14 13  2  0  0  0  0
 15 16  2  0  0  0  0
 16 17  1  0  0  0  0
 17 12  1  0  0  0  0
 18 17  2  0  0  0  0
 19 13  1  0  0  0  0
 20 15  1  0  0  0  0
 21 22  1  0  0  0  0
 21 14  1  0  0  0  0
 23 21  1  0  0  0  0
 24 21  1  0  0  0  0
 25 26  1  0  0  0  0
 26 35  1  0  0  0  0
 27 26  2  0  0  0  0
 27 28  1  0  0  0  0
 28 33  1  0  0  0  0
 29 28  1  0  0  0  0
 29 31  1  0  0  0  0
 30 29  2  0  0  0  0
 31 32  1  0  0  0  0
 33 31  1  6  0  0  0
 33 34  1  0  0  0  0
 35 34  1  0  0  0  0
 36 35  1  0  0  0  0
 37 27  1  0  0  0  0
 38 37  2  0  0  0  0
 39 37  1  0  0  0  0
 39 40  1  0  0  0  0
M  END
>  <minimizedAffinity>
-6.1402297

>  <minimizedRMSD>
1.0324744

$$$$
