
 OpenBabel03252503063D

 27 29  0  0  1  0  0  0  0  0999 V2000
   46.4660   31.5810   45.1820 C   0  0  0  0  0  0  0  0  0  0  0  0
   46.5720   31.0500   46.3840 C   0  0  0  0  0  0  0  0  0  0  0  0
   45.8410   29.8800   46.7110 N   0  0  0  0  0  0  0  0  0  0  0  0
   44.9480   29.2370   47.6470 C   0  0  0  0  0  0  0  0  0  0  0  0
   44.7480   29.3540   48.9030 O   0  0  0  0  0  0  0  0  0  0  0  0
   44.4470   28.4530   46.4650 C   0  0  0  0  0  0  0  0  0  0  0  0
   43.6980   29.0360   45.9210 H   0  0  0  0  0  0  0  0  0  0  0  0
   45.8310   28.6500   45.9020 C   0  0  1  0  0  0  0  0  0  0  0  0
   45.9160   29.1740   44.1710 S   0  0  0  0  0  0  0  0  0  0  0  0
   45.5670   30.9770   44.2060 C   0  0  0  0  0  0  0  0  0  0  0  0
   44.5350   31.0210   44.6700 H   0  0  0  0  0  0  0  0  0  0  0  0
   47.4640   31.6500   47.4020 C   0  0  0  0  0  0  0  0  0  0  0  0
   47.5870   32.7680   47.9530 O   0  0  0  0  0  0  0  0  0  0  0  0
   48.4870   31.0420   48.0590 O   0  0  0  0  0  0  0  0  0  0  0  0
   48.5180   30.8950   49.0590 H   0  0  0  0  0  0  0  0  0  0  0  0
   47.1240   32.7440   44.6340 C   0  0  0  0  0  0  0  0  0  0  0  0
   45.3410   35.7590   43.2600 C   0  0  0  0  0  0  0  0  0  0  0  0
   46.2080   34.6630   43.3170 C   0  0  0  0  0  0  0  0  0  0  0  0
   46.2270   33.9300   44.4900 C   0  0  0  0  0  0  0  0  0  0  0  0
   45.4190   34.3060   45.5010 N   0  0  0  0  0  0  0  0  0  0  0  0
   44.5900   35.3700   45.4180 C   0  0  0  0  0  0  0  0  0  0  0  0
   44.5470   36.0990   44.3050 N   0  0  0  0  0  0  0  0  0  0  0  0
   45.2590   36.3950   42.3770 H   0  0  0  0  0  0  0  0  0  0  0  0
   44.0110   35.5300   46.3230 H   0  0  0  0  0  0  0  0  0  0  0  0
   47.0220   34.3490   42.1920 C   0  0  0  0  0  0  0  0  0  0  0  0
   47.8290   35.2130   41.7770 O   0  0  0  0  0  0  0  0  0  0  0  0
   47.1270   33.4810   41.5530 H   0  0  0  0  0  0  0  0  0  0  0  0
  1  2  2  0  0  0  0
  2  3  1  0  0  0  0
  2 12  1  0  0  0  0
  3  4  1  0  0  0  0
  4  5  2  0  0  0  0
  6  4  1  0  0  0  0
  7  6  1  0  0  0  0
  8  9  1  6  0  0  0
  8  6  1  0  0  0  0
  8  3  1  0  0  0  0
  9 10  1  0  0  0  0
 10 11  1  0  0  0  0
 10  1  1  0  0  0  0
 12 13  2  0  0  0  0
 12 14  1  0  0  0  0
 14 15  1  0  0  0  0
 16  1  1  0  0  0  0
 17 18  2  0  0  0  0
 17 22  1  0  0  0  0
 18 19  1  0  0  0  0
 19 16  1  0  0  0  0
 19 20  2  0  0  0  0
 21 20  1  0  0  0  0
 21 24  1  0  0  0  0
 22 21  2  0  0  0  0
 23 17  1  0  0  0  0
 25 18  1  0  0  0  0
 26 25  2  0  0  0  0
 27 25  1  0  0  0  0
M  END
>  <minimizedAffinity>
-4.82607698

>  <minimizedRMSD>
3.39024043

$$$$
