
 OpenBabel03242519013D

 46 50  0  0  1  0  0  0  0  0999 V2000
   46.4760   31.2900   42.9790 C   0  0  0  0  0  0  0  0  0  0  0  0
   47.6310   30.8830   42.2980 C   0  0  0  0  0  0  0  0  0  0  0  0
   48.6780   30.3710   43.0830 C   0  0  0  0  0  0  0  0  0  0  0  0
   48.4890   30.3080   44.4380 N   0  0  0  0  0  0  0  0  0  0  0  0
   47.3320   30.7210   45.0470 C   0  0  0  0  0  0  0  0  0  0  0  0
   46.3040   31.2210   44.3130 N   0  0  0  0  0  0  0  0  0  0  0  0
   47.8320   30.8740   41.2670 H   0  0  0  0  0  0  0  0  0  0  0  0
   49.6210   30.0260   42.6800 H   0  0  0  0  0  0  0  0  0  0  0  0
   45.3870   31.8250   42.1660 C   0  0  1  0  0  0  0  0  0  0  0  0
   44.7000   33.0910   42.5930 C   0  0  0  0  0  0  0  0  0  0  0  0
   45.4850   33.1510   41.4500 C   0  0  1  0  0  0  0  0  0  0  0  0
   44.8220   31.0080   41.6420 H   0  0  0  0  0  0  0  0  0  0  0  0
   43.5750   33.0140   42.4860 H   0  0  0  0  0  0  0  0  0  0  0  0
   44.9280   33.5000   43.6080 H   0  0  0  0  0  0  0  0  0  0  0  0
   45.1050   33.0280   40.4090 H   0  0  0  0  0  0  0  0  0  0  0  0
   46.7180   33.9820   41.4380 C   0  0  0  0  0  0  0  0  0  0  0  0
   47.2630   34.5280   42.5760 C   0  0  0  0  0  0  0  0  0  0  0  0
   48.3680   35.3320   42.6080 C   0  0  0  0  0  0  0  0  0  0  0  0
   48.9850   35.6170   41.4120 C   0  0  0  0  0  0  0  0  0  0  0  0
   48.4640   35.0830   40.2350 C   0  0  0  0  0  0  0  0  0  0  0  0
   47.3530   34.2860   40.2770 C   0  0  0  0  0  0  0  0  0  0  0  0
   46.7960   34.3170   43.5360 H   0  0  0  0  0  0  0  0  0  0  0  0
   48.7370   35.7260   43.5490 H   0  0  0  0  0  0  0  0  0  0  0  0
   49.8700   36.2690   41.4880 H   0  0  0  0  0  0  0  0  0  0  0  0
   49.0680   35.4080   39.3970 H   0  0  0  0  0  0  0  0  0  0  0  0
   47.8320   32.7800   38.4730 C   0  0  0  0  0  0  0  0  0  0  0  0
   48.5330   32.4090   39.4170 O   0  0  0  0  0  0  0  0  0  0  0  0
   47.0610   33.9110   38.9180 N   0  0  0  0  0  0  0  0  0  0  0  0
   47.6570   32.4820   37.4410 H   0  0  0  0  0  0  0  0  0  0  0  0
   46.3390   34.4580   38.3600 H   0  0  0  0  0  0  0  0  0  0  0  0
   47.2130   30.6120   46.5470 C   0  0  0  0  0  2  0  0  0  0  0  0
   47.7990   29.3590   47.0450 C   0  0  0  0  0  0  0  0  0  0  0  0
   48.7270   29.3090   47.9840 C   0  0  0  0  0  0  0  0  0  0  0  0
   49.2180   28.0410   48.3930 N   0  0  0  0  0  0  0  0  0  0  0  0
   50.3320   27.2890   48.8260 C   0  0  0  0  0  0  0  0  0  0  0  0
   51.5330   27.4600   49.1700 O   0  0  0  0  0  0  0  0  0  0  0  0
   49.6100   25.9990   48.7690 C   0  0  0  0  0  3  0  0  0  0  0  0
   49.9530   25.3450   47.9420 H   0  0  0  0  0  0  0  0  0  0  0  0
   48.4140   26.8380   48.4830 C   0  0  2  0  0  3  0  0  0  0  0  0
   47.7140   26.6110   46.8100 S   0  0  0  0  0  0  0  0  0  0  0  0
   47.1600   28.2570   46.2930 C   0  0  0  0  0  3  0  0  0  0  0  0
   47.4240   28.3660   45.2000 H   0  0  0  0  0  0  0  0  0  0  0  0
   49.2780   30.4900   48.6360 C   0  0  0  0  0  0  0  0  0  0  0  0
   48.8700   31.5800   49.0900 O   0  0  0  0  0  0  0  0  0  0  0  0
   50.6140   30.6410   48.9260 O   0  0  0  0  0  0  0  0  0  0  0  0
   51.2040   31.4410   48.7330 H   0  0  0  0  0  0  0  0  0  0  0  0
  1  6  1  0  0  0  0
  2  1  2  0  0  0  0
  2  3  1  0  0  0  0
  3  4  2  0  0  0  0
  4  5  1  0  0  0  0
  5 31  1  0  0  0  0
  6  5  2  0  0  0  0
  7  2  1  0  0  0  0
  8  3  1  0  0  0  0
  9 12  1  6  0  0  0
  9 10  1  0  0  0  0
  9  1  1  0  0  0  0
 10 14  1  0  0  0  0
 11 15  1  6  0  0  0
 11  9  1  0  0  0  0
 11 10  1  0  0  0  0
 13 10  1  0  0  0  0
 16 11  1  0  0  0  0
 16 17  1  0  0  0  0
 17 18  2  0  0  0  0
 17 22  1  0  0  0  0
 18 23  1  0  0  0  0
 19 24  1  0  0  0  0
 19 18  1  0  0  0  0
 20 21  1  0  0  0  0
 20 19  2  0  0  0  0
 21 16  2  0  0  0  0
 25 20  1  0  0  0  0
 26 28  1  0  0  0  0
 26 27  2  0  0  0  0
 28 21  1  0  0  0  0
 29 26  1  0  0  0  0
 30 28  1  0  0  0  0
 31 32  1  0  0  0  0
 32 33  2  0  0  0  0
 33 34  1  0  0  0  0
 33 43  1  0  0  0  0
 34 39  1  0  0  0  0
 34 35  1  0  0  0  0
 35 36  2  0  0  0  0
 37 35  1  0  0  0  0
 38 37  1  0  0  0  0
 39 40  1  6  0  0  0
 39 37  1  0  0  0  0
 41 40  1  0  0  0  0
 41 32  1  0  0  0  0
 42 41  1  0  0  0  0
 43 45  1  0  0  0  0
 43 44  2  0  0  0  0
 46 45  1  0  0  0  0
M  END
>  <minimizedAffinity>
-4.79422235

>  <minimizedRMSD>
3.08715582

$$$$
