
 OpenBabel03242521173D

 45 48  0  0  1  0  0  0  0  0999 V2000
   45.3250   32.5260   47.3980 C   0  0  0  0  0  0  0  0  0  0  0  0
   45.6010   32.6500   48.4540 H   0  0  0  0  0  0  0  0  0  0  0  0
   44.3720   33.0940   47.1810 H   0  0  0  0  0  0  0  0  0  0  0  0
   45.5070   30.1240   47.9610 C   0  0  0  0  0  0  0  0  0  0  0  0
   46.1510   30.5440   48.9620 O   0  0  0  0  0  0  0  0  0  0  0  0
   45.0250   31.1330   47.1090 N   0  0  0  0  0  0  0  0  0  0  0  0
   44.4500   30.9310   46.2600 H   0  0  0  0  0  0  0  0  0  0  0  0
   46.0660   25.0270   46.5340 C   0  0  0  0  0  0  0  0  0  0  0  0
   45.3950   25.9020   45.8090 C   0  0  0  0  0  0  0  0  0  0  0  0
   45.2280   27.2300   46.2860 N   0  0  0  0  0  0  0  0  0  0  0  0
   44.4060   28.3680   46.5370 C   0  0  0  0  0  0  0  0  0  0  0  0
   43.3780   28.8190   45.9530 O   0  0  0  0  0  0  0  0  0  0  0  0
   45.2710   28.7040   47.6960 C   0  0  1  0  0  3  0  0  0  0  0  0
   46.3270   28.0320   46.8500 C   0  0  1  0  0  3  0  0  0  0  0  0
   47.4600   26.9540   47.7310 S   0  0  0  0  0  0  0  0  0  0  0  0
   46.6690   25.3280   47.8560 C   0  0  0  0  0  3  0  0  0  0  0  0
   45.8880   25.4000   48.6540 H   0  0  0  0  0  0  0  0  0  0  0  0
   46.2010   23.6820   45.9730 C   0  0  0  0  0  2  0  0  0  0  0  0
   45.2090   23.2200   45.8660 H   0  0  0  0  0  0  0  0  0  0  0  0
   44.8160   25.5500   44.5180 C   0  0  0  0  0  0  0  0  0  0  0  0
   45.3310   25.7270   43.3890 O   0  0  0  0  0  0  0  0  0  0  0  0
   43.5970   24.9570   44.2430 O   0  0  0  0  0  0  0  0  0  0  0  0
   43.4800   24.0340   43.8280 H   0  0  0  0  0  0  0  0  0  0  0  0
   46.3930   32.9750   46.4260 C   0  0  0  0  0  0  0  0  0  0  0  0
   47.2060   33.4420   47.0170 H   0  0  0  0  0  0  0  0  0  0  0  0
   46.8390   32.1210   45.8830 H   0  0  0  0  0  0  0  0  0  0  0  0
   44.5280   35.7380   44.7060 C   0  0  0  0  0  0  0  0  0  0  0  0
   45.1420   35.6810   43.4360 C   0  0  0  0  0  0  0  0  0  0  0  0
   46.1400   34.7170   43.2470 C   0  0  0  0  0  0  0  0  0  0  0  0
   46.4650   33.8880   44.2950 N   0  0  0  0  0  0  0  0  0  0  0  0
   45.8420   33.9950   45.4830 C   0  0  0  0  0  0  0  0  0  0  0  0
   44.8750   34.9060   45.7090 N   0  0  0  0  0  0  0  0  0  0  0  0
   43.7490   36.4650   44.9080 H   0  0  0  0  0  0  0  0  0  0  0  0
   44.8360   36.3620   42.6640 H   0  0  0  0  0  0  0  0  0  0  0  0
   46.7630   34.6550   41.9690 N   0  0  0  0  0  0  0  0  0  0  0  0
   47.9650   35.2300   41.8190 C   0  0  0  0  0  0  0  0  0  0  0  0
   48.5800   35.1750   40.5810 C   0  0  0  0  0  0  0  0  0  0  0  0
   47.9230   34.5310   39.5610 C   0  0  0  0  0  0  0  0  0  0  0  0
   48.5040   34.4870   38.4200 O   0  0  0  0  0  0  0  0  0  0  0  0
   46.7130   33.9460   39.6940 N   0  0  0  0  0  0  0  0  0  0  0  0
   46.1850   34.0460   40.9330 C   0  0  0  0  0  0  0  0  0  0  0  0
   45.0570   33.5350   41.1690 O   0  0  0  0  0  0  0  0  0  0  0  0
   48.4790   35.7390   42.6300 H   0  0  0  0  0  0  0  0  0  0  0  0
   49.5580   35.6240   40.3950 H   0  0  0  0  0  0  0  0  0  0  0  0
   46.2370   33.4610   38.8990 H   0  0  0  0  0  0  0  0  0  0  0  0
  1  2  1  0  0  0  0
  3  1  1  0  0  0  0
  4  5  2  0  0  0  0
  6  1  1  0  0  0  0
  6  4  1  0  0  0  0
  7  6  1  0  0  0  0
  8 16  1  0  0  0  0
  9 10  1  0  0  0  0
  9  8  2  0  0  0  0
 10 11  1  0  0  0  0
 10 14  1  0  0  0  0
 11 13  1  0  0  0  0
 12 11  2  0  0  0  0
 13  4  1  6  0  0  0
 14 13  1  0  0  0  0
 14 15  1  1  0  0  0
 15 16  1  0  0  0  0
 16 17  1  0  0  0  0
 18  8  1  0  0  0  0
 19 18  1  0  0  0  0
 20  9  1  0  0  0  0
 21 20  2  0  0  0  0
 22 20  1  0  0  0  0
 23 22  1  0  0  0  0
 24 25  1  0  0  0  0
 24  1  1  0  0  0  0
 26 24  1  0  0  0  0
 27 33  1  0  0  0  0
 27 32  1  0  0  0  0
 28 27  2  0  0  0  0
 29 28  1  0  0  0  0
 29 30  2  0  0  0  0
 30 31  1  0  0  0  0
 31 32  2  0  0  0  0
 31 24  1  0  0  0  0
 34 28  1  0  0  0  0
 35 29  1  0  0  0  0
 36 35  1  0  0  0  0
 36 43  1  0  0  0  0
 37 36  2  0  0  0  0
 38 40  1  0  0  0  0
 38 37  1  0  0  0  0
 39 38  2  0  0  0  0
 40 41  1  0  0  0  0
 41 42  2  0  0  0  0
 41 35  1  0  0  0  0
 44 37  1  0  0  0  0
 45 40  1  0  0  0  0
M  END
>  <minimizedAffinity>
-6.32327127

>  <minimizedRMSD>
1.75440228

$$$$
