
 OpenBabel03242521173D

 45 48  0  0  1  0  0  0  0  0999 V2000
   45.6520   32.3880   47.4500 C   0  0  0  0  0  0  0  0  0  0  0  0
   46.0560   32.1460   48.4430 H   0  0  0  0  0  0  0  0  0  0  0  0
   44.7980   33.1200   47.5510 H   0  0  0  0  0  0  0  0  0  0  0  0
   44.9390   30.0230   47.5780 C   0  0  0  0  0  0  0  0  0  0  0  0
   45.2990   30.1170   48.7840 O   0  0  0  0  0  0  0  0  0  0  0  0
   45.0830   31.2030   46.8290 N   0  0  0  0  0  0  0  0  0  0  0  0
   44.7960   31.2770   45.8260 H   0  0  0  0  0  0  0  0  0  0  0  0
   43.9770   24.9210   46.4060 C   0  0  0  0  0  0  0  0  0  0  0  0
   44.6890   25.7110   45.6240 C   0  0  0  0  0  0  0  0  0  0  0  0
   44.8460   27.0820   45.9660 N   0  0  0  0  0  0  0  0  0  0  0  0
   44.8390   28.4610   45.6090 C   0  0  0  0  0  0  0  0  0  0  0  0
   45.1050   29.0600   44.5260 O   0  0  0  0  0  0  0  0  0  0  0  0
   44.4110   28.7890   46.9930 C   0  0  1  0  0  3  0  0  0  0  0  0
   45.1970   27.5410   47.3200 C   0  0  1  0  0  3  0  0  0  0  0  0
   44.4510   26.4500   48.5320 S   0  0  0  0  0  0  0  0  0  0  0  0
   43.2990   25.3670   47.6470 C   0  0  0  0  0  3  0  0  0  0  0  0
   42.3860   25.9730   47.4180 H   0  0  0  0  0  0  0  0  0  0  0  0
   43.8670   23.5210   45.9890 C   0  0  0  0  0  2  0  0  0  0  0  0
   43.3490   23.4580   45.0210 H   0  0  0  0  0  0  0  0  0  0  0  0
   45.3290   25.2210   44.4090 C   0  0  0  0  0  0  0  0  0  0  0  0
   46.4980   24.7840   44.2990 O   0  0  0  0  0  0  0  0  0  0  0  0
   44.8110   25.1250   43.1300 O   0  0  0  0  0  0  0  0  0  0  0  0
   44.6480   24.2510   42.6330 H   0  0  0  0  0  0  0  0  0  0  0  0
   46.6740   32.9590   46.4930 C   0  0  0  0  0  0  0  0  0  0  0  0
   47.4260   33.5070   47.0950 H   0  0  0  0  0  0  0  0  0  0  0  0
   47.2170   32.1630   45.9490 H   0  0  0  0  0  0  0  0  0  0  0  0
   44.5590   35.5430   44.7840 C   0  0  0  0  0  0  0  0  0  0  0  0
   45.1490   35.5200   43.5030 C   0  0  0  0  0  0  0  0  0  0  0  0
   46.2170   34.6380   43.3030 C   0  0  0  0  0  0  0  0  0  0  0  0
   46.6300   33.8500   44.3520 N   0  0  0  0  0  0  0  0  0  0  0  0
   46.0240   33.9200   45.5510 C   0  0  0  0  0  0  0  0  0  0  0  0
   44.9920   34.7530   45.7890 N   0  0  0  0  0  0  0  0  0  0  0  0
   43.7280   36.2070   44.9960 H   0  0  0  0  0  0  0  0  0  0  0  0
   44.7740   36.1660   42.7300 H   0  0  0  0  0  0  0  0  0  0  0  0
   46.8180   34.6110   42.0120 N   0  0  0  0  0  0  0  0  0  0  0  0
   47.9900   35.2390   41.8430 C   0  0  0  0  0  0  0  0  0  0  0  0
   48.5830   35.2190   40.5930 C   0  0  0  0  0  0  0  0  0  0  0  0
   47.9350   34.5530   39.5820 C   0  0  0  0  0  0  0  0  0  0  0  0
   48.4950   34.5420   38.4300 O   0  0  0  0  0  0  0  0  0  0  0  0
   46.7550   33.9140   39.7340 N   0  0  0  0  0  0  0  0  0  0  0  0
   46.2470   33.9830   40.9830 C   0  0  0  0  0  0  0  0  0  0  0  0
   45.1470   33.4220   41.2370 O   0  0  0  0  0  0  0  0  0  0  0  0
   48.4970   35.7660   42.6480 H   0  0  0  0  0  0  0  0  0  0  0  0
   49.5370   35.7120   40.3920 H   0  0  0  0  0  0  0  0  0  0  0  0
   46.2840   33.4140   38.9450 H   0  0  0  0  0  0  0  0  0  0  0  0
  1  3  1  0  0  0  0
  1  2  1  0  0  0  0
  4  5  2  0  0  0  0
  6  1  1  0  0  0  0
  6  4  1  0  0  0  0
  7  6  1  0  0  0  0
  8 16  1  0  0  0  0
  9 10  1  0  0  0  0
  9  8  2  0  0  0  0
 10 14  1  0  0  0  0
 11 10  1  0  0  0  0
 11 13  1  0  0  0  0
 12 11  2  0  0  0  0
 13 14  1  0  0  0  0
 13  4  1  1  0  0  0
 14 15  1  1  0  0  0
 16 15  1  0  0  0  0
 17 16  1  0  0  0  0
 18  8  1  0  0  0  0
 19 18  1  0  0  0  0
 20  9  1  0  0  0  0
 21 20  2  0  0  0  0
 22 20  1  0  0  0  0
 23 22  1  0  0  0  0
 24 25  1  0  0  0  0
 24  1  1  0  0  0  0
 26 24  1  0  0  0  0
 27 33  1  0  0  0  0
 27 32  1  0  0  0  0
 28 27  2  0  0  0  0
 29 28  1  0  0  0  0
 29 30  2  0  0  0  0
 30 31  1  0  0  0  0
 31 32  2  0  0  0  0
 31 24  1  0  0  0  0
 34 28  1  0  0  0  0
 35 29  1  0  0  0  0
 36 35  1  0  0  0  0
 36 43  1  0  0  0  0
 37 36  2  0  0  0  0
 38 40  1  0  0  0  0
 38 37  1  0  0  0  0
 39 38  2  0  0  0  0
 40 41  1  0  0  0  0
 41 42  2  0  0  0  0
 41 35  1  0  0  0  0
 44 37  1  0  0  0  0
 45 40  1  0  0  0  0
M  END
>  <minimizedAffinity>
-6.41757298

>  <minimizedRMSD>
2.40167546

$$$$
