
 OpenBabel03242512343D

 27 29  0  0  1  0  0  0  0  0999 V2000
   42.3990   34.7830   39.5380 C   0  0  0  0  0  0  0  0  0  0  0  0
   42.5640   33.4910   39.4320 C   0  0  0  0  0  0  0  0  0  0  0  0
   43.3640   32.7940   40.3790 N   0  0  0  0  0  0  0  0  0  0  0  0
   44.3480   31.7610   40.6000 C   0  0  0  0  0  0  0  0  0  0  0  0
   44.9560   30.8800   39.9020 O   0  0  0  0  0  0  0  0  0  0  0  0
   44.3970   32.1180   42.0230 C   0  0  2  0  0  3  0  0  0  0  0  0
   43.3160   33.1170   41.8160 C   0  0  1  0  0  3  0  0  0  0  0  0
   43.7550   34.8420   41.9440 S   0  0  0  0  0  0  0  0  0  0  0  0
   42.9730   35.6800   40.5630 C   0  0  0  0  0  3  0  0  0  0  0  0
   42.0970   36.2490   40.9930 H   0  0  0  0  0  0  0  0  0  0  0  0
   45.7070   32.6440   42.5210 C   0  0  0  0  0  0  0  0  0  0  0  0
   46.3940   33.2350   41.6320 O   0  0  0  0  0  0  0  0  0  0  0  0
   46.0590   32.4480   43.8890 C   0  0  0  0  0  0  0  0  0  0  0  0
   45.6950   33.5080   44.7180 C   0  0  0  0  0  0  0  0  0  0  0  0
   46.0030   33.4030   46.0870 C   0  0  0  0  0  0  0  0  0  0  0  0
   46.6380   32.2670   46.5030 N   0  0  0  0  0  0  0  0  0  0  0  0
   46.9700   31.2730   45.6680 C   0  0  0  0  0  0  0  0  0  0  0  0
   46.6780   31.3660   44.3570 N   0  0  0  0  0  0  0  0  0  0  0  0
   45.1900   34.4050   44.3800 H   0  0  0  0  0  0  0  0  0  0  0  0
   45.7430   34.1950   46.7770 H   0  0  0  0  0  0  0  0  0  0  0  0
   47.4710   30.4290   46.1290 H   0  0  0  0  0  0  0  0  0  0  0  0
   41.5360   35.3890   38.4920 C   0  0  0  0  0  2  0  0  0  0  0  0
   41.4550   36.4790   38.6780 H   0  0  0  0  0  0  0  0  0  0  0  0
   41.9390   32.7060   38.3560 C   0  0  0  0  0  0  0  0  0  0  0  0
   40.7660   32.2640   38.2950 O   0  0  0  0  0  0  0  0  0  0  0  0
   42.5980   32.3270   37.2010 O   0  0  0  0  0  0  0  0  0  0  0  0
   42.1630   32.3590   36.2920 H   0  0  0  0  0  0  0  0  0  0  0  0
  1  9  1  0  0  0  0
  2  1  2  0  0  0  0
  2  3  1  0  0  0  0
  3  4  1  0  0  0  0
  3  7  1  0  0  0  0
  4  6  1  0  0  0  0
  5  4  2  0  0  0  0
  6 11  1  6  0  0  0
  7  8  1  6  0  0  0
  7  6  1  0  0  0  0
  9 10  1  0  0  0  0
  9  8  1  0  0  0  0
 11 13  1  0  0  0  0
 12 11  2  0  0  0  0
 13 18  2  0  0  0  0
 13 14  1  0  0  0  0
 14 15  2  0  0  0  0
 15 16  1  0  0  0  0
 15 20  1  0  0  0  0
 17 21  1  0  0  0  0
 17 16  2  0  0  0  0
 18 17  1  0  0  0  0
 19 14  1  0  0  0  0
 22 23  1  0  0  0  0
 22  1  1  0  0  0  0
 24  2  1  0  0  0  0
 25 24  2  0  0  0  0
 26 24  1  0  0  0  0
 27 26  1  0  0  0  0
M  END
>  <minimizedAffinity>
-3.97371387

>  <minimizedRMSD>
3.09112048

$$$$
