
 OpenBabel03242513283D

 37 40  0  0  1  0  0  0  0  0999 V2000
   38.4730   30.6670   39.6500 C   0  0  0  0  0  0  0  0  0  0  0  0
   37.4310   31.1750   38.9280 C   0  0  0  0  0  0  0  0  0  0  0  0
   37.0980   32.4910   39.1450 C   0  0  0  0  0  0  0  0  0  0  0  0
   37.7870   33.2740   40.0560 C   0  0  0  0  0  0  0  0  0  0  0  0
   38.8170   32.7510   40.7600 C   0  0  0  0  0  0  0  0  0  0  0  0
   39.1990   31.4140   40.5790 C   0  0  0  0  0  0  0  0  0  0  0  0
   36.2780   32.9210   38.5860 H   0  0  0  0  0  0  0  0  0  0  0  0
   37.5350   34.3160   40.2370 H   0  0  0  0  0  0  0  0  0  0  0  0
   39.3640   33.3480   41.4750 H   0  0  0  0  0  0  0  0  0  0  0  0
   34.9290   28.8190   37.3650 C   0  0  0  0  0  0  0  0  0  0  0  0
   35.5580   29.6560   38.3020 C   0  0  0  0  0  0  0  0  0  0  0  0
   36.7560   30.3100   37.9940 C   0  0  0  0  0  0  0  0  0  0  0  0
   37.2350   30.0730   36.7590 N   0  0  0  0  0  0  0  0  0  0  0  0
   36.6280   29.2700   35.8630 C   0  0  0  0  0  0  0  0  0  0  0  0
   35.4860   28.6450   36.1540 N   0  0  0  0  0  0  0  0  0  0  0  0
   34.0070   28.3560   37.6930 H   0  0  0  0  0  0  0  0  0  0  0  0
   35.1350   29.8160   39.2860 H   0  0  0  0  0  0  0  0  0  0  0  0
   37.1270   29.1710   34.9050 H   0  0  0  0  0  0  0  0  0  0  0  0
   38.8470   29.3450   39.4690 O   0  0  0  0  0  0  0  0  0  0  0  0
   38.6060   28.7230   40.2350 H   0  0  0  0  0  0  0  0  0  0  0  0
   40.2380   30.8090   41.2580 O   0  0  0  0  0  0  0  0  0  0  0  0
   39.9440   30.4010   42.6070 C   0  0  0  0  0  2  0  0  0  0  0  0
   39.9870   28.9450   42.7520 C   0  0  0  0  0  0  0  0  0  0  0  0
   38.9560   28.1550   42.8040 C   0  0  0  0  0  0  0  0  0  0  0  0
   39.1620   26.7600   42.9510 N   0  0  0  0  0  0  0  0  0  0  0  0
   38.7420   25.4470   42.5730 C   0  0  0  0  0  0  0  0  0  0  0  0
   37.8170   24.8860   41.8930 O   0  0  0  0  0  0  0  0  0  0  0  0
   39.8640   24.8290   43.3140 C   0  0  0  0  0  3  0  0  0  0  0  0
   40.6290   24.3360   42.6790 H   0  0  0  0  0  0  0  0  0  0  0  0
   40.2080   26.1910   43.8200 C   0  0  1  0  0  3  0  0  0  0  0  0
   41.7640   26.8720   43.1510 S   0  0  0  0  0  0  0  0  0  0  0  0
   41.4330   28.6230   42.8130 C   0  0  0  0  0  3  0  0  0  0  0  0
   41.9480   29.1780   43.6540 H   0  0  0  0  0  0  0  0  0  0  0  0
   37.5820   28.6370   42.7210 C   0  0  0  0  0  0  0  0  0  0  0  0
   36.7000   28.7700   41.8390 O   0  0  0  0  0  0  0  0  0  0  0  0
   36.8720   29.1240   43.7940 O   0  0  0  0  0  0  0  0  0  0  0  0
   35.9410   28.8630   44.0890 H   0  0  0  0  0  0  0  0  0  0  0  0
  1  6  1  0  0  0  0
  2  3  1  0  0  0  0
  2  1  2  0  0  0  0
  3  4  2  0  0  0  0
  4  8  1  0  0  0  0
  4  5  1  0  0  0  0
  5  9  1  0  0  0  0
  6  5  2  0  0  0  0
  6 21  1  0  0  0  0
  7  3  1  0  0  0  0
 10 16  1  0  0  0  0
 10 11  1  0  0  0  0
 11 17  1  0  0  0  0
 12 11  2  0  0  0  0
 12  2  1  0  0  0  0
 13 12  1  0  0  0  0
 14 15  1  0  0  0  0
 14 13  2  0  0  0  0
 15 10  2  0  0  0  0
 18 14  1  0  0  0  0
 19  1  1  0  0  0  0
 19 20  1  0  0  0  0
 21 22  1  0  0  0  0
 22 23  1  0  0  0  0
 23 24  2  0  0  0  0
 23 32  1  0  0  0  0
 24 25  1  0  0  0  0
 25 30  1  0  0  0  0
 26 25  1  0  0  0  0
 26 28  1  0  0  0  0
 27 26  2  0  0  0  0
 28 30  1  0  0  0  0
 29 28  1  0  0  0  0
 30 31  1  6  0  0  0
 32 31  1  0  0  0  0
 32 33  1  0  0  0  0
 34 24  1  0  0  0  0
 34 36  1  0  0  0  0
 35 34  2  0  0  0  0
 36 37  1  0  0  0  0
M  END
>  <minimizedAffinity>
-6.18225145

$$$$

 OpenBabel03242513283D

 37 40  0  0  1  0  0  0  0  0999 V2000
   38.8130   31.6740   41.4080 C   0  0  0  0  0  0  0  0  0  0  0  0
   38.0680   30.5340   41.3070 C   0  0  0  0  0  0  0  0  0  0  0  0
   37.0160   30.5470   40.4240 C   0  0  0  0  0  0  0  0  0  0  0  0
   36.7180   31.6660   39.6650 C   0  0  0  0  0  0  0  0  0  0  0  0
   37.4690   32.7850   39.7800 C   0  0  0  0  0  0  0  0  0  0  0  0
   38.5550   32.8270   40.6660 C   0  0  0  0  0  0  0  0  0  0  0  0
   36.4080   29.6570   40.3210 H   0  0  0  0  0  0  0  0  0  0  0  0
   35.8890   31.6900   38.9620 H   0  0  0  0  0  0  0  0  0  0  0  0
   37.2500   33.6660   39.1950 H   0  0  0  0  0  0  0  0  0  0  0  0
   37.9370   27.7170   43.8180 C   0  0  0  0  0  0  0  0  0  0  0  0
   37.5470   28.8200   43.0390 C   0  0  0  0  0  0  0  0  0  0  0  0
   38.4300   29.4010   42.1220 C   0  0  0  0  0  0  0  0  0  0  0  0
   39.6460   28.8280   42.0560 N   0  0  0  0  0  0  0  0  0  0  0  0
   40.0140   27.7690   42.8040 C   0  0  0  0  0  0  0  0  0  0  0  0
   39.1750   27.2130   43.6800 N   0  0  0  0  0  0  0  0  0  0  0  0
   37.1870   27.3350   44.4990 H   0  0  0  0  0  0  0  0  0  0  0  0
   36.5570   29.2490   43.1280 H   0  0  0  0  0  0  0  0  0  0  0  0
   41.0260   27.4100   42.6450 H   0  0  0  0  0  0  0  0  0  0  0  0
   39.8850   31.7120   42.2860 O   0  0  0  0  0  0  0  0  0  0  0  0
   39.7370   32.2770   43.1180 H   0  0  0  0  0  0  0  0  0  0  0  0
   39.3690   33.9300   40.8390 O   0  0  0  0  0  0  0  0  0  0  0  0
   40.0530   34.3890   39.6590 C   0  0  0  0  0  2  0  0  0  0  0  0
   41.3630   33.7530   39.5120 C   0  0  0  0  0  0  0  0  0  0  0  0
   41.6310   32.7330   38.7520 C   0  0  0  0  0  0  0  0  0  0  0  0
   42.9550   32.2260   38.7210 N   0  0  0  0  0  0  0  0  0  0  0  0
   44.0020   31.6790   37.9170 C   0  0  0  0  0  0  0  0  0  0  0  0
   44.1970   31.2900   36.7150 O   0  0  0  0  0  0  0  0  0  0  0  0
   44.9450   31.6950   39.0590 C   0  0  0  0  0  3  0  0  0  0  0  0
   45.7850   32.4140   38.9610 H   0  0  0  0  0  0  0  0  0  0  0  0
   43.8060   32.1290   39.9210 C   0  0  1  0  0  3  0  0  0  0  0  0
   43.9280   33.8490   40.5210 S   0  0  0  0  0  0  0  0  0  0  0  0
   42.2540   34.5360   40.4000 C   0  0  0  0  0  3  0  0  0  0  0  0
   41.8740   34.5500   41.4660 H   0  0  0  0  0  0  0  0  0  0  0  0
   40.6280   32.0730   37.9240 C   0  0  0  0  0  0  0  0  0  0  0  0
   39.9280   31.0340   37.9710 O   0  0  0  0  0  0  0  0  0  0  0  0
   40.1860   32.5630   36.7170 O   0  0  0  0  0  0  0  0  0  0  0  0
   39.2300   32.6860   36.4120 H   0  0  0  0  0  0  0  0  0  0  0  0
  1 19  1  0  0  0  0
  2  1  1  0  0  0  0
  2 12  1  0  0  0  0
  3  2  2  0  0  0  0
  4  5  2  0  0  0  0
  4  3  1  0  0  0  0
  5  6  1  0  0  0  0
  6 21  1  0  0  0  0
  6  1  2  0  0  0  0
  7  3  1  0  0  0  0
  8  4  1  0  0  0  0
  9  5  1  0  0  0  0
 10 16  1  0  0  0  0
 11 17  1  0  0  0  0
 11 10  2  0  0  0  0
 12 11  1  0  0  0  0
 13 12  2  0  0  0  0
 13 14  1  0  0  0  0
 14 15  2  0  0  0  0
 15 10  1  0  0  0  0
 18 14  1  0  0  0  0
 19 20  1  0  0  0  0
 22 21  1  0  0  0  0
 23 22  1  0  0  0  0
 23 32  1  0  0  0  0
 24 23  2  0  0  0  0
 25 24  1  0  0  0  0
 25 30  1  0  0  0  0
 26 25  1  0  0  0  0
 26 28  1  0  0  0  0
 27 26  2  0  0  0  0
 29 28  1  0  0  0  0
 30 28  1  6  0  0  0
 30 31  1  0  0  0  0
 32 31  1  0  0  0  0
 32 33  1  0  0  0  0
 34 35  2  0  0  0  0
 34 24  1  0  0  0  0
 36 34  1  0  0  0  0
 37 36  1  0  0  0  0
M  END
>  <minimizedAffinity>
-6.16133833

$$$$

 OpenBabel03242513283D

 37 40  0  0  1  0  0  0  0  0999 V2000
   38.1840   26.0280   42.0690 C   0  0  0  0  0  0  0  0  0  0  0  0
   38.9560   24.9250   41.8380 C   0  0  0  0  0  0  0  0  0  0  0  0
   40.0520   24.7440   42.6460 C   0  0  0  0  0  0  0  0  0  0  0  0
   40.3670   25.6400   43.6550 C   0  0  0  0  0  0  0  0  0  0  0  0
   39.5880   26.7250   43.8670 C   0  0  0  0  0  0  0  0  0  0  0  0
   38.4570   26.9580   43.0720 C   0  0  0  0  0  0  0  0  0  0  0  0
   40.6820   23.8790   42.4870 H   0  0  0  0  0  0  0  0  0  0  0  0
   41.2300   25.5090   44.3020 H   0  0  0  0  0  0  0  0  0  0  0  0
   39.8200   27.4320   44.6500 H   0  0  0  0  0  0  0  0  0  0  0  0
   38.9380   22.9820   38.6000 C   0  0  0  0  0  0  0  0  0  0  0  0
   39.3430   23.8640   39.6170 C   0  0  0  0  0  0  0  0  0  0  0  0
   38.5750   24.0290   40.7740 C   0  0  0  0  0  0  0  0  0  0  0  0
   37.4500   23.2920   40.8250 N   0  0  0  0  0  0  0  0  0  0  0  0
   37.0670   22.4470   39.8480 C   0  0  0  0  0  0  0  0  0  0  0  0
   37.7970   22.2870   38.7420 N   0  0  0  0  0  0  0  0  0  0  0  0
   39.5960   22.9200   37.7430 H   0  0  0  0  0  0  0  0  0  0  0  0
   40.2580   24.4380   39.5320 H   0  0  0  0  0  0  0  0  0  0  0  0
   36.1370   21.9160   40.0230 H   0  0  0  0  0  0  0  0  0  0  0  0
   37.0670   26.2550   41.2800 O   0  0  0  0  0  0  0  0  0  0  0  0
   37.1610   27.0200   40.6170 H   0  0  0  0  0  0  0  0  0  0  0  0
   37.6140   28.0410   43.2270 O   0  0  0  0  0  0  0  0  0  0  0  0
   38.2540   29.3300   43.2420 C   0  0  0  0  0  2  0  0  0  0  0  0
   38.6340   29.7590   41.8950 C   0  0  0  0  0  0  0  0  0  0  0  0
   37.8140   30.0180   40.9200 C   0  0  0  0  0  0  0  0  0  0  0  0
   38.3390   30.4210   39.6660 N   0  0  0  0  0  0  0  0  0  0  0  0
   38.1900   31.2780   38.5320 C   0  0  0  0  0  0  0  0  0  0  0  0
   37.3540   32.1230   38.0610 O   0  0  0  0  0  0  0  0  0  0  0  0
   39.4860   30.8330   37.9720 C   0  0  0  0  0  3  0  0  0  0  0  0
   40.2790   31.6100   37.9550 H   0  0  0  0  0  0  0  0  0  0  0  0
   39.5620   29.8400   39.0830 C   0  0  1  0  0  3  0  0  0  0  0  0
   40.8580   30.1930   40.3200 S   0  0  0  0  0  0  0  0  0  0  0  0
   40.1140   29.8270   41.9340 C   0  0  0  0  0  3  0  0  0  0  0  0
   40.5690   28.8360   42.2390 H   0  0  0  0  0  0  0  0  0  0  0  0
   36.3660   29.9090   41.0500 C   0  0  0  0  0  0  0  0  0  0  0  0
   35.4900   29.0220   40.9140 O   0  0  0  0  0  0  0  0  0  0  0  0
   35.5460   30.9520   41.4130 O   0  0  0  0  0  0  0  0  0  0  0  0
   34.8300   30.9560   42.1270 H   0  0  0  0  0  0  0  0  0  0  0  0
  1  6  1  0  0  0  0
  2  1  2  0  0  0  0
  2  3  1  0  0  0  0
  3  4  2  0  0  0  0
  4  5  1  0  0  0  0
  4  8  1  0  0  0  0
  5  9  1  0  0  0  0
  6 21  1  0  0  0  0
  6  5  2  0  0  0  0
  7  3  1  0  0  0  0
 10 15  2  0  0  0  0
 10 11  1  0  0  0  0
 11 12  2  0  0  0  0
 12 13  1  0  0  0  0
 12  2  1  0  0  0  0
 14 18  1  0  0  0  0
 14 13  2  0  0  0  0
 15 14  1  0  0  0  0
 16 10  1  0  0  0  0
 17 11  1  0  0  0  0
 19  1  1  0  0  0  0
 20 19  1  0  0  0  0
 21 22  1  0  0  0  0
 23 32  1  0  0  0  0
 23 22  1  0  0  0  0
 24 34  1  0  0  0  0
 24 23  2  0  0  0  0
 25 24  1  0  0  0  0
 26 25  1  0  0  0  0
 27 26  2  0  0  0  0
 28 26  1  0  0  0  0
 29 28  1  0  0  0  0
 30 28  1  6  0  0  0
 30 25  1  0  0  0  0
 30 31  1  0  0  0  0
 31 32  1  0  0  0  0
 32 33  1  0  0  0  0
 34 36  1  0  0  0  0
 35 34  2  0  0  0  0
 36 37  1  0  0  0  0
M  END
>  <minimizedAffinity>
-6.15495539

$$$$

 OpenBabel03242513283D

 37 40  0  0  1  0  0  0  0  0999 V2000
   39.3330   32.0270   39.1510 C   0  0  0  0  0  0  0  0  0  0  0  0
   40.4610   32.7980   39.1440 C   0  0  0  0  0  0  0  0  0  0  0  0
   40.3650   34.0580   39.6820 C   0  0  0  0  0  0  0  0  0  0  0  0
   39.1770   34.5330   40.2130 C   0  0  0  0  0  0  0  0  0  0  0  0
   38.0720   33.7530   40.2110 C   0  0  0  0  0  0  0  0  0  0  0  0
   38.1140   32.4580   39.6740 C   0  0  0  0  0  0  0  0  0  0  0  0
   41.2420   34.6920   39.6910 H   0  0  0  0  0  0  0  0  0  0  0  0
   39.0870   35.5270   40.6430 H   0  0  0  0  0  0  0  0  0  0  0  0
   37.1380   34.1080   40.6220 H   0  0  0  0  0  0  0  0  0  0  0  0
   43.9820   31.4920   38.7490 C   0  0  0  0  0  0  0  0  0  0  0  0
   42.8240   32.0300   39.3360 C   0  0  0  0  0  0  0  0  0  0  0  0
   41.6670   32.2470   38.5790 C   0  0  0  0  0  0  0  0  0  0  0  0
   41.7610   31.9040   37.2810 N   0  0  0  0  0  0  0  0  0  0  0  0
   42.8730   31.3880   36.7230 C   0  0  0  0  0  0  0  0  0  0  0  0
   43.9780   31.1800   37.4420 N   0  0  0  0  0  0  0  0  0  0  0  0
   44.8270   31.3600   39.4130 H   0  0  0  0  0  0  0  0  0  0  0  0
   42.7950   32.2910   40.3860 H   0  0  0  0  0  0  0  0  0  0  0  0
   42.8060   31.1580   35.6640 H   0  0  0  0  0  0  0  0  0  0  0  0
   39.3790   30.7480   38.6190 O   0  0  0  0  0  0  0  0  0  0  0  0
   38.8990   30.6380   37.7290 H   0  0  0  0  0  0  0  0  0  0  0  0
   37.0310   31.6020   39.6370 O   0  0  0  0  0  0  0  0  0  0  0  0
   36.5060   31.2080   40.9180 C   0  0  0  0  0  2  0  0  0  0  0  0
   36.8010   29.8050   41.2140 C   0  0  0  0  0  0  0  0  0  0  0  0
   36.1930   28.7760   40.7040 C   0  0  0  0  0  0  0  0  0  0  0  0
   36.5940   27.4740   41.0960 N   0  0  0  0  0  0  0  0  0  0  0  0
   36.8360   26.1270   40.6840 C   0  0  0  0  0  0  0  0  0  0  0  0
   36.7060   25.3950   39.6440 O   0  0  0  0  0  0  0  0  0  0  0  0
   37.3610   25.7670   42.0200 C   0  0  0  0  0  3  0  0  0  0  0  0
   38.4450   25.5330   42.0490 H   0  0  0  0  0  0  0  0  0  0  0  0
   36.9710   27.1330   42.4800 C   0  0  1  0  0  3  0  0  0  0  0  0
   38.3800   28.2350   42.8430 S   0  0  0  0  0  0  0  0  0  0  0  0
   37.9180   29.8620   42.1870 C   0  0  0  0  0  3  0  0  0  0  0  0
   37.6440   30.4710   43.1010 H   0  0  0  0  0  0  0  0  0  0  0  0
   35.1050   28.8940   39.7410 C   0  0  0  0  0  0  0  0  0  0  0  0
   34.9370   28.7230   38.5100 O   0  0  0  0  0  0  0  0  0  0  0  0
   33.8270   29.2860   40.0680 O   0  0  0  0  0  0  0  0  0  0  0  0
   32.9590   28.8320   39.8220 H   0  0  0  0  0  0  0  0  0  0  0  0
  1  6  1  0  0  0  0
  2  1  2  0  0  0  0
  2  3  1  0  0  0  0
  3  7  1  0  0  0  0
  3  4  2  0  0  0  0
  4  8  1  0  0  0  0
  5  4  1  0  0  0  0
  5  9  1  0  0  0  0
  6  5  2  0  0  0  0
 10 11  1  0  0  0  0
 10 16  1  0  0  0  0
 11 17  1  0  0  0  0
 12  2  1  0  0  0  0
 12 11  2  0  0  0  0
 13 12  1  0  0  0  0
 14 13  2  0  0  0  0
 14 15  1  0  0  0  0
 15 10  2  0  0  0  0
 18 14  1  0  0  0  0
 19  1  1  0  0  0  0
 20 19  1  0  0  0  0
 21  6  1  0  0  0  0
 21 22  1  0  0  0  0
 22 23  1  0  0  0  0
 23 32  1  0  0  0  0
 24 25  1  0  0  0  0
 24 23  2  0  0  0  0
 25 30  1  0  0  0  0
 26 25  1  0  0  0  0
 26 28  1  0  0  0  0
 27 26  2  0  0  0  0
 28 29  1  0  0  0  0
 30 28  1  6  0  0  0
 30 31  1  0  0  0  0
 32 31  1  0  0  0  0
 32 33  1  0  0  0  0
 34 36  1  0  0  0  0
 34 24  1  0  0  0  0
 35 34  2  0  0  0  0
 37 36  1  0  0  0  0
M  END
>  <minimizedAffinity>
-5.90993357

$$$$

 OpenBabel03242513283D

 37 40  0  0  1  0  0  0  0  0999 V2000
   38.0660   26.0240   42.1060 C   0  0  0  0  0  0  0  0  0  0  0  0
   38.5570   24.7730   41.8560 C   0  0  0  0  0  0  0  0  0  0  0  0
   39.6070   24.3430   42.6300 C   0  0  0  0  0  0  0  0  0  0  0  0
   40.1500   25.1400   43.6250 C   0  0  0  0  0  0  0  0  0  0  0  0
   39.6490   26.3740   43.8570 C   0  0  0  0  0  0  0  0  0  0  0  0
   38.5770   26.8630   43.0960 C   0  0  0  0  0  0  0  0  0  0  0  0
   40.0160   23.3570   42.4560 H   0  0  0  0  0  0  0  0  0  0  0  0
   40.9800   24.8120   44.2450 H   0  0  0  0  0  0  0  0  0  0  0  0
   40.0610   27.0070   44.6290 H   0  0  0  0  0  0  0  0  0  0  0  0
   38.0600   22.6350   38.7840 C   0  0  0  0  0  0  0  0  0  0  0  0
   38.6910   23.3880   39.7890 C   0  0  0  0  0  0  0  0  0  0  0  0
   37.9470   23.9930   40.8090 C   0  0  0  0  0  0  0  0  0  0  0  0
   36.6180   23.7950   40.7420 N   0  0  0  0  0  0  0  0  0  0  0  0
   36.0180   23.0710   39.7760 C   0  0  0  0  0  0  0  0  0  0  0  0
   36.7240   22.4930   38.8020 N   0  0  0  0  0  0  0  0  0  0  0  0
   38.7170   22.2050   38.0380 H   0  0  0  0  0  0  0  0  0  0  0  0
   39.7650   23.5210   39.8020 H   0  0  0  0  0  0  0  0  0  0  0  0
   34.9380   22.9940   39.8470 H   0  0  0  0  0  0  0  0  0  0  0  0
   37.0080   26.5040   41.3510 O   0  0  0  0  0  0  0  0  0  0  0  0
   37.2530   27.2280   40.6820 H   0  0  0  0  0  0  0  0  0  0  0  0
   38.0110   28.1110   43.2730 O   0  0  0  0  0  0  0  0  0  0  0  0
   38.8940   29.2280   43.0710 C   0  0  0  0  0  2  0  0  0  0  0  0
   38.4610   30.0640   41.9500 C   0  0  0  0  0  0  0  0  0  0  0  0
   39.2210   30.8550   41.2530 C   0  0  0  0  0  0  0  0  0  0  0  0
   38.6490   31.6060   40.1960 N   0  0  0  0  0  0  0  0  0  0  0  0
   38.8140   32.1120   38.8690 C   0  0  0  0  0  0  0  0  0  0  0  0
   39.7110   32.1720   37.9610 O   0  0  0  0  0  0  0  0  0  0  0  0
   37.4270   32.6300   38.8480 C   0  0  0  0  0  3  0  0  0  0  0  0
   36.7460   32.1130   38.1400 H   0  0  0  0  0  0  0  0  0  0  0  0
   37.3140   32.2260   40.2810 C   0  0  1  0  0  3  0  0  0  0  0  0
   36.1880   30.8210   40.5810 S   0  0  0  0  0  0  0  0  0  0  0  0
   37.0120   29.7820   41.8190 C   0  0  0  0  0  3  0  0  0  0  0  0
   36.4570   29.9920   42.7830 H   0  0  0  0  0  0  0  0  0  0  0  0
   40.6480   31.0150   41.5100 C   0  0  0  0  0  0  0  0  0  0  0  0
   41.7240   30.5420   41.0750 O   0  0  0  0  0  0  0  0  0  0  0  0
   41.1680   31.8740   42.4510 O   0  0  0  0  0  0  0  0  0  0  0  0
   41.9060   32.5530   42.3260 H   0  0  0  0  0  0  0  0  0  0  0  0
  1  6  1  0  0  0  0
  2  1  2  0  0  0  0
  2  3  1  0  0  0  0
  3  4  2  0  0  0  0
  4  5  1  0  0  0  0
  4  8  1  0  0  0  0
  5  9  1  0  0  0  0
  6 21  1  0  0  0  0
  6  5  2  0  0  0  0
  7  3  1  0  0  0  0
 10 15  2  0  0  0  0
 10 11  1  0  0  0  0
 11 17  1  0  0  0  0
 11 12  2  0  0  0  0
 12  2  1  0  0  0  0
 13 12  1  0  0  0  0
 14 18  1  0  0  0  0
 14 13  2  0  0  0  0
 15 14  1  0  0  0  0
 16 10  1  0  0  0  0
 19  1  1  0  0  0  0
 20 19  1  0  0  0  0
 22 21  1  0  0  0  0
 23 22  1  0  0  0  0
 24 34  1  0  0  0  0
 24 23  2  0  0  0  0
 25 30  1  0  0  0  0
 25 24  1  0  0  0  0
 26 25  1  0  0  0  0
 27 26  2  0  0  0  0
 28 26  1  0  0  0  0
 29 28  1  0  0  0  0
 30 28  1  6  0  0  0
 30 31  1  0  0  0  0
 31 32  1  0  0  0  0
 32 23  1  0  0  0  0
 32 33  1  0  0  0  0
 34 36  1  0  0  0  0
 35 34  2  0  0  0  0
 37 36  1  0  0  0  0
M  END
>  <minimizedAffinity>
-5.87021875

$$$$

 OpenBabel03242513283D

 37 40  0  0  1  0  0  0  0  0999 V2000
   40.7340   32.0870   40.1800 C   0  0  0  0  0  0  0  0  0  0  0  0
   41.1840   33.3490   39.9170 C   0  0  0  0  0  0  0  0  0  0  0  0
   40.2960   34.3830   40.0940 C   0  0  0  0  0  0  0  0  0  0  0  0
   38.9970   34.1600   40.5210 C   0  0  0  0  0  0  0  0  0  0  0  0
   38.5730   32.9020   40.7770 C   0  0  0  0  0  0  0  0  0  0  0  0
   39.4370   31.8100   40.6130 C   0  0  0  0  0  0  0  0  0  0  0  0
   40.6240   35.3950   39.8940 H   0  0  0  0  0  0  0  0  0  0  0  0
   38.2850   34.9680   40.6660 H   0  0  0  0  0  0  0  0  0  0  0  0
   37.5630   32.7110   41.1110 H   0  0  0  0  0  0  0  0  0  0  0  0
   44.8810   34.1170   39.8600 C   0  0  0  0  0  0  0  0  0  0  0  0
   43.5640   33.9650   40.3270 C   0  0  0  0  0  0  0  0  0  0  0  0
   42.5460   33.5170   39.4770 C   0  0  0  0  0  0  0  0  0  0  0  0
   42.9310   33.2530   38.2140 N   0  0  0  0  0  0  0  0  0  0  0  0
   44.1950   33.3990   37.7720 C   0  0  0  0  0  0  0  0  0  0  0  0
   45.1670   33.8270   38.5800 N   0  0  0  0  0  0  0  0  0  0  0  0
   45.5990   34.4690   40.5900 H   0  0  0  0  0  0  0  0  0  0  0  0
   43.3010   34.1910   41.3530 H   0  0  0  0  0  0  0  0  0  0  0  0
   44.3610   33.1490   36.7290 H   0  0  0  0  0  0  0  0  0  0  0  0
   41.5920   31.0100   40.0160 O   0  0  0  0  0  0  0  0  0  0  0  0
   41.3920   30.4240   39.2100 H   0  0  0  0  0  0  0  0  0  0  0  0
   39.0790   30.4980   40.8540 O   0  0  0  0  0  0  0  0  0  0  0  0
   38.8910   30.1490   42.2380 C   0  0  0  0  0  2  0  0  0  0  0  0
   39.2370   28.7500   42.4940 C   0  0  0  0  0  0  0  0  0  0  0  0
   38.3990   27.7590   42.5550 C   0  0  0  0  0  0  0  0  0  0  0  0
   38.8910   26.4550   42.8170 N   0  0  0  0  0  0  0  0  0  0  0  0
   38.7890   25.0610   42.5180 C   0  0  0  0  0  0  0  0  0  0  0  0
   38.0520   24.2690   41.8380 O   0  0  0  0  0  0  0  0  0  0  0  0
   39.9690   24.7510   43.3570 C   0  0  0  0  0  3  0  0  0  0  0  0
   40.8610   24.4000   42.7980 H   0  0  0  0  0  0  0  0  0  0  0  0
   39.9780   26.1840   43.7750 C   0  0  1  0  0  3  0  0  0  0  0  0
   41.3900   27.1470   43.1330 S   0  0  0  0  0  0  0  0  0  0  0  0
   40.7120   28.7580   42.6490 C   0  0  0  0  0  3  0  0  0  0  0  0
   41.0410   29.4640   43.4700 H   0  0  0  0  0  0  0  0  0  0  0  0
   36.9620   27.9210   42.3690 C   0  0  0  0  0  0  0  0  0  0  0  0
   36.1730   28.1630   41.4260 O   0  0  0  0  0  0  0  0  0  0  0  0
   36.0400   27.8210   43.3860 O   0  0  0  0  0  0  0  0  0  0  0  0
   35.1900   27.2730   43.3980 H   0  0  0  0  0  0  0  0  0  0  0  0
  1  6  1  0  0  0  0
  2  3  1  0  0  0  0
  2  1  2  0  0  0  0
  3  4  2  0  0  0  0
  4  8  1  0  0  0  0
  4  5  1  0  0  0  0
  5  9  1  0  0  0  0
  6  5  2  0  0  0  0
  6 21  1  0  0  0  0
  7  3  1  0  0  0  0
 10 11  1  0  0  0  0
 10 16  1  0  0  0  0
 11 17  1  0  0  0  0
 12  2  1  0  0  0  0
 12 11  2  0  0  0  0
 13 12  1  0  0  0  0
 14 13  2  0  0  0  0
 14 15  1  0  0  0  0
 15 10  2  0  0  0  0
 18 14  1  0  0  0  0
 19  1  1  0  0  0  0
 20 19  1  0  0  0  0
 21 22  1  0  0  0  0
 22 23  1  0  0  0  0
 23 24  2  0  0  0  0
 23 32  1  0  0  0  0
 24 25  1  0  0  0  0
 25 30  1  0  0  0  0
 26 25  1  0  0  0  0
 26 28  1  0  0  0  0
 27 26  2  0  0  0  0
 28 30  1  0  0  0  0
 29 28  1  0  0  0  0
 30 31  1  6  0  0  0
 32 31  1  0  0  0  0
 32 33  1  0  0  0  0
 34 24  1  0  0  0  0
 34 36  1  0  0  0  0
 35 34  2  0  0  0  0
 36 37  1  0  0  0  0
M  END
>  <minimizedAffinity>
-5.84883976

$$$$

 OpenBabel03242513283D

 37 40  0  0  1  0  0  0  0  0999 V2000
   37.7410   28.7010   39.4540 C   0  0  0  0  0  0  0  0  0  0  0  0
   36.8090   28.2290   40.3350 C   0  0  0  0  0  0  0  0  0  0  0  0
   35.9290   29.1410   40.8680 C   0  0  0  0  0  0  0  0  0  0  0  0
   35.9800   30.4830   40.5290 C   0  0  0  0  0  0  0  0  0  0  0  0
   36.9100   30.9290   39.6540 C   0  0  0  0  0  0  0  0  0  0  0  0
   37.8320   30.0420   39.0810 C   0  0  0  0  0  0  0  0  0  0  0  0
   35.1790   28.7970   41.5680 H   0  0  0  0  0  0  0  0  0  0  0  0
   35.2900   31.2150   40.9420 H   0  0  0  0  0  0  0  0  0  0  0  0
   36.9630   31.9720   39.3800 H   0  0  0  0  0  0  0  0  0  0  0  0
   37.1410   24.9470   42.1720 C   0  0  0  0  0  0  0  0  0  0  0  0
   37.1540   26.3270   41.9080 C   0  0  0  0  0  0  0  0  0  0  0  0
   36.8060   26.8220   40.6460 C   0  0  0  0  0  0  0  0  0  0  0  0
   36.4690   25.8870   39.7380 N   0  0  0  0  0  0  0  0  0  0  0  0
   36.4570   24.5650   39.9970 C   0  0  0  0  0  0  0  0  0  0  0  0
   36.7880   24.0900   41.1990 N   0  0  0  0  0  0  0  0  0  0  0  0
   37.4240   24.6590   43.1760 H   0  0  0  0  0  0  0  0  0  0  0  0
   37.4330   27.0430   42.6710 H   0  0  0  0  0  0  0  0  0  0  0  0
   36.1640   23.9260   39.1700 H   0  0  0  0  0  0  0  0  0  0  0  0
   38.6510   27.8210   38.8910 O   0  0  0  0  0  0  0  0  0  0  0  0
   39.6020   27.9070   39.2400 H   0  0  0  0  0  0  0  0  0  0  0  0
   38.8090   30.4190   38.1800 O   0  0  0  0  0  0  0  0  0  0  0  0
   38.9110   31.8330   37.9290 C   0  0  0  0  0  2  0  0  0  0  0  0
   40.2260   32.3550   38.3040 C   0  0  0  0  0  0  0  0  0  0  0  0
   40.4760   33.1300   39.3170 C   0  0  0  0  0  0  0  0  0  0  0  0
   41.8080   33.5570   39.5460 N   0  0  0  0  0  0  0  0  0  0  0  0
   42.8200   33.8320   40.5170 C   0  0  0  0  0  0  0  0  0  0  0  0
   42.9540   33.8850   41.7870 O   0  0  0  0  0  0  0  0  0  0  0  0
   43.8280   34.0760   39.4600 C   0  0  0  0  0  3  0  0  0  0  0  0
   44.6420   33.3230   39.4070 H   0  0  0  0  0  0  0  0  0  0  0  0
   42.7310   33.9280   38.4580 C   0  0  1  0  0  3  0  0  0  0  0  0
   42.8430   32.4220   37.4340 S   0  0  0  0  0  0  0  0  0  0  0  0
   41.1470   31.7950   37.2860 C   0  0  0  0  0  3  0  0  0  0  0  0
   40.8300   32.0750   36.2370 H   0  0  0  0  0  0  0  0  0  0  0  0
   39.4440   33.5900   40.2380 C   0  0  0  0  0  0  0  0  0  0  0  0
   38.5450   34.4640   40.2590 O   0  0  0  0  0  0  0  0  0  0  0  0
   39.2280   33.0470   41.4840 O   0  0  0  0  0  0  0  0  0  0  0  0
   38.3500   32.7390   41.8810 H   0  0  0  0  0  0  0  0  0  0  0  0
  1  2  1  0  0  0  0
  2 12  1  0  0  0  0
  2  3  2  0  0  0  0
  3  7  1  0  0  0  0
  4  3  1  0  0  0  0
  4  8  1  0  0  0  0
  5  4  2  0  0  0  0
  6  1  2  0  0  0  0
  6  5  1  0  0  0  0
  9  5  1  0  0  0  0
 10 16  1  0  0  0  0
 11 10  1  0  0  0  0
 11 17  1  0  0  0  0
 12 11  2  0  0  0  0
 13 14  2  0  0  0  0
 13 12  1  0  0  0  0
 14 15  1  0  0  0  0
 15 10  2  0  0  0  0
 18 14  1  0  0  0  0
 19 20  1  0  0  0  0
 19  1  1  0  0  0  0
 21  6  1  0  0  0  0
 22 21  1  0  0  0  0
 22 23  1  0  0  0  0
 23 24  2  0  0  0  0
 24 25  1  0  0  0  0
 24 34  1  0  0  0  0
 25 26  1  0  0  0  0
 26 27  2  0  0  0  0
 28 26  1  0  0  0  0
 29 28  1  0  0  0  0
 30 31  1  6  0  0  0
 30 28  1  0  0  0  0
 30 25  1  0  0  0  0
 32 31  1  0  0  0  0
 32 23  1  0  0  0  0
 33 32  1  0  0  0  0
 34 35  2  0  0  0  0
 34 36  1  0  0  0  0
 36 37  1  0  0  0  0
M  END
>  <minimizedAffinity>
-5.84735727

$$$$

 OpenBabel03242513283D

 37 40  0  0  1  0  0  0  0  0999 V2000
   37.1220   27.2530   40.6830 C   0  0  0  0  0  0  0  0  0  0  0  0
   36.9940   26.1250   41.4420 C   0  0  0  0  0  0  0  0  0  0  0  0
   36.8800   26.2910   42.8010 C   0  0  0  0  0  0  0  0  0  0  0  0
   36.8940   27.5480   43.3830 C   0  0  0  0  0  0  0  0  0  0  0  0
   37.0220   28.6520   42.6130 C   0  0  0  0  0  0  0  0  0  0  0  0
   37.1410   28.5400   41.2200 C   0  0  0  0  0  0  0  0  0  0  0  0
   36.7760   25.4150   43.4280 H   0  0  0  0  0  0  0  0  0  0  0  0
   36.8040   27.6940   44.4560 H   0  0  0  0  0  0  0  0  0  0  0  0
   37.0340   29.6390   43.0510 H   0  0  0  0  0  0  0  0  0  0  0  0
   37.7820   22.5580   40.4850 C   0  0  0  0  0  0  0  0  0  0  0  0
   37.8190   23.7910   41.1590 C   0  0  0  0  0  0  0  0  0  0  0  0
   36.9840   24.8460   40.7770 C   0  0  0  0  0  0  0  0  0  0  0  0
   36.1680   24.5820   39.7390 N   0  0  0  0  0  0  0  0  0  0  0  0
   36.1350   23.3980   39.0970 C   0  0  0  0  0  0  0  0  0  0  0  0
   36.9310   22.3900   39.4590 N   0  0  0  0  0  0  0  0  0  0  0  0
   38.4640   21.8020   40.8520 H   0  0  0  0  0  0  0  0  0  0  0  0
   38.4940   23.9570   41.9900 H   0  0  0  0  0  0  0  0  0  0  0  0
   35.4270   23.3260   38.2780 H   0  0  0  0  0  0  0  0  0  0  0  0
   37.2420   27.1380   39.3060 O   0  0  0  0  0  0  0  0  0  0  0  0
   38.1690   27.3330   38.9400 H   0  0  0  0  0  0  0  0  0  0  0  0
   37.2740   29.6190   40.3670 O   0  0  0  0  0  0  0  0  0  0  0  0
   38.0640   30.7130   40.8670 C   0  0  0  0  0  2  0  0  0  0  0  0
   39.1000   31.1110   39.9130 C   0  0  0  0  0  0  0  0  0  0  0  0
   39.3310   32.3230   39.5040 C   0  0  0  0  0  0  0  0  0  0  0  0
   40.3730   32.5480   38.5690 N   0  0  0  0  0  0  0  0  0  0  0  0
   41.4440   33.4030   38.1620 C   0  0  0  0  0  0  0  0  0  0  0  0
   41.9490   34.5360   38.4720 O   0  0  0  0  0  0  0  0  0  0  0  0
   41.8640   32.4480   37.1120 C   0  0  0  0  0  3  0  0  0  0  0  0
   42.8470   31.9620   37.2870 H   0  0  0  0  0  0  0  0  0  0  0  0
   40.6590   31.6330   37.4500 C   0  0  1  0  0  3  0  0  0  0  0  0
   41.0300   30.0400   38.2590 S   0  0  0  0  0  0  0  0  0  0  0  0
   39.7840   29.8440   39.5620 C   0  0  0  0  0  3  0  0  0  0  0  0
   39.0590   29.0790   39.1510 H   0  0  0  0  0  0  0  0  0  0  0  0
   38.5620   33.4750   39.9580 C   0  0  0  0  0  0  0  0  0  0  0  0
   38.6380   34.3390   40.8640 O   0  0  0  0  0  0  0  0  0  0  0  0
   37.3950   33.9030   39.3670 O   0  0  0  0  0  0  0  0  0  0  0  0
   37.1590   34.8410   39.0730 H   0  0  0  0  0  0  0  0  0  0  0  0
  1  6  2  0  0  0  0
  1  2  1  0  0  0  0
  2  3  2  0  0  0  0
  3  4  1  0  0  0  0
  3  7  1  0  0  0  0
  4  8  1  0  0  0  0
  5  9  1  0  0  0  0
  5  4  2  0  0  0  0
  6  5  1  0  0  0  0
 10 16  1  0  0  0  0
 10 11  1  0  0  0  0
 11 17  1  0  0  0  0
 12 11  2  0  0  0  0
 12  2  1  0  0  0  0
 13 12  1  0  0  0  0
 14 15  1  0  0  0  0
 14 13  2  0  0  0  0
 15 10  2  0  0  0  0
 18 14  1  0  0  0  0
 19  1  1  0  0  0  0
 20 19  1  0  0  0  0
 21 22  1  0  0  0  0
 21  6  1  0  0  0  0
 23 22  1  0  0  0  0
 24 23  2  0  0  0  0
 24 34  1  0  0  0  0
 25 24  1  0  0  0  0
 26 27  2  0  0  0  0
 26 25  1  0  0  0  0
 28 29  1  0  0  0  0
 28 26  1  0  0  0  0
 30 28  1  1  0  0  0
 30 31  1  0  0  0  0
 30 25  1  0  0  0  0
 31 32  1  0  0  0  0
 32 23  1  0  0  0  0
 33 32  1  0  0  0  0
 34 35  2  0  0  0  0
 36 34  1  0  0  0  0
 37 36  1  0  0  0  0
M  END
>  <minimizedAffinity>
-5.79861021

$$$$

 OpenBabel03242513283D

 37 40  0  0  1  0  0  0  0  0999 V2000
   38.5970   27.3360   41.9990 C   0  0  0  0  0  0  0  0  0  0  0  0
   37.5570   26.4530   42.0730 C   0  0  0  0  0  0  0  0  0  0  0  0
   36.5910   26.6960   43.0200 C   0  0  0  0  0  0  0  0  0  0  0  0
   36.6640   27.7900   43.8670 C   0  0  0  0  0  0  0  0  0  0  0  0
   37.7020   28.6520   43.7770 C   0  0  0  0  0  0  0  0  0  0  0  0
   38.7150   28.4520   42.8280 C   0  0  0  0  0  0  0  0  0  0  0  0
   35.7550   26.0150   43.1020 H   0  0  0  0  0  0  0  0  0  0  0  0
   35.9070   27.9950   44.6200 H   0  0  0  0  0  0  0  0  0  0  0  0
   37.7730   29.5100   44.4300 H   0  0  0  0  0  0  0  0  0  0  0  0
   37.6690   22.9490   40.6700 C   0  0  0  0  0  0  0  0  0  0  0  0
   37.6930   24.0120   41.5890 C   0  0  0  0  0  0  0  0  0  0  0  0
   37.5370   25.3360   41.1630 C   0  0  0  0  0  0  0  0  0  0  0  0
   37.3680   25.4930   39.8370 N   0  0  0  0  0  0  0  0  0  0  0  0
   37.3450   24.4700   38.9600 C   0  0  0  0  0  0  0  0  0  0  0  0
   37.4940   23.2070   39.3630 N   0  0  0  0  0  0  0  0  0  0  0  0
   37.7980   21.9610   41.0930 H   0  0  0  0  0  0  0  0  0  0  0  0
   37.8330   23.8370   42.6480 H   0  0  0  0  0  0  0  0  0  0  0  0
   37.2000   24.7440   37.9200 H   0  0  0  0  0  0  0  0  0  0  0  0
   39.5960   27.1330   41.0610 O   0  0  0  0  0  0  0  0  0  0  0  0
   40.4840   26.8190   41.4430 H   0  0  0  0  0  0  0  0  0  0  0  0
   39.8050   29.2860   42.6740 O   0  0  0  0  0  0  0  0  0  0  0  0
   39.5210   30.6960   42.7350 C   0  0  0  0  0  2  0  0  0  0  0  0
   39.9590   31.3870   41.5210 C   0  0  0  0  0  0  0  0  0  0  0  0
   41.1490   31.8610   41.3020 C   0  0  0  0  0  0  0  0  0  0  0  0
   41.4170   32.5120   40.0720 N   0  0  0  0  0  0  0  0  0  0  0  0
   42.3570   32.7240   39.0170 C   0  0  0  0  0  0  0  0  0  0  0  0
   43.5660   32.4270   38.7230 O   0  0  0  0  0  0  0  0  0  0  0  0
   41.3730   33.5100   38.2400 C   0  0  0  0  0  3  0  0  0  0  0  0
   41.0280   33.0310   37.3000 H   0  0  0  0  0  0  0  0  0  0  0  0
   40.4500   33.4050   39.4090 C   0  0  1  0  0  3  0  0  0  0  0  0
   38.9900   32.3480   39.1230 S   0  0  0  0  0  0  0  0  0  0  0  0
   38.7580   31.3990   40.6510 C   0  0  0  0  0  3  0  0  0  0  0  0
   37.8770   31.8930   41.1620 H   0  0  0  0  0  0  0  0  0  0  0  0
   42.2340   31.7590   42.2710 C   0  0  0  0  0  0  0  0  0  0  0  0
   42.8870   30.8500   42.8360 O   0  0  0  0  0  0  0  0  0  0  0  0
   42.8530   32.8430   42.8490 O   0  0  0  0  0  0  0  0  0  0  0  0
   43.8460   33.0220   42.9230 H   0  0  0  0  0  0  0  0  0  0  0  0
  1  2  2  0  0  0  0
  1  6  1  0  0  0  0
  2  3  1  0  0  0  0
  3  7  1  0  0  0  0
  3  4  2  0  0  0  0
  4  8  1  0  0  0  0
  5  4  1  0  0  0  0
  5  9  1  0  0  0  0
  6  5  2  0  0  0  0
 10 16  1  0  0  0  0
 10 11  1  0  0  0  0
 11 17  1  0  0  0  0
 12 11  2  0  0  0  0
 12  2  1  0  0  0  0
 13 12  1  0  0  0  0
 14 15  1  0  0  0  0
 14 13  2  0  0  0  0
 15 10  2  0  0  0  0
 18 14  1  0  0  0  0
 19 20  1  0  0  0  0
 19  1  1  0  0  0  0
 21 22  1  0  0  0  0
 21  6  1  0  0  0  0
 23 22  1  0  0  0  0
 24 23  2  0  0  0  0
 24 34  1  0  0  0  0
 25 24  1  0  0  0  0
 26 25  1  0  0  0  0
 27 26  2  0  0  0  0
 28 26  1  0  0  0  0
 29 28  1  0  0  0  0
 30 28  1  6  0  0  0
 30 25  1  0  0  0  0
 31 30  1  0  0  0  0
 31 32  1  0  0  0  0
 32 33  1  0  0  0  0
 32 23  1  0  0  0  0
 34 35  2  0  0  0  0
 34 36  1  0  0  0  0
 36 37  1  0  0  0  0
M  END
>  <minimizedAffinity>
-5.75797558

$$$$
