
 OpenBabel03242520023D

 37 40  0  0  1  0  0  0  0  0999 V2000
   40.0360   26.8110   40.6050 Br  0  0  0  0  0  0  0  0  0  0  0  0
   38.6060   27.0380   41.8390 C   0  0  0  0  0  0  0  0  0  0  0  0
   37.5490   26.1500   41.9130 C   0  0  0  0  0  0  0  0  0  0  0  0
   36.5460   26.4010   42.8390 C   0  0  0  0  0  0  0  0  0  0  0  0
   36.5750   27.4970   43.6790 C   0  0  0  0  0  0  0  0  0  0  0  0
   37.6320   28.3860   43.6080 C   0  0  0  0  0  0  0  0  0  0  0  0
   38.6250   28.1200   42.6760 C   0  0  0  0  0  0  0  0  0  0  0  0
   35.7420   25.7070   42.8810 H   0  0  0  0  0  0  0  0  0  0  0  0
   35.7350   27.5980   44.3700 H   0  0  0  0  0  0  0  0  0  0  0  0
   37.6390   29.2460   44.2770 H   0  0  0  0  0  0  0  0  0  0  0  0
   38.0920   22.7060   40.4490 C   0  0  0  0  0  0  0  0  0  0  0  0
   38.0960   23.7830   41.3480 C   0  0  0  0  0  0  0  0  0  0  0  0
   37.5660   25.0070   41.0160 C   0  0  0  0  0  0  0  0  0  0  0  0
   37.0400   25.0790   39.7480 N   0  0  0  0  0  0  0  0  0  0  0  0
   37.0410   24.0460   38.8980 C   0  0  0  0  0  0  0  0  0  0  0  0
   37.5560   22.8760   39.2360 N   0  0  0  0  0  0  0  0  0  0  0  0
   38.5060   21.7450   40.7030 H   0  0  0  0  0  0  0  0  0  0  0  0
   38.5250   23.6390   42.3120 H   0  0  0  0  0  0  0  0  0  0  0  0
   36.5760   24.3350   37.9610 H   0  0  0  0  0  0  0  0  0  0  0  0
   39.7310   29.0520   42.6390 C   0  0  1  0  0  3  0  0  0  0  0  0
   40.8570   28.7240   43.1680 O   0  0  0  0  0  1  0  0  0  0  0  0
   41.7820   33.0800   39.6920 C   0  0  0  0  0  0  0  0  0  0  0  0
   40.8330   32.2550   39.3540 C   0  0  0  0  0  0  0  0  0  0  0  0
   40.2860   31.3290   40.2500 N   0  0  0  0  0  0  0  0  0  0  0  0
   39.1600   30.6260   40.7930 C   0  0  0  0  0  0  0  0  0  0  0  0
   38.0180   30.3300   40.3020 O   0  0  0  0  0  0  0  0  0  0  0  0
   39.8790   30.4230   42.0770 C   0  0  2  0  0  3  0  0  0  0  0  0
   41.1180   30.6090   41.1970 C   0  0  2  0  0  3  0  0  0  0  0  0
   42.2660   31.7380   42.0440 S   0  0  0  0  0  0  0  0  0  0  0  0
   42.4220   33.1930   41.0090 C   0  0  0  0  0  3  0  0  0  0  0  0
   43.5270   33.3230   40.8120 H   0  0  0  0  0  0  0  0  0  0  0  0
   42.2480   33.9920   38.6180 C   0  0  0  0  0  2  0  0  0  0  0  0
   42.3170   33.4490   37.6380 H   0  0  0  0  0  0  0  0  0  0  0  0
   40.3470   32.3250   37.9830 C   0  0  0  0  0  0  0  0  0  0  0  0
   39.1710   31.9790   37.6330 O   0  0  0  0  0  0  0  0  0  0  0  0
   40.0960   32.4700   36.6460 O   0  0  0  0  0  0  0  0  0  0  0  0
   40.7700   32.8600   35.9770 H   0  0  0  0  0  0  0  0  0  0  0  0
  1  2  1  0  0  0  0
  2  3  2  0  0  0  0
  2  7  1  0  0  0  0
  3  4  1  0  0  0  0
  4  8  1  0  0  0  0
  4  5  2  0  0  0  0
  5  9  1  0  0  0  0
  6  5  1  0  0  0  0
  6 10  1  0  0  0  0
  7  6  2  0  0  0  0
 11 17  1  0  0  0  0
 11 12  1  0  0  0  0
 12 18  1  0  0  0  0
 13 12  2  0  0  0  0
 13  3  1  0  0  0  0
 14 13  1  0  0  0  0
 15 16  1  0  0  0  0
 15 14  2  0  0  0  0
 16 11  2  0  0  0  0
 19 15  1  0  0  0  0
 20  7  1  0  0  0  0
 20 21  1  6  0  0  0
 22 30  1  0  0  0  0
 23 22  2  0  0  0  0
 23 24  1  0  0  0  0
 24 25  1  0  0  0  0
 24 28  1  0  0  0  0
 25 27  1  0  0  0  0
 26 25  2  0  0  0  0
 27 20  1  6  0  0  0
 28 29  1  1  0  0  0
 28 27  1  0  0  0  0
 30 29  1  0  0  0  0
 31 30  1  0  0  0  0
 32 22  1  0  0  0  0
 33 32  1  0  0  0  0
 34 23  1  0  0  0  0
 35 34  2  0  0  0  0
 36 34  1  0  0  0  0
 37 36  1  0  0  0  0
M  END
>  <minimizedAffinity>
-6.42049837

$$$$

 OpenBabel03242520023D

 37 40  0  0  1  0  0  0  0  0999 V2000
   36.9500   26.6650   40.6930 Br  0  0  0  0  0  0  0  0  0  0  0  0
   38.4100   26.1610   41.8040 C   0  0  0  0  0  0  0  0  0  0  0  0
   39.0870   24.9670   41.6340 C   0  0  0  0  0  0  0  0  0  0  0  0
   40.1350   24.6790   42.4970 C   0  0  0  0  0  0  0  0  0  0  0  0
   40.5160   25.5410   43.5080 C   0  0  0  0  0  0  0  0  0  0  0  0
   39.8420   26.7350   43.6800 C   0  0  0  0  0  0  0  0  0  0  0  0
   38.7970   27.0070   42.8080 C   0  0  0  0  0  0  0  0  0  0  0  0
   40.6430   23.7570   42.3500 H   0  0  0  0  0  0  0  0  0  0  0  0
   41.3540   25.2160   44.1290 H   0  0  0  0  0  0  0  0  0  0  0  0
   40.1530   27.4040   44.4820 H   0  0  0  0  0  0  0  0  0  0  0  0
   37.3360   22.2820   39.6270 C   0  0  0  0  0  0  0  0  0  0  0  0
   37.7230   23.0990   40.7010 C   0  0  0  0  0  0  0  0  0  0  0  0
   38.6560   24.0980   40.5520 C   0  0  0  0  0  0  0  0  0  0  0  0
   39.1650   24.2220   39.2820 N   0  0  0  0  0  0  0  0  0  0  0  0
   38.7900   23.4380   38.2640 C   0  0  0  0  0  0  0  0  0  0  0  0
   37.8910   22.4820   38.4270 N   0  0  0  0  0  0  0  0  0  0  0  0
   36.6070   21.4990   39.7370 H   0  0  0  0  0  0  0  0  0  0  0  0
   37.2770   22.9330   41.6530 H   0  0  0  0  0  0  0  0  0  0  0  0
   39.3230   23.7190   37.3630 H   0  0  0  0  0  0  0  0  0  0  0  0
   38.1230   28.2730   42.9940 C   0  0  1  0  0  3  0  0  0  0  0  0
   37.0150   28.3150   43.6450 O   0  0  0  0  0  1  0  0  0  0  0  0
   40.2620   32.2550   40.0460 C   0  0  0  0  0  0  0  0  0  0  0  0
   39.0890   31.7090   39.9050 C   0  0  0  0  0  0  0  0  0  0  0  0
   38.5820   30.7700   40.8130 N   0  0  0  0  0  0  0  0  0  0  0  0
   37.4970   30.2250   41.5740 C   0  0  0  0  0  0  0  0  0  0  0  0
   36.2310   30.2530   41.4030 O   0  0  0  0  0  0  0  0  0  0  0  0
   38.4490   29.6630   42.5680 C   0  0  2  0  0  3  0  0  0  0  0  0
   39.4290   29.7450   41.3950 C   0  0  2  0  0  3  0  0  0  0  0  0
   40.9920   30.4580   41.9960 S   0  0  0  0  0  0  0  0  0  0  0  0
   41.2250   32.0080   41.1280 C   0  0  0  0  0  3  0  0  0  0  0  0
   42.2410   31.9460   40.6370 H   0  0  0  0  0  0  0  0  0  0  0  0
   40.6440   33.2260   38.9910 C   0  0  0  0  0  2  0  0  0  0  0  0
   40.3290   32.8580   37.9790 H   0  0  0  0  0  0  0  0  0  0  0  0
   38.3010   32.1100   38.7480 C   0  0  0  0  0  0  0  0  0  0  0  0
   37.0850   32.4860   38.8190 O   0  0  0  0  0  0  0  0  0  0  0  0
   37.7480   32.4440   37.5430 O   0  0  0  0  0  0  0  0  0  0  0  0
   38.2640   32.4370   36.6550 H   0  0  0  0  0  0  0  0  0  0  0  0
  1  2  1  0  0  0  0
  2  7  1  0  0  0  0
  3  2  2  0  0  0  0
  3  4  1  0  0  0  0
  4  5  2  0  0  0  0
  5  6  1  0  0  0  0
  5  9  1  0  0  0  0
  6 10  1  0  0  0  0
  7 20  1  0  0  0  0
  7  6  2  0  0  0  0
  8  4  1  0  0  0  0
 11 17  1  0  0  0  0
 11 12  1  0  0  0  0
 12 18  1  0  0  0  0
 13 12  2  0  0  0  0
 13  3  1  0  0  0  0
 14 13  1  0  0  0  0
 15 16  1  0  0  0  0
 15 14  2  0  0  0  0
 16 11  2  0  0  0  0
 19 15  1  0  0  0  0
 20 21  1  1  0  0  0
 22 30  1  0  0  0  0
 23 22  2  0  0  0  0
 23 24  1  0  0  0  0
 24 28  1  0  0  0  0
 24 25  1  0  0  0  0
 25 27  1  0  0  0  0
 26 25  2  0  0  0  0
 27 20  1  6  0  0  0
 28 29  1  1  0  0  0
 28 27  1  0  0  0  0
 30 29  1  0  0  0  0
 31 30  1  0  0  0  0
 32 22  1  0  0  0  0
 33 32  1  0  0  0  0
 34 35  2  0  0  0  0
 34 23  1  0  0  0  0
 36 34  1  0  0  0  0
 37 36  1  0  0  0  0
M  END
>  <minimizedAffinity>
-6.30780697

$$$$

 OpenBabel03242520023D

 37 40  0  0  1  0  0  0  0  0999 V2000
   38.1190   31.5880   38.6340 Br  0  0  0  0  0  0  0  0  0  0  0  0
   39.0690   31.2410   40.2450 C   0  0  0  0  0  0  0  0  0  0  0  0
   40.3890   31.6170   40.4180 C   0  0  0  0  0  0  0  0  0  0  0  0
   41.0040   31.3150   41.6250 C   0  0  0  0  0  0  0  0  0  0  0  0
   40.3430   30.6590   42.6450 C   0  0  0  0  0  0  0  0  0  0  0  0
   39.0240   30.2830   42.4760 C   0  0  0  0  0  0  0  0  0  0  0  0
   38.4250   30.5920   41.2630 C   0  0  0  0  0  0  0  0  0  0  0  0
   42.0180   31.6120   41.7390 H   0  0  0  0  0  0  0  0  0  0  0  0
   40.9220   30.4710   43.5530 H   0  0  0  0  0  0  0  0  0  0  0  0
   38.5170   29.7650   43.2900 H   0  0  0  0  0  0  0  0  0  0  0  0
   41.8200   34.3090   38.1790 C   0  0  0  0  0  0  0  0  0  0  0  0
   41.1840   33.6780   39.2600 C   0  0  0  0  0  0  0  0  0  0  0  0
   41.0390   32.3120   39.3200 C   0  0  0  0  0  0  0  0  0  0  0  0
   41.5650   31.6330   38.2470 N   0  0  0  0  0  0  0  0  0  0  0  0
   42.1700   32.2420   37.2210 C   0  0  0  0  0  0  0  0  0  0  0  0
   42.2990   33.5580   37.1820 N   0  0  0  0  0  0  0  0  0  0  0  0
   41.9360   35.3770   38.1260 H   0  0  0  0  0  0  0  0  0  0  0  0
   40.8060   34.2830   40.0500 H   0  0  0  0  0  0  0  0  0  0  0  0
   42.5020   31.5080   36.4960 H   0  0  0  0  0  0  0  0  0  0  0  0
   37.0370   30.2100   41.1200 C   0  0  1  0  0  3  0  0  0  0  0  0
   36.1140   31.0850   41.3080 O   0  0  0  0  0  1  0  0  0  0  0  0
   36.4450   25.2620   39.0490 C   0  0  0  0  0  0  0  0  0  0  0  0
   36.8360   25.5760   40.2500 C   0  0  0  0  0  0  0  0  0  0  0  0
   36.8260   26.8930   40.7250 N   0  0  0  0  0  0  0  0  0  0  0  0
   36.5920   27.8450   41.7720 C   0  0  0  0  0  0  0  0  0  0  0  0
   36.5890   27.7350   43.0440 O   0  0  0  0  0  0  0  0  0  0  0  0
   36.3740   28.9230   40.7710 C   0  0  2  0  0  3  0  0  0  0  0  0
   37.2160   28.0060   39.8790 C   0  0  2  0  0  3  0  0  0  0  0  0
   36.4170   27.8940   38.2480 S   0  0  0  0  0  0  0  0  0  0  0  0
   35.9420   26.1810   38.0190 C   0  0  0  0  0  3  0  0  0  0  0  0
   36.4120   25.8500   37.0460 H   0  0  0  0  0  0  0  0  0  0  0  0
   36.5230   23.8210   38.7080 C   0  0  0  0  0  2  0  0  0  0  0  0
   37.4670   23.3680   39.1130 H   0  0  0  0  0  0  0  0  0  0  0  0
   37.2950   24.4900   41.1060 C   0  0  0  0  0  0  0  0  0  0  0  0
   36.9030   24.3260   42.3080 O   0  0  0  0  0  0  0  0  0  0  0  0
   37.8510   23.4090   41.7320 O   0  0  0  0  0  0  0  0  0  0  0  0
   38.4960   22.7540   41.2750 H   0  0  0  0  0  0  0  0  0  0  0  0
  1  2  1  0  0  0  0
  2  3  2  0  0  0  0
  2  7  1  0  0  0  0
  3  4  1  0  0  0  0
  4  8  1  0  0  0  0
  4  5  2  0  0  0  0
  5  9  1  0  0  0  0
  6  5  1  0  0  0  0
  6 10  1  0  0  0  0
  7  6  2  0  0  0  0
 11 12  1  0  0  0  0
 12 13  2  0  0  0  0
 12 18  1  0  0  0  0
 13  3  1  0  0  0  0
 14 13  1  0  0  0  0
 15 14  2  0  0  0  0
 16 15  1  0  0  0  0
 16 11  2  0  0  0  0
 17 11  1  0  0  0  0
 19 15  1  0  0  0  0
 20  7  1  0  0  0  0
 20 21  1  6  0  0  0
 22 23  2  0  0  0  0
 23 24  1  0  0  0  0
 23 34  1  0  0  0  0
 24 25  1  0  0  0  0
 25 26  2  0  0  0  0
 27 20  1  1  0  0  0
 27 25  1  0  0  0  0
 28 29  1  6  0  0  0
 28 24  1  0  0  0  0
 28 27  1  0  0  0  0
 30 29  1  0  0  0  0
 30 22  1  0  0  0  0
 31 30  1  0  0  0  0
 32 22  1  0  0  0  0
 32 33  1  0  0  0  0
 34 36  1  0  0  0  0
 34 35  2  0  0  0  0
 37 36  1  0  0  0  0
M  END
>  <minimizedAffinity>
-6.21661234

$$$$

 OpenBabel03242520023D

 37 40  0  0  1  0  0  0  0  0999 V2000
   36.8510   27.3790   38.9740 Br  0  0  0  0  0  0  0  0  0  0  0  0
   37.2780   27.7970   40.7800 C   0  0  0  0  0  0  0  0  0  0  0  0
   37.7240   26.8390   41.6720 C   0  0  0  0  0  0  0  0  0  0  0  0
   38.0040   27.2350   42.9730 C   0  0  0  0  0  0  0  0  0  0  0  0
   37.8520   28.5420   43.3950 C   0  0  0  0  0  0  0  0  0  0  0  0
   37.4070   29.5020   42.5040 C   0  0  0  0  0  0  0  0  0  0  0  0
   37.1310   29.0880   41.2090 C   0  0  0  0  0  0  0  0  0  0  0  0
   38.3450   26.4850   43.6440 H   0  0  0  0  0  0  0  0  0  0  0  0
   38.1000   28.7440   44.4390 H   0  0  0  0  0  0  0  0  0  0  0  0
   37.2910   30.5270   42.8530 H   0  0  0  0  0  0  0  0  0  0  0  0
   37.0900   23.2180   40.7860 C   0  0  0  0  0  0  0  0  0  0  0  0
   36.8990   24.5200   41.2750 C   0  0  0  0  0  0  0  0  0  0  0  0
   37.8770   25.4810   41.1800 C   0  0  0  0  0  0  0  0  0  0  0  0
   39.0360   25.0610   40.5730 N   0  0  0  0  0  0  0  0  0  0  0  0
   39.2090   23.8170   40.1090 C   0  0  0  0  0  0  0  0  0  0  0  0
   38.2550   22.9060   40.2110 N   0  0  0  0  0  0  0  0  0  0  0  0
   36.3280   22.4610   40.8580 H   0  0  0  0  0  0  0  0  0  0  0  0
   35.9680   24.7590   41.7320 H   0  0  0  0  0  0  0  0  0  0  0  0
   40.1970   23.7170   39.6740 H   0  0  0  0  0  0  0  0  0  0  0  0
   36.6910   30.1160   40.2910 C   0  0  1  0  0  3  0  0  0  0  0  0
   35.4500   30.1820   39.9580 O   0  0  0  0  0  1  0  0  0  0  0  0
   40.7500   33.3840   38.8910 C   0  0  0  0  0  0  0  0  0  0  0  0
   40.4110   32.2590   38.3310 C   0  0  0  0  0  0  0  0  0  0  0  0
   39.2550   31.5560   38.6940 N   0  0  0  0  0  0  0  0  0  0  0  0
   38.1040   30.7750   38.3460 C   0  0  0  0  0  0  0  0  0  0  0  0
   37.8510   30.0220   37.3450 O   0  0  0  0  0  0  0  0  0  0  0  0
   37.4070   31.2130   39.5830 C   0  0  2  0  0  3  0  0  0  0  0  0
   38.8350   31.4510   40.0790 C   0  0  2  0  0  3  0  0  0  0  0  0
   38.9000   33.0720   40.9020 S   0  0  0  0  0  0  0  0  0  0  0  0
   40.0220   34.0950   39.9500 C   0  0  0  0  0  3  0  0  0  0  0  0
   40.8050   34.4660   40.6760 H   0  0  0  0  0  0  0  0  0  0  0  0
   42.0070   33.9930   38.3900 C   0  0  0  0  0  2  0  0  0  0  0  0
   42.7900   33.2060   38.2220 H   0  0  0  0  0  0  0  0  0  0  0  0
   41.2910   31.7390   37.2930 C   0  0  0  0  0  0  0  0  0  0  0  0
   41.6300   30.5140   37.2050 O   0  0  0  0  0  0  0  0  0  0  0  0
   42.1240   31.4650   36.2440 O   0  0  0  0  0  0  0  0  0  0  0  0
   42.4260   32.1640   35.5560 H   0  0  0  0  0  0  0  0  0  0  0  0
  1  2  1  0  0  0  0
  2  7  2  0  0  0  0
  2  3  1  0  0  0  0
  3  4  2  0  0  0  0
  4  5  1  0  0  0  0
  4  8  1  0  0  0  0
  5  9  1  0  0  0  0
  6 10  1  0  0  0  0
  6  5  2  0  0  0  0
  7  6  1  0  0  0  0
 11 17  1  0  0  0  0
 11 12  1  0  0  0  0
 12 18  1  0  0  0  0
 13 12  2  0  0  0  0
 13  3  1  0  0  0  0
 14 13  1  0  0  0  0
 15 16  1  0  0  0  0
 15 14  2  0  0  0  0
 16 11  2  0  0  0  0
 19 15  1  0  0  0  0
 20 21  1  1  0  0  0
 20  7  1  0  0  0  0
 22 30  1  0  0  0  0
 23 24  1  0  0  0  0
 23 22  2  0  0  0  0
 24 28  1  0  0  0  0
 25 24  1  0  0  0  0
 25 27  1  0  0  0  0
 26 25  2  0  0  0  0
 27 28  1  0  0  0  0
 27 20  1  1  0  0  0
 28 29  1  1  0  0  0
 30 31  1  0  0  0  0
 30 29  1  0  0  0  0
 32 22  1  0  0  0  0
 33 32  1  0  0  0  0
 34 23  1  0  0  0  0
 35 34  2  0  0  0  0
 36 34  1  0  0  0  0
 37 36  1  0  0  0  0
M  END
>  <minimizedAffinity>
-6.02207851

$$$$

 OpenBabel03242520023D

 37 40  0  0  1  0  0  0  0  0999 V2000
   40.3550   30.5640   38.2540 Br  0  0  0  0  0  0  0  0  0  0  0  0
   39.4060   32.0480   38.9720 C   0  0  0  0  0  0  0  0  0  0  0  0
   40.0360   33.2310   39.3120 C   0  0  0  0  0  0  0  0  0  0  0  0
   39.2630   34.2580   39.8370 C   0  0  0  0  0  0  0  0  0  0  0  0
   37.9010   34.1330   40.0250 C   0  0  0  0  0  0  0  0  0  0  0  0
   37.2680   32.9520   39.6850 C   0  0  0  0  0  0  0  0  0  0  0  0
   38.0550   31.9360   39.1620 C   0  0  0  0  0  0  0  0  0  0  0  0
   39.7660   35.1590   40.0920 H   0  0  0  0  0  0  0  0  0  0  0  0
   37.3900   35.0030   40.4440 H   0  0  0  0  0  0  0  0  0  0  0  0
   36.1920   32.8690   39.8400 H   0  0  0  0  0  0  0  0  0  0  0  0
   43.7870   33.0740   39.7680 C   0  0  0  0  0  0  0  0  0  0  0  0
   42.4110   32.9740   40.0280 C   0  0  0  0  0  0  0  0  0  0  0  0
   41.4690   33.3180   39.0880 C   0  0  0  0  0  0  0  0  0  0  0  0
   41.9860   33.7590   37.8930 N   0  0  0  0  0  0  0  0  0  0  0  0
   43.2990   33.8510   37.6550 C   0  0  0  0  0  0  0  0  0  0  0  0
   44.1900   33.5160   38.5730 N   0  0  0  0  0  0  0  0  0  0  0  0
   44.5300   32.8080   40.5000 H   0  0  0  0  0  0  0  0  0  0  0  0
   42.0990   32.6220   40.9820 H   0  0  0  0  0  0  0  0  0  0  0  0
   43.4690   34.2220   36.6500 H   0  0  0  0  0  0  0  0  0  0  0  0
   37.3650   30.7200   38.7910 C   0  0  1  0  0  3  0  0  0  0  0  0
   37.0690   30.5070   37.5580 O   0  0  0  0  0  1  0  0  0  0  0  0
   37.2870   25.7390   40.8670 C   0  0  0  0  0  0  0  0  0  0  0  0
   37.8030   26.8100   41.3980 C   0  0  0  0  0  0  0  0  0  0  0  0
   37.6490   28.0810   40.8300 N   0  0  0  0  0  0  0  0  0  0  0  0
   37.4260   29.4910   40.9600 C   0  0  0  0  0  0  0  0  0  0  0  0
   37.6390   30.3080   41.9190 O   0  0  0  0  0  0  0  0  0  0  0  0
   36.8790   29.5530   39.5790 C   0  0  2  0  0  3  0  0  0  0  0  0
   37.7120   28.2820   39.3940 C   0  0  2  0  0  3  0  0  0  0  0  0
   36.6990   27.0490   38.5210 S   0  0  0  0  0  0  0  0  0  0  0  0
   36.4850   25.6650   39.6390 C   0  0  0  0  0  3  0  0  0  0  0  0
   36.8450   24.7500   39.0820 H   0  0  0  0  0  0  0  0  0  0  0  0
   37.5500   24.4750   41.5970 C   0  0  0  0  0  2  0  0  0  0  0  0
   38.6070   24.4460   41.9730 H   0  0  0  0  0  0  0  0  0  0  0  0
   38.5640   26.6430   42.6290 C   0  0  0  0  0  0  0  0  0  0  0  0
   38.3690   27.3410   43.6780 O   0  0  0  0  0  0  0  0  0  0  0  0
   39.3880   26.3240   43.6730 O   0  0  0  0  0  0  0  0  0  0  0  0
   40.0790   25.5660   43.6440 H   0  0  0  0  0  0  0  0  0  0  0  0
  1  2  1  0  0  0  0
  2  7  2  0  0  0  0
  2  3  1  0  0  0  0
  3  4  2  0  0  0  0
  4  5  1  0  0  0  0
  4  8  1  0  0  0  0
  5  9  1  0  0  0  0
  6 10  1  0  0  0  0
  6  5  2  0  0  0  0
  7  6  1  0  0  0  0
 11 12  1  0  0  0  0
 11 17  1  0  0  0  0
 12 18  1  0  0  0  0
 13  3  1  0  0  0  0
 13 12  2  0  0  0  0
 14 13  1  0  0  0  0
 15 14  2  0  0  0  0
 15 16  1  0  0  0  0
 16 11  2  0  0  0  0
 19 15  1  0  0  0  0
 20 21  1  6  0  0  0
 20  7  1  0  0  0  0
 22 23  2  0  0  0  0
 22 32  1  0  0  0  0
 23 34  1  0  0  0  0
 24 25  1  0  0  0  0
 24 23  1  0  0  0  0
 25 26  2  0  0  0  0
 27 20  1  6  0  0  0
 27 25  1  0  0  0  0
 28 29  1  6  0  0  0
 28 27  1  0  0  0  0
 28 24  1  0  0  0  0
 29 30  1  0  0  0  0
 30 22  1  0  0  0  0
 31 30  1  0  0  0  0
 32 33  1  0  0  0  0
 34 36  1  0  0  0  0
 34 35  2  0  0  0  0
 37 36  1  0  0  0  0
M  END
>  <minimizedAffinity>
-5.95306349

$$$$

 OpenBabel03242520023D

 37 40  0  0  1  0  0  0  0  0999 V2000
   37.4790   28.5030   39.0950 Br  0  0  0  0  0  0  0  0  0  0  0  0
   37.4520   28.0640   40.9450 C   0  0  0  0  0  0  0  0  0  0  0  0
   37.5140   26.7570   41.3940 C   0  0  0  0  0  0  0  0  0  0  0  0
   37.4800   26.5310   42.7630 C   0  0  0  0  0  0  0  0  0  0  0  0
   37.3890   27.5620   43.6780 C   0  0  0  0  0  0  0  0  0  0  0  0
   37.3280   28.8700   43.2330 C   0  0  0  0  0  0  0  0  0  0  0  0
   37.3620   29.0770   41.8610 C   0  0  0  0  0  0  0  0  0  0  0  0
   37.5290   25.5210   43.0880 H   0  0  0  0  0  0  0  0  0  0  0  0
   37.3700   27.2720   44.7310 H   0  0  0  0  0  0  0  0  0  0  0  0
   37.2550   29.6710   43.9670 H   0  0  0  0  0  0  0  0  0  0  0  0
   36.6880   23.9940   38.9460 C   0  0  0  0  0  0  0  0  0  0  0  0
   36.5410   25.0010   39.9130 C   0  0  0  0  0  0  0  0  0  0  0  0
   37.6180   25.7070   40.3940 C   0  0  0  0  0  0  0  0  0  0  0  0
   38.8280   25.3460   39.8530 N   0  0  0  0  0  0  0  0  0  0  0  0
   38.9590   24.3840   38.9310 C   0  0  0  0  0  0  0  0  0  0  0  0
   37.9100   23.7160   38.4810 N   0  0  0  0  0  0  0  0  0  0  0  0
   35.8490   23.4380   38.5660 H   0  0  0  0  0  0  0  0  0  0  0  0
   35.5650   25.2170   40.2780 H   0  0  0  0  0  0  0  0  0  0  0  0
   40.0020   24.2740   38.6540 H   0  0  0  0  0  0  0  0  0  0  0  0
   37.3220   30.4540   41.4220 C   0  0  1  0  0  3  0  0  0  0  0  0
   36.2030   30.9720   41.0530 O   0  0  0  0  0  1  0  0  0  0  0  0
   42.1410   32.6400   40.3650 C   0  0  0  0  0  0  0  0  0  0  0  0
   41.1330   32.5140   39.5510 C   0  0  0  0  0  0  0  0  0  0  0  0
   39.8800   32.0510   39.9700 N   0  0  0  0  0  0  0  0  0  0  0  0
   38.4480   32.1090   39.9350 C   0  0  0  0  0  0  0  0  0  0  0  0
   37.6290   32.5290   39.0500 O   0  0  0  0  0  0  0  0  0  0  0  0
   38.3700   31.5050   41.2910 C   0  0  2  0  0  3  0  0  0  0  0  0
   39.7550   30.9650   40.9250 C   0  0  2  0  0  3  0  0  0  0  0  0
   40.8670   31.2160   42.3430 S   0  0  0  0  0  0  0  0  0  0  0  0
   42.1540   32.3390   41.8030 C   0  0  0  0  0  3  0  0  0  0  0  0
   43.1350   31.8180   42.0060 H   0  0  0  0  0  0  0  0  0  0  0  0
   43.3960   33.1420   39.7540 C   0  0  0  0  0  2  0  0  0  0  0  0
   43.5610   32.6770   38.7450 H   0  0  0  0  0  0  0  0  0  0  0  0
   41.3520   32.8780   38.1570 C   0  0  0  0  0  0  0  0  0  0  0  0
   40.6680   32.4080   37.1900 O   0  0  0  0  0  0  0  0  0  0  0  0
   41.7230   33.3510   36.9290 O   0  0  0  0  0  0  0  0  0  0  0  0
   42.4580   34.0530   36.7850 H   0  0  0  0  0  0  0  0  0  0  0  0
  1  2  1  0  0  0  0
  2  3  2  0  0  0  0
  2  7  1  0  0  0  0
  3  4  1  0  0  0  0
  4  8  1  0  0  0  0
  4  5  2  0  0  0  0
  5  9  1  0  0  0  0
  6  5  1  0  0  0  0
  6 10  1  0  0  0  0
  7  6  2  0  0  0  0
 11 12  1  0  0  0  0
 12 18  1  0  0  0  0
 12 13  2  0  0  0  0
 13  3  1  0  0  0  0
 14 13  1  0  0  0  0
 15 14  2  0  0  0  0
 16 15  1  0  0  0  0
 16 11  2  0  0  0  0
 17 11  1  0  0  0  0
 19 15  1  0  0  0  0
 20 21  1  1  0  0  0
 20  7  1  0  0  0  0
 22 30  1  0  0  0  0
 23 24  1  0  0  0  0
 23 22  2  0  0  0  0
 24 28  1  0  0  0  0
 25 24  1  0  0  0  0
 25 27  1  0  0  0  0
 26 25  2  0  0  0  0
 27 20  1  6  0  0  0
 28 27  1  0  0  0  0
 28 29  1  1  0  0  0
 30 31  1  0  0  0  0
 30 29  1  0  0  0  0
 32 22  1  0  0  0  0
 33 32  1  0  0  0  0
 34 23  1  0  0  0  0
 35 34  2  0  0  0  0
 36 34  1  0  0  0  0
 37 36  1  0  0  0  0
M  END
>  <minimizedAffinity>
-5.95128441

$$$$

 OpenBabel03242520023D

 37 40  0  0  1  0  0  0  0  0999 V2000
   39.8080   30.2300   41.4110 Br  0  0  0  0  0  0  0  0  0  0  0  0
   38.8590   30.6000   39.8050 C   0  0  0  0  0  0  0  0  0  0  0  0
   39.4490   31.2440   38.7320 C   0  0  0  0  0  0  0  0  0  0  0  0
   38.6760   31.4780   37.6030 C   0  0  0  0  0  0  0  0  0  0  0  0
   37.3520   31.0920   37.5220 C   0  0  0  0  0  0  0  0  0  0  0  0
   36.7600   30.4480   38.5930 C   0  0  0  0  0  0  0  0  0  0  0  0
   37.5470   30.2210   39.7130 C   0  0  0  0  0  0  0  0  0  0  0  0
   39.1470   31.9740   36.7900 H   0  0  0  0  0  0  0  0  0  0  0  0
   36.8370   31.3260   36.5880 H   0  0  0  0  0  0  0  0  0  0  0  0
   35.7150   30.1500   38.5140 H   0  0  0  0  0  0  0  0  0  0  0  0
   42.6250   33.1710   39.4360 C   0  0  0  0  0  0  0  0  0  0  0  0
   41.2640   32.8460   39.3290 C   0  0  0  0  0  0  0  0  0  0  0  0
   40.8450   31.6230   38.8610 C   0  0  0  0  0  0  0  0  0  0  0  0
   41.8600   30.7630   38.5150 N   0  0  0  0  0  0  0  0  0  0  0  0
   43.1550   31.0820   38.6210 C   0  0  0  0  0  0  0  0  0  0  0  0
   43.5390   32.2640   39.0740 N   0  0  0  0  0  0  0  0  0  0  0  0
   42.9600   34.1260   39.8010 H   0  0  0  0  0  0  0  0  0  0  0  0
   40.5440   33.5740   39.6190 H   0  0  0  0  0  0  0  0  0  0  0  0
   43.7700   30.2510   38.2920 H   0  0  0  0  0  0  0  0  0  0  0  0
   36.9110   29.5240   40.8090 C   0  0  1  0  0  3  0  0  0  0  0  0
   36.4710   30.1910   41.8170 O   0  0  0  0  0  1  0  0  0  0  0  0
   37.4490   24.1630   40.5040 C   0  0  0  0  0  0  0  0  0  0  0  0
   37.9740   24.9620   41.3870 C   0  0  0  0  0  0  0  0  0  0  0  0
   37.6600   26.3250   41.4500 N   0  0  0  0  0  0  0  0  0  0  0  0
   37.3750   27.5110   42.2050 C   0  0  0  0  0  0  0  0  0  0  0  0
   37.6830   27.8640   43.3940 O   0  0  0  0  0  0  0  0  0  0  0  0
   36.6220   28.0850   41.0600 C   0  0  2  0  0  3  0  0  0  0  0  0
   37.4910   27.1200   40.2480 C   0  0  2  0  0  3  0  0  0  0  0  0
   36.4330   26.2610   39.0440 S   0  0  0  0  0  0  0  0  0  0  0  0
   36.4750   24.5190   39.4640 C   0  0  0  0  0  3  0  0  0  0  0  0
   36.8000   23.9760   38.5280 H   0  0  0  0  0  0  0  0  0  0  0  0
   37.8950   22.7500   40.5770 C   0  0  0  0  0  2  0  0  0  0  0  0
   38.9970   22.6920   40.7810 H   0  0  0  0  0  0  0  0  0  0  0  0
   38.9220   24.3830   42.3290 C   0  0  0  0  0  0  0  0  0  0  0  0
   40.0780   24.8700   42.5550 O   0  0  0  0  0  0  0  0  0  0  0  0
   39.6530   23.6840   43.2500 O   0  0  0  0  0  0  0  0  0  0  0  0
   39.3010   22.8620   43.7540 H   0  0  0  0  0  0  0  0  0  0  0  0
  2  1  1  0  0  0  0
  3 13  1  0  0  0  0
  3  2  2  0  0  0  0
  4  3  1  0  0  0  0
  5  4  2  0  0  0  0
  5  6  1  0  0  0  0
  6  7  2  0  0  0  0
  7  2  1  0  0  0  0
  7 20  1  0  0  0  0
  8  4  1  0  0  0  0
  9  5  1  0  0  0  0
 10  6  1  0  0  0  0
 11 17  1  0  0  0  0
 12 11  1  0  0  0  0
 12 18  1  0  0  0  0
 13 12  2  0  0  0  0
 14 15  2  0  0  0  0
 14 13  1  0  0  0  0
 15 16  1  0  0  0  0
 16 11  2  0  0  0  0
 19 15  1  0  0  0  0
 20 21  1  6  0  0  0
 22 32  1  0  0  0  0
 22 23  2  0  0  0  0
 23 24  1  0  0  0  0
 23 34  1  0  0  0  0
 24 25  1  0  0  0  0
 25 26  2  0  0  0  0
 27 20  1  6  0  0  0
 27 25  1  0  0  0  0
 28 29  1  6  0  0  0
 28 27  1  0  0  0  0
 28 24  1  0  0  0  0
 29 30  1  0  0  0  0
 30 22  1  0  0  0  0
 31 30  1  0  0  0  0
 32 33  1  0  0  0  0
 34 35  2  0  0  0  0
 34 36  1  0  0  0  0
 36 37  1  0  0  0  0
M  END
>  <minimizedAffinity>
-5.85812283

$$$$

 OpenBabel03242520023D

 37 40  0  0  1  0  0  0  0  0999 V2000
   39.8890   28.2640   41.3700 Br  0  0  0  0  0  0  0  0  0  0  0  0
   38.1460   28.9720   41.0930 C   0  0  0  0  0  0  0  0  0  0  0  0
   37.0370   28.1590   40.9340 C   0  0  0  0  0  0  0  0  0  0  0  0
   35.8050   28.7650   40.7280 C   0  0  0  0  0  0  0  0  0  0  0  0
   35.6570   30.1380   40.6790 C   0  0  0  0  0  0  0  0  0  0  0  0
   36.7630   30.9520   40.8390 C   0  0  0  0  0  0  0  0  0  0  0  0
   37.9860   30.3300   41.0430 C   0  0  0  0  0  0  0  0  0  0  0  0
   34.9660   28.1240   40.6080 H   0  0  0  0  0  0  0  0  0  0  0  0
   34.6430   30.5080   40.5130 H   0  0  0  0  0  0  0  0  0  0  0  0
   36.6300   32.0320   40.7970 H   0  0  0  0  0  0  0  0  0  0  0  0
   37.3470   24.6020   42.1800 C   0  0  0  0  0  0  0  0  0  0  0  0
   37.1420   25.9910   42.1610 C   0  0  0  0  0  0  0  0  0  0  0  0
   37.2410   26.7230   41.0010 C   0  0  0  0  0  0  0  0  0  0  0  0
   37.5520   25.9860   39.8840 N   0  0  0  0  0  0  0  0  0  0  0  0
   37.7470   24.6620   39.9110 C   0  0  0  0  0  0  0  0  0  0  0  0
   37.6470   23.9760   41.0380 N   0  0  0  0  0  0  0  0  0  0  0  0
   37.2720   24.0240   43.0840 H   0  0  0  0  0  0  0  0  0  0  0  0
   36.9040   26.4820   43.0750 H   0  0  0  0  0  0  0  0  0  0  0  0
   37.9800   24.3000   38.9160 H   0  0  0  0  0  0  0  0  0  0  0  0
   39.1230   31.2040   41.2320 C   0  0  1  0  0  3  0  0  0  0  0  0
   39.6290   31.3460   42.4060 O   0  0  0  0  0  1  0  0  0  0  0  0
   43.4330   33.1060   38.5990 C   0  0  0  0  0  0  0  0  0  0  0  0
   42.6270   32.1580   38.2170 C   0  0  0  0  0  0  0  0  0  0  0  0
   41.4590   31.8340   38.9190 N   0  0  0  0  0  0  0  0  0  0  0  0
   40.0760   31.4560   38.9420 C   0  0  0  0  0  0  0  0  0  0  0  0
   39.3400   30.8490   38.0920 O   0  0  0  0  0  0  0  0  0  0  0  0
   39.9150   32.0490   40.2950 C   0  0  2  0  0  3  0  0  0  0  0  0
   41.4270   31.8210   40.3700 C   0  0  2  0  0  3  0  0  0  0  0  0
   42.2060   33.3170   41.0510 S   0  0  0  0  0  0  0  0  0  0  0  0
   43.2770   33.9730   39.7740 C   0  0  0  0  0  3  0  0  0  0  0  0
   44.3040   34.0630   40.2370 H   0  0  0  0  0  0  0  0  0  0  0  0
   44.6250   33.3130   37.7410 C   0  0  0  0  0  2  0  0  0  0  0  0
   45.0530   32.3300   37.4110 H   0  0  0  0  0  0  0  0  0  0  0  0
   42.9840   31.4260   37.0090 C   0  0  0  0  0  0  0  0  0  0  0  0
   42.7310   30.1890   36.8340 O   0  0  0  0  0  0  0  0  0  0  0  0
   43.4050   30.9340   35.8050 O   0  0  0  0  0  0  0  0  0  0  0  0
   43.8510   31.5070   35.0780 H   0  0  0  0  0  0  0  0  0  0  0  0
  2  1  1  0  0  0  0
  3 13  1  0  0  0  0
  3  2  2  0  0  0  0
  4  3  1  0  0  0  0
  5  4  2  0  0  0  0
  5  6  1  0  0  0  0
  6  7  2  0  0  0  0
  7  2  1  0  0  0  0
  7 20  1  0  0  0  0
  8  4  1  0  0  0  0
  9  5  1  0  0  0  0
 10  6  1  0  0  0  0
 11 17  1  0  0  0  0
 12 11  1  0  0  0  0
 12 18  1  0  0  0  0
 13 12  2  0  0  0  0
 14 15  2  0  0  0  0
 14 13  1  0  0  0  0
 15 16  1  0  0  0  0
 16 11  2  0  0  0  0
 19 15  1  0  0  0  0
 20 21  1  6  0  0  0
 22 30  1  0  0  0  0
 23 22  2  0  0  0  0
 23 24  1  0  0  0  0
 24 25  1  0  0  0  0
 24 28  1  0  0  0  0
 25 27  1  0  0  0  0
 26 25  2  0  0  0  0
 27 28  1  0  0  0  0
 27 20  1  1  0  0  0
 28 29  1  1  0  0  0
 30 31  1  0  0  0  0
 30 29  1  0  0  0  0
 32 22  1  0  0  0  0
 33 32  1  0  0  0  0
 34 23  1  0  0  0  0
 35 34  2  0  0  0  0
 36 34  1  0  0  0  0
 37 36  1  0  0  0  0
M  END
>  <minimizedAffinity>
-5.68972254

$$$$

 OpenBabel03242520023D

 37 40  0  0  1  0  0  0  0  0999 V2000
   38.4380   25.3630   41.9520 Br  0  0  0  0  0  0  0  0  0  0  0  0
   37.3530   26.0180   40.5340 C   0  0  0  0  0  0  0  0  0  0  0  0
   37.1710   25.3100   39.3590 C   0  0  0  0  0  0  0  0  0  0  0  0
   36.3680   25.8700   38.3750 C   0  0  0  0  0  0  0  0  0  0  0  0
   35.7540   27.0980   38.5340 C   0  0  0  0  0  0  0  0  0  0  0  0
   35.9340   27.8070   39.7070 C   0  0  0  0  0  0  0  0  0  0  0  0
   36.7400   27.2320   40.6800 C   0  0  0  0  0  0  0  0  0  0  0  0
   36.2400   25.3120   37.4800 H   0  0  0  0  0  0  0  0  0  0  0  0
   35.1440   27.4450   37.6960 H   0  0  0  0  0  0  0  0  0  0  0  0
   35.4440   28.7730   39.8170 H   0  0  0  0  0  0  0  0  0  0  0  0
   37.9440   21.6120   39.5290 C   0  0  0  0  0  0  0  0  0  0  0  0
   37.2710   22.8370   39.6620 C   0  0  0  0  0  0  0  0  0  0  0  0
   37.8290   24.0210   39.2410 C   0  0  0  0  0  0  0  0  0  0  0  0
   39.0810   23.8990   38.6870 N   0  0  0  0  0  0  0  0  0  0  0  0
   39.7150   22.7270   38.5640 C   0  0  0  0  0  0  0  0  0  0  0  0
   39.1620   21.5990   38.9760 N   0  0  0  0  0  0  0  0  0  0  0  0
   37.5140   20.6820   39.8570 H   0  0  0  0  0  0  0  0  0  0  0  0
   36.3030   22.8390   40.1040 H   0  0  0  0  0  0  0  0  0  0  0  0
   40.6840   22.8760   38.1010 H   0  0  0  0  0  0  0  0  0  0  0  0
   36.8920   27.9820   41.9070 C   0  0  1  0  0  3  0  0  0  0  0  0
   36.2090   27.6490   42.9450 O   0  0  0  0  0  1  0  0  0  0  0  0
   40.9090   31.5740   41.6220 C   0  0  0  0  0  0  0  0  0  0  0  0
   39.7210   31.6710   41.0980 C   0  0  0  0  0  0  0  0  0  0  0  0
   38.7100   30.7360   41.3470 N   0  0  0  0  0  0  0  0  0  0  0  0
   37.3360   30.4170   41.6060 C   0  0  0  0  0  0  0  0  0  0  0  0
   36.2480   31.0290   41.3350 O   0  0  0  0  0  0  0  0  0  0  0  0
   37.7350   29.1520   42.2790 C   0  0  2  0  0  3  0  0  0  0  0  0
   38.9940   29.3150   41.4230 C   0  0  2  0  0  3  0  0  0  0  0  0
   40.4490   28.9970   42.4670 S   0  0  0  0  0  0  0  0  0  0  0  0
   41.3870   30.5230   42.5300 C   0  0  0  0  0  3  0  0  0  0  0  0
   42.4330   30.2650   42.1900 H   0  0  0  0  0  0  0  0  0  0  0  0
   41.8610   32.6490   41.2500 C   0  0  0  0  0  2  0  0  0  0  0  0
   41.7620   32.9090   40.1620 H   0  0  0  0  0  0  0  0  0  0  0  0
   39.4700   32.8080   40.2230 C   0  0  0  0  0  0  0  0  0  0  0  0
   38.6010   33.7080   40.4670 O   0  0  0  0  0  0  0  0  0  0  0  0
   39.3960   33.7870   39.2700 O   0  0  0  0  0  0  0  0  0  0  0  0
   40.0070   33.8300   38.4460 H   0  0  0  0  0  0  0  0  0  0  0  0
  2  7  1  0  0  0  0
  2  1  1  0  0  0  0
  3  2  2  0  0  0  0
  4  5  2  0  0  0  0
  4  3  1  0  0  0  0
  5  6  1  0  0  0  0
  6 10  1  0  0  0  0
  6  7  2  0  0  0  0
  7 20  1  0  0  0  0
  8  4  1  0  0  0  0
  9  5  1  0  0  0  0
 11 12  1  0  0  0  0
 11 17  1  0  0  0  0
 12 18  1  0  0  0  0
 13  3  1  0  0  0  0
 13 12  2  0  0  0  0
 14 13  1  0  0  0  0
 15 14  2  0  0  0  0
 15 16  1  0  0  0  0
 16 11  2  0  0  0  0
 19 15  1  0  0  0  0
 20 21  1  1  0  0  0
 22 30  1  0  0  0  0
 23 24  1  0  0  0  0
 23 22  2  0  0  0  0
 24 28  1  0  0  0  0
 24 25  1  0  0  0  0
 25 27  1  0  0  0  0
 26 25  2  0  0  0  0
 27 20  1  6  0  0  0
 28 27  1  0  0  0  0
 28 29  1  1  0  0  0
 29 30  1  0  0  0  0
 31 30  1  0  0  0  0
 32 22  1  0  0  0  0
 33 32  1  0  0  0  0
 34 35  2  0  0  0  0
 34 23  1  0  0  0  0
 36 34  1  0  0  0  0
 37 36  1  0  0  0  0
M  END
>  <minimizedAffinity>
-5.67187977

$$$$
