
 OpenBabel03242512343D

 27 29  0  0  1  0  0  0  0  0999 V2000
   45.1510   30.1990   41.2220 C   0  0  0  0  0  0  0  0  0  0  0  0
   44.3570   31.1500   40.8080 C   0  0  0  0  0  0  0  0  0  0  0  0
   44.7880   32.5050   40.8480 N   0  0  0  0  0  0  0  0  0  0  0  0
   44.4340   33.8770   41.1250 C   0  0  0  0  0  0  0  0  0  0  0  0
   43.3830   34.5250   41.4590 O   0  0  0  0  0  0  0  0  0  0  0  0
   45.8190   34.2840   40.8640 C   0  0  2  0  0  3  0  0  0  0  0  0
   46.1640   32.8890   40.4850 C   0  0  1  0  0  3  0  0  0  0  0  0
   47.2310   31.9790   41.5890 S   0  0  0  0  0  0  0  0  0  0  0  0
   46.5160   30.3420   41.7700 C   0  0  0  0  0  3  0  0  0  0  0  0
   47.1630   29.6450   41.1600 H   0  0  0  0  0  0  0  0  0  0  0  0
   46.5610   34.8650   42.0260 C   0  0  0  0  0  0  0  0  0  0  0  0
   47.7270   35.2740   41.7360 O   0  0  0  0  0  0  0  0  0  0  0  0
   45.9280   34.9080   43.3030 C   0  0  0  0  0  0  0  0  0  0  0  0
   45.1960   36.0730   43.5250 C   0  0  0  0  0  0  0  0  0  0  0  0
   44.5350   36.2060   44.7600 C   0  0  0  0  0  0  0  0  0  0  0  0
   44.6610   35.1790   45.6530 N   0  0  0  0  0  0  0  0  0  0  0  0
   45.3770   34.0760   45.3960 C   0  0  0  0  0  0  0  0  0  0  0  0
   46.0120   33.9430   44.2160 N   0  0  0  0  0  0  0  0  0  0  0  0
   45.1000   36.8830   42.8110 H   0  0  0  0  0  0  0  0  0  0  0  0
   43.9520   37.0890   44.9870 H   0  0  0  0  0  0  0  0  0  0  0  0
   45.3950   33.3390   46.1920 H   0  0  0  0  0  0  0  0  0  0  0  0
   44.5860   28.8280   41.1210 C   0  0  0  0  0  2  0  0  0  0  0  0
   45.3370   28.1000   41.4860 H   0  0  0  0  0  0  0  0  0  0  0  0
   43.0090   30.8780   40.2860 C   0  0  0  0  0  0  0  0  0  0  0  0
   42.6710   30.6110   39.1070 O   0  0  0  0  0  0  0  0  0  0  0  0
   41.8690   30.8790   41.0680 O   0  0  0  0  0  0  0  0  0  0  0  0
   41.1380   30.1910   40.9650 H   0  0  0  0  0  0  0  0  0  0  0  0
  1  9  1  0  0  0  0
  2  3  1  0  0  0  0
  2  1  2  0  0  0  0
  3  4  1  0  0  0  0
  4  5  2  0  0  0  0
  6  4  1  0  0  0  0
  6 11  1  1  0  0  0
  7  3  1  0  0  0  0
  7  6  1  0  0  0  0
  7  8  1  1  0  0  0
  8  9  1  0  0  0  0
 10  9  1  0  0  0  0
 11 13  1  0  0  0  0
 12 11  2  0  0  0  0
 13 14  2  0  0  0  0
 13 18  1  0  0  0  0
 14 15  1  0  0  0  0
 15 20  1  0  0  0  0
 15 16  2  0  0  0  0
 17 16  1  0  0  0  0
 17 21  1  0  0  0  0
 18 17  2  0  0  0  0
 19 14  1  0  0  0  0
 22  1  1  0  0  0  0
 22 23  1  0  0  0  0
 24  2  1  0  0  0  0
 24 26  1  0  0  0  0
 25 24  2  0  0  0  0
 27 26  1  0  0  0  0
M  END
>  <minimizedAffinity>
-4.07354689

>  <minimizedRMSD>
0.819046021

$$$$
