
 OpenBabel03242510083D

 35 38  0  0  1  0  0  0  0  0999 V2000
   44.6590   32.9000   41.3590 Br  0  0  0  0  0  0  0  0  0  0  0  0
   46.2870   33.8460   41.0500 C   0  0  0  0  0  0  0  0  0  0  0  0
   46.8130   34.6740   42.0270 C   0  0  0  0  0  0  0  0  0  0  0  0
   47.9920   35.3830   41.8220 C   0  0  0  0  0  0  0  0  0  0  0  0
   48.6160   35.2310   40.6140 C   0  0  0  0  0  0  0  0  0  0  0  0
   48.0640   34.4010   39.6650 C   0  0  0  0  0  0  0  0  0  0  0  0
   46.9200   33.7020   39.8450 C   0  0  0  0  0  0  0  0  0  0  0  0
   48.3870   36.0280   42.6060 H   0  0  0  0  0  0  0  0  0  0  0  0
   49.5460   35.7850   40.4380 H   0  0  0  0  0  0  0  0  0  0  0  0
   48.6270   34.3560   38.7490 H   0  0  0  0  0  0  0  0  0  0  0  0
   45.6690   33.9860   45.4290 C   0  0  0  0  0  0  0  0  0  0  0  0
   44.7330   35.0000   45.6930 C   0  0  0  0  0  0  0  0  0  0  0  0
   44.5090   35.9200   44.6720 C   0  0  0  0  0  0  0  0  0  0  0  0
   45.1950   35.7820   43.5110 N   0  0  0  0  0  0  0  0  0  0  0  0
   46.0920   34.7860   43.2980 C   0  0  0  0  0  0  0  0  0  0  0  0
   46.3230   33.8850   44.2720 N   0  0  0  0  0  0  0  0  0  0  0  0
   45.7830   33.3130   46.2740 H   0  0  0  0  0  0  0  0  0  0  0  0
   44.1720   35.1500   46.5830 H   0  0  0  0  0  0  0  0  0  0  0  0
   43.8260   36.7730   44.6840 H   0  0  0  0  0  0  0  0  0  0  0  0
   46.3360   32.8170   38.8010 C   0  0  0  0  0  0  0  0  0  0  0  0
   47.3120   32.1250   37.9620 C   0  0  0  0  0  0  0  0  0  0  0  0
   47.1010   32.0680   36.6730 C   0  0  0  0  0  0  0  0  0  0  0  0
   48.0490   31.4060   35.8480 N   0  0  0  0  0  0  0  0  0  0  0  0
   48.2700   30.4840   34.7570 C   0  0  0  0  0  0  0  0  0  0  0  0
   47.5750   30.0000   33.7990 O   0  0  0  0  0  0  0  0  0  0  0  0
   49.6880   30.2950   35.1880 C   0  0  0  0  0  0  0  0  0  0  0  0
   50.3500   30.4310   34.2940 H   0  0  0  0  0  0  0  0  0  0  0  0
   49.5020   31.5780   35.9670 C   0  0  2  0  0  0  0  0  0  0  0  0
   49.9260   31.5630   37.6930 S   0  0  0  0  0  0  0  0  0  0  0  0
   48.4410   31.5250   38.7040 C   0  0  0  0  0  0  0  0  0  0  0  0
   48.1980   30.4840   39.0510 H   0  0  0  0  0  0  0  0  0  0  0  0
   45.9490   32.6470   35.9770 C   0  0  0  0  0  0  0  0  0  0  0  0
   45.4140   32.2280   34.9240 O   0  0  0  0  0  0  0  0  0  0  0  0
   45.0100   33.6370   35.9590 O   0  0  0  0  0  0  0  0  0  0  0  0
   44.1560   33.5830   36.5310 H   0  0  0  0  0  0  0  0  0  0  0  0
  2  1  1  0  0  0  0
  2  3  1  0  0  0  0
  3 15  1  0  0  0  0
  4  3  2  0  0  0  0
  4  8  1  0  0  0  0
  5  4  1  0  0  0  0
  6  7  1  0  0  0  0
  6  5  2  0  0  0  0
  7  2  2  0  0  0  0
  9  5  1  0  0  0  0
 10  6  1  0  0  0  0
 11 12  1  0  0  0  0
 11 17  1  0  0  0  0
 12 18  1  0  0  0  0
 13 19  1  0  0  0  0
 13 12  2  0  0  0  0
 14 13  1  0  0  0  0
 15 14  2  0  0  0  0
 15 16  1  0  0  0  0
 16 11  2  0  0  0  0
 20  7  1  0  0  0  0
 21 30  1  0  0  0  0
 21 20  1  0  0  0  0
 22 21  2  0  0  0  0
 23 28  1  0  0  0  0
 23 22  1  0  0  0  0
 24 26  1  0  0  0  0
 24 23  1  0  0  0  0
 25 24  2  0  0  0  0
 27 26  1  0  0  0  0
 28 26  1  6  0  0  0
 28 29  1  0  0  0  0
 29 30  1  0  0  0  0
 30 31  1  0  0  0  0
 32 22  1  0  0  0  0
 33 32  2  0  0  0  0
 34 32  1  0  0  0  0
 34 35  1  0  0  0  0
M  END
>  <minimizedAffinity>
-6.27528763

>  <minimizedRMSD>
0.804062545

$$$$
