
 OpenBabel03242518463D

 52 56  0  0  1  0  0  0  0  0999 V2000
   47.6590   31.1860   45.4540 O   0  0  0  0  0  0  0  0  0  0  0  0
   47.5880   33.1160   44.1310 C   0  0  2  0  0  0  0  0  0  0  0  0
   47.4590   33.5970   42.7290 C   0  0  1  0  0  0  0  0  0  0  0  0
   47.3970   32.4440   41.7270 C   0  0  0  0  0  0  0  0  0  0  0  0
   48.5360   31.6880   41.9960 O   0  0  0  0  0  0  0  0  0  0  0  0
   48.4180   30.9860   43.1770 C   0  0  0  0  0  0  0  0  0  0  0  0
   47.4520   31.5810   44.1510 C   0  0  1  0  0  0  0  0  0  0  0  0
   48.6080   33.3200   44.5050 H   0  0  0  0  0  0  0  0  0  0  0  0
   48.3510   34.2160   42.4490 H   0  0  0  0  0  0  0  0  0  0  0  0
   46.4600   31.8670   41.8260 H   0  0  0  0  0  0  0  0  0  0  0  0
   47.4590   32.8260   40.6940 H   0  0  0  0  0  0  0  0  0  0  0  0
   48.1130   29.9280   42.9500 H   0  0  0  0  0  0  0  0  0  0  0  0
   49.4230   30.9040   43.6660 H   0  0  0  0  0  0  0  0  0  0  0  0
   46.4170   31.3220   43.8420 H   0  0  0  0  0  0  0  0  0  0  0  0
   45.0660   36.3650   42.8300 C   0  0  0  0  0  0  0  0  0  0  0  0
   44.0340   35.9640   41.9460 C   0  0  0  0  0  0  0  0  0  0  0  0
   44.2110   34.6960   41.3210 C   0  0  0  0  0  0  0  0  0  0  0  0
   45.3200   33.9780   41.6030 N   0  0  0  0  0  0  0  0  0  0  0  0
   46.2680   34.4140   42.4540 C   0  0  0  0  0  0  0  0  0  0  0  0
   46.1360   35.6150   43.0690 N   0  0  0  0  0  0  0  0  0  0  0  0
   43.1930   36.5900   41.7780 H   0  0  0  0  0  0  0  0  0  0  0  0
   43.4310   34.3790   40.6440 H   0  0  0  0  0  0  0  0  0  0  0  0
   44.8980   37.5740   43.4280 O   0  0  0  0  0  0  0  0  0  0  0  0
   44.4740   37.6780   44.3460 H   0  0  0  0  0  0  0  0  0  0  0  0
   46.6380   33.6490   45.0010 O   0  0  0  0  0  0  0  0  0  0  0  0
   45.8170   33.1060   44.9760 H   0  0  0  0  0  0  0  0  0  0  0  0
   45.7580   29.3730   44.8320 F   0  0  0  0  0  0  0  0  0  0  0  0
   45.9650   29.8720   46.0640 C   0  0  0  0  0  0  0  0  0  0  0  0
   46.9030   30.7960   46.4670 C   0  0  0  0  0  0  0  0  0  0  0  0
   46.8730   31.1230   47.8170 C   0  0  0  0  0  0  0  0  0  0  0  0
   46.0090   30.6180   48.7530 C   0  0  0  0  0  0  0  0  0  0  0  0
   45.1040   29.7080   48.2900 C   0  0  0  0  0  0  0  0  0  0  0  0
   45.0450   29.3010   46.9410 C   0  0  0  0  0  0  0  0  0  0  0  0
   47.6480   31.8640   48.0680 H   0  0  0  0  0  0  0  0  0  0  0  0
   46.1120   30.9720   49.7530 H   0  0  0  0  0  0  0  0  0  0  0  0
   44.4500   29.3560   49.1010 H   0  0  0  0  0  0  0  0  0  0  0  0
   43.9780   28.2760   46.7820 C   0  0  0  0  0  2  0  0  0  0  0  0
   44.4150   27.0110   46.1720 C   0  0  0  0  0  0  0  0  0  0  0  0
   44.6890   25.9820   46.9660 C   0  0  0  0  0  0  0  0  0  0  0  0
   45.1390   24.7450   46.4190 N   0  0  0  0  0  0  0  0  0  0  0  0
   45.3380   23.3840   46.5600 C   0  0  0  0  0  0  0  0  0  0  0  0
   45.3540   22.5050   47.4360 O   0  0  0  0  0  0  0  0  0  0  0  0
   45.5760   23.1780   45.1290 C   0  0  0  0  0  3  0  0  0  0  0  0
   44.6990   22.8520   44.5320 H   0  0  0  0  0  0  0  0  0  0  0  0
   45.6890   24.6560   45.1000 C   0  0  1  0  0  3  0  0  0  0  0  0
   44.5800   25.4950   43.9460 S   0  0  0  0  0  0  0  0  0  0  0  0
   44.4650   27.1160   44.7230 C   0  0  0  0  0  3  0  0  0  0  0  0
   43.4920   27.5380   44.3000 H   0  0  0  0  0  0  0  0  0  0  0  0
   44.5910   25.9930   48.4510 C   0  0  0  0  0  0  0  0  0  0  0  0
   44.1910   26.7830   49.3400 O   0  0  0  0  0  0  0  0  0  0  0  0
   44.9990   24.9500   49.2470 O   0  0  0  0  0  0  0  0  0  0  0  0
   44.4170   24.5700   49.9710 H   0  0  0  0  0  0  0  0  0  0  0  0
  1 29  1  0  0  0  0
  2  7  1  0  0  0  0
  2  8  1  1  0  0  0
  2 25  1  0  0  0  0
  3  9  1  6  0  0  0
  3  2  1  0  0  0  0
  4 10  1  0  0  0  0
  4  5  1  0  0  0  0
  4  3  1  0  0  0  0
  5  6  1  0  0  0  0
  6 13  1  0  0  0  0
  6  7  1  0  0  0  0
  7 14  1  6  0  0  0
  7  1  1  0  0  0  0
 11  4  1  0  0  0  0
 12  6  1  0  0  0  0
 15 20  1  0  0  0  0
 15 23  1  0  0  0  0
 16 15  2  0  0  0  0
 17 18  2  0  0  0  0
 17 16  1  0  0  0  0
 18 19  1  0  0  0  0
 19  3  1  0  0  0  0
 19 20  2  0  0  0  0
 21 16  1  0  0  0  0
 22 17  1  0  0  0  0
 23 24  1  0  0  0  0
 26 25  1  0  0  0  0
 27 28  1  0  0  0  0
 28 29  2  0  0  0  0
 28 33  1  0  0  0  0
 29 30  1  0  0  0  0
 30 34  1  0  0  0  0
 30 31  2  0  0  0  0
 31 35  1  0  0  0  0
 32 31  1  0  0  0  0
 32 36  1  0  0  0  0
 33 32  2  0  0  0  0
 37 33  1  0  0  0  0
 38 37  1  0  0  0  0
 38 39  2  0  0  0  0
 39 49  1  0  0  0  0
 40 41  1  0  0  0  0
 40 39  1  0  0  0  0
 41 42  2  0  0  0  0
 43 41  1  0  0  0  0
 44 43  1  0  0  0  0
 45 46  1  6  0  0  0
 45 43  1  0  0  0  0
 45 40  1  0  0  0  0
 46 47  1  0  0  0  0
 47 38  1  0  0  0  0
 48 47  1  0  0  0  0
 49 51  1  0  0  0  0
 49 50  2  0  0  0  0
 51 52  1  0  0  0  0
M  END
>  <minimizedAffinity>
-5.53765488

>  <minimizedRMSD>
1.25570452

$$$$
