
 OpenBabel03242518343D

 42 46  0  0  1  0  0  0  0  0999 V2000
   46.1150   32.8370   36.6080 C   0  0  2  0  0  0  0  0  0  0  0  0
   44.9200   31.9910   36.7950 C   0  0  0  0  0  0  0  0  0  0  0  0
   46.2030   31.3350   36.4110 C   0  0  1  0  0  0  0  0  0  0  0  0
   46.1870   33.4740   35.7170 H   0  0  0  0  0  0  0  0  0  0  0  0
   44.6000   31.8970   37.8660 H   0  0  0  0  0  0  0  0  0  0  0  0
   44.0600   32.0700   36.1320 H   0  0  0  0  0  0  0  0  0  0  0  0
   46.6700   30.7460   37.2390 H   0  0  0  0  0  0  0  0  0  0  0  0
   47.3680   33.6840   39.8600 C   0  0  0  0  0  0  0  0  0  0  0  0
   48.2830   34.3600   39.0500 C   0  0  0  0  0  0  0  0  0  0  0  0
   47.9580   34.1470   37.7230 C   0  0  0  0  0  0  0  0  0  0  0  0
   46.8510   33.3430   37.8010 C   0  0  0  0  0  0  0  0  0  0  0  0
   46.5020   33.0690   39.0410 O   0  0  0  0  0  0  0  0  0  0  0  0
   49.0930   34.9400   39.4620 H   0  0  0  0  0  0  0  0  0  0  0  0
   48.4710   34.5320   36.8540 H   0  0  0  0  0  0  0  0  0  0  0  0
   47.2570   33.5840   41.2560 O   0  0  0  0  0  0  0  0  0  0  0  0
   47.3430   34.7540   42.0480 C   0  0  0  0  0  0  0  0  0  0  0  0
   48.1980   35.6020   41.6860 O   0  0  0  0  0  0  0  0  0  0  0  0
   46.4530   34.8230   43.1550 C   0  0  0  0  0  0  0  0  0  0  0  0
   45.5650   35.8700   43.1190 C   0  0  0  0  0  0  0  0  0  0  0  0
   44.6610   36.0050   44.1700 C   0  0  0  0  0  0  0  0  0  0  0  0
   44.6970   35.1060   45.1680 N   0  0  0  0  0  0  0  0  0  0  0  0
   45.5860   34.0910   45.1640 C   0  0  0  0  0  0  0  0  0  0  0  0
   46.4510   33.9640   44.1570 N   0  0  0  0  0  0  0  0  0  0  0  0
   45.5160   36.6010   42.3350 H   0  0  0  0  0  0  0  0  0  0  0  0
   43.9390   36.8300   44.1730 H   0  0  0  0  0  0  0  0  0  0  0  0
   45.6540   33.3380   45.9490 H   0  0  0  0  0  0  0  0  0  0  0  0
   46.4890   30.8380   35.0510 C   0  0  0  0  0  2  0  0  0  0  0  0
   47.8280   30.3040   34.7690 C   0  0  0  0  0  0  0  0  0  0  0  0
   48.5170   31.0570   33.8720 C   0  0  0  0  0  0  0  0  0  0  0  0
   49.8720   30.7480   33.4590 N   0  0  0  0  0  0  0  0  0  0  0  0
   50.7530   30.4960   32.3560 C   0  0  0  0  0  0  0  0  0  0  0  0
   50.7230   30.8490   31.1370 O   0  0  0  0  0  0  0  0  0  0  0  0
   51.5780   29.7070   33.3460 C   0  0  0  0  0  3  0  0  0  0  0  0
   52.6470   29.9520   33.2290 H   0  0  0  0  0  0  0  0  0  0  0  0
   50.9770   30.5650   34.4370 C   0  0  2  0  0  3  0  0  0  0  0  0
   50.2250   29.6660   35.8210 S   0  0  0  0  0  0  0  0  0  0  0  0
   48.6060   29.1070   35.1710 C   0  0  0  0  0  3  0  0  0  0  0  0
   48.0530   28.4830   35.8510 H   0  0  0  0  0  0  0  0  0  0  0  0
   47.9270   32.2730   33.2730 C   0  0  0  0  0  0  0  0  0  0  0  0
   48.5180   33.1560   32.5500 O   0  0  0  0  0  0  0  0  0  0  0  0
   47.0420   33.2430   32.9120 O   0  0  0  0  0  0  0  0  0  0  0  0
   46.4590   33.6850   33.6420 H   0  0  0  0  0  0  0  0  0  0  0  0
  1  4  1  6  0  0  0
  1  2  1  0  0  0  0
  1 11  1  0  0  0  0
  2  5  1  0  0  0  0
  3  1  1  0  0  0  0
  3  2  1  0  0  0  0
  3  7  1  1  0  0  0
  6  2  1  0  0  0  0
  8 15  1  0  0  0  0
  9 13  1  0  0  0  0
  9  8  2  0  0  0  0
 10 11  2  0  0  0  0
 10  9  1  0  0  0  0
 11 12  1  0  0  0  0
 12  8  1  0  0  0  0
 14 10  1  0  0  0  0
 15 16  1  0  0  0  0
 16 18  1  0  0  0  0
 17 16  2  0  0  0  0
 18 23  1  0  0  0  0
 19 18  2  0  0  0  0
 19 20  1  0  0  0  0
 20 25  1  0  0  0  0
 20 21  2  0  0  0  0
 22 21  1  0  0  0  0
 22 26  1  0  0  0  0
 23 22  2  0  0  0  0
 24 19  1  0  0  0  0
 27  3  1  0  0  0  0
 28 27  1  0  0  0  0
 28 37  1  0  0  0  0
 29 28  2  0  0  0  0
 30 29  1  0  0  0  0
 30 35  1  0  0  0  0
 31 33  1  0  0  0  0
 31 30  1  0  0  0  0
 32 31  2  0  0  0  0
 34 33  1  0  0  0  0
 35 33  1  6  0  0  0
 35 36  1  0  0  0  0
 37 36  1  0  0  0  0
 37 38  1  0  0  0  0
 39 29  1  0  0  0  0
 40 39  2  0  0  0  0
 41 39  1  0  0  0  0
 41 42  1  0  0  0  0
M  END
>  <minimizedAffinity>
-5.98299599

>  <minimizedRMSD>
2.6378572

$$$$
