
 OpenBabel03242523333D

 44 48  0  0  1  0  0  0  0  0999 V2000
   44.6680   35.9100   44.4110 C   0  0  0  0  0  0  0  0  0  0  0  0
   45.5750   35.5950   43.3930 C   0  0  0  0  0  0  0  0  0  0  0  0
   46.4390   34.5040   43.5200 C   0  0  0  0  0  0  0  0  0  0  0  0
   46.3640   33.7580   44.6750 N   0  0  0  0  0  0  0  0  0  0  0  0
   45.4780   34.0790   45.6530 C   0  0  0  0  0  0  0  0  0  0  0  0
   44.6580   35.1360   45.5020 N   0  0  0  0  0  0  0  0  0  0  0  0
   44.0090   36.7600   44.2900 H   0  0  0  0  0  0  0  0  0  0  0  0
   45.6350   36.1700   42.4980 H   0  0  0  0  0  0  0  0  0  0  0  0
   45.4890   33.2080   46.8520 C   0  0  0  0  0  0  0  0  0  0  0  0
   46.0890   33.7340   47.5900 H   0  0  0  0  0  0  0  0  0  0  0  0
   44.4580   33.0960   47.2840 H   0  0  0  0  0  0  0  0  0  0  0  0
   46.0770   31.5890   46.3520 S   0  0  0  0  0  0  0  0  0  0  0  0
   47.3300   30.9990   47.4690 C   0  0  0  0  0  0  0  0  0  0  0  0
   47.8360   31.8840   48.3970 C   0  0  0  0  0  0  0  0  0  0  0  0
   48.7990   31.4350   49.2510 C   0  0  0  0  0  0  0  0  0  0  0  0
   49.2780   30.1150   49.2100 C   0  0  0  0  0  0  0  0  0  0  0  0
   50.2280   29.7270   50.0800 N   0  0  0  0  0  0  0  0  0  0  0  0
   50.7090   28.4650   50.0670 C   0  0  0  0  0  0  0  0  0  0  0  0
   50.2170   27.5840   49.1550 C   0  0  0  0  0  0  0  0  0  0  0  0
   49.2450   27.9940   48.2730 C   0  0  0  0  0  0  0  0  0  0  0  0
   48.7200   29.2790   48.2480 C   0  0  0  0  0  0  0  0  0  0  0  0
   47.7530   29.6950   47.3720 C   0  0  0  0  0  0  0  0  0  0  0  0
   47.5510   32.9190   48.5270 H   0  0  0  0  0  0  0  0  0  0  0  0
   49.2430   32.0870   50.0130 H   0  0  0  0  0  0  0  0  0  0  0  0
   51.4700   28.2360   50.7980 H   0  0  0  0  0  0  0  0  0  0  0  0
   50.5890   26.5660   49.1280 H   0  0  0  0  0  0  0  0  0  0  0  0
   48.8700   27.2710   47.5560 H   0  0  0  0  0  0  0  0  0  0  0  0
   47.3700   29.0050   46.6620 H   0  0  0  0  0  0  0  0  0  0  0  0
   47.4500   34.1220   42.5540 C   0  0  0  0  0  2  0  0  0  0  0  0
   47.1230   33.3470   41.3860 C   0  0  0  0  0  0  0  0  0  0  0  0
   46.0910   32.5790   41.0590 C   0  0  0  0  0  0  0  0  0  0  0  0
   45.9510   31.8850   39.8000 N   0  0  0  0  0  0  0  0  0  0  0  0
   45.6140   30.7220   39.0540 C   0  0  0  0  0  0  0  0  0  0  0  0
   44.7160   29.8640   39.3080 O   0  0  0  0  0  0  0  0  0  0  0  0
   46.7160   31.1430   38.1150 C   0  0  0  0  0  3  0  0  0  0  0  0
   46.5330   30.8720   37.0700 H   0  0  0  0  0  0  0  0  0  0  0  0
   46.2600   32.5230   38.5280 C   0  0  2  0  0  3  0  0  0  0  0  0
   47.5530   33.7650   38.7160 S   0  0  0  0  0  0  0  0  0  0  0  0
   48.2080   33.4530   40.3770 C   0  0  0  0  0  3  0  0  0  0  0  0
   48.8290   32.5270   40.3660 H   0  0  0  0  0  0  0  0  0  0  0  0
   45.0400   32.4590   42.0610 C   0  0  0  0  0  2  0  0  0  0  0  0
   43.8670   32.8770   41.7670 O   0  0  0  0  0  0  0  0  0  0  0  0
   44.0190   32.3600   42.9870 O   0  0  0  0  0  0  0  0  0  0  0  0
   44.0330   31.6570   43.7300 H   0  0  0  0  0  0  0  0  0  0  0  0
  1  6  1  0  0  0  0
  2  3  1  0  0  0  0
  2  1  2  0  0  0  0
  3  4  2  0  0  0  0
  4  5  1  0  0  0  0
  5  9  1  0  0  0  0
  6  5  2  0  0  0  0
  7  1  1  0  0  0  0
  8  2  1  0  0  0  0
  9 11  1  0  0  0  0
  9 10  1  0  0  0  0
 12  9  1  0  0  0  0
 12 13  1  0  0  0  0
 13 14  1  0  0  0  0
 14 23  1  0  0  0  0
 14 15  2  0  0  0  0
 15 24  1  0  0  0  0
 16 15  1  0  0  0  0
 16 17  1  0  0  0  0
 18 17  2  0  0  0  0
 18 25  1  0  0  0  0
 19 18  1  0  0  0  0
 20 19  2  0  0  0  0
 21 20  1  0  0  0  0
 21 16  2  0  0  0  0
 22 13  2  0  0  0  0
 22 21  1  0  0  0  0
 26 19  1  0  0  0  0
 27 20  1  0  0  0  0
 28 22  1  0  0  0  0
 29  3  1  0  0  0  0
 30 29  1  0  0  0  0
 31 30  2  0  0  0  0
 31 41  1  0  0  0  0
 32 31  1  0  0  0  0
 33 34  2  0  0  0  0
 33 32  1  0  0  0  0
 35 33  1  0  0  0  0
 36 35  1  0  0  0  0
 37 35  1  6  0  0  0
 37 38  1  0  0  0  0
 37 32  1  0  0  0  0
 38 39  1  0  0  0  0
 39 30  1  0  0  0  0
 40 39  1  0  0  0  0
 42 41  1  0  0  0  0
 42 43  1  0  0  0  0
 43 44  1  0  0  0  0
M  END
>  <minimizedAffinity>
-5.90077782

>  <minimizedRMSD>
0.517402709

$$$$
