
 OpenBabel03242519543D

 47 50  0  0  1  0  0  0  0  0999 V2000
   47.3250   34.0730   42.5110 C   0  0  2  0  0  0  0  0  0  0  0  0
   48.6760   34.6540   42.6760 C   0  0  0  0  0  0  0  0  0  0  0  0
   48.9660   35.7270   41.6810 C   0  0  0  0  0  0  0  0  0  0  0  0
   48.7660   35.2970   40.2530 C   0  0  0  0  0  0  0  0  0  0  0  0
   47.6180   34.3590   40.0470 C   0  0  2  0  0  0  0  0  0  0  0  0
   46.6570   34.3930   41.2180 C   0  0  0  0  0  0  0  0  0  0  0  0
   47.4760   32.9470   42.5560 H   0  0  0  0  0  0  0  0  0  0  0  0
   49.5040   33.9180   42.6580 H   0  0  0  0  0  0  0  0  0  0  0  0
   48.7180   35.1280   43.6840 H   0  0  0  0  0  0  0  0  0  0  0  0
   50.0590   35.9750   41.7930 H   0  0  0  0  0  0  0  0  0  0  0  0
   48.4320   36.6550   41.9440 H   0  0  0  0  0  0  0  0  0  0  0  0
   48.6520   36.2450   39.6510 H   0  0  0  0  0  0  0  0  0  0  0  0
   49.7190   34.8520   39.8680 H   0  0  0  0  0  0  0  0  0  0  0  0
   47.0520   34.7350   39.1640 H   0  0  0  0  0  0  0  0  0  0  0  0
   46.0920   35.2990   41.1190 H   0  0  0  0  0  0  0  0  0  0  0  0
   45.9140   33.5530   41.0500 H   0  0  0  0  0  0  0  0  0  0  0  0
   46.4100   34.3730   43.6230 C   0  0  0  0  0  0  0  0  0  0  0  0
   45.6140   35.4960   43.4080 C   0  0  0  0  0  0  0  0  0  0  0  0
   44.6850   35.8870   44.3760 C   0  0  0  0  0  0  0  0  0  0  0  0
   44.6250   35.1020   45.5150 N   0  0  0  0  0  0  0  0  0  0  0  0
   45.4160   34.0240   45.6830 C   0  0  0  0  0  0  0  0  0  0  0  0
   46.2940   33.6740   44.7400 N   0  0  0  0  0  0  0  0  0  0  0  0
   45.4960   36.2410   42.6350 H   0  0  0  0  0  0  0  0  0  0  0  0
   43.9890   36.6930   44.4180 H   0  0  0  0  0  0  0  0  0  0  0  0
   45.3310   33.4420   46.5940 H   0  0  0  0  0  0  0  0  0  0  0  0
   48.1230   33.0060   39.7420 C   0  0  0  0  0  0  0  0  0  0  0  0
   48.6470   32.5920   40.6270 H   0  0  0  0  0  0  0  0  0  0  0  0
   48.9310   33.1150   38.9690 H   0  0  0  0  0  0  0  0  0  0  0  0
   47.1510   32.0080   39.2740 C   0  0  0  0  0  0  0  0  0  0  0  0
   47.6740   31.0430   39.1180 H   0  0  0  0  0  0  0  0  0  0  0  0
   46.3880   31.8270   40.0560 H   0  0  0  0  0  0  0  0  0  0  0  0
   44.2220   28.7780   37.5440 C   0  0  0  0  0  0  0  0  0  0  0  0
   43.8010   30.0240   37.6080 C   0  0  0  0  0  0  0  0  0  0  0  0
   44.6850   31.0920   37.7710 N   0  0  0  0  0  0  0  0  0  0  0  0
   44.9590   32.3510   38.3200 C   0  0  0  0  0  0  0  0  0  0  0  0
   44.2910   33.2730   38.8960 O   0  0  0  0  0  0  0  0  0  0  0  0
   46.4170   32.3100   38.0080 C   0  0  2  0  0  3  0  0  0  0  0  0
   45.9970   31.1200   37.1810 C   0  0  1  0  0  3  0  0  0  0  0  0
   46.8530   29.5910   37.5690 S   0  0  0  0  0  0  0  0  0  0  0  0
   45.6190   28.2950   37.6320 C   0  0  0  0  0  3  0  0  0  0  0  0
   45.7830   27.6600   36.7130 H   0  0  0  0  0  0  0  0  0  0  0  0
   43.2600   27.6680   37.3680 C   0  0  0  0  0  2  0  0  0  0  0  0
   42.2910   27.9870   36.9260 H   0  0  0  0  0  0  0  0  0  0  0  0
   42.3750   30.2920   37.5020 C   0  0  0  0  0  0  0  0  0  0  0  0
   41.8790   31.4470   37.5500 O   0  0  0  0  0  0  0  0  0  0  0  0
   41.0180   30.2120   37.3760 O   0  0  0  0  0  0  0  0  0  0  0  0
   40.5260   29.4000   37.7250 H   0  0  0  0  0  0  0  0  0  0  0  0
  1  7  1  1  0  0  0
  1  2  1  0  0  0  0
  1 17  1  0  0  0  0
  2  9  1  0  0  0  0
  3 10  1  0  0  0  0
  3 11  1  0  0  0  0
  3  2  1  0  0  0  0
  4  3  1  0  0  0  0
  5 14  1  6  0  0  0
  5  4  1  0  0  0  0
  5  6  1  0  0  0  0
  6  1  1  0  0  0  0
  8  2  1  0  0  0  0
 12  4  1  0  0  0  0
 13  4  1  0  0  0  0
 15  6  1  0  0  0  0
 16  6  1  0  0  0  0
 17 22  1  0  0  0  0
 18 17  2  0  0  0  0
 18 19  1  0  0  0  0
 19 24  1  0  0  0  0
 19 20  2  0  0  0  0
 20 21  1  0  0  0  0
 21 25  1  0  0  0  0
 22 21  2  0  0  0  0
 23 18  1  0  0  0  0
 26  5  1  0  0  0  0
 26 27  1  0  0  0  0
 28 26  1  0  0  0  0
 29 26  1  0  0  0  0
 29 31  1  0  0  0  0
 30 29  1  0  0  0  0
 32 33  2  0  0  0  0
 32 40  1  0  0  0  0
 33 34  1  0  0  0  0
 34 35  1  0  0  0  0
 35 36  2  0  0  0  0
 37 35  1  0  0  0  0
 37 29  1  1  0  0  0
 38 39  1  1  0  0  0
 38 34  1  0  0  0  0
 38 37  1  0  0  0  0
 39 40  1  0  0  0  0
 41 40  1  0  0  0  0
 42 32  1  0  0  0  0
 43 42  1  0  0  0  0
 44 45  2  0  0  0  0
 44 33  1  0  0  0  0
 46 44  1  0  0  0  0
 46 47  1  0  0  0  0
M  END
>  <minimizedAffinity>
-5.25061131

>  <minimizedRMSD>
0.175416529

$$$$
