
 OpenBabel03252503193D

 46 50  0  0  1  0  0  0  0  0999 V2000
   46.0260   34.1040   40.6910 C   0  0  0  0  0  0  0  0  0  0  0  0
   44.6740   34.0860   40.4860 C   0  0  0  0  0  0  0  0  0  0  0  0
   44.5000   33.4960   39.2830 N   0  0  0  0  0  0  0  0  0  0  0  0
   45.7070   33.1690   38.7810 C   0  0  0  0  0  0  0  0  0  0  0  0
   46.6530   33.5480   39.6560 N   0  0  0  0  0  0  0  0  0  0  0  0
   46.0720   32.5370   37.5580 N   0  0  0  0  0  0  0  0  0  0  0  0
   43.8930   34.4480   41.1140 H   0  0  0  0  0  0  0  0  0  0  0  0
   45.6510   32.8380   36.6370 H   0  0  0  0  0  0  0  0  0  0  0  0
   46.7590   31.7660   37.5410 H   0  0  0  0  0  0  0  0  0  0  0  0
   43.2860   33.2090   38.5540 C   0  0  0  0  0  0  0  0  0  0  0  0
   42.4500   33.6260   39.1650 H   0  0  0  0  0  0  0  0  0  0  0  0
   43.2450   33.7160   37.5880 H   0  0  0  0  0  0  0  0  0  0  0  0
   39.4720   32.0340   40.3170 C   0  0  0  0  0  0  0  0  0  0  0  0
   40.3500   31.0610   40.3810 C   0  0  0  0  0  0  0  0  0  0  0  0
   41.5370   31.1120   39.5980 N   0  0  0  0  0  0  0  0  0  0  0  0
   42.9740   30.9510   39.6330 C   0  0  0  0  0  0  0  0  0  0  0  0
   43.8420   30.3880   40.3840 O   0  0  0  0  0  0  0  0  0  0  0  0
   43.0180   31.7340   38.3980 C   0  0  1  0  0  3  0  0  0  0  0  0
   41.5520   31.4290   38.1830 C   0  0  2  0  0  3  0  0  0  0  0  0
   40.4620   32.8190   37.9080 S   0  0  0  0  0  0  0  0  0  0  0  0
   39.6440   33.2380   39.4690 C   0  0  0  0  0  3  0  0  0  0  0  0
   38.6550   33.7120   39.2890 H   0  0  0  0  0  0  0  0  0  0  0  0
   38.2610   31.9280   41.1360 C   0  0  0  0  0  2  0  0  0  0  0  0
   38.4380   31.8900   42.2250 H   0  0  0  0  0  0  0  0  0  0  0  0
   40.1200   29.8940   41.2560 C   0  0  0  0  0  0  0  0  0  0  0  0
   39.6150   28.7970   40.9280 O   0  0  0  0  0  0  0  0  0  0  0  0
   40.4030   29.7650   42.5810 O   0  0  0  0  0  0  0  0  0  0  0  0
   40.9960   29.0610   42.9530 H   0  0  0  0  0  0  0  0  0  0  0  0
   46.7250   34.6650   41.9010 C   0  0  0  0  0  0  0  0  0  0  0  0
   47.9530   34.9770   41.9280 O   0  0  0  0  0  0  0  0  0  0  0  0
   45.3720   36.1110   43.3510 C   0  0  0  0  0  0  0  0  0  0  0  0
   46.0030   34.8780   43.1080 C   0  0  0  0  0  0  0  0  0  0  0  0
   45.8530   33.9440   44.1160 C   0  0  0  0  0  0  0  0  0  0  0  0
   45.1660   34.1880   45.2330 N   0  0  0  0  0  0  0  0  0  0  0  0
   44.5710   35.4010   45.4230 C   0  0  0  0  0  0  0  0  0  0  0  0
   44.6830   36.3470   44.4770 N   0  0  0  0  0  0  0  0  0  0  0  0
   45.4750   36.8590   42.5750 H   0  0  0  0  0  0  0  0  0  0  0  0
   44.0110   35.6000   46.3330 H   0  0  0  0  0  0  0  0  0  0  0  0
   46.4640   32.6650   43.9500 C   0  0  0  0  0  0  0  0  0  0  0  0
   47.7110   32.1640   44.1350 C   0  0  0  0  0  0  0  0  0  0  0  0
   47.9940   30.8970   43.8910 C   0  0  0  0  0  0  0  0  0  0  0  0
   46.9940   30.1190   43.4520 C   0  0  0  0  0  0  0  0  0  0  0  0
   45.5640   31.2460   43.3780 S   0  0  0  0  0  0  0  0  0  0  0  0
   48.4460   32.9090   44.5000 H   0  0  0  0  0  0  0  0  0  0  0  0
   48.9640   30.4290   44.0150 H   0  0  0  0  0  0  0  0  0  0  0  0
   46.9430   29.0500   43.1750 H   0  0  0  0  0  0  0  0  0  0  0  0
  1 29  1  0  0  0  0
  2  1  2  0  0  0  0
  2  7  1  0  0  0  0
  3  2  1  0  0  0  0
  4  3  1  0  0  0  0
  4  5  2  0  0  0  0
  5  1  1  0  0  0  0
  6  4  1  0  0  0  0
  8  6  1  0  0  0  0
  9  6  1  0  0  0  0
 10 11  1  0  0  0  0
 10  3  1  0  0  0  0
 12 10  1  0  0  0  0
 13 14  2  0  0  0  0
 13 23  1  0  0  0  0
 14 25  1  0  0  0  0
 15 16  1  0  0  0  0
 15 14  1  0  0  0  0
 16 17  2  0  0  0  0
 18 10  1  1  0  0  0
 18 16  1  0  0  0  0
 19 20  1  1  0  0  0
 19 18  1  0  0  0  0
 19 15  1  0  0  0  0
 20 21  1  0  0  0  0
 21 13  1  0  0  0  0
 22 21  1  0  0  0  0
 23 24  1  0  0  0  0
 25 27  1  0  0  0  0
 26 25  2  0  0  0  0
 27 28  1  0  0  0  0
 29 30  2  0  0  0  0
 29 32  1  0  0  0  0
 31 36  1  0  0  0  0
 32 31  2  0  0  0  0
 32 33  1  0  0  0  0
 33 34  2  0  0  0  0
 34 35  1  0  0  0  0
 35 38  1  0  0  0  0
 36 35  2  0  0  0  0
 37 31  1  0  0  0  0
 39 33  1  0  0  0  0
 39 40  2  0  0  0  0
 40 44  1  0  0  0  0
 41 45  1  0  0  0  0
 41 40  1  0  0  0  0
 42 41  2  0  0  0  0
 43 42  1  0  0  0  0
 43 39  1  0  0  0  0
 46 42  1  0  0  0  0
M  END
>  <minimizedAffinity>
-5.41595316

>  <minimizedRMSD>
1.44415772

$$$$
