
 OpenBabel03252503193D

 46 50  0  0  1  0  0  0  0  0999 V2000
   44.8430   34.3760   41.8610 C   0  0  0  0  0  0  0  0  0  0  0  0
   43.6610   33.6910   41.9350 C   0  0  0  0  0  0  0  0  0  0  0  0
   43.4160   33.2580   40.6800 N   0  0  0  0  0  0  0  0  0  0  0  0
   44.4160   33.6690   39.8760 C   0  0  0  0  0  0  0  0  0  0  0  0
   45.3020   34.3620   40.6110 N   0  0  0  0  0  0  0  0  0  0  0  0
   44.6340   33.4800   38.4810 N   0  0  0  0  0  0  0  0  0  0  0  0
   43.0380   33.5140   42.7820 H   0  0  0  0  0  0  0  0  0  0  0  0
   43.8610   33.6390   37.7790 H   0  0  0  0  0  0  0  0  0  0  0  0
   45.5550   33.1830   38.1210 H   0  0  0  0  0  0  0  0  0  0  0  0
   42.3110   32.4850   40.1610 C   0  0  0  0  0  0  0  0  0  0  0  0
   41.5060   32.5350   40.9330 H   0  0  0  0  0  0  0  0  0  0  0  0
   41.8910   32.9120   39.2480 H   0  0  0  0  0  0  0  0  0  0  0  0
   40.8050   30.0160   43.4250 C   0  0  0  0  0  0  0  0  0  0  0  0
   41.9040   29.5140   42.9130 C   0  0  0  0  0  0  0  0  0  0  0  0
   42.3840   29.9750   41.6560 N   0  0  0  0  0  0  0  0  0  0  0  0
   43.5570   30.4360   40.9450 C   0  0  0  0  0  0  0  0  0  0  0  0
   44.8270   30.3750   41.0780 O   0  0  0  0  0  0  0  0  0  0  0  0
   42.6410   31.0270   39.9690 C   0  0  1  0  0  3  0  0  0  0  0  0
   41.5480   30.1140   40.4790 C   0  0  2  0  0  3  0  0  0  0  0  0
   40.0090   30.8780   40.9720 S   0  0  0  0  0  0  0  0  0  0  0  0
   40.0080   31.0800   42.7720 C   0  0  0  0  0  3  0  0  0  0  0  0
   38.9730   31.0710   43.1750 H   0  0  0  0  0  0  0  0  0  0  0  0
   40.3470   29.5000   44.7190 C   0  0  0  0  0  2  0  0  0  0  0  0
   41.0490   29.6570   45.5580 H   0  0  0  0  0  0  0  0  0  0  0  0
   42.6560   28.4610   43.6240 C   0  0  0  0  0  0  0  0  0  0  0  0
   42.5460   27.2240   43.4660 O   0  0  0  0  0  0  0  0  0  0  0  0
   43.6080   28.6060   44.5850 O   0  0  0  0  0  0  0  0  0  0  0  0
   44.5330   28.2510   44.5060 H   0  0  0  0  0  0  0  0  0  0  0  0
   45.5410   35.0530   43.0100 C   0  0  0  0  0  0  0  0  0  0  0  0
   45.8890   36.2720   43.0080 O   0  0  0  0  0  0  0  0  0  0  0  0
   45.0070   34.4050   45.3160 C   0  0  0  0  0  0  0  0  0  0  0  0
   45.8470   34.3220   44.1920 C   0  0  0  0  0  0  0  0  0  0  0  0
   46.9440   33.4960   44.3500 C   0  0  0  0  0  0  0  0  0  0  0  0
   47.1900   32.8280   45.4780 N   0  0  0  0  0  0  0  0  0  0  0  0
   46.3450   32.9420   46.5430 C   0  0  0  0  0  0  0  0  0  0  0  0
   45.2630   33.7300   46.4470 N   0  0  0  0  0  0  0  0  0  0  0  0
   44.1400   35.0460   45.2160 H   0  0  0  0  0  0  0  0  0  0  0  0
   46.5470   32.3980   47.4620 H   0  0  0  0  0  0  0  0  0  0  0  0
   47.8490   33.3560   43.2560 C   0  0  0  0  0  0  0  0  0  0  0  0
   48.8820   34.0850   42.7640 C   0  0  0  0  0  0  0  0  0  0  0  0
   49.5620   33.6960   41.7010 C   0  0  0  0  0  0  0  0  0  0  0  0
   49.1920   32.5440   41.1230 C   0  0  0  0  0  0  0  0  0  0  0  0
   47.7940   31.9740   42.1430 S   0  0  0  0  0  0  0  0  0  0  0  0
   49.0880   35.0150   43.3310 H   0  0  0  0  0  0  0  0  0  0  0  0
   50.3960   34.2260   41.2530 H   0  0  0  0  0  0  0  0  0  0  0  0
   49.5710   31.9910   40.2450 H   0  0  0  0  0  0  0  0  0  0  0  0
  1  2  2  0  0  0  0
  1 29  1  0  0  0  0
  2  7  1  0  0  0  0
  3  2  1  0  0  0  0
  4  5  2  0  0  0  0
  4  3  1  0  0  0  0
  5  1  1  0  0  0  0
  6  4  1  0  0  0  0
  8  6  1  0  0  0  0
  9  6  1  0  0  0  0
 10  3  1  0  0  0  0
 10 11  1  0  0  0  0
 12 10  1  0  0  0  0
 13 23  1  0  0  0  0
 14 13  2  0  0  0  0
 14 25  1  0  0  0  0
 15 14  1  0  0  0  0
 16 17  2  0  0  0  0
 16 15  1  0  0  0  0
 18 10  1  1  0  0  0
 18 19  1  0  0  0  0
 18 16  1  0  0  0  0
 19 20  1  1  0  0  0
 19 15  1  0  0  0  0
 20 21  1  0  0  0  0
 21 22  1  0  0  0  0
 21 13  1  0  0  0  0
 23 24  1  0  0  0  0
 25 27  1  0  0  0  0
 26 25  2  0  0  0  0
 28 27  1  0  0  0  0
 29 32  1  0  0  0  0
 30 29  2  0  0  0  0
 31 36  1  0  0  0  0
 32 33  1  0  0  0  0
 32 31  2  0  0  0  0
 33 34  2  0  0  0  0
 34 35  1  0  0  0  0
 35 38  1  0  0  0  0
 36 35  2  0  0  0  0
 37 31  1  0  0  0  0
 39 33  1  0  0  0  0
 40 39  2  0  0  0  0
 40 44  1  0  0  0  0
 41 40  1  0  0  0  0
 42 41  2  0  0  0  0
 42 43  1  0  0  0  0
 43 39  1  0  0  0  0
 45 41  1  0  0  0  0
 46 42  1  0  0  0  0
M  END
>  <minimizedAffinity>
-5.20725822

>  <minimizedRMSD>
2.47387505

$$$$
