
 OpenBabel03252503193D

 46 50  0  0  1  0  0  0  0  0999 V2000
   46.2290   34.1710   40.6570 C   0  0  0  0  0  0  0  0  0  0  0  0
   44.8910   34.0740   40.3890 C   0  0  0  0  0  0  0  0  0  0  0  0
   44.8050   33.4030   39.2200 N   0  0  0  0  0  0  0  0  0  0  0  0
   46.0490   33.1060   38.7970 C   0  0  0  0  0  0  0  0  0  0  0  0
   46.9320   33.5830   39.6900 N   0  0  0  0  0  0  0  0  0  0  0  0
   46.5040   32.4180   37.6360 N   0  0  0  0  0  0  0  0  0  0  0  0
   44.0640   34.4360   40.9560 H   0  0  0  0  0  0  0  0  0  0  0  0
   46.1170   32.6410   36.6790 H   0  0  0  0  0  0  0  0  0  0  0  0
   47.2260   31.6820   37.7010 H   0  0  0  0  0  0  0  0  0  0  0  0
   43.6440   33.0130   38.4550 C   0  0  0  0  0  0  0  0  0  0  0  0
   43.2950   33.9330   37.9270 H   0  0  0  0  0  0  0  0  0  0  0  0
   43.8780   32.2820   37.6780 H   0  0  0  0  0  0  0  0  0  0  0  0
   41.2710   29.9350   36.4730 C   0  0  0  0  0  0  0  0  0  0  0  0
   40.5350   30.6630   37.2790 C   0  0  0  0  0  0  0  0  0  0  0  0
   41.1490   31.5030   38.2470 N   0  0  0  0  0  0  0  0  0  0  0  0
   41.1530   32.8370   38.8120 C   0  0  0  0  0  0  0  0  0  0  0  0
   40.3630   33.8400   38.8690 O   0  0  0  0  0  0  0  0  0  0  0  0
   42.4970   32.5390   39.3090 C   0  0  1  0  0  3  0  0  0  0  0  0
   42.2100   31.0650   39.1340 C   0  0  2  0  0  3  0  0  0  0  0  0
   43.3830   30.1140   38.1770 S   0  0  0  0  0  0  0  0  0  0  0  0
   42.7550   29.9400   36.4880 C   0  0  0  0  0  3  0  0  0  0  0  0
   43.1340   29.0110   36.0120 H   0  0  0  0  0  0  0  0  0  0  0  0
   40.5910   29.0770   35.4980 C   0  0  0  0  0  2  0  0  0  0  0  0
   39.9620   29.6140   34.7650 H   0  0  0  0  0  0  0  0  0  0  0  0
   39.0620   30.6160   37.2010 C   0  0  0  0  0  0  0  0  0  0  0  0
   38.3190   31.3940   36.5590 O   0  0  0  0  0  0  0  0  0  0  0  0
   38.2120   29.7350   37.7960 O   0  0  0  0  0  0  0  0  0  0  0  0
   37.5700   29.1630   37.2990 H   0  0  0  0  0  0  0  0  0  0  0  0
   46.8390   34.8390   41.8600 C   0  0  0  0  0  0  0  0  0  0  0  0
   48.0260   35.2830   41.8980 O   0  0  0  0  0  0  0  0  0  0  0  0
   45.4290   36.2270   43.3120 C   0  0  0  0  0  0  0  0  0  0  0  0
   46.0760   35.0070   43.0480 C   0  0  0  0  0  0  0  0  0  0  0  0
   45.8970   34.0380   44.0190 C   0  0  0  0  0  0  0  0  0  0  0  0
   45.1710   34.2400   45.1190 N   0  0  0  0  0  0  0  0  0  0  0  0
   44.5630   35.4430   45.3300 C   0  0  0  0  0  0  0  0  0  0  0  0
   44.7010   36.4210   44.4220 N   0  0  0  0  0  0  0  0  0  0  0  0
   45.5530   37.0020   42.5660 H   0  0  0  0  0  0  0  0  0  0  0  0
   43.9710   35.6070   46.2260 H   0  0  0  0  0  0  0  0  0  0  0  0
   46.5210   32.7690   43.8300 C   0  0  0  0  0  0  0  0  0  0  0  0
   47.7660   32.2690   44.0350 C   0  0  0  0  0  0  0  0  0  0  0  0
   48.0640   31.0120   43.7590 C   0  0  0  0  0  0  0  0  0  0  0  0
   47.0840   30.2430   43.2660 C   0  0  0  0  0  0  0  0  0  0  0  0
   45.6490   31.3640   43.1850 S   0  0  0  0  0  0  0  0  0  0  0  0
   48.4850   33.0060   44.4460 H   0  0  0  0  0  0  0  0  0  0  0  0
   49.0340   30.5460   43.8970 H   0  0  0  0  0  0  0  0  0  0  0  0
   47.0480   29.1840   42.9530 H   0  0  0  0  0  0  0  0  0  0  0  0
  1 29  1  0  0  0  0
  2  1  2  0  0  0  0
  2  7  1  0  0  0  0
  3  2  1  0  0  0  0
  4  3  1  0  0  0  0
  4  5  2  0  0  0  0
  5  1  1  0  0  0  0
  6  9  1  0  0  0  0
  6  4  1  0  0  0  0
  8  6  1  0  0  0  0
 10  3  1  0  0  0  0
 11 10  1  0  0  0  0
 12 10  1  0  0  0  0
 13 21  1  0  0  0  0
 13 14  2  0  0  0  0
 14 15  1  0  0  0  0
 15 16  1  0  0  0  0
 15 19  1  0  0  0  0
 16 17  2  0  0  0  0
 16 18  1  0  0  0  0
 18 10  1  6  0  0  0
 19 20  1  6  0  0  0
 19 18  1  0  0  0  0
 21 20  1  0  0  0  0
 22 21  1  0  0  0  0
 23 13  1  0  0  0  0
 24 23  1  0  0  0  0
 25 14  1  0  0  0  0
 25 27  1  0  0  0  0
 26 25  2  0  0  0  0
 28 27  1  0  0  0  0
 29 30  2  0  0  0  0
 29 32  1  0  0  0  0
 31 36  1  0  0  0  0
 32 31  2  0  0  0  0
 32 33  1  0  0  0  0
 33 34  2  0  0  0  0
 34 35  1  0  0  0  0
 35 38  1  0  0  0  0
 36 35  2  0  0  0  0
 37 31  1  0  0  0  0
 39 33  1  0  0  0  0
 39 40  2  0  0  0  0
 40 44  1  0  0  0  0
 41 45  1  0  0  0  0
 41 40  1  0  0  0  0
 42 41  2  0  0  0  0
 43 42  1  0  0  0  0
 43 39  1  0  0  0  0
 46 42  1  0  0  0  0
M  END
>  <minimizedAffinity>
-5.36740303

>  <minimizedRMSD>
1.02392256

$$$$
