
 OpenBabel03252503193D

 46 50  0  0  1  0  0  0  0  0999 V2000
   46.1780   34.1640   40.6960 C   0  0  0  0  0  0  0  0  0  0  0  0
   44.8400   33.9590   40.4950 C   0  0  0  0  0  0  0  0  0  0  0  0
   44.7490   33.3020   39.3190 N   0  0  0  0  0  0  0  0  0  0  0  0
   45.9890   33.1180   38.8260 C   0  0  0  0  0  0  0  0  0  0  0  0
   46.8760   33.6540   39.6830 N   0  0  0  0  0  0  0  0  0  0  0  0
   46.4380   32.4900   37.6290 N   0  0  0  0  0  0  0  0  0  0  0  0
   44.0170   34.2400   41.1110 H   0  0  0  0  0  0  0  0  0  0  0  0
   45.9830   32.6960   36.6980 H   0  0  0  0  0  0  0  0  0  0  0  0
   47.2210   31.8170   37.6420 H   0  0  0  0  0  0  0  0  0  0  0  0
   43.5850   32.8280   38.6060 C   0  0  0  0  0  0  0  0  0  0  0  0
   43.5550   33.3960   37.6450 H   0  0  0  0  0  0  0  0  0  0  0  0
   43.6580   31.7720   38.3370 H   0  0  0  0  0  0  0  0  0  0  0  0
   40.9790   29.3320   38.7510 C   0  0  0  0  0  0  0  0  0  0  0  0
   40.2860   30.4470   38.7160 C   0  0  0  0  0  0  0  0  0  0  0  0
   40.9180   31.6920   38.9810 N   0  0  0  0  0  0  0  0  0  0  0  0
   41.0750   33.0520   38.5100 C   0  0  0  0  0  0  0  0  0  0  0  0
   40.4550   33.8620   37.7380 O   0  0  0  0  0  0  0  0  0  0  0  0
   42.2900   33.1130   39.3210 C   0  0  1  0  0  3  0  0  0  0  0  0
   41.7910   31.9260   40.1140 C   0  0  2  0  0  3  0  0  0  0  0  0
   42.8930   30.5270   40.2700 S   0  0  0  0  0  0  0  0  0  0  0  0
   42.4330   29.2810   39.0400 C   0  0  0  0  0  3  0  0  0  0  0  0
   42.7080   28.2590   39.3800 H   0  0  0  0  0  0  0  0  0  0  0  0
   40.2800   28.0730   38.4810 C   0  0  0  0  0  2  0  0  0  0  0  0
   39.8300   27.9960   37.4750 H   0  0  0  0  0  0  0  0  0  0  0  0
   38.8420   30.4250   38.4110 C   0  0  0  0  0  0  0  0  0  0  0  0
   37.9010   30.3820   39.2370 O   0  0  0  0  0  0  0  0  0  0  0  0
   38.2360   30.4480   37.1930 O   0  0  0  0  0  0  0  0  0  0  0  0
   37.5840   31.1430   36.9130 H   0  0  0  0  0  0  0  0  0  0  0  0
   46.7930   34.8620   41.8790 C   0  0  0  0  0  0  0  0  0  0  0  0
   47.9660   35.3410   41.8880 O   0  0  0  0  0  0  0  0  0  0  0  0
   45.4000   36.2320   43.3640 C   0  0  0  0  0  0  0  0  0  0  0  0
   46.0500   35.0180   43.0820 C   0  0  0  0  0  0  0  0  0  0  0  0
   45.8960   34.0430   44.0510 C   0  0  0  0  0  0  0  0  0  0  0  0
   45.1880   34.2340   45.1650 N   0  0  0  0  0  0  0  0  0  0  0  0
   44.5750   35.4320   45.3930 C   0  0  0  0  0  0  0  0  0  0  0  0
   44.6900   36.4150   44.4880 N   0  0  0  0  0  0  0  0  0  0  0  0
   45.5050   37.0120   42.6200 H   0  0  0  0  0  0  0  0  0  0  0  0
   43.9990   35.5870   46.3010 H   0  0  0  0  0  0  0  0  0  0  0  0
   46.5250   32.7790   43.8440 C   0  0  0  0  0  0  0  0  0  0  0  0
   47.7820   32.2930   44.0020 C   0  0  0  0  0  0  0  0  0  0  0  0
   48.0820   31.0380   43.7220 C   0  0  0  0  0  0  0  0  0  0  0  0
   47.0910   30.2560   43.2720 C   0  0  0  0  0  0  0  0  0  0  0  0
   45.6420   31.3620   43.2420 S   0  0  0  0  0  0  0  0  0  0  0  0
   48.5090   33.0400   44.3810 H   0  0  0  0  0  0  0  0  0  0  0  0
   49.0610   30.5830   43.8230 H   0  0  0  0  0  0  0  0  0  0  0  0
   47.0540   29.1940   42.9660 H   0  0  0  0  0  0  0  0  0  0  0  0
  1 29  1  0  0  0  0
  2  1  2  0  0  0  0
  2  7  1  0  0  0  0
  3  2  1  0  0  0  0
  4  3  1  0  0  0  0
  4  5  2  0  0  0  0
  5  1  1  0  0  0  0
  6  9  1  0  0  0  0
  6  4  1  0  0  0  0
  8  6  1  0  0  0  0
 10  3  1  0  0  0  0
 11 10  1  0  0  0  0
 12 10  1  0  0  0  0
 13 21  1  0  0  0  0
 14 13  2  0  0  0  0
 14 15  1  0  0  0  0
 15 19  1  0  0  0  0
 16 15  1  0  0  0  0
 16 18  1  0  0  0  0
 17 16  2  0  0  0  0
 18 10  1  6  0  0  0
 18 19  1  0  0  0  0
 19 20  1  6  0  0  0
 21 22  1  0  0  0  0
 21 20  1  0  0  0  0
 23 13  1  0  0  0  0
 24 23  1  0  0  0  0
 25 14  1  0  0  0  0
 25 26  2  0  0  0  0
 27 25  1  0  0  0  0
 28 27  1  0  0  0  0
 29 30  2  0  0  0  0
 29 32  1  0  0  0  0
 31 36  1  0  0  0  0
 32 31  2  0  0  0  0
 32 33  1  0  0  0  0
 33 34  2  0  0  0  0
 34 35  1  0  0  0  0
 35 38  1  0  0  0  0
 36 35  2  0  0  0  0
 37 31  1  0  0  0  0
 39 40  2  0  0  0  0
 39 33  1  0  0  0  0
 40 44  1  0  0  0  0
 41 45  1  0  0  0  0
 41 40  1  0  0  0  0
 42 41  2  0  0  0  0
 43 42  1  0  0  0  0
 43 39  1  0  0  0  0
 46 42  1  0  0  0  0
M  END
>  <minimizedAffinity>
-5.30680704

>  <minimizedRMSD>
3.10233784

$$$$
