
 OpenBabel03252503193D

 46 50  0  0  1  0  0  0  0  0999 V2000
   46.2180   34.1590   40.6390 C   0  0  0  0  0  0  0  0  0  0  0  0
   44.8800   34.0800   40.3630 C   0  0  0  0  0  0  0  0  0  0  0  0
   44.7920   33.3960   39.2020 N   0  0  0  0  0  0  0  0  0  0  0  0
   46.0340   33.0730   38.7920 C   0  0  0  0  0  0  0  0  0  0  0  0
   46.9180   33.5470   39.6850 N   0  0  0  0  0  0  0  0  0  0  0  0
   46.4860   32.3620   37.6430 N   0  0  0  0  0  0  0  0  0  0  0  0
   44.0550   34.4630   40.9190 H   0  0  0  0  0  0  0  0  0  0  0  0
   46.1090   32.5800   36.6810 H   0  0  0  0  0  0  0  0  0  0  0  0
   47.1950   31.6160   37.7230 H   0  0  0  0  0  0  0  0  0  0  0  0
   43.6300   33.0150   38.4330 C   0  0  0  0  0  0  0  0  0  0  0  0
   43.2860   33.9390   37.9090 H   0  0  0  0  0  0  0  0  0  0  0  0
   43.8610   32.2860   37.6530 H   0  0  0  0  0  0  0  0  0  0  0  0
   41.2770   29.9190   36.4560 C   0  0  0  0  0  0  0  0  0  0  0  0
   40.5340   30.6480   37.2540 C   0  0  0  0  0  0  0  0  0  0  0  0
   41.1410   31.4970   38.2210 N   0  0  0  0  0  0  0  0  0  0  0  0
   41.1380   32.8330   38.7770 C   0  0  0  0  0  0  0  0  0  0  0  0
   40.3450   33.8350   38.8250 O   0  0  0  0  0  0  0  0  0  0  0  0
   42.4790   32.5430   39.2840 C   0  0  1  0  0  3  0  0  0  0  0  0
   42.1980   31.0670   39.1160 C   0  0  2  0  0  3  0  0  0  0  0  0
   43.3790   30.1140   38.1710 S   0  0  0  0  0  0  0  0  0  0  0  0
   42.7590   29.9280   36.4800 C   0  0  0  0  0  3  0  0  0  0  0  0
   43.1460   28.9970   36.0110 H   0  0  0  0  0  0  0  0  0  0  0  0
   40.6050   29.0530   35.4820 C   0  0  0  0  0  2  0  0  0  0  0  0
   39.9780   29.5830   34.7430 H   0  0  0  0  0  0  0  0  0  0  0  0
   39.0620   30.5980   37.1690 C   0  0  0  0  0  0  0  0  0  0  0  0
   38.2980   29.8370   37.8070 O   0  0  0  0  0  0  0  0  0  0  0  0
   38.2340   31.3520   36.3950 O   0  0  0  0  0  0  0  0  0  0  0  0
   37.5070   31.9240   36.7560 H   0  0  0  0  0  0  0  0  0  0  0  0
   46.8300   34.8330   41.8380 C   0  0  0  0  0  0  0  0  0  0  0  0
   48.0160   35.2800   41.8700 O   0  0  0  0  0  0  0  0  0  0  0  0
   45.4240   36.2230   43.2910 C   0  0  0  0  0  0  0  0  0  0  0  0
   46.0700   35.0020   43.0280 C   0  0  0  0  0  0  0  0  0  0  0  0
   45.8950   34.0360   44.0010 C   0  0  0  0  0  0  0  0  0  0  0  0
   45.1720   34.2400   45.1020 N   0  0  0  0  0  0  0  0  0  0  0  0
   44.5630   35.4430   45.3130 C   0  0  0  0  0  0  0  0  0  0  0  0
   44.6990   36.4190   44.4020 N   0  0  0  0  0  0  0  0  0  0  0  0
   45.5460   36.9970   42.5430 H   0  0  0  0  0  0  0  0  0  0  0  0
   43.9750   35.6090   46.2110 H   0  0  0  0  0  0  0  0  0  0  0  0
   46.5190   32.7660   43.8130 C   0  0  0  0  0  0  0  0  0  0  0  0
   47.7630   32.2670   44.0170 C   0  0  0  0  0  0  0  0  0  0  0  0
   48.0620   31.0100   43.7430 C   0  0  0  0  0  0  0  0  0  0  0  0
   47.0810   30.2400   43.2520 C   0  0  0  0  0  0  0  0  0  0  0  0
   45.6460   31.3600   43.1710 S   0  0  0  0  0  0  0  0  0  0  0  0
   48.4830   33.0040   44.4270 H   0  0  0  0  0  0  0  0  0  0  0  0
   49.0320   30.5440   43.8800 H   0  0  0  0  0  0  0  0  0  0  0  0
   47.0440   29.1800   42.9400 H   0  0  0  0  0  0  0  0  0  0  0  0
  1 29  1  0  0  0  0
  2  1  2  0  0  0  0
  2  7  1  0  0  0  0
  3  2  1  0  0  0  0
  4  3  1  0  0  0  0
  4  5  2  0  0  0  0
  5  1  1  0  0  0  0
  6  9  1  0  0  0  0
  6  4  1  0  0  0  0
  8  6  1  0  0  0  0
 10  3  1  0  0  0  0
 11 10  1  0  0  0  0
 12 10  1  0  0  0  0
 13 21  1  0  0  0  0
 13 14  2  0  0  0  0
 14 15  1  0  0  0  0
 15 16  1  0  0  0  0
 15 19  1  0  0  0  0
 16 17  2  0  0  0  0
 16 18  1  0  0  0  0
 18 10  1  6  0  0  0
 19 20  1  6  0  0  0
 19 18  1  0  0  0  0
 21 20  1  0  0  0  0
 22 21  1  0  0  0  0
 23 13  1  0  0  0  0
 24 23  1  0  0  0  0
 25 14  1  0  0  0  0
 25 26  2  0  0  0  0
 27 28  1  0  0  0  0
 27 25  1  0  0  0  0
 29 30  2  0  0  0  0
 29 32  1  0  0  0  0
 31 36  1  0  0  0  0
 32 31  2  0  0  0  0
 32 33  1  0  0  0  0
 33 34  2  0  0  0  0
 34 35  1  0  0  0  0
 35 38  1  0  0  0  0
 36 35  2  0  0  0  0
 37 31  1  0  0  0  0
 39 33  1  0  0  0  0
 39 40  2  0  0  0  0
 40 44  1  0  0  0  0
 41 45  1  0  0  0  0
 41 40  1  0  0  0  0
 42 41  2  0  0  0  0
 43 42  1  0  0  0  0
 43 39  1  0  0  0  0
 46 42  1  0  0  0  0
M  END
>  <minimizedAffinity>
-5.34397364

>  <minimizedRMSD>
1.36623716

$$$$
