
 OpenBabel03252503193D

 46 50  0  0  1  0  0  0  0  0999 V2000
   46.2980   34.1570   40.6170 C   0  0  0  0  0  0  0  0  0  0  0  0
   44.9640   34.0400   40.3410 C   0  0  0  0  0  0  0  0  0  0  0  0
   44.8960   33.3760   39.1670 N   0  0  0  0  0  0  0  0  0  0  0  0
   46.1470   33.1010   38.7500 C   0  0  0  0  0  0  0  0  0  0  0  0
   47.0170   33.5870   39.6520 N   0  0  0  0  0  0  0  0  0  0  0  0
   46.6210   32.4280   37.5880 N   0  0  0  0  0  0  0  0  0  0  0  0
   44.1270   34.3850   40.9040 H   0  0  0  0  0  0  0  0  0  0  0  0
   46.2370   32.6510   36.6300 H   0  0  0  0  0  0  0  0  0  0  0  0
   47.3540   31.7030   37.6530 H   0  0  0  0  0  0  0  0  0  0  0  0
   43.7460   32.9710   38.3910 C   0  0  0  0  0  0  0  0  0  0  0  0
   43.5740   33.7820   37.6430 H   0  0  0  0  0  0  0  0  0  0  0  0
   43.9240   32.0580   37.8200 H   0  0  0  0  0  0  0  0  0  0  0  0
   41.2720   29.6020   37.1450 C   0  0  0  0  0  0  0  0  0  0  0  0
   40.5400   30.5880   37.6090 C   0  0  0  0  0  0  0  0  0  0  0  0
   41.1440   31.6400   38.3500 N   0  0  0  0  0  0  0  0  0  0  0  0
   41.2290   33.0780   38.4920 C   0  0  0  0  0  0  0  0  0  0  0  0
   40.5390   34.1020   38.1580 O   0  0  0  0  0  0  0  0  0  0  0  0
   42.4850   32.8580   39.2080 C   0  0  1  0  0  3  0  0  0  0  0  0
   42.0710   31.4230   39.4440 C   0  0  2  0  0  3  0  0  0  0  0  0
   43.2270   30.1500   38.9540 S   0  0  0  0  0  0  0  0  0  0  0  0
   42.7410   29.5130   37.3300 C   0  0  0  0  0  3  0  0  0  0  0  0
   43.0690   28.4600   37.1980 H   0  0  0  0  0  0  0  0  0  0  0  0
   40.6010   28.5360   36.3940 C   0  0  0  0  0  2  0  0  0  0  0  0
   40.0980   28.8650   35.4680 H   0  0  0  0  0  0  0  0  0  0  0  0
   39.0830   30.6180   37.3770 C   0  0  0  0  0  0  0  0  0  0  0  0
   38.1880   30.2650   38.1790 O   0  0  0  0  0  0  0  0  0  0  0  0
   38.4120   31.0280   36.2670 O   0  0  0  0  0  0  0  0  0  0  0  0
   37.7340   31.7540   36.2670 H   0  0  0  0  0  0  0  0  0  0  0  0
   46.8900   34.8280   41.8290 C   0  0  0  0  0  0  0  0  0  0  0  0
   48.0770   35.2680   41.8850 O   0  0  0  0  0  0  0  0  0  0  0  0
   45.4590   36.2240   43.2520 C   0  0  0  0  0  0  0  0  0  0  0  0
   46.1070   35.0010   43.0030 C   0  0  0  0  0  0  0  0  0  0  0  0
   45.9090   34.0360   43.9730 C   0  0  0  0  0  0  0  0  0  0  0  0
   45.1640   34.2430   45.0600 N   0  0  0  0  0  0  0  0  0  0  0  0
   44.5560   35.4480   45.2570 C   0  0  0  0  0  0  0  0  0  0  0  0
   44.7130   36.4230   44.3490 N   0  0  0  0  0  0  0  0  0  0  0  0
   45.5990   36.9960   42.5060 H   0  0  0  0  0  0  0  0  0  0  0  0
   43.9500   35.6170   46.1430 H   0  0  0  0  0  0  0  0  0  0  0  0
   46.5320   32.7640   43.7990 C   0  0  0  0  0  0  0  0  0  0  0  0
   47.7740   32.2630   44.0200 C   0  0  0  0  0  0  0  0  0  0  0  0
   48.0720   31.0040   43.7550 C   0  0  0  0  0  0  0  0  0  0  0  0
   47.0950   30.2330   43.2580 C   0  0  0  0  0  0  0  0  0  0  0  0
   45.6630   31.3560   43.1560 S   0  0  0  0  0  0  0  0  0  0  0  0
   48.4900   33.0020   44.4330 H   0  0  0  0  0  0  0  0  0  0  0  0
   49.0400   30.5370   43.9050 H   0  0  0  0  0  0  0  0  0  0  0  0
   47.0610   29.1720   42.9520 H   0  0  0  0  0  0  0  0  0  0  0  0
  1 29  1  0  0  0  0
  2  1  2  0  0  0  0
  2  7  1  0  0  0  0
  3  2  1  0  0  0  0
  4  3  1  0  0  0  0
  4  5  2  0  0  0  0
  5  1  1  0  0  0  0
  6  9  1  0  0  0  0
  6  4  1  0  0  0  0
  8  6  1  0  0  0  0
 10  3  1  0  0  0  0
 11 10  1  0  0  0  0
 12 10  1  0  0  0  0
 13 21  1  0  0  0  0
 13 14  2  0  0  0  0
 14 15  1  0  0  0  0
 15 16  1  0  0  0  0
 15 19  1  0  0  0  0
 16 18  1  0  0  0  0
 17 16  2  0  0  0  0
 18 10  1  6  0  0  0
 18 19  1  0  0  0  0
 19 20  1  6  0  0  0
 21 20  1  0  0  0  0
 22 21  1  0  0  0  0
 23 13  1  0  0  0  0
 24 23  1  0  0  0  0
 25 14  1  0  0  0  0
 25 26  2  0  0  0  0
 27 25  1  0  0  0  0
 28 27  1  0  0  0  0
 29 30  2  0  0  0  0
 29 32  1  0  0  0  0
 31 36  1  0  0  0  0
 32 31  2  0  0  0  0
 32 33  1  0  0  0  0
 33 34  2  0  0  0  0
 34 35  1  0  0  0  0
 35 38  1  0  0  0  0
 36 35  2  0  0  0  0
 37 31  1  0  0  0  0
 39 33  1  0  0  0  0
 39 40  2  0  0  0  0
 40 44  1  0  0  0  0
 41 45  1  0  0  0  0
 41 40  1  0  0  0  0
 42 41  2  0  0  0  0
 43 42  1  0  0  0  0
 43 39  1  0  0  0  0
 46 42  1  0  0  0  0
M  END
>  <minimizedAffinity>
-5.34461451

>  <minimizedRMSD>
1.3210423

$$$$
