
 OpenBabel03252503193D

 46 50  0  0  1  0  0  0  0  0999 V2000
   46.2950   33.8890   40.7200 C   0  0  0  0  0  0  0  0  0  0  0  0
   44.9760   33.6280   40.4680 C   0  0  0  0  0  0  0  0  0  0  0  0
   44.9720   32.7560   39.4370 N   0  0  0  0  0  0  0  0  0  0  0  0
   46.2450   32.5000   39.0790 C   0  0  0  0  0  0  0  0  0  0  0  0
   47.0660   33.2040   39.8770 N   0  0  0  0  0  0  0  0  0  0  0  0
   46.7810   31.6600   38.0610 N   0  0  0  0  0  0  0  0  0  0  0  0
   44.1100   34.0090   40.9580 H   0  0  0  0  0  0  0  0  0  0  0  0
   46.3950   31.6750   37.0780 H   0  0  0  0  0  0  0  0  0  0  0  0
   47.5620   31.0140   38.2600 H   0  0  0  0  0  0  0  0  0  0  0  0
   43.8640   32.1340   38.7490 C   0  0  0  0  0  0  0  0  0  0  0  0
   43.1550   32.9580   38.4930 H   0  0  0  0  0  0  0  0  0  0  0  0
   44.1600   31.6770   37.8020 H   0  0  0  0  0  0  0  0  0  0  0  0
   39.5910   33.0060   38.8460 C   0  0  0  0  0  0  0  0  0  0  0  0
   39.9940   32.4570   39.9680 C   0  0  0  0  0  0  0  0  0  0  0  0
   41.2600   31.8130   40.0370 N   0  0  0  0  0  0  0  0  0  0  0  0
   42.4780   31.6980   40.8100 C   0  0  0  0  0  0  0  0  0  0  0  0
   42.8670   31.9460   42.0020 O   0  0  0  0  0  0  0  0  0  0  0  0
   43.1040   31.1540   39.6040 C   0  0  1  0  0  3  0  0  0  0  0  0
   41.7270   30.8510   39.0560 C   0  0  2  0  0  3  0  0  0  0  0  0
   41.3400   31.4790   37.4280 S   0  0  0  0  0  0  0  0  0  0  0  0
   40.4000   33.0170   37.6020 C   0  0  0  0  0  3  0  0  0  0  0  0
   39.7340   33.1820   36.7270 H   0  0  0  0  0  0  0  0  0  0  0  0
   38.2750   33.6480   38.8230 C   0  0  0  0  0  2  0  0  0  0  0  0
   38.1620   34.5020   39.5140 H   0  0  0  0  0  0  0  0  0  0  0  0
   39.1410   32.4920   41.1720 C   0  0  0  0  0  0  0  0  0  0  0  0
   39.4140   33.0310   42.2690 O   0  0  0  0  0  0  0  0  0  0  0  0
   37.9020   31.9560   41.3450 O   0  0  0  0  0  0  0  0  0  0  0  0
   37.1020   32.4860   41.6040 H   0  0  0  0  0  0  0  0  0  0  0  0
   46.8210   34.8120   41.7870 C   0  0  0  0  0  0  0  0  0  0  0  0
   47.9080   35.4570   41.6930 O   0  0  0  0  0  0  0  0  0  0  0  0
   45.3850   36.2010   43.2110 C   0  0  0  0  0  0  0  0  0  0  0  0
   46.0880   35.0040   42.9900 C   0  0  0  0  0  0  0  0  0  0  0  0
   45.9920   34.0820   44.0160 C   0  0  0  0  0  0  0  0  0  0  0  0
   45.2910   34.3060   45.1280 N   0  0  0  0  0  0  0  0  0  0  0  0
   44.6260   35.4850   45.2960 C   0  0  0  0  0  0  0  0  0  0  0  0
   44.6830   36.4180   44.3330 N   0  0  0  0  0  0  0  0  0  0  0  0
   45.4440   36.9400   42.4210 H   0  0  0  0  0  0  0  0  0  0  0  0
   44.0550   35.6670   46.2020 H   0  0  0  0  0  0  0  0  0  0  0  0
   46.6770   32.8380   43.8740 C   0  0  0  0  0  0  0  0  0  0  0  0
   47.9720   32.4660   43.7120 C   0  0  0  0  0  0  0  0  0  0  0  0
   48.3230   31.1980   43.6050 C   0  0  0  0  0  0  0  0  0  0  0  0
   47.3440   30.2830   43.6640 C   0  0  0  0  0  0  0  0  0  0  0  0
   45.8320   31.2770   43.8830 S   0  0  0  0  0  0  0  0  0  0  0  0
   48.6840   33.3160   43.6790 H   0  0  0  0  0  0  0  0  0  0  0  0
   49.3340   30.8290   43.4740 H   0  0  0  0  0  0  0  0  0  0  0  0
   47.3450   29.1800   43.6040 H   0  0  0  0  0  0  0  0  0  0  0  0
  1 29  1  0  0  0  0
  2  1  2  0  0  0  0
  2  7  1  0  0  0  0
  3  2  1  0  0  0  0
  4  3  1  0  0  0  0
  4  5  2  0  0  0  0
  5  1  1  0  0  0  0
  6  9  1  0  0  0  0
  6  4  1  0  0  0  0
  8  6  1  0  0  0  0
 10  3  1  0  0  0  0
 11 10  1  0  0  0  0
 12 10  1  0  0  0  0
 13 14  2  0  0  0  0
 14 15  1  0  0  0  0
 14 25  1  0  0  0  0
 15 16  1  0  0  0  0
 16 17  2  0  0  0  0
 18 10  1  6  0  0  0
 18 16  1  0  0  0  0
 19 20  1  6  0  0  0
 19 18  1  0  0  0  0
 19 15  1  0  0  0  0
 20 21  1  0  0  0  0
 21 13  1  0  0  0  0
 22 21  1  0  0  0  0
 23 13  1  0  0  0  0
 23 24  1  0  0  0  0
 25 27  1  0  0  0  0
 25 26  2  0  0  0  0
 27 28  1  0  0  0  0
 29 32  1  0  0  0  0
 30 29  2  0  0  0  0
 31 36  1  0  0  0  0
 32 31  2  0  0  0  0
 32 33  1  0  0  0  0
 33 34  2  0  0  0  0
 34 35  1  0  0  0  0
 35 38  1  0  0  0  0
 36 35  2  0  0  0  0
 37 31  1  0  0  0  0
 39 43  1  0  0  0  0
 39 33  1  0  0  0  0
 40 39  2  0  0  0  0
 41 42  2  0  0  0  0
 41 40  1  0  0  0  0
 42 43  1  0  0  0  0
 44 40  1  0  0  0  0
 45 41  1  0  0  0  0
 46 42  1  0  0  0  0
M  END
>  <minimizedAffinity>
-5.82710838

>  <minimizedRMSD>
0.993390679

$$$$
