
 OpenBabel03252503193D

 46 50  0  0  1  0  0  0  0  0999 V2000
   46.4490   33.9160   40.5950 C   0  0  0  0  0  0  0  0  0  0  0  0
   45.1420   34.0000   40.2020 C   0  0  0  0  0  0  0  0  0  0  0  0
   45.0740   33.3260   39.0340 N   0  0  0  0  0  0  0  0  0  0  0  0
   46.2980   32.8510   38.7330 C   0  0  0  0  0  0  0  0  0  0  0  0
   47.1510   33.2180   39.7040 N   0  0  0  0  0  0  0  0  0  0  0  0
   46.7600   32.0850   37.6250 N   0  0  0  0  0  0  0  0  0  0  0  0
   44.3240   34.4830   40.6840 H   0  0  0  0  0  0  0  0  0  0  0  0
   46.4990   32.3420   36.6340 H   0  0  0  0  0  0  0  0  0  0  0  0
   47.3620   31.2580   37.7630 H   0  0  0  0  0  0  0  0  0  0  0  0
   43.9460   33.0860   38.1620 C   0  0  0  0  0  0  0  0  0  0  0  0
   43.1690   33.8350   38.4450 H   0  0  0  0  0  0  0  0  0  0  0  0
   44.1810   33.2670   37.1110 H   0  0  0  0  0  0  0  0  0  0  0  0
   40.5650   33.1780   40.9160 C   0  0  0  0  0  0  0  0  0  0  0  0
   41.1910   32.0250   40.9640 C   0  0  0  0  0  0  0  0  0  0  0  0
   42.1110   31.6670   39.9410 N   0  0  0  0  0  0  0  0  0  0  0  0
   43.4360   31.1420   39.6850 C   0  0  0  0  0  0  0  0  0  0  0  0
   44.3230   30.4700   40.3150 O   0  0  0  0  0  0  0  0  0  0  0  0
   43.3280   31.7240   38.3480 C   0  0  1  0  0  3  0  0  0  0  0  0
   41.8260   31.7880   38.5240 C   0  0  2  0  0  3  0  0  0  0  0  0
   41.0380   33.3670   38.2440 S   0  0  0  0  0  0  0  0  0  0  0  0
   40.7710   34.1790   39.8410 C   0  0  0  0  0  3  0  0  0  0  0  0
   39.8990   34.8660   39.8020 H   0  0  0  0  0  0  0  0  0  0  0  0
   39.6170   33.4960   41.9880 C   0  0  0  0  0  2  0  0  0  0  0  0
   40.0600   33.5500   43.0000 H   0  0  0  0  0  0  0  0  0  0  0  0
   40.9450   31.0790   42.0700 C   0  0  0  0  0  0  0  0  0  0  0  0
   40.0000   30.2630   42.1630 O   0  0  0  0  0  0  0  0  0  0  0  0
   41.6780   30.8930   43.2010 O   0  0  0  0  0  0  0  0  0  0  0  0
   42.0820   30.0240   43.4600 H   0  0  0  0  0  0  0  0  0  0  0  0
   47.0310   34.5150   41.8480 C   0  0  0  0  0  0  0  0  0  0  0  0
   48.2620   34.7710   42.0050 O   0  0  0  0  0  0  0  0  0  0  0  0
   45.5950   36.1040   43.0450 C   0  0  0  0  0  0  0  0  0  0  0  0
   46.1860   34.8330   42.9470 C   0  0  0  0  0  0  0  0  0  0  0  0
   45.8720   33.9700   43.9810 C   0  0  0  0  0  0  0  0  0  0  0  0
   45.0740   34.3110   44.9930 N   0  0  0  0  0  0  0  0  0  0  0  0
   44.5230   35.5590   45.0430 C   0  0  0  0  0  0  0  0  0  0  0  0
   44.7930   36.4390   44.0670 N   0  0  0  0  0  0  0  0  0  0  0  0
   45.8250   36.7990   42.2470 H   0  0  0  0  0  0  0  0  0  0  0  0
   43.8730   35.8370   45.8680 H   0  0  0  0  0  0  0  0  0  0  0  0
   46.4320   32.6570   43.9600 C   0  0  0  0  0  0  0  0  0  0  0  0
   47.6430   32.1230   44.2590 C   0  0  0  0  0  0  0  0  0  0  0  0
   47.8800   30.8300   44.1400 C   0  0  0  0  0  0  0  0  0  0  0  0
   46.8730   30.0580   43.7090 C   0  0  0  0  0  0  0  0  0  0  0  0
   45.5020   31.2320   43.4550 S   0  0  0  0  0  0  0  0  0  0  0  0
   48.3900   32.8660   44.6050 H   0  0  0  0  0  0  0  0  0  0  0  0
   48.8200   30.3350   44.3600 H   0  0  0  0  0  0  0  0  0  0  0  0
   46.7880   28.9720   43.5200 H   0  0  0  0  0  0  0  0  0  0  0  0
  1 29  1  0  0  0  0
  2  1  2  0  0  0  0
  2  7  1  0  0  0  0
  3  2  1  0  0  0  0
  4  3  1  0  0  0  0
  4  5  2  0  0  0  0
  5  1  1  0  0  0  0
  6  9  1  0  0  0  0
  6  4  1  0  0  0  0
  8  6  1  0  0  0  0
 10 11  1  0  0  0  0
 10  3  1  0  0  0  0
 12 10  1  0  0  0  0
 13 14  2  0  0  0  0
 13 23  1  0  0  0  0
 14 25  1  0  0  0  0
 15 14  1  0  0  0  0
 16 15  1  0  0  0  0
 16 17  2  0  0  0  0
 18 10  1  1  0  0  0
 18 19  1  0  0  0  0
 18 16  1  0  0  0  0
 19 20  1  1  0  0  0
 19 15  1  0  0  0  0
 20 21  1  0  0  0  0
 21 13  1  0  0  0  0
 22 21  1  0  0  0  0
 23 24  1  0  0  0  0
 25 26  2  0  0  0  0
 25 27  1  0  0  0  0
 27 28  1  0  0  0  0
 29 30  2  0  0  0  0
 29 32  1  0  0  0  0
 31 36  1  0  0  0  0
 32 31  2  0  0  0  0
 32 33  1  0  0  0  0
 33 34  2  0  0  0  0
 34 35  1  0  0  0  0
 35 38  1  0  0  0  0
 36 35  2  0  0  0  0
 37 31  1  0  0  0  0
 39 33  1  0  0  0  0
 39 40  2  0  0  0  0
 40 44  1  0  0  0  0
 41 40  1  0  0  0  0
 41 45  1  0  0  0  0
 42 41  2  0  0  0  0
 43 42  1  0  0  0  0
 43 39  1  0  0  0  0
 46 42  1  0  0  0  0
M  END
>  <minimizedAffinity>
-5.64961433

>  <minimizedRMSD>
1.03605521

$$$$
