
 OpenBabel03242519323D

 55 60  0  0  1  0  0  0  0  0999 V2000
   51.1520   31.3130   42.3710 C   0  0  0  0  0  0  0  0  0  0  0  0
   51.7870   31.0780   41.2140 N   0  0  0  0  0  0  0  0  0  0  0  0
   52.5410   29.9580   41.3380 C   0  0  0  0  0  0  0  0  0  0  0  0
   52.3580   29.5060   42.5950 N   0  0  0  0  0  0  0  0  0  0  0  0
   51.5150   30.3210   43.2320 N   0  0  0  0  0  0  0  0  0  0  0  0
   53.1740   29.5120   40.5610 H   0  0  0  0  0  0  0  0  0  0  0  0
   48.2420   33.5200   42.8080 C   0  0  0  0  0  0  0  0  0  0  0  0
   48.8760   34.7900   42.6610 C   0  0  0  0  0  0  0  0  0  0  0  0
   50.2560   34.8600   42.4170 C   0  0  0  0  0  0  0  0  0  0  0  0
   50.9220   33.6690   42.3340 N   0  0  0  0  0  0  0  0  0  0  0  0
   50.2730   32.4710   42.4830 C   0  0  0  0  0  0  0  0  0  0  0  0
   48.9690   32.4160   42.7120 N   0  0  0  0  0  0  0  0  0  0  0  0
   48.4040   35.7610   42.7150 H   0  0  0  0  0  0  0  0  0  0  0  0
   50.7690   35.7830   42.3000 H   0  0  0  0  0  0  0  0  0  0  0  0
   46.8040   33.5890   43.0610 C   0  0  0  0  0  0  0  0  0  0  0  0
   46.0860   34.5470   42.2590 C   0  0  0  0  0  0  0  0  0  0  0  0
   45.5230   35.6880   42.9930 C   0  0  0  0  0  0  0  0  0  0  0  0
   44.6390   35.2220   44.1540 C   0  0  0  0  0  0  0  0  0  0  0  0
   45.1960   34.0630   44.9130 C   0  0  0  0  0  0  0  0  0  0  0  0
   46.6690   33.8550   44.5980 C   0  0  0  0  0  0  0  0  0  0  0  0
   46.3910   32.5450   42.9840 H   0  0  0  0  0  0  0  0  0  0  0  0
   46.7320   34.9540   41.4380 H   0  0  0  0  0  0  0  0  0  0  0  0
   45.2490   34.0420   41.7080 H   0  0  0  0  0  0  0  0  0  0  0  0
   44.7990   36.2170   42.3060 H   0  0  0  0  0  0  0  0  0  0  0  0
   46.2070   36.4720   43.3300 H   0  0  0  0  0  0  0  0  0  0  0  0
   44.5990   36.0890   44.8650 H   0  0  0  0  0  0  0  0  0  0  0  0
   43.5880   35.0770   43.8320 H   0  0  0  0  0  0  0  0  0  0  0  0
   44.6730   33.1360   44.5740 H   0  0  0  0  0  0  0  0  0  0  0  0
   45.1070   34.1340   46.0030 H   0  0  0  0  0  0  0  0  0  0  0  0
   47.2680   34.7530   44.8600 H   0  0  0  0  0  0  0  0  0  0  0  0
   47.0350   32.9590   45.0960 H   0  0  0  0  0  0  0  0  0  0  0  0
   52.9580   28.3510   43.2140 C   0  0  0  0  0  0  0  0  0  0  0  0
   52.9490   27.5130   42.5390 H   0  0  0  0  0  0  0  0  0  0  0  0
   52.3100   28.0430   44.0880 H   0  0  0  0  0  0  0  0  0  0  0  0
   54.3180   28.6650   43.6540 C   0  0  0  0  0  3  0  0  0  0  0  0
   54.8660   29.6720   44.3120 C   0  0  0  0  0  3  0  0  0  0  0  0
   56.3320   29.7990   44.7650 C   0  0  0  0  0  0  0  0  0  0  0  0
   56.2870   30.3800   45.7040 H   0  0  0  0  0  0  0  0  0  0  0  0
   56.7150   28.7820   44.9220 H   0  0  0  0  0  0  0  0  0  0  0  0
   59.8010   32.9050   42.3290 C   0  0  0  0  0  0  0  0  0  0  0  0
   59.7040   31.6340   42.0400 C   0  0  0  0  0  0  0  0  0  0  0  0
   58.7980   30.7850   42.6810 N   0  0  0  0  0  0  0  0  0  0  0  0
   57.8490   29.7210   42.7510 C   0  0  2  0  0  0  0  0  0  0  0  0
   57.8250   28.6330   42.1220 O   0  0  0  0  0  1  0  0  0  0  0  0
   57.1360   30.5300   43.7590 C   0  0  2  0  0  3  0  0  0  0  0  0
   58.5340   30.8950   44.1160 C   0  0  2  0  0  0  0  0  0  0  0  0
   58.8420   32.5170   44.7900 S   0  0  0  0  0  0  0  0  0  0  0  0
   58.9760   33.5640   43.3420 C   0  0  0  0  0  3  0  0  0  0  0  0
   57.9420   33.7680   42.9860 H   0  0  0  0  0  0  0  0  0  0  0  0
   60.7940   33.6780   41.5810 C   0  0  0  0  0  2  0  0  0  0  0  0
   61.7470   33.0950   41.4500 H   0  0  0  0  0  0  0  0  0  0  0  0
   60.5670   31.0610   41.0130 C   0  0  0  0  0  0  0  0  0  0  0  0
   61.3850   30.0990   41.1770 O   0  0  0  0  0  0  0  0  0  0  0  0
   61.2460   30.7350   39.8580 O   0  0  0  0  0  0  0  0  0  0  0  0
   60.9900   31.0250   38.9220 H   0  0  0  0  0  0  0  0  0  0  0  0
  1 11  1  0  0  0  0
  1  5  2  0  0  0  0
  2  3  2  0  0  0  0
  2  1  1  0  0  0  0
  3  4  1  0  0  0  0
  4 32  1  0  0  0  0
  4  5  1  0  0  0  0
  6  3  1  0  0  0  0
  7 15  1  0  0  0  0
  8 13  1  0  0  0  0
  8  7  2  0  0  0  0
  9  8  1  0  0  0  0
 10  9  2  0  0  0  0
 10 11  1  0  0  0  0
 11 12  2  0  0  0  0
 12  7  1  0  0  0  0
 14  9  1  0  0  0  0
 15 20  1  0  0  0  0
 16 17  1  0  0  0  0
 16 15  1  0  0  0  0
 17 25  1  0  0  0  0
 17 18  1  0  0  0  0
 18 26  1  0  0  0  0
 18 19  1  0  0  0  0
 19 29  1  0  0  0  0
 20 30  1  0  0  0  0
 20 19  1  0  0  0  0
 20 31  1  0  0  0  0
 21 15  1  0  0  0  0
 22 16  1  0  0  0  0
 23 16  1  0  0  0  0
 24 17  1  0  0  0  0
 27 18  1  0  0  0  0
 28 19  1  0  0  0  0
 32 35  1  0  0  0  0
 32 34  1  0  0  0  0
 33 32  1  0  0  0  0
 35 36  2  0  0  0  0
 36 37  1  0  0  0  0
 37 39  1  0  0  0  0
 37 38  1  0  0  0  0
 40 48  1  0  0  0  0
 41 40  2  0  0  0  0
 41 42  1  0  0  0  0
 42 43  1  0  0  0  0
 42 46  1  0  0  0  0
 43 44  1  6  0  0  0
 43 45  1  0  0  0  0
 43 46  1  0  0  0  0
 45 46  1  0  0  0  0
 45 37  1  1  0  0  0
 46 47  1  1  0  0  0
 48 47  1  0  0  0  0
 49 48  1  0  0  0  0
 50 40  1  0  0  0  0
 51 50  1  0  0  0  0
 52 53  2  0  0  0  0
 52 41  1  0  0  0  0
 54 52  1  0  0  0  0
 55 54  1  0  0  0  0
M  END
>  <minimizedAffinity>
-4.75072861

>  <minimizedRMSD>
2.53176022

$$$$
