
 OpenBabel03242523303D

 29 31  0  0  1  0  0  0  0  0999 V2000
   46.1610   32.0080   40.7250 C   0  0  0  0  0  0  0  0  0  0  0  0
   45.8940   31.7490   39.4470 C   0  0  0  0  0  0  0  0  0  0  0  0
   46.5140   32.5110   38.4200 N   0  0  0  0  0  0  0  0  0  0  0  0
   46.2540   33.2590   37.2070 C   0  0  0  0  0  0  0  0  0  0  0  0
   45.3280   33.4020   36.3380 O   0  0  0  0  0  0  0  0  0  0  0  0
   47.6170   33.8600   37.3780 C   0  0  0  0  0  3  0  0  0  0  0  0
   48.1650   33.7060   36.4000 H   0  0  0  0  0  0  0  0  0  0  0  0
   47.9650   32.7650   38.3640 C   0  0  1  0  0  3  0  0  0  0  0  0
   48.4860   33.2860   39.9940 S   0  0  0  0  0  0  0  0  0  0  0  0
   47.0840   33.0950   41.1220 C   0  0  0  0  0  3  0  0  0  0  0  0
   46.5340   34.0700   41.2440 H   0  0  0  0  0  0  0  0  0  0  0  0
   44.9710   30.6780   39.0150 C   0  0  0  0  0  0  0  0  0  0  0  0
   45.2700   29.5840   38.4710 O   0  0  0  0  0  0  0  0  0  0  0  0
   43.7340   30.0930   38.8400 O   0  0  0  0  0  0  0  0  0  0  0  0
   43.1380   29.7990   39.6310 H   0  0  0  0  0  0  0  0  0  0  0  0
   45.4920   31.1680   41.7260 C   0  0  0  0  0  2  0  0  0  0  0  0
   44.1590   31.9540   42.6230 S   0  0  0  0  0  0  0  0  0  0  0  0
   42.5440   31.8020   41.8330 C   0  0  0  0  0  0  0  0  0  0  0  0
   42.3110   30.8180   41.4330 H   0  0  0  0  0  0  0  0  0  0  0  0
   41.7880   32.1400   42.6000 H   0  0  0  0  0  0  0  0  0  0  0  0
   41.9520   33.5980   38.6100 C   0  0  0  0  0  0  0  0  0  0  0  0
   42.4190   34.8660   38.9240 C   0  0  0  0  0  0  0  0  0  0  0  0
   42.9210   35.0990   40.1980 C   0  0  0  0  0  0  0  0  0  0  0  0
   42.9430   34.0870   41.1010 N   0  0  0  0  0  0  0  0  0  0  0  0
   42.4740   32.8420   40.7630 C   0  0  0  0  0  0  0  0  0  0  0  0
   41.9970   32.6380   39.5380 N   0  0  0  0  0  0  0  0  0  0  0  0
   41.5750   33.4650   37.6160 H   0  0  0  0  0  0  0  0  0  0  0  0
   42.4420   35.7390   38.2660 H   0  0  0  0  0  0  0  0  0  0  0  0
   43.3120   36.0630   40.5410 H   0  0  0  0  0  0  0  0  0  0  0  0
  1 10  1  0  0  0  0
  1 16  1  0  0  0  0
  2  1  2  0  0  0  0
  3  2  1  0  0  0  0
  4  6  1  0  0  0  0
  4  3  1  0  0  0  0
  5  4  2  0  0  0  0
  7  6  1  0  0  0  0
  8  6  1  6  0  0  0
  8  3  1  0  0  0  0
  8  9  1  0  0  0  0
  9 10  1  0  0  0  0
 10 11  1  0  0  0  0
 12  2  1  0  0  0  0
 13 12  2  0  0  0  0
 14 12  1  0  0  0  0
 14 15  1  0  0  0  0
 16 17  1  0  0  0  0
 18 20  1  0  0  0  0
 18 17  1  0  0  0  0
 19 18  1  0  0  0  0
 21 22  2  0  0  0  0
 21 26  1  0  0  0  0
 22 23  1  0  0  0  0
 23 29  1  0  0  0  0
 23 24  2  0  0  0  0
 25 24  1  0  0  0  0
 25 18  1  0  0  0  0
 26 25  2  0  0  0  0
 27 21  1  0  0  0  0
 28 22  1  0  0  0  0
M  END
>  <minimizedAffinity>
-3.02571774

>  <minimizedRMSD>
4.65461922

$$$$
