
 OpenBabel03242523293D

 29 31  0  0  1  0  0  0  0  0999 V2000
   43.9450   28.3000   40.1570 C   0  0  0  0  0  0  0  0  0  0  0  0
   42.7700   28.3210   40.7810 C   0  0  0  0  0  0  0  0  0  0  0  0
   41.6110   28.7930   40.1070 N   0  0  0  0  0  0  0  0  0  0  0  0
   40.4780   29.6870   40.2270 C   0  0  0  0  0  0  0  0  0  0  0  0
   39.8450   30.3310   41.1320 O   0  0  0  0  0  0  0  0  0  0  0  0
   40.3130   29.5550   38.7450 C   0  0  0  0  0  3  0  0  0  0  0  0
   39.2390   29.2530   38.5600 H   0  0  0  0  0  0  0  0  0  0  0  0
   41.2140   28.3370   38.7630 C   0  0  1  0  0  3  0  0  0  0  0  0
   42.6660   28.3920   37.7210 S   0  0  0  0  0  0  0  0  0  0  0  0
   44.0930   28.7800   38.7630 C   0  0  0  0  0  3  0  0  0  0  0  0
   44.3210   29.8830   38.7350 H   0  0  0  0  0  0  0  0  0  0  0  0
   42.5870   27.8580   42.1730 C   0  0  0  0  0  0  0  0  0  0  0  0
   41.9960   26.8170   42.5600 O   0  0  0  0  0  0  0  0  0  0  0  0
   42.7240   27.9400   43.5430 O   0  0  0  0  0  0  0  0  0  0  0  0
   43.6400   27.8720   44.0180 H   0  0  0  0  0  0  0  0  0  0  0  0
   45.0910   27.7850   40.9140 C   0  0  0  0  0  2  0  0  0  0  0  0
   46.5220   27.3400   39.9360 S   0  0  0  0  0  0  0  0  0  0  0  0
   47.2550   25.7510   40.3770 C   0  0  0  0  0  0  0  0  0  0  0  0
   47.6480   25.6840   41.3890 H   0  0  0  0  0  0  0  0  0  0  0  0
   46.4610   24.9750   40.1760 H   0  0  0  0  0  0  0  0  0  0  0  0
   50.5160   25.5370   38.5660 C   0  0  0  0  0  0  0  0  0  0  0  0
   50.1410   24.8420   37.4270 C   0  0  0  0  0  0  0  0  0  0  0  0
   48.8140   24.4580   37.2810 C   0  0  0  0  0  0  0  0  0  0  0  0
   47.9200   24.7710   38.2530 N   0  0  0  0  0  0  0  0  0  0  0  0
   48.3190   25.4600   39.3710 C   0  0  0  0  0  0  0  0  0  0  0  0
   49.5950   25.8190   39.4920 N   0  0  0  0  0  0  0  0  0  0  0  0
   51.5500   25.8130   38.6340 H   0  0  0  0  0  0  0  0  0  0  0  0
   50.7870   24.5470   36.5950 H   0  0  0  0  0  0  0  0  0  0  0  0
   48.4200   23.9080   36.4210 H   0  0  0  0  0  0  0  0  0  0  0  0
  1  2  2  0  0  0  0
  1 16  1  0  0  0  0
  2 12  1  0  0  0  0
  3  4  1  0  0  0  0
  3  2  1  0  0  0  0
  4  5  2  0  0  0  0
  6  8  1  0  0  0  0
  6  4  1  0  0  0  0
  7  6  1  0  0  0  0
  8  9  1  6  0  0  0
  8  3  1  0  0  0  0
  9 10  1  0  0  0  0
 10  1  1  0  0  0  0
 11 10  1  0  0  0  0
 12 13  2  0  0  0  0
 12 14  1  0  0  0  0
 14 15  1  0  0  0  0
 17 18  1  0  0  0  0
 17 16  1  0  0  0  0
 18 19  1  0  0  0  0
 20 18  1  0  0  0  0
 21 27  1  0  0  0  0
 21 26  1  0  0  0  0
 22 21  2  0  0  0  0
 23 22  1  0  0  0  0
 23 24  2  0  0  0  0
 24 25  1  0  0  0  0
 25 26  2  0  0  0  0
 25 18  1  0  0  0  0
 28 22  1  0  0  0  0
 29 23  1  0  0  0  0
M  END
>  <minimizedAffinity>
-0.673214912

>  <minimizedRMSD>
7.98611832

$$$$
