
 OpenBabel03242523303D

 29 31  0  0  1  0  0  0  0  0999 V2000
   46.4560   30.6180   42.5460 C   0  0  0  0  0  0  0  0  0  0  0  0
   45.5500   31.1990   41.7630 C   0  0  0  0  0  0  0  0  0  0  0  0
   45.7350   31.2220   40.3530 N   0  0  0  0  0  0  0  0  0  0  0  0
   45.7200   32.0860   39.1910 C   0  0  0  0  0  0  0  0  0  0  0  0
   45.2960   33.2430   38.8510 O   0  0  0  0  0  0  0  0  0  0  0  0
   46.4630   31.0030   38.4710 C   0  0  0  0  0  3  0  0  0  0  0  0
   45.8870   30.7880   37.5210 H   0  0  0  0  0  0  0  0  0  0  0  0
   46.0760   30.0260   39.5620 C   0  0  1  0  0  3  0  0  0  0  0  0
   47.4120   29.1850   40.4000 S   0  0  0  0  0  0  0  0  0  0  0  0
   47.6820   30.0020   41.9920 C   0  0  0  0  0  3  0  0  0  0  0  0
   48.5180   30.7540   41.9190 H   0  0  0  0  0  0  0  0  0  0  0  0
   44.3180   31.8310   42.2800 C   0  0  0  0  0  0  0  0  0  0  0  0
   43.1480   31.3710   42.2430 O   0  0  0  0  0  0  0  0  0  0  0  0
   43.5940   32.8310   42.8980 O   0  0  0  0  0  0  0  0  0  0  0  0
   43.7120   33.0710   43.8960 H   0  0  0  0  0  0  0  0  0  0  0  0
   46.1850   30.6220   43.9890 C   0  0  0  0  0  2  0  0  0  0  0  0
   47.1520   31.7820   44.9490 S   0  0  0  0  0  0  0  0  0  0  0  0
   46.1680   32.9610   45.8960 C   0  0  0  0  0  0  0  0  0  0  0  0
   45.2920   32.5460   46.3910 H   0  0  0  0  0  0  0  0  0  0  0  0
   46.8790   33.4450   46.6270 H   0  0  0  0  0  0  0  0  0  0  0  0
   44.4980   35.9170   44.3380 C   0  0  0  0  0  0  0  0  0  0  0  0
   45.2110   36.0300   43.1540 C   0  0  0  0  0  0  0  0  0  0  0  0
   46.2310   35.1230   42.8960 C   0  0  0  0  0  0  0  0  0  0  0  0
   46.5050   34.1530   43.8040 N   0  0  0  0  0  0  0  0  0  0  0  0
   45.7830   34.0650   44.9680 C   0  0  0  0  0  0  0  0  0  0  0  0
   44.8100   34.9430   45.1970 N   0  0  0  0  0  0  0  0  0  0  0  0
   43.7210   36.6380   44.4930 H   0  0  0  0  0  0  0  0  0  0  0  0
   45.0630   36.7750   42.3670 H   0  0  0  0  0  0  0  0  0  0  0  0
   46.8490   35.1290   41.9930 H   0  0  0  0  0  0  0  0  0  0  0  0
  1 16  1  0  0  0  0
  2 12  1  0  0  0  0
  2  1  2  0  0  0  0
  3  2  1  0  0  0  0
  4  3  1  0  0  0  0
  5  4  2  0  0  0  0
  6  4  1  0  0  0  0
  7  6  1  0  0  0  0
  8  6  1  6  0  0  0
  8  3  1  0  0  0  0
  8  9  1  0  0  0  0
  9 10  1  0  0  0  0
 10  1  1  0  0  0  0
 11 10  1  0  0  0  0
 12 14  1  0  0  0  0
 13 12  2  0  0  0  0
 14 15  1  0  0  0  0
 16 17  1  0  0  0  0
 17 18  1  0  0  0  0
 18 19  1  0  0  0  0
 18 20  1  0  0  0  0
 21 27  1  0  0  0  0
 21 26  1  0  0  0  0
 22 21  2  0  0  0  0
 23 22  1  0  0  0  0
 23 24  2  0  0  0  0
 24 25  1  0  0  0  0
 25 26  2  0  0  0  0
 25 18  1  0  0  0  0
 28 22  1  0  0  0  0
 29 23  1  0  0  0  0
M  END
>  <minimizedAffinity>
-3.68654466

>  <minimizedRMSD>
1.80124438

$$$$
