
 OpenBabel03242523293D

 29 31  0  0  1  0  0  0  0  0999 V2000
   46.5410   31.1210   42.5490 C   0  0  0  0  0  0  0  0  0  0  0  0
   47.4150   30.9190   41.5650 C   0  0  0  0  0  0  0  0  0  0  0  0
   48.8040   30.8310   41.8510 N   0  0  0  0  0  0  0  0  0  0  0  0
   50.1070   31.3260   41.4570 C   0  0  0  0  0  0  0  0  0  0  0  0
   50.6550   31.9330   40.4740 O   0  0  0  0  0  0  0  0  0  0  0  0
   50.6160   30.8040   42.7660 C   0  0  0  0  0  3  0  0  0  0  0  0
   51.5060   30.1470   42.5300 H   0  0  0  0  0  0  0  0  0  0  0  0
   49.3600   29.9710   42.9100 C   0  0  1  0  0  3  0  0  0  0  0  0
   48.3860   30.2320   44.3870 S   0  0  0  0  0  0  0  0  0  0  0  0
   46.9770   31.2820   43.9550 C   0  0  0  0  0  3  0  0  0  0  0  0
   47.1940   32.3600   44.1920 H   0  0  0  0  0  0  0  0  0  0  0  0
   47.0160   30.7620   40.1500 C   0  0  0  0  0  0  0  0  0  0  0  0
   47.0360   29.7090   39.4610 O   0  0  0  0  0  0  0  0  0  0  0  0
   46.5450   31.2040   38.9300 O   0  0  0  0  0  0  0  0  0  0  0  0
   45.5800   31.5460   38.7940 H   0  0  0  0  0  0  0  0  0  0  0  0
   45.1230   31.1840   42.1750 C   0  0  0  0  0  2  0  0  0  0  0  0
   44.3220   32.7590   42.4580 S   0  0  0  0  0  0  0  0  0  0  0  0
   44.5110   33.9400   41.1070 C   0  0  0  0  0  0  0  0  0  0  0  0
   44.1360   33.6080   40.1420 H   0  0  0  0  0  0  0  0  0  0  0  0
   44.0130   34.8920   41.4530 H   0  0  0  0  0  0  0  0  0  0  0  0
   48.0220   34.4200   39.9240 C   0  0  0  0  0  0  0  0  0  0  0  0
   48.6020   34.9960   41.0440 C   0  0  0  0  0  0  0  0  0  0  0  0
   47.8180   35.2130   42.1690 C   0  0  0  0  0  0  0  0  0  0  0  0
   46.5080   34.8580   42.1470 N   0  0  0  0  0  0  0  0  0  0  0  0
   45.9600   34.2900   41.0240 C   0  0  0  0  0  0  0  0  0  0  0  0
   46.7280   34.0900   39.9560 N   0  0  0  0  0  0  0  0  0  0  0  0
   48.6670   34.2710   39.0800 H   0  0  0  0  0  0  0  0  0  0  0  0
   49.6430   35.3120   41.1550 H   0  0  0  0  0  0  0  0  0  0  0  0
   48.1820   35.6600   43.1000 H   0  0  0  0  0  0  0  0  0  0  0  0
  1 10  1  0  0  0  0
  2  3  1  0  0  0  0
  2  1  2  0  0  0  0
  3  8  1  0  0  0  0
  4  3  1  0  0  0  0
  4  6  1  0  0  0  0
  5  4  2  0  0  0  0
  7  6  1  0  0  0  0
  8  6  1  1  0  0  0
  8  9  1  0  0  0  0
 10 11  1  0  0  0  0
 10  9  1  0  0  0  0
 12  2  1  0  0  0  0
 13 12  2  0  0  0  0
 14 12  1  0  0  0  0
 15 14  1  0  0  0  0
 16 17  1  0  0  0  0
 16  1  1  0  0  0  0
 18 20  1  0  0  0  0
 18 17  1  0  0  0  0
 19 18  1  0  0  0  0
 21 26  2  0  0  0  0
 21 22  1  0  0  0  0
 22 28  1  0  0  0  0
 22 23  2  0  0  0  0
 23 29  1  0  0  0  0
 24 23  1  0  0  0  0
 25 18  1  0  0  0  0
 25 24  2  0  0  0  0
 26 25  1  0  0  0  0
 27 21  1  0  0  0  0
M  END
>  <minimizedAffinity>
-3.10968232

>  <minimizedRMSD>
4.5517416

$$$$
