
 OpenBabel03242523393D

 44 49  0  0  1  0  0  0  0  0999 V2000
   44.8470   35.1970   45.0200 C   0  0  0  0  0  0  0  0  0  0  0  0
   44.9790   35.3560   43.6510 C   0  0  0  0  0  0  0  0  0  0  0  0
   45.7030   34.4050   42.9720 C   0  0  0  0  0  0  0  0  0  0  0  0
   46.2340   33.3800   43.7080 N   0  0  0  0  0  0  0  0  0  0  0  0
   46.0810   33.2590   45.0570 C   0  0  0  0  0  0  0  0  0  0  0  0
   45.4020   34.1730   45.5970 N   0  0  0  0  0  0  0  0  0  0  0  0
   44.2980   35.8850   45.6510 H   0  0  0  0  0  0  0  0  0  0  0  0
   44.4850   36.2230   43.3160 H   0  0  0  0  0  0  0  0  0  0  0  0
   46.8430   32.0780   45.2540 C   0  0  2  0  0  0  0  0  0  0  0  0
   47.1480   30.8370   45.3120 N   0  0  1  0  0  0  0  0  0  0  0  0
   48.2370   30.1930   45.3510 C   0  0  0  0  0  0  0  0  0  0  0  0
   48.0840   29.9980   46.6620 N   0  0  0  0  0  0  0  0  0  0  0  0
   47.1550   30.7340   47.3340 C   0  0  0  0  0  0  0  0  0  0  0  0
   46.9190   30.3720   48.6900 C   0  0  0  0  0  0  0  0  0  0  0  0
   45.9740   31.0720   49.3560 C   0  0  0  0  0  0  0  0  0  0  0  0
   45.2330   32.0900   48.8390 C   0  0  0  0  0  0  0  0  0  0  0  0
   45.5500   32.3540   47.5110 C   0  0  0  0  0  0  0  0  0  0  0  0
   46.4720   31.7770   46.6360 C   0  0  1  0  0  0  0  0  0  0  0  0
   47.8940   32.5890   45.4050 H   0  0  0  0  0  0  0  0  0  0  0  0
   46.3850   30.2480   44.8810 H   0  0  0  0  0  0  0  0  0  0  0  0
   49.1850   30.7080   45.0900 H   0  0  0  0  0  0  0  0  0  0  0  0
   48.3070   29.2180   44.7850 H   0  0  0  0  0  0  0  0  0  0  0  0
   48.7090   29.2650   47.1040 H   0  0  0  0  0  0  0  0  0  0  0  0
   47.4540   29.5890   49.1720 H   0  0  0  0  0  0  0  0  0  0  0  0
   45.8030   30.7790   50.4080 H   0  0  0  0  0  0  0  0  0  0  0  0
   44.5050   32.6150   49.3830 H   0  0  0  0  0  0  0  0  0  0  0  0
   44.9080   33.1460   47.1510 H   0  0  0  0  0  0  0  0  0  0  0  0
   45.9370   34.5240   41.1810 S   0  0  0  0  0  0  0  0  0  0  0  0
   47.6510   34.5270   40.7010 C   0  0  0  0  0  0  0  0  0  0  0  0
   48.0060   33.5700   39.6460 C   0  0  0  0  0  0  0  0  0  0  0  0
   48.1210   32.2550   39.6620 C   0  0  0  0  0  0  0  0  0  0  0  0
   48.4690   31.4530   38.5630 N   0  0  0  0  0  0  0  0  0  0  0  0
   48.3850   30.2450   37.8510 C   0  0  0  0  0  0  0  0  0  0  0  0
   48.0720   29.0380   38.1080 O   0  0  0  0  0  0  0  0  0  0  0  0
   48.8190   30.8740   36.5780 C   0  0  0  0  0  0  0  0  0  0  0  0
   49.5880   30.3210   35.9980 H   0  0  0  0  0  0  0  0  0  0  0  0
   49.3580   31.9310   37.5150 C   0  0  1  0  0  0  0  0  0  0  0  0
   48.7030   33.5550   36.9700 S   0  0  0  0  0  0  0  0  0  0  0  0
   48.2410   34.4180   38.4670 C   0  0  0  0  0  0  0  0  0  0  0  0
   49.1150   35.0980   38.7130 H   0  0  0  0  0  0  0  0  0  0  0  0
   47.8740   31.5410   40.9340 C   0  0  0  0  0  0  0  0  0  0  0  0
   48.8420   30.9360   41.5100 O   0  0  0  0  0  0  0  0  0  0  0  0
   47.4580   30.9400   42.0940 O   0  0  0  0  0  0  0  0  0  0  0  0
   47.0860   31.4820   42.8850 H   0  0  0  0  0  0  0  0  0  0  0  0
  1  6  1  0  0  0  0
  1  7  1  0  0  0  0
  2  1  2  0  0  0  0
  3  2  1  0  0  0  0
  3  4  2  0  0  0  0
  4  5  1  0  0  0  0
  5  9  1  0  0  0  0
  5  6  2  0  0  0  0
  8  2  1  0  0  0  0
  9 10  1  0  0  0  0
  9 19  1  1  0  0  0
  9 18  1  0  0  0  0
 10 20  1  6  0  0  0
 10 11  1  0  0  0  0
 10 18  1  0  0  0  0
 11 12  1  0  0  0  0
 12 23  1  0  0  0  0
 12 13  1  0  0  0  0
 13 14  2  0  0  0  0
 14 24  1  0  0  0  0
 14 15  1  0  0  0  0
 15 25  1  0  0  0  0
 16 15  2  0  0  0  0
 16 26  1  0  0  0  0
 17 16  1  0  0  0  0
 18 13  1  1  0  0  0
 18 17  1  0  0  0  0
 21 11  1  0  0  0  0
 22 11  1  0  0  0  0
 27 17  1  0  0  0  0
 28  3  1  0  0  0  0
 29 28  1  0  0  0  0
 30 31  2  0  0  0  0
 30 29  1  0  0  0  0
 31 41  1  0  0  0  0
 32 31  1  0  0  0  0
 33 34  2  0  0  0  0
 33 32  1  0  0  0  0
 35 33  1  0  0  0  0
 36 35  1  0  0  0  0
 37 35  1  6  0  0  0
 37 32  1  0  0  0  0
 38 37  1  0  0  0  0
 38 39  1  0  0  0  0
 39 40  1  0  0  0  0
 39 30  1  0  0  0  0
 41 42  2  0  0  0  0
 41 43  1  0  0  0  0
 43 44  1  0  0  0  0
M  END
>  <minimizedAffinity>
-5.57641172

>  <minimizedRMSD>
1.44109046

$$$$
