
 OpenBabel03242523403D

 44 49  0  0  1  0  0  0  0  0999 V2000
   40.3060   28.6500   37.2820 C   0  0  0  0  0  0  0  0  0  0  0  0
   39.0140   28.4470   36.8270 C   0  0  0  0  0  0  0  0  0  0  0  0
   38.0390   29.2940   37.2970 C   0  0  0  0  0  0  0  0  0  0  0  0
   38.4280   30.2680   38.1780 N   0  0  0  0  0  0  0  0  0  0  0  0
   39.7130   30.4340   38.6020 C   0  0  0  0  0  0  0  0  0  0  0  0
   40.5400   29.6150   38.1200 N   0  0  0  0  0  0  0  0  0  0  0  0
   41.1490   28.0420   36.9760 H   0  0  0  0  0  0  0  0  0  0  0  0
   38.9670   27.6350   36.1580 H   0  0  0  0  0  0  0  0  0  0  0  0
   39.5060   31.5230   39.4870 C   0  0  2  0  0  0  0  0  0  0  0  0
   39.0390   32.6130   39.9680 N   0  0  1  0  0  4  0  0  0  0  0  0
   39.0380   33.1480   41.1160 C   0  0  0  0  0  0  0  0  0  0  0  0
   40.0080   33.9810   40.7360 N   0  0  0  0  0  0  0  0  0  0  0  0
   40.6900   33.7190   39.5870 C   0  0  2  0  0  3  0  0  0  0  0  0
   41.5980   34.7220   39.1440 C   0  0  0  0  0  0  0  0  0  0  0  0
   42.2550   34.4880   37.9860 C   0  0  0  0  0  0  0  0  0  0  0  0
   42.1190   33.3780   37.2120 C   0  0  0  0  0  0  0  0  0  0  0  0
   41.2090   32.4690   37.7410 C   0  0  0  0  0  0  0  0  0  0  0  0
   40.4300   32.4920   38.9000 C   0  0  1  0  0  0  0  0  0  0  0  0
   40.1430   31.1190   40.3920 H   0  0  0  0  0  0  0  0  0  0  0  0
   38.2010   32.9340   39.4100 H   0  0  0  0  0  0  0  0  0  0  0  0
   39.3040   32.5360   42.0030 H   0  0  0  0  0  0  0  0  0  0  0  0
   38.1130   33.7030   41.4510 H   0  0  0  0  0  0  0  0  0  0  0  0
   40.1870   34.8130   41.3690 H   0  0  0  0  0  0  0  0  0  0  0  0
   41.7640   35.6200   39.6890 H   0  0  0  0  0  0  0  0  0  0  0  0
   42.9550   35.2770   37.6570 H   0  0  0  0  0  0  0  0  0  0  0  0
   42.6430   33.2250   36.3150 H   0  0  0  0  0  0  0  0  0  0  0  0
   41.1230   31.6290   37.0670 H   0  0  0  0  0  0  0  0  0  0  0  0
   36.3190   29.1100   36.7650 S   0  0  0  0  0  0  0  0  0  0  0  0
   35.2090   28.7510   38.1090 C   0  0  0  0  0  2  0  0  0  0  0  0
   35.7950   27.9860   39.2170 C   0  0  0  0  0  0  0  0  0  0  0  0
   36.1370   28.3420   40.4400 C   0  0  0  0  0  0  0  0  0  0  0  0
   36.6920   27.4950   41.4140 N   0  0  0  0  0  0  0  0  0  0  0  0
   36.8680   27.1180   42.7540 C   0  0  0  0  0  0  0  0  0  0  0  0
   36.7540   27.6720   43.8950 O   0  0  0  0  0  0  0  0  0  0  0  0
   37.2680   25.7340   42.3960 C   0  0  0  0  0  3  0  0  0  0  0  0
   38.1580   25.3310   42.9230 H   0  0  0  0  0  0  0  0  0  0  0  0
   37.5510   26.3760   41.0560 C   0  0  1  0  0  3  0  0  0  0  0  0
   36.6590   25.4180   39.7710 S   0  0  0  0  0  0  0  0  0  0  0  0
   35.9550   26.6320   38.6630 C   0  0  0  0  0  3  0  0  0  0  0  0
   36.6780   26.7110   37.7930 H   0  0  0  0  0  0  0  0  0  0  0  0
   35.9350   29.7510   40.8470 C   0  0  0  0  0  0  0  0  0  0  0  0
   36.9180   30.4100   41.3310 O   0  0  0  0  0  0  0  0  0  0  0  0
   35.5610   31.0320   41.1630 O   0  0  0  0  0  0  0  0  0  0  0  0
   35.2330   31.6950   40.4500 H   0  0  0  0  0  0  0  0  0  0  0  0
  1  6  1  0  0  0  0
  2  1  2  0  0  0  0
  2  3  1  0  0  0  0
  3  4  2  0  0  0  0
  4  5  1  0  0  0  0
  5  9  1  0  0  0  0
  6  5  2  0  0  0  0
  7  1  1  0  0  0  0
  8  2  1  0  0  0  0
  9 10  1  0  0  0  0
  9 19  1  1  0  0  0
 10 20  1  6  0  0  0
 10 11  1  0  0  0  0
 11 22  1  0  0  0  0
 11 21  1  0  0  0  0
 12 11  1  0  0  0  0
 12 23  1  0  0  0  0
 13 14  1  6  0  0  0
 13 12  1  0  0  0  0
 14 24  1  0  0  0  0
 15 14  2  0  0  0  0
 16 17  2  0  0  0  0
 16 15  1  0  0  0  0
 18 17  1  6  0  0  0
 18  9  1  0  0  0  0
 18 13  1  0  0  0  0
 18 10  1  0  0  0  0
 25 15  1  0  0  0  0
 26 16  1  0  0  0  0
 27 17  1  0  0  0  0
 28  3  1  0  0  0  0
 28 29  1  0  0  0  0
 29 30  1  0  0  0  0
 30 31  2  0  0  0  0
 31 41  1  0  0  0  0
 31 32  1  0  0  0  0
 32 33  1  0  0  0  0
 33 34  2  0  0  0  0
 35 33  1  0  0  0  0
 35 36  1  0  0  0  0
 37 38  1  6  0  0  0
 37 32  1  0  0  0  0
 37 35  1  0  0  0  0
 39 30  1  0  0  0  0
 39 38  1  0  0  0  0
 40 39  1  0  0  0  0
 41 43  1  0  0  0  0
 41 42  2  0  0  0  0
 44 43  1  0  0  0  0
M  END
>  <minimizedAffinity>
-6.80260134

$$$$

 OpenBabel03242523403D

 44 49  0  0  1  0  0  0  0  0999 V2000
   35.8260   29.9010   40.6810 C   0  0  0  0  0  0  0  0  0  0  0  0
   36.7530   30.3540   39.7580 C   0  0  0  0  0  0  0  0  0  0  0  0
   37.6050   29.4250   39.2100 C   0  0  0  0  0  0  0  0  0  0  0  0
   37.4650   28.1270   39.6250 N   0  0  0  0  0  0  0  0  0  0  0  0
   36.5380   27.7210   40.5370 C   0  0  0  0  0  0  0  0  0  0  0  0
   35.7990   28.6370   40.9860 N   0  0  0  0  0  0  0  0  0  0  0  0
   35.1070   30.5450   41.1720 H   0  0  0  0  0  0  0  0  0  0  0  0
   36.6660   31.3920   39.6060 H   0  0  0  0  0  0  0  0  0  0  0  0
   36.8780   26.3440   40.5890 C   0  0  2  0  0  0  0  0  0  0  0  0
   36.8640   25.1120   40.9310 N   0  0  1  0  0  4  0  0  0  0  0  0
   37.3260   24.0460   40.4270 C   0  0  0  0  0  0  0  0  0  0  0  0
   38.3290   24.0570   41.3070 N   0  0  0  0  0  0  0  0  0  0  0  0
   38.5660   25.1920   42.0220 C   0  0  0  0  0  0  0  0  0  0  0  0
   39.5360   25.0970   43.0600 C   0  0  0  0  0  0  0  0  0  0  0  0
   39.7550   26.2070   43.8000 C   0  0  0  0  0  0  0  0  0  0  0  0
   39.1240   27.4020   43.6360 C   0  0  0  0  0  0  0  0  0  0  0  0
   38.2000   27.3760   42.5970 C   0  0  0  0  0  3  0  0  0  0  0  0
   37.8150   26.3680   41.7110 C   0  0  1  0  0  0  0  0  0  0  0  0
   37.6190   26.3280   39.6730 H   0  0  0  0  0  0  0  0  0  0  0  0
   36.0140   24.9030   41.5220 H   0  0  0  0  0  0  0  0  0  0  0  0
   37.6660   24.0450   39.3710 H   0  0  0  0  0  0  0  0  0  0  0  0
   36.7100   23.1020   40.5030 H   0  0  0  0  0  0  0  0  0  0  0  0
   38.8880   23.1600   41.3930 H   0  0  0  0  0  0  0  0  0  0  0  0
   40.0750   24.2020   43.2550 H   0  0  0  0  0  0  0  0  0  0  0  0
   40.5110   26.1170   44.5990 H   0  0  0  0  0  0  0  0  0  0  0  0
   39.3150   28.2470   44.2280 H   0  0  0  0  0  0  0  0  0  0  0  0
   37.7130   28.3390   42.5400 H   0  0  0  0  0  0  0  0  0  0  0  0
   38.8550   29.9170   37.9970 S   0  0  0  0  0  0  0  0  0  0  0  0
   38.9130   31.6770   37.7320 C   0  0  0  0  0  2  0  0  0  0  0  0
   40.1550   32.3330   38.1590 C   0  0  0  0  0  0  0  0  0  0  0  0
   40.4150   33.1350   39.1740 C   0  0  0  0  0  0  0  0  0  0  0  0
   41.6680   33.6950   39.4720 N   0  0  0  0  0  0  0  0  0  0  0  0
   42.6100   34.1690   40.4000 C   0  0  0  0  0  0  0  0  0  0  0  0
   42.5960   34.5930   41.6010 O   0  0  0  0  0  0  0  0  0  0  0  0
   43.7410   34.0100   39.4520 C   0  0  0  0  0  3  0  0  0  0  0  0
   44.4500   34.8610   39.3910 H   0  0  0  0  0  0  0  0  0  0  0  0
   42.6260   34.0270   38.4290 C   0  0  1  0  0  3  0  0  0  0  0  0
   42.8000   32.5330   37.3790 S   0  0  0  0  0  0  0  0  0  0  0  0
   41.1410   31.9030   37.1560 C   0  0  0  0  0  3  0  0  0  0  0  0
   40.7930   32.3010   36.1530 H   0  0  0  0  0  0  0  0  0  0  0  0
   39.3090   33.4950   40.0900 C   0  0  0  0  0  0  0  0  0  0  0  0
   39.1250   34.7230   40.3950 O   0  0  0  0  0  0  0  0  0  0  0  0
   38.2450   33.6360   40.9420 O   0  0  0  0  0  0  0  0  0  0  0  0
   37.2890   33.3730   40.6690 H   0  0  0  0  0  0  0  0  0  0  0  0
  1  6  1  0  0  0  0
  1  7  1  0  0  0  0
  2  1  2  0  0  0  0
  3  4  2  0  0  0  0
  3  2  1  0  0  0  0
  4  5  1  0  0  0  0
  5  9  1  0  0  0  0
  5  6  2  0  0  0  0
  8  2  1  0  0  0  0
  9 19  1  6  0  0  0
  9 10  1  0  0  0  0
  9 18  1  0  0  0  0
 10 20  1  1  0  0  0
 10 18  1  0  0  0  0
 11 22  1  0  0  0  0
 11 10  1  0  0  0  0
 11 12  1  0  0  0  0
 12 23  1  0  0  0  0
 12 13  1  0  0  0  0
 13 14  2  0  0  0  0
 14 24  1  0  0  0  0
 14 15  1  0  0  0  0
 15 25  1  0  0  0  0
 16 15  2  0  0  0  0
 16 26  1  0  0  0  0
 17 16  1  0  0  0  0
 18 13  1  6  0  0  0
 18 17  1  0  0  0  0
 21 11  1  0  0  0  0
 27 17  1  0  0  0  0
 28  3  1  0  0  0  0
 29 28  1  0  0  0  0
 29 30  1  0  0  0  0
 30 31  2  0  0  0  0
 31 32  1  0  0  0  0
 31 41  1  0  0  0  0
 32 33  1  0  0  0  0
 33 34  2  0  0  0  0
 35 33  1  0  0  0  0
 36 35  1  0  0  0  0
 37 38  1  6  0  0  0
 37 35  1  0  0  0  0
 37 32  1  0  0  0  0
 39 38  1  0  0  0  0
 39 30  1  0  0  0  0
 40 39  1  0  0  0  0
 41 42  2  0  0  0  0
 41 43  1  0  0  0  0
 44 43  1  0  0  0  0
M  END
>  <minimizedAffinity>
-6.7918129

$$$$

 OpenBabel03242523403D

 44 49  0  0  1  0  0  0  0  0999 V2000
   34.6800   28.4740   35.0200 C   0  0  0  0  0  0  0  0  0  0  0  0
   35.6680   28.5000   35.9890 C   0  0  0  0  0  0  0  0  0  0  0  0
   35.2910   28.8340   37.2670 C   0  0  0  0  0  0  0  0  0  0  0  0
   33.9670   29.1140   37.4750 N   0  0  0  0  0  0  0  0  0  0  0  0
   33.0230   29.0780   36.4930 C   0  0  0  0  0  0  0  0  0  0  0  0
   33.4560   28.7610   35.3530 N   0  0  0  0  0  0  0  0  0  0  0  0
   34.8660   28.2230   33.9830 H   0  0  0  0  0  0  0  0  0  0  0  0
   36.6080   28.2500   35.5840 H   0  0  0  0  0  0  0  0  0  0  0  0
   31.8980   29.4740   37.2620 C   0  0  2  0  0  0  0  0  0  0  0  0
   30.6990   29.5260   37.7040 N   0  0  1  0  0  4  0  0  0  0  0  0
   30.1570   30.0020   38.7450 C   0  0  0  0  0  0  0  0  0  0  0  0
   29.7180   31.0500   38.0450 N   0  0  0  0  0  0  0  0  0  0  0  0
   30.2360   31.2800   36.8070 C   0  0  2  0  0  3  0  0  0  0  0  0
   29.6180   32.3080   36.0410 C   0  0  0  0  0  0  0  0  0  0  0  0
   30.1010   32.5220   34.7960 C   0  0  0  0  0  0  0  0  0  0  0  0
   31.1250   31.8370   34.2180 C   0  0  0  0  0  0  0  0  0  0  0  0
   31.6500   30.8610   35.0570 C   0  0  0  0  0  0  0  0  0  0  0  0
   31.3230   30.4680   36.3570 C   0  0  1  0  0  0  0  0  0  0  0  0
   32.4650   30.1650   38.0300 H   0  0  0  0  0  0  0  0  0  0  0  0
   30.1310   28.7180   37.3280 H   0  0  0  0  0  0  0  0  0  0  0  0
   30.7920   30.2850   39.6100 H   0  0  0  0  0  0  0  0  0  0  0  0
   29.3090   29.4290   39.2210 H   0  0  0  0  0  0  0  0  0  0  0  0
   28.9760   31.6470   38.5110 H   0  0  0  0  0  0  0  0  0  0  0  0
   28.8120   32.8920   36.4170 H   0  0  0  0  0  0  0  0  0  0  0  0
   29.6100   33.3230   34.2160 H   0  0  0  0  0  0  0  0  0  0  0  0
   31.4770   32.0260   33.2480 H   0  0  0  0  0  0  0  0  0  0  0  0
   32.4330   30.3330   34.5310 H   0  0  0  0  0  0  0  0  0  0  0  0
   36.5090   28.8990   38.6040 S   0  0  0  0  0  0  0  0  0  0  0  0
   35.8540   28.3620   40.1700 C   0  0  0  0  0  2  0  0  0  0  0  0
   36.8570   27.9390   41.1550 C   0  0  0  0  0  0  0  0  0  0  0  0
   37.3410   26.7480   41.4530 C   0  0  0  0  0  0  0  0  0  0  0  0
   38.3150   26.4830   42.4300 N   0  0  0  0  0  0  0  0  0  0  0  0
   39.3970   25.7280   42.9090 C   0  0  0  0  0  0  0  0  0  0  0  0
   39.8800   24.5670   42.7040 O   0  0  0  0  0  0  0  0  0  0  0  0
   39.8510   26.8080   43.8200 C   0  0  0  0  0  3  0  0  0  0  0  0
   40.1150   26.4970   44.8520 H   0  0  0  0  0  0  0  0  0  0  0  0
   38.4280   27.2870   43.6370 C   0  0  1  0  0  3  0  0  0  0  0  0
   38.4870   29.0400   43.0990 S   0  0  0  0  0  0  0  0  0  0  0  0
   37.2510   29.1930   41.8150 C   0  0  0  0  0  3  0  0  0  0  0  0
   36.3270   29.6080   42.3250 H   0  0  0  0  0  0  0  0  0  0  0  0
   36.8270   25.5730   40.7140 C   0  0  0  0  0  0  0  0  0  0  0  0
   36.6710   24.4650   41.3320 O   0  0  0  0  0  0  0  0  0  0  0  0
   36.3450   24.6040   39.8730 O   0  0  0  0  0  0  0  0  0  0  0  0
   35.4280   24.6870   39.4150 H   0  0  0  0  0  0  0  0  0  0  0  0
  1  6  2  0  0  0  0
  1  2  1  0  0  0  0
  2  3  2  0  0  0  0
  3  4  1  0  0  0  0
  3 28  1  0  0  0  0
  5  9  1  0  0  0  0
  5  4  2  0  0  0  0
  6  5  1  0  0  0  0
  7  1  1  0  0  0  0
  8  2  1  0  0  0  0
  9 10  1  0  0  0  0
  9 19  1  1  0  0  0
 10 20  1  6  0  0  0
 10 11  1  0  0  0  0
 11 22  1  0  0  0  0
 11 21  1  0  0  0  0
 12 23  1  0  0  0  0
 12 11  1  0  0  0  0
 13 14  1  6  0  0  0
 13 12  1  0  0  0  0
 14 24  1  0  0  0  0
 15 14  2  0  0  0  0
 16 15  1  0  0  0  0
 16 17  2  0  0  0  0
 18 17  1  6  0  0  0
 18 13  1  0  0  0  0
 18  9  1  0  0  0  0
 18 10  1  0  0  0  0
 25 15  1  0  0  0  0
 26 16  1  0  0  0  0
 27 17  1  0  0  0  0
 28 29  1  0  0  0  0
 29 30  1  0  0  0  0
 30 31  2  0  0  0  0
 30 39  1  0  0  0  0
 31 32  1  0  0  0  0
 32 33  1  0  0  0  0
 32 37  1  0  0  0  0
 33 35  1  0  0  0  0
 34 33  2  0  0  0  0
 35 36  1  0  0  0  0
 37 38  1  6  0  0  0
 37 35  1  0  0  0  0
 39 40  1  0  0  0  0
 39 38  1  0  0  0  0
 41 42  2  0  0  0  0
 41 31  1  0  0  0  0
 43 41  1  0  0  0  0
 44 43  1  0  0  0  0
M  END
>  <minimizedAffinity>
-6.64621115

$$$$

 OpenBabel03242523403D

 44 49  0  0  1  0  0  0  0  0999 V2000
   38.6660   33.7770   40.0610 C   0  0  0  0  0  0  0  0  0  0  0  0
   39.8030   33.1200   40.4990 C   0  0  0  0  0  0  0  0  0  0  0  0
   39.6970   31.7730   40.7510 C   0  0  0  0  0  0  0  0  0  0  0  0
   38.4730   31.1940   40.5480 N   0  0  0  0  0  0  0  0  0  0  0  0
   37.3760   31.8770   40.1140 C   0  0  0  0  0  0  0  0  0  0  0  0
   37.5640   33.1050   39.9070 N   0  0  0  0  0  0  0  0  0  0  0  0
   38.6380   34.8350   39.8320 H   0  0  0  0  0  0  0  0  0  0  0  0
   40.6190   33.7800   40.5810 H   0  0  0  0  0  0  0  0  0  0  0  0
   36.4420   30.8080   40.1240 C   0  0  2  0  0  0  0  0  0  0  0  0
   35.9710   29.6200   40.1790 N   0  0  1  0  0  4  0  0  0  0  0  0
   34.8230   29.1290   40.3890 C   0  0  0  0  0  0  0  0  0  0  0  0
   34.6740   28.8990   39.0830 N   0  0  0  0  0  0  0  0  0  0  0  0
   35.5320   29.4940   38.2070 C   0  0  2  0  0  3  0  0  0  0  0  0
   35.4330   29.0860   36.8470 C   0  0  0  0  0  0  0  0  0  0  0  0
   36.3030   29.6430   35.9740 C   0  0  0  0  0  0  0  0  0  0  0  0
   37.2610   30.5560   36.2890 C   0  0  0  0  0  0  0  0  0  0  0  0
   37.2640   30.8780   37.6410 C   0  0  0  0  0  0  0  0  0  0  0  0
   36.4750   30.4430   38.7090 C   0  0  1  0  0  0  0  0  0  0  0  0
   35.4580   31.4550   40.1700 H   0  0  0  0  0  0  0  0  0  0  0  0
   36.7230   28.9380   40.4700 H   0  0  0  0  0  0  0  0  0  0  0  0
   34.0250   29.7720   40.8170 H   0  0  0  0  0  0  0  0  0  0  0  0
   34.7450   28.1800   40.9950 H   0  0  0  0  0  0  0  0  0  0  0  0
   33.8800   28.2530   38.8080 H   0  0  0  0  0  0  0  0  0  0  0  0
   34.7120   28.3780   36.5160 H   0  0  0  0  0  0  0  0  0  0  0  0
   36.2120   29.3160   34.9230 H   0  0  0  0  0  0  0  0  0  0  0  0
   37.9230   30.9700   35.5880 H   0  0  0  0  0  0  0  0  0  0  0  0
   38.0640   31.5790   37.8320 H   0  0  0  0  0  0  0  0  0  0  0  0
   41.1250   30.8240   41.3310 S   0  0  0  0  0  0  0  0  0  0  0  0
   40.8580   30.0630   42.9170 C   0  0  0  0  0  2  0  0  0  0  0  0
   40.5740   28.6230   42.8790 C   0  0  0  0  0  0  0  0  0  0  0  0
   39.4390   27.9540   42.9530 C   0  0  0  0  0  0  0  0  0  0  0  0
   39.3090   26.5560   42.8980 N   0  0  0  0  0  0  0  0  0  0  0  0
   38.5840   25.4050   42.5500 C   0  0  0  0  0  0  0  0  0  0  0  0
   37.3700   25.1140   42.3010 O   0  0  0  0  0  0  0  0  0  0  0  0
   39.7940   24.5440   42.5630 C   0  0  0  0  0  3  0  0  0  0  0  0
   39.6930   23.5690   43.0830 H   0  0  0  0  0  0  0  0  0  0  0  0
   40.3430   25.6700   43.4110 C   0  0  1  0  0  3  0  0  0  0  0  0
   41.9250   26.2190   42.6630 S   0  0  0  0  0  0  0  0  0  0  0  0
   41.9020   28.0060   42.7420 C   0  0  0  0  0  3  0  0  0  0  0  0
   42.4960   28.2810   43.6680 H   0  0  0  0  0  0  0  0  0  0  0  0
   38.1800   28.7160   43.1130 C   0  0  0  0  0  0  0  0  0  0  0  0
   37.3430   28.3600   44.0110 O   0  0  0  0  0  0  0  0  0  0  0  0
   37.0810   29.5360   43.1130 O   0  0  0  0  0  0  0  0  0  0  0  0
   37.1500   30.5400   43.3190 H   0  0  0  0  0  0  0  0  0  0  0  0
  1  2  1  0  0  0  0
  2  8  1  0  0  0  0
  2  3  2  0  0  0  0
  3 28  1  0  0  0  0
  4  3  1  0  0  0  0
  5  9  1  0  0  0  0
  5  4  2  0  0  0  0
  6  1  2  0  0  0  0
  6  5  1  0  0  0  0
  7  1  1  0  0  0  0
  9 19  1  1  0  0  0
  9 10  1  0  0  0  0
 10 11  1  0  0  0  0
 10 20  1  1  0  0  0
 11 21  1  0  0  0  0
 11 22  1  0  0  0  0
 12 11  1  0  0  0  0
 13 14  1  1  0  0  0
 13 18  1  0  0  0  0
 13 12  1  0  0  0  0
 15 16  1  0  0  0  0
 15 14  2  0  0  0  0
 16 17  2  0  0  0  0
 17 27  1  0  0  0  0
 18 17  1  6  0  0  0
 18  9  1  0  0  0  0
 18 10  1  0  0  0  0
 23 12  1  0  0  0  0
 24 14  1  0  0  0  0
 25 15  1  0  0  0  0
 26 16  1  0  0  0  0
 28 29  1  0  0  0  0
 30 29  1  0  0  0  0
 30 31  2  0  0  0  0
 31 41  1  0  0  0  0
 32 31  1  0  0  0  0
 32 37  1  0  0  0  0
 33 35  1  0  0  0  0
 33 32  1  0  0  0  0
 34 33  2  0  0  0  0
 35 36  1  0  0  0  0
 37 35  1  6  0  0  0
 38 39  1  0  0  0  0
 38 37  1  0  0  0  0
 39 30  1  0  0  0  0
 39 40  1  0  0  0  0
 41 43  1  0  0  0  0
 41 42  2  0  0  0  0
 43 44  1  0  0  0  0
M  END
>  <minimizedAffinity>
-6.56291008

$$$$

 OpenBabel03242523403D

 44 49  0  0  1  0  0  0  0  0999 V2000
   39.8790   28.2120   36.8280 C   0  0  0  0  0  0  0  0  0  0  0  0
   38.5260   28.2290   36.5330 C   0  0  0  0  0  0  0  0  0  0  0  0
   37.7830   29.2700   37.0370 C   0  0  0  0  0  0  0  0  0  0  0  0
   38.4440   30.2040   37.7890 N   0  0  0  0  0  0  0  0  0  0  0  0
   39.7790   30.1510   38.0570 C   0  0  0  0  0  0  0  0  0  0  0  0
   40.3820   29.1650   37.5550 N   0  0  0  0  0  0  0  0  0  0  0  0
   40.5560   27.4410   36.4820 H   0  0  0  0  0  0  0  0  0  0  0  0
   38.2520   27.4020   35.9410 H   0  0  0  0  0  0  0  0  0  0  0  0
   39.8800   31.3100   38.8680 C   0  0  2  0  0  0  0  0  0  0  0  0
   40.3960   32.2670   39.5440 N   0  0  1  0  0  4  0  0  0  0  0  0
   39.9630   33.3700   39.9930 C   0  0  0  0  0  0  0  0  0  0  0  0
   39.8660   32.8430   41.2150 N   0  0  0  0  0  0  0  0  0  0  0  0
   39.9430   31.4900   41.3570 C   0  0  2  0  0  3  0  0  0  0  0  0
   39.9990   30.9950   42.6910 C   0  0  0  0  0  0  0  0  0  0  0  0
   40.1110   29.6570   42.8450 C   0  0  0  0  0  0  0  0  0  0  0  0
   40.1750   28.7480   41.8340 C   0  0  0  0  0  0  0  0  0  0  0  0
   40.1110   29.3450   40.5800 C   0  0  0  0  0  0  0  0  0  0  0  0
   39.9930   30.6780   40.1820 C   0  0  1  0  0  0  0  0  0  0  0  0
   38.7420   31.6140   38.8580 H   0  0  0  0  0  0  0  0  0  0  0  0
   41.4370   32.3190   39.3760 H   0  0  0  0  0  0  0  0  0  0  0  0
   39.0040   33.7750   39.6100 H   0  0  0  0  0  0  0  0  0  0  0  0
   40.6510   34.2650   39.9730 H   0  0  0  0  0  0  0  0  0  0  0  0
   39.7340   33.5290   42.0120 H   0  0  0  0  0  0  0  0  0  0  0  0
   39.9550   31.6360   43.5380 H   0  0  0  0  0  0  0  0  0  0  0  0
   40.1520   29.2890   43.8860 H   0  0  0  0  0  0  0  0  0  0  0  0
   40.2620   27.7130   41.9860 H   0  0  0  0  0  0  0  0  0  0  0  0
   40.1990   28.5780   39.8230 H   0  0  0  0  0  0  0  0  0  0  0  0
   36.0060   29.3810   36.7110 S   0  0  0  0  0  0  0  0  0  0  0  0
   35.0110   28.9620   38.1260 C   0  0  0  0  0  2  0  0  0  0  0  0
   35.6730   28.1180   39.1280 C   0  0  0  0  0  0  0  0  0  0  0  0
   36.0980   28.3810   40.3490 C   0  0  0  0  0  0  0  0  0  0  0  0
   36.7200   27.4650   41.2140 N   0  0  0  0  0  0  0  0  0  0  0  0
   36.9880   26.9860   42.5060 C   0  0  0  0  0  0  0  0  0  0  0  0
   36.9530   27.4490   43.6920 O   0  0  0  0  0  0  0  0  0  0  0  0
   37.3640   25.6360   42.0140 C   0  0  0  0  0  3  0  0  0  0  0  0
   38.2880   25.2000   42.4460 H   0  0  0  0  0  0  0  0  0  0  0  0
   37.5520   26.3820   40.7120 C   0  0  1  0  0  3  0  0  0  0  0  0
   36.5750   25.5200   39.4210 S   0  0  0  0  0  0  0  0  0  0  0  0
   35.7960   26.8120   38.4610 C   0  0  0  0  0  3  0  0  0  0  0  0
   36.4570   26.9620   37.5520 H   0  0  0  0  0  0  0  0  0  0  0  0
   35.9230   29.7530   40.8770 C   0  0  0  0  0  0  0  0  0  0  0  0
   36.7800   30.2190   41.7040 O   0  0  0  0  0  0  0  0  0  0  0  0
   35.5990   31.0310   41.2520 O   0  0  0  0  0  0  0  0  0  0  0  0
   35.5600   31.8050   40.5770 H   0  0  0  0  0  0  0  0  0  0  0  0
  1  6  1  0  0  0  0
  2  1  2  0  0  0  0
  2  3  1  0  0  0  0
  3  4  2  0  0  0  0
  4  5  1  0  0  0  0
  5  9  1  0  0  0  0
  6  5  2  0  0  0  0
  7  1  1  0  0  0  0
  8  2  1  0  0  0  0
  9 19  1  1  0  0  0
  9 10  1  0  0  0  0
  9 18  1  0  0  0  0
 10 20  1  6  0  0  0
 10 11  1  0  0  0  0
 10 18  1  0  0  0  0
 11 12  1  0  0  0  0
 12 13  1  0  0  0  0
 12 23  1  0  0  0  0
 13 14  1  1  0  0  0
 14 15  2  0  0  0  0
 14 24  1  0  0  0  0
 15 25  1  0  0  0  0
 16 26  1  0  0  0  0
 16 15  1  0  0  0  0
 17 16  2  0  0  0  0
 18 17  1  1  0  0  0
 18 13  1  0  0  0  0
 21 11  1  0  0  0  0
 22 11  1  0  0  0  0
 27 17  1  0  0  0  0
 28  3  1  0  0  0  0
 28 29  1  0  0  0  0
 29 30  1  0  0  0  0
 30 31  2  0  0  0  0
 31 41  1  0  0  0  0
 31 32  1  0  0  0  0
 32 33  1  0  0  0  0
 33 34  2  0  0  0  0
 35 36  1  0  0  0  0
 35 33  1  0  0  0  0
 37 38  1  6  0  0  0
 37 32  1  0  0  0  0
 37 35  1  0  0  0  0
 39 30  1  0  0  0  0
 39 38  1  0  0  0  0
 40 39  1  0  0  0  0
 41 43  1  0  0  0  0
 41 42  2  0  0  0  0
 44 43  1  0  0  0  0
M  END
>  <minimizedAffinity>
-6.55231142

$$$$

 OpenBabel03242523403D

 44 49  0  0  1  0  0  0  0  0999 V2000
   32.7330   26.6010   35.3920 C   0  0  0  0  0  0  0  0  0  0  0  0
   34.0230   26.8720   35.8170 C   0  0  0  0  0  0  0  0  0  0  0  0
   34.4180   28.1880   35.8370 C   0  0  0  0  0  0  0  0  0  0  0  0
   33.5010   29.1220   35.4330 N   0  0  0  0  0  0  0  0  0  0  0  0
   32.2390   28.8140   35.0220 C   0  0  0  0  0  0  0  0  0  0  0  0
   31.9620   27.5860   35.0370 N   0  0  0  0  0  0  0  0  0  0  0  0
   32.3190   25.6020   35.3390 H   0  0  0  0  0  0  0  0  0  0  0  0
   34.5350   25.9880   36.0710 H   0  0  0  0  0  0  0  0  0  0  0  0
   31.7900   30.1240   34.7130 C   0  0  2  0  0  0  0  0  0  0  0  0
   31.7670   31.4000   34.6230 N   0  0  1  0  0  4  0  0  0  0  0  0
   31.0970   32.2300   33.9400 C   0  0  0  0  0  0  0  0  0  0  0  0
   30.3390   32.5040   35.0030 N   0  0  0  0  0  0  0  0  0  0  0  0
   30.3900   31.6740   36.0810 C   0  0  0  0  0  0  0  0  0  0  0  0
   29.6910   32.1010   37.2450 C   0  0  0  0  0  0  0  0  0  0  0  0
   29.7640   31.3020   38.3330 C   0  0  0  0  0  0  0  0  0  0  0  0
   30.4500   30.1290   38.4070 C   0  0  0  0  0  0  0  0  0  0  0  0
   31.0910   29.8140   37.2150 C   0  0  0  0  0  3  0  0  0  0  0  0
   31.1550   30.4700   35.9840 C   0  0  1  0  0  0  0  0  0  0  0  0
   30.8530   29.8240   34.0640 H   0  0  0  0  0  0  0  0  0  0  0  0
   32.7090   31.8050   34.8760 H   0  0  0  0  0  0  0  0  0  0  0  0
   30.5160   31.8720   33.0640 H   0  0  0  0  0  0  0  0  0  0  0  0
   31.6190   33.1500   33.5460 H   0  0  0  0  0  0  0  0  0  0  0  0
   29.7330   33.3720   34.9360 H   0  0  0  0  0  0  0  0  0  0  0  0
   29.1300   33.0040   37.2730 H   0  0  0  0  0  0  0  0  0  0  0  0
   29.2150   31.6480   39.2270 H   0  0  0  0  0  0  0  0  0  0  0  0
   30.4880   29.5310   39.2680 H   0  0  0  0  0  0  0  0  0  0  0  0
   31.6420   28.8930   37.3480 H   0  0  0  0  0  0  0  0  0  0  0  0
   36.0850   28.6460   36.3720 S   0  0  0  0  0  0  0  0  0  0  0  0
   36.1190   29.3780   37.9940 C   0  0  0  0  0  2  0  0  0  0  0  0
   36.4700   28.4610   39.0870 C   0  0  0  0  0  0  0  0  0  0  0  0
   36.4890   28.6290   40.3950 C   0  0  0  0  0  0  0  0  0  0  0  0
   36.8460   27.6520   41.3390 N   0  0  0  0  0  0  0  0  0  0  0  0
   36.7210   27.0720   42.6110 C   0  0  0  0  0  0  0  0  0  0  0  0
   36.3060   27.4370   43.7590 O   0  0  0  0  0  0  0  0  0  0  0  0
   37.2780   25.7720   42.1620 C   0  0  0  0  0  3  0  0  0  0  0  0
   38.0400   25.3120   42.8250 H   0  0  0  0  0  0  0  0  0  0  0  0
   37.8320   26.6230   41.0410 C   0  0  1  0  0  3  0  0  0  0  0  0
   37.3310   25.8590   39.4510 S   0  0  0  0  0  0  0  0  0  0  0  0
   36.8390   27.2170   38.3950 C   0  0  0  0  0  3  0  0  0  0  0  0
   37.7420   27.4480   37.7500 H   0  0  0  0  0  0  0  0  0  0  0  0
   36.1110   29.9510   40.9430 C   0  0  0  0  0  0  0  0  0  0  0  0
   37.0130   30.8420   41.1060 O   0  0  0  0  0  0  0  0  0  0  0  0
   35.5760   31.1050   41.4560 O   0  0  0  0  0  0  0  0  0  0  0  0
   34.8710   31.6520   40.9460 H   0  0  0  0  0  0  0  0  0  0  0  0
  1  2  1  0  0  0  0
  2  3  2  0  0  0  0
  2  8  1  0  0  0  0
  3 28  1  0  0  0  0
  4  3  1  0  0  0  0
  5  6  1  0  0  0  0
  5  4  2  0  0  0  0
  6  1  2  0  0  0  0
  7  1  1  0  0  0  0
  9 19  1  6  0  0  0
  9  5  1  0  0  0  0
  9 18  1  0  0  0  0
 10  9  1  0  0  0  0
 10 20  1  1  0  0  0
 10 18  1  0  0  0  0
 11 10  1  0  0  0  0
 11 12  1  0  0  0  0
 12 13  1  0  0  0  0
 13 14  2  0  0  0  0
 14 24  1  0  0  0  0
 14 15  1  0  0  0  0
 15 16  2  0  0  0  0
 15 25  1  0  0  0  0
 16 26  1  0  0  0  0
 17 27  1  0  0  0  0
 17 16  1  0  0  0  0
 18 13  1  6  0  0  0
 18 17  1  0  0  0  0
 21 11  1  0  0  0  0
 22 11  1  0  0  0  0
 23 12  1  0  0  0  0
 28 29  1  0  0  0  0
 29 30  1  0  0  0  0
 30 31  2  0  0  0  0
 31 41  1  0  0  0  0
 31 32  1  0  0  0  0
 32 33  1  0  0  0  0
 33 34  2  0  0  0  0
 35 33  1  0  0  0  0
 35 36  1  0  0  0  0
 37 38  1  6  0  0  0
 37 32  1  0  0  0  0
 37 35  1  0  0  0  0
 39 30  1  0  0  0  0
 39 38  1  0  0  0  0
 40 39  1  0  0  0  0
 41 42  2  0  0  0  0
 41 43  1  0  0  0  0
 44 43  1  0  0  0  0
M  END
>  <minimizedAffinity>
-6.55196571

$$$$

 OpenBabel03242523403D

 44 49  0  0  1  0  0  0  0  0999 V2000
   36.0500   29.4840   40.6940 C   0  0  0  0  0  0  0  0  0  0  0  0
   36.6960   29.7250   39.4930 C   0  0  0  0  0  0  0  0  0  0  0  0
   37.3390   28.6650   38.8980 C   0  0  0  0  0  0  0  0  0  0  0  0
   37.2860   27.4590   39.5450 N   0  0  0  0  0  0  0  0  0  0  0  0
   36.6380   27.2630   40.7270 C   0  0  0  0  0  0  0  0  0  0  0  0
   36.0760   28.2870   41.2000 N   0  0  0  0  0  0  0  0  0  0  0  0
   35.5120   30.2450   41.2460 H   0  0  0  0  0  0  0  0  0  0  0  0
   36.5970   30.7310   39.2000 H   0  0  0  0  0  0  0  0  0  0  0  0
   36.9440   25.8900   40.9130 C   0  0  2  0  0  0  0  0  0  0  0  0
   36.9260   24.7070   41.3990 N   0  0  1  0  0  4  0  0  0  0  0  0
   37.3130   23.5730   40.9890 C   0  0  0  0  0  0  0  0  0  0  0  0
   38.3890   23.6490   41.7730 N   0  0  0  0  0  0  0  0  0  0  0  0
   38.7190   24.8490   42.3270 C   0  0  0  0  0  0  0  0  0  0  0  0
   39.7740   24.8390   43.2820 C   0  0  0  0  0  0  0  0  0  0  0  0
   40.0860   26.0190   43.8640 C   0  0  0  0  0  0  0  0  0  0  0  0
   39.4760   27.2090   43.6130 C   0  0  0  0  0  0  0  0  0  0  0  0
   38.4650   27.0980   42.6670 C   0  0  0  0  0  3  0  0  0  0  0  0
   37.9760   26.0080   41.9420 C   0  0  1  0  0  0  0  0  0  0  0  0
   37.6010   25.7400   39.9470 H   0  0  0  0  0  0  0  0  0  0  0  0
   36.1260   24.6000   42.0810 H   0  0  0  0  0  0  0  0  0  0  0  0
   37.5590   23.4370   39.9150 H   0  0  0  0  0  0  0  0  0  0  0  0
   36.6800   22.6690   41.2270 H   0  0  0  0  0  0  0  0  0  0  0  0
   38.9280   22.7480   41.9180 H   0  0  0  0  0  0  0  0  0  0  0  0
   40.3030   23.9520   43.5360 H   0  0  0  0  0  0  0  0  0  0  0  0
   40.9070   25.9930   44.6030 H   0  0  0  0  0  0  0  0  0  0  0  0
   39.7420   28.1090   44.0830 H   0  0  0  0  0  0  0  0  0  0  0  0
   38.0000   28.0650   42.5360 H   0  0  0  0  0  0  0  0  0  0  0  0
   38.2150   28.8780   37.3290 S   0  0  0  0  0  0  0  0  0  0  0  0
   39.9840   28.7860   37.5020 C   0  0  0  0  0  2  0  0  0  0  0  0
   40.5460   29.5660   38.6120 C   0  0  0  0  0  0  0  0  0  0  0  0
   40.7320   30.8640   38.7620 C   0  0  0  0  0  0  0  0  0  0  0  0
   41.2830   31.4850   39.8950 N   0  0  0  0  0  0  0  0  0  0  0  0
   41.3740   32.5770   40.7720 C   0  0  0  0  0  0  0  0  0  0  0  0
   41.0960   33.8190   40.7370 O   0  0  0  0  0  0  0  0  0  0  0  0
   41.9540   31.7550   41.8630 C   0  0  0  0  0  3  0  0  0  0  0  0
   42.8300   32.1890   42.3890 H   0  0  0  0  0  0  0  0  0  0  0  0
   42.2880   30.8270   40.7160 C   0  0  1  0  0  3  0  0  0  0  0  0
   41.6290   29.1650   41.1250 S   0  0  0  0  0  0  0  0  0  0  0  0
   40.9030   28.5470   39.6110 C   0  0  0  0  0  3  0  0  0  0  0  0
   41.6900   27.8800   39.1420 H   0  0  0  0  0  0  0  0  0  0  0  0
   40.3400   31.7650   37.6550 C   0  0  0  0  0  0  0  0  0  0  0  0
   41.1170   32.7260   37.3270 O   0  0  0  0  0  0  0  0  0  0  0  0
   39.8160   32.4880   36.6150 O   0  0  0  0  0  0  0  0  0  0  0  0
   39.6460   32.0690   35.6920 H   0  0  0  0  0  0  0  0  0  0  0  0
  1  6  1  0  0  0  0
  1  7  1  0  0  0  0
  2  1  2  0  0  0  0
  3  2  1  0  0  0  0
  3  4  2  0  0  0  0
  4  5  1  0  0  0  0
  5  9  1  0  0  0  0
  5  6  2  0  0  0  0
  8  2  1  0  0  0  0
  9 19  1  6  0  0  0
  9 10  1  0  0  0  0
  9 18  1  0  0  0  0
 10 18  1  0  0  0  0
 10 20  1  1  0  0  0
 11 22  1  0  0  0  0
 11 10  1  0  0  0  0
 11 12  1  0  0  0  0
 12 23  1  0  0  0  0
 12 13  1  0  0  0  0
 13 14  2  0  0  0  0
 14 24  1  0  0  0  0
 14 15  1  0  0  0  0
 15 25  1  0  0  0  0
 16 15  2  0  0  0  0
 16 26  1  0  0  0  0
 17 16  1  0  0  0  0
 18 13  1  6  0  0  0
 18 17  1  0  0  0  0
 21 11  1  0  0  0  0
 27 17  1  0  0  0  0
 28 29  1  0  0  0  0
 28  3  1  0  0  0  0
 29 30  1  0  0  0  0
 30 31  2  0  0  0  0
 30 39  1  0  0  0  0
 31 32  1  0  0  0  0
 32 37  1  0  0  0  0
 32 33  1  0  0  0  0
 33 35  1  0  0  0  0
 34 33  2  0  0  0  0
 35 36  1  0  0  0  0
 37 38  1  1  0  0  0
 37 35  1  0  0  0  0
 39 38  1  0  0  0  0
 40 39  1  0  0  0  0
 41 31  1  0  0  0  0
 42 41  2  0  0  0  0
 43 41  1  0  0  0  0
 44 43  1  0  0  0  0
M  END
>  <minimizedAffinity>
-6.51996374

$$$$

 OpenBabel03242523403D

 44 49  0  0  1  0  0  0  0  0999 V2000
   36.5100   29.5540   41.3050 C   0  0  0  0  0  0  0  0  0  0  0  0
   37.5380   30.4780   41.3700 C   0  0  0  0  0  0  0  0  0  0  0  0
   38.7770   30.0200   41.7500 C   0  0  0  0  0  0  0  0  0  0  0  0
   38.8900   28.6850   42.0330 N   0  0  0  0  0  0  0  0  0  0  0  0
   37.8510   27.8060   41.9570 C   0  0  0  0  0  0  0  0  0  0  0  0
   36.7540   28.3110   41.6000 N   0  0  0  0  0  0  0  0  0  0  0  0
   35.4970   29.8060   41.0170 H   0  0  0  0  0  0  0  0  0  0  0  0
   37.2040   31.4420   41.1090 H   0  0  0  0  0  0  0  0  0  0  0  0
   38.5320   26.6340   42.3780 C   0  0  2  0  0  0  0  0  0  0  0  0
   39.3970   25.6920   42.4180 N   0  0  1  0  0  4  0  0  0  0  0  0
   39.7410   24.8400   43.2900 C   0  0  0  0  0  0  0  0  0  0  0  0
   39.0550   23.8940   42.6470 N   0  0  0  0  0  0  0  0  0  0  0  0
   38.1650   24.2640   41.6840 C   0  0  2  0  0  3  0  0  0  0  0  0
   37.5850   23.2140   40.9180 C   0  0  0  0  0  0  0  0  0  0  0  0
   36.7260   23.5710   39.9370 C   0  0  0  0  0  0  0  0  0  0  0  0
   36.3740   24.8470   39.6220 C   0  0  0  0  0  0  0  0  0  0  0  0
   37.0000   25.7860   40.4330 C   0  0  0  0  0  0  0  0  0  0  0  0
   37.9030   25.6560   41.4910 C   0  0  1  0  0  0  0  0  0  0  0  0
   37.9360   26.4520   43.3780 H   0  0  0  0  0  0  0  0  0  0  0  0
   40.2030   25.9030   41.7690 H   0  0  0  0  0  0  0  0  0  0  0  0
   39.4190   24.9780   44.3440 H   0  0  0  0  0  0  0  0  0  0  0  0
   40.8350   24.5770   43.3850 H   0  0  0  0  0  0  0  0  0  0  0  0
   39.2540   22.8930   42.9330 H   0  0  0  0  0  0  0  0  0  0  0  0
   37.8050   22.1890   41.0990 H   0  0  0  0  0  0  0  0  0  0  0  0
   36.2850   22.7440   39.3530 H   0  0  0  0  0  0  0  0  0  0  0  0
   35.7040   25.0930   38.8520 H   0  0  0  0  0  0  0  0  0  0  0  0
   36.7060   26.7760   40.1130 H   0  0  0  0  0  0  0  0  0  0  0  0
   40.1860   31.1500   41.8680 S   0  0  0  0  0  0  0  0  0  0  0  0
   40.0190   32.5820   40.8240 C   0  0  0  0  0  2  0  0  0  0  0  0
   41.1380   32.8170   39.9020 C   0  0  0  0  0  0  0  0  0  0  0  0
   42.2960   33.4260   40.0720 C   0  0  0  0  0  0  0  0  0  0  0  0
   43.2910   33.5770   39.0910 N   0  0  0  0  0  0  0  0  0  0  0  0
   44.6410   33.6840   38.7200 C   0  0  0  0  0  0  0  0  0  0  0  0
   45.7360   33.9950   39.2900 O   0  0  0  0  0  0  0  0  0  0  0  0
   44.3690   33.2840   37.3170 C   0  0  0  0  0  3  0  0  0  0  0  0
   44.8560   33.8990   36.5310 H   0  0  0  0  0  0  0  0  0  0  0  0
   42.9620   33.7030   37.6800 C   0  0  1  0  0  3  0  0  0  0  0  0
   41.8360   32.3130   37.2750 S   0  0  0  0  0  0  0  0  0  0  0  0
   40.6890   32.2060   38.6420 C   0  0  0  0  0  3  0  0  0  0  0  0
   39.7610   32.7670   38.3110 H   0  0  0  0  0  0  0  0  0  0  0  0
   42.5980   34.0130   41.3970 C   0  0  0  0  0  0  0  0  0  0  0  0
   43.2420   33.3190   42.2560 O   0  0  0  0  0  0  0  0  0  0  0  0
   42.7840   34.7180   42.5580 O   0  0  0  0  0  0  0  0  0  0  0  0
   43.3280   35.5900   42.5850 H   0  0  0  0  0  0  0  0  0  0  0  0
  1  2  2  0  0  0  0
  1  6  1  0  0  0  0
  2  3  1  0  0  0  0
  3 28  1  0  0  0  0
  3  4  2  0  0  0  0
  5  4  1  0  0  0  0
  5  9  1  0  0  0  0
  6  5  2  0  0  0  0
  7  1  1  0  0  0  0
  8  2  1  0  0  0  0
  9 10  1  0  0  0  0
  9 19  1  1  0  0  0
 10 20  1  6  0  0  0
 10 11  1  0  0  0  0
 11 22  1  0  0  0  0
 11 21  1  0  0  0  0
 12 23  1  0  0  0  0
 12 11  1  0  0  0  0
 13 14  1  6  0  0  0
 13 12  1  0  0  0  0
 14 24  1  0  0  0  0
 15 14  2  0  0  0  0
 16 15  1  0  0  0  0
 16 17  2  0  0  0  0
 18 17  1  6  0  0  0
 18 13  1  0  0  0  0
 18  9  1  0  0  0  0
 18 10  1  0  0  0  0
 25 15  1  0  0  0  0
 26 16  1  0  0  0  0
 27 17  1  0  0  0  0
 29 28  1  0  0  0  0
 30 31  2  0  0  0  0
 30 29  1  0  0  0  0
 31 41  1  0  0  0  0
 32 31  1  0  0  0  0
 33 32  1  0  0  0  0
 33 34  2  0  0  0  0
 35 37  1  0  0  0  0
 35 33  1  0  0  0  0
 36 35  1  0  0  0  0
 37 38  1  6  0  0  0
 37 32  1  0  0  0  0
 38 39  1  0  0  0  0
 39 30  1  0  0  0  0
 40 39  1  0  0  0  0
 41 42  2  0  0  0  0
 41 43  1  0  0  0  0
 43 44  1  0  0  0  0
M  END
>  <minimizedAffinity>
-6.51629734

$$$$

 OpenBabel03242523403D

 44 49  0  0  1  0  0  0  0  0999 V2000
   36.9250   31.2280   38.7020 C   0  0  0  0  0  0  0  0  0  0  0  0
   37.5270   32.4220   39.0600 C   0  0  0  0  0  0  0  0  0  0  0  0
   38.0230   32.5220   40.3380 C   0  0  0  0  0  0  0  0  0  0  0  0
   37.8780   31.4300   41.1510 N   0  0  0  0  0  0  0  0  0  0  0  0
   37.2770   30.2710   40.7610 C   0  0  0  0  0  0  0  0  0  0  0  0
   36.8540   30.2670   39.5740 N   0  0  0  0  0  0  0  0  0  0  0  0
   36.5020   31.0420   37.7220 H   0  0  0  0  0  0  0  0  0  0  0  0
   37.5150   33.1110   38.2630 H   0  0  0  0  0  0  0  0  0  0  0  0
   37.3880   29.5520   41.9790 C   0  0  2  0  0  0  0  0  0  0  0  0
   37.7630   29.2330   43.1600 N   0  0  1  0  0  4  0  0  0  0  0  0
   37.3180   28.4520   44.0520 C   0  0  0  0  0  0  0  0  0  0  0  0
   38.2540   27.5530   43.7410 N   0  0  0  0  0  0  0  0  0  0  0  0
   38.9490   27.6990   42.5800 C   0  0  2  0  0  3  0  0  0  0  0  0
   40.0430   26.8110   42.3780 C   0  0  0  0  0  0  0  0  0  0  0  0
   40.7630   26.9700   41.2450 C   0  0  0  0  0  0  0  0  0  0  0  0
   40.5290   27.9070   40.2860 C   0  0  0  0  0  0  0  0  0  0  0  0
   39.4400   28.7150   40.5890 C   0  0  0  0  0  0  0  0  0  0  0  0
   38.5620   28.7360   41.6750 C   0  0  1  0  0  0  0  0  0  0  0  0
   36.5180   28.7810   41.7900 H   0  0  0  0  0  0  0  0  0  0  0  0
   38.3100   30.0230   43.6000 H   0  0  0  0  0  0  0  0  0  0  0  0
   36.2830   28.0590   43.9650 H   0  0  0  0  0  0  0  0  0  0  0  0
   37.3840   28.7730   45.1320 H   0  0  0  0  0  0  0  0  0  0  0  0
   38.3980   26.7660   44.4370 H   0  0  0  0  0  0  0  0  0  0  0  0
   40.2950   26.0510   43.0780 H   0  0  0  0  0  0  0  0  0  0  0  0
   41.6080   26.2720   41.1050 H   0  0  0  0  0  0  0  0  0  0  0  0
   41.1070   28.0050   39.4160 H   0  0  0  0  0  0  0  0  0  0  0  0
   39.3270   29.4550   39.8090 H   0  0  0  0  0  0  0  0  0  0  0  0
   38.8260   34.0420   40.9030 S   0  0  0  0  0  0  0  0  0  0  0  0
   39.9500   34.7230   39.7030 C   0  0  0  0  0  2  0  0  0  0  0  0
   41.2620   34.0680   39.6320 C   0  0  0  0  0  0  0  0  0  0  0  0
   41.7430   33.1630   38.8010 C   0  0  0  0  0  0  0  0  0  0  0  0
   43.0370   32.6170   38.8460 N   0  0  0  0  0  0  0  0  0  0  0  0
   44.1610   32.0730   38.2050 C   0  0  0  0  0  0  0  0  0  0  0  0
   44.4100   31.5120   37.0890 O   0  0  0  0  0  0  0  0  0  0  0  0
   45.0600   32.3830   39.3450 C   0  0  0  0  0  3  0  0  0  0  0  0
   45.7490   31.5710   39.6580 H   0  0  0  0  0  0  0  0  0  0  0  0
   43.7520   32.4450   40.1020 C   0  0  1  0  0  3  0  0  0  0  0  0
   43.6800   34.0560   40.9750 S   0  0  0  0  0  0  0  0  0  0  0  0
   42.0050   34.6470   40.7620 C   0  0  0  0  0  3  0  0  0  0  0  0
   41.4530   34.3560   41.7090 H   0  0  0  0  0  0  0  0  0  0  0  0
   40.8640   32.6580   37.7230 C   0  0  0  0  0  0  0  0  0  0  0  0
   40.6110   31.4060   37.6560 O   0  0  0  0  0  0  0  0  0  0  0  0
   40.0360   32.3780   36.6660 O   0  0  0  0  0  0  0  0  0  0  0  0
   39.0830   32.7590   36.6050 H   0  0  0  0  0  0  0  0  0  0  0  0
  1  2  2  0  0  0  0
  1  6  1  0  0  0  0
  2  3  1  0  0  0  0
  3 28  1  0  0  0  0
  3  4  2  0  0  0  0
  5  4  1  0  0  0  0
  5  9  1  0  0  0  0
  6  5  2  0  0  0  0
  7  1  1  0  0  0  0
  8  2  1  0  0  0  0
  9 19  1  6  0  0  0
  9 10  1  0  0  0  0
 10 20  1  1  0  0  0
 10 11  1  0  0  0  0
 11 22  1  0  0  0  0
 12 11  1  0  0  0  0
 12 23  1  0  0  0  0
 13 14  1  1  0  0  0
 13 12  1  0  0  0  0
 14 24  1  0  0  0  0
 15 14  2  0  0  0  0
 16 17  2  0  0  0  0
 16 15  1  0  0  0  0
 18 17  1  6  0  0  0
 18  9  1  0  0  0  0
 18 13  1  0  0  0  0
 18 10  1  0  0  0  0
 21 11  1  0  0  0  0
 25 15  1  0  0  0  0
 26 16  1  0  0  0  0
 27 17  1  0  0  0  0
 29 28  1  0  0  0  0
 30 29  1  0  0  0  0
 30 39  1  0  0  0  0
 31 32  1  0  0  0  0
 31 30  2  0  0  0  0
 32 37  1  0  0  0  0
 33 32  1  0  0  0  0
 33 35  1  0  0  0  0
 34 33  2  0  0  0  0
 35 36  1  0  0  0  0
 37 35  1  6  0  0  0
 37 38  1  0  0  0  0
 39 38  1  0  0  0  0
 39 40  1  0  0  0  0
 41 31  1  0  0  0  0
 42 41  2  0  0  0  0
 43 41  1  0  0  0  0
 44 43  1  0  0  0  0
M  END
>  <minimizedAffinity>
-6.39566183

$$$$
