
 OpenBabel03242522413D

 54 58  0  0  1  0  0  0  0  0999 V2000
   46.7240   34.5170   43.0110 C   0  0  0  0  0  0  0  0  0  0  0  0
   46.2350   33.8650   44.1150 C   0  0  0  0  0  0  0  0  0  0  0  0
   45.2320   34.2900   44.8950 C   0  0  0  0  0  0  0  0  0  0  0  0
   44.6230   35.4730   44.5860 C   0  0  0  0  0  0  0  0  0  0  0  0
   45.0170   36.2100   43.5120 C   0  0  0  0  0  0  0  0  0  0  0  0
   46.0600   35.7150   42.7440 C   0  0  0  0  0  0  0  0  0  0  0  0
   44.7790   33.8620   45.7440 H   0  0  0  0  0  0  0  0  0  0  0  0
   43.8060   35.9370   45.1280 H   0  0  0  0  0  0  0  0  0  0  0  0
   44.5700   37.1690   43.2050 H   0  0  0  0  0  0  0  0  0  0  0  0
   46.3670   36.3230   41.8750 H   0  0  0  0  0  0  0  0  0  0  0  0
   46.8650   32.5690   44.4460 C   0  0  0  0  0  0  0  0  0  0  0  0
   47.8950   32.7690   44.7130 H   0  0  0  0  0  0  0  0  0  0  0  0
   46.6860   31.9660   43.5310 H   0  0  0  0  0  0  0  0  0  0  0  0
   46.1580   31.7460   45.4710 C   0  0  0  0  0  0  0  0  0  0  0  0
   45.1570   32.1460   45.7850 H   0  0  0  0  0  0  0  0  0  0  0  0
   45.8570   30.7150   45.1250 H   0  0  0  0  0  0  0  0  0  0  0  0
   47.2280   32.5180   47.5590 C   0  0  0  0  0  0  0  0  0  0  0  0
   47.0720   31.5100   46.5800 C   0  0  0  0  0  0  0  0  0  0  0  0
   47.7780   30.3350   46.7500 C   0  0  0  0  0  0  0  0  0  0  0  0
   48.5760   30.2080   47.8340 N   0  0  0  0  0  0  0  0  0  0  0  0
   48.7000   31.1740   48.7410 C   0  0  0  0  0  0  0  0  0  0  0  0
   48.0340   32.3450   48.6250 N   0  0  0  0  0  0  0  0  0  0  0  0
   46.7860   33.4950   47.6200 H   0  0  0  0  0  0  0  0  0  0  0  0
   47.6610   29.5640   46.0010 H   0  0  0  0  0  0  0  0  0  0  0  0
   49.6020   30.9430   49.9230 C   0  0  0  0  0  0  0  0  0  0  0  0
   49.7510   29.8510   50.0770 H   0  0  0  0  0  0  0  0  0  0  0  0
   49.0330   31.3500   50.8020 H   0  0  0  0  0  0  0  0  0  0  0  0
   50.8700   31.6520   49.8330 C   0  0  0  0  0  0  0  0  0  0  0  0
   52.0420   31.1340   49.2960 C   0  0  0  0  0  0  0  0  0  0  0  0
   53.0230   32.0840   49.3840 C   0  0  0  0  0  0  0  0  0  0  0  0
   52.4130   33.1590   49.9740 N   0  0  0  0  0  0  0  0  0  0  0  0
   51.1330   32.9070   50.2430 N   0  0  0  0  0  0  0  0  0  0  0  0
   52.2540   30.1540   48.8560 H   0  0  0  0  0  0  0  0  0  0  0  0
   54.0620   32.0730   49.0820 H   0  0  0  0  0  0  0  0  0  0  0  0
   52.8960   34.0640   50.1870 H   0  0  0  0  0  0  0  0  0  0  0  0
   48.0580   34.1330   42.0250 S   0  0  0  0  0  0  0  0  0  0  0  0
   49.3250   33.9070   42.8010 O   0  0  0  0  0  0  0  0  0  0  0  0
   48.3680   35.3980   41.1840 O   0  0  0  0  0  0  0  0  0  0  0  0
   48.0150   32.9130   40.8160 C   0  0  0  0  0  2  0  0  0  0  0  0
   46.5660   32.5540   40.5600 C   0  0  0  0  0  0  0  0  0  0  0  0
   45.9610   31.4780   40.9840 C   0  0  0  0  0  0  0  0  0  0  0  0
   44.6010   31.2800   40.6480 N   0  0  0  0  0  0  0  0  0  0  0  0
   43.2630   30.9380   41.0740 C   0  0  0  0  0  0  0  0  0  0  0  0
   42.8120   30.1370   41.9610 O   0  0  0  0  0  0  0  0  0  0  0  0
   42.8100   31.9210   40.0280 C   0  0  0  0  0  3  0  0  0  0  0  0
   41.8670   31.6330   39.5210 H   0  0  0  0  0  0  0  0  0  0  0  0
   44.0600   31.4310   39.3110 C   0  0  1  0  0  3  0  0  0  0  0  0
   44.8370   32.8050   38.4300 S   0  0  0  0  0  0  0  0  0  0  0  0
   45.8950   33.6020   39.7180 C   0  0  0  0  0  3  0  0  0  0  0  0
   46.5930   34.1960   39.1180 H   0  0  0  0  0  0  0  0  0  0  0  0
   46.6460   30.4420   41.7970 C   0  0  0  0  0  0  0  0  0  0  0  0
   47.7800   29.9760   42.0720 O   0  0  0  0  0  0  0  0  0  0  0  0
   46.0510   29.5420   42.6350 O   0  0  0  0  0  0  0  0  0  0  0  0
   46.1460   29.4980   43.6290 H   0  0  0  0  0  0  0  0  0  0  0  0
  1  2  1  0  0  0  0
  2 11  1  0  0  0  0
  2  3  2  0  0  0  0
  3  7  1  0  0  0  0
  4  3  1  0  0  0  0
  4  8  1  0  0  0  0
  5  4  2  0  0  0  0
  6  1  2  0  0  0  0
  6  5  1  0  0  0  0
  9  5  1  0  0  0  0
 10  6  1  0  0  0  0
 11 12  1  0  0  0  0
 11 14  1  0  0  0  0
 13 11  1  0  0  0  0
 14 15  1  0  0  0  0
 14 18  1  0  0  0  0
 16 14  1  0  0  0  0
 17 23  1  0  0  0  0
 17 22  1  0  0  0  0
 18 19  1  0  0  0  0
 18 17  2  0  0  0  0
 19 20  2  0  0  0  0
 20 21  1  0  0  0  0
 21 25  1  0  0  0  0
 22 21  2  0  0  0  0
 24 19  1  0  0  0  0
 25 26  1  0  0  0  0
 25 27  1  0  0  0  0
 28 25  1  0  0  0  0
 28 32  2  0  0  0  0
 29 30  2  0  0  0  0
 29 28  1  0  0  0  0
 30 31  1  0  0  0  0
 31 35  1  0  0  0  0
 31 32  1  0  0  0  0
 33 29  1  0  0  0  0
 34 30  1  0  0  0  0
 36 37  2  0  0  0  0
 36  1  1  0  0  0  0
 38 36  2  0  0  0  0
 39 36  1  0  0  0  0
 40 39  1  0  0  0  0
 40 41  2  0  0  0  0
 41 51  1  0  0  0  0
 42 41  1  0  0  0  0
 42 43  1  0  0  0  0
 43 44  2  0  0  0  0
 45 43  1  0  0  0  0
 46 45  1  0  0  0  0
 47 48  1  6  0  0  0
 47 45  1  0  0  0  0
 47 42  1  0  0  0  0
 48 49  1  0  0  0  0
 49 40  1  0  0  0  0
 50 49  1  0  0  0  0
 51 52  2  0  0  0  0
 51 53  1  0  0  0  0
 53 54  1  0  0  0  0
M  END
>  <minimizedAffinity>
-5.76012564

>  <minimizedRMSD>
1.59394801

$$$$
