
 OpenBabel03242522413D

 54 58  0  0  1  0  0  0  0  0999 V2000
   46.8400   34.4170   43.0080 C   0  0  0  0  0  0  0  0  0  0  0  0
   46.2350   33.8040   44.0750 C   0  0  0  0  0  0  0  0  0  0  0  0
   45.1930   34.2860   44.7690 C   0  0  0  0  0  0  0  0  0  0  0  0
   44.6690   35.4920   44.4000 C   0  0  0  0  0  0  0  0  0  0  0  0
   45.1810   36.1950   43.3540 C   0  0  0  0  0  0  0  0  0  0  0  0
   46.2580   35.6410   42.6770 C   0  0  0  0  0  0  0  0  0  0  0  0
   44.6540   33.8920   45.5830 H   0  0  0  0  0  0  0  0  0  0  0  0
   43.8350   36.0020   44.8700 H   0  0  0  0  0  0  0  0  0  0  0  0
   44.8080   37.1700   43.0020 H   0  0  0  0  0  0  0  0  0  0  0  0
   46.6610   36.2220   41.8290 H   0  0  0  0  0  0  0  0  0  0  0  0
   46.7730   32.4840   44.4690 C   0  0  0  0  0  0  0  0  0  0  0  0
   47.8280   32.6150   44.6760 H   0  0  0  0  0  0  0  0  0  0  0  0
   46.5000   31.8400   43.6080 H   0  0  0  0  0  0  0  0  0  0  0  0
   46.0540   31.7940   45.5800 C   0  0  0  0  0  0  0  0  0  0  0  0
   45.1060   32.2980   45.9110 H   0  0  0  0  0  0  0  0  0  0  0  0
   45.6510   30.7720   45.3200 H   0  0  0  0  0  0  0  0  0  0  0  0
   47.2030   32.5670   47.6250 C   0  0  0  0  0  0  0  0  0  0  0  0
   47.0000   31.5530   46.6600 C   0  0  0  0  0  0  0  0  0  0  0  0
   47.6950   30.3690   46.8160 C   0  0  0  0  0  0  0  0  0  0  0  0
   48.5260   30.2400   47.8750 N   0  0  0  0  0  0  0  0  0  0  0  0
   48.6940   31.2110   48.7690 C   0  0  0  0  0  0  0  0  0  0  0  0
   48.0410   32.3910   48.6650 N   0  0  0  0  0  0  0  0  0  0  0  0
   46.7770   33.5500   47.6920 H   0  0  0  0  0  0  0  0  0  0  0  0
   47.5410   29.5940   46.0780 H   0  0  0  0  0  0  0  0  0  0  0  0
   49.6310   30.9770   49.9220 C   0  0  0  0  0  0  0  0  0  0  0  0
   49.7720   29.8830   50.0790 H   0  0  0  0  0  0  0  0  0  0  0  0
   49.0970   31.3960   50.8170 H   0  0  0  0  0  0  0  0  0  0  0  0
   50.9040   31.6690   49.7860 C   0  0  0  0  0  0  0  0  0  0  0  0
   52.0540   31.1300   49.2230 C   0  0  0  0  0  0  0  0  0  0  0  0
   53.0480   32.0690   49.2710 C   0  0  0  0  0  0  0  0  0  0  0  0
   52.4670   33.1590   49.8630 N   0  0  0  0  0  0  0  0  0  0  0  0
   51.1930   32.9250   50.1720 N   0  0  0  0  0  0  0  0  0  0  0  0
   52.2420   30.1420   48.7910 H   0  0  0  0  0  0  0  0  0  0  0  0
   54.0780   32.0420   48.9390 H   0  0  0  0  0  0  0  0  0  0  0  0
   52.9670   34.0610   50.0500 H   0  0  0  0  0  0  0  0  0  0  0  0
   48.2280   33.9570   42.1360 S   0  0  0  0  0  0  0  0  0  0  0  0
   49.5120   34.3360   42.8190 O   0  0  0  0  0  0  0  0  0  0  0  0
   48.2420   34.8080   40.8400 O   0  0  0  0  0  0  0  0  0  0  0  0
   48.4680   32.3730   41.5150 C   0  0  0  0  0  2  0  0  0  0  0  0
   48.1960   32.4050   40.0260 C   0  0  0  0  0  0  0  0  0  0  0  0
   47.0170   32.4360   39.4670 C   0  0  0  0  0  0  0  0  0  0  0  0
   46.9290   32.4490   38.0550 N   0  0  0  0  0  0  0  0  0  0  0  0
   46.3580   33.0310   36.8610 C   0  0  0  0  0  0  0  0  0  0  0  0
   45.2140   33.5350   36.6010 O   0  0  0  0  0  0  0  0  0  0  0  0
   47.6910   32.7340   36.2270 C   0  0  0  0  0  3  0  0  0  0  0  0
   47.6260   32.4430   35.1590 H   0  0  0  0  0  0  0  0  0  0  0  0
   47.6570   31.5500   37.1840 C   0  0  1  0  0  3  0  0  0  0  0  0
   49.3220   31.2220   37.8080 S   0  0  0  0  0  0  0  0  0  0  0  0
   49.4790   32.3710   39.2450 C   0  0  0  0  0  3  0  0  0  0  0  0
   50.3200   31.9430   39.8020 H   0  0  0  0  0  0  0  0  0  0  0  0
   45.7580   32.4470   40.2540 C   0  0  0  0  0  0  0  0  0  0  0  0
   45.0860   31.7740   41.0730 O   0  0  0  0  0  0  0  0  0  0  0  0
   44.8170   33.4370   40.2670 O   0  0  0  0  0  0  0  0  0  0  0  0
   44.5750   34.0230   41.0410 H   0  0  0  0  0  0  0  0  0  0  0  0
  1  2  1  0  0  0  0
  2 11  1  0  0  0  0
  2  3  2  0  0  0  0
  3  7  1  0  0  0  0
  4  3  1  0  0  0  0
  4  8  1  0  0  0  0
  5  4  2  0  0  0  0
  6  1  2  0  0  0  0
  6  5  1  0  0  0  0
  9  5  1  0  0  0  0
 10  6  1  0  0  0  0
 11 12  1  0  0  0  0
 11 14  1  0  0  0  0
 13 11  1  0  0  0  0
 14 15  1  0  0  0  0
 14 18  1  0  0  0  0
 16 14  1  0  0  0  0
 17 23  1  0  0  0  0
 17 22  1  0  0  0  0
 18 19  1  0  0  0  0
 18 17  2  0  0  0  0
 19 20  2  0  0  0  0
 20 21  1  0  0  0  0
 21 25  1  0  0  0  0
 22 21  2  0  0  0  0
 24 19  1  0  0  0  0
 25 26  1  0  0  0  0
 25 27  1  0  0  0  0
 28 25  1  0  0  0  0
 28 32  2  0  0  0  0
 29 30  2  0  0  0  0
 29 28  1  0  0  0  0
 30 31  1  0  0  0  0
 31 35  1  0  0  0  0
 31 32  1  0  0  0  0
 33 29  1  0  0  0  0
 34 30  1  0  0  0  0
 36 37  2  0  0  0  0
 36  1  1  0  0  0  0
 38 36  2  0  0  0  0
 39 36  1  0  0  0  0
 40 39  1  0  0  0  0
 41 40  2  0  0  0  0
 41 51  1  0  0  0  0
 42 41  1  0  0  0  0
 43 42  1  0  0  0  0
 44 43  2  0  0  0  0
 45 43  1  0  0  0  0
 46 45  1  0  0  0  0
 47 45  1  6  0  0  0
 47 48  1  0  0  0  0
 47 42  1  0  0  0  0
 48 49  1  0  0  0  0
 49 50  1  0  0  0  0
 49 40  1  0  0  0  0
 51 53  1  0  0  0  0
 51 52  2  0  0  0  0
 53 54  1  0  0  0  0
M  END
>  <minimizedAffinity>
-6.17645931

>  <minimizedRMSD>
2.42334104

$$$$
