
 OpenBabel03242522413D

 54 58  0  0  1  0  0  0  0  0999 V2000
   46.2810   34.3390   43.4740 C   0  0  0  0  0  0  0  0  0  0  0  0
   46.0680   33.7710   44.7040 C   0  0  0  0  0  0  0  0  0  0  0  0
   45.2590   34.2510   45.6600 C   0  0  0  0  0  0  0  0  0  0  0  0
   44.5750   35.4070   45.4120 C   0  0  0  0  0  0  0  0  0  0  0  0
   44.7000   36.0610   44.2260 C   0  0  0  0  0  0  0  0  0  0  0  0
   45.5510   35.5120   43.2780 C   0  0  0  0  0  0  0  0  0  0  0  0
   45.0190   33.8880   46.6180 H   0  0  0  0  0  0  0  0  0  0  0  0
   43.8930   35.9080   46.0900 H   0  0  0  0  0  0  0  0  0  0  0  0
   44.1770   36.9940   43.9590 H   0  0  0  0  0  0  0  0  0  0  0  0
   45.6410   36.0540   42.3210 H   0  0  0  0  0  0  0  0  0  0  0  0
   46.7810   32.5040   44.9760 C   0  0  0  0  0  0  0  0  0  0  0  0
   47.7750   32.7610   45.3210 H   0  0  0  0  0  0  0  0  0  0  0  0
   46.7020   31.9640   44.0100 H   0  0  0  0  0  0  0  0  0  0  0  0
   46.0870   31.5520   45.8920 C   0  0  0  0  0  0  0  0  0  0  0  0
   45.0810   31.8970   46.2540 H   0  0  0  0  0  0  0  0  0  0  0  0
   45.7980   30.5670   45.4210 H   0  0  0  0  0  0  0  0  0  0  0  0
   47.3650   32.1780   47.9110 C   0  0  0  0  0  0  0  0  0  0  0  0
   47.0050   31.1920   46.9630 C   0  0  0  0  0  0  0  0  0  0  0  0
   47.5280   29.9240   47.1270 C   0  0  0  0  0  0  0  0  0  0  0  0
   48.3480   29.6900   48.1760 N   0  0  0  0  0  0  0  0  0  0  0  0
   48.6660   30.6380   49.0540 C   0  0  0  0  0  0  0  0  0  0  0  0
   48.1850   31.8970   48.9420 N   0  0  0  0  0  0  0  0  0  0  0  0
   47.0830   33.2130   47.9700 H   0  0  0  0  0  0  0  0  0  0  0  0
   47.2550   29.1690   46.4010 H   0  0  0  0  0  0  0  0  0  0  0  0
   49.5770   30.2870   50.1980 C   0  0  0  0  0  0  0  0  0  0  0  0
   49.9690   29.2530   50.0650 H   0  0  0  0  0  0  0  0  0  0  0  0
   48.9160   30.3000   51.1070 H   0  0  0  0  0  0  0  0  0  0  0  0
   50.6510   31.2480   50.4020 C   0  0  0  0  0  0  0  0  0  0  0  0
   51.5980   31.6050   49.4500 C   0  0  0  0  0  0  0  0  0  0  0  0
   52.4450   32.5290   50.0000 C   0  0  0  0  0  0  0  0  0  0  0  0
   51.9820   32.7080   51.2770 N   0  0  0  0  0  0  0  0  0  0  0  0
   50.9150   31.9480   51.5200 N   0  0  0  0  0  0  0  0  0  0  0  0
   51.7360   31.2690   48.4180 H   0  0  0  0  0  0  0  0  0  0  0  0
   53.3020   33.0490   49.5920 H   0  0  0  0  0  0  0  0  0  0  0  0
   52.4160   33.3610   51.9720 H   0  0  0  0  0  0  0  0  0  0  0  0
   47.3640   33.8850   42.2410 S   0  0  0  0  0  0  0  0  0  0  0  0
   48.7220   33.4980   42.7550 O   0  0  0  0  0  0  0  0  0  0  0  0
   47.6430   35.1590   41.4020 O   0  0  0  0  0  0  0  0  0  0  0  0
   46.9740   32.7420   41.0190 C   0  0  0  0  0  2  0  0  0  0  0  0
   45.4640   32.6500   40.9240 C   0  0  0  0  0  0  0  0  0  0  0  0
   44.7240   31.7100   41.4450 C   0  0  0  0  0  0  0  0  0  0  0  0
   43.3220   31.7600   41.2560 N   0  0  0  0  0  0  0  0  0  0  0  0
   41.9980   31.6750   41.8270 C   0  0  0  0  0  0  0  0  0  0  0  0
   41.5060   30.9850   42.7830 O   0  0  0  0  0  0  0  0  0  0  0  0
   41.6210   32.7070   40.7980 C   0  0  0  0  0  3  0  0  0  0  0  0
   40.5930   32.5900   40.4000 H   0  0  0  0  0  0  0  0  0  0  0  0
   42.6800   31.9840   39.9760 C   0  0  1  0  0  3  0  0  0  0  0  0
   43.5940   33.1780   38.9730 S   0  0  0  0  0  0  0  0  0  0  0  0
   44.9070   33.7880   40.1180 C   0  0  0  0  0  3  0  0  0  0  0  0
   45.6350   34.2350   39.4290 H   0  0  0  0  0  0  0  0  0  0  0  0
   45.2940   30.5800   42.2220 C   0  0  0  0  0  0  0  0  0  0  0  0
   46.3430   29.9110   42.3890 O   0  0  0  0  0  0  0  0  0  0  0  0
   44.6420   29.8290   43.1580 O   0  0  0  0  0  0  0  0  0  0  0  0
   44.8420   29.7880   44.1370 H   0  0  0  0  0  0  0  0  0  0  0  0
  1  2  1  0  0  0  0
  2 11  1  0  0  0  0
  2  3  2  0  0  0  0
  3  7  1  0  0  0  0
  4  3  1  0  0  0  0
  4  8  1  0  0  0  0
  5  4  2  0  0  0  0
  6  1  2  0  0  0  0
  6  5  1  0  0  0  0
  9  5  1  0  0  0  0
 10  6  1  0  0  0  0
 11 12  1  0  0  0  0
 11 14  1  0  0  0  0
 13 11  1  0  0  0  0
 14 15  1  0  0  0  0
 14 18  1  0  0  0  0
 16 14  1  0  0  0  0
 17 23  1  0  0  0  0
 17 22  1  0  0  0  0
 18 19  1  0  0  0  0
 18 17  2  0  0  0  0
 19 20  2  0  0  0  0
 20 21  1  0  0  0  0
 21 25  1  0  0  0  0
 22 21  2  0  0  0  0
 24 19  1  0  0  0  0
 25 28  1  0  0  0  0
 25 27  1  0  0  0  0
 26 25  1  0  0  0  0
 28 32  2  0  0  0  0
 29 30  2  0  0  0  0
 29 28  1  0  0  0  0
 30 31  1  0  0  0  0
 31 32  1  0  0  0  0
 31 35  1  0  0  0  0
 33 29  1  0  0  0  0
 34 30  1  0  0  0  0
 36 37  2  0  0  0  0
 36  1  1  0  0  0  0
 38 36  2  0  0  0  0
 39 36  1  0  0  0  0
 40 39  1  0  0  0  0
 40 41  2  0  0  0  0
 41 51  1  0  0  0  0
 42 41  1  0  0  0  0
 42 43  1  0  0  0  0
 43 44  2  0  0  0  0
 45 43  1  0  0  0  0
 46 45  1  0  0  0  0
 47 48  1  6  0  0  0
 47 45  1  0  0  0  0
 47 42  1  0  0  0  0
 48 49  1  0  0  0  0
 49 40  1  0  0  0  0
 50 49  1  0  0  0  0
 51 52  2  0  0  0  0
 51 53  1  0  0  0  0
 53 54  1  0  0  0  0
M  END
>  <minimizedAffinity>
-6.05704355

>  <minimizedRMSD>
2.95132399

$$$$
