
 OpenBabel03242512163D

 40 43  0  0  1  0  0  0  0  0999 V2000
   48.4500   33.1230   41.2850 C   0  0  0  0  0  0  0  0  0  0  0  0
   48.0480   34.3360   41.8210 C   0  0  0  0  0  0  0  0  0  0  0  0
   48.9600   35.1140   42.5060 C   0  0  0  0  0  0  0  0  0  0  0  0
   50.2600   34.6450   42.6310 C   0  0  0  0  0  0  0  0  0  0  0  0
   50.6140   33.4340   42.0810 C   0  0  0  0  0  0  0  0  0  0  0  0
   49.7320   32.6290   41.3910 C   0  0  0  0  0  0  0  0  0  0  0  0
   48.5760   36.0270   42.8860 H   0  0  0  0  0  0  0  0  0  0  0  0
   50.8860   35.3260   43.1810 H   0  0  0  0  0  0  0  0  0  0  0  0
   51.6450   33.2490   42.2780 H   0  0  0  0  0  0  0  0  0  0  0  0
   46.6280   34.6900   41.5870 C   0  0  0  0  0  0  0  0  0  0  0  0
   46.1210   34.0170   40.9210 H   0  0  0  0  0  0  0  0  0  0  0  0
   46.6610   35.6860   41.0660 H   0  0  0  0  0  0  0  0  0  0  0  0
   45.9380   34.9170   42.9040 C   0  0  0  0  0  0  0  0  0  0  0  0
   46.0170   33.8890   43.8370 C   0  0  0  0  0  0  0  0  0  0  0  0
   45.3950   34.0720   45.0760 C   0  0  0  0  0  0  0  0  0  0  0  0
   44.7510   35.2430   45.2860 N   0  0  0  0  0  0  0  0  0  0  0  0
   44.6910   36.2360   44.3460 C   0  0  0  0  0  0  0  0  0  0  0  0
   45.2860   36.0700   43.1530 N   0  0  0  0  0  0  0  0  0  0  0  0
   46.5510   32.9770   43.5970 H   0  0  0  0  0  0  0  0  0  0  0  0
   45.4250   33.3160   45.8250 H   0  0  0  0  0  0  0  0  0  0  0  0
   44.1660   37.1340   44.5810 H   0  0  0  0  0  0  0  0  0  0  0  0
   47.5800   32.2650   40.5690 O   0  0  0  0  0  0  0  0  0  0  0  0
   47.1670   32.6790   39.7590 H   0  0  0  0  0  0  0  0  0  0  0  0
   50.1650   31.4490   40.8770 O   0  0  0  0  0  0  0  0  0  0  0  0
   51.3740   30.9800   40.4320 C   0  0  0  0  0  2  0  0  0  0  0  0
   51.6380   29.5440   40.7130 C   0  0  0  0  0  0  0  0  0  0  0  0
   51.7120   28.9810   41.9120 C   0  0  0  0  0  0  0  0  0  0  0  0
   51.9720   27.6140   42.0270 N   0  0  0  0  0  0  0  0  0  0  0  0
   51.7840   26.3920   42.7090 C   0  0  0  0  0  0  0  0  0  0  0  0
   51.3320   25.9820   43.8330 O   0  0  0  0  0  0  0  0  0  0  0  0
   52.3350   25.5640   41.6110 C   0  0  0  0  0  3  0  0  0  0  0  0
   51.4750   25.1270   41.0470 H   0  0  0  0  0  0  0  0  0  0  0  0
   52.8260   26.9010   41.0970 C   0  0  1  0  0  3  0  0  0  0  0  0
   52.2070   27.1670   39.4130 S   0  0  0  0  0  0  0  0  0  0  0  0
   51.7910   28.9150   39.4070 C   0  0  0  0  0  3  0  0  0  0  0  0
   50.8890   29.1110   38.7740 H   0  0  0  0  0  0  0  0  0  0  0  0
   51.5320   29.7530   43.1550 C   0  0  0  0  0  0  0  0  0  0  0  0
   52.2510   30.3090   44.0190 O   0  0  0  0  0  0  0  0  0  0  0  0
   50.3090   30.0540   43.6840 O   0  0  0  0  0  0  0  0  0  0  0  0
   49.9940   30.9920   43.9630 H   0  0  0  0  0  0  0  0  0  0  0  0
  1  6  2  0  0  0  0
  1  2  1  0  0  0  0
  2  3  2  0  0  0  0
  3  4  1  0  0  0  0
  3  7  1  0  0  0  0
  4  8  1  0  0  0  0
  5  9  1  0  0  0  0
  5  4  2  0  0  0  0
  6  5  1  0  0  0  0
 10  2  1  0  0  0  0
 10 13  1  0  0  0  0
 11 10  1  0  0  0  0
 12 10  1  0  0  0  0
 13 18  2  0  0  0  0
 13 14  1  0  0  0  0
 14 15  2  0  0  0  0
 15 16  1  0  0  0  0
 15 20  1  0  0  0  0
 17 21  1  0  0  0  0
 17 16  2  0  0  0  0
 18 17  1  0  0  0  0
 19 14  1  0  0  0  0
 22  1  1  0  0  0  0
 23 22  1  0  0  0  0
 24  6  1  0  0  0  0
 25 26  1  0  0  0  0
 25 24  1  0  0  0  0
 26 27  2  0  0  0  0
 27 28  1  0  0  0  0
 27 37  1  0  0  0  0
 28 29  1  0  0  0  0
 29 30  2  0  0  0  0
 31 29  1  0  0  0  0
 32 31  1  0  0  0  0
 33 34  1  6  0  0  0
 33 31  1  0  0  0  0
 33 28  1  0  0  0  0
 35 34  1  0  0  0  0
 35 26  1  0  0  0  0
 36 35  1  0  0  0  0
 37 39  1  0  0  0  0
 37 38  2  0  0  0  0
 39 40  1  0  0  0  0
M  END
>  <minimizedAffinity>
-4.61559248

>  <minimizedRMSD>
1.15410602

$$$$
