
 OpenBabel03242512163D

 40 43  0  0  1  0  0  0  0  0999 V2000
   48.3330   32.9230   41.8860 C   0  0  0  0  0  0  0  0  0  0  0  0
   47.9510   34.2490   42.0090 C   0  0  0  0  0  0  0  0  0  0  0  0
   48.8980   35.2060   42.3140 C   0  0  0  0  0  0  0  0  0  0  0  0
   50.2130   34.7960   42.4870 C   0  0  0  0  0  0  0  0  0  0  0  0
   50.5460   33.4670   42.3540 C   0  0  0  0  0  0  0  0  0  0  0  0
   49.6290   32.4840   42.0510 C   0  0  0  0  0  0  0  0  0  0  0  0
   48.5280   36.1970   42.3910 H   0  0  0  0  0  0  0  0  0  0  0  0
   50.8670   35.6180   42.7210 H   0  0  0  0  0  0  0  0  0  0  0  0
   51.5930   33.3510   42.5190 H   0  0  0  0  0  0  0  0  0  0  0  0
   46.5100   34.5150   41.7820 C   0  0  0  0  0  0  0  0  0  0  0  0
   46.0210   33.7610   41.1950 H   0  0  0  0  0  0  0  0  0  0  0  0
   46.4830   35.4590   41.1720 H   0  0  0  0  0  0  0  0  0  0  0  0
   45.8410   34.8310   43.0920 C   0  0  0  0  0  0  0  0  0  0  0  0
   45.9480   33.8750   44.0960 C   0  0  0  0  0  0  0  0  0  0  0  0
   45.3460   34.1420   45.3290 C   0  0  0  0  0  0  0  0  0  0  0  0
   44.6930   35.3190   45.4650 N   0  0  0  0  0  0  0  0  0  0  0  0
   44.6060   36.2410   44.4560 C   0  0  0  0  0  0  0  0  0  0  0  0
   45.1810   35.9930   43.2680 N   0  0  0  0  0  0  0  0  0  0  0  0
   46.4870   32.9530   43.9140 H   0  0  0  0  0  0  0  0  0  0  0  0
   45.3970   33.4440   46.1310 H   0  0  0  0  0  0  0  0  0  0  0  0
   44.0750   37.1480   44.6340 H   0  0  0  0  0  0  0  0  0  0  0  0
   47.4270   31.8800   41.5760 O   0  0  0  0  0  0  0  0  0  0  0  0
   46.9440   31.9980   40.7080 H   0  0  0  0  0  0  0  0  0  0  0  0
   50.0420   31.1960   41.9340 O   0  0  0  0  0  0  0  0  0  0  0  0
   51.1710   30.5890   41.4470 C   0  0  0  0  0  2  0  0  0  0  0  0
   51.3120   30.6100   39.9660 C   0  0  0  0  0  0  0  0  0  0  0  0
   50.4980   30.0290   39.0930 C   0  0  0  0  0  0  0  0  0  0  0  0
   50.7570   30.1270   37.7240 N   0  0  0  0  0  0  0  0  0  0  0  0
   50.2780   30.2180   36.3990 C   0  0  0  0  0  0  0  0  0  0  0  0
   49.1830   30.0510   35.7630 O   0  0  0  0  0  0  0  0  0  0  0  0
   51.5880   30.6260   35.8360 C   0  0  0  0  0  3  0  0  0  0  0  0
   51.5660   31.7340   35.6860 H   0  0  0  0  0  0  0  0  0  0  0  0
   52.1020   30.1720   37.1860 C   0  0  1  0  0  3  0  0  0  0  0  0
   53.0030   31.5320   37.9790 S   0  0  0  0  0  0  0  0  0  0  0  0
   52.5130   31.3920   39.7020 C   0  0  0  0  0  3  0  0  0  0  0  0
   52.4310   32.4020   40.1780 H   0  0  0  0  0  0  0  0  0  0  0  0
   49.3120   29.2640   39.5150 C   0  0  0  0  0  0  0  0  0  0  0  0
   48.9860   28.0640   39.6810 O   0  0  0  0  0  0  0  0  0  0  0  0
   48.1270   29.8450   39.8700 O   0  0  0  0  0  0  0  0  0  0  0  0
   47.6060   29.6600   40.7350 H   0  0  0  0  0  0  0  0  0  0  0  0
  1  2  2  0  0  0  0
  1  6  1  0  0  0  0
  2  3  1  0  0  0  0
  3  7  1  0  0  0  0
  3  4  2  0  0  0  0
  4  8  1  0  0  0  0
  5  4  1  0  0  0  0
  5  9  1  0  0  0  0
  6  5  2  0  0  0  0
 10  2  1  0  0  0  0
 10 13  1  0  0  0  0
 11 10  1  0  0  0  0
 12 10  1  0  0  0  0
 13 18  2  0  0  0  0
 13 14  1  0  0  0  0
 14 15  2  0  0  0  0
 15 16  1  0  0  0  0
 15 20  1  0  0  0  0
 17 21  1  0  0  0  0
 17 16  2  0  0  0  0
 18 17  1  0  0  0  0
 19 14  1  0  0  0  0
 22  1  1  0  0  0  0
 23 22  1  0  0  0  0
 24  6  1  0  0  0  0
 25 24  1  0  0  0  0
 26 25  1  0  0  0  0
 27 37  1  0  0  0  0
 27 26  2  0  0  0  0
 28 27  1  0  0  0  0
 29 28  1  0  0  0  0
 30 29  2  0  0  0  0
 31 29  1  0  0  0  0
 32 31  1  0  0  0  0
 33 31  1  6  0  0  0
 33 28  1  0  0  0  0
 33 34  1  0  0  0  0
 34 35  1  0  0  0  0
 35 26  1  0  0  0  0
 35 36  1  0  0  0  0
 37 38  2  0  0  0  0
 37 39  1  0  0  0  0
 39 40  1  0  0  0  0
M  END
>  <minimizedAffinity>
-5.06016684

>  <minimizedRMSD>
1.8327893

$$$$
