
 OpenBabel03242512173D

 40 43  0  0  1  0  0  0  0  0999 V2000
   48.3620   33.0150   41.5030 C   0  0  0  0  0  0  0  0  0  0  0  0
   48.0950   34.3190   41.8880 C   0  0  0  0  0  0  0  0  0  0  0  0
   49.1040   35.0870   42.4360 C   0  0  0  0  0  0  0  0  0  0  0  0
   50.3610   34.5160   42.5790 C   0  0  0  0  0  0  0  0  0  0  0  0
   50.5780   33.2160   42.1810 C   0  0  0  0  0  0  0  0  0  0  0  0
   49.5970   32.4190   41.6320 C   0  0  0  0  0  0  0  0  0  0  0  0
   48.8220   36.0740   42.7040 H   0  0  0  0  0  0  0  0  0  0  0  0
   51.0700   35.1980   43.0150 H   0  0  0  0  0  0  0  0  0  0  0  0
   51.5960   32.9600   42.3670 H   0  0  0  0  0  0  0  0  0  0  0  0
   46.7050   34.7750   41.6550 C   0  0  0  0  0  0  0  0  0  0  0  0
   46.1750   34.1860   40.9310 H   0  0  0  0  0  0  0  0  0  0  0  0
   46.8080   35.8040   41.2130 H   0  0  0  0  0  0  0  0  0  0  0  0
   45.9990   34.9430   42.9730 C   0  0  0  0  0  0  0  0  0  0  0  0
   46.1280   33.9050   43.8890 C   0  0  0  0  0  0  0  0  0  0  0  0
   45.4930   34.0340   45.1280 C   0  0  0  0  0  0  0  0  0  0  0  0
   44.7880   35.1660   45.3550 N   0  0  0  0  0  0  0  0  0  0  0  0
   44.6800   36.1720   44.4310 C   0  0  0  0  0  0  0  0  0  0  0  0
   45.2870   36.0570   43.2390 N   0  0  0  0  0  0  0  0  0  0  0  0
   46.7090   33.0260   43.6360 H   0  0  0  0  0  0  0  0  0  0  0  0
   45.5590   33.2680   45.8640 H   0  0  0  0  0  0  0  0  0  0  0  0
   44.1090   37.0370   44.6790 H   0  0  0  0  0  0  0  0  0  0  0  0
   47.3870   32.1600   40.9350 O   0  0  0  0  0  0  0  0  0  0  0  0
   46.9780   32.5050   40.0900 H   0  0  0  0  0  0  0  0  0  0  0  0
   49.8980   31.1470   41.2620 O   0  0  0  0  0  0  0  0  0  0  0  0
   50.6420   30.1360   41.8150 C   0  0  0  0  0  2  0  0  0  0  0  0
   50.2040   29.6940   43.1650 C   0  0  0  0  0  0  0  0  0  0  0  0
   50.9920   29.4710   44.2100 C   0  0  0  0  0  0  0  0  0  0  0  0
   50.4410   29.0520   45.4230 N   0  0  0  0  0  0  0  0  0  0  0  0
   50.4650   29.0530   46.8340 C   0  0  0  0  0  0  0  0  0  0  0  0
   51.2630   29.3730   47.7800 O   0  0  0  0  0  0  0  0  0  0  0  0
   49.0980   28.4940   46.9690 C   0  0  0  0  0  3  0  0  0  0  0  0
   48.4040   29.3380   47.2000 H   0  0  0  0  0  0  0  0  0  0  0  0
   49.2750   28.1930   45.4960 C   0  0  1  0  0  3  0  0  0  0  0  0
   47.9260   28.9590   44.5570 S   0  0  0  0  0  0  0  0  0  0  0  0
   48.7540   29.5660   43.0820 C   0  0  0  0  0  3  0  0  0  0  0  0
   48.3010   30.5290   42.7330 H   0  0  0  0  0  0  0  0  0  0  0  0
   52.4530   29.6440   44.1440 C   0  0  0  0  0  0  0  0  0  0  0  0
   53.4280   29.1230   43.5500 O   0  0  0  0  0  0  0  0  0  0  0  0
   53.1340   30.5890   44.8570 O   0  0  0  0  0  0  0  0  0  0  0  0
   53.8080   31.2620   44.4690 H   0  0  0  0  0  0  0  0  0  0  0  0
  1  6  2  0  0  0  0
  1  2  1  0  0  0  0
  2  3  2  0  0  0  0
  3  4  1  0  0  0  0
  3  7  1  0  0  0  0
  4  8  1  0  0  0  0
  5  9  1  0  0  0  0
  5  4  2  0  0  0  0
  6  5  1  0  0  0  0
 10  2  1  0  0  0  0
 10 13  1  0  0  0  0
 11 10  1  0  0  0  0
 12 10  1  0  0  0  0
 13 18  2  0  0  0  0
 13 14  1  0  0  0  0
 14 15  2  0  0  0  0
 15 16  1  0  0  0  0
 15 20  1  0  0  0  0
 17 21  1  0  0  0  0
 17 16  2  0  0  0  0
 18 17  1  0  0  0  0
 19 14  1  0  0  0  0
 22  1  1  0  0  0  0
 23 22  1  0  0  0  0
 24  6  1  0  0  0  0
 24 25  1  0  0  0  0
 25 26  1  0  0  0  0
 26 27  2  0  0  0  0
 27 28  1  0  0  0  0
 28 33  1  0  0  0  0
 28 29  1  0  0  0  0
 29 31  1  0  0  0  0
 29 30  2  0  0  0  0
 31 32  1  0  0  0  0
 33 34  1  6  0  0  0
 33 31  1  0  0  0  0
 35 26  1  0  0  0  0
 35 34  1  0  0  0  0
 36 35  1  0  0  0  0
 37 27  1  0  0  0  0
 37 39  1  0  0  0  0
 38 37  2  0  0  0  0
 40 39  1  0  0  0  0
M  END
>  <minimizedAffinity>
-5.19472361

>  <minimizedRMSD>
2.24358582

$$$$
