
 OpenBabel03242521103D

 26 28  0  0  1  0  0  0  0  0999 V2000
   36.6580   27.3820   40.6420 C   0  0  0  0  0  0  0  0  0  0  0  0
   37.3220   27.2730   41.7590 C   0  0  0  0  0  0  0  0  0  0  0  0
   38.0680   26.1110   42.0700 N   0  0  0  0  0  0  0  0  0  0  0  0
   39.2270   25.4790   42.6530 C   0  0  0  0  0  0  0  0  0  0  0  0
   39.8690   25.8090   43.6790 O   0  0  0  0  0  0  0  0  0  0  0  0
   39.1130   24.5010   41.5130 C   0  0  0  0  0  3  0  0  0  0  0  0
   39.4360   23.4780   41.7790 H   0  0  0  0  0  0  0  0  0  0  0  0
   37.6380   24.7740   41.7200 C   0  0  2  0  0  3  0  0  0  0  0  0
   36.6010   24.7100   40.2750 S   0  0  0  0  0  0  0  0  0  0  0  0
   36.5870   26.3790   39.5830 C   0  0  0  0  0  3  0  0  0  0  0  0
   35.6140   26.4810   39.0610 H   0  0  0  0  0  0  0  0  0  0  0  0
   37.3390   28.3340   42.7630 C   0  0  0  0  0  0  0  0  0  0  0  0
   38.3930   28.8810   43.2300 O   0  0  0  0  0  0  0  0  0  0  0  0
   36.9460   29.2820   43.6790 O   0  0  0  0  0  0  0  0  0  0  0  0
   36.2820   29.1030   44.4350 H   0  0  0  0  0  0  0  0  0  0  0  0
   35.9290   28.6340   40.4520 C   0  0  0  0  0  2  0  0  0  0  0  0
   36.5880   29.5160   38.9840 S   0  0  0  0  0  0  0  0  0  0  0  0
   37.5860   33.3390   39.7920 C   0  0  0  0  0  0  0  0  0  0  0  0
   38.6730   33.1580   40.6740 C   0  0  0  0  0  0  0  0  0  0  0  0
   39.0560   31.8430   40.9840 C   0  0  0  0  0  0  0  0  0  0  0  0
   38.3720   30.8110   40.4300 N   0  0  0  0  0  0  0  0  0  0  0  0
   37.3240   31.0300   39.5810 C   0  0  0  0  0  0  0  0  0  0  0  0
   36.9430   32.2790   39.2720 N   0  0  0  0  0  0  0  0  0  0  0  0
   37.2480   34.3290   39.5190 H   0  0  0  0  0  0  0  0  0  0  0  0
   39.1750   34.0280   41.0790 H   0  0  0  0  0  0  0  0  0  0  0  0
   39.8840   31.6950   41.6550 H   0  0  0  0  0  0  0  0  0  0  0  0
  1  2  2  0  0  0  0
  2  3  1  0  0  0  0
  2 12  1  0  0  0  0
  3  4  1  0  0  0  0
  4  5  2  0  0  0  0
  6  8  1  0  0  0  0
  6  7  1  0  0  0  0
  6  4  1  0  0  0  0
  8  9  1  6  0  0  0
  8  3  1  0  0  0  0
 10  9  1  0  0  0  0
 10  1  1  0  0  0  0
 11 10  1  0  0  0  0
 12 13  2  0  0  0  0
 12 14  1  0  0  0  0
 14 15  1  0  0  0  0
 16  1  1  0  0  0  0
 17 22  1  0  0  0  0
 17 16  1  0  0  0  0
 18 19  1  0  0  0  0
 19 20  2  0  0  0  0
 19 25  1  0  0  0  0
 20 26  1  0  0  0  0
 21 20  1  0  0  0  0
 22 21  2  0  0  0  0
 23 22  1  0  0  0  0
 23 18  2  0  0  0  0
 24 18  1  0  0  0  0
M  END
>  <minimizedAffinity>
-5.05405045

$$$$

 OpenBabel03242521103D

 26 28  0  0  1  0  0  0  0  0999 V2000
   36.6240   28.3840   39.1240 C   0  0  0  0  0  0  0  0  0  0  0  0
   36.7260   28.6110   40.4050 C   0  0  0  0  0  0  0  0  0  0  0  0
   37.2330   27.6340   41.2940 N   0  0  0  0  0  0  0  0  0  0  0  0
   38.0040   27.2730   42.4600 C   0  0  0  0  0  0  0  0  0  0  0  0
   38.1360   27.8990   43.5380 O   0  0  0  0  0  0  0  0  0  0  0  0
   38.3800   26.0420   41.6760 C   0  0  0  0  0  3  0  0  0  0  0  0
   38.5300   25.1490   42.3090 H   0  0  0  0  0  0  0  0  0  0  0  0
   36.9700   26.2180   41.1510 C   0  0  2  0  0  3  0  0  0  0  0  0
   36.6730   25.7100   39.4710 S   0  0  0  0  0  0  0  0  0  0  0  0
   37.0020   27.1530   38.4360 C   0  0  0  0  0  3  0  0  0  0  0  0
   36.3600   27.0350   37.5400 H   0  0  0  0  0  0  0  0  0  0  0  0
   36.3240   29.8800   41.0070 C   0  0  0  0  0  0  0  0  0  0  0  0
   37.0730   30.6110   41.7380 O   0  0  0  0  0  0  0  0  0  0  0  0
   35.5920   30.9830   41.3810 O   0  0  0  0  0  0  0  0  0  0  0  0
   34.6540   30.9340   41.7810 H   0  0  0  0  0  0  0  0  0  0  0  0
   36.0800   29.4790   38.3240 C   0  0  0  0  0  2  0  0  0  0  0  0
   37.4350   30.2970   37.3950 S   0  0  0  0  0  0  0  0  0  0  0  0
   39.6780   32.7890   39.6370 C   0  0  0  0  0  0  0  0  0  0  0  0
   38.7090   33.7210   40.0650 C   0  0  0  0  0  0  0  0  0  0  0  0
   37.3850   33.5350   39.6360 C   0  0  0  0  0  0  0  0  0  0  0  0
   37.0950   32.4790   38.8350 N   0  0  0  0  0  0  0  0  0  0  0  0
   38.0640   31.6000   38.4430 C   0  0  0  0  0  0  0  0  0  0  0  0
   39.3360   31.7600   38.8420 N   0  0  0  0  0  0  0  0  0  0  0  0
   40.7130   32.8830   39.9360 H   0  0  0  0  0  0  0  0  0  0  0  0
   39.0110   34.5400   40.7040 H   0  0  0  0  0  0  0  0  0  0  0  0
   36.6380   34.2400   39.9570 H   0  0  0  0  0  0  0  0  0  0  0  0
  1  2  2  0  0  0  0
  2 12  1  0  0  0  0
  2  3  1  0  0  0  0
  3  4  1  0  0  0  0
  4  5  2  0  0  0  0
  6  7  1  0  0  0  0
  6  4  1  0  0  0  0
  8  9  1  6  0  0  0
  8  3  1  0  0  0  0
  8  6  1  0  0  0  0
 10  1  1  0  0  0  0
 10  9  1  0  0  0  0
 11 10  1  0  0  0  0
 12 14  1  0  0  0  0
 12 13  2  0  0  0  0
 14 15  1  0  0  0  0
 16  1  1  0  0  0  0
 17 16  1  0  0  0  0
 17 22  1  0  0  0  0
 18 24  1  0  0  0  0
 18 19  1  0  0  0  0
 19 25  1  0  0  0  0
 20 26  1  0  0  0  0
 20 19  2  0  0  0  0
 21 20  1  0  0  0  0
 22 21  2  0  0  0  0
 22 23  1  0  0  0  0
 23 18  2  0  0  0  0
M  END
>  <minimizedAffinity>
-5.02956963

$$$$

 OpenBabel03242521103D

 26 28  0  0  1  0  0  0  0  0999 V2000
   39.0210   28.1280   42.8830 C   0  0  0  0  0  0  0  0  0  0  0  0
   38.1240   27.4210   42.2530 C   0  0  0  0  0  0  0  0  0  0  0  0
   38.2980   26.0360   42.0210 N   0  0  0  0  0  0  0  0  0  0  0  0
   37.7620   24.7000   41.9210 C   0  0  0  0  0  0  0  0  0  0  0  0
   36.6450   24.3330   41.4840 O   0  0  0  0  0  0  0  0  0  0  0  0
   39.0730   24.2620   42.5190 C   0  0  0  0  0  3  0  0  0  0  0  0
   39.4110   23.2730   42.1590 H   0  0  0  0  0  0  0  0  0  0  0  0
   39.5800   25.4390   41.7100 C   0  0  2  0  0  3  0  0  0  0  0  0
   40.9680   26.3310   42.3770 S   0  0  0  0  0  0  0  0  0  0  0  0
   40.2810   27.6310   43.4280 C   0  0  0  0  0  3  0  0  0  0  0  0
   41.0240   28.4540   43.4140 H   0  0  0  0  0  0  0  0  0  0  0  0
   36.8860   28.0060   41.7450 C   0  0  0  0  0  0  0  0  0  0  0  0
   36.3110   27.6680   40.6570 O   0  0  0  0  0  0  0  0  0  0  0  0
   35.7560   28.7790   41.6130 O   0  0  0  0  0  0  0  0  0  0  0  0
   35.7470   29.7960   41.7110 H   0  0  0  0  0  0  0  0  0  0  0  0
   38.7140   29.5470   43.0490 C   0  0  0  0  0  2  0  0  0  0  0  0
   39.8980   30.5530   42.0720 S   0  0  0  0  0  0  0  0  0  0  0  0
   38.3650   33.7360   40.1250 C   0  0  0  0  0  0  0  0  0  0  0  0
   37.2170   33.1680   39.5310 C   0  0  0  0  0  0  0  0  0  0  0  0
   36.9640   31.8060   39.7630 C   0  0  0  0  0  0  0  0  0  0  0  0
   37.8230   31.0990   40.5390 N   0  0  0  0  0  0  0  0  0  0  0  0
   38.9230   31.6880   41.0940 C   0  0  0  0  0  0  0  0  0  0  0  0
   39.1840   32.9880   40.8850 N   0  0  0  0  0  0  0  0  0  0  0  0
   38.6090   34.7790   39.9800 H   0  0  0  0  0  0  0  0  0  0  0  0
   36.5740   33.7910   38.9240 H   0  0  0  0  0  0  0  0  0  0  0  0
   36.0910   31.3640   39.3150 H   0  0  0  0  0  0  0  0  0  0  0  0
  1 16  1  0  0  0  0
  1 10  1  0  0  0  0
  2  1  2  0  0  0  0
  3  2  1  0  0  0  0
  4  3  1  0  0  0  0
  4  6  1  0  0  0  0
  5  4  2  0  0  0  0
  7  6  1  0  0  0  0
  8  3  1  0  0  0  0
  8  9  1  1  0  0  0
  8  6  1  0  0  0  0
  9 10  1  0  0  0  0
 11 10  1  0  0  0  0
 12  2  1  0  0  0  0
 13 12  2  0  0  0  0
 14 15  1  0  0  0  0
 14 12  1  0  0  0  0
 17 16  1  0  0  0  0
 18 23  1  0  0  0  0
 19 20  1  0  0  0  0
 19 18  2  0  0  0  0
 20 21  2  0  0  0  0
 21 22  1  0  0  0  0
 22 17  1  0  0  0  0
 23 22  2  0  0  0  0
 24 18  1  0  0  0  0
 25 19  1  0  0  0  0
 26 20  1  0  0  0  0
M  END
>  <minimizedAffinity>
-4.99468899

$$$$

 OpenBabel03242521103D

 26 28  0  0  1  0  0  0  0  0999 V2000
   38.8810   29.4050   40.9860 C   0  0  0  0  0  0  0  0  0  0  0  0
   37.9380   29.8760   40.2170 C   0  0  0  0  0  0  0  0  0  0  0  0
   37.9150   29.6180   38.8260 N   0  0  0  0  0  0  0  0  0  0  0  0
   37.1890   29.3420   37.6100 C   0  0  0  0  0  0  0  0  0  0  0  0
   36.0670   29.7720   37.2500 O   0  0  0  0  0  0  0  0  0  0  0  0
   38.3660   28.4740   37.2510 C   0  0  0  0  0  3  0  0  0  0  0  0
   38.5760   28.4450   36.1660 H   0  0  0  0  0  0  0  0  0  0  0  0
   39.1100   29.5530   38.0110 C   0  0  2  0  0  3  0  0  0  0  0  0
   40.5620   29.0450   38.9070 S   0  0  0  0  0  0  0  0  0  0  0  0
   40.0030   28.5730   40.5590 C   0  0  0  0  0  3  0  0  0  0  0  0
   40.8620   28.7620   41.2340 H   0  0  0  0  0  0  0  0  0  0  0  0
   36.8480   30.6990   40.7360 C   0  0  0  0  0  0  0  0  0  0  0  0
   36.7290   31.9560   40.5460 O   0  0  0  0  0  0  0  0  0  0  0  0
   35.7040   31.1100   41.3780 O   0  0  0  0  0  0  0  0  0  0  0  0
   35.4820   30.8810   42.3490 H   0  0  0  0  0  0  0  0  0  0  0  0
   38.7830   29.7520   42.4020 C   0  0  0  0  0  2  0  0  0  0  0  0
   37.7230   28.5280   43.2650 S   0  0  0  0  0  0  0  0  0  0  0  0
   40.3010   25.4370   43.5330 C   0  0  0  0  0  0  0  0  0  0  0  0
   39.5950   24.4300   42.8410 C   0  0  0  0  0  0  0  0  0  0  0  0
   38.3340   24.7550   42.3140 C   0  0  0  0  0  0  0  0  0  0  0  0
   37.8510   26.0100   42.4900 N   0  0  0  0  0  0  0  0  0  0  0  0
   38.5680   26.9560   43.1670 C   0  0  0  0  0  0  0  0  0  0  0  0
   39.7750   26.6660   43.6790 N   0  0  0  0  0  0  0  0  0  0  0  0
   41.2750   25.2430   43.9600 H   0  0  0  0  0  0  0  0  0  0  0  0
   40.0400   23.4490   42.7380 H   0  0  0  0  0  0  0  0  0  0  0  0
   37.7880   23.9940   41.7850 H   0  0  0  0  0  0  0  0  0  0  0  0
  1 16  1  0  0  0  0
  2 12  1  0  0  0  0
  2  1  2  0  0  0  0
  3  2  1  0  0  0  0
  4  3  1  0  0  0  0
  5  4  2  0  0  0  0
  6  4  1  0  0  0  0
  7  6  1  0  0  0  0
  8  6  1  6  0  0  0
  8  3  1  0  0  0  0
  8  9  1  0  0  0  0
  9 10  1  0  0  0  0
 10  1  1  0  0  0  0
 10 11  1  0  0  0  0
 12 14  1  0  0  0  0
 13 12  2  0  0  0  0
 14 15  1  0  0  0  0
 16 17  1  0  0  0  0
 18 23  1  0  0  0  0
 18 24  1  0  0  0  0
 19 18  2  0  0  0  0
 20 21  2  0  0  0  0
 20 19  1  0  0  0  0
 21 22  1  0  0  0  0
 22 17  1  0  0  0  0
 22 23  2  0  0  0  0
 25 19  1  0  0  0  0
 26 20  1  0  0  0  0
M  END
>  <minimizedAffinity>
-4.91353464

$$$$

 OpenBabel03242521103D

 26 28  0  0  1  0  0  0  0  0999 V2000
   37.0650   31.6520   39.6630 C   0  0  0  0  0  0  0  0  0  0  0  0
   37.0960   31.1440   38.4630 C   0  0  0  0  0  0  0  0  0  0  0  0
   36.3500   29.9890   38.1260 N   0  0  0  0  0  0  0  0  0  0  0  0
   35.5570   29.2330   37.1860 C   0  0  0  0  0  0  0  0  0  0  0  0
   35.6740   29.1620   35.9390 O   0  0  0  0  0  0  0  0  0  0  0  0
   34.7820   28.7780   38.3960 C   0  0  0  0  0  3  0  0  0  0  0  0
   34.3900   27.7490   38.3030 H   0  0  0  0  0  0  0  0  0  0  0  0
   36.1520   28.8790   39.0340 C   0  0  2  0  0  3  0  0  0  0  0  0
   36.2020   29.3410   40.7530 S   0  0  0  0  0  0  0  0  0  0  0  0
   36.2920   31.1450   40.7930 C   0  0  0  0  0  3  0  0  0  0  0  0
   36.8260   31.3990   41.7320 H   0  0  0  0  0  0  0  0  0  0  0  0
   37.8980   31.7250   37.3890 C   0  0  0  0  0  0  0  0  0  0  0  0
   37.4590   32.0220   36.2290 O   0  0  0  0  0  0  0  0  0  0  0  0
   38.9480   32.2430   36.6670 O   0  0  0  0  0  0  0  0  0  0  0  0
   39.8630   31.7940   36.5900 H   0  0  0  0  0  0  0  0  0  0  0  0
   37.8870   32.8430   39.8730 C   0  0  0  0  0  2  0  0  0  0  0  0
   39.3690   32.4030   40.8630 S   0  0  0  0  0  0  0  0  0  0  0  0
   41.9660   33.9060   38.1670 C   0  0  0  0  0  0  0  0  0  0  0  0
   43.1220   34.0660   38.9600 C   0  0  0  0  0  0  0  0  0  0  0  0
   43.0480   33.6970   40.3130 C   0  0  0  0  0  0  0  0  0  0  0  0
   41.8800   33.2070   40.7970 N   0  0  0  0  0  0  0  0  0  0  0  0
   40.7830   33.0690   39.9950 C   0  0  0  0  0  0  0  0  0  0  0  0
   40.8330   33.4160   38.6990 N   0  0  0  0  0  0  0  0  0  0  0  0
   41.9660   34.1750   37.1200 H   0  0  0  0  0  0  0  0  0  0  0  0
   44.0220   34.4630   38.5070 H   0  0  0  0  0  0  0  0  0  0  0  0
   43.9240   33.8140   40.9250 H   0  0  0  0  0  0  0  0  0  0  0  0
  1 16  1  0  0  0  0
  1 10  1  0  0  0  0
  2  1  2  0  0  0  0
  3  2  1  0  0  0  0
  3  8  1  0  0  0  0
  4  3  1  0  0  0  0
  4  6  1  0  0  0  0
  5  4  2  0  0  0  0
  7  6  1  0  0  0  0
  8  6  1  6  0  0  0
  8  9  1  0  0  0  0
  9 10  1  0  0  0  0
 10 11  1  0  0  0  0
 12  2  1  0  0  0  0
 13 12  2  0  0  0  0
 14 12  1  0  0  0  0
 15 14  1  0  0  0  0
 16 17  1  0  0  0  0
 18 23  2  0  0  0  0
 18 19  1  0  0  0  0
 19 20  2  0  0  0  0
 20 21  1  0  0  0  0
 20 26  1  0  0  0  0
 22 21  2  0  0  0  0
 22 17  1  0  0  0  0
 23 22  1  0  0  0  0
 24 18  1  0  0  0  0
 25 19  1  0  0  0  0
M  END
>  <minimizedAffinity>
-4.87069988

$$$$

 OpenBabel03242521103D

 26 28  0  0  1  0  0  0  0  0999 V2000
   37.7530   30.3590   38.2830 C   0  0  0  0  0  0  0  0  0  0  0  0
   38.3760   31.4090   38.7420 C   0  0  0  0  0  0  0  0  0  0  0  0
   39.7270   31.6730   38.4160 N   0  0  0  0  0  0  0  0  0  0  0  0
   40.7880   32.6000   38.1000 C   0  0  0  0  0  0  0  0  0  0  0  0
   40.9760   33.7580   38.5430 O   0  0  0  0  0  0  0  0  0  0  0  0
   41.2920   31.5170   37.1810 C   0  0  0  0  0  3  0  0  0  0  0  0
   42.3940   31.4960   37.0930 H   0  0  0  0  0  0  0  0  0  0  0  0
   40.7270   30.6350   38.2760 C   0  0  2  0  0  3  0  0  0  0  0  0
   40.0630   29.0620   37.7720 S   0  0  0  0  0  0  0  0  0  0  0  0
   38.3170   29.3420   37.4000 C   0  0  0  0  0  3  0  0  0  0  0  0
   37.8080   28.3770   37.5970 H   0  0  0  0  0  0  0  0  0  0  0  0
   37.7270   32.3780   39.6210 C   0  0  0  0  0  0  0  0  0  0  0  0
   38.1510   32.7150   40.7770 O   0  0  0  0  0  0  0  0  0  0  0  0
   36.8500   33.3070   40.1330 O   0  0  0  0  0  0  0  0  0  0  0  0
   35.8370   33.1810   40.1560 H   0  0  0  0  0  0  0  0  0  0  0  0
   36.3620   30.2080   38.7040 C   0  0  0  0  0  2  0  0  0  0  0  0
   36.0830   28.4990   39.3120 S   0  0  0  0  0  0  0  0  0  0  0  0
   37.6800   29.2400   42.9410 C   0  0  0  0  0  0  0  0  0  0  0  0
   37.9200   27.9300   43.4090 C   0  0  0  0  0  0  0  0  0  0  0  0
   37.5730   26.8590   42.5690 C   0  0  0  0  0  0  0  0  0  0  0  0
   37.0260   27.1240   41.3560 N   0  0  0  0  0  0  0  0  0  0  0  0
   36.8100   28.4090   40.9430 C   0  0  0  0  0  0  0  0  0  0  0  0
   37.1350   29.4460   41.7300 N   0  0  0  0  0  0  0  0  0  0  0  0
   37.9270   30.1010   43.5460 H   0  0  0  0  0  0  0  0  0  0  0  0
   38.3600   27.7910   44.3870 H   0  0  0  0  0  0  0  0  0  0  0  0
   37.7520   25.8570   42.9150 H   0  0  0  0  0  0  0  0  0  0  0  0
  1 16  1  0  0  0  0
  1  2  2  0  0  0  0
  2 12  1  0  0  0  0
  3  2  1  0  0  0  0
  4  3  1  0  0  0  0
  4  5  2  0  0  0  0
  6  4  1  0  0  0  0
  7  6  1  0  0  0  0
  8  6  1  6  0  0  0
  8  3  1  0  0  0  0
  9  8  1  0  0  0  0
 10 11  1  0  0  0  0
 10  9  1  0  0  0  0
 10  1  1  0  0  0  0
 12 14  1  0  0  0  0
 12 13  2  0  0  0  0
 14 15  1  0  0  0  0
 16 17  1  0  0  0  0
 17 22  1  0  0  0  0
 18 19  1  0  0  0  0
 18 24  1  0  0  0  0
 19 25  1  0  0  0  0
 20 26  1  0  0  0  0
 20 19  2  0  0  0  0
 21 20  1  0  0  0  0
 22 21  2  0  0  0  0
 22 23  1  0  0  0  0
 23 18  2  0  0  0  0
M  END
>  <minimizedAffinity>
-4.78246737

$$$$

 OpenBabel03242521103D

 26 28  0  0  1  0  0  0  0  0999 V2000
   37.1750   29.2480   38.4950 C   0  0  0  0  0  0  0  0  0  0  0  0
   37.4670   30.2800   39.2370 C   0  0  0  0  0  0  0  0  0  0  0  0
   38.5820   31.1050   38.9570 N   0  0  0  0  0  0  0  0  0  0  0  0
   39.2040   32.4060   38.9080 C   0  0  0  0  0  0  0  0  0  0  0  0
   39.0530   33.3780   39.6860 O   0  0  0  0  0  0  0  0  0  0  0  0
   39.8990   31.8910   37.6750 C   0  0  0  0  0  3  0  0  0  0  0  0
   40.9150   32.3040   37.5400 H   0  0  0  0  0  0  0  0  0  0  0  0
   39.8410   30.5940   38.4560 C   0  0  2  0  0  3  0  0  0  0  0  0
   39.6810   29.0950   37.5090 S   0  0  0  0  0  0  0  0  0  0  0  0
   37.9090   28.8020   37.3140 C   0  0  0  0  0  3  0  0  0  0  0  0
   37.7930   27.7030   37.2170 H   0  0  0  0  0  0  0  0  0  0  0  0
   36.6690   30.6540   40.4020 C   0  0  0  0  0  0  0  0  0  0  0  0
   37.1470   31.0540   41.5160 O   0  0  0  0  0  0  0  0  0  0  0  0
   35.6100   30.9050   41.2430 O   0  0  0  0  0  0  0  0  0  0  0  0
   34.8450   30.2470   41.4080 H   0  0  0  0  0  0  0  0  0  0  0  0
   35.9980   28.4820   38.9020 C   0  0  0  0  0  2  0  0  0  0  0  0
   36.5220   26.8560   39.5730 S   0  0  0  0  0  0  0  0  0  0  0  0
   37.0320   27.9410   43.4240 C   0  0  0  0  0  0  0  0  0  0  0  0
   38.3300   27.4480   43.6790 C   0  0  0  0  0  0  0  0  0  0  0  0
   39.0000   26.7930   42.6330 C   0  0  0  0  0  0  0  0  0  0  0  0
   38.3800   26.6610   41.4340 N   0  0  0  0  0  0  0  0  0  0  0  0
   37.1220   27.1520   41.2300 C   0  0  0  0  0  0  0  0  0  0  0  0
   36.4640   27.7820   42.2160 N   0  0  0  0  0  0  0  0  0  0  0  0
   36.4690   28.4530   44.1920 H   0  0  0  0  0  0  0  0  0  0  0  0
   38.7650   27.5890   44.6600 H   0  0  0  0  0  0  0  0  0  0  0  0
   39.9900   26.4140   42.8170 H   0  0  0  0  0  0  0  0  0  0  0  0
  1 16  1  0  0  0  0
  1  2  2  0  0  0  0
  2 12  1  0  0  0  0
  3  2  1  0  0  0  0
  4  3  1  0  0  0  0
  4  5  2  0  0  0  0
  6  8  1  0  0  0  0
  6  4  1  0  0  0  0
  7  6  1  0  0  0  0
  8  9  1  6  0  0  0
  8  3  1  0  0  0  0
 10  9  1  0  0  0  0
 10  1  1  0  0  0  0
 11 10  1  0  0  0  0
 12 14  1  0  0  0  0
 12 13  2  0  0  0  0
 14 15  1  0  0  0  0
 16 17  1  0  0  0  0
 17 22  1  0  0  0  0
 18 19  1  0  0  0  0
 18 24  1  0  0  0  0
 19 25  1  0  0  0  0
 20 26  1  0  0  0  0
 20 19  2  0  0  0  0
 21 20  1  0  0  0  0
 22 21  2  0  0  0  0
 22 23  1  0  0  0  0
 23 18  2  0  0  0  0
M  END
>  <minimizedAffinity>
-4.74328279

$$$$

 OpenBabel03242521103D

 26 28  0  0  1  0  0  0  0  0999 V2000
   37.1520   27.9560   40.7520 C   0  0  0  0  0  0  0  0  0  0  0  0
   37.0900   29.0910   40.1130 C   0  0  0  0  0  0  0  0  0  0  0  0
   37.6590   29.2510   38.8270 N   0  0  0  0  0  0  0  0  0  0  0  0
   37.6260   29.8130   37.4980 C   0  0  0  0  0  0  0  0  0  0  0  0
   37.2080   30.9370   37.1310 O   0  0  0  0  0  0  0  0  0  0  0  0
   38.2400   28.5070   37.0660 C   0  0  0  0  0  3  0  0  0  0  0  0
   38.9290   28.6100   36.2070 H   0  0  0  0  0  0  0  0  0  0  0  0
   38.9000   28.6240   38.4240 C   0  0  2  0  0  3  0  0  0  0  0  0
   39.2450   27.1010   39.2800 S   0  0  0  0  0  0  0  0  0  0  0  0
   37.7780   26.7290   40.2680 C   0  0  0  0  0  3  0  0  0  0  0  0
   38.1420   26.1470   41.1390 H   0  0  0  0  0  0  0  0  0  0  0  0
   36.4360   30.2690   40.6770 C   0  0  0  0  0  0  0  0  0  0  0  0
   36.8740   31.4640   40.5800 O   0  0  0  0  0  0  0  0  0  0  0  0
   35.5510   31.0920   41.3340 O   0  0  0  0  0  0  0  0  0  0  0  0
   35.2100   30.9210   42.2820 H   0  0  0  0  0  0  0  0  0  0  0  0
   36.5260   27.9320   42.0730 C   0  0  0  0  0  2  0  0  0  0  0  0
   37.8050   27.6320   43.3560 S   0  0  0  0  0  0  0  0  0  0  0  0
   40.1430   30.8490   42.6820 C   0  0  0  0  0  0  0  0  0  0  0  0
   41.4020   30.2400   42.4940 C   0  0  0  0  0  0  0  0  0  0  0  0
   41.4730   28.8400   42.5840 C   0  0  0  0  0  0  0  0  0  0  0  0
   40.3430   28.1390   42.8470 N   0  0  0  0  0  0  0  0  0  0  0  0
   39.1430   28.7690   43.0230 C   0  0  0  0  0  0  0  0  0  0  0  0
   39.0530   30.1060   42.9400 N   0  0  0  0  0  0  0  0  0  0  0  0
   40.0290   31.9230   42.6240 H   0  0  0  0  0  0  0  0  0  0  0  0
   42.2630   30.8610   42.2870 H   0  0  0  0  0  0  0  0  0  0  0  0
   42.4280   28.3660   42.4420 H   0  0  0  0  0  0  0  0  0  0  0  0
  1 16  1  0  0  0  0
  2 12  1  0  0  0  0
  2  1  2  0  0  0  0
  3  2  1  0  0  0  0
  4  3  1  0  0  0  0
  5  4  2  0  0  0  0
  6  4  1  0  0  0  0
  7  6  1  0  0  0  0
  8  6  1  6  0  0  0
  8  3  1  0  0  0  0
  8  9  1  0  0  0  0
  9 10  1  0  0  0  0
 10  1  1  0  0  0  0
 10 11  1  0  0  0  0
 12 14  1  0  0  0  0
 13 12  2  0  0  0  0
 14 15  1  0  0  0  0
 16 17  1  0  0  0  0
 18 23  1  0  0  0  0
 19 20  1  0  0  0  0
 19 18  2  0  0  0  0
 20 21  2  0  0  0  0
 21 22  1  0  0  0  0
 22 17  1  0  0  0  0
 23 22  2  0  0  0  0
 24 18  1  0  0  0  0
 25 19  1  0  0  0  0
 26 20  1  0  0  0  0
M  END
>  <minimizedAffinity>
-4.70201635

$$$$

 OpenBabel03242521103D

 26 28  0  0  1  0  0  0  0  0999 V2000
   37.1260   27.8870   40.7420 C   0  0  0  0  0  0  0  0  0  0  0  0
   37.4180   29.0000   41.3570 C   0  0  0  0  0  0  0  0  0  0  0  0
   38.5610   29.1130   42.1850 N   0  0  0  0  0  0  0  0  0  0  0  0
   39.6740   29.8770   42.6950 C   0  0  0  0  0  0  0  0  0  0  0  0
   39.7340   31.1050   42.9440 O   0  0  0  0  0  0  0  0  0  0  0  0
   40.4140   28.5650   42.6940 C   0  0  0  0  0  3  0  0  0  0  0  0
   41.1560   28.4800   43.5090 H   0  0  0  0  0  0  0  0  0  0  0  0
   39.0350   28.0410   43.0340 C   0  0  2  0  0  3  0  0  0  0  0  0
   38.6250   26.4160   42.4340 S   0  0  0  0  0  0  0  0  0  0  0  0
   37.8940   26.6460   40.7990 C   0  0  0  0  0  3  0  0  0  0  0  0
   37.2000   25.7920   40.6560 H   0  0  0  0  0  0  0  0  0  0  0  0
   36.5910   30.1970   41.2370 C   0  0  0  0  0  0  0  0  0  0  0  0
   36.8610   31.2000   40.4960 O   0  0  0  0  0  0  0  0  0  0  0  0
   35.5810   31.1170   41.3970 O   0  0  0  0  0  0  0  0  0  0  0  0
   35.2400   31.4370   42.3050 H   0  0  0  0  0  0  0  0  0  0  0  0
   35.9160   27.9100   39.9230 C   0  0  0  0  0  2  0  0  0  0  0  0
   36.3450   27.5410   38.1770 S   0  0  0  0  0  0  0  0  0  0  0  0
   34.0790   29.0760   35.2150 C   0  0  0  0  0  0  0  0  0  0  0  0
   32.8790   29.3550   35.9030 C   0  0  0  0  0  0  0  0  0  0  0  0
   32.8230   29.0520   37.2730 C   0  0  0  0  0  0  0  0  0  0  0  0
   33.9110   28.5090   37.8730 N   0  0  0  0  0  0  0  0  0  0  0  0
   35.0540   28.2540   37.1680 C   0  0  0  0  0  0  0  0  0  0  0  0
   35.1290   28.5360   35.8580 N   0  0  0  0  0  0  0  0  0  0  0  0
   34.1790   29.2870   34.1590 H   0  0  0  0  0  0  0  0  0  0  0  0
   32.0490   29.7900   35.3620 H   0  0  0  0  0  0  0  0  0  0  0  0
   31.9130   29.2620   37.8070 H   0  0  0  0  0  0  0  0  0  0  0  0
  1 10  1  0  0  0  0
  1  2  2  0  0  0  0
  2  3  1  0  0  0  0
  3  4  1  0  0  0  0
  3  8  1  0  0  0  0
  4  5  2  0  0  0  0
  6  4  1  0  0  0  0
  6  8  1  0  0  0  0
  6  7  1  0  0  0  0
  8  9  1  6  0  0  0
 10  9  1  0  0  0  0
 11 10  1  0  0  0  0
 12  2  1  0  0  0  0
 12 14  1  0  0  0  0
 13 12  2  0  0  0  0
 14 15  1  0  0  0  0
 16  1  1  0  0  0  0
 17 16  1  0  0  0  0
 18 23  2  0  0  0  0
 18 19  1  0  0  0  0
 19 20  2  0  0  0  0
 20 26  1  0  0  0  0
 20 21  1  0  0  0  0
 22 21  2  0  0  0  0
 22 17  1  0  0  0  0
 23 22  1  0  0  0  0
 24 18  1  0  0  0  0
 25 19  1  0  0  0  0
M  END
>  <minimizedAffinity>
-4.62909412

$$$$
