
 OpenBabel03242512163D

 40 43  0  0  1  0  0  0  0  0999 V2000
   48.5460   32.9870   41.5240 C   0  0  0  0  0  0  0  0  0  0  0  0
   48.0800   34.2430   41.8780 C   0  0  0  0  0  0  0  0  0  0  0  0
   48.9510   35.1610   42.4310 C   0  0  0  0  0  0  0  0  0  0  0  0
   50.2750   34.7850   42.6120 C   0  0  0  0  0  0  0  0  0  0  0  0
   50.6910   33.5250   42.2440 C   0  0  0  0  0  0  0  0  0  0  0  0
   49.8520   32.5820   41.6900 C   0  0  0  0  0  0  0  0  0  0  0  0
   48.5200   36.1000   42.6740 H   0  0  0  0  0  0  0  0  0  0  0  0
   50.8650   35.5720   43.0490 H   0  0  0  0  0  0  0  0  0  0  0  0
   51.7310   33.4250   42.4570 H   0  0  0  0  0  0  0  0  0  0  0  0
   46.6430   34.4840   41.6070 C   0  0  0  0  0  0  0  0  0  0  0  0
   46.1800   33.7090   41.0260 H   0  0  0  0  0  0  0  0  0  0  0  0
   46.6210   35.4130   40.9730 H   0  0  0  0  0  0  0  0  0  0  0  0
   45.9350   34.8230   42.8900 C   0  0  0  0  0  0  0  0  0  0  0  0
   45.9700   33.8640   43.8960 C   0  0  0  0  0  0  0  0  0  0  0  0
   45.3300   34.1520   45.1050 C   0  0  0  0  0  0  0  0  0  0  0  0
   44.7140   35.3510   45.2170 N   0  0  0  0  0  0  0  0  0  0  0  0
   44.6990   36.2760   44.2070 C   0  0  0  0  0  0  0  0  0  0  0  0
   45.3110   36.0080   43.0420 N   0  0  0  0  0  0  0  0  0  0  0  0
   46.4830   32.9230   43.7330 H   0  0  0  0  0  0  0  0  0  0  0  0
   45.3260   33.4520   45.9070 H   0  0  0  0  0  0  0  0  0  0  0  0
   44.1940   37.2010   44.3660 H   0  0  0  0  0  0  0  0  0  0  0  0
   47.7220   31.9880   40.9520 O   0  0  0  0  0  0  0  0  0  0  0  0
   47.2860   32.2550   40.0920 H   0  0  0  0  0  0  0  0  0  0  0  0
   50.3460   31.3630   41.3520 O   0  0  0  0  0  0  0  0  0  0  0  0
   51.4950   30.6750   41.6480 C   0  0  0  0  0  2  0  0  0  0  0  0
   52.2970   30.2460   40.4720 C   0  0  0  0  0  0  0  0  0  0  0  0
   52.6260   28.9990   40.1610 C   0  0  0  0  0  0  0  0  0  0  0  0
   53.3920   28.7430   39.0220 N   0  0  0  0  0  0  0  0  0  0  0  0
   53.7090   27.9000   37.9330 C   0  0  0  0  0  0  0  0  0  0  0  0
   53.4920   26.6990   37.5550 O   0  0  0  0  0  0  0  0  0  0  0  0
   54.4920   28.9370   37.2160 C   0  0  0  0  0  3  0  0  0  0  0  0
   53.8410   29.3610   36.4130 H   0  0  0  0  0  0  0  0  0  0  0  0
   54.4160   29.6530   38.5470 C   0  0  1  0  0  3  0  0  0  0  0  0
   53.6770   31.2930   38.3110 S   0  0  0  0  0  0  0  0  0  0  0  0
   52.6270   31.4750   39.7590 C   0  0  0  0  0  3  0  0  0  0  0  0
   51.6940   32.0410   39.5090 H   0  0  0  0  0  0  0  0  0  0  0  0
   52.2150   27.8490   40.9850 C   0  0  0  0  0  0  0  0  0  0  0  0
   52.5940   27.2690   42.0310 O   0  0  0  0  0  0  0  0  0  0  0  0
   51.1390   27.0610   40.6950 O   0  0  0  0  0  0  0  0  0  0  0  0
   50.3820   26.8190   41.3470 H   0  0  0  0  0  0  0  0  0  0  0  0
  1  6  2  0  0  0  0
  1  2  1  0  0  0  0
  2  3  2  0  0  0  0
  3  4  1  0  0  0  0
  3  7  1  0  0  0  0
  4  8  1  0  0  0  0
  5  9  1  0  0  0  0
  5  4  2  0  0  0  0
  6  5  1  0  0  0  0
 10  2  1  0  0  0  0
 10 13  1  0  0  0  0
 11 10  1  0  0  0  0
 12 10  1  0  0  0  0
 13 18  2  0  0  0  0
 13 14  1  0  0  0  0
 14 15  2  0  0  0  0
 15 16  1  0  0  0  0
 15 20  1  0  0  0  0
 17 21  1  0  0  0  0
 17 16  2  0  0  0  0
 18 17  1  0  0  0  0
 19 14  1  0  0  0  0
 22  1  1  0  0  0  0
 23 22  1  0  0  0  0
 24 25  1  0  0  0  0
 24  6  1  0  0  0  0
 26 25  1  0  0  0  0
 27 26  2  0  0  0  0
 27 37  1  0  0  0  0
 28 27  1  0  0  0  0
 29 28  1  0  0  0  0
 30 29  2  0  0  0  0
 31 29  1  0  0  0  0
 32 31  1  0  0  0  0
 33 31  1  6  0  0  0
 33 28  1  0  0  0  0
 34 33  1  0  0  0  0
 34 35  1  0  0  0  0
 35 26  1  0  0  0  0
 36 35  1  0  0  0  0
 37 38  2  0  0  0  0
 39 37  1  0  0  0  0
 39 40  1  0  0  0  0
M  END
>  <minimizedAffinity>
-4.83984709

>  <minimizedRMSD>
2.0511775

$$$$
