
 OpenBabel03252503363D

 49 53  0  0  1  0  0  0  0  0999 V2000
   49.1650   30.3120   40.2880 C   0  0  0  0  0  0  0  0  0  0  0  0
   49.8630   30.5530   39.1800 C   0  0  0  0  0  0  0  0  0  0  0  0
   51.2600   30.7820   39.2500 N   0  0  0  0  0  0  0  0  0  0  0  0
   52.5510   30.6350   38.6940 C   0  0  0  0  0  0  0  0  0  0  0  0
   53.0210   30.1770   37.6070 O   0  0  0  0  0  0  0  0  0  0  0  0
   53.2550   31.2110   39.8280 C   0  0  1  0  0  0  0  0  0  0  0  0
   51.8670   31.4980   40.3550 C   0  0  2  0  0  0  0  0  0  0  0  0
   51.4040   30.6460   41.8650 S   0  0  0  0  0  0  0  0  0  0  0  0
   49.6680   30.2380   41.6910 C   0  0  0  0  0  0  0  0  0  0  0  0
   53.8040   32.1550   39.6080 H   0  0  0  0  0  0  0  0  0  0  0  0
   51.6190   32.5810   40.3240 H   0  0  0  0  0  0  0  0  0  0  0  0
   49.4990   29.1950   42.0280 H   0  0  0  0  0  0  0  0  0  0  0  0
   49.0600   30.8890   42.3500 H   0  0  0  0  0  0  0  0  0  0  0  0
   54.0540   30.2440   40.5660 C   0  0  0  0  0  0  0  0  0  0  0  0
   54.6960   30.2980   41.6300 O   0  0  0  0  0  0  0  0  0  0  0  0
   54.1100   28.9480   39.9300 N   0  0  0  0  0  0  0  0  0  0  0  0
   53.6950   28.5450   39.0590 H   0  0  0  0  0  0  0  0  0  0  0  0
   56.8830   26.6370   40.7860 C   0  0  0  0  0  0  0  0  0  0  0  0
   56.1960   27.7160   40.2320 C   0  0  0  0  0  0  0  0  0  0  0  0
   54.8520   27.8800   40.4910 C   0  0  0  0  0  0  0  0  0  0  0  0
   54.2350   26.9850   41.2810 N   0  0  0  0  0  0  0  0  0  0  0  0
   54.9130   25.9300   41.8220 C   0  0  0  0  0  0  0  0  0  0  0  0
   56.2210   25.7750   41.5650 N   0  0  0  0  0  0  0  0  0  0  0  0
   57.9370   26.4850   40.6000 H   0  0  0  0  0  0  0  0  0  0  0  0
   56.7270   28.4080   39.6070 H   0  0  0  0  0  0  0  0  0  0  0  0
   54.3330   25.2630   42.4430 H   0  0  0  0  0  0  0  0  0  0  0  0
   47.7120   30.0950   40.0840 C   0  0  0  0  0  0  0  0  0  0  0  0
   47.4800   28.9920   40.1140 H   0  0  0  0  0  0  0  0  0  0  0  0
   47.1760   30.5310   40.9690 H   0  0  0  0  0  0  0  0  0  0  0  0
   47.3240   30.5100   39.1540 H   0  0  0  0  0  0  0  0  0  0  0  0
   49.2260   30.5930   37.8770 C   0  0  0  0  0  0  0  0  0  0  0  0
   49.5760   31.3640   36.9590 O   0  0  0  0  0  0  0  0  0  0  0  0
   48.1740   29.8860   37.3230 O   0  0  0  0  0  0  0  0  0  0  0  0
   47.6150   30.2190   36.0620 C   0  0  0  0  0  2  0  0  0  0  0  0
   46.1480   30.2770   36.2410 C   0  0  0  0  0  0  0  0  0  0  0  0
   45.2870   29.4270   35.7600 C   0  0  0  0  0  0  0  0  0  0  0  0
   43.9250   29.6320   36.0200 N   0  0  0  0  0  0  0  0  0  0  0  0
   42.6310   29.0510   36.2870 C   0  0  0  0  0  0  0  0  0  0  0  0
   42.1110   27.8870   36.2210 O   0  0  0  0  0  0  0  0  0  0  0  0
   42.0320   30.3230   36.6980 C   0  0  0  0  0  3  0  0  0  0  0  0
   41.9380   30.3760   37.8060 H   0  0  0  0  0  0  0  0  0  0  0  0
   43.2810   30.9220   36.1120 C   0  0  1  0  0  3  0  0  0  0  0  0
   44.1920   31.8340   37.4090 S   0  0  0  0  0  0  0  0  0  0  0  0
   45.9060   31.4750   37.0550 C   0  0  0  0  0  3  0  0  0  0  0  0
   46.3460   32.4090   36.5950 H   0  0  0  0  0  0  0  0  0  0  0  0
   45.6750   28.2720   34.9560 C   0  0  0  0  0  0  0  0  0  0  0  0
   46.7280   27.7760   34.4910 O   0  0  0  0  0  0  0  0  0  0  0  0
   44.7860   27.3400   34.4690 O   0  0  0  0  0  0  0  0  0  0  0  0
   44.8560   26.3180   34.5950 H   0  0  0  0  0  0  0  0  0  0  0  0
  1  9  1  0  0  0  0
  2  3  1  0  0  0  0
  2  1  2  0  0  0  0
  3  7  1  0  0  0  0
  4  3  1  0  0  0  0
  4  6  1  0  0  0  0
  5  4  2  0  0  0  0
  6 10  1  6  0  0  0
  6  7  1  0  0  0  0
  6 14  1  0  0  0  0
  7 11  1  1  0  0  0
  7  8  1  0  0  0  0
  9  8  1  0  0  0  0
  9 12  1  0  0  0  0
  9 13  1  0  0  0  0
 14 15  2  0  0  0  0
 16 20  1  0  0  0  0
 16 14  1  0  0  0  0
 17 16  1  0  0  0  0
 18 23  1  0  0  0  0
 19 20  1  0  0  0  0
 19 18  2  0  0  0  0
 20 21  2  0  0  0  0
 21 22  1  0  0  0  0
 22 26  1  0  0  0  0
 23 22  2  0  0  0  0
 24 18  1  0  0  0  0
 25 19  1  0  0  0  0
 27 28  1  0  0  0  0
 27  1  1  0  0  0  0
 27 29  1  0  0  0  0
 30 27  1  0  0  0  0
 31  2  1  0  0  0  0
 32 31  2  0  0  0  0
 33 31  1  0  0  0  0
 34 35  1  0  0  0  0
 34 33  1  0  0  0  0
 35 44  1  0  0  0  0
 36 37  1  0  0  0  0
 36 35  2  0  0  0  0
 37 42  1  0  0  0  0
 37 38  1  0  0  0  0
 38 40  1  0  0  0  0
 39 38  2  0  0  0  0
 40 41  1  0  0  0  0
 42 40  1  1  0  0  0
 42 43  1  0  0  0  0
 44 43  1  0  0  0  0
 45 44  1  0  0  0  0
 46 36  1  0  0  0  0
 47 46  2  0  0  0  0
 48 49  1  0  0  0  0
 48 46  1  0  0  0  0
M  END
>  <minimizedAffinity>
-2.44034767

>  <minimizedRMSD>
10.5652809

$$$$
