
 OpenBabel03242517433D

 26 28  0  0  1  0  0  0  0  0999 V2000
   42.5170   33.1910   40.6660 C   0  0  0  0  0  0  0  0  0  0  0  0
   41.5160   33.5560   39.8840 C   0  0  0  0  0  0  0  0  0  0  0  0
   40.2300   32.9810   40.1040 N   0  0  0  0  0  0  0  0  0  0  0  0
   38.8360   33.2260   40.2530 C   0  0  0  0  0  0  0  0  0  0  0  0
   37.9960   34.1300   39.9200 O   0  0  0  0  0  0  0  0  0  0  0  0
   38.7100   31.9450   40.9960 C   0  0  0  0  0  0  0  0  0  0  0  0
   38.7900   32.1310   42.0800 H   0  0  0  0  0  0  0  0  0  0  0  0
   39.9640   31.5520   40.2750 C   0  0  2  0  0  0  0  0  0  0  0  0
   41.2660   30.8440   41.2780 S   0  0  0  0  0  0  0  0  0  0  0  0
   42.3550   32.2380   41.7700 C   0  0  0  0  0  0  0  0  0  0  0  0
   43.3180   31.8410   42.1210 H   0  0  0  0  0  0  0  0  0  0  0  0
   41.6510   34.5220   38.7710 C   0  0  0  0  0  0  0  0  0  0  0  0
   42.2980   35.5520   38.4670 O   0  0  0  0  0  0  0  0  0  0  0  0
   40.9840   34.5300   37.5940 O   0  0  0  0  0  0  0  0  0  0  0  0
   40.3100   35.2300   37.2580 H   0  0  0  0  0  0  0  0  0  0  0  0
   43.8940   33.6950   40.5360 C   0  0  0  0  0  0  0  0  0  0  0  0
   44.1440   35.2320   41.4770 S   0  0  0  0  0  0  0  0  0  0  0  0
   44.3250   35.6560   44.2060 C   0  0  0  0  0  0  0  0  0  0  0  0
   44.6280   34.7890   43.1460 C   0  0  0  0  0  0  0  0  0  0  0  0
   45.2970   33.6030   43.4090 C   0  0  0  0  0  0  0  0  0  0  0  0
   45.6310   33.3380   44.7000 N   0  0  0  0  0  0  0  0  0  0  0  0
   45.3320   34.1820   45.7030 C   0  0  0  0  0  0  0  0  0  0  0  0
   44.6860   35.3380   45.4850 N   0  0  0  0  0  0  0  0  0  0  0  0
   43.8070   36.5740   43.9900 H   0  0  0  0  0  0  0  0  0  0  0  0
   45.5430   32.9210   42.6310 H   0  0  0  0  0  0  0  0  0  0  0  0
   45.6340   33.8960   46.7130 H   0  0  0  0  0  0  0  0  0  0  0  0
  1 10  1  0  0  0  0
  2  3  1  0  0  0  0
  2  1  2  0  0  0  0
  3  4  1  0  0  0  0
  3  8  1  0  0  0  0
  4  6  1  0  0  0  0
  5  4  2  0  0  0  0
  6  7  1  0  0  0  0
  8  6  1  1  0  0  0
  8  9  1  0  0  0  0
  9 10  1  0  0  0  0
 10 11  1  0  0  0  0
 12  2  1  0  0  0  0
 13 12  2  0  0  0  0
 14 12  1  0  0  0  0
 15 14  1  0  0  0  0
 16  1  1  0  0  0  0
 16 17  1  0  0  0  0
 17 19  1  0  0  0  0
 18 23  1  0  0  0  0
 19 20  1  0  0  0  0
 19 18  2  0  0  0  0
 20 21  2  0  0  0  0
 21 22  1  0  0  0  0
 22 26  1  0  0  0  0
 23 22  2  0  0  0  0
 24 18  1  0  0  0  0
 25 20  1  0  0  0  0
M  END
>  <minimizedAffinity>
-4.88973808

>  <minimizedRMSD>
1.46427417

$$$$
