
 OpenBabel03242511173D

 26 28  0  0  1  0  0  0  0  0999 V2000
   36.2300   28.3790   39.1610 C   0  0  0  0  0  0  0  0  0  0  0  0
   36.4160   28.5870   40.4300 C   0  0  0  0  0  0  0  0  0  0  0  0
   36.8860   27.5610   41.2730 N   0  0  0  0  0  0  0  0  0  0  0  0
   36.7360   26.8540   42.5240 C   0  0  0  0  0  0  0  0  0  0  0  0
   36.2910   27.1440   43.6740 O   0  0  0  0  0  0  0  0  0  0  0  0
   37.3390   25.6820   41.7940 C   0  0  0  0  0  3  0  0  0  0  0  0
   37.9880   25.1560   42.5050 H   0  0  0  0  0  0  0  0  0  0  0  0
   38.0300   26.7020   40.9180 C   0  0  1  0  0  3  0  0  0  0  0  0
   38.0080   26.3900   39.1510 S   0  0  0  0  0  0  0  0  0  0  0  0
   36.4700   27.0790   38.4860 C   0  0  0  0  0  3  0  0  0  0  0  0
   36.6020   27.1850   37.3980 H   0  0  0  0  0  0  0  0  0  0  0  0
   36.1380   29.9070   40.9970 C   0  0  0  0  0  0  0  0  0  0  0  0
   36.9440   30.5810   41.7100 O   0  0  0  0  0  0  0  0  0  0  0  0
   35.5930   31.0960   41.3740 O   0  0  0  0  0  0  0  0  0  0  0  0
   34.5970   31.2640   41.5760 H   0  0  0  0  0  0  0  0  0  0  0  0
   35.7480   29.4570   38.3050 C   0  0  0  0  0  2  0  0  0  0  0  0
   37.1410   30.2020   37.3710 S   0  0  0  0  0  0  0  0  0  0  0  0
   39.6710   32.5590   39.4890 C   0  0  0  0  0  0  0  0  0  0  0  0
   39.1830   31.4960   38.6810 C   0  0  0  0  0  0  0  0  0  0  0  0
   37.8000   31.5110   38.3780 C   0  0  0  0  0  0  0  0  0  0  0  0
   37.0410   32.5140   38.8660 N   0  0  0  0  0  0  0  0  0  0  0  0
   37.5430   33.4980   39.6250 C   0  0  0  0  0  0  0  0  0  0  0  0
   38.8530   33.5250   39.9390 N   0  0  0  0  0  0  0  0  0  0  0  0
   40.7080   32.6350   39.7720 H   0  0  0  0  0  0  0  0  0  0  0  0
   39.8610   30.7430   38.3390 H   0  0  0  0  0  0  0  0  0  0  0  0
   36.7840   34.2180   39.9270 H   0  0  0  0  0  0  0  0  0  0  0  0
  1  2  2  0  0  0  0
  2 12  1  0  0  0  0
  2  3  1  0  0  0  0
  3  4  1  0  0  0  0
  4  5  2  0  0  0  0
  6  7  1  0  0  0  0
  6  4  1  0  0  0  0
  8  9  1  6  0  0  0
  8  3  1  0  0  0  0
  8  6  1  0  0  0  0
 10  9  1  0  0  0  0
 10  1  1  0  0  0  0
 11 10  1  0  0  0  0
 12 14  1  0  0  0  0
 12 13  2  0  0  0  0
 14 15  1  0  0  0  0
 16  1  1  0  0  0  0
 17 16  1  0  0  0  0
 17 20  1  0  0  0  0
 18 24  1  0  0  0  0
 18 23  1  0  0  0  0
 19 18  2  0  0  0  0
 20 19  1  0  0  0  0
 20 21  2  0  0  0  0
 21 22  1  0  0  0  0
 22 26  1  0  0  0  0
 22 23  2  0  0  0  0
 25 19  1  0  0  0  0
M  END
>  <minimizedAffinity>
-5.15464115

$$$$

 OpenBabel03242511173D

 26 28  0  0  1  0  0  0  0  0999 V2000
   38.6930   29.6420   42.2690 C   0  0  0  0  0  0  0  0  0  0  0  0
   38.3110   30.5350   41.4070 C   0  0  0  0  0  0  0  0  0  0  0  0
   39.2480   31.2600   40.6470 N   0  0  0  0  0  0  0  0  0  0  0  0
   39.6760   32.5490   40.1550 C   0  0  0  0  0  0  0  0  0  0  0  0
   39.1000   33.6420   39.8770 O   0  0  0  0  0  0  0  0  0  0  0  0
   41.0590   31.9530   40.1480 C   0  0  0  0  0  3  0  0  0  0  0  0
   41.5790   32.3480   39.2660 H   0  0  0  0  0  0  0  0  0  0  0  0
   40.3820   30.6160   39.9570 C   0  0  1  0  0  3  0  0  0  0  0  0
   40.9870   29.2580   40.9620 S   0  0  0  0  0  0  0  0  0  0  0  0
   40.1120   29.3080   42.5470 C   0  0  0  0  0  3  0  0  0  0  0  0
   40.2310   28.3190   43.0180 H   0  0  0  0  0  0  0  0  0  0  0  0
   36.8830   30.7940   41.2170 C   0  0  0  0  0  0  0  0  0  0  0  0
   36.3200   31.0020   40.0980 O   0  0  0  0  0  0  0  0  0  0  0  0
   35.5460   31.0020   41.3650 O   0  0  0  0  0  0  0  0  0  0  0  0
   35.0930   31.4660   42.1660 H   0  0  0  0  0  0  0  0  0  0  0  0
   37.7060   28.8980   43.0420 C   0  0  0  0  0  2  0  0  0  0  0  0
   38.2350   27.1530   43.2450 S   0  0  0  0  0  0  0  0  0  0  0  0
   36.5960   24.1530   41.0630 C   0  0  0  0  0  0  0  0  0  0  0  0
   37.1950   24.8580   42.1420 C   0  0  0  0  0  0  0  0  0  0  0  0
   37.4850   26.2270   41.9240 C   0  0  0  0  0  0  0  0  0  0  0  0
   37.1830   26.7700   40.7270 N   0  0  0  0  0  0  0  0  0  0  0  0
   36.6180   26.0670   39.7360 C   0  0  0  0  0  0  0  0  0  0  0  0
   36.3240   24.7620   39.8970 N   0  0  0  0  0  0  0  0  0  0  0  0
   36.3390   23.1090   41.1320 H   0  0  0  0  0  0  0  0  0  0  0  0
   37.3990   24.3420   43.0570 H   0  0  0  0  0  0  0  0  0  0  0  0
   36.4470   26.6700   38.8450 H   0  0  0  0  0  0  0  0  0  0  0  0
  1 10  1  0  0  0  0
  1 16  1  0  0  0  0
  2  1  2  0  0  0  0
  3  2  1  0  0  0  0
  4  3  1  0  0  0  0
  5  4  2  0  0  0  0
  6  4  1  0  0  0  0
  7  6  1  0  0  0  0
  8  6  1  1  0  0  0
  8  3  1  0  0  0  0
  8  9  1  0  0  0  0
  9 10  1  0  0  0  0
 10 11  1  0  0  0  0
 12 14  1  0  0  0  0
 12  2  1  0  0  0  0
 13 12  2  0  0  0  0
 14 15  1  0  0  0  0
 16 17  1  0  0  0  0
 18 24  1  0  0  0  0
 18 19  1  0  0  0  0
 19 25  1  0  0  0  0
 20 19  2  0  0  0  0
 20 17  1  0  0  0  0
 21 20  1  0  0  0  0
 22 23  1  0  0  0  0
 22 21  2  0  0  0  0
 23 18  2  0  0  0  0
 26 22  1  0  0  0  0
M  END
>  <minimizedAffinity>
-5.10604191

$$$$

 OpenBabel03242511173D

 26 28  0  0  1  0  0  0  0  0999 V2000
   38.5330   29.8340   41.8480 C   0  0  0  0  0  0  0  0  0  0  0  0
   39.1960   30.8990   41.5090 C   0  0  0  0  0  0  0  0  0  0  0  0
   38.7490   31.7320   40.4660 N   0  0  0  0  0  0  0  0  0  0  0  0
   39.0880   32.4660   39.2690 C   0  0  0  0  0  0  0  0  0  0  0  0
   40.1350   33.0220   38.8210 O   0  0  0  0  0  0  0  0  0  0  0  0
   37.6540   32.2390   38.8680 C   0  0  0  0  0  3  0  0  0  0  0  0
   37.3120   33.1460   38.3550 H   0  0  0  0  0  0  0  0  0  0  0  0
   37.3480   32.1760   40.3470 C   0  0  1  0  0  3  0  0  0  0  0  0
   36.2620   30.8530   40.8870 S   0  0  0  0  0  0  0  0  0  0  0  0
   37.2830   29.3860   41.1860 C   0  0  0  0  0  3  0  0  0  0  0  0
   36.6930   28.6990   41.8140 H   0  0  0  0  0  0  0  0  0  0  0  0
   40.4250   31.2450   42.2240 C   0  0  0  0  0  0  0  0  0  0  0  0
   41.5320   31.5380   41.6740 O   0  0  0  0  0  0  0  0  0  0  0  0
   41.3820   31.5210   43.1520 O   0  0  0  0  0  0  0  0  0  0  0  0
   41.4670   31.0810   44.0790 H   0  0  0  0  0  0  0  0  0  0  0  0
   39.0100   28.9890   42.9360 C   0  0  0  0  0  2  0  0  0  0  0  0
   37.6940   27.8250   43.4660 S   0  0  0  0  0  0  0  0  0  0  0  0
   37.4020   24.2270   41.6190 C   0  0  0  0  0  0  0  0  0  0  0  0
   37.0450   25.4890   42.1680 C   0  0  0  0  0  0  0  0  0  0  0  0
   38.0890   26.2400   42.7640 C   0  0  0  0  0  0  0  0  0  0  0  0
   39.3340   25.7220   42.7770 N   0  0  0  0  0  0  0  0  0  0  0  0
   39.6260   24.5260   42.2460 C   0  0  0  0  0  0  0  0  0  0  0  0
   38.6660   23.7760   41.6690 N   0  0  0  0  0  0  0  0  0  0  0  0
   36.6800   23.5840   41.1440 H   0  0  0  0  0  0  0  0  0  0  0  0
   36.0300   25.8180   42.1120 H   0  0  0  0  0  0  0  0  0  0  0  0
   40.6790   24.2730   42.3490 H   0  0  0  0  0  0  0  0  0  0  0  0
  1 16  1  0  0  0  0
  2  1  2  0  0  0  0
  2 12  1  0  0  0  0
  3  2  1  0  0  0  0
  4  3  1  0  0  0  0
  5  4  2  0  0  0  0
  6  4  1  0  0  0  0
  7  6  1  0  0  0  0
  8  6  1  6  0  0  0
  8  3  1  0  0  0  0
  8  9  1  0  0  0  0
  9 10  1  0  0  0  0
 10 11  1  0  0  0  0
 10  1  1  0  0  0  0
 12 14  1  0  0  0  0
 13 12  2  0  0  0  0
 14 15  1  0  0  0  0
 16 17  1  0  0  0  0
 18 23  2  0  0  0  0
 18 19  1  0  0  0  0
 19 20  2  0  0  0  0
 20 21  1  0  0  0  0
 20 17  1  0  0  0  0
 22 26  1  0  0  0  0
 22 21  2  0  0  0  0
 23 22  1  0  0  0  0
 24 18  1  0  0  0  0
 25 19  1  0  0  0  0
M  END
>  <minimizedAffinity>
-4.92963552

$$$$

 OpenBabel03242511173D

 26 28  0  0  1  0  0  0  0  0999 V2000
   38.9950   28.9800   42.4630 C   0  0  0  0  0  0  0  0  0  0  0  0
   37.8820   28.5730   41.9320 C   0  0  0  0  0  0  0  0  0  0  0  0
   37.6740   27.2130   41.6330 N   0  0  0  0  0  0  0  0  0  0  0  0
   37.2230   26.2380   40.6670 C   0  0  0  0  0  0  0  0  0  0  0  0
   36.3880   26.2350   39.7140 O   0  0  0  0  0  0  0  0  0  0  0  0
   38.1930   25.3020   41.3390 C   0  0  0  0  0  3  0  0  0  0  0  0
   37.7280   24.3080   41.3540 H   0  0  0  0  0  0  0  0  0  0  0  0
   37.9870   26.1320   42.5850 C   0  0  1  0  0  3  0  0  0  0  0  0
   39.4610   26.5710   43.5100 S   0  0  0  0  0  0  0  0  0  0  0  0
   40.1360   28.0890   42.7890 C   0  0  0  0  0  3  0  0  0  0  0  0
   40.8190   28.5290   43.5330 H   0  0  0  0  0  0  0  0  0  0  0  0
   36.8220   29.5400   41.6410 C   0  0  0  0  0  0  0  0  0  0  0  0
   36.1670   29.6010   40.5540 O   0  0  0  0  0  0  0  0  0  0  0  0
   35.9030   30.5430   41.6720 O   0  0  0  0  0  0  0  0  0  0  0  0
   36.0120   31.4440   42.1590 H   0  0  0  0  0  0  0  0  0  0  0  0
   39.1880   30.3920   42.7700 C   0  0  0  0  0  2  0  0  0  0  0  0
   40.1880   31.2000   41.4610 S   0  0  0  0  0  0  0  0  0  0  0  0
   38.3020   31.3880   37.8750 C   0  0  0  0  0  0  0  0  0  0  0  0
   39.2170   31.0060   38.8950 C   0  0  0  0  0  0  0  0  0  0  0  0
   39.0690   31.6430   40.1520 C   0  0  0  0  0  0  0  0  0  0  0  0
   38.0890   32.5580   40.3020 N   0  0  0  0  0  0  0  0  0  0  0  0
   37.2490   32.8880   39.3120 C   0  0  0  0  0  0  0  0  0  0  0  0
   37.3510   32.3080   38.1000 N   0  0  0  0  0  0  0  0  0  0  0  0
   38.3340   30.9590   36.8870 H   0  0  0  0  0  0  0  0  0  0  0  0
   39.9620   30.2700   38.6830 H   0  0  0  0  0  0  0  0  0  0  0  0
   36.5250   33.6430   39.6160 H   0  0  0  0  0  0  0  0  0  0  0  0
  1 16  1  0  0  0  0
  1 10  1  0  0  0  0
  2  1  2  0  0  0  0
  3  2  1  0  0  0  0
  3  8  1  0  0  0  0
  4  6  1  0  0  0  0
  4  3  1  0  0  0  0
  5  4  2  0  0  0  0
  6  7  1  0  0  0  0
  8  6  1  6  0  0  0
  8  9  1  0  0  0  0
 10  9  1  0  0  0  0
 10 11  1  0  0  0  0
 12 14  1  0  0  0  0
 12  2  1  0  0  0  0
 13 12  2  0  0  0  0
 14 15  1  0  0  0  0
 17 16  1  0  0  0  0
 18 23  2  0  0  0  0
 18 19  1  0  0  0  0
 19 20  2  0  0  0  0
 20 21  1  0  0  0  0
 20 17  1  0  0  0  0
 22 26  1  0  0  0  0
 22 21  2  0  0  0  0
 23 22  1  0  0  0  0
 24 18  1  0  0  0  0
 25 19  1  0  0  0  0
M  END
>  <minimizedAffinity>
-4.77965879

$$$$

 OpenBabel03242511173D

 26 28  0  0  1  0  0  0  0  0999 V2000
   35.9580   28.0730   39.5530 C   0  0  0  0  0  0  0  0  0  0  0  0
   36.5170   27.5530   40.6040 C   0  0  0  0  0  0  0  0  0  0  0  0
   36.9630   26.2180   40.6030 N   0  0  0  0  0  0  0  0  0  0  0  0
   37.0050   24.9510   41.2980 C   0  0  0  0  0  0  0  0  0  0  0  0
   36.9580   24.5890   42.5110 O   0  0  0  0  0  0  0  0  0  0  0  0
   37.1240   24.3400   39.9270 C   0  0  0  0  0  3  0  0  0  0  0  0
   37.8110   23.4880   40.0090 H   0  0  0  0  0  0  0  0  0  0  0  0
   37.7580   25.6450   39.5020 C   0  0  1  0  0  3  0  0  0  0  0  0
   37.1970   26.3410   37.9460 S   0  0  0  0  0  0  0  0  0  0  0  0
   35.7230   27.3390   38.2850 C   0  0  0  0  0  3  0  0  0  0  0  0
   35.5790   28.0120   37.4250 H   0  0  0  0  0  0  0  0  0  0  0  0
   36.6910   28.3650   41.8090 C   0  0  0  0  0  0  0  0  0  0  0  0
   36.5730   27.9400   43.0000 O   0  0  0  0  0  0  0  0  0  0  0  0
   36.9140   29.3570   42.7140 O   0  0  0  0  0  0  0  0  0  0  0  0
   36.6770   30.3520   42.5870 H   0  0  0  0  0  0  0  0  0  0  0  0
   35.5080   29.4600   39.5720 C   0  0  0  0  0  2  0  0  0  0  0  0
   36.5300   30.4790   38.4390 S   0  0  0  0  0  0  0  0  0  0  0  0
   38.0580   33.8660   40.0650 C   0  0  0  0  0  0  0  0  0  0  0  0
   37.2970   32.9980   39.2350 C   0  0  0  0  0  0  0  0  0  0  0  0
   37.4600   31.6070   39.4520 C   0  0  0  0  0  0  0  0  0  0  0  0
   38.3130   31.1970   40.4130 N   0  0  0  0  0  0  0  0  0  0  0  0
   39.0120   32.0520   41.1730 C   0  0  0  0  0  0  0  0  0  0  0  0
   38.8890   33.3830   41.0030 N   0  0  0  0  0  0  0  0  0  0  0  0
   38.0020   34.9380   39.9770 H   0  0  0  0  0  0  0  0  0  0  0  0
   36.6450   33.4150   38.4980 H   0  0  0  0  0  0  0  0  0  0  0  0
   39.6470   31.5410   41.8950 H   0  0  0  0  0  0  0  0  0  0  0  0
  1 16  1  0  0  0  0
  1  2  2  0  0  0  0
  2 12  1  0  0  0  0
  3  2  1  0  0  0  0
  3  4  1  0  0  0  0
  4  5  2  0  0  0  0
  6  7  1  0  0  0  0
  6  4  1  0  0  0  0
  8  9  1  6  0  0  0
  8  6  1  0  0  0  0
  8  3  1  0  0  0  0
  9 10  1  0  0  0  0
 10  1  1  0  0  0  0
 11 10  1  0  0  0  0
 12 14  1  0  0  0  0
 12 13  2  0  0  0  0
 15 14  1  0  0  0  0
 17 20  1  0  0  0  0
 17 16  1  0  0  0  0
 18 23  1  0  0  0  0
 19 20  1  0  0  0  0
 19 18  2  0  0  0  0
 20 21  2  0  0  0  0
 21 22  1  0  0  0  0
 22 26  1  0  0  0  0
 23 22  2  0  0  0  0
 24 18  1  0  0  0  0
 25 19  1  0  0  0  0
M  END
>  <minimizedAffinity>
-4.73612833

$$$$

 OpenBabel03242511173D

 26 28  0  0  1  0  0  0  0  0999 V2000
   36.8420   30.6830   40.2090 C   0  0  0  0  0  0  0  0  0  0  0  0
   37.6870   30.6830   41.1970 C   0  0  0  0  0  0  0  0  0  0  0  0
   38.8040   31.5400   41.1970 N   0  0  0  0  0  0  0  0  0  0  0  0
   40.2260   31.6810   41.4110 C   0  0  0  0  0  0  0  0  0  0  0  0
   41.0900   31.0940   42.1270 O   0  0  0  0  0  0  0  0  0  0  0  0
   40.1430   32.8060   40.4120 C   0  0  0  0  0  3  0  0  0  0  0  0
   40.8340   33.5890   40.7470 H   0  0  0  0  0  0  0  0  0  0  0  0
   38.7080   32.9720   40.8580 C   0  0  1  0  0  3  0  0  0  0  0  0
   37.4850   33.1910   39.5640 S   0  0  0  0  0  0  0  0  0  0  0  0
   36.9660   31.5470   39.0090 C   0  0  0  0  0  3  0  0  0  0  0  0
   36.0100   31.6680   38.4740 H   0  0  0  0  0  0  0  0  0  0  0  0
   37.4760   29.7820   42.3300 C   0  0  0  0  0  0  0  0  0  0  0  0
   38.3080   28.9120   42.7370 O   0  0  0  0  0  0  0  0  0  0  0  0
   36.9950   29.1000   43.4050 O   0  0  0  0  0  0  0  0  0  0  0  0
   36.0070   28.8610   43.5740 H   0  0  0  0  0  0  0  0  0  0  0  0
   35.6890   29.7910   40.2310 C   0  0  0  0  0  2  0  0  0  0  0  0
   35.9410   28.3920   39.0710 S   0  0  0  0  0  0  0  0  0  0  0  0
   32.8110   29.1420   36.6040 C   0  0  0  0  0  0  0  0  0  0  0  0
   33.5600   28.8710   37.7820 C   0  0  0  0  0  0  0  0  0  0  0  0
   34.9610   28.7320   37.6270 C   0  0  0  0  0  0  0  0  0  0  0  0
   35.4920   28.8610   36.3940 N   0  0  0  0  0  0  0  0  0  0  0  0
   34.7480   29.1170   35.3090 C   0  0  0  0  0  0  0  0  0  0  0  0
   33.4110   29.2580   35.4080 N   0  0  0  0  0  0  0  0  0  0  0  0
   31.7410   29.2640   36.6200 H   0  0  0  0  0  0  0  0  0  0  0  0
   33.0510   28.7850   38.7190 H   0  0  0  0  0  0  0  0  0  0  0  0
   35.3470   29.1880   34.4020 H   0  0  0  0  0  0  0  0  0  0  0  0
  1 16  1  0  0  0  0
  1  2  2  0  0  0  0
  2  3  1  0  0  0  0
  2 12  1  0  0  0  0
  3  4  1  0  0  0  0
  4  5  2  0  0  0  0
  6  7  1  0  0  0  0
  6  8  1  0  0  0  0
  6  4  1  0  0  0  0
  8  9  1  6  0  0  0
  8  3  1  0  0  0  0
 10  9  1  0  0  0  0
 10  1  1  0  0  0  0
 11 10  1  0  0  0  0
 12 13  2  0  0  0  0
 12 14  1  0  0  0  0
 14 15  1  0  0  0  0
 17 16  1  0  0  0  0
 18 24  1  0  0  0  0
 18 19  1  0  0  0  0
 19 25  1  0  0  0  0
 20 19  2  0  0  0  0
 20 17  1  0  0  0  0
 21 20  1  0  0  0  0
 22 23  1  0  0  0  0
 22 21  2  0  0  0  0
 23 18  2  0  0  0  0
 26 22  1  0  0  0  0
M  END
>  <minimizedAffinity>
-4.68095732

$$$$

 OpenBabel03242511173D

 26 28  0  0  1  0  0  0  0  0999 V2000
   36.8270   30.3940   40.2150 C   0  0  0  0  0  0  0  0  0  0  0  0
   37.6490   30.5410   41.2110 C   0  0  0  0  0  0  0  0  0  0  0  0
   38.7010   31.4750   41.1520 N   0  0  0  0  0  0  0  0  0  0  0  0
   40.1040   31.7380   41.3740 C   0  0  0  0  0  0  0  0  0  0  0  0
   40.9930   31.2800   42.1510 O   0  0  0  0  0  0  0  0  0  0  0  0
   39.9610   32.7630   40.2790 C   0  0  0  0  0  3  0  0  0  0  0  0
   40.5870   33.6210   40.5540 H   0  0  0  0  0  0  0  0  0  0  0  0
   38.5100   32.8610   40.6890 C   0  0  1  0  0  3  0  0  0  0  0  0
   37.3010   32.8780   39.3630 S   0  0  0  0  0  0  0  0  0  0  0  0
   36.9130   31.1580   38.9460 C   0  0  0  0  0  3  0  0  0  0  0  0
   35.9620   31.1630   38.3880 H   0  0  0  0  0  0  0  0  0  0  0  0
   37.4800   29.7280   42.4160 C   0  0  0  0  0  0  0  0  0  0  0  0
   38.4170   29.1350   43.0350 O   0  0  0  0  0  0  0  0  0  0  0  0
   37.0090   29.0530   43.5000 O   0  0  0  0  0  0  0  0  0  0  0  0
   36.0900   28.5930   43.5700 H   0  0  0  0  0  0  0  0  0  0  0  0
   35.7400   29.4250   40.2980 C   0  0  0  0  0  2  0  0  0  0  0  0
   36.1630   27.9090   39.3550 S   0  0  0  0  0  0  0  0  0  0  0  0
   39.5150   26.0930   40.7370 C   0  0  0  0  0  0  0  0  0  0  0  0
   38.6380   26.8470   39.9090 C   0  0  0  0  0  0  0  0  0  0  0  0
   37.2990   26.9750   40.3550 C   0  0  0  0  0  0  0  0  0  0  0  0
   36.9420   26.3850   41.5140 N   0  0  0  0  0  0  0  0  0  0  0  0
   37.8030   25.6830   42.2630 C   0  0  0  0  0  0  0  0  0  0  0  0
   39.0870   25.5330   41.8800 N   0  0  0  0  0  0  0  0  0  0  0  0
   40.5510   25.9390   40.4830 H   0  0  0  0  0  0  0  0  0  0  0  0
   39.0110   27.2790   39.0060 H   0  0  0  0  0  0  0  0  0  0  0  0
   37.3390   25.2810   43.1620 H   0  0  0  0  0  0  0  0  0  0  0  0
  1 16  1  0  0  0  0
  1  2  2  0  0  0  0
  2 12  1  0  0  0  0
  3  2  1  0  0  0  0
  3  4  1  0  0  0  0
  4  5  2  0  0  0  0
  6  7  1  0  0  0  0
  6  8  1  0  0  0  0
  6  4  1  0  0  0  0
  8  9  1  6  0  0  0
  8  3  1  0  0  0  0
 10  9  1  0  0  0  0
 10  1  1  0  0  0  0
 11 10  1  0  0  0  0
 12 13  2  0  0  0  0
 12 14  1  0  0  0  0
 14 15  1  0  0  0  0
 17 16  1  0  0  0  0
 17 20  1  0  0  0  0
 18 23  1  0  0  0  0
 19 20  1  0  0  0  0
 19 18  2  0  0  0  0
 20 21  2  0  0  0  0
 21 22  1  0  0  0  0
 22 26  1  0  0  0  0
 23 22  2  0  0  0  0
 24 18  1  0  0  0  0
 25 19  1  0  0  0  0
M  END
>  <minimizedAffinity>
-4.6236825

$$$$

 OpenBabel03242511173D

 26 28  0  0  1  0  0  0  0  0999 V2000
   37.1970   28.3090   40.1640 C   0  0  0  0  0  0  0  0  0  0  0  0
   37.3200   29.3490   40.9320 C   0  0  0  0  0  0  0  0  0  0  0  0
   37.5400   30.6300   40.3910 N   0  0  0  0  0  0  0  0  0  0  0  0
   38.3010   31.8570   40.4470 C   0  0  0  0  0  0  0  0  0  0  0  0
   38.9120   32.4960   41.3540 O   0  0  0  0  0  0  0  0  0  0  0  0
   38.0070   31.9650   38.9730 C   0  0  0  0  0  3  0  0  0  0  0  0
   37.8430   33.0260   38.7520 H   0  0  0  0  0  0  0  0  0  0  0  0
   36.7600   31.1600   39.2580 C   0  0  1  0  0  3  0  0  0  0  0  0
   36.3900   29.8230   38.1200 S   0  0  0  0  0  0  0  0  0  0  0  0
   37.2870   28.3530   38.6830 C   0  0  0  0  0  3  0  0  0  0  0  0
   36.8170   27.4790   38.2030 H   0  0  0  0  0  0  0  0  0  0  0  0
   37.2240   29.1920   42.3840 C   0  0  0  0  0  0  0  0  0  0  0  0
   38.1940   29.3060   43.1970 O   0  0  0  0  0  0  0  0  0  0  0  0
   36.8210   28.9920   43.6690 O   0  0  0  0  0  0  0  0  0  0  0  0
   36.0790   28.3450   43.9730 H   0  0  0  0  0  0  0  0  0  0  0  0
   36.9640   26.9920   40.7440 C   0  0  0  0  0  2  0  0  0  0  0  0
   38.1190   25.7620   40.0220 S   0  0  0  0  0  0  0  0  0  0  0  0
   40.2080   25.2530   43.4610 C   0  0  0  0  0  0  0  0  0  0  0  0
   39.1200   25.4220   42.5610 C   0  0  0  0  0  0  0  0  0  0  0  0
   39.4450   25.5490   41.1880 C   0  0  0  0  0  0  0  0  0  0  0  0
   40.7430   25.5040   40.8230 N   0  0  0  0  0  0  0  0  0  0  0  0
   41.7370   25.3430   41.7060 C   0  0  0  0  0  0  0  0  0  0  0  0
   41.4770   25.2180   43.0220 N   0  0  0  0  0  0  0  0  0  0  0  0
   40.0620   25.1470   44.5230 H   0  0  0  0  0  0  0  0  0  0  0  0
   38.1220   25.4450   42.9430 H   0  0  0  0  0  0  0  0  0  0  0  0
   42.7170   25.3310   41.2300 H   0  0  0  0  0  0  0  0  0  0  0  0
  1 16  1  0  0  0  0
  1  2  2  0  0  0  0
  2 12  1  0  0  0  0
  3  4  1  0  0  0  0
  3  2  1  0  0  0  0
  4  5  2  0  0  0  0
  6  8  1  0  0  0  0
  6  4  1  0  0  0  0
  7  6  1  0  0  0  0
  8  9  1  6  0  0  0
  8  3  1  0  0  0  0
  9 10  1  0  0  0  0
 10  1  1  0  0  0  0
 11 10  1  0  0  0  0
 12 13  2  0  0  0  0
 12 14  1  0  0  0  0
 14 15  1  0  0  0  0
 17 16  1  0  0  0  0
 17 20  1  0  0  0  0
 18 24  1  0  0  0  0
 19 25  1  0  0  0  0
 19 18  2  0  0  0  0
 20 19  1  0  0  0  0
 21 20  2  0  0  0  0
 21 22  1  0  0  0  0
 22 23  2  0  0  0  0
 23 18  1  0  0  0  0
 26 22  1  0  0  0  0
M  END
>  <minimizedAffinity>
-4.58163404

$$$$

 OpenBabel03242511173D

 26 28  0  0  1  0  0  0  0  0999 V2000
   38.9480   29.7850   42.0270 C   0  0  0  0  0  0  0  0  0  0  0  0
   37.7930   29.6750   41.4430 C   0  0  0  0  0  0  0  0  0  0  0  0
   37.1990   28.4150   41.2410 N   0  0  0  0  0  0  0  0  0  0  0  0
   36.5240   27.5230   40.3260 C   0  0  0  0  0  0  0  0  0  0  0  0
   35.7790   27.6700   39.3120 O   0  0  0  0  0  0  0  0  0  0  0  0
   37.1280   26.4160   41.1500 C   0  0  0  0  0  3  0  0  0  0  0  0
   36.3830   25.6120   41.2090 H   0  0  0  0  0  0  0  0  0  0  0  0
   37.1180   27.3940   42.3020 C   0  0  1  0  0  3  0  0  0  0  0  0
   38.6050   27.4680   43.3050 S   0  0  0  0  0  0  0  0  0  0  0  0
   39.7460   28.6340   42.5180 C   0  0  0  0  0  3  0  0  0  0  0  0
   40.4910   28.9260   43.2760 H   0  0  0  0  0  0  0  0  0  0  0  0
   37.0940   30.8770   40.9880 C   0  0  0  0  0  0  0  0  0  0  0  0
   36.0190   30.8850   40.3100 O   0  0  0  0  0  0  0  0  0  0  0  0
   36.6870   32.1480   40.7180 O   0  0  0  0  0  0  0  0  0  0  0  0
   37.3050   32.9550   40.5530 H   0  0  0  0  0  0  0  0  0  0  0  0
   39.5440   31.1000   42.2310 C   0  0  0  0  0  2  0  0  0  0  0  0
   40.8570   31.4070   40.9860 S   0  0  0  0  0  0  0  0  0  0  0  0
   43.9790   31.8590   43.5350 C   0  0  0  0  0  0  0  0  0  0  0  0
   42.8660   31.2860   42.8610 C   0  0  0  0  0  0  0  0  0  0  0  0
   42.2530   32.0790   41.8590 C   0  0  0  0  0  0  0  0  0  0  0  0
   42.7510   33.3080   41.6110 N   0  0  0  0  0  0  0  0  0  0  0  0
   43.8040   33.8090   42.2720 C   0  0  0  0  0  0  0  0  0  0  0  0
   44.4190   33.0920   43.2330 N   0  0  0  0  0  0  0  0  0  0  0  0
   44.5110   31.3350   44.3110 H   0  0  0  0  0  0  0  0  0  0  0  0
   42.5420   30.3030   43.1260 H   0  0  0  0  0  0  0  0  0  0  0  0
   44.0640   34.8120   41.9380 H   0  0  0  0  0  0  0  0  0  0  0  0
  1 16  1  0  0  0  0
  1 10  1  0  0  0  0
  2  1  2  0  0  0  0
  3  2  1  0  0  0  0
  3  8  1  0  0  0  0
  4  6  1  0  0  0  0
  4  3  1  0  0  0  0
  5  4  2  0  0  0  0
  6  7  1  0  0  0  0
  8  6  1  6  0  0  0
  8  9  1  0  0  0  0
 10 11  1  0  0  0  0
 10  9  1  0  0  0  0
 12  2  1  0  0  0  0
 13 12  2  0  0  0  0
 14 12  1  0  0  0  0
 15 14  1  0  0  0  0
 17 20  1  0  0  0  0
 17 16  1  0  0  0  0
 18 24  1  0  0  0  0
 19 25  1  0  0  0  0
 19 18  2  0  0  0  0
 20 19  1  0  0  0  0
 21 20  2  0  0  0  0
 21 22  1  0  0  0  0
 22 23  2  0  0  0  0
 23 18  1  0  0  0  0
 26 22  1  0  0  0  0
M  END
>  <minimizedAffinity>
-4.57553053

$$$$
