
 OpenBabel03252503363D

 49 53  0  0  1  0  0  0  0  0999 V2000
   48.8000   30.3170   39.8070 C   0  0  0  0  0  0  0  0  0  0  0  0
   49.4390   31.4850   39.8540 C   0  0  0  0  0  0  0  0  0  0  0  0
   48.7120   32.6930   39.9940 N   0  0  0  0  0  0  0  0  0  0  0  0
   48.6060   34.0000   40.5220 C   0  0  0  0  0  0  0  0  0  0  0  0
   49.3670   34.7750   41.1780 O   0  0  0  0  0  0  0  0  0  0  0  0
   47.2480   34.2260   40.0560 C   0  0  1  0  0  0  0  0  0  0  0  0
   47.4190   32.8890   39.3710 C   0  0  2  0  0  0  0  0  0  0  0  0
   46.3440   31.5680   39.9390 S   0  0  0  0  0  0  0  0  0  0  0  0
   47.3300   30.0730   39.8900 C   0  0  0  0  0  0  0  0  0  0  0  0
   47.1390   35.0480   39.3110 H   0  0  0  0  0  0  0  0  0  0  0  0
   47.5090   32.9880   38.2670 H   0  0  0  0  0  0  0  0  0  0  0  0
   47.1640   29.4910   40.8200 H   0  0  0  0  0  0  0  0  0  0  0  0
   47.0010   29.4320   39.0490 H   0  0  0  0  0  0  0  0  0  0  0  0
   46.2700   34.2960   41.1310 C   0  0  0  0  0  0  0  0  0  0  0  0
   45.0450   34.0930   41.1880 O   0  0  0  0  0  0  0  0  0  0  0  0
   46.8460   34.6800   42.3990 N   0  0  0  0  0  0  0  0  0  0  0  0
   47.8140   34.9090   42.7210 H   0  0  0  0  0  0  0  0  0  0  0  0
   44.4340   35.9850   44.8990 C   0  0  0  0  0  0  0  0  0  0  0  0
   45.1830   35.8760   43.7280 C   0  0  0  0  0  0  0  0  0  0  0  0
   46.0490   34.8160   43.5630 C   0  0  0  0  0  0  0  0  0  0  0  0
   46.1480   33.9070   44.5460 N   0  0  0  0  0  0  0  0  0  0  0  0
   45.4120   34.0170   45.6920 C   0  0  0  0  0  0  0  0  0  0  0  0
   44.5710   35.0520   45.8470 N   0  0  0  0  0  0  0  0  0  0  0  0
   43.7480   36.8050   45.0540 H   0  0  0  0  0  0  0  0  0  0  0  0
   45.0740   36.6250   42.9670 H   0  0  0  0  0  0  0  0  0  0  0  0
   45.5590   33.2380   46.4260 H   0  0  0  0  0  0  0  0  0  0  0  0
   49.6700   29.1270   39.6530 C   0  0  0  0  0  0  0  0  0  0  0  0
   49.8070   28.6170   40.6500 H   0  0  0  0  0  0  0  0  0  0  0  0
   49.1190   28.3830   39.0170 H   0  0  0  0  0  0  0  0  0  0  0  0
   50.6520   29.3420   39.2320 H   0  0  0  0  0  0  0  0  0  0  0  0
   50.8850   31.5600   39.7600 C   0  0  0  0  0  0  0  0  0  0  0  0
   51.5030   31.6660   38.6790 O   0  0  0  0  0  0  0  0  0  0  0  0
   51.8920   31.5400   40.7080 O   0  0  0  0  0  0  0  0  0  0  0  0
   53.1470   30.9220   40.4720 C   0  0  0  0  0  2  0  0  0  0  0  0
   52.9820   29.4830   40.7710 C   0  0  0  0  0  0  0  0  0  0  0  0
   52.5450   28.9830   41.8910 C   0  0  0  0  0  0  0  0  0  0  0  0
   52.4540   27.5890   42.0120 N   0  0  0  0  0  0  0  0  0  0  0  0
   51.7440   26.4530   42.5490 C   0  0  0  0  0  0  0  0  0  0  0  0
   50.8280   26.2640   43.4190 O   0  0  0  0  0  0  0  0  0  0  0  0
   52.4560   25.4840   41.7120 C   0  0  0  0  0  3  0  0  0  0  0  0
   51.8160   25.1460   40.8670 H   0  0  0  0  0  0  0  0  0  0  0  0
   53.3720   26.6420   41.4240 C   0  0  1  0  0  3  0  0  0  0  0  0
   53.3650   26.9990   39.6310 S   0  0  0  0  0  0  0  0  0  0  0  0
   53.4150   28.7830   39.5540 C   0  0  0  0  0  3  0  0  0  0  0  0
   54.4630   29.0660   39.2410 H   0  0  0  0  0  0  0  0  0  0  0  0
   52.1500   29.8060   43.0290 C   0  0  0  0  0  0  0  0  0  0  0  0
   52.6590   30.2140   44.1010 O   0  0  0  0  0  0  0  0  0  0  0  0
   50.9140   30.3970   43.1610 O   0  0  0  0  0  0  0  0  0  0  0  0
   50.7410   31.3970   43.3480 H   0  0  0  0  0  0  0  0  0  0  0  0
  1  2  2  0  0  0  0
  1  9  1  0  0  0  0
  2  3  1  0  0  0  0
  3  4  1  0  0  0  0
  4  5  2  0  0  0  0
  6 10  1  6  0  0  0
  6  4  1  0  0  0  0
  6 14  1  0  0  0  0
  7 11  1  6  0  0  0
  7  8  1  0  0  0  0
  7  3  1  0  0  0  0
  7  6  1  0  0  0  0
  9  8  1  0  0  0  0
  9 12  1  0  0  0  0
 13  9  1  0  0  0  0
 14 15  2  0  0  0  0
 14 16  1  0  0  0  0
 16 17  1  0  0  0  0
 16 20  1  0  0  0  0
 18 24  1  0  0  0  0
 18 23  1  0  0  0  0
 19 18  2  0  0  0  0
 20 19  1  0  0  0  0
 20 21  2  0  0  0  0
 21 22  1  0  0  0  0
 22 23  2  0  0  0  0
 22 26  1  0  0  0  0
 25 19  1  0  0  0  0
 27  1  1  0  0  0  0
 27 28  1  0  0  0  0
 29 27  1  0  0  0  0
 30 27  1  0  0  0  0
 31  2  1  0  0  0  0
 31 33  1  0  0  0  0
 32 31  2  0  0  0  0
 34 33  1  0  0  0  0
 34 35  1  0  0  0  0
 35 36  2  0  0  0  0
 36 37  1  0  0  0  0
 36 46  1  0  0  0  0
 37 38  1  0  0  0  0
 38 39  2  0  0  0  0
 40 38  1  0  0  0  0
 41 40  1  0  0  0  0
 42 43  1  6  0  0  0
 42 40  1  0  0  0  0
 42 37  1  0  0  0  0
 44 43  1  0  0  0  0
 44 35  1  0  0  0  0
 45 44  1  0  0  0  0
 46 48  1  0  0  0  0
 46 47  2  0  0  0  0
 48 49  1  0  0  0  0
M  END
>  <minimizedAffinity>
-4.50372744

>  <minimizedRMSD>
2.26092958

$$$$
