
 OpenBabel03242517023D

 40 43  0  0  1  0  0  0  0  0999 V2000
   44.9430   32.6190   42.0430 C   0  0  0  0  0  0  0  0  0  0  0  0
   44.4120   33.3930   42.8220 O   0  0  0  0  0  0  0  0  0  0  0  0
   46.2460   32.7200   41.5230 N   0  0  0  0  0  0  0  0  0  0  0  0
   46.6570   31.9760   40.8780 H   0  0  0  0  0  0  0  0  0  0  0  0
   47.9920   33.6300   42.8070 C   0  0  0  0  0  0  0  0  0  0  0  0
   49.0530   34.4940   43.0370 C   0  0  0  0  0  0  0  0  0  0  0  0
   49.3840   35.3870   42.0290 C   0  0  0  0  0  0  0  0  0  0  0  0
   48.6830   35.4050   40.8590 C   0  0  0  0  0  0  0  0  0  0  0  0
   47.6270   34.5580   40.6080 C   0  0  0  0  0  0  0  0  0  0  0  0
   47.2970   33.6550   41.6350 C   0  0  0  0  0  0  0  0  0  0  0  0
   49.6180   34.5000   43.9490 H   0  0  0  0  0  0  0  0  0  0  0  0
   50.1890   36.1020   42.1030 H   0  0  0  0  0  0  0  0  0  0  0  0
   48.9150   36.0900   40.0500 H   0  0  0  0  0  0  0  0  0  0  0  0
   47.0440   34.5400   39.6910 H   0  0  0  0  0  0  0  0  0  0  0  0
   46.8060   32.0710   46.0320 C   0  0  0  0  0  0  0  0  0  0  0  0
   47.0470   33.0700   45.0550 C   0  0  0  0  0  0  0  0  0  0  0  0
   47.6800   32.7040   43.8980 C   0  0  0  0  0  0  0  0  0  0  0  0
   48.0360   31.3930   43.7640 N   0  0  0  0  0  0  0  0  0  0  0  0
   47.8030   30.4490   44.6960 C   0  0  0  0  0  0  0  0  0  0  0  0
   47.1810   30.7950   45.8410 N   0  0  0  0  0  0  0  0  0  0  0  0
   46.3070   32.4490   46.9030 H   0  0  0  0  0  0  0  0  0  0  0  0
   46.7520   34.1030   45.1920 H   0  0  0  0  0  0  0  0  0  0  0  0
   48.1400   29.4510   44.4540 H   0  0  0  0  0  0  0  0  0  0  0  0
   44.1670   31.5310   41.6360 O   0  0  0  0  0  0  0  0  0  0  0  0
   42.7580   31.6810   41.6400 C   0  0  0  0  0  2  0  0  0  0  0  0
   42.4400   32.5700   40.4960 C   0  0  0  0  0  0  0  0  0  0  0  0
   41.4000   33.3480   40.4950 C   0  0  0  0  0  0  0  0  0  0  0  0
   41.1030   34.1980   39.3980 N   0  0  0  0  0  0  0  0  0  0  0  0
   40.1400   34.7690   38.5260 C   0  0  0  0  0  0  0  0  0  0  0  0
   38.8650   34.7810   38.4410 O   0  0  0  0  0  0  0  0  0  0  0  0
   41.1860   35.3950   37.6820 C   0  0  0  0  0  3  0  0  0  0  0  0
   41.3350   34.8970   36.6970 H   0  0  0  0  0  0  0  0  0  0  0  0
   42.1840   34.9200   38.7050 C   0  0  2  0  0  3  0  0  0  0  0  0
   43.3070   33.6260   38.1050 S   0  0  0  0  0  0  0  0  0  0  0  0
   43.4570   32.4170   39.4290 C   0  0  0  0  0  3  0  0  0  0  0  0
   44.4670   32.5950   39.8980 H   0  0  0  0  0  0  0  0  0  0  0  0
   40.4940   33.3750   41.6330 C   0  0  0  0  0  0  0  0  0  0  0  0
   39.9220   34.3840   42.0800 O   0  0  0  0  0  0  0  0  0  0  0  0
   39.7130   33.0320   42.7150 O   0  0  0  0  0  0  0  0  0  0  0  0
   39.9160   32.2960   43.3830 H   0  0  0  0  0  0  0  0  0  0  0  0
  1  2  2  0  0  0  0
  3 10  1  0  0  0  0
  3  1  1  0  0  0  0
  4  3  1  0  0  0  0
  5  6  1  0  0  0  0
  5 17  1  0  0  0  0
  6 11  1  0  0  0  0
  7 12  1  0  0  0  0
  7  6  2  0  0  0  0
  8  7  1  0  0  0  0
  9  8  2  0  0  0  0
  9 10  1  0  0  0  0
 10  5  2  0  0  0  0
 13  8  1  0  0  0  0
 14  9  1  0  0  0  0
 15 21  1  0  0  0  0
 16 22  1  0  0  0  0
 16 15  2  0  0  0  0
 17 16  1  0  0  0  0
 18 17  2  0  0  0  0
 18 19  1  0  0  0  0
 19 20  2  0  0  0  0
 20 15  1  0  0  0  0
 23 19  1  0  0  0  0
 24 25  1  0  0  0  0
 24  1  1  0  0  0  0
 26 25  1  0  0  0  0
 27 26  2  0  0  0  0
 27 37  1  0  0  0  0
 28 27  1  0  0  0  0
 29 28  1  0  0  0  0
 30 29  2  0  0  0  0
 31 29  1  0  0  0  0
 32 31  1  0  0  0  0
 33 31  1  6  0  0  0
 33 28  1  0  0  0  0
 34 33  1  0  0  0  0
 34 35  1  0  0  0  0
 35 36  1  0  0  0  0
 35 26  1  0  0  0  0
 37 38  2  0  0  0  0
 37 39  1  0  0  0  0
 39 40  1  0  0  0  0
M  END
>  <minimizedAffinity>
-5.82755709

>  <minimizedRMSD>
2.83225656

$$$$
