
 OpenBabel03242517433D

 26 28  0  0  1  0  0  0  0  0999 V2000
   46.3680   33.1200   40.5980 C   0  0  0  0  0  0  0  0  0  0  0  0
   46.7900   31.8810   40.7890 C   0  0  0  0  0  0  0  0  0  0  0  0
   48.1240   31.5460   40.4180 N   0  0  0  0  0  0  0  0  0  0  0  0
   49.3380   30.9150   40.8110 C   0  0  0  0  0  0  0  0  0  0  0  0
   49.7050   30.0120   41.6380 O   0  0  0  0  0  0  0  0  0  0  0  0
   50.0720   31.7570   39.8330 C   0  0  0  0  0  3  0  0  0  0  0  0
   50.4590   32.6610   40.3320 H   0  0  0  0  0  0  0  0  0  0  0  0
   48.7500   31.8750   39.1360 C   0  0  2  0  0  3  0  0  0  0  0  0
   48.2480   33.5250   38.6610 S   0  0  0  0  0  0  0  0  0  0  0  0
   47.2270   34.1720   40.0430 C   0  0  0  0  0  3  0  0  0  0  0  0
   46.6470   35.0380   39.6920 H   0  0  0  0  0  0  0  0  0  0  0  0
   45.9470   30.8040   41.3570 C   0  0  0  0  0  0  0  0  0  0  0  0
   45.6360   30.3140   42.4670 O   0  0  0  0  0  0  0  0  0  0  0  0
   45.1630   29.9260   40.6900 O   0  0  0  0  0  0  0  0  0  0  0  0
   45.2790   28.9060   40.6200 H   0  0  0  0  0  0  0  0  0  0  0  0
   45.0120   33.5910   40.9210 C   0  0  0  0  0  2  0  0  0  0  0  0
   45.0450   35.1440   41.8690 S   0  0  0  0  0  0  0  0  0  0  0  0
   44.5170   35.6070   44.5470 C   0  0  0  0  0  0  0  0  0  0  0  0
   45.0890   34.7290   43.6140 C   0  0  0  0  0  0  0  0  0  0  0  0
   45.6790   33.5550   44.0590 C   0  0  0  0  0  0  0  0  0  0  0  0
   45.6730   33.3120   45.3950 N   0  0  0  0  0  0  0  0  0  0  0  0
   45.1200   34.1650   46.2750 C   0  0  0  0  0  0  0  0  0  0  0  0
   44.5410   35.3100   45.8800 N   0  0  0  0  0  0  0  0  0  0  0  0
   44.0630   36.5140   44.1900 H   0  0  0  0  0  0  0  0  0  0  0  0
   46.1220   32.8670   43.3800 H   0  0  0  0  0  0  0  0  0  0  0  0
   45.1560   33.8960   47.3330 H   0  0  0  0  0  0  0  0  0  0  0  0
  1  2  2  0  0  0  0
  1 16  1  0  0  0  0
  2 12  1  0  0  0  0
  3  2  1  0  0  0  0
  3  4  1  0  0  0  0
  4  5  2  0  0  0  0
  6  7  1  0  0  0  0
  6  4  1  0  0  0  0
  8  9  1  1  0  0  0
  8  6  1  0  0  0  0
  8  3  1  0  0  0  0
  9 10  1  0  0  0  0
 10  1  1  0  0  0  0
 11 10  1  0  0  0  0
 12 13  2  0  0  0  0
 14 12  1  0  0  0  0
 15 14  1  0  0  0  0
 16 17  1  0  0  0  0
 17 19  1  0  0  0  0
 18 23  1  0  0  0  0
 19 20  1  0  0  0  0
 19 18  2  0  0  0  0
 20 21  2  0  0  0  0
 21 22  1  0  0  0  0
 22 26  1  0  0  0  0
 23 22  2  0  0  0  0
 24 18  1  0  0  0  0
 25 20  1  0  0  0  0
M  END
>  <minimizedAffinity>
-3.39188123

>  <minimizedRMSD>
1.62060809

$$$$
