
 OpenBabel03252503363D

 49 53  0  0  1  0  0  0  0  0999 V2000
   49.2330   30.6620   41.1530 C   0  0  0  0  0  0  0  0  0  0  0  0
   49.6060   31.3100   40.0520 C   0  0  0  0  0  0  0  0  0  0  0  0
   50.9780   31.4030   39.7070 N   0  0  0  0  0  0  0  0  0  0  0  0
   51.9900   31.4300   38.7200 C   0  0  0  0  0  0  0  0  0  0  0  0
   52.0160   31.4530   37.4520 O   0  0  0  0  0  0  0  0  0  0  0  0
   53.0980   31.4230   39.6610 C   0  0  1  0  0  0  0  0  0  0  0  0
   52.0150   31.5410   40.7100 C   0  0  2  0  0  0  0  0  0  0  0  0
   51.8560   30.1560   41.8390 S   0  0  0  0  0  0  0  0  0  0  0  0
   50.1010   29.9660   42.1470 C   0  0  0  0  0  0  0  0  0  0  0  0
   53.7360   32.3360   39.6390 H   0  0  0  0  0  0  0  0  0  0  0  0
   51.9930   32.5460   41.1830 H   0  0  0  0  0  0  0  0  0  0  0  0
   49.8320   28.8910   42.0970 H   0  0  0  0  0  0  0  0  0  0  0  0
   49.8600   30.3080   43.1730 H   0  0  0  0  0  0  0  0  0  0  0  0
   53.8670   30.1880   39.6420 C   0  0  0  0  0  0  0  0  0  0  0  0
   54.7870   29.7420   40.3490 O   0  0  0  0  0  0  0  0  0  0  0  0
   53.4760   29.2910   38.5800 N   0  0  0  0  0  0  0  0  0  0  0  0
   52.7540   29.3260   37.8240 H   0  0  0  0  0  0  0  0  0  0  0  0
   55.7830   26.6530   37.3610 C   0  0  0  0  0  0  0  0  0  0  0  0
   55.1940   27.9040   37.5360 C   0  0  0  0  0  0  0  0  0  0  0  0
   54.1200   28.0430   38.3900 C   0  0  0  0  0  0  0  0  0  0  0  0
   53.6670   26.9570   39.0370 N   0  0  0  0  0  0  0  0  0  0  0  0
   54.2490   25.7330   38.8630 C   0  0  0  0  0  0  0  0  0  0  0  0
   55.2930   25.6030   38.0300 N   0  0  0  0  0  0  0  0  0  0  0  0
   56.6260   26.5160   36.6990 H   0  0  0  0  0  0  0  0  0  0  0  0
   55.5860   28.7460   37.0000 H   0  0  0  0  0  0  0  0  0  0  0  0
   53.8160   24.9190   39.4260 H   0  0  0  0  0  0  0  0  0  0  0  0
   47.7720   30.6400   41.4080 C   0  0  0  0  0  0  0  0  0  0  0  0
   47.3410   29.6460   41.0950 H   0  0  0  0  0  0  0  0  0  0  0  0
   47.6210   30.6880   42.5200 H   0  0  0  0  0  0  0  0  0  0  0  0
   47.2190   31.4340   40.9080 H   0  0  0  0  0  0  0  0  0  0  0  0
   48.6340   31.9410   39.1780 C   0  0  0  0  0  0  0  0  0  0  0  0
   48.5840   31.7450   37.9450 O   0  0  0  0  0  0  0  0  0  0  0  0
   47.6020   32.8320   39.4070 O   0  0  0  0  0  0  0  0  0  0  0  0
   46.3710   32.7670   38.7050 C   0  0  0  0  0  2  0  0  0  0  0  0
   45.3520   33.4150   39.5590 C   0  0  0  0  0  0  0  0  0  0  0  0
   44.0690   33.4310   39.3340 C   0  0  0  0  0  0  0  0  0  0  0  0
   43.2380   34.0980   40.2460 N   0  0  0  0  0  0  0  0  0  0  0  0
   41.9670   34.1520   40.9260 C   0  0  0  0  0  0  0  0  0  0  0  0
   40.8330   33.5750   40.8110 O   0  0  0  0  0  0  0  0  0  0  0  0
   42.4070   35.1690   41.8840 C   0  0  0  0  0  3  0  0  0  0  0  0
   42.6160   34.7120   42.8770 H   0  0  0  0  0  0  0  0  0  0  0  0
   43.5860   35.3040   40.9610 C   0  0  1  0  0  3  0  0  0  0  0  0
   45.1250   34.9120   41.8660 S   0  0  0  0  0  0  0  0  0  0  0  0
   46.1030   34.0120   40.6720 C   0  0  0  0  0  3  0  0  0  0  0  0
   46.9140   34.7150   40.3200 H   0  0  0  0  0  0  0  0  0  0  0  0
   43.4570   32.7930   38.1740 C   0  0  0  0  0  0  0  0  0  0  0  0
   43.7950   31.9990   37.2650 O   0  0  0  0  0  0  0  0  0  0  0  0
   42.1470   32.9810   37.7930 O   0  0  0  0  0  0  0  0  0  0  0  0
   41.4570   32.2350   37.6160 H   0  0  0  0  0  0  0  0  0  0  0  0
  1 27  1  0  0  0  0
  1  9  1  0  0  0  0
  2  1  2  0  0  0  0
  3  2  1  0  0  0  0
  3  7  1  0  0  0  0
  4  6  1  0  0  0  0
  4  3  1  0  0  0  0
  5  4  2  0  0  0  0
  6 10  1  6  0  0  0
  6  7  1  0  0  0  0
  7 11  1  1  0  0  0
  7  8  1  0  0  0  0
  8  9  1  0  0  0  0
  9 13  1  0  0  0  0
 12  9  1  0  0  0  0
 14  6  1  0  0  0  0
 14 15  2  0  0  0  0
 16 14  1  0  0  0  0
 17 16  1  0  0  0  0
 18 19  2  0  0  0  0
 18 23  1  0  0  0  0
 19 20  1  0  0  0  0
 20 16  1  0  0  0  0
 20 21  2  0  0  0  0
 22 21  1  0  0  0  0
 22 26  1  0  0  0  0
 23 22  2  0  0  0  0
 24 18  1  0  0  0  0
 25 19  1  0  0  0  0
 27 29  1  0  0  0  0
 28 27  1  0  0  0  0
 30 27  1  0  0  0  0
 31 33  1  0  0  0  0
 31  2  1  0  0  0  0
 32 31  2  0  0  0  0
 34 33  1  0  0  0  0
 34 35  1  0  0  0  0
 35 44  1  0  0  0  0
 36 35  2  0  0  0  0
 36 37  1  0  0  0  0
 37 38  1  0  0  0  0
 37 42  1  0  0  0  0
 38 40  1  0  0  0  0
 39 38  2  0  0  0  0
 40 41  1  0  0  0  0
 42 43  1  1  0  0  0
 42 40  1  0  0  0  0
 44 43  1  0  0  0  0
 45 44  1  0  0  0  0
 46 36  1  0  0  0  0
 47 46  2  0  0  0  0
 48 46  1  0  0  0  0
 49 48  1  0  0  0  0
M  END
>  <minimizedAffinity>
-4.19353771

>  <minimizedRMSD>
10.596159

$$$$
