
 OpenBabel03252506333D

 40 44  0  0  1  0  0  0  0  0999 V2000
   44.5140   35.7300   45.0690 C   0  0  0  0  0  0  0  0  0  0  0  0
   45.1010   35.6430   43.7780 C   0  0  0  0  0  0  0  0  0  0  0  0
   45.9330   34.6020   43.4940 C   0  0  0  0  0  0  0  0  0  0  0  0
   46.1450   33.7030   44.4890 N   0  0  0  0  0  0  0  0  0  0  0  0
   45.5960   33.7830   45.6930 C   0  0  0  0  0  0  0  0  0  0  0  0
   44.7830   34.7900   45.9880 N   0  0  0  0  0  0  0  0  0  0  0  0
   45.9150   32.7640   46.6300 N   0  0  0  0  0  0  0  0  0  0  0  0
   45.1690   32.5460   47.8810 C   0  0  0  0  0  0  0  0  0  0  0  0
   46.2960   32.1910   48.8380 C   0  0  0  0  0  0  0  0  0  0  0  0
   47.5180   31.9410   48.0080 C   0  0  0  0  0  0  0  0  0  0  0  0
   46.9410   31.7690   46.6220 C   0  0  1  0  0  0  0  0  0  0  0  0
   43.8430   36.5110   45.3990 H   0  0  0  0  0  0  0  0  0  0  0  0
   46.3710   34.5510   42.5100 H   0  0  0  0  0  0  0  0  0  0  0  0
   44.4830   31.6920   47.7340 H   0  0  0  0  0  0  0  0  0  0  0  0
   44.6500   33.4770   48.1590 H   0  0  0  0  0  0  0  0  0  0  0  0
   46.0670   31.2510   49.3970 H   0  0  0  0  0  0  0  0  0  0  0  0
   46.4490   33.0530   49.5230 H   0  0  0  0  0  0  0  0  0  0  0  0
   48.1980   32.8140   48.0540 H   0  0  0  0  0  0  0  0  0  0  0  0
   48.0910   31.0490   48.3480 H   0  0  0  0  0  0  0  0  0  0  0  0
   47.7360   31.9930   45.8760 H   0  0  0  0  0  0  0  0  0  0  0  0
   44.7520   36.6970   42.8630 N   0  0  0  0  0  0  0  0  0  0  0  0
   43.7060   36.8530   42.7880 H   0  0  0  0  0  0  0  0  0  0  0  0
   45.4210   37.2870   42.2980 H   0  0  0  0  0  0  0  0  0  0  0  0
   46.2950   30.1020   46.4350 S   0  0  0  0  0  0  0  0  0  0  0  0
   47.5910   28.9710   45.8700 C   0  0  0  0  0  2  0  0  0  0  0  0
   47.9690   28.0310   46.9470 C   0  0  0  0  0  0  0  0  0  0  0  0
   47.3070   26.9340   47.2350 C   0  0  0  0  0  0  0  0  0  0  0  0
   47.7140   26.0670   48.2690 N   0  0  0  0  0  0  0  0  0  0  0  0
   47.4600   24.9450   49.1400 C   0  0  1  0  0  0  0  0  0  0  0  0
   46.3980   24.6150   49.7420 O   0  0  0  0  0  1  0  0  0  0  0  0
   48.9110   24.6090   48.8640 C   0  0  0  0  0  3  0  0  0  0  0  0
   49.3930   23.9950   49.6240 H   0  0  0  0  0  0  0  0  0  0  0  0
   48.9760   26.0920   48.9860 C   0  0  1  0  0  0  0  0  0  0  0  0
   50.1640   27.0000   48.0140 S   0  0  0  0  0  0  0  0  0  0  0  0
   49.1710   28.5070   47.6370 C   0  0  0  0  0  3  0  0  0  0  0  0
   49.7780   29.2290   47.1020 H   0  0  0  0  0  0  0  0  0  0  0  0
   46.0910   26.4970   46.5130 C   0  0  0  0  0  0  0  0  0  0  0  0
   45.8600   25.8930   45.4430 O   0  0  0  0  0  0  0  0  0  0  0  0
   44.8150   26.7190   46.9750 O   0  0  0  0  0  0  0  0  0  0  0  0
   44.0210   26.9900   46.4210 H   0  0  0  0  0  0  0  0  0  0  0  0
  1 12  1  0  0  0  0
  1  6  1  0  0  0  0
  2  1  2  0  0  0  0
  3  2  1  0  0  0  0
  3  4  2  0  0  0  0
  4  5  1  0  0  0  0
  5  6  2  0  0  0  0
  5  7  1  0  0  0  0
  7  8  1  0  0  0  0
  8 15  1  0  0  0  0
  8  9  1  0  0  0  0
  9 16  1  0  0  0  0
  9 17  1  0  0  0  0
 10 18  1  0  0  0  0
 10 19  1  0  0  0  0
 10  9  1  0  0  0  0
 11 20  1  6  0  0  0
 11  7  1  0  0  0  0
 11 10  1  0  0  0  0
 13  3  1  0  0  0  0
 14  8  1  0  0  0  0
 21  2  1  0  0  0  0
 22 21  1  0  0  0  0
 23 21  1  0  0  0  0
 24 11  1  0  0  0  0
 25 24  1  0  0  0  0
 25 26  1  0  0  0  0
 26 27  2  0  0  0  0
 26 35  1  0  0  0  0
 27 28  1  0  0  0  0
 28 33  1  0  0  0  0
 28 29  1  0  0  0  0
 29 30  1  1  0  0  0
 31 33  1  0  0  0  0
 31 29  1  0  0  0  0
 31 32  1  0  0  0  0
 33 34  1  1  0  0  0
 33 29  1  0  0  0  0
 35 34  1  0  0  0  0
 36 35  1  0  0  0  0
 37 39  1  0  0  0  0
 37 27  1  0  0  0  0
 38 37  2  0  0  0  0
 40 39  1  0  0  0  0
M  END
>  <minimizedAffinity>
-5.55891848

>  <minimizedRMSD>
1.37877846

$$$$
