
 OpenBabel03242521113D

 38 42  0  0  1  0  0  0  0  0999 V2000
   45.6170   30.4240   47.6650 C   0  0  1  0  0  0  0  0  0  0  0  0
   45.4000   31.9090   47.3610 C   0  0  1  0  0  0  0  0  0  0  0  0
   45.7630   32.5170   48.6940 C   0  0  0  0  0  0  0  0  0  0  0  0
   45.4980   31.6020   49.6790 O   0  0  0  0  0  0  0  0  0  0  0  0
   45.2380   30.3630   49.0980 C   0  0  0  0  0  0  0  0  0  0  0  0
   46.7040   30.2120   47.4560 H   0  0  0  0  0  0  0  0  0  0  0  0
   44.3550   32.1230   47.1100 H   0  0  0  0  0  0  0  0  0  0  0  0
   45.2870   33.5050   48.8630 H   0  0  0  0  0  0  0  0  0  0  0  0
   46.8690   32.7100   48.7260 H   0  0  0  0  0  0  0  0  0  0  0  0
   45.7030   29.5320   49.6680 H   0  0  0  0  0  0  0  0  0  0  0  0
   44.1390   30.2160   49.1530 H   0  0  0  0  0  0  0  0  0  0  0  0
   46.5980   32.5400   46.1670 S   0  0  0  0  0  0  0  0  0  0  0  0
   44.5720   35.7070   44.7190 C   0  0  0  0  0  0  0  0  0  0  0  0
   45.1780   35.8120   43.4230 C   0  0  0  0  0  0  0  0  0  0  0  0
   46.1670   34.9100   43.0710 C   0  0  0  0  0  0  0  0  0  0  0  0
   46.5170   33.9650   43.9710 N   0  0  0  0  0  0  0  0  0  0  0  0
   45.9380   33.8770   45.1930 C   0  0  0  0  0  0  0  0  0  0  0  0
   44.9650   34.7410   45.5780 N   0  0  0  0  0  0  0  0  0  0  0  0
   43.7950   36.3900   45.0370 H   0  0  0  0  0  0  0  0  0  0  0  0
   44.8410   36.5940   42.7620 H   0  0  0  0  0  0  0  0  0  0  0  0
   46.6120   35.0020   42.0910 H   0  0  0  0  0  0  0  0  0  0  0  0
   44.7410   29.6990   46.9170 O   0  0  0  0  0  0  0  0  0  0  0  0
   45.4080   28.6720   46.2590 C   0  0  0  0  0  0  0  0  0  0  0  0
   45.3420   27.3970   46.9640 C   0  0  0  0  0  0  0  0  0  0  0  0
   46.3540   26.7810   47.5150 C   0  0  0  0  0  0  0  0  0  0  0  0
   46.2160   25.5330   48.1810 N   0  0  0  0  0  0  0  0  0  0  0  0
   46.7560   24.4450   48.9240 C   0  0  2  0  0  0  0  0  0  0  0  0
   47.6340   24.3600   49.8180 O   0  0  0  0  0  0  0  0  0  0  0  0
   45.8310   23.5470   48.1680 C   0  0  0  0  0  0  0  0  0  0  0  0
   45.4910   22.6980   48.7620 H   0  0  0  0  0  0  0  0  0  0  0  0
   44.9740   24.7860   48.2840 C   0  0  2  0  0  0  0  0  0  0  0  0
   43.9200   25.1270   46.8440 S   0  0  0  0  0  0  0  0  0  0  0  0
   43.9470   26.9600   46.9290 C   0  0  0  0  0  0  0  0  0  0  0  0
   43.3500   27.3020   46.0850 H   0  0  0  0  0  0  0  0  0  0  0  0
   47.7460   27.2940   47.5050 C   0  0  0  0  0  0  0  0  0  0  0  0
   48.4930   27.8170   46.6450 O   0  0  0  0  0  0  0  0  0  0  0  0
   48.5770   27.2820   48.5950 O   0  0  0  0  0  0  0  0  0  0  0  0
   49.1620   28.0570   48.8650 H   0  0  0  0  0  0  0  0  0  0  0  0
  1  6  1  6  0  0  0
  1  5  1  0  0  0  0
  2  7  1  6  0  0  0
  2  1  1  0  0  0  0
  2  3  1  0  0  0  0
  3  9  1  0  0  0  0
  3  8  1  0  0  0  0
  3  4  1  0  0  0  0
  5 11  1  0  0  0  0
  5 10  1  0  0  0  0
  5  4  1  0  0  0  0
 12  2  1  0  0  0  0
 13 19  1  0  0  0  0
 13 18  1  0  0  0  0
 14 13  2  0  0  0  0
 15 14  1  0  0  0  0
 15 16  2  0  0  0  0
 16 17  1  0  0  0  0
 17 18  2  0  0  0  0
 17 12  1  0  0  0  0
 20 14  1  0  0  0  0
 21 15  1  0  0  0  0
 22  1  1  0  0  0  0
 23 22  1  0  0  0  0
 23 24  1  0  0  0  0
 24 25  2  0  0  0  0
 25 26  1  0  0  0  0
 26 31  1  0  0  0  0
 26 27  1  0  0  0  0
 27 28  1  1  0  0  0
 29 31  1  0  0  0  0
 29 30  1  0  0  0  0
 29 27  1  0  0  0  0
 31 32  1  1  0  0  0
 31 27  1  0  0  0  0
 32 33  1  0  0  0  0
 33 24  1  0  0  0  0
 34 33  1  0  0  0  0
 35 25  1  0  0  0  0
 35 37  1  0  0  0  0
 36 35  2  0  0  0  0
 37 38  1  0  0  0  0
M  END
>  <minimizedAffinity>
-5.368958

>  <minimizedRMSD>
4.32676601

$$$$
