
 OpenBabel03252504223D

 39 43  0  0  1  0  0  0  0  0999 V2000
   47.9520   33.7630   40.3200 C   0  0  0  0  0  0  0  0  0  0  0  0
   49.2900   33.5240   40.6300 C   0  0  0  0  0  0  0  0  0  0  0  0
   49.6920   33.5710   41.9800 C   0  0  0  0  0  0  0  0  0  0  0  0
   48.7190   33.8540   42.9040 N   0  0  0  0  0  0  0  0  0  0  0  0
   47.4360   34.0770   42.5540 C   0  0  0  0  0  0  0  0  0  0  0  0
   47.0520   34.0350   41.2780 N   0  0  0  0  0  0  0  0  0  0  0  0
   46.4970   34.3640   43.5910 N   0  0  0  0  0  0  0  0  0  0  0  0
   45.5500   35.3260   43.5740 C   0  0  0  0  0  0  0  0  0  0  0  0
   44.8620   35.2750   44.7440 N   0  0  0  0  0  0  0  0  0  0  0  0
   45.3950   34.2890   45.4540 C   0  0  0  0  0  0  0  0  0  0  0  0
   45.1380   33.7560   46.7020 C   0  0  0  0  0  0  0  0  0  0  0  0
   45.8320   32.7370   47.2090 N   0  0  0  0  0  0  0  0  0  0  0  0
   46.8350   32.1620   46.5260 C   0  0  0  0  0  0  0  0  0  0  0  0
   47.0970   32.6670   45.3150 N   0  0  0  0  0  0  0  0  0  0  0  0
   46.4300   33.6890   44.7610 C   0  0  0  0  0  0  0  0  0  0  0  0
   50.0390   33.3020   39.8610 H   0  0  0  0  0  0  0  0  0  0  0  0
   50.7130   33.3920   42.2550 H   0  0  0  0  0  0  0  0  0  0  0  0
   45.3810   36.0230   42.7410 H   0  0  0  0  0  0  0  0  0  0  0  0
   47.3890   31.3350   46.9520 H   0  0  0  0  0  0  0  0  0  0  0  0
   44.1100   34.2620   47.5350 N   0  0  0  0  0  0  0  0  0  0  0  0
   43.0830   34.2930   47.2850 H   0  0  0  0  0  0  0  0  0  0  0  0
   44.2840   34.6520   48.4800 H   0  0  0  0  0  0  0  0  0  0  0  0
   47.5420   33.6790   38.5600 S   0  0  0  0  0  0  0  0  0  0  0  0
   47.0630   31.9900   38.1130 C   0  0  0  0  0  2  0  0  0  0  0  0
   47.8750   31.0120   38.8560 C   0  0  0  0  0  0  0  0  0  0  0  0
   49.1020   30.7270   38.5480 C   0  0  0  0  0  0  0  0  0  0  0  0
   49.8680   29.7870   39.2720 N   0  0  0  0  0  0  0  0  0  0  0  0
   50.8310   28.7470   39.3080 C   0  0  0  0  0  0  0  0  0  0  0  0
   51.6570   28.2660   38.4610 O   0  0  0  0  0  0  0  0  0  0  0  0
   50.5320   28.4060   40.7190 C   0  0  0  0  0  3  0  0  0  0  0  0
   51.4700   28.3860   41.3000 H   0  0  0  0  0  0  0  0  0  0  0  0
   49.7500   29.6780   40.7140 C   0  0  2  0  0  3  0  0  0  0  0  0
   47.9820   29.3250   41.0310 S   0  0  0  0  0  0  0  0  0  0  0  0
   47.0900   30.4490   39.9480 C   0  0  0  0  0  3  0  0  0  0  0  0
   46.7310   31.2990   40.6010 H   0  0  0  0  0  0  0  0  0  0  0  0
   49.7270   31.3940   37.4120 C   0  0  0  0  0  0  0  0  0  0  0  0
   50.8380   32.0060   37.4570 O   0  0  0  0  0  0  0  0  0  0  0  0
   50.0940   31.9380   36.2010 O   0  0  0  0  0  0  0  0  0  0  0  0
   49.4790   32.0900   35.4060 H   0  0  0  0  0  0  0  0  0  0  0  0
  1  2  2  0  0  0  0
  1  6  1  0  0  0  0
  2  3  1  0  0  0  0
  3 17  1  0  0  0  0
  3  4  2  0  0  0  0
  5  4  1  0  0  0  0
  5  7  1  0  0  0  0
  6  5  2  0  0  0  0
  7 15  1  0  0  0  0
  8  7  1  0  0  0  0
  8  9  2  0  0  0  0
  9 10  1  0  0  0  0
 10 11  1  0  0  0  0
 11 12  2  0  0  0  0
 11 20  1  0  0  0  0
 13 19  1  0  0  0  0
 13 12  1  0  0  0  0
 14 13  2  0  0  0  0
 15 14  1  0  0  0  0
 15 10  2  0  0  0  0
 16  2  1  0  0  0  0
 18  8  1  0  0  0  0
 20 22  1  0  0  0  0
 21 20  1  0  0  0  0
 23  1  1  0  0  0  0
 24 23  1  0  0  0  0
 24 25  1  0  0  0  0
 25 34  1  0  0  0  0
 26 25  2  0  0  0  0
 26 27  1  0  0  0  0
 27 28  1  0  0  0  0
 27 32  1  0  0  0  0
 28 30  1  0  0  0  0
 29 28  2  0  0  0  0
 30 31  1  0  0  0  0
 32 30  1  6  0  0  0
 32 33  1  0  0  0  0
 34 35  1  0  0  0  0
 34 33  1  0  0  0  0
 36 37  2  0  0  0  0
 36 26  1  0  0  0  0
 38 36  1  0  0  0  0
 39 38  1  0  0  0  0
M  END
>  <minimizedAffinity>
-5.33835125

>  <minimizedRMSD>
1.52504563

$$$$
