
 OpenBabel03252506333D

 40 44  0  0  1  0  0  0  0  0999 V2000
   44.5320   35.7800   45.0140 C   0  0  0  0  0  0  0  0  0  0  0  0
   45.0430   35.6400   43.6950 C   0  0  0  0  0  0  0  0  0  0  0  0
   45.8080   34.5540   43.3900 C   0  0  0  0  0  0  0  0  0  0  0  0
   46.0300   33.6650   44.3910 N   0  0  0  0  0  0  0  0  0  0  0  0
   45.5530   33.7940   45.6210 C   0  0  0  0  0  0  0  0  0  0  0  0
   44.8060   34.8460   45.9380 N   0  0  0  0  0  0  0  0  0  0  0  0
   45.8740   32.7790   46.5620 N   0  0  0  0  0  0  0  0  0  0  0  0
   45.1880   32.6220   47.8550 C   0  0  0  0  0  0  0  0  0  0  0  0
   46.3470   32.2300   48.7570 C   0  0  0  0  0  0  0  0  0  0  0  0
   47.5080   31.9060   47.8690 C   0  0  0  0  0  0  0  0  0  0  0  0
   46.8490   31.7350   46.5200 C   0  0  1  0  0  0  0  0  0  0  0  0
   43.9180   36.5990   45.3630 H   0  0  0  0  0  0  0  0  0  0  0  0
   46.1880   34.4640   42.3850 H   0  0  0  0  0  0  0  0  0  0  0  0
   44.4540   31.7990   47.7640 H   0  0  0  0  0  0  0  0  0  0  0  0
   44.7290   33.5820   48.1400 H   0  0  0  0  0  0  0  0  0  0  0  0
   46.1050   31.3140   49.3480 H   0  0  0  0  0  0  0  0  0  0  0  0
   46.5780   33.0960   49.4140 H   0  0  0  0  0  0  0  0  0  0  0  0
   48.2310   32.7440   47.8590 H   0  0  0  0  0  0  0  0  0  0  0  0
   48.0560   30.9930   48.1970 H   0  0  0  0  0  0  0  0  0  0  0  0
   47.6110   31.9060   45.7270 H   0  0  0  0  0  0  0  0  0  0  0  0
   44.6950   36.6920   42.7790 N   0  0  0  0  0  0  0  0  0  0  0  0
   43.6550   36.8980   42.7570 H   0  0  0  0  0  0  0  0  0  0  0  0
   45.3590   37.2380   42.1660 H   0  0  0  0  0  0  0  0  0  0  0  0
   46.1150   30.0990   46.4040 S   0  0  0  0  0  0  0  0  0  0  0  0
   46.9610   29.1030   45.1510 C   0  0  0  0  0  2  0  0  0  0  0  0
   48.4270   29.2480   45.2700 C   0  0  0  0  0  0  0  0  0  0  0  0
   49.1330   28.8060   46.2860 C   0  0  0  0  0  0  0  0  0  0  0  0
   50.5320   28.9640   46.3480 N   0  0  0  0  0  0  0  0  0  0  0  0
   51.7710   28.8990   47.0840 C   0  0  1  0  0  0  0  0  0  0  0  0
   52.0210   29.2350   48.2760 O   0  0  0  0  0  1  0  0  0  0  0  0
   52.3200   28.3280   45.7920 C   0  0  0  0  0  3  0  0  0  0  0  0
   53.3950   28.4400   45.6600 H   0  0  0  0  0  0  0  0  0  0  0  0
   51.4130   29.3890   45.2760 C   0  0  1  0  0  0  0  0  0  0  0  0
   50.5740   29.1460   43.7210 S   0  0  0  0  0  0  0  0  0  0  0  0
   48.9630   29.9560   44.1050 C   0  0  0  0  0  3  0  0  0  0  0  0
   48.3340   29.9740   43.2220 H   0  0  0  0  0  0  0  0  0  0  0  0
   48.5450   28.1000   47.4470 C   0  0  0  0  0  0  0  0  0  0  0  0
   47.9730   27.0010   47.6250 O   0  0  0  0  0  0  0  0  0  0  0  0
   48.5260   28.6180   48.7190 O   0  0  0  0  0  0  0  0  0  0  0  0
   47.7650   28.5620   49.3730 H   0  0  0  0  0  0  0  0  0  0  0  0
  1 12  1  0  0  0  0
  1  6  1  0  0  0  0
  2  1  2  0  0  0  0
  3  2  1  0  0  0  0
  3  4  2  0  0  0  0
  4  5  1  0  0  0  0
  5  6  2  0  0  0  0
  5  7  1  0  0  0  0
  7  8  1  0  0  0  0
  8 15  1  0  0  0  0
  8  9  1  0  0  0  0
  9 16  1  0  0  0  0
  9 17  1  0  0  0  0
 10 19  1  0  0  0  0
 10  9  1  0  0  0  0
 11 20  1  6  0  0  0
 11  7  1  0  0  0  0
 11 10  1  0  0  0  0
 13  3  1  0  0  0  0
 14  8  1  0  0  0  0
 18 10  1  0  0  0  0
 21  2  1  0  0  0  0
 22 21  1  0  0  0  0
 23 21  1  0  0  0  0
 24 11  1  0  0  0  0
 25 26  1  0  0  0  0
 25 24  1  0  0  0  0
 26 27  2  0  0  0  0
 27 28  1  0  0  0  0
 27 37  1  0  0  0  0
 28 29  1  0  0  0  0
 29 30  1  1  0  0  0
 31 29  1  0  0  0  0
 32 31  1  0  0  0  0
 33 34  1  6  0  0  0
 33 31  1  0  0  0  0
 33 28  1  0  0  0  0
 33 29  1  0  0  0  0
 34 35  1  0  0  0  0
 35 26  1  0  0  0  0
 36 35  1  0  0  0  0
 37 38  2  0  0  0  0
 37 39  1  0  0  0  0
 39 40  1  0  0  0  0
M  END
>  <minimizedAffinity>
-5.28450871

>  <minimizedRMSD>
1.6253109

$$$$
