
 OpenBabel03252501363D

 32 34  0  0  1  0  0  0  0  0999 V2000
   37.0010   31.4910   39.7140 O   0  0  0  0  0  0  0  0  0  0  0  0
   38.2130   32.1770   39.5730 C   0  0  0  0  0  0  0  0  0  0  0  0
   38.3720   33.4380   39.5240 O   0  0  0  0  0  0  0  0  0  0  0  0
   39.4500   31.4640   39.4670 N   0  0  0  0  0  0  0  0  0  0  0  0
   39.4900   30.4410   39.5100 H   0  0  0  0  0  0  0  0  0  0  0  0
   40.5340   32.4300   39.3000 C   0  0  0  0  0  0  0  0  0  0  0  0
   40.9620   32.9240   38.0940 C   0  0  0  0  0  0  0  0  0  0  0  0
   42.0000   33.8350   38.1490 C   0  0  0  0  0  0  0  0  0  0  0  0
   42.5030   34.1610   39.3470 N   0  0  0  0  0  0  0  0  0  0  0  0
   42.0570   33.6540   40.5150 C   0  0  0  0  0  0  0  0  0  0  0  0
   41.0330   32.7520   40.5020 N   0  0  0  0  0  0  0  0  0  0  0  0
   42.3460   34.2310   37.2040 H   0  0  0  0  0  0  0  0  0  0  0  0
   42.5170   33.9690   41.4460 H   0  0  0  0  0  0  0  0  0  0  0  0
   40.3090   32.4630   36.9330 N   0  0  0  0  0  0  0  0  0  0  0  0
   39.3920   32.9120   36.6470 H   0  0  0  0  0  0  0  0  0  0  0  0
   40.7730   31.6790   36.3940 H   0  0  0  0  0  0  0  0  0  0  0  0
   36.5920   31.1580   41.0590 C   0  0  0  0  0  2  0  0  0  0  0  0
   36.8710   29.7510   41.3640 C   0  0  0  0  0  0  0  0  0  0  0  0
   36.2520   28.7220   40.8090 C   0  0  0  0  0  0  0  0  0  0  0  0
   36.6380   27.4130   41.2060 N   0  0  0  0  0  0  0  0  0  0  0  0
   36.8560   26.0780   40.7630 C   0  0  0  0  0  0  0  0  0  0  0  0
   36.7250   25.3540   39.7270 O   0  0  0  0  0  0  0  0  0  0  0  0
   37.3770   25.6830   42.0850 C   0  0  0  0  0  3  0  0  0  0  0  0
   36.7400   24.8550   42.4820 H   0  0  0  0  0  0  0  0  0  0  0  0
   37.0080   27.0460   42.5750 C   0  0  1  0  0  3  0  0  0  0  0  0
   38.3890   28.1360   43.0120 S   0  0  0  0  0  0  0  0  0  0  0  0
   37.9490   29.7610   42.3810 C   0  0  0  0  0  3  0  0  0  0  0  0
   38.8430   30.2920   41.9580 H   0  0  0  0  0  0  0  0  0  0  0  0
   35.1930   28.8510   39.8050 C   0  0  0  0  0  0  0  0  0  0  0  0
   35.1400   28.6360   38.5730 O   0  0  0  0  0  0  0  0  0  0  0  0
   33.9330   29.2860   40.1170 O   0  0  0  0  0  0  0  0  0  0  0  0
   33.4370   29.9380   39.5550 H   0  0  0  0  0  0  0  0  0  0  0  0
  1 17  1  0  0  0  0
  2  1  1  0  0  0  0
  3  2  2  0  0  0  0
  4  5  1  0  0  0  0
  4  2  1  0  0  0  0
  6  4  1  0  0  0  0
  6 11  1  0  0  0  0
  7  8  1  0  0  0  0
  7  6  2  0  0  0  0
  8  9  2  0  0  0  0
  9 10  1  0  0  0  0
 10 13  1  0  0  0  0
 11 10  2  0  0  0  0
 12  8  1  0  0  0  0
 14  7  1  0  0  0  0
 15 14  1  0  0  0  0
 16 14  1  0  0  0  0
 17 18  1  0  0  0  0
 18 27  1  0  0  0  0
 19 20  1  0  0  0  0
 19 18  2  0  0  0  0
 20 25  1  0  0  0  0
 21 20  1  0  0  0  0
 21 23  1  0  0  0  0
 22 21  2  0  0  0  0
 23 24  1  0  0  0  0
 25 23  1  6  0  0  0
 25 26  1  0  0  0  0
 27 26  1  0  0  0  0
 28 27  1  0  0  0  0
 29 31  1  0  0  0  0
 29 19  1  0  0  0  0
 30 29  2  0  0  0  0
 32 31  1  0  0  0  0
M  END
>  <minimizedAffinity>
-5.79595375

$$$$

 OpenBabel03252501363D

 32 34  0  0  1  0  0  0  0  0999 V2000
   37.3000   31.8990   39.1860 O   0  0  0  0  0  0  0  0  0  0  0  0
   38.6530   32.2370   39.2960 C   0  0  0  0  0  0  0  0  0  0  0  0
   39.6150   31.4490   39.5650 O   0  0  0  0  0  0  0  0  0  0  0  0
   39.0900   33.5860   39.1010 N   0  0  0  0  0  0  0  0  0  0  0  0
   38.4350   34.3370   38.8590 H   0  0  0  0  0  0  0  0  0  0  0  0
   40.5360   33.6460   39.3080 C   0  0  0  0  0  0  0  0  0  0  0  0
   41.4740   33.3550   38.3510 C   0  0  0  0  0  0  0  0  0  0  0  0
   42.7940   33.4770   38.7440 C   0  0  0  0  0  0  0  0  0  0  0  0
   43.0550   33.8610   39.9990 N   0  0  0  0  0  0  0  0  0  0  0  0
   42.1050   34.1400   40.9160 C   0  0  0  0  0  0  0  0  0  0  0  0
   40.7900   34.0310   40.5660 N   0  0  0  0  0  0  0  0  0  0  0  0
   43.5430   33.2490   37.9970 H   0  0  0  0  0  0  0  0  0  0  0  0
   42.3980   34.4460   41.9150 H   0  0  0  0  0  0  0  0  0  0  0  0
   41.0080   32.9660   37.0790 N   0  0  0  0  0  0  0  0  0  0  0  0
   40.7210   33.7150   36.3860 H   0  0  0  0  0  0  0  0  0  0  0  0
   40.9670   31.9290   36.8730 H   0  0  0  0  0  0  0  0  0  0  0  0
   36.6860   31.2780   40.3370 C   0  0  0  0  0  2  0  0  0  0  0  0
   36.7310   29.8160   40.2370 C   0  0  0  0  0  0  0  0  0  0  0  0
   37.2460   29.0120   41.1530 C   0  0  0  0  0  0  0  0  0  0  0  0
   37.2110   27.6110   40.9120 N   0  0  0  0  0  0  0  0  0  0  0  0
   37.0340   26.3310   41.5090 C   0  0  0  0  0  0  0  0  0  0  0  0
   36.8850   25.7930   42.6500 O   0  0  0  0  0  0  0  0  0  0  0  0
   37.0790   25.6680   40.1930 C   0  0  0  0  0  3  0  0  0  0  0  0
   37.9240   24.9360   40.1950 H   0  0  0  0  0  0  0  0  0  0  0  0
   37.4080   26.9990   39.5970 C   0  0  1  0  0  3  0  0  0  0  0  0
   36.1390   27.7280   38.5280 S   0  0  0  0  0  0  0  0  0  0  0  0
   36.0970   29.4780   38.9410 C   0  0  0  0  0  3  0  0  0  0  0  0
   35.0460   29.8750   38.9340 H   0  0  0  0  0  0  0  0  0  0  0  0
   37.8480   29.4800   42.4040 C   0  0  0  0  0  0  0  0  0  0  0  0
   38.9100   30.0830   42.6780 O   0  0  0  0  0  0  0  0  0  0  0  0
   37.2490   29.2990   43.6210 O   0  0  0  0  0  0  0  0  0  0  0  0
   37.7510   29.0070   44.4270 H   0  0  0  0  0  0  0  0  0  0  0  0
  1  2  1  0  0  0  0
  1 17  1  0  0  0  0
  2  3  2  0  0  0  0
  4  2  1  0  0  0  0
  4  6  1  0  0  0  0
  5  4  1  0  0  0  0
  6 11  1  0  0  0  0
  7  8  1  0  0  0  0
  7  6  2  0  0  0  0
  8  9  2  0  0  0  0
  9 10  1  0  0  0  0
 10 13  1  0  0  0  0
 11 10  2  0  0  0  0
 12  8  1  0  0  0  0
 14  7  1  0  0  0  0
 15 14  1  0  0  0  0
 16 14  1  0  0  0  0
 18 17  1  0  0  0  0
 18 19  2  0  0  0  0
 19 29  1  0  0  0  0
 20 19  1  0  0  0  0
 20 21  1  0  0  0  0
 21 22  2  0  0  0  0
 23 24  1  0  0  0  0
 23 21  1  0  0  0  0
 25 26  1  6  0  0  0
 25 23  1  0  0  0  0
 25 20  1  0  0  0  0
 26 27  1  0  0  0  0
 27 18  1  0  0  0  0
 28 27  1  0  0  0  0
 29 30  2  0  0  0  0
 29 31  1  0  0  0  0
 31 32  1  0  0  0  0
M  END
>  <minimizedAffinity>
-5.67806959

$$$$

 OpenBabel03252501363D

 32 34  0  0  1  0  0  0  0  0999 V2000
   37.4720   30.0010   37.1690 O   0  0  0  0  0  0  0  0  0  0  0  0
   38.6300   30.6520   37.6100 C   0  0  0  0  0  0  0  0  0  0  0  0
   39.4420   30.2410   38.4990 O   0  0  0  0  0  0  0  0  0  0  0  0
   39.0170   31.9140   37.0560 N   0  0  0  0  0  0  0  0  0  0  0  0
   38.4760   32.3690   36.3140 H   0  0  0  0  0  0  0  0  0  0  0  0
   40.2370   32.3650   37.7230 C   0  0  0  0  0  0  0  0  0  0  0  0
   40.2710   33.0570   38.9070 C   0  0  0  0  0  0  0  0  0  0  0  0
   41.5280   33.3880   39.3770 C   0  0  0  0  0  0  0  0  0  0  0  0
   42.5970   33.0180   38.6600 N   0  0  0  0  0  0  0  0  0  0  0  0
   42.5270   32.3360   37.4980 C   0  0  0  0  0  0  0  0  0  0  0  0
   41.3040   31.9910   37.0010 N   0  0  0  0  0  0  0  0  0  0  0  0
   41.5670   33.9350   40.3100 H   0  0  0  0  0  0  0  0  0  0  0  0
   43.4410   32.0720   36.9760 H   0  0  0  0  0  0  0  0  0  0  0  0
   39.0380   33.3590   39.5200 N   0  0  0  0  0  0  0  0  0  0  0  0
   38.5660   32.6190   40.1140 H   0  0  0  0  0  0  0  0  0  0  0  0
   38.6370   34.3240   39.3550 H   0  0  0  0  0  0  0  0  0  0  0  0
   36.3700   29.9300   38.0990 C   0  0  0  0  0  2  0  0  0  0  0  0
   36.5660   28.8480   39.0690 C   0  0  0  0  0  0  0  0  0  0  0  0
   36.7780   29.0230   40.3640 C   0  0  0  0  0  0  0  0  0  0  0  0
   36.9460   27.8710   41.1790 N   0  0  0  0  0  0  0  0  0  0  0  0
   36.6700   27.2940   42.4500 C   0  0  0  0  0  0  0  0  0  0  0  0
   36.1630   27.5960   43.5760 O   0  0  0  0  0  0  0  0  0  0  0  0
   37.2410   26.0010   42.0310 C   0  0  0  0  0  3  0  0  0  0  0  0
   38.0840   25.7470   42.7190 H   0  0  0  0  0  0  0  0  0  0  0  0
   37.6540   26.6620   40.7550 C   0  0  1  0  0  3  0  0  0  0  0  0
   36.8020   26.1020   39.2560 S   0  0  0  0  0  0  0  0  0  0  0  0
   36.4730   27.5860   38.2970 C   0  0  0  0  0  3  0  0  0  0  0  0
   35.4670   27.5370   37.8000 H   0  0  0  0  0  0  0  0  0  0  0  0
   36.8480   30.3370   41.0080 C   0  0  0  0  0  0  0  0  0  0  0  0
   37.7900   31.1130   41.2880 O   0  0  0  0  0  0  0  0  0  0  0  0
   35.7350   30.9960   41.4560 O   0  0  0  0  0  0  0  0  0  0  0  0
   35.7050   31.4610   42.3340 H   0  0  0  0  0  0  0  0  0  0  0  0
  1  2  1  0  0  0  0
  1 17  1  0  0  0  0
  2  3  2  0  0  0  0
  4  2  1  0  0  0  0
  4  6  1  0  0  0  0
  5  4  1  0  0  0  0
  6  7  1  0  0  0  0
  7  8  2  0  0  0  0
  7 14  1  0  0  0  0
  8 12  1  0  0  0  0
  9  8  1  0  0  0  0
 10  9  2  0  0  0  0
 11 10  1  0  0  0  0
 11  6  2  0  0  0  0
 13 10  1  0  0  0  0
 14 15  1  0  0  0  0
 16 14  1  0  0  0  0
 17 18  1  0  0  0  0
 18 19  2  0  0  0  0
 19 29  1  0  0  0  0
 19 20  1  0  0  0  0
 20 21  1  0  0  0  0
 21 22  2  0  0  0  0
 23 21  1  0  0  0  0
 23 24  1  0  0  0  0
 25 26  1  6  0  0  0
 25 20  1  0  0  0  0
 25 23  1  0  0  0  0
 27 18  1  0  0  0  0
 27 26  1  0  0  0  0
 28 27  1  0  0  0  0
 29 30  2  0  0  0  0
 29 31  1  0  0  0  0
 31 32  1  0  0  0  0
M  END
>  <minimizedAffinity>
-5.63976288

$$$$

 OpenBabel03252501363D

 32 34  0  0  1  0  0  0  0  0999 V2000
   35.4430   29.8650   38.8950 O   0  0  0  0  0  0  0  0  0  0  0  0
   36.5270   30.6960   39.2010 C   0  0  0  0  0  0  0  0  0  0  0  0
   37.5800   30.8590   38.5070 O   0  0  0  0  0  0  0  0  0  0  0  0
   36.5350   31.4780   40.4000 N   0  0  0  0  0  0  0  0  0  0  0  0
   35.7470   31.4710   41.0560 H   0  0  0  0  0  0  0  0  0  0  0  0
   37.7950   32.2160   40.4700 C   0  0  0  0  0  0  0  0  0  0  0  0
   38.0070   33.4550   39.9200 C   0  0  0  0  0  0  0  0  0  0  0  0
   39.2700   33.9870   40.1020 C   0  0  0  0  0  0  0  0  0  0  0  0
   40.1730   33.2720   40.7840 N   0  0  0  0  0  0  0  0  0  0  0  0
   39.9300   32.0540   41.3130 C   0  0  0  0  0  0  0  0  0  0  0  0
   38.6950   31.4950   41.1550 N   0  0  0  0  0  0  0  0  0  0  0  0
   39.4490   34.9630   39.6720 H   0  0  0  0  0  0  0  0  0  0  0  0
   40.7160   31.5380   41.8540 H   0  0  0  0  0  0  0  0  0  0  0  0
   36.9320   34.0550   39.2350 N   0  0  0  0  0  0  0  0  0  0  0  0
   36.1920   34.5710   39.7920 H   0  0  0  0  0  0  0  0  0  0  0  0
   36.9160   33.9630   38.1810 H   0  0  0  0  0  0  0  0  0  0  0  0
   35.1080   28.8460   39.8620 C   0  0  0  0  0  2  0  0  0  0  0  0
   36.1070   27.7730   39.8660 C   0  0  0  0  0  0  0  0  0  0  0  0
   36.8020   27.3920   40.9270 C   0  0  0  0  0  0  0  0  0  0  0  0
   37.7340   26.3300   40.7730 N   0  0  0  0  0  0  0  0  0  0  0  0
   38.3000   25.1790   41.3900 C   0  0  0  0  0  0  0  0  0  0  0  0
   38.2870   24.5520   42.4950 O   0  0  0  0  0  0  0  0  0  0  0  0
   39.0510   24.8440   40.1660 C   0  0  0  0  0  3  0  0  0  0  0  0
   40.1410   24.8280   40.4140 H   0  0  0  0  0  0  0  0  0  0  0  0
   38.5630   26.1310   39.5830 C   0  0  1  0  0  3  0  0  0  0  0  0
   37.4000   25.9880   38.2000 S   0  0  0  0  0  0  0  0  0  0  0  0
   36.1480   27.2480   38.4810 C   0  0  0  0  0  3  0  0  0  0  0  0
   35.1250   26.8780   38.2010 H   0  0  0  0  0  0  0  0  0  0  0  0
   36.6640   28.0000   42.2530 C   0  0  0  0  0  0  0  0  0  0  0  0
   36.3050   27.5630   43.3690 O   0  0  0  0  0  0  0  0  0  0  0  0
   36.9500   29.3170   42.4910 O   0  0  0  0  0  0  0  0  0  0  0  0
   36.3700   29.8980   43.0500 H   0  0  0  0  0  0  0  0  0  0  0  0
  1  2  1  0  0  0  0
  1 17  1  0  0  0  0
  2  4  1  0  0  0  0
  3  2  2  0  0  0  0
  4  6  1  0  0  0  0
  4  5  1  0  0  0  0
  6 11  1  0  0  0  0
  7  8  1  0  0  0  0
  7  6  2  0  0  0  0
  8  9  2  0  0  0  0
  9 10  1  0  0  0  0
 10 13  1  0  0  0  0
 11 10  2  0  0  0  0
 12  8  1  0  0  0  0
 14 15  1  0  0  0  0
 14  7  1  0  0  0  0
 16 14  1  0  0  0  0
 17 18  1  0  0  0  0
 18 19  2  0  0  0  0
 19 29  1  0  0  0  0
 20 19  1  0  0  0  0
 20 21  1  0  0  0  0
 21 22  2  0  0  0  0
 23 24  1  0  0  0  0
 23 21  1  0  0  0  0
 25 26  1  6  0  0  0
 25 23  1  0  0  0  0
 25 20  1  0  0  0  0
 26 27  1  0  0  0  0
 27 18  1  0  0  0  0
 28 27  1  0  0  0  0
 29 31  1  0  0  0  0
 29 30  2  0  0  0  0
 31 32  1  0  0  0  0
M  END
>  <minimizedAffinity>
-5.62660933

$$$$

 OpenBabel03252501363D

 32 34  0  0  1  0  0  0  0  0999 V2000
   39.0380   28.8460   42.9520 O   0  0  0  0  0  0  0  0  0  0  0  0
   39.2360   30.1060   42.3760 C   0  0  0  0  0  0  0  0  0  0  0  0
   39.5980   31.1680   42.9770 O   0  0  0  0  0  0  0  0  0  0  0  0
   39.0340   30.3110   40.9740 N   0  0  0  0  0  0  0  0  0  0  0  0
   38.7600   29.5470   40.3490 H   0  0  0  0  0  0  0  0  0  0  0  0
   39.2820   31.7190   40.6660 C   0  0  0  0  0  0  0  0  0  0  0  0
   38.3050   32.6700   40.5160 C   0  0  0  0  0  0  0  0  0  0  0  0
   38.7460   33.9490   40.2310 C   0  0  0  0  0  0  0  0  0  0  0  0
   40.0640   34.1610   40.1220 N   0  0  0  0  0  0  0  0  0  0  0  0
   40.9980   33.2000   40.2760 C   0  0  0  0  0  0  0  0  0  0  0  0
   40.6020   31.9250   40.5590 N   0  0  0  0  0  0  0  0  0  0  0  0
   37.9840   34.7070   40.1100 H   0  0  0  0  0  0  0  0  0  0  0  0
   42.0490   33.4530   40.1730 H   0  0  0  0  0  0  0  0  0  0  0  0
   36.9660   32.2570   40.6670 N   0  0  0  0  0  0  0  0  0  0  0  0
   36.5600   32.1770   41.6440 H   0  0  0  0  0  0  0  0  0  0  0  0
   36.4210   32.0430   39.7860 H   0  0  0  0  0  0  0  0  0  0  0  0
   37.6810   28.3520   42.9900 C   0  0  0  0  0  2  0  0  0  0  0  0
   37.4820   27.2760   42.0140 C   0  0  0  0  0  0  0  0  0  0  0  0
   36.7870   27.3920   40.8940 C   0  0  0  0  0  0  0  0  0  0  0  0
   36.6880   26.2570   40.0450 N   0  0  0  0  0  0  0  0  0  0  0  0
   36.6550   25.8120   38.6930 C   0  0  0  0  0  0  0  0  0  0  0  0
   36.6230   26.2730   37.5100 O   0  0  0  0  0  0  0  0  0  0  0  0
   36.6720   24.4000   39.1160 C   0  0  0  0  0  3  0  0  0  0  0  0
   35.7540   23.9020   38.7180 H   0  0  0  0  0  0  0  0  0  0  0  0
   36.5600   24.8800   40.5270 C   0  0  1  0  0  3  0  0  0  0  0  0
   38.0070   24.5990   41.5810 S   0  0  0  0  0  0  0  0  0  0  0  0
   38.2040   26.0990   42.5530 C   0  0  0  0  0  3  0  0  0  0  0  0
   39.2880   26.3640   42.6810 H   0  0  0  0  0  0  0  0  0  0  0  0
   36.1160   28.6250   40.4750 C   0  0  0  0  0  0  0  0  0  0  0  0
   36.3790   29.5050   39.6250 O   0  0  0  0  0  0  0  0  0  0  0  0
   34.9390   29.0470   41.0320 O   0  0  0  0  0  0  0  0  0  0  0  0
   34.7740   29.9950   41.2820 H   0  0  0  0  0  0  0  0  0  0  0  0
  1 17  1  0  0  0  0
  2  1  1  0  0  0  0
  2  3  2  0  0  0  0
  4  2  1  0  0  0  0
  5  4  1  0  0  0  0
  6  4  1  0  0  0  0
  7  6  2  0  0  0  0
  7 14  1  0  0  0  0
  8  7  1  0  0  0  0
  9  8  2  0  0  0  0
  9 10  1  0  0  0  0
 10 11  2  0  0  0  0
 11  6  1  0  0  0  0
 12  8  1  0  0  0  0
 13 10  1  0  0  0  0
 14 15  1  0  0  0  0
 16 14  1  0  0  0  0
 18 27  1  0  0  0  0
 18 17  1  0  0  0  0
 19 18  2  0  0  0  0
 20 25  1  0  0  0  0
 20 19  1  0  0  0  0
 21 23  1  0  0  0  0
 21 20  1  0  0  0  0
 22 21  2  0  0  0  0
 24 23  1  0  0  0  0
 25 23  1  6  0  0  0
 25 26  1  0  0  0  0
 26 27  1  0  0  0  0
 27 28  1  0  0  0  0
 29 19  1  0  0  0  0
 29 31  1  0  0  0  0
 30 29  2  0  0  0  0
 31 32  1  0  0  0  0
M  END
>  <minimizedAffinity>
-5.29926252

$$$$

 OpenBabel03252501363D

 32 34  0  0  1  0  0  0  0  0999 V2000
   38.9880   27.6610   43.1710 O   0  0  0  0  0  0  0  0  0  0  0  0
   38.5790   26.7880   42.1570 C   0  0  0  0  0  0  0  0  0  0  0  0
   39.3290   26.0690   41.4230 O   0  0  0  0  0  0  0  0  0  0  0  0
   37.1910   26.6240   41.8470 N   0  0  0  0  0  0  0  0  0  0  0  0
   36.4590   27.1210   42.3640 H   0  0  0  0  0  0  0  0  0  0  0  0
   37.0660   25.6830   40.7360 C   0  0  0  0  0  0  0  0  0  0  0  0
   37.2000   26.0150   39.4110 C   0  0  0  0  0  0  0  0  0  0  0  0
   37.0510   24.9760   38.5110 C   0  0  0  0  0  0  0  0  0  0  0  0
   36.7920   23.7510   38.9850 N   0  0  0  0  0  0  0  0  0  0  0  0
   36.6680   23.4600   40.2960 C   0  0  0  0  0  0  0  0  0  0  0  0
   36.8080   24.4580   41.2160 N   0  0  0  0  0  0  0  0  0  0  0  0
   37.1540   25.2270   37.4640 H   0  0  0  0  0  0  0  0  0  0  0  0
   36.4580   22.4390   40.6010 H   0  0  0  0  0  0  0  0  0  0  0  0
   37.4720   27.3630   39.1030 N   0  0  0  0  0  0  0  0  0  0  0  0
   38.4730   27.7100   39.1580 H   0  0  0  0  0  0  0  0  0  0  0  0
   36.6540   27.9730   38.8250 H   0  0  0  0  0  0  0  0  0  0  0  0
   38.2610   28.9030   43.2960 C   0  0  0  0  0  2  0  0  0  0  0  0
   38.7200   29.8860   42.3090 C   0  0  0  0  0  0  0  0  0  0  0  0
   37.9540   30.4440   41.3860 C   0  0  0  0  0  0  0  0  0  0  0  0
   38.5460   31.3860   40.5020 N   0  0  0  0  0  0  0  0  0  0  0  0
   38.3460   32.6060   39.7950 C   0  0  0  0  0  0  0  0  0  0  0  0
   37.4370   33.4580   39.5470 O   0  0  0  0  0  0  0  0  0  0  0  0
   39.7490   32.6170   39.3410 C   0  0  0  0  0  3  0  0  0  0  0  0
   39.7580   32.6190   38.2230 H   0  0  0  0  0  0  0  0  0  0  0  0
   39.9030   31.2680   39.9650 C   0  0  1  0  0  3  0  0  0  0  0  0
   40.9910   31.1790   41.4120 S   0  0  0  0  0  0  0  0  0  0  0  0
   40.1630   30.0920   42.5810 C   0  0  0  0  0  3  0  0  0  0  0  0
   40.2860   30.4560   43.6360 H   0  0  0  0  0  0  0  0  0  0  0  0
   36.5280   30.1500   41.2230 C   0  0  0  0  0  0  0  0  0  0  0  0
   35.8880   29.1170   40.9230 O   0  0  0  0  0  0  0  0  0  0  0  0
   35.5570   31.0980   41.4040 O   0  0  0  0  0  0  0  0  0  0  0  0
   34.7830   31.1960   40.7880 H   0  0  0  0  0  0  0  0  0  0  0  0
  1 17  1  0  0  0  0
  2  1  1  0  0  0  0
  3  2  2  0  0  0  0
  4  2  1  0  0  0  0
  4  5  1  0  0  0  0
  6 11  1  0  0  0  0
  6  4  1  0  0  0  0
  7  6  2  0  0  0  0
  8  9  2  0  0  0  0
  8  7  1  0  0  0  0
  9 10  1  0  0  0  0
 10 13  1  0  0  0  0
 10 11  2  0  0  0  0
 12  8  1  0  0  0  0
 14 15  1  0  0  0  0
 14  7  1  0  0  0  0
 16 14  1  0  0  0  0
 18 27  1  0  0  0  0
 18 17  1  0  0  0  0
 19 18  2  0  0  0  0
 20 19  1  0  0  0  0
 21 20  1  0  0  0  0
 22 21  2  0  0  0  0
 23 21  1  0  0  0  0
 24 23  1  0  0  0  0
 25 23  1  6  0  0  0
 25 20  1  0  0  0  0
 25 26  1  0  0  0  0
 26 27  1  0  0  0  0
 27 28  1  0  0  0  0
 29 19  1  0  0  0  0
 29 31  1  0  0  0  0
 30 29  2  0  0  0  0
 32 31  1  0  0  0  0
M  END
>  <minimizedAffinity>
-5.27115154

$$$$

 OpenBabel03252501363D

 32 34  0  0  1  0  0  0  0  0999 V2000
   38.6480   30.2740   38.0410 O   0  0  0  0  0  0  0  0  0  0  0  0
   38.1980   29.4140   39.0500 C   0  0  0  0  0  0  0  0  0  0  0  0
   37.1810   28.6520   39.0020 O   0  0  0  0  0  0  0  0  0  0  0  0
   38.8950   29.3200   40.2970 N   0  0  0  0  0  0  0  0  0  0  0  0
   39.7470   29.8580   40.4830 H   0  0  0  0  0  0  0  0  0  0  0  0
   38.1860   28.3770   41.1600 C   0  0  0  0  0  0  0  0  0  0  0  0
   37.0970   28.6920   41.9330 C   0  0  0  0  0  0  0  0  0  0  0  0
   36.5650   27.6550   42.6770 C   0  0  0  0  0  0  0  0  0  0  0  0
   37.1370   26.4480   42.5920 N   0  0  0  0  0  0  0  0  0  0  0  0
   38.2080   26.1730   41.8200 C   0  0  0  0  0  0  0  0  0  0  0  0
   38.7620   27.1700   41.0700 N   0  0  0  0  0  0  0  0  0  0  0  0
   35.7060   27.8930   43.2910 H   0  0  0  0  0  0  0  0  0  0  0  0
   38.6140   25.1670   41.8050 H   0  0  0  0  0  0  0  0  0  0  0  0
   36.6340   30.0230   41.8940 N   0  0  0  0  0  0  0  0  0  0  0  0
   35.9960   30.3210   41.1010 H   0  0  0  0  0  0  0  0  0  0  0  0
   36.9480   30.6700   42.6690 H   0  0  0  0  0  0  0  0  0  0  0  0
   38.5340   31.6920   38.2930 C   0  0  0  0  0  2  0  0  0  0  0  0
   39.8430   32.2850   38.5830 C   0  0  0  0  0  0  0  0  0  0  0  0
   40.2010   32.7890   39.7530 C   0  0  0  0  0  0  0  0  0  0  0  0
   41.5110   33.3260   39.8810 N   0  0  0  0  0  0  0  0  0  0  0  0
   42.6310   33.4690   40.7470 C   0  0  0  0  0  0  0  0  0  0  0  0
   42.9850   33.2230   41.9420 O   0  0  0  0  0  0  0  0  0  0  0  0
   43.4260   34.1000   39.6770 C   0  0  0  0  0  3  0  0  0  0  0  0
   43.7350   35.1180   40.0210 H   0  0  0  0  0  0  0  0  0  0  0  0
   42.1970   34.0740   38.8270 C   0  0  1  0  0  3  0  0  0  0  0  0
   42.2420   32.9650   37.3950 S   0  0  0  0  0  0  0  0  0  0  0  0
   40.6220   32.1870   37.3260 C   0  0  0  0  0  3  0  0  0  0  0  0
   40.6990   31.1070   37.0290 H   0  0  0  0  0  0  0  0  0  0  0  0
   39.3260   32.8230   40.9280 C   0  0  0  0  0  0  0  0  0  0  0  0
   38.9370   31.9540   41.7400 O   0  0  0  0  0  0  0  0  0  0  0  0
   38.7270   33.9740   41.3650 O   0  0  0  0  0  0  0  0  0  0  0  0
   37.7780   34.0060   41.6570 H   0  0  0  0  0  0  0  0  0  0  0  0
  1 17  1  0  0  0  0
  1  2  1  0  0  0  0
  2  4  1  0  0  0  0
  3  2  2  0  0  0  0
  4  5  1  0  0  0  0
  4  6  1  0  0  0  0
  6  7  1  0  0  0  0
  7  8  2  0  0  0  0
  8 12  1  0  0  0  0
  9  8  1  0  0  0  0
 10  9  2  0  0  0  0
 11  6  2  0  0  0  0
 11 10  1  0  0  0  0
 13 10  1  0  0  0  0
 14  7  1  0  0  0  0
 14 16  1  0  0  0  0
 15 14  1  0  0  0  0
 17 18  1  0  0  0  0
 18 19  2  0  0  0  0
 19 20  1  0  0  0  0
 19 29  1  0  0  0  0
 20 21  1  0  0  0  0
 21 22  2  0  0  0  0
 23 24  1  0  0  0  0
 23 21  1  0  0  0  0
 25 26  1  6  0  0  0
 25 23  1  0  0  0  0
 25 20  1  0  0  0  0
 27 26  1  0  0  0  0
 27 18  1  0  0  0  0
 28 27  1  0  0  0  0
 29 31  1  0  0  0  0
 29 30  2  0  0  0  0
 31 32  1  0  0  0  0
M  END
>  <minimizedAffinity>
-5.20458794

$$$$

 OpenBabel03252501363D

 32 34  0  0  1  0  0  0  0  0999 V2000
   38.5140   30.3580   37.8770 O   0  0  0  0  0  0  0  0  0  0  0  0
   37.4080   29.9270   37.1360 C   0  0  0  0  0  0  0  0  0  0  0  0
   36.9370   30.4690   36.0860 O   0  0  0  0  0  0  0  0  0  0  0  0
   36.6720   28.7640   37.5290 N   0  0  0  0  0  0  0  0  0  0  0  0
   36.9390   28.2040   38.3450 H   0  0  0  0  0  0  0  0  0  0  0  0
   35.5620   28.5740   36.5970 C   0  0  0  0  0  0  0  0  0  0  0  0
   35.6530   27.9150   35.3970 C   0  0  0  0  0  0  0  0  0  0  0  0
   34.4860   27.8380   34.6600 C   0  0  0  0  0  0  0  0  0  0  0  0
   33.3770   28.3990   35.1590 N   0  0  0  0  0  0  0  0  0  0  0  0
   33.3230   29.0400   36.3450 C   0  0  0  0  0  0  0  0  0  0  0  0
   34.4550   29.1370   37.1020 N   0  0  0  0  0  0  0  0  0  0  0  0
   34.5460   27.3220   33.7120 H   0  0  0  0  0  0  0  0  0  0  0  0
   32.3840   29.4680   36.6810 H   0  0  0  0  0  0  0  0  0  0  0  0
   36.9100   27.3890   35.0370 N   0  0  0  0  0  0  0  0  0  0  0  0
   37.2040   26.4490   35.4290 H   0  0  0  0  0  0  0  0  0  0  0  0
   37.5090   27.9650   34.3830 H   0  0  0  0  0  0  0  0  0  0  0  0
   38.2430   30.9890   39.1480 C   0  0  0  0  0  2  0  0  0  0  0  0
   38.4930   30.0660   40.2600 C   0  0  0  0  0  0  0  0  0  0  0  0
   37.5570   29.5630   41.0490 C   0  0  0  0  0  0  0  0  0  0  0  0
   37.9560   28.6750   42.0840 N   0  0  0  0  0  0  0  0  0  0  0  0
   37.6110   27.5000   42.8080 C   0  0  0  0  0  0  0  0  0  0  0  0
   36.6610   26.6640   42.9250 O   0  0  0  0  0  0  0  0  0  0  0  0
   38.8990   27.5150   43.5240 C   0  0  0  0  0  3  0  0  0  0  0  0
   38.6930   27.5800   44.6210 H   0  0  0  0  0  0  0  0  0  0  0  0
   39.1860   28.8260   42.8640 C   0  0  1  0  0  3  0  0  0  0  0  0
   40.5330   28.8280   41.6520 S   0  0  0  0  0  0  0  0  0  0  0  0
   39.9580   29.8440   40.2840 C   0  0  0  0  0  3  0  0  0  0  0  0
   40.2780   29.4180   39.2950 H   0  0  0  0  0  0  0  0  0  0  0  0
   36.1290   29.8660   40.9160 C   0  0  0  0  0  0  0  0  0  0  0  0
   35.1660   29.2690   40.3850 O   0  0  0  0  0  0  0  0  0  0  0  0
   35.5690   31.0060   41.4260 O   0  0  0  0  0  0  0  0  0  0  0  0
   34.9090   31.5510   40.9220 H   0  0  0  0  0  0  0  0  0  0  0  0
  1 17  1  0  0  0  0
  2  4  1  0  0  0  0
  2  1  1  0  0  0  0
  3  2  2  0  0  0  0
  4  5  1  0  0  0  0
  6 11  1  0  0  0  0
  6  4  1  0  0  0  0
  7  6  2  0  0  0  0
  8  9  2  0  0  0  0
  8  7  1  0  0  0  0
  9 10  1  0  0  0  0
 10 13  1  0  0  0  0
 10 11  2  0  0  0  0
 12  8  1  0  0  0  0
 14  7  1  0  0  0  0
 14 15  1  0  0  0  0
 16 14  1  0  0  0  0
 17 18  1  0  0  0  0
 18 27  1  0  0  0  0
 18 19  2  0  0  0  0
 19 20  1  0  0  0  0
 20 21  1  0  0  0  0
 20 25  1  0  0  0  0
 21 22  2  0  0  0  0
 21 23  1  0  0  0  0
 23 24  1  0  0  0  0
 25 26  1  6  0  0  0
 25 23  1  0  0  0  0
 27 26  1  0  0  0  0
 28 27  1  0  0  0  0
 29 19  1  0  0  0  0
 29 31  1  0  0  0  0
 30 29  2  0  0  0  0
 32 31  1  0  0  0  0
M  END
>  <minimizedAffinity>
-5.11606646

$$$$

 OpenBabel03252501363D

 32 34  0  0  1  0  0  0  0  0999 V2000
   36.9160   28.4280   37.7710 O   0  0  0  0  0  0  0  0  0  0  0  0
   37.2980   27.4220   38.6660 C   0  0  0  0  0  0  0  0  0  0  0  0
   38.2860   26.6300   38.5440 O   0  0  0  0  0  0  0  0  0  0  0  0
   36.5570   27.1920   39.8690 N   0  0  0  0  0  0  0  0  0  0  0  0
   35.7430   27.7610   40.1200 H   0  0  0  0  0  0  0  0  0  0  0  0
   37.1630   26.0710   40.5850 C   0  0  0  0  0  0  0  0  0  0  0  0
   38.2350   26.1730   41.4340 C   0  0  0  0  0  0  0  0  0  0  0  0
   38.6560   24.9940   42.0200 C   0  0  0  0  0  0  0  0  0  0  0  0
   38.0030   23.8640   41.7230 N   0  0  0  0  0  0  0  0  0  0  0  0
   36.9500   23.7990   40.8830 C   0  0  0  0  0  0  0  0  0  0  0  0
   36.5040   24.9420   40.2850 N   0  0  0  0  0  0  0  0  0  0  0  0
   39.5020   25.0640   42.6910 H   0  0  0  0  0  0  0  0  0  0  0  0
   36.4730   22.8430   40.6940 H   0  0  0  0  0  0  0  0  0  0  0  0
   38.7950   27.4530   41.6240 N   0  0  0  0  0  0  0  0  0  0  0  0
   38.3440   28.1120   42.3210 H   0  0  0  0  0  0  0  0  0  0  0  0
   39.6520   27.6980   41.0540 H   0  0  0  0  0  0  0  0  0  0  0  0
   36.4570   29.6720   38.3440 C   0  0  0  0  0  2  0  0  0  0  0  0
   37.5750   30.4460   38.8910 C   0  0  0  0  0  0  0  0  0  0  0  0
   37.7230   30.7600   40.1680 C   0  0  0  0  0  0  0  0  0  0  0  0
   38.8660   31.5150   40.5460 N   0  0  0  0  0  0  0  0  0  0  0  0
   39.8590   31.7020   41.5480 C   0  0  0  0  0  0  0  0  0  0  0  0
   40.1700   31.2920   42.7100 O   0  0  0  0  0  0  0  0  0  0  0  0
   40.5690   32.6900   40.7160 C   0  0  0  0  0  3  0  0  0  0  0  0
   40.6170   33.6550   41.2760 H   0  0  0  0  0  0  0  0  0  0  0  0
   39.4440   32.5900   39.7370 C   0  0  1  0  0  3  0  0  0  0  0  0
   39.8430   31.8340   38.1390 S   0  0  0  0  0  0  0  0  0  0  0  0
   38.4470   30.7720   37.7380 C   0  0  0  0  0  3  0  0  0  0  0  0
   38.7850   29.8160   37.2560 H   0  0  0  0  0  0  0  0  0  0  0  0
   36.7780   30.3710   41.2180 C   0  0  0  0  0  0  0  0  0  0  0  0
   36.7670   29.4590   42.0760 O   0  0  0  0  0  0  0  0  0  0  0  0
   35.6080   31.0460   41.4410 O   0  0  0  0  0  0  0  0  0  0  0  0
   34.7460   30.5820   41.6120 H   0  0  0  0  0  0  0  0  0  0  0  0
  1 17  1  0  0  0  0
  1  2  1  0  0  0  0
  2  4  1  0  0  0  0
  3  2  2  0  0  0  0
  4  5  1  0  0  0  0
  4  6  1  0  0  0  0
  6  7  1  0  0  0  0
  7 14  1  0  0  0  0
  7  8  2  0  0  0  0
  8 12  1  0  0  0  0
  9  8  1  0  0  0  0
 10  9  2  0  0  0  0
 11  6  2  0  0  0  0
 11 10  1  0  0  0  0
 13 10  1  0  0  0  0
 14 15  1  0  0  0  0
 16 14  1  0  0  0  0
 17 18  1  0  0  0  0
 18 19  2  0  0  0  0
 19 20  1  0  0  0  0
 19 29  1  0  0  0  0
 20 21  1  0  0  0  0
 21 22  2  0  0  0  0
 23 24  1  0  0  0  0
 23 21  1  0  0  0  0
 25 26  1  6  0  0  0
 25 20  1  0  0  0  0
 25 23  1  0  0  0  0
 27 26  1  0  0  0  0
 27 18  1  0  0  0  0
 28 27  1  0  0  0  0
 29 31  1  0  0  0  0
 29 30  2  0  0  0  0
 31 32  1  0  0  0  0
M  END
>  <minimizedAffinity>
-5.07725716

$$$$
