
 OpenBabel03252506343D

 40 44  0  0  1  0  0  0  0  0999 V2000
   44.5250   35.6680   45.1370 C   0  0  0  0  0  0  0  0  0  0  0  0
   45.1210   35.6270   43.8480 C   0  0  0  0  0  0  0  0  0  0  0  0
   45.9680   34.6050   43.5390 C   0  0  0  0  0  0  0  0  0  0  0  0
   46.1850   33.6810   44.5090 N   0  0  0  0  0  0  0  0  0  0  0  0
   45.6280   33.7170   45.7110 C   0  0  0  0  0  0  0  0  0  0  0  0
   44.8000   34.7050   46.0310 N   0  0  0  0  0  0  0  0  0  0  0  0
   45.9540   32.6750   46.6200 N   0  0  0  0  0  0  0  0  0  0  0  0
   45.2030   32.4120   47.8590 C   0  0  0  0  0  0  0  0  0  0  0  0
   46.3290   32.0420   48.8120 C   0  0  0  0  0  0  0  0  0  0  0  0
   47.5590   31.8330   47.9840 C   0  0  0  0  0  0  0  0  0  0  0  0
   46.9930   31.6940   46.5890 C   0  0  1  0  0  0  0  0  0  0  0  0
   43.8410   36.4310   45.4860 H   0  0  0  0  0  0  0  0  0  0  0  0
   46.4130   34.5900   42.5570 H   0  0  0  0  0  0  0  0  0  0  0  0
   44.5290   31.5530   47.6820 H   0  0  0  0  0  0  0  0  0  0  0  0
   44.6700   33.3270   48.1600 H   0  0  0  0  0  0  0  0  0  0  0  0
   46.1090   31.0840   49.3420 H   0  0  0  0  0  0  0  0  0  0  0  0
   46.4660   32.8850   49.5230 H   0  0  0  0  0  0  0  0  0  0  0  0
   48.2280   32.7120   48.0590 H   0  0  0  0  0  0  0  0  0  0  0  0
   48.1410   30.9390   48.3010 H   0  0  0  0  0  0  0  0  0  0  0  0
   47.7900   31.9510   45.8550 H   0  0  0  0  0  0  0  0  0  0  0  0
   44.7640   36.7030   42.9630 N   0  0  0  0  0  0  0  0  0  0  0  0
   43.7160   36.8480   42.8860 H   0  0  0  0  0  0  0  0  0  0  0  0
   45.4280   37.3180   42.4200 H   0  0  0  0  0  0  0  0  0  0  0  0
   46.3700   30.0260   46.3490 S   0  0  0  0  0  0  0  0  0  0  0  0
   47.6320   28.8010   46.7780 C   0  0  0  0  0  2  0  0  0  0  0  0
   47.0050   27.5630   47.2890 C   0  0  0  0  0  0  0  0  0  0  0  0
   47.6370   26.6510   47.9920 C   0  0  0  0  0  0  0  0  0  0  0  0
   46.9920   25.4900   48.4620 N   0  0  0  0  0  0  0  0  0  0  0  0
   47.0460   24.1800   49.0600 C   0  0  1  0  0  0  0  0  0  0  0  0
   47.8610   23.2340   48.8610 O   0  0  0  0  0  1  0  0  0  0  0  0
   45.8250   24.6530   49.8220 C   0  0  0  0  0  3  0  0  0  0  0  0
   45.1770   23.8590   50.1930 H   0  0  0  0  0  0  0  0  0  0  0  0
   45.5660   25.2270   48.4720 C   0  0  1  0  0  0  0  0  0  0  0  0
   44.6990   26.7790   48.3320 S   0  0  0  0  0  0  0  0  0  0  0  0
   45.5950   27.5080   46.8940 C   0  0  0  0  0  3  0  0  0  0  0  0
   45.1390   28.4480   46.6080 H   0  0  0  0  0  0  0  0  0  0  0  0
   49.0690   26.7490   48.3620 C   0  0  0  0  0  0  0  0  0  0  0  0
   49.7070   27.2020   49.3380 O   0  0  0  0  0  0  0  0  0  0  0  0
   50.0900   26.2860   47.5660 O   0  0  0  0  0  0  0  0  0  0  0  0
   50.9720   26.7410   47.4060 H   0  0  0  0  0  0  0  0  0  0  0  0
  1 12  1  0  0  0  0
  1  6  1  0  0  0  0
  2  1  2  0  0  0  0
  3  2  1  0  0  0  0
  3  4  2  0  0  0  0
  4  5  1  0  0  0  0
  5  6  2  0  0  0  0
  5  7  1  0  0  0  0
  7  8  1  0  0  0  0
  8 15  1  0  0  0  0
  8  9  1  0  0  0  0
  9 16  1  0  0  0  0
  9 17  1  0  0  0  0
 10 18  1  0  0  0  0
 10 19  1  0  0  0  0
 10  9  1  0  0  0  0
 11 20  1  6  0  0  0
 11  7  1  0  0  0  0
 11 10  1  0  0  0  0
 13  3  1  0  0  0  0
 14  8  1  0  0  0  0
 21  2  1  0  0  0  0
 22 21  1  0  0  0  0
 23 21  1  0  0  0  0
 24 11  1  0  0  0  0
 24 25  1  0  0  0  0
 25 26  1  0  0  0  0
 26 27  2  0  0  0  0
 27 37  1  0  0  0  0
 27 28  1  0  0  0  0
 28 33  1  0  0  0  0
 28 29  1  0  0  0  0
 29 30  1  6  0  0  0
 29 31  1  0  0  0  0
 31 32  1  0  0  0  0
 33 34  1  6  0  0  0
 33 29  1  0  0  0  0
 33 31  1  0  0  0  0
 35 26  1  0  0  0  0
 35 34  1  0  0  0  0
 36 35  1  0  0  0  0
 37 38  2  0  0  0  0
 39 37  1  0  0  0  0
 40 39  1  0  0  0  0
M  END
>  <minimizedAffinity>
-5.73258924

>  <minimizedRMSD>
2.48725128

$$$$
