
 OpenBabel03252506363D

 40 44  0  0  1  0  0  0  0  0999 V2000
   42.2520   33.6540   37.4650 C   0  0  0  0  0  0  0  0  0  0  0  0
   42.9810   34.1780   38.5670 C   0  0  0  0  0  0  0  0  0  0  0  0
   42.5000   33.9970   39.8300 C   0  0  0  0  0  0  0  0  0  0  0  0
   41.3330   33.3130   39.9440 N   0  0  0  0  0  0  0  0  0  0  0  0
   40.6530   32.8230   38.9170 C   0  0  0  0  0  0  0  0  0  0  0  0
   41.1050   32.9900   37.6790 N   0  0  0  0  0  0  0  0  0  0  0  0
   39.4450   32.1300   39.1970 N   0  0  0  0  0  0  0  0  0  0  0  0
   38.7460   31.2840   38.2150 C   0  0  0  0  0  0  0  0  0  0  0  0
   37.2940   31.6070   38.5300 C   0  0  0  0  0  0  0  0  0  0  0  0
   37.2780   32.3530   39.8280 C   0  0  0  0  0  0  0  0  0  0  0  0
   38.6530   32.0670   40.3850 C   0  0  1  0  0  0  0  0  0  0  0  0
   42.5410   33.7410   36.4270 H   0  0  0  0  0  0  0  0  0  0  0  0
   43.0650   34.4010   40.6540 H   0  0  0  0  0  0  0  0  0  0  0  0
   38.9790   30.2260   38.4380 H   0  0  0  0  0  0  0  0  0  0  0  0
   39.0420   31.5890   37.1990 H   0  0  0  0  0  0  0  0  0  0  0  0
   36.6940   30.6750   38.6660 H   0  0  0  0  0  0  0  0  0  0  0  0
   36.8960   32.2360   37.7040 H   0  0  0  0  0  0  0  0  0  0  0  0
   37.1360   33.4360   39.6480 H   0  0  0  0  0  0  0  0  0  0  0  0
   36.4620   32.0140   40.5060 H   0  0  0  0  0  0  0  0  0  0  0  0
   38.9190   32.8710   41.1080 H   0  0  0  0  0  0  0  0  0  0  0  0
   44.1950   34.8730   38.2360 N   0  0  0  0  0  0  0  0  0  0  0  0
   44.8320   34.3160   37.5970 H   0  0  0  0  0  0  0  0  0  0  0  0
   44.4780   35.8360   38.5630 H   0  0  0  0  0  0  0  0  0  0  0  0
   38.6740   30.4410   41.1510 S   0  0  0  0  0  0  0  0  0  0  0  0
   37.0290   29.6870   41.1000 C   0  0  0  0  0  2  0  0  0  0  0  0
   37.1250   28.2450   40.7860 C   0  0  0  0  0  0  0  0  0  0  0  0
   37.1430   27.2930   41.6910 C   0  0  0  0  0  0  0  0  0  0  0  0
   37.2290   25.9310   41.3390 N   0  0  0  0  0  0  0  0  0  0  0  0
   37.4260   24.5500   41.7050 C   0  0  1  0  0  0  0  0  0  0  0  0
   38.2470   24.0410   42.5200 O   0  0  0  0  0  1  0  0  0  0  0  0
   36.3060   24.2960   40.7180 C   0  0  0  0  0  3  0  0  0  0  0  0
   36.2830   23.2920   40.2960 H   0  0  0  0  0  0  0  0  0  0  0  0
   37.0750   25.3590   40.0140 C   0  0  1  0  0  0  0  0  0  0  0  0
   36.2110   26.5310   38.9850 S   0  0  0  0  0  0  0  0  0  0  0  0
   37.2020   28.0460   39.3370 C   0  0  0  0  0  3  0  0  0  0  0  0
   36.8580   28.8680   38.7200 H   0  0  0  0  0  0  0  0  0  0  0  0
   37.0690   27.5460   43.1480 C   0  0  0  0  0  0  0  0  0  0  0  0
   37.8860   27.8610   44.0400 O   0  0  0  0  0  0  0  0  0  0  0  0
   35.9030   27.4600   43.8720 O   0  0  0  0  0  0  0  0  0  0  0  0
   35.8030   27.0650   44.7920 H   0  0  0  0  0  0  0  0  0  0  0  0
  1  6  2  0  0  0  0
  1  2  1  0  0  0  0
  2  3  2  0  0  0  0
  3  4  1  0  0  0  0
  3 13  1  0  0  0  0
  5  7  1  0  0  0  0
  5  4  2  0  0  0  0
  6  5  1  0  0  0  0
  7 11  1  0  0  0  0
  8 14  1  0  0  0  0
  8  9  1  0  0  0  0
  8  7  1  0  0  0  0
  9 16  1  0  0  0  0
  9 10  1  0  0  0  0
 10 11  1  0  0  0  0
 10 19  1  0  0  0  0
 11 20  1  1  0  0  0
 11 24  1  0  0  0  0
 12  1  1  0  0  0  0
 15  8  1  0  0  0  0
 17  9  1  0  0  0  0
 18 10  1  0  0  0  0
 21 23  1  0  0  0  0
 21  2  1  0  0  0  0
 22 21  1  0  0  0  0
 25 24  1  0  0  0  0
 26 25  1  0  0  0  0
 26 27  2  0  0  0  0
 27 37  1  0  0  0  0
 28 27  1  0  0  0  0
 28 29  1  0  0  0  0
 29 30  1  1  0  0  0
 31 29  1  0  0  0  0
 32 31  1  0  0  0  0
 33 34  1  6  0  0  0
 33 31  1  0  0  0  0
 33 28  1  0  0  0  0
 33 29  1  0  0  0  0
 34 35  1  0  0  0  0
 35 26  1  0  0  0  0
 36 35  1  0  0  0  0
 37 39  1  0  0  0  0
 37 38  2  0  0  0  0
 39 40  1  0  0  0  0
M  END
>  <minimizedAffinity>
-6.47463799

$$$$

 OpenBabel03252506363D

 40 44  0  0  1  0  0  0  0  0999 V2000
   38.5280   26.6190   36.5750 C   0  0  0  0  0  0  0  0  0  0  0  0
   37.8460   27.8650   36.5330 C   0  0  0  0  0  0  0  0  0  0  0  0
   37.2660   28.3440   37.6690 C   0  0  0  0  0  0  0  0  0  0  0  0
   37.3850   27.5780   38.7830 N   0  0  0  0  0  0  0  0  0  0  0  0
   38.0210   26.4160   38.8230 C   0  0  0  0  0  0  0  0  0  0  0  0
   38.5930   25.9320   37.7260 N   0  0  0  0  0  0  0  0  0  0  0  0
   38.0600   25.7290   40.0660 N   0  0  0  0  0  0  0  0  0  0  0  0
   38.9640   24.6010   40.3440 C   0  0  0  0  0  0  0  0  0  0  0  0
   38.0650   23.7010   41.1770 C   0  0  0  0  0  0  0  0  0  0  0  0
   36.8590   24.5060   41.5520 C   0  0  0  0  0  0  0  0  0  0  0  0
   37.3100   25.9200   41.2680 C   0  0  1  0  0  0  0  0  0  0  0  0
   39.0210   26.1480   35.7350 H   0  0  0  0  0  0  0  0  0  0  0  0
   36.7520   29.2910   37.6200 H   0  0  0  0  0  0  0  0  0  0  0  0
   39.8180   24.9760   40.9390 H   0  0  0  0  0  0  0  0  0  0  0  0
   39.2690   24.1380   39.3920 H   0  0  0  0  0  0  0  0  0  0  0  0
   38.5720   23.3880   42.1210 H   0  0  0  0  0  0  0  0  0  0  0  0
   37.7810   22.8270   40.5510 H   0  0  0  0  0  0  0  0  0  0  0  0
   35.9960   24.2250   40.9170 H   0  0  0  0  0  0  0  0  0  0  0  0
   36.5580   24.3570   42.6130 H   0  0  0  0  0  0  0  0  0  0  0  0
   36.4110   26.5540   41.1030 H   0  0  0  0  0  0  0  0  0  0  0  0
   37.8310   28.5230   35.2540 N   0  0  0  0  0  0  0  0  0  0  0  0
   38.7940   28.6090   34.8190 H   0  0  0  0  0  0  0  0  0  0  0  0
   36.9830   28.9020   34.7520 H   0  0  0  0  0  0  0  0  0  0  0  0
   38.3170   26.5220   42.6290 S   0  0  0  0  0  0  0  0  0  0  0  0
   37.8110   28.1910   43.1130 C   0  0  0  0  0  2  0  0  0  0  0  0
   38.4700   29.2050   42.2630 C   0  0  0  0  0  0  0  0  0  0  0  0
   37.8330   30.0020   41.4360 C   0  0  0  0  0  0  0  0  0  0  0  0
   38.5080   30.9580   40.6510 N   0  0  0  0  0  0  0  0  0  0  0  0
   38.5160   31.9210   39.5770 C   0  0  1  0  0  0  0  0  0  0  0  0
   37.9810   31.8590   38.4340 O   0  0  0  0  0  1  0  0  0  0  0  0
   39.3530   32.7420   40.5360 C   0  0  0  0  0  3  0  0  0  0  0  0
   39.9940   33.4870   40.0650 H   0  0  0  0  0  0  0  0  0  0  0  0
   39.8920   31.3760   40.7800 C   0  0  1  0  0  0  0  0  0  0  0  0
   40.4680   30.9390   42.4110 S   0  0  0  0  0  0  0  0  0  0  0  0
   39.9190   29.1790   42.4740 C   0  0  0  0  0  3  0  0  0  0  0  0
   40.2630   28.7150   43.3910 H   0  0  0  0  0  0  0  0  0  0  0  0
   36.3630   29.9860   41.2520 C   0  0  0  0  0  0  0  0  0  0  0  0
   35.5140   29.1250   40.9360 O   0  0  0  0  0  0  0  0  0  0  0  0
   35.5670   31.0930   41.4260 O   0  0  0  0  0  0  0  0  0  0  0  0
   34.7870   31.3610   40.8500 H   0  0  0  0  0  0  0  0  0  0  0  0
  1  6  1  0  0  0  0
  2  1  2  0  0  0  0
  2  3  1  0  0  0  0
  3  4  2  0  0  0  0
  4  5  1  0  0  0  0
  5  7  1  0  0  0  0
  6  5  2  0  0  0  0
  7  8  1  0  0  0  0
  7 11  1  0  0  0  0
  8 14  1  0  0  0  0
  8  9  1  0  0  0  0
  9 10  1  0  0  0  0
  9 16  1  0  0  0  0
 10 19  1  0  0  0  0
 11 20  1  6  0  0  0
 11 10  1  0  0  0  0
 11 24  1  0  0  0  0
 12  1  1  0  0  0  0
 13  3  1  0  0  0  0
 15  8  1  0  0  0  0
 17  9  1  0  0  0  0
 18 10  1  0  0  0  0
 21  2  1  0  0  0  0
 22 21  1  0  0  0  0
 23 21  1  0  0  0  0
 24 25  1  0  0  0  0
 26 35  1  0  0  0  0
 26 25  1  0  0  0  0
 27 26  2  0  0  0  0
 28 33  1  0  0  0  0
 28 27  1  0  0  0  0
 29 30  1  6  0  0  0
 29 31  1  0  0  0  0
 29 28  1  0  0  0  0
 29 33  1  0  0  0  0
 32 31  1  0  0  0  0
 33 31  1  1  0  0  0
 33 34  1  0  0  0  0
 34 35  1  0  0  0  0
 35 36  1  0  0  0  0
 37 39  1  0  0  0  0
 37 27  1  0  0  0  0
 38 37  2  0  0  0  0
 40 39  1  0  0  0  0
M  END
>  <minimizedAffinity>
-6.19427013

$$$$

 OpenBabel03252506363D

 40 44  0  0  1  0  0  0  0  0999 V2000
   39.7050   32.4690   40.0580 C   0  0  0  0  0  0  0  0  0  0  0  0
   38.5590   33.1780   40.5070 C   0  0  0  0  0  0  0  0  0  0  0  0
   37.3200   32.6790   40.2390 C   0  0  0  0  0  0  0  0  0  0  0  0
   37.2700   31.5130   39.5460 N   0  0  0  0  0  0  0  0  0  0  0  0
   38.3390   30.8500   39.1280 C   0  0  0  0  0  0  0  0  0  0  0  0
   39.5550   31.3210   39.3790 N   0  0  0  0  0  0  0  0  0  0  0  0
   38.1260   29.6410   38.4120 N   0  0  0  0  0  0  0  0  0  0  0  0
   39.1850   28.6540   38.1480 C   0  0  0  0  0  0  0  0  0  0  0  0
   38.8320   28.2130   36.7370 C   0  0  0  0  0  0  0  0  0  0  0  0
   37.4640   28.7420   36.4380 C   0  0  0  0  0  0  0  0  0  0  0  0
   36.9460   29.1020   37.8110 C   0  0  1  0  0  0  0  0  0  0  0  0
   40.7310   32.7750   40.2150 H   0  0  0  0  0  0  0  0  0  0  0  0
   36.4610   33.2300   40.5870 H   0  0  0  0  0  0  0  0  0  0  0  0
   39.0740   27.8220   38.8680 H   0  0  0  0  0  0  0  0  0  0  0  0
   40.1660   29.1510   38.2090 H   0  0  0  0  0  0  0  0  0  0  0  0
   38.7900   27.0990   36.6620 H   0  0  0  0  0  0  0  0  0  0  0  0
   39.5870   28.6450   36.0440 H   0  0  0  0  0  0  0  0  0  0  0  0
   37.5310   29.6360   35.7880 H   0  0  0  0  0  0  0  0  0  0  0  0
   36.8200   27.9960   35.9190 H   0  0  0  0  0  0  0  0  0  0  0  0
   36.1460   29.8680   37.7000 H   0  0  0  0  0  0  0  0  0  0  0  0
   38.8230   34.3970   41.2250 N   0  0  0  0  0  0  0  0  0  0  0  0
   39.5190   34.2720   42.0150 H   0  0  0  0  0  0  0  0  0  0  0  0
   38.4000   35.3450   41.0320 H   0  0  0  0  0  0  0  0  0  0  0  0
   36.3520   27.6250   38.6440 S   0  0  0  0  0  0  0  0  0  0  0  0
   36.3390   27.8610   40.4390 C   0  0  0  0  0  2  0  0  0  0  0  0
   37.4960   27.1830   41.0630 C   0  0  0  0  0  0  0  0  0  0  0  0
   38.2190   27.7000   42.0300 C   0  0  0  0  0  0  0  0  0  0  0  0
   39.3090   27.0090   42.5980 N   0  0  0  0  0  0  0  0  0  0  0  0
   40.4790   26.9870   43.4400 C   0  0  1  0  0  0  0  0  0  0  0  0
   41.3920   27.8490   43.5760 O   0  0  0  0  0  1  0  0  0  0  0  0
   39.9480   25.6330   43.8660 C   0  0  0  0  0  3  0  0  0  0  0  0
   40.6980   24.9490   44.2640 H   0  0  0  0  0  0  0  0  0  0  0  0
   39.6550   25.6130   42.4060 C   0  0  1  0  0  0  0  0  0  0  0  0
   38.2130   24.7460   41.8140 S   0  0  0  0  0  0  0  0  0  0  0  0
   37.7110   25.8740   40.4430 C   0  0  0  0  0  3  0  0  0  0  0  0
   36.8710   25.4530   39.9030 H   0  0  0  0  0  0  0  0  0  0  0  0
   37.9650   29.0340   42.6220 C   0  0  0  0  0  0  0  0  0  0  0  0
   38.4870   30.1650   42.5240 O   0  0  0  0  0  0  0  0  0  0  0  0
   36.9510   29.2830   43.5160 O   0  0  0  0  0  0  0  0  0  0  0  0
   37.0110   29.8690   44.3320 H   0  0  0  0  0  0  0  0  0  0  0  0
  1 12  1  0  0  0  0
  1  2  1  0  0  0  0
  2 21  1  0  0  0  0
  3  2  2  0  0  0  0
  3 13  1  0  0  0  0
  4  3  1  0  0  0  0
  5  6  1  0  0  0  0
  5  4  2  0  0  0  0
  6  1  2  0  0  0  0
  7  5  1  0  0  0  0
  8 15  1  0  0  0  0
  8  7  1  0  0  0  0
  8 14  1  0  0  0  0
  9  8  1  0  0  0  0
 10  9  1  0  0  0  0
 10 11  1  0  0  0  0
 11 20  1  6  0  0  0
 11  7  1  0  0  0  0
 11 24  1  0  0  0  0
 16  9  1  0  0  0  0
 17  9  1  0  0  0  0
 18 10  1  0  0  0  0
 19 10  1  0  0  0  0
 21 22  1  0  0  0  0
 23 21  1  0  0  0  0
 24 25  1  0  0  0  0
 25 26  1  0  0  0  0
 26 27  2  0  0  0  0
 27 28  1  0  0  0  0
 27 37  1  0  0  0  0
 28 29  1  0  0  0  0
 29 30  1  1  0  0  0
 29 31  1  0  0  0  0
 31 32  1  0  0  0  0
 33 34  1  6  0  0  0
 33 28  1  0  0  0  0
 33 29  1  0  0  0  0
 33 31  1  0  0  0  0
 35 26  1  0  0  0  0
 35 34  1  0  0  0  0
 36 35  1  0  0  0  0
 37 39  1  0  0  0  0
 38 37  2  0  0  0  0
 39 40  1  0  0  0  0
M  END
>  <minimizedAffinity>
-6.12241554

$$$$

 OpenBabel03252506363D

 40 44  0  0  1  0  0  0  0  0999 V2000
   42.2850   33.6440   37.5290 C   0  0  0  0  0  0  0  0  0  0  0  0
   43.0080   34.2260   38.6050 C   0  0  0  0  0  0  0  0  0  0  0  0
   42.5250   34.1060   39.8740 C   0  0  0  0  0  0  0  0  0  0  0  0
   41.3610   33.4230   40.0190 N   0  0  0  0  0  0  0  0  0  0  0  0
   40.6870   32.8790   39.0160 C   0  0  0  0  0  0  0  0  0  0  0  0
   41.1420   32.9850   37.7730 N   0  0  0  0  0  0  0  0  0  0  0  0
   39.4810   32.1950   39.3280 N   0  0  0  0  0  0  0  0  0  0  0  0
   38.7890   31.2970   38.3880 C   0  0  0  0  0  0  0  0  0  0  0  0
   37.3350   31.6270   38.6820 C   0  0  0  0  0  0  0  0  0  0  0  0
   37.3110   32.4370   39.9420 C   0  0  0  0  0  0  0  0  0  0  0  0
   38.6870   32.1870   40.5160 C   0  0  1  0  0  0  0  0  0  0  0  0
   42.5770   33.6800   36.4890 H   0  0  0  0  0  0  0  0  0  0  0  0
   43.0850   34.5550   40.6790 H   0  0  0  0  0  0  0  0  0  0  0  0
   39.0270   30.2520   38.6640 H   0  0  0  0  0  0  0  0  0  0  0  0
   39.0870   31.5520   37.3590 H   0  0  0  0  0  0  0  0  0  0  0  0
   36.7400   30.7000   38.8630 H   0  0  0  0  0  0  0  0  0  0  0  0
   36.9360   32.2120   37.8250 H   0  0  0  0  0  0  0  0  0  0  0  0
   37.1640   33.5100   39.7070 H   0  0  0  0  0  0  0  0  0  0  0  0
   36.4950   32.1290   40.6340 H   0  0  0  0  0  0  0  0  0  0  0  0
   38.9460   33.0270   41.1980 H   0  0  0  0  0  0  0  0  0  0  0  0
   44.2200   34.9100   38.2420 N   0  0  0  0  0  0  0  0  0  0  0  0
   44.8620   34.3250   37.6340 H   0  0  0  0  0  0  0  0  0  0  0  0
   44.4970   35.8900   38.5210 H   0  0  0  0  0  0  0  0  0  0  0  0
   38.7130   30.6020   41.3620 S   0  0  0  0  0  0  0  0  0  0  0  0
   37.0510   29.8900   41.4440 C   0  0  0  0  0  2  0  0  0  0  0  0
   37.1170   28.4390   41.7220 C   0  0  0  0  0  0  0  0  0  0  0  0
   36.9650   27.5060   40.8100 C   0  0  0  0  0  0  0  0  0  0  0  0
   37.0450   26.1350   41.1250 N   0  0  0  0  0  0  0  0  0  0  0  0
   36.8620   24.7510   40.7630 C   0  0  1  0  0  0  0  0  0  0  0  0
   35.9200   24.2010   40.1250 O   0  0  0  0  0  1  0  0  0  0  0  0
   38.1820   24.5560   41.4790 C   0  0  0  0  0  3  0  0  0  0  0  0
   38.3590   23.5480   41.8530 H   0  0  0  0  0  0  0  0  0  0  0  0
   37.5160   25.5480   42.3670 C   0  0  1  0  0  0  0  0  0  0  0  0
   38.5040   26.7580   43.2280 S   0  0  0  0  0  0  0  0  0  0  0  0
   37.3660   28.2070   43.1460 C   0  0  0  0  0  3  0  0  0  0  0  0
   37.7810   29.0380   43.7040 H   0  0  0  0  0  0  0  0  0  0  0  0
   36.7080   27.7910   39.3800 C   0  0  0  0  0  0  0  0  0  0  0  0
   37.4150   28.0520   38.3830 O   0  0  0  0  0  0  0  0  0  0  0  0
   35.4490   27.8210   38.8290 O   0  0  0  0  0  0  0  0  0  0  0  0
   35.1140   28.4820   38.1480 H   0  0  0  0  0  0  0  0  0  0  0  0
  1  6  2  0  0  0  0
  1  2  1  0  0  0  0
  2  3  2  0  0  0  0
  3  4  1  0  0  0  0
  3 13  1  0  0  0  0
  5  7  1  0  0  0  0
  5  4  2  0  0  0  0
  6  5  1  0  0  0  0
  7 11  1  0  0  0  0
  8 14  1  0  0  0  0
  8  9  1  0  0  0  0
  8  7  1  0  0  0  0
  9 16  1  0  0  0  0
  9 10  1  0  0  0  0
 10 11  1  0  0  0  0
 10 19  1  0  0  0  0
 11 20  1  1  0  0  0
 11 24  1  0  0  0  0
 12  1  1  0  0  0  0
 15  8  1  0  0  0  0
 17  9  1  0  0  0  0
 18 10  1  0  0  0  0
 21 23  1  0  0  0  0
 21  2  1  0  0  0  0
 22 21  1  0  0  0  0
 24 25  1  0  0  0  0
 25 26  1  0  0  0  0
 26 35  1  0  0  0  0
 27 28  1  0  0  0  0
 27 26  2  0  0  0  0
 28 33  1  0  0  0  0
 29 30  1  6  0  0  0
 29 28  1  0  0  0  0
 29 31  1  0  0  0  0
 29 33  1  0  0  0  0
 31 32  1  0  0  0  0
 33 31  1  6  0  0  0
 33 34  1  0  0  0  0
 35 34  1  0  0  0  0
 35 36  1  0  0  0  0
 37 27  1  0  0  0  0
 38 37  2  0  0  0  0
 39 37  1  0  0  0  0
 40 39  1  0  0  0  0
M  END
>  <minimizedAffinity>
-5.98491526

$$$$

 OpenBabel03252506363D

 40 44  0  0  1  0  0  0  0  0999 V2000
   40.3540   32.4160   38.8820 C   0  0  0  0  0  0  0  0  0  0  0  0
   39.7060   31.6180   37.9010 C   0  0  0  0  0  0  0  0  0  0  0  0
   39.4910   30.2960   38.1540 C   0  0  0  0  0  0  0  0  0  0  0  0
   39.9230   29.8280   39.3530 N   0  0  0  0  0  0  0  0  0  0  0  0
   40.5270   30.5720   40.2690 C   0  0  0  0  0  0  0  0  0  0  0  0
   40.7450   31.8620   40.0400 N   0  0  0  0  0  0  0  0  0  0  0  0
   40.9230   29.9370   41.4770 N   0  0  0  0  0  0  0  0  0  0  0  0
   41.3230   30.6720   42.6880 C   0  0  0  0  0  0  0  0  0  0  0  0
   42.4600   29.8010   43.1980 C   0  0  0  0  0  0  0  0  0  0  0  0
   42.4130   28.5180   42.4280 C   0  0  0  0  0  0  0  0  0  0  0  0
   41.0310   28.5540   41.8180 C   0  0  1  0  0  0  0  0  0  0  0  0
   40.5740   33.4700   38.7830 H   0  0  0  0  0  0  0  0  0  0  0  0
   38.9990   29.7040   37.3990 H   0  0  0  0  0  0  0  0  0  0  0  0
   40.4710   30.6730   43.3940 H   0  0  0  0  0  0  0  0  0  0  0  0
   41.6530   31.6840   42.4050 H   0  0  0  0  0  0  0  0  0  0  0  0
   42.3240   29.5550   44.2790 H   0  0  0  0  0  0  0  0  0  0  0  0
   43.4140   30.3410   43.0150 H   0  0  0  0  0  0  0  0  0  0  0  0
   43.1970   28.5090   41.6460 H   0  0  0  0  0  0  0  0  0  0  0  0
   42.5730   27.6250   43.0750 H   0  0  0  0  0  0  0  0  0  0  0  0
   41.0230   27.8990   40.9180 H   0  0  0  0  0  0  0  0  0  0  0  0
   39.3260   32.3020   36.6940 N   0  0  0  0  0  0  0  0  0  0  0  0
   38.7770   33.1910   36.8750 H   0  0  0  0  0  0  0  0  0  0  0  0
   39.5410   32.0000   35.7050 H   0  0  0  0  0  0  0  0  0  0  0  0
   39.8140   28.0390   43.0350 S   0  0  0  0  0  0  0  0  0  0  0  0
   38.2360   28.8810   42.7620 C   0  0  0  0  0  2  0  0  0  0  0  0
   37.5200   28.2900   41.6110 C   0  0  0  0  0  0  0  0  0  0  0  0
   36.7850   28.9780   40.7670 C   0  0  0  0  0  0  0  0  0  0  0  0
   36.1280   28.3680   39.6800 N   0  0  0  0  0  0  0  0  0  0  0  0
   35.1760   28.4220   38.5980 C   0  0  1  0  0  0  0  0  0  0  0  0
   34.0270   28.9440   38.5590 O   0  0  0  0  0  1  0  0  0  0  0  0
   36.2370   27.6500   37.8400 C   0  0  0  0  0  3  0  0  0  0  0  0
   35.8670   27.0610   37.0010 H   0  0  0  0  0  0  0  0  0  0  0  0
   36.3250   27.0170   39.1850 C   0  0  1  0  0  0  0  0  0  0  0  0
   37.9010   26.4220   39.7720 S   0  0  0  0  0  0  0  0  0  0  0  0
   37.7480   26.8440   41.5610 C   0  0  0  0  0  3  0  0  0  0  0  0
   38.6080   26.4740   42.1060 H   0  0  0  0  0  0  0  0  0  0  0  0
   36.5790   30.4420   40.8630 C   0  0  0  0  0  0  0  0  0  0  0  0
   37.1540   31.4540   40.4070 O   0  0  0  0  0  0  0  0  0  0  0  0
   35.5610   31.0160   41.5860 O   0  0  0  0  0  0  0  0  0  0  0  0
   35.6300   31.8420   42.1570 H   0  0  0  0  0  0  0  0  0  0  0  0
  1  6  1  0  0  0  0
  2  3  1  0  0  0  0
  2  1  2  0  0  0  0
  3  4  2  0  0  0  0
  4  5  1  0  0  0  0
  5  7  1  0  0  0  0
  6  5  2  0  0  0  0
  7 11  1  0  0  0  0
  7  8  1  0  0  0  0
  8  9  1  0  0  0  0
  8 14  1  0  0  0  0
  9 16  1  0  0  0  0
 10 19  1  0  0  0  0
 10  9  1  0  0  0  0
 11 20  1  6  0  0  0
 11 10  1  0  0  0  0
 11 24  1  0  0  0  0
 12  1  1  0  0  0  0
 13  3  1  0  0  0  0
 15  8  1  0  0  0  0
 17  9  1  0  0  0  0
 18 10  1  0  0  0  0
 21 22  1  0  0  0  0
 21  2  1  0  0  0  0
 23 21  1  0  0  0  0
 25 24  1  0  0  0  0
 26 25  1  0  0  0  0
 27 37  1  0  0  0  0
 27 26  2  0  0  0  0
 28 27  1  0  0  0  0
 29 30  1  6  0  0  0
 29 33  1  0  0  0  0
 29 28  1  0  0  0  0
 31 29  1  0  0  0  0
 32 31  1  0  0  0  0
 33 31  1  6  0  0  0
 33 28  1  0  0  0  0
 33 34  1  0  0  0  0
 34 35  1  0  0  0  0
 35 26  1  0  0  0  0
 35 36  1  0  0  0  0
 37 39  1  0  0  0  0
 38 37  2  0  0  0  0
 39 40  1  0  0  0  0
M  END
>  <minimizedAffinity>
-5.865592

$$$$

 OpenBabel03252506363D

 40 44  0  0  1  0  0  0  0  0999 V2000
   37.5870   32.4330   38.6190 C   0  0  0  0  0  0  0  0  0  0  0  0
   37.4340   32.5300   40.0280 C   0  0  0  0  0  0  0  0  0  0  0  0
   36.8610   31.4970   40.7080 C   0  0  0  0  0  0  0  0  0  0  0  0
   36.4680   30.4270   39.9710 N   0  0  0  0  0  0  0  0  0  0  0  0
   36.6120   30.3360   38.6560 C   0  0  0  0  0  0  0  0  0  0  0  0
   37.1680   31.3320   37.9760 N   0  0  0  0  0  0  0  0  0  0  0  0
   36.1500   29.1500   38.0240 N   0  0  0  0  0  0  0  0  0  0  0  0
   36.5020   28.7730   36.6450 C   0  0  0  0  0  0  0  0  0  0  0  0
   35.1910   28.1780   36.1580 C   0  0  0  0  0  0  0  0  0  0  0  0
   34.3180   27.9900   37.3610 C   0  0  0  0  0  0  0  0  0  0  0  0
   35.3040   28.1020   38.5000 C   0  0  1  0  0  0  0  0  0  0  0  0
   38.0260   33.1910   37.9850 H   0  0  0  0  0  0  0  0  0  0  0  0
   36.7510   31.5870   41.7770 H   0  0  0  0  0  0  0  0  0  0  0  0
   37.2990   28.0080   36.6850 H   0  0  0  0  0  0  0  0  0  0  0  0
   36.7960   29.6760   36.0870 H   0  0  0  0  0  0  0  0  0  0  0  0
   35.3510   27.1750   35.6940 H   0  0  0  0  0  0  0  0  0  0  0  0
   34.7340   28.8960   35.4420 H   0  0  0  0  0  0  0  0  0  0  0  0
   33.5550   28.7910   37.4110 H   0  0  0  0  0  0  0  0  0  0  0  0
   33.7810   27.0140   37.3510 H   0  0  0  0  0  0  0  0  0  0  0  0
   34.7520   28.3950   39.4210 H   0  0  0  0  0  0  0  0  0  0  0  0
   37.9130   33.7480   40.6240 N   0  0  0  0  0  0  0  0  0  0  0  0
   38.9060   33.9890   40.3390 H   0  0  0  0  0  0  0  0  0  0  0  0
   37.3810   34.3780   41.2830 H   0  0  0  0  0  0  0  0  0  0  0  0
   36.1740   26.5430   38.7060 S   0  0  0  0  0  0  0  0  0  0  0  0
   36.8050   26.3780   40.3950 C   0  0  0  0  0  2  0  0  0  0  0  0
   37.9930   27.2360   40.5950 C   0  0  0  0  0  0  0  0  0  0  0  0
   38.1870   27.9930   41.6500 C   0  0  0  0  0  0  0  0  0  0  0  0
   39.3410   28.7880   41.7960 N   0  0  0  0  0  0  0  0  0  0  0  0
   40.0700   29.8280   42.4790 C   0  0  1  0  0  0  0  0  0  0  0  0
   39.6640   30.9350   42.9320 O   0  0  0  0  0  1  0  0  0  0  0  0
   41.2520   28.8990   42.2930 C   0  0  0  0  0  3  0  0  0  0  0  0
   42.2270   29.3850   42.3090 H   0  0  0  0  0  0  0  0  0  0  0  0
   40.5470   28.7350   40.9910 C   0  0  1  0  0  0  0  0  0  0  0  0
   40.6040   27.1600   40.1560 S   0  0  0  0  0  0  0  0  0  0  0  0
   38.9000   27.1190   39.4510 C   0  0  0  0  0  3  0  0  0  0  0  0
   38.7770   26.2420   38.8260 H   0  0  0  0  0  0  0  0  0  0  0  0
   37.2340   28.0820   42.7810 C   0  0  0  0  0  0  0  0  0  0  0  0
   36.5250   27.2710   43.4140 O   0  0  0  0  0  0  0  0  0  0  0  0
   36.9270   29.2600   43.4190 O   0  0  0  0  0  0  0  0  0  0  0  0
   36.0140   29.5460   43.7320 H   0  0  0  0  0  0  0  0  0  0  0  0
  1  2  1  0  0  0  0
  2 21  1  0  0  0  0
  2  3  2  0  0  0  0
  3 13  1  0  0  0  0
  4  3  1  0  0  0  0
  5  4  2  0  0  0  0
  6  1  2  0  0  0  0
  6  5  1  0  0  0  0
  7 11  1  0  0  0  0
  7  5  1  0  0  0  0
  8 14  1  0  0  0  0
  8  7  1  0  0  0  0
  9  8  1  0  0  0  0
  9 10  1  0  0  0  0
 10 18  1  0  0  0  0
 10 11  1  0  0  0  0
 11 24  1  0  0  0  0
 11 20  1  1  0  0  0
 12  1  1  0  0  0  0
 15  8  1  0  0  0  0
 16  9  1  0  0  0  0
 17  9  1  0  0  0  0
 19 10  1  0  0  0  0
 21 23  1  0  0  0  0
 22 21  1  0  0  0  0
 24 25  1  0  0  0  0
 25 26  1  0  0  0  0
 26 27  2  0  0  0  0
 27 28  1  0  0  0  0
 27 37  1  0  0  0  0
 28 29  1  0  0  0  0
 29 30  1  1  0  0  0
 31 32  1  0  0  0  0
 31 29  1  0  0  0  0
 33 34  1  6  0  0  0
 33 28  1  0  0  0  0
 33 31  1  0  0  0  0
 33 29  1  0  0  0  0
 35 34  1  0  0  0  0
 35 26  1  0  0  0  0
 36 35  1  0  0  0  0
 37 38  2  0  0  0  0
 37 39  1  0  0  0  0
 39 40  1  0  0  0  0
M  END
>  <minimizedAffinity>
-5.84041119

$$$$

 OpenBabel03252506363D

 40 44  0  0  1  0  0  0  0  0999 V2000
   36.6210   31.4370   39.9100 C   0  0  0  0  0  0  0  0  0  0  0  0
   37.7350   32.3090   40.0360 C   0  0  0  0  0  0  0  0  0  0  0  0
   38.7260   32.0000   40.9190 C   0  0  0  0  0  0  0  0  0  0  0  0
   38.5720   30.8540   41.6290 N   0  0  0  0  0  0  0  0  0  0  0  0
   37.5330   30.0380   41.5110 C   0  0  0  0  0  0  0  0  0  0  0  0
   36.5580   30.3230   40.6560 N   0  0  0  0  0  0  0  0  0  0  0  0
   37.5140   28.8740   42.3260 N   0  0  0  0  0  0  0  0  0  0  0  0
   36.6030   27.7400   42.1020 C   0  0  0  0  0  0  0  0  0  0  0  0
   36.2560   27.3550   43.5310 C   0  0  0  0  0  0  0  0  0  0  0  0
   37.2090   28.0830   44.4290 C   0  0  0  0  0  0  0  0  0  0  0  0
   38.2930   28.5170   43.4700 C   0  0  1  0  0  0  0  0  0  0  0  0
   35.7820   31.5860   39.2440 H   0  0  0  0  0  0  0  0  0  0  0  0
   39.5640   32.6730   41.0020 H   0  0  0  0  0  0  0  0  0  0  0  0
   37.1660   26.9340   41.5960 H   0  0  0  0  0  0  0  0  0  0  0  0
   35.7290   28.0860   41.5270 H   0  0  0  0  0  0  0  0  0  0  0  0
   36.3980   26.2600   43.6990 H   0  0  0  0  0  0  0  0  0  0  0  0
   35.2070   27.6690   43.7250 H   0  0  0  0  0  0  0  0  0  0  0  0
   36.7100   28.9560   44.8930 H   0  0  0  0  0  0  0  0  0  0  0  0
   37.5960   27.4400   45.2520 H   0  0  0  0  0  0  0  0  0  0  0  0
   38.8230   29.3930   43.9060 H   0  0  0  0  0  0  0  0  0  0  0  0
   37.7100   33.4750   39.1940 N   0  0  0  0  0  0  0  0  0  0  0  0
   37.5270   33.2480   38.1750 H   0  0  0  0  0  0  0  0  0  0  0  0
   37.8530   34.4750   39.5000 H   0  0  0  0  0  0  0  0  0  0  0  0
   39.4090   27.1450   43.1520 S   0  0  0  0  0  0  0  0  0  0  0  0
   41.1230   27.7200   43.0600 C   0  0  0  0  0  2  0  0  0  0  0  0
   41.7950   27.1700   41.8630 C   0  0  0  0  0  0  0  0  0  0  0  0
   42.8230   26.3530   41.9040 C   0  0  0  0  0  0  0  0  0  0  0  0
   43.4240   25.8500   40.7320 N   0  0  0  0  0  0  0  0  0  0  0  0
   44.5010   25.1540   40.0740 C   0  0  1  0  0  0  0  0  0  0  0  0
   45.7470   25.2160   40.2790 O   0  0  0  0  0  1  0  0  0  0  0  0
   43.3860   24.5310   39.2590 C   0  0  0  0  0  3  0  0  0  0  0  0
   43.6860   24.1560   38.2810 H   0  0  0  0  0  0  0  0  0  0  0  0
   42.9080   25.9360   39.3780 C   0  0  1  0  0  0  0  0  0  0  0  0
   41.1560   26.2620   39.4580 S   0  0  0  0  0  0  0  0  0  0  0  0
   41.1540   27.6720   40.6460 C   0  0  0  0  0  3  0  0  0  0  0  0
   40.1490   28.0640   40.7580 H   0  0  0  0  0  0  0  0  0  0  0  0
   43.4420   25.8770   43.1620 C   0  0  0  0  0  0  0  0  0  0  0  0
   44.1500   26.3890   44.0560 O   0  0  0  0  0  0  0  0  0  0  0  0
   43.3180   24.5890   43.6250 O   0  0  0  0  0  0  0  0  0  0  0  0
   44.0450   24.0390   44.0520 H   0  0  0  0  0  0  0  0  0  0  0  0
  1  2  2  0  0  0  0
  1  6  1  0  0  0  0
  2  3  1  0  0  0  0
  3 13  1  0  0  0  0
  3  4  2  0  0  0  0
  5  4  1  0  0  0  0
  5  7  1  0  0  0  0
  6  5  2  0  0  0  0
  7 11  1  0  0  0  0
  8  7  1  0  0  0  0
  8  9  1  0  0  0  0
  9 16  1  0  0  0  0
  9 17  1  0  0  0  0
  9 10  1  0  0  0  0
 10 18  1  0  0  0  0
 10 19  1  0  0  0  0
 11 20  1  1  0  0  0
 11 10  1  0  0  0  0
 12  1  1  0  0  0  0
 14  8  1  0  0  0  0
 15  8  1  0  0  0  0
 21 23  1  0  0  0  0
 21  2  1  0  0  0  0
 22 21  1  0  0  0  0
 24 11  1  0  0  0  0
 25 24  1  0  0  0  0
 26 27  2  0  0  0  0
 26 25  1  0  0  0  0
 27 37  1  0  0  0  0
 28 27  1  0  0  0  0
 29 30  1  6  0  0  0
 29 28  1  0  0  0  0
 31 29  1  0  0  0  0
 32 31  1  0  0  0  0
 33 31  1  1  0  0  0
 33 34  1  0  0  0  0
 33 29  1  0  0  0  0
 33 28  1  0  0  0  0
 34 35  1  0  0  0  0
 35 36  1  0  0  0  0
 35 26  1  0  0  0  0
 37 39  1  0  0  0  0
 37 38  2  0  0  0  0
 39 40  1  0  0  0  0
M  END
>  <minimizedAffinity>
-5.76231194

$$$$

 OpenBabel03252506363D

 40 44  0  0  1  0  0  0  0  0999 V2000
   37.8710   23.2810   41.0300 C   0  0  0  0  0  0  0  0  0  0  0  0
   38.1060   23.3640   39.6310 C   0  0  0  0  0  0  0  0  0  0  0  0
   38.3250   24.5830   39.0640 C   0  0  0  0  0  0  0  0  0  0  0  0
   38.3030   25.6550   39.8970 N   0  0  0  0  0  0  0  0  0  0  0  0
   38.0850   25.5790   41.2020 C   0  0  0  0  0  0  0  0  0  0  0  0
   37.8690   24.3990   41.7730 N   0  0  0  0  0  0  0  0  0  0  0  0
   38.0910   26.7910   41.9430 N   0  0  0  0  0  0  0  0  0  0  0  0
   38.1640   26.8470   43.4120 C   0  0  0  0  0  0  0  0  0  0  0  0
   37.2250   28.0050   43.7100 C   0  0  0  0  0  0  0  0  0  0  0  0
   36.9410   28.6900   42.4090 C   0  0  0  0  0  0  0  0  0  0  0  0
   38.0330   28.1530   41.5130 C   0  0  1  0  0  0  0  0  0  0  0  0
   37.6860   22.3690   41.5800 H   0  0  0  0  0  0  0  0  0  0  0  0
   38.5010   24.6280   38.0010 H   0  0  0  0  0  0  0  0  0  0  0  0
   39.2040   27.0900   43.7010 H   0  0  0  0  0  0  0  0  0  0  0  0
   37.8110   25.8900   43.8280 H   0  0  0  0  0  0  0  0  0  0  0  0
   37.7060   28.7490   44.3890 H   0  0  0  0  0  0  0  0  0  0  0  0
   36.2940   27.5850   44.1510 H   0  0  0  0  0  0  0  0  0  0  0  0
   35.9390   28.4050   42.0340 H   0  0  0  0  0  0  0  0  0  0  0  0
   36.9650   29.8000   42.4960 H   0  0  0  0  0  0  0  0  0  0  0  0
   37.7020   28.2450   40.4540 H   0  0  0  0  0  0  0  0  0  0  0  0
   38.0880   22.1120   38.9230 N   0  0  0  0  0  0  0  0  0  0  0  0
   38.7110   21.3760   39.3640 H   0  0  0  0  0  0  0  0  0  0  0  0
   37.5350   21.8900   38.0510 H   0  0  0  0  0  0  0  0  0  0  0  0
   39.5630   29.0450   41.8180 S   0  0  0  0  0  0  0  0  0  0  0  0
   39.2520   30.8230   41.9630 C   0  0  0  0  0  2  0  0  0  0  0  0
   40.4210   31.5980   41.4920 C   0  0  0  0  0  0  0  0  0  0  0  0
   40.3430   32.7840   40.9340 C   0  0  0  0  0  0  0  0  0  0  0  0
   41.4880   33.4850   40.5080 N   0  0  0  0  0  0  0  0  0  0  0  0
   42.0960   34.5770   39.7880 C   0  0  1  0  0  0  0  0  0  0  0  0
   41.7920   35.0720   38.6660 O   0  0  0  0  0  1  0  0  0  0  0  0
   43.0270   34.6340   40.9820 C   0  0  0  0  0  3  0  0  0  0  0  0
   43.9970   35.0900   40.7880 H   0  0  0  0  0  0  0  0  0  0  0  0
   42.8720   33.1630   40.8060 C   0  0  1  0  0  0  0  0  0  0  0  0
   42.9120   32.1000   42.2370 S   0  0  0  0  0  0  0  0  0  0  0  0
   41.6560   30.8480   41.7320 C   0  0  0  0  0  3  0  0  0  0  0  0
   41.6020   30.0560   42.4690 H   0  0  0  0  0  0  0  0  0  0  0  0
   39.0660   33.5000   40.7060 C   0  0  0  0  0  0  0  0  0  0  0  0
   38.1220   33.4000   39.8930 O   0  0  0  0  0  0  0  0  0  0  0  0
   38.6470   34.5610   41.4730 O   0  0  0  0  0  0  0  0  0  0  0  0
   38.1970   35.3960   41.1370 H   0  0  0  0  0  0  0  0  0  0  0  0
  1 12  1  0  0  0  0
  1  6  1  0  0  0  0
  2  1  2  0  0  0  0
  3  2  1  0  0  0  0
  3  4  2  0  0  0  0
  4  5  1  0  0  0  0
  5  6  2  0  0  0  0
  5  7  1  0  0  0  0
  7  8  1  0  0  0  0
  8 14  1  0  0  0  0
  8  9  1  0  0  0  0
  8 15  1  0  0  0  0
  9 17  1  0  0  0  0
  9 16  1  0  0  0  0
 10 19  1  0  0  0  0
 10  9  1  0  0  0  0
 11 20  1  6  0  0  0
 11 24  1  0  0  0  0
 11  7  1  0  0  0  0
 11 10  1  0  0  0  0
 13  3  1  0  0  0  0
 18 10  1  0  0  0  0
 21 22  1  0  0  0  0
 21  2  1  0  0  0  0
 23 21  1  0  0  0  0
 24 25  1  0  0  0  0
 26 35  1  0  0  0  0
 26 25  1  0  0  0  0
 27 26  2  0  0  0  0
 28 33  1  0  0  0  0
 28 27  1  0  0  0  0
 29 30  1  6  0  0  0
 29 28  1  0  0  0  0
 29 33  1  0  0  0  0
 29 31  1  0  0  0  0
 32 31  1  0  0  0  0
 33 31  1  1  0  0  0
 33 34  1  0  0  0  0
 35 34  1  0  0  0  0
 35 36  1  0  0  0  0
 37 27  1  0  0  0  0
 37 39  1  0  0  0  0
 38 37  2  0  0  0  0
 40 39  1  0  0  0  0
M  END
>  <minimizedAffinity>
-5.70215559

$$$$

 OpenBabel03252506363D

 40 44  0  0  1  0  0  0  0  0999 V2000
   36.4570   29.4620   32.9660 C   0  0  0  0  0  0  0  0  0  0  0  0
   36.6350   30.8720   32.9710 C   0  0  0  0  0  0  0  0  0  0  0  0
   36.6580   31.5360   34.1600 C   0  0  0  0  0  0  0  0  0  0  0  0
   36.5080   30.7840   35.2800 N   0  0  0  0  0  0  0  0  0  0  0  0
   36.3430   29.4690   35.2770 C   0  0  0  0  0  0  0  0  0  0  0  0
   36.3170   28.8040   34.1280 N   0  0  0  0  0  0  0  0  0  0  0  0
   36.1980   28.8200   36.5330 N   0  0  0  0  0  0  0  0  0  0  0  0
   36.3080   27.3630   36.7140 C   0  0  0  0  0  0  0  0  0  0  0  0
   35.2220   27.1120   37.7470 C   0  0  0  0  0  0  0  0  0  0  0  0
   34.8020   28.4470   38.2810 C   0  0  0  0  0  0  0  0  0  0  0  0
   35.9320   29.3460   37.8350 C   0  0  1  0  0  0  0  0  0  0  0  0
   36.4220   28.8390   32.0830 H   0  0  0  0  0  0  0  0  0  0  0  0
   36.7930   32.6060   34.1460 H   0  0  0  0  0  0  0  0  0  0  0  0
   37.3100   27.1370   37.1230 H   0  0  0  0  0  0  0  0  0  0  0  0
   36.1090   26.8630   35.7530 H   0  0  0  0  0  0  0  0  0  0  0  0
   35.6120   26.5100   38.6030 H   0  0  0  0  0  0  0  0  0  0  0  0
   34.3750   26.6030   37.2370 H   0  0  0  0  0  0  0  0  0  0  0  0
   33.8400   28.7570   37.8290 H   0  0  0  0  0  0  0  0  0  0  0  0
   34.6690   28.4430   39.3870 H   0  0  0  0  0  0  0  0  0  0  0  0
   35.5590   30.3940   37.7950 H   0  0  0  0  0  0  0  0  0  0  0  0
   36.7750   31.4850   31.6770 N   0  0  0  0  0  0  0  0  0  0  0  0
   37.5100   31.0180   31.0730 H   0  0  0  0  0  0  0  0  0  0  0  0
   36.2330   32.3140   31.3110 H   0  0  0  0  0  0  0  0  0  0  0  0
   37.3270   29.1720   38.9550 S   0  0  0  0  0  0  0  0  0  0  0  0
   36.8090   28.4010   40.5090 C   0  0  0  0  0  2  0  0  0  0  0  0
   37.8280   27.4370   40.9790 C   0  0  0  0  0  0  0  0  0  0  0  0
   38.2590   27.3640   42.2170 C   0  0  0  0  0  0  0  0  0  0  0  0
   39.2280   26.4210   42.6160 N   0  0  0  0  0  0  0  0  0  0  0  0
   40.1600   25.9170   43.5930 C   0  0  1  0  0  0  0  0  0  0  0  0
   40.9500   26.5430   44.3540 O   0  0  0  0  0  1  0  0  0  0  0  0
   39.6410   24.5630   43.1520 C   0  0  0  0  0  3  0  0  0  0  0  0
   40.3200   23.7300   43.3300 H   0  0  0  0  0  0  0  0  0  0  0  0
   39.7080   25.2850   41.8510 C   0  0  1  0  0  0  0  0  0  0  0  0
   38.5160   24.9110   40.5790 S   0  0  0  0  0  0  0  0  0  0  0  0
   38.2790   26.5960   39.8680 C   0  0  0  0  0  3  0  0  0  0  0  0
   37.6250   26.5470   39.0050 H   0  0  0  0  0  0  0  0  0  0  0  0
   37.7760   28.2440   43.3070 C   0  0  0  0  0  0  0  0  0  0  0  0
   37.0060   28.1120   44.2820 O   0  0  0  0  0  0  0  0  0  0  0  0
   38.1570   29.5570   43.4430 O   0  0  0  0  0  0  0  0  0  0  0  0
   37.5610   30.3240   43.7060 H   0  0  0  0  0  0  0  0  0  0  0  0
  1  2  2  0  0  0  0
  1  6  1  0  0  0  0
  2  3  1  0  0  0  0
  3  4  2  0  0  0  0
  5  4  1  0  0  0  0
  5  7  1  0  0  0  0
  6  5  2  0  0  0  0
  7  8  1  0  0  0  0
  7 11  1  0  0  0  0
  8 14  1  0  0  0  0
  8  9  1  0  0  0  0
  9 10  1  0  0  0  0
  9 16  1  0  0  0  0
 10 19  1  0  0  0  0
 11 20  1  6  0  0  0
 11 10  1  0  0  0  0
 11 24  1  0  0  0  0
 12  1  1  0  0  0  0
 13  3  1  0  0  0  0
 15  8  1  0  0  0  0
 17  9  1  0  0  0  0
 18 10  1  0  0  0  0
 21  2  1  0  0  0  0
 22 21  1  0  0  0  0
 23 21  1  0  0  0  0
 24 25  1  0  0  0  0
 25 26  1  0  0  0  0
 26 27  2  0  0  0  0
 27 28  1  0  0  0  0
 27 37  1  0  0  0  0
 28 29  1  0  0  0  0
 29 30  1  1  0  0  0
 31 32  1  0  0  0  0
 31 29  1  0  0  0  0
 33 34  1  6  0  0  0
 33 28  1  0  0  0  0
 33 31  1  0  0  0  0
 33 29  1  0  0  0  0
 35 34  1  0  0  0  0
 35 26  1  0  0  0  0
 36 35  1  0  0  0  0
 37 39  1  0  0  0  0
 37 38  2  0  0  0  0
 39 40  1  0  0  0  0
M  END
>  <minimizedAffinity>
-5.64228773

$$$$
