
 OpenBabel03242521543D

 55 60  0  0  1  0  0  0  0  0999 V2000
   44.5990   30.3950   42.8400 C   0  0  0  0  0  0  0  0  0  0  0  0
   46.0040   30.6940   43.0270 C   0  0  0  0  0  0  0  0  0  0  0  0
   46.6240   30.7690   41.8520 C   0  0  0  0  0  0  0  0  0  0  0  0
   46.0410   30.5890   40.6150 C   0  0  0  0  0  0  0  0  0  0  0  0
   44.7140   30.3030   40.4660 C   0  0  0  0  0  0  0  0  0  0  0  0
   43.9780   30.2050   41.6210 C   0  0  0  0  0  0  0  0  0  0  0  0
   47.6750   31.0020   42.0920 H   0  0  0  0  0  0  0  0  0  0  0  0
   46.7660   30.7030   39.8080 H   0  0  0  0  0  0  0  0  0  0  0  0
   44.4510   30.1950   39.4270 H   0  0  0  0  0  0  0  0  0  0  0  0
   45.8530   32.7030   45.3370 C   0  0  0  0  0  0  0  0  0  0  0  0
   45.5470   33.3850   46.5130 C   0  0  0  0  0  0  0  0  0  0  0  0
   45.4860   32.7610   47.7640 C   0  0  0  0  0  0  0  0  0  0  0  0
   45.7340   31.4220   47.8820 C   0  0  0  0  0  0  0  0  0  0  0  0
   46.0370   30.7060   46.7090 C   0  0  0  0  0  0  0  0  0  0  0  0
   46.2220   29.3670   46.8620 C   0  0  0  0  0  0  0  0  0  0  0  0
   46.4520   28.6160   45.7080 C   0  0  0  0  0  0  0  0  0  0  0  0
   46.4720   29.2930   44.4350 C   0  0  0  0  0  0  0  0  0  0  0  0
   46.2670   30.6530   44.4510 C   0  0  0  0  0  0  0  0  0  0  0  0
   46.0660   31.4210   45.5100 C   0  0  0  0  0  0  0  0  0  0  0  0
   45.3460   34.4660   46.4300 H   0  0  0  0  0  0  0  0  0  0  0  0
   45.2360   33.4120   48.6000 H   0  0  0  0  0  0  0  0  0  0  0  0
   45.6910   30.9560   48.8480 H   0  0  0  0  0  0  0  0  0  0  0  0
   46.1920   28.9080   47.8390 H   0  0  0  0  0  0  0  0  0  0  0  0
   46.5950   27.5640   45.9040 H   0  0  0  0  0  0  0  0  0  0  0  0
   46.6640   28.4820   43.7510 H   0  0  0  0  0  0  0  0  0  0  0  0
   45.9380   34.6230   42.1380 C   0  0  0  0  0  0  0  0  0  0  0  0
   47.3250   34.8920   42.0550 C   0  0  0  0  0  0  0  0  0  0  0  0
   48.1050   34.3810   43.0670 C   0  0  0  0  0  0  0  0  0  0  0  0
   47.4500   33.6980   44.0020 N   0  0  0  0  0  0  0  0  0  0  0  0
   46.1540   33.4270   44.1120 C   0  0  0  0  0  0  0  0  0  0  0  0
   45.4300   33.9110   43.1480 N   0  0  0  0  0  0  0  0  0  0  0  0
   45.3280   35.0110   41.3610 H   0  0  0  0  0  0  0  0  0  0  0  0
   47.7600   35.4600   41.2560 H   0  0  0  0  0  0  0  0  0  0  0  0
   49.5150   34.5200   43.0810 N   0  0  0  0  0  0  0  0  0  0  0  0
   49.6450   35.2380   43.8410 H   0  0  0  0  0  0  0  0  0  0  0  0
   50.2250   34.0310   42.4890 H   0  0  0  0  0  0  0  0  0  0  0  0
   43.6240   30.2480   43.8640 O   0  0  0  0  0  0  0  0  0  0  0  0
   42.9860   31.0160   43.9840 H   0  0  0  0  0  0  0  0  0  0  0  0
   42.6510   29.9110   41.4060 O   0  0  0  0  0  0  0  0  0  0  0  0
   42.0960   30.2030   40.1400 C   0  0  0  0  0  2  0  0  0  0  0  0
   41.3830   31.5050   40.1380 C   0  0  0  0  0  0  0  0  0  0  0  0
   41.4790   32.4340   39.2090 C   0  0  0  0  0  0  0  0  0  0  0  0
   40.7780   33.6700   39.2440 N   0  0  0  0  0  0  0  0  0  0  0  0
   40.8880   35.0980   39.0650 C   0  0  0  0  0  0  0  0  0  0  0  0
   41.6700   35.8190   38.3890 O   0  0  0  0  0  0  0  0  0  0  0  0
   39.7160   35.2500   39.9990 C   0  0  0  0  0  3  0  0  0  0  0  0
   39.9640   35.3540   41.0580 H   0  0  0  0  0  0  0  0  0  0  0  0
   39.3520   33.8540   39.5700 C   0  0  2  0  0  3  0  0  0  0  0  0
   39.0120   32.6800   40.9050 S   0  0  0  0  0  0  0  0  0  0  0  0
   40.4980   31.7280   41.3100 C   0  0  0  0  0  3  0  0  0  0  0  0
   41.1000   32.3950   41.9920 H   0  0  0  0  0  0  0  0  0  0  0  0
   42.3510   32.2530   38.0240 C   0  0  0  0  0  0  0  0  0  0  0  0
   42.5560   31.4780   37.0860 O   0  0  0  0  0  0  0  0  0  0  0  0
   43.3350   33.1160   37.6540 O   0  0  0  0  0  0  0  0  0  0  0  0
   43.3340   33.7590   36.8890 H   0  0  0  0  0  0  0  0  0  0  0  0
  1  2  1  0  0  0  0
  1 37  1  0  0  0  0
  2 18  1  0  0  0  0
  3  7  1  0  0  0  0
  3  2  2  0  0  0  0
  4  3  1  0  0  0  0
  5  4  2  0  0  0  0
  5  6  1  0  0  0  0
  6  1  2  0  0  0  0
  8  4  1  0  0  0  0
  9  5  1  0  0  0  0
 10 19  2  0  0  0  0
 10 11  1  0  0  0  0
 11 12  2  0  0  0  0
 12 13  1  0  0  0  0
 12 21  1  0  0  0  0
 13 22  1  0  0  0  0
 14 15  1  0  0  0  0
 14 13  2  0  0  0  0
 15 23  1  0  0  0  0
 16 24  1  0  0  0  0
 16 15  2  0  0  0  0
 17 18  2  0  0  0  0
 17 16  1  0  0  0  0
 18 19  1  0  0  0  0
 19 14  1  0  0  0  0
 20 11  1  0  0  0  0
 25 17  1  0  0  0  0
 26 31  1  0  0  0  0
 27 26  2  0  0  0  0
 27 28  1  0  0  0  0
 28 34  1  0  0  0  0
 28 29  2  0  0  0  0
 29 30  1  0  0  0  0
 30 10  1  0  0  0  0
 31 30  2  0  0  0  0
 32 26  1  0  0  0  0
 33 27  1  0  0  0  0
 34 35  1  0  0  0  0
 36 34  1  0  0  0  0
 37 38  1  0  0  0  0
 39  6  1  0  0  0  0
 40 39  1  0  0  0  0
 41 40  1  0  0  0  0
 41 50  1  0  0  0  0
 42 43  1  0  0  0  0
 42 41  2  0  0  0  0
 43 48  1  0  0  0  0
 44 43  1  0  0  0  0
 44 46  1  0  0  0  0
 45 44  2  0  0  0  0
 46 47  1  0  0  0  0
 48 46  1  1  0  0  0
 48 49  1  0  0  0  0
 49 50  1  0  0  0  0
 50 51  1  0  0  0  0
 52 42  1  0  0  0  0
 53 52  2  0  0  0  0
 54 52  1  0  0  0  0
 55 54  1  0  0  0  0
M  END
>  <minimizedAffinity>
-6.61555529

>  <minimizedRMSD>
1.94687045

$$$$
