
 OpenBabel03242521543D

 55 60  0  0  1  0  0  0  0  0999 V2000
   44.5690   29.7830   43.9000 C   0  0  0  0  0  0  0  0  0  0  0  0
   45.9420   30.2330   43.8010 C   0  0  0  0  0  0  0  0  0  0  0  0
   46.3010   30.3540   42.5260 C   0  0  0  0  0  0  0  0  0  0  0  0
   45.5040   30.0930   41.4310 C   0  0  0  0  0  0  0  0  0  0  0  0
   44.2120   29.6660   41.5510 C   0  0  0  0  0  0  0  0  0  0  0  0
   43.7390   29.5090   42.8300 C   0  0  0  0  0  0  0  0  0  0  0  0
   47.3470   30.7010   42.5490 H   0  0  0  0  0  0  0  0  0  0  0  0
   46.0340   30.2700   40.4940 H   0  0  0  0  0  0  0  0  0  0  0  0
   43.7590   29.5130   40.5870 H   0  0  0  0  0  0  0  0  0  0  0  0
   46.0300   32.2460   46.1110 C   0  0  0  0  0  0  0  0  0  0  0  0
   45.8910   32.9070   47.3300 C   0  0  0  0  0  0  0  0  0  0  0  0
   46.1560   32.2990   48.5620 C   0  0  0  0  0  0  0  0  0  0  0  0
   46.5730   30.9980   48.6170 C   0  0  0  0  0  0  0  0  0  0  0  0
   46.7140   30.3030   47.4010 C   0  0  0  0  0  0  0  0  0  0  0  0
   47.0780   28.9970   47.5020 C   0  0  0  0  0  0  0  0  0  0  0  0
   47.1550   28.2600   46.3190 C   0  0  0  0  0  0  0  0  0  0  0  0
   46.8410   28.9160   45.0740 C   0  0  0  0  0  0  0  0  0  0  0  0
   46.4900   30.2440   45.1430 C   0  0  0  0  0  0  0  0  0  0  0  0
   46.4190   31.0000   46.2260 C   0  0  0  0  0  0  0  0  0  0  0  0
   45.5560   33.9570   47.2980 H   0  0  0  0  0  0  0  0  0  0  0  0
   46.0060   32.9290   49.4360 H   0  0  0  0  0  0  0  0  0  0  0  0
   46.7790   30.5450   49.5680 H   0  0  0  0  0  0  0  0  0  0  0  0
   47.2980   28.5520   48.4610 H   0  0  0  0  0  0  0  0  0  0  0  0
   47.4540   27.2340   46.4740 H   0  0  0  0  0  0  0  0  0  0  0  0
   46.9830   28.1210   44.3580 H   0  0  0  0  0  0  0  0  0  0  0  0
   45.2500   34.1300   42.9850 C   0  0  0  0  0  0  0  0  0  0  0  0
   46.5560   34.5250   42.6090 C   0  0  0  0  0  0  0  0  0  0  0  0
   47.5790   34.0990   43.4260 C   0  0  0  0  0  0  0  0  0  0  0  0
   47.2060   33.3690   44.4740 N   0  0  0  0  0  0  0  0  0  0  0  0
   45.9940   32.9810   44.8560 C   0  0  0  0  0  0  0  0  0  0  0  0
   45.0380   33.3860   44.0740 N   0  0  0  0  0  0  0  0  0  0  0  0
   44.4550   34.4520   42.3600 H   0  0  0  0  0  0  0  0  0  0  0  0
   46.7560   35.1220   41.7410 H   0  0  0  0  0  0  0  0  0  0  0  0
   48.9410   34.3680   43.1390 N   0  0  0  0  0  0  0  0  0  0  0  0
   49.1640   35.1030   43.8590 H   0  0  0  0  0  0  0  0  0  0  0  0
   49.5490   33.9400   42.4040 H   0  0  0  0  0  0  0  0  0  0  0  0
   43.8410   29.5510   45.0990 O   0  0  0  0  0  0  0  0  0  0  0  0
   43.1610   30.2480   45.3500 H   0  0  0  0  0  0  0  0  0  0  0  0
   42.4350   29.0720   42.8860 O   0  0  0  0  0  0  0  0  0  0  0  0
   41.4610   29.7710   42.1390 C   0  0  0  0  0  2  0  0  0  0  0  0
   40.3160   28.9000   41.7740 C   0  0  0  0  0  0  0  0  0  0  0  0
   39.3880   29.1830   40.8830 C   0  0  0  0  0  0  0  0  0  0  0  0
   38.3050   28.3190   40.5620 N   0  0  0  0  0  0  0  0  0  0  0  0
   36.8810   28.2430   40.3310 C   0  0  0  0  0  0  0  0  0  0  0  0
   36.0290   29.0860   39.9460 O   0  0  0  0  0  0  0  0  0  0  0  0
   36.9500   26.7950   40.7450 C   0  0  0  0  0  3  0  0  0  0  0  0
   36.7980   26.5980   41.8090 H   0  0  0  0  0  0  0  0  0  0  0  0
   38.3910   26.8690   40.3140 C   0  0  2  0  0  3  0  0  0  0  0  0
   39.6040   26.2520   41.5080 S   0  0  0  0  0  0  0  0  0  0  0  0
   40.2600   27.6100   42.5100 C   0  0  0  0  0  3  0  0  0  0  0  0
   39.4890   27.7820   43.3160 H   0  0  0  0  0  0  0  0  0  0  0  0
   39.4050   30.4580   40.1280 C   0  0  0  0  0  0  0  0  0  0  0  0
   39.9010   31.5880   40.1530 O   0  0  0  0  0  0  0  0  0  0  0  0
   38.7080   30.6850   38.9830 O   0  0  0  0  0  0  0  0  0  0  0  0
   39.0580   30.7450   38.0500 H   0  0  0  0  0  0  0  0  0  0  0  0
  1 37  1  0  0  0  0
  2  1  1  0  0  0  0
  2 18  1  0  0  0  0
  3  7  1  0  0  0  0
  3  2  2  0  0  0  0
  4  5  2  0  0  0  0
  4  3  1  0  0  0  0
  5  6  1  0  0  0  0
  6 39  1  0  0  0  0
  6  1  2  0  0  0  0
  8  4  1  0  0  0  0
  9  5  1  0  0  0  0
 10 19  2  0  0  0  0
 10 11  1  0  0  0  0
 11 12  2  0  0  0  0
 12 13  1  0  0  0  0
 12 21  1  0  0  0  0
 13 22  1  0  0  0  0
 14 15  1  0  0  0  0
 14 13  2  0  0  0  0
 15 23  1  0  0  0  0
 16 24  1  0  0  0  0
 16 15  2  0  0  0  0
 17 18  2  0  0  0  0
 17 16  1  0  0  0  0
 18 19  1  0  0  0  0
 19 14  1  0  0  0  0
 20 11  1  0  0  0  0
 25 17  1  0  0  0  0
 26 31  1  0  0  0  0
 27 26  2  0  0  0  0
 27 28  1  0  0  0  0
 28 29  2  0  0  0  0
 29 30  1  0  0  0  0
 30 10  1  0  0  0  0
 31 30  2  0  0  0  0
 32 26  1  0  0  0  0
 33 27  1  0  0  0  0
 34 28  1  0  0  0  0
 34 35  1  0  0  0  0
 36 34  1  0  0  0  0
 37 38  1  0  0  0  0
 40 39  1  0  0  0  0
 41 40  1  0  0  0  0
 41 50  1  0  0  0  0
 42 41  2  0  0  0  0
 43 42  1  0  0  0  0
 44 43  1  0  0  0  0
 44 46  1  0  0  0  0
 45 44  2  0  0  0  0
 46 47  1  0  0  0  0
 48 43  1  0  0  0  0
 48 46  1  1  0  0  0
 48 49  1  0  0  0  0
 49 50  1  0  0  0  0
 50 51  1  0  0  0  0
 52 53  2  0  0  0  0
 52 42  1  0  0  0  0
 54 52  1  0  0  0  0
 55 54  1  0  0  0  0
M  END
>  <minimizedAffinity>
-5.60390568

>  <minimizedRMSD>
1.36900783

$$$$
