
 OpenBabel03242521543D

 55 60  0  0  1  0  0  0  0  0999 V2000
   44.9530   29.7020   43.8580 C   0  0  0  0  0  0  0  0  0  0  0  0
   46.3040   30.2240   43.8690 C   0  0  0  0  0  0  0  0  0  0  0  0
   46.7900   30.2830   42.6320 C   0  0  0  0  0  0  0  0  0  0  0  0
   46.1290   29.9050   41.4830 C   0  0  0  0  0  0  0  0  0  0  0  0
   44.8550   29.4120   41.4990 C   0  0  0  0  0  0  0  0  0  0  0  0
   44.2570   29.3110   42.7310 C   0  0  0  0  0  0  0  0  0  0  0  0
   47.8090   30.6910   42.7380 H   0  0  0  0  0  0  0  0  0  0  0  0
   46.7460   30.0510   40.5950 H   0  0  0  0  0  0  0  0  0  0  0  0
   44.5150   29.1710   40.5060 H   0  0  0  0  0  0  0  0  0  0  0  0
   45.9230   32.3260   46.0670 C   0  0  0  0  0  0  0  0  0  0  0  0
   45.5830   33.0140   47.2310 C   0  0  0  0  0  0  0  0  0  0  0  0
   45.7850   32.4920   48.5130 C   0  0  0  0  0  0  0  0  0  0  0  0
   46.3400   31.2530   48.6770 C   0  0  0  0  0  0  0  0  0  0  0  0
   46.6850   30.5310   47.5190 C   0  0  0  0  0  0  0  0  0  0  0  0
   47.1820   29.2820   47.7230 C   0  0  0  0  0  0  0  0  0  0  0  0
   47.4650   28.5120   46.5940 C   0  0  0  0  0  0  0  0  0  0  0  0
   47.2100   29.0750   45.2910 C   0  0  0  0  0  0  0  0  0  0  0  0
   46.7040   30.3540   45.2560 C   0  0  0  0  0  0  0  0  0  0  0  0
   46.4360   31.1390   46.2860 C   0  0  0  0  0  0  0  0  0  0  0  0
   45.1360   34.0140   47.1110 H   0  0  0  0  0  0  0  0  0  0  0  0
   45.4760   33.1350   49.3340 H   0  0  0  0  0  0  0  0  0  0  0  0
   46.4970   30.8660   49.6660 H   0  0  0  0  0  0  0  0  0  0  0  0
   47.3500   28.9060   48.7210 H   0  0  0  0  0  0  0  0  0  0  0  0
   47.8610   27.5360   46.8310 H   0  0  0  0  0  0  0  0  0  0  0  0
   47.5140   28.2740   44.6360 H   0  0  0  0  0  0  0  0  0  0  0  0
   45.2600   34.0270   42.8130 C   0  0  0  0  0  0  0  0  0  0  0  0
   46.5700   34.4610   42.4970 C   0  0  0  0  0  0  0  0  0  0  0  0
   47.5570   34.1190   43.3930 C   0  0  0  0  0  0  0  0  0  0  0  0
   47.1500   33.4220   44.4510 N   0  0  0  0  0  0  0  0  0  0  0  0
   45.9340   33.0000   44.7790 C   0  0  0  0  0  0  0  0  0  0  0  0
   45.0120   33.3260   43.9230 N   0  0  0  0  0  0  0  0  0  0  0  0
   44.4920   34.2850   42.1270 H   0  0  0  0  0  0  0  0  0  0  0  0
   46.7980   35.0260   41.6140 H   0  0  0  0  0  0  0  0  0  0  0  0
   48.9210   34.4340   43.1750 N   0  0  0  0  0  0  0  0  0  0  0  0
   49.0690   35.2110   43.8710 H   0  0  0  0  0  0  0  0  0  0  0  0
   49.5910   34.0000   42.5000 H   0  0  0  0  0  0  0  0  0  0  0  0
   44.1150   29.5060   44.9900 O   0  0  0  0  0  0  0  0  0  0  0  0
   43.3770   30.1770   45.1190 H   0  0  0  0  0  0  0  0  0  0  0  0
   42.9780   28.8040   42.6830 O   0  0  0  0  0  0  0  0  0  0  0  0
   42.3900   28.5840   41.4180 C   0  0  0  0  0  2  0  0  0  0  0  0
   40.9640   28.9940   41.3950 C   0  0  0  0  0  0  0  0  0  0  0  0
   40.4780   30.0540   40.7810 C   0  0  0  0  0  0  0  0  0  0  0  0
   39.1020   30.4120   40.7830 N   0  0  0  0  0  0  0  0  0  0  0  0
   38.1620   31.4970   40.9470 C   0  0  0  0  0  0  0  0  0  0  0  0
   38.2550   32.7420   40.7880 O   0  0  0  0  0  0  0  0  0  0  0  0
   37.1370   30.4720   41.3580 C   0  0  0  0  0  3  0  0  0  0  0  0
   37.0880   30.2540   42.4280 H   0  0  0  0  0  0  0  0  0  0  0  0
   37.9650   29.5040   40.5530 C   0  0  2  0  0  3  0  0  0  0  0  0
   38.4100   27.9620   41.3890 S   0  0  0  0  0  0  0  0  0  0  0  0
   40.0490   28.0980   42.1470 C   0  0  0  0  0  3  0  0  0  0  0  0
   39.8790   28.6290   43.1270 H   0  0  0  0  0  0  0  0  0  0  0  0
   41.3550   30.9770   40.0210 C   0  0  0  0  0  0  0  0  0  0  0  0
   42.5410   31.2930   39.8920 O   0  0  0  0  0  0  0  0  0  0  0  0
   40.9150   31.8710   39.0970 O   0  0  0  0  0  0  0  0  0  0  0  0
   41.0030   31.8230   38.1020 H   0  0  0  0  0  0  0  0  0  0  0  0
  1  2  1  0  0  0  0
  1 37  1  0  0  0  0
  2 18  1  0  0  0  0
  3  7  1  0  0  0  0
  3  2  2  0  0  0  0
  4  5  2  0  0  0  0
  4  3  1  0  0  0  0
  5  6  1  0  0  0  0
  6  1  2  0  0  0  0
  8  4  1  0  0  0  0
  9  5  1  0  0  0  0
 10 19  2  0  0  0  0
 10 11  1  0  0  0  0
 11 12  2  0  0  0  0
 12 13  1  0  0  0  0
 12 21  1  0  0  0  0
 13 22  1  0  0  0  0
 14 15  1  0  0  0  0
 14 13  2  0  0  0  0
 15 23  1  0  0  0  0
 16 24  1  0  0  0  0
 16 15  2  0  0  0  0
 17 16  1  0  0  0  0
 18 17  2  0  0  0  0
 18 19  1  0  0  0  0
 19 14  1  0  0  0  0
 20 11  1  0  0  0  0
 25 17  1  0  0  0  0
 26 31  1  0  0  0  0
 27 26  2  0  0  0  0
 27 28  1  0  0  0  0
 28 29  2  0  0  0  0
 29 30  1  0  0  0  0
 30 10  1  0  0  0  0
 31 30  2  0  0  0  0
 32 26  1  0  0  0  0
 33 27  1  0  0  0  0
 34 28  1  0  0  0  0
 34 35  1  0  0  0  0
 36 34  1  0  0  0  0
 37 38  1  0  0  0  0
 39  6  1  0  0  0  0
 40 39  1  0  0  0  0
 41 40  1  0  0  0  0
 41 50  1  0  0  0  0
 42 43  1  0  0  0  0
 42 41  2  0  0  0  0
 43 44  1  0  0  0  0
 44 46  1  0  0  0  0
 45 44  2  0  0  0  0
 46 47  1  0  0  0  0
 48 43  1  0  0  0  0
 48 46  1  1  0  0  0
 48 49  1  0  0  0  0
 49 50  1  0  0  0  0
 50 51  1  0  0  0  0
 52 42  1  0  0  0  0
 53 52  2  0  0  0  0
 54 52  1  0  0  0  0
 55 54  1  0  0  0  0
M  END
>  <minimizedAffinity>
-6.01760197

>  <minimizedRMSD>
0.519769192

$$$$
