
 OpenBabel03242521543D

 55 60  0  0  1  0  0  0  0  0999 V2000
   44.9290   30.6960   42.4040 C   0  0  0  0  0  0  0  0  0  0  0  0
   46.3250   30.8880   42.7390 C   0  0  0  0  0  0  0  0  0  0  0  0
   47.0810   30.8100   41.6470 C   0  0  0  0  0  0  0  0  0  0  0  0
   46.6300   30.5760   40.3640 C   0  0  0  0  0  0  0  0  0  0  0  0
   45.3080   30.3940   40.0750 C   0  0  0  0  0  0  0  0  0  0  0  0
   44.4380   30.4580   41.1350 C   0  0  0  0  0  0  0  0  0  0  0  0
   48.1150   30.9700   41.9950 H   0  0  0  0  0  0  0  0  0  0  0  0
   47.4500   30.5580   39.6450 H   0  0  0  0  0  0  0  0  0  0  0  0
   45.1570   30.2220   39.0230 H   0  0  0  0  0  0  0  0  0  0  0  0
   46.0280   33.0770   44.8640 C   0  0  0  0  0  0  0  0  0  0  0  0
   45.6280   33.8630   45.9430 C   0  0  0  0  0  0  0  0  0  0  0  0
   45.3840   33.3430   47.2180 C   0  0  0  0  0  0  0  0  0  0  0  0
   45.5350   32.0060   47.4610 C   0  0  0  0  0  0  0  0  0  0  0  0
   45.9300   31.1860   46.3880 C   0  0  0  0  0  0  0  0  0  0  0  0
   46.0140   29.8560   46.6570 C   0  0  0  0  0  0  0  0  0  0  0  0
   46.3310   29.0050   45.5960 C   0  0  0  0  0  0  0  0  0  0  0  0
   46.5410   29.5790   44.2890 C   0  0  0  0  0  0  0  0  0  0  0  0
   46.4180   30.9450   44.1840 C   0  0  0  0  0  0  0  0  0  0  0  0
   46.1410   31.8030   45.1530 C   0  0  0  0  0  0  0  0  0  0  0  0
   45.5040   34.9440   45.7580 H   0  0  0  0  0  0  0  0  0  0  0  0
   45.0790   34.0690   47.9690 H   0  0  0  0  0  0  0  0  0  0  0  0
   45.3520   31.6200   48.4460 H   0  0  0  0  0  0  0  0  0  0  0  0
   45.8420   29.4760   47.6530 H   0  0  0  0  0  0  0  0  0  0  0  0
   46.3860   27.9660   45.8830 H   0  0  0  0  0  0  0  0  0  0  0  0
   46.7610   28.7070   43.6940 H   0  0  0  0  0  0  0  0  0  0  0  0
   46.6020   34.6730   41.5400 C   0  0  0  0  0  0  0  0  0  0  0  0
   47.9800   34.9790   41.6540 C   0  0  0  0  0  0  0  0  0  0  0  0
   48.5920   34.5970   42.8260 C   0  0  0  0  0  0  0  0  0  0  0  0
   47.8050   33.9880   43.7090 N   0  0  0  0  0  0  0  0  0  0  0  0
   46.5130   33.6860   43.6360 C   0  0  0  0  0  0  0  0  0  0  0  0
   45.9480   34.0480   42.5230 N   0  0  0  0  0  0  0  0  0  0  0  0
   46.1210   34.9620   40.6390 H   0  0  0  0  0  0  0  0  0  0  0  0
   48.5300   35.4800   40.8830 H   0  0  0  0  0  0  0  0  0  0  0  0
   49.9790   34.7840   43.0530 N   0  0  0  0  0  0  0  0  0  0  0  0
   49.9700   35.5770   43.7460 H   0  0  0  0  0  0  0  0  0  0  0  0
   50.7830   34.2630   42.6360 H   0  0  0  0  0  0  0  0  0  0  0  0
   43.8330   30.7210   43.3090 O   0  0  0  0  0  0  0  0  0  0  0  0
   43.2620   31.5480   43.2930 H   0  0  0  0  0  0  0  0  0  0  0  0
   43.1220   30.2630   40.7820 O   0  0  0  0  0  0  0  0  0  0  0  0
   42.7280   30.5770   39.4620 C   0  0  0  0  0  2  0  0  0  0  0  0
   41.5750   31.5120   39.4390 C   0  0  0  0  0  0  0  0  0  0  0  0
   41.6320   32.8090   39.6640 C   0  0  0  0  0  0  0  0  0  0  0  0
   40.5010   33.6710   39.6320 N   0  0  0  0  0  0  0  0  0  0  0  0
   39.8130   34.7430   40.3110 C   0  0  0  0  0  0  0  0  0  0  0  0
   40.2000   35.6480   41.0960 O   0  0  0  0  0  0  0  0  0  0  0  0
   38.5410   34.2640   39.6590 C   0  0  0  0  0  3  0  0  0  0  0  0
   37.9680   33.5240   40.2250 H   0  0  0  0  0  0  0  0  0  0  0  0
   39.4470   33.6880   38.6020 C   0  0  2  0  0  3  0  0  0  0  0  0
   39.1640   31.9510   38.1810 S   0  0  0  0  0  0  0  0  0  0  0  0
   40.2670   30.8760   39.1320 C   0  0  0  0  0  3  0  0  0  0  0  0
   39.7720   30.7570   40.1380 H   0  0  0  0  0  0  0  0  0  0  0  0
   42.9140   33.4830   39.9760 C   0  0  0  0  0  0  0  0  0  0  0  0
   43.9600   33.8640   39.4430 O   0  0  0  0  0  0  0  0  0  0  0  0
   43.2730   33.9210   41.2120 O   0  0  0  0  0  0  0  0  0  0  0  0
   43.3100   34.8630   41.5460 H   0  0  0  0  0  0  0  0  0  0  0  0
  1  2  1  0  0  0  0
  1 37  1  0  0  0  0
  2 18  1  0  0  0  0
  3  7  1  0  0  0  0
  3  2  2  0  0  0  0
  4  3  1  0  0  0  0
  5  4  2  0  0  0  0
  5  6  1  0  0  0  0
  6  1  2  0  0  0  0
  8  4  1  0  0  0  0
  9  5  1  0  0  0  0
 10 19  2  0  0  0  0
 10 11  1  0  0  0  0
 11 12  2  0  0  0  0
 12 13  1  0  0  0  0
 12 21  1  0  0  0  0
 13 22  1  0  0  0  0
 14 15  1  0  0  0  0
 14 13  2  0  0  0  0
 15 23  1  0  0  0  0
 16 24  1  0  0  0  0
 16 15  2  0  0  0  0
 17 16  1  0  0  0  0
 18 17  2  0  0  0  0
 18 19  1  0  0  0  0
 19 14  1  0  0  0  0
 20 11  1  0  0  0  0
 25 17  1  0  0  0  0
 26 27  2  0  0  0  0
 26 31  1  0  0  0  0
 27 28  1  0  0  0  0
 28 34  1  0  0  0  0
 28 29  2  0  0  0  0
 30 29  1  0  0  0  0
 30 10  1  0  0  0  0
 31 30  2  0  0  0  0
 32 26  1  0  0  0  0
 33 27  1  0  0  0  0
 34 35  1  0  0  0  0
 36 34  1  0  0  0  0
 38 37  1  0  0  0  0
 39  6  1  0  0  0  0
 40 39  1  0  0  0  0
 41 40  1  0  0  0  0
 41 42  2  0  0  0  0
 42 52  1  0  0  0  0
 43 42  1  0  0  0  0
 43 44  1  0  0  0  0
 44 45  2  0  0  0  0
 46 47  1  0  0  0  0
 46 44  1  0  0  0  0
 48 49  1  1  0  0  0
 48 43  1  0  0  0  0
 48 46  1  0  0  0  0
 49 50  1  0  0  0  0
 50 41  1  0  0  0  0
 50 51  1  0  0  0  0
 52 54  1  0  0  0  0
 53 52  2  0  0  0  0
 54 55  1  0  0  0  0
M  END
>  <minimizedAffinity>
-6.61970758

>  <minimizedRMSD>
3.74695206

$$$$
