
 OpenBabel03252502283D

 36 38  0  0  0  0  0  0  0  0999 V2000
   45.1770   34.4340   41.1880 C   0  0  0  0  0  0  0  0  0  0  0  0
   45.5500   35.0740   42.3670 C   0  0  0  0  0  0  0  0  0  0  0  0
   46.9020   35.3260   42.5850 C   0  0  0  0  0  0  0  0  0  0  0  0
   47.8310   34.9440   41.6480 C   0  0  0  0  0  0  0  0  0  0  0  0
   47.4770   34.3140   40.4830 C   0  0  0  0  0  0  0  0  0  0  0  0
   46.1170   34.0680   40.2760 C   0  0  0  0  0  0  0  0  0  0  0  0
   44.8280   35.3780   43.1100 H   0  0  0  0  0  0  0  0  0  0  0  0
   47.2810   35.8160   43.4720 H   0  0  0  0  0  0  0  0  0  0  0  0
   48.8840   35.1370   41.8110 H   0  0  0  0  0  0  0  0  0  0  0  0
   48.1790   33.9980   39.7180 H   0  0  0  0  0  0  0  0  0  0  0  0
   41.4830   34.8060   40.5180 C   0  0  0  0  0  0  0  0  0  0  0  0
   42.8360   35.1490   40.6440 C   0  0  0  0  0  0  0  0  0  0  0  0
   43.7600   34.2060   41.0220 C   0  0  0  0  0  0  0  0  0  0  0  0
   43.2730   32.9600   41.2540 N   0  0  0  0  0  0  0  0  0  0  0  0
   41.9730   32.6260   41.1330 C   0  0  0  0  0  0  0  0  0  0  0  0
   41.0640   33.5600   40.7600 N   0  0  0  0  0  0  0  0  0  0  0  0
   43.1950   36.1520   40.4530 H   0  0  0  0  0  0  0  0  0  0  0  0
   41.7450   31.6020   41.3490 H   0  0  0  0  0  0  0  0  0  0  0  0
   40.4920   35.8270   40.1110 C   0  0  0  0  0  0  0  0  0  0  0  0
   39.2800   35.1660   39.8830 F   0  0  0  0  0  0  0  0  0  0  0  0
   40.8820   36.2800   38.8460 F   0  0  0  0  0  0  0  0  0  0  0  0
   40.3410   36.8410   41.0050 F   0  0  0  0  0  0  0  0  0  0  0  0
   45.5870   32.1030   38.6540 C   0  0  0  0  0  0  0  0  0  0  0  0
   46.0210   31.1210   39.2390 O   0  0  0  0  0  0  0  0  0  0  0  0
   45.6200   33.4350   39.1180 N   0  0  0  0  0  0  0  0  0  0  0  0
   45.1970   34.2160   38.5260 H   0  0  0  0  0  0  0  0  0  0  0  0
   44.9520   31.8750   37.3060 C   0  0  0  0  0  3  0  0  0  0  0  0
   45.2260   30.4830   36.8740 C   0  0  0  0  0  3  0  0  0  0  0  0
   44.9940   29.7230   37.6350 H   0  0  0  0  0  0  0  0  0  0  0  0
   44.4040   30.2540   35.5980 C   0  0  0  0  0  3  0  0  0  0  0  0
   44.7590   29.3980   35.0140 H   0  0  0  0  0  0  0  0  0  0  0  0
   44.3110   31.4270   34.8680 O   0  0  0  0  0  0  0  0  0  0  0  0
   45.4470   32.2270   34.9580 C   0  0  0  0  0  3  0  0  0  0  0  0
   46.3840   31.6700   34.7680 H   0  0  0  0  0  0  0  0  0  0  0  0
   45.5870   32.8450   36.3320 C   0  0  0  0  0  3  0  0  0  0  0  0
   46.6420   32.9790   36.6510 H   0  0  0  0  0  0  0  0  0  0  0  0
  1  2  1  0  0  0  0
  2  3  2  0  0  0  0
  2  7  1  0  0  0  0
  3  8  1  0  0  0  0
  4  9  1  0  0  0  0
  4  3  1  0  0  0  0
  5  4  2  0  0  0  0
  6  5  1  0  0  0  0
  6  1  2  0  0  0  0
 10  5  1  0  0  0  0
 11 12  2  0  0  0  0
 11 16  1  0  0  0  0
 12 13  1  0  0  0  0
 13  1  1  0  0  0  0
 13 14  2  0  0  0  0
 15 14  1  0  0  0  0
 15 18  1  0  0  0  0
 16 15  2  0  0  0  0
 17 12  1  0  0  0  0
 19 11  1  0  0  0  0
 19 22  1  0  0  0  0
 20 19  1  0  0  0  0
 21 19  1  0  0  0  0
 23 25  1  0  0  0  0
 23 24  2  0  0  0  0
 25  6  1  0  0  0  0
 26 25  1  0  0  0  0
 27 23  1  0  0  0  0
 28 27  1  0  0  0  0
 28 29  1  0  0  0  0
 30 28  1  0  0  0  0
 31 30  1  0  0  0  0
 32 33  1  0  0  0  0
 32 30  1  0  0  0  0
 33 35  1  0  0  0  0
 34 33  1  0  0  0  0
 35 36  1  0  0  0  0
 35 27  1  0  0  0  0
M  END
>  <minimizedAffinity>
-6.01299858

>  <minimizedRMSD>
0.284868598

$$$$
