
 OpenBabel03252502283D

 36 38  0  0  0  0  0  0  0  0999 V2000
   45.1070   34.4530   41.2620 C   0  0  0  0  0  0  0  0  0  0  0  0
   45.4550   35.1040   42.4420 C   0  0  0  0  0  0  0  0  0  0  0  0
   46.8000   35.3680   42.6820 C   0  0  0  0  0  0  0  0  0  0  0  0
   47.7480   34.9860   41.7640 C   0  0  0  0  0  0  0  0  0  0  0  0
   47.4190   34.3440   40.5980 C   0  0  0  0  0  0  0  0  0  0  0  0
   46.0650   34.0870   40.3690 C   0  0  0  0  0  0  0  0  0  0  0  0
   44.7170   35.4090   43.1710 H   0  0  0  0  0  0  0  0  0  0  0  0
   47.1610   35.8680   43.5710 H   0  0  0  0  0  0  0  0  0  0  0  0
   48.7980   35.1880   41.9440 H   0  0  0  0  0  0  0  0  0  0  0  0
   48.1370   34.0280   39.8480 H   0  0  0  0  0  0  0  0  0  0  0  0
   41.4270   34.7870   40.5020 C   0  0  0  0  0  0  0  0  0  0  0  0
   42.7750   35.1400   40.6470 C   0  0  0  0  0  0  0  0  0  0  0  0
   43.6950   34.2130   41.0740 C   0  0  0  0  0  0  0  0  0  0  0  0
   43.2080   32.9730   41.3330 N   0  0  0  0  0  0  0  0  0  0  0  0
   41.9110   32.6290   41.1950 C   0  0  0  0  0  0  0  0  0  0  0  0
   41.0080   33.5470   40.7750 N   0  0  0  0  0  0  0  0  0  0  0  0
   43.1340   36.1380   40.4330 H   0  0  0  0  0  0  0  0  0  0  0  0
   41.6830   31.6110   41.4380 H   0  0  0  0  0  0  0  0  0  0  0  0
   40.4400   35.7910   40.0430 C   0  0  0  0  0  0  0  0  0  0  0  0
   39.2610   35.1050   39.7300 F   0  0  0  0  0  0  0  0  0  0  0  0
   40.9010   36.2680   38.8120 F   0  0  0  0  0  0  0  0  0  0  0  0
   40.2080   36.7890   40.9370 F   0  0  0  0  0  0  0  0  0  0  0  0
   45.6000   32.1110   38.7420 C   0  0  0  0  0  0  0  0  0  0  0  0
   46.0590   31.1400   39.3270 O   0  0  0  0  0  0  0  0  0  0  0  0
   45.5920   33.4420   39.2080 N   0  0  0  0  0  0  0  0  0  0  0  0
   45.1510   34.2110   38.6140 H   0  0  0  0  0  0  0  0  0  0  0  0
   44.9800   31.8660   37.3900 C   0  0  0  0  0  3  0  0  0  0  0  0
   45.3260   30.4960   36.9400 C   0  0  0  0  0  3  0  0  0  0  0  0
   45.1340   29.7160   37.6930 H   0  0  0  0  0  0  0  0  0  0  0  0
   44.5190   30.2410   35.6620 C   0  0  0  0  0  3  0  0  0  0  0  0
   44.9200   29.4100   35.0670 H   0  0  0  0  0  0  0  0  0  0  0  0
   44.3660   31.4150   34.9450 O   0  0  0  0  0  0  0  0  0  0  0  0
   45.4590   32.2730   35.0470 C   0  0  0  0  0  3  0  0  0  0  0  0
   46.4230   31.7670   34.8530 H   0  0  0  0  0  0  0  0  0  0  0  0
   45.5650   32.8790   36.4280 C   0  0  0  0  0  3  0  0  0  0  0  0
   46.6120   33.0640   36.7510 H   0  0  0  0  0  0  0  0  0  0  0  0
  1  2  1  0  0  0  0
  2  3  2  0  0  0  0
  2  7  1  0  0  0  0
  3  8  1  0  0  0  0
  4  9  1  0  0  0  0
  4  3  1  0  0  0  0
  5  4  2  0  0  0  0
  6  5  1  0  0  0  0
  6  1  2  0  0  0  0
 10  5  1  0  0  0  0
 11 12  2  0  0  0  0
 11 16  1  0  0  0  0
 12 13  1  0  0  0  0
 13  1  1  0  0  0  0
 13 14  2  0  0  0  0
 15 14  1  0  0  0  0
 15 18  1  0  0  0  0
 16 15  2  0  0  0  0
 17 12  1  0  0  0  0
 19 11  1  0  0  0  0
 19 22  1  0  0  0  0
 20 19  1  0  0  0  0
 21 19  1  0  0  0  0
 23 25  1  0  0  0  0
 23 24  2  0  0  0  0
 25  6  1  0  0  0  0
 26 25  1  0  0  0  0
 27 23  1  0  0  0  0
 28 27  1  0  0  0  0
 28 29  1  0  0  0  0
 30 28  1  0  0  0  0
 31 30  1  0  0  0  0
 32 33  1  0  0  0  0
 32 30  1  0  0  0  0
 33 35  1  0  0  0  0
 34 33  1  0  0  0  0
 35 36  1  0  0  0  0
 35 27  1  0  0  0  0
M  END
>  <minimizedAffinity>
-5.99711704

>  <minimizedRMSD>
0.235852152

$$$$
