
 OpenBabel03252507463D

 38 40  0  0  0  0  0  0  0  0999 V2000
   47.1910   34.4120   40.8550 C   0  0  0  0  0  0  0  0  0  0  0  0
   46.6090   33.6110   40.3680 H   0  0  0  0  0  0  0  0  0  0  0  0
   47.3730   35.1940   40.0750 H   0  0  0  0  0  0  0  0  0  0  0  0
   48.5190   33.9410   41.2950 C   0  0  0  0  0  0  0  0  0  0  0  0
   48.9570   32.7320   40.7630 C   0  0  0  0  0  0  0  0  0  0  0  0
   50.1930   32.2300   41.1250 C   0  0  0  0  0  0  0  0  0  0  0  0
   50.9480   32.9470   42.0040 N   0  0  0  0  0  0  0  0  0  0  0  0
   50.4890   34.1210   42.5030 C   0  0  0  0  0  0  0  0  0  0  0  0
   49.3070   34.5830   42.1440 N   0  0  0  0  0  0  0  0  0  0  0  0
   50.5420   31.2790   40.7080 H   0  0  0  0  0  0  0  0  0  0  0  0
   51.1460   34.6370   43.1990 H   0  0  0  0  0  0  0  0  0  0  0  0
   47.9190   31.8260   39.6020 S   0  0  0  0  0  0  0  0  0  0  0  0
   46.7960   30.6900   40.4760 C   0  0  0  0  0  3  0  0  0  0  0  0
   46.9780   29.3180   39.8840 C   0  0  0  0  0  3  0  0  0  0  0  0
   47.4970   29.3830   38.9050 H   0  0  0  0  0  0  0  0  0  0  0  0
   45.6390   28.7000   39.6180 C   0  0  0  0  0  3  0  0  0  0  0  0
   45.2020   29.1900   38.7270 H   0  0  0  0  0  0  0  0  0  0  0  0
   44.8690   28.8970   40.7630 O   0  0  0  0  0  0  0  0  0  0  0  0
   44.4130   30.2010   40.8250 C   0  0  0  0  0  3  0  0  0  0  0  0
   44.2510   30.5030   41.8820 H   0  0  0  0  0  0  0  0  0  0  0  0
   45.3890   31.1770   40.2200 C   0  0  0  0  0  3  0  0  0  0  0  0
   45.3210   32.1750   40.7260 H   0  0  0  0  0  0  0  0  0  0  0  0
   46.3910   35.0200   41.9530 C   0  0  0  0  0  0  0  0  0  0  0  0
   46.5860   34.4480   42.8890 H   0  0  0  0  0  0  0  0  0  0  0  0
   46.7000   36.0600   42.1000 H   0  0  0  0  0  0  0  0  0  0  0  0
   44.9140   34.9620   41.7320 C   0  0  0  0  0  0  0  0  0  0  0  0
   44.0200   35.4600   42.7250 C   0  0  0  0  0  0  0  0  0  0  0  0
   42.3710   35.1590   41.9840 S   0  0  0  0  0  0  0  0  0  0  0  0
   43.1740   34.4020   40.4350 C   0  0  0  0  0  0  0  0  0  0  0  0
   44.2860   34.4860   40.6840 N   0  0  0  0  0  0  0  0  0  0  0  0
   44.2910   35.9000   43.6730 H   0  0  0  0  0  0  0  0  0  0  0  0
   42.4330   33.9180   39.3630 O   0  0  0  0  0  0  0  0  0  0  0  0
   40.4780   34.3230   37.6330 O   0  0  0  0  0  0  0  0  0  0  0  0
   41.5430   35.0400   38.4530 P   0  0  0  0  0  0  0  0  0  0  0  0
   40.8020   36.1130   39.5350 O   0  0  0  0  0  0  0  0  0  0  0  0
   40.1820   35.6390   40.1300 H   0  0  0  0  0  0  0  0  0  0  0  0
   42.5750   35.9270   37.4540 O   0  0  0  0  0  0  0  0  0  0  0  0
   42.2080   35.9110   36.5210 H   0  0  0  0  0  0  0  0  0  0  0  0
  1  4  1  0  0  0  0
  1 23  1  0  0  0  0
  2  1  1  0  0  0  0
  3  1  1  0  0  0  0
  4  9  1  0  0  0  0
  5  6  1  0  0  0  0
  5  4  2  0  0  0  0
  6  7  2  0  0  0  0
  7  8  1  0  0  0  0
  8 11  1  0  0  0  0
  9  8  2  0  0  0  0
 10  6  1  0  0  0  0
 12 13  1  0  0  0  0
 12  5  1  0  0  0  0
 14 13  1  0  0  0  0
 15 14  1  0  0  0  0
 16 14  1  0  0  0  0
 16 18  1  0  0  0  0
 17 16  1  0  0  0  0
 18 19  1  0  0  0  0
 19 20  1  0  0  0  0
 21 13  1  0  0  0  0
 21 22  1  0  0  0  0
 21 19  1  0  0  0  0
 23 25  1  0  0  0  0
 23 24  1  0  0  0  0
 26 23  1  0  0  0  0
 26 27  2  0  0  0  0
 27 31  1  0  0  0  0
 28 27  1  0  0  0  0
 29 30  2  0  0  0  0
 29 28  1  0  0  0  0
 30 26  1  0  0  0  0
 32 29  1  0  0  0  0
 33 34  2  0  0  0  0
 34 32  1  0  0  0  0
 34 35  1  0  0  0  0
 35 36  1  0  0  0  0
 37 34  1  0  0  0  0
 38 37  1  0  0  0  0
M  END
>  <minimizedAffinity>
-4.27677965

>  <minimizedRMSD>
0.157382488

$$$$
