
 OpenBabel03242515013D

 38 40  0  0  0  0  0  0  0  0999 V2000
   45.0690   34.5030   42.0760 C   0  0  0  0  0  0  0  0  0  0  0  0
   46.3950   34.4850   41.6280 C   0  0  0  0  0  0  0  0  0  0  0  0
   47.4060   34.2900   42.5770 C   0  0  0  0  0  0  0  0  0  0  0  0
   47.0400   34.1300   43.8680 N   0  0  0  0  0  0  0  0  0  0  0  0
   45.7550   34.1500   44.2790 C   0  0  0  0  0  0  0  0  0  0  0  0
   44.8030   34.3370   43.3720 N   0  0  0  0  0  0  0  0  0  0  0  0
   46.6180   34.6210   40.5750 H   0  0  0  0  0  0  0  0  0  0  0  0
   48.4510   34.2710   42.2590 H   0  0  0  0  0  0  0  0  0  0  0  0
   45.4870   33.9670   45.6910 C   0  0  0  0  0  0  0  0  0  0  0  0
   44.6250   34.7390   46.1940 O   0  0  0  0  0  0  0  0  0  0  0  0
   46.1820   32.9340   46.5110 C   0  0  0  0  0  0  0  0  0  0  0  0
   45.4640   32.8380   47.8520 C   0  0  0  0  0  0  0  0  0  0  0  0
   44.3840   32.7380   47.6800 H   0  0  0  0  0  0  0  0  0  0  0  0
   46.0320   31.7810   48.7320 C   0  0  0  0  0  0  0  0  0  0  0  0
   45.2740   31.6120   49.5510 H   0  0  0  0  0  0  0  0  0  0  0  0
   46.1720   30.5970   48.0520 O   0  0  0  0  0  0  0  0  0  0  0  0
   45.5540   30.5710   46.8130 C   0  0  0  0  0  0  0  0  0  0  0  0
   44.4720   30.7760   46.8300 H   0  0  0  0  0  0  0  0  0  0  0  0
   46.1700   31.5860   45.8640 C   0  0  0  0  0  0  0  0  0  0  0  0
   45.6010   31.5420   44.9130 H   0  0  0  0  0  0  0  0  0  0  0  0
   43.8090   34.7580   40.8190 S   0  0  0  0  0  0  0  0  0  0  0  0
   42.1620   34.8930   41.5100 C   0  0  0  0  0  0  0  0  0  0  0  0
   41.6710   33.9190   41.5310 H   0  0  0  0  0  0  0  0  0  0  0  0
   42.2620   35.2610   42.5690 H   0  0  0  0  0  0  0  0  0  0  0  0
   41.2970   35.8910   40.7990 C   0  0  0  0  0  0  0  0  0  0  0  0
   40.7390   36.5410   41.5240 H   0  0  0  0  0  0  0  0  0  0  0  0
   41.9630   36.5910   40.2320 H   0  0  0  0  0  0  0  0  0  0  0  0
   42.0580   36.1010   37.8450 Cl  0  0  0  0  0  0  0  0  0  0  0  0
   40.6710   35.2570   38.4410 C   0  0  0  0  0  0  0  0  0  0  0  0
   40.4090   35.2220   39.8280 C   0  0  0  0  0  0  0  0  0  0  0  0
   39.2850   34.5290   40.2160 C   0  0  0  0  0  0  0  0  0  0  0  0
   38.3830   33.8640   39.3910 C   0  0  0  0  0  0  0  0  0  0  0  0
   38.6610   33.9140   38.0400 C   0  0  0  0  0  0  0  0  0  0  0  0
   37.5770   33.1020   36.9160 Cl  0  0  0  0  0  0  0  0  0  0  0  0
   39.7810   34.5970   37.5850 C   0  0  0  0  0  0  0  0  0  0  0  0
   39.0840   34.5010   41.2790 H   0  0  0  0  0  0  0  0  0  0  0  0
   37.5360   33.3550   39.8110 H   0  0  0  0  0  0  0  0  0  0  0  0
   39.9580   34.6080   36.5100 H   0  0  0  0  0  0  0  0  0  0  0  0
  1  6  1  0  0  0  0
  2  1  2  0  0  0  0
  2  3  1  0  0  0  0
  3  4  2  0  0  0  0
  4  5  1  0  0  0  0
  5  9  1  0  0  0  0
  6  5  2  0  0  0  0
  7  2  1  0  0  0  0
  8  3  1  0  0  0  0
  9 10  2  0  0  0  0
  9 11  1  0  0  0  0
 11 12  1  0  0  0  0
 12 14  1  0  0  0  0
 13 12  1  0  0  0  0
 14 15  1  0  0  0  0
 16 14  1  0  0  0  0
 17 18  1  0  0  0  0
 17 16  1  0  0  0  0
 19 11  1  0  0  0  0
 19 17  1  0  0  0  0
 20 19  1  0  0  0  0
 21 22  1  0  0  0  0
 21  1  1  0  0  0  0
 22 23  1  0  0  0  0
 22 24  1  0  0  0  0
 25 22  1  0  0  0  0
 25 26  1  0  0  0  0
 27 25  1  0  0  0  0
 28 29  1  0  0  0  0
 29 30  1  0  0  0  0
 30 31  2  0  0  0  0
 30 25  1  0  0  0  0
 31 36  1  0  0  0  0
 32 37  1  0  0  0  0
 32 31  1  0  0  0  0
 33 32  2  0  0  0  0
 34 33  1  0  0  0  0
 35 33  1  0  0  0  0
 35 29  2  0  0  0  0
 38 35  1  0  0  0  0
M  END
>  <minimizedAffinity>
-6.86438179

>  <minimizedRMSD>
0.491852999

$$$$
