
 OpenBabel03242519353D

 41 43  0  0  0  0  0  0  0  0999 V2000
   37.4640   30.5550   40.7780 C   0  0  0  0  0  0  0  0  0  0  0  0
   38.0850   29.9380   39.7050 C   0  0  0  0  0  0  0  0  0  0  0  0
   38.3630   30.6520   38.5540 C   0  0  0  0  0  0  0  0  0  0  0  0
   37.9840   31.9730   38.5540 N   0  0  0  0  0  0  0  0  0  0  0  0
   37.3680   32.5600   39.6190 C   0  0  0  0  0  0  0  0  0  0  0  0
   37.1130   31.8620   40.7170 N   0  0  0  0  0  0  0  0  0  0  0  0
   36.9840   33.9300   39.4870 N   0  0  0  0  0  0  0  0  0  0  0  0
   39.8020   28.9280   37.9140 C   0  0  0  0  0  0  0  0  0  0  0  0
   39.8130   28.6180   39.1240 O   0  0  0  0  0  0  0  0  0  0  0  0
   39.0250   30.0640   37.4540 N   0  0  0  0  0  0  0  0  0  0  0  0
   38.2090   28.9000   39.9510 H   0  0  0  0  0  0  0  0  0  0  0  0
   37.4390   34.6950   40.0000 H   0  0  0  0  0  0  0  0  0  0  0  0
   36.1890   34.1010   38.8140 H   0  0  0  0  0  0  0  0  0  0  0  0
   38.9060   30.4540   36.5170 H   0  0  0  0  0  0  0  0  0  0  0  0
   37.2780   29.7570   42.0280 C   0  0  0  0  0  0  0  0  0  0  0  0
   38.5320   29.6890   42.8100 C   0  0  0  0  0  0  0  0  0  0  0  0
   39.1060   28.3020   42.7870 C   0  0  0  0  0  0  0  0  0  0  0  0
   38.1220   27.2790   43.3180 C   0  0  0  0  0  0  0  0  0  0  0  0
   36.7470   27.4420   42.7740 C   0  0  0  0  0  0  0  0  0  0  0  0
   36.6840   28.4420   41.6490 C   0  0  0  0  0  0  0  0  0  0  0  0
   36.5110   30.3470   42.6100 H   0  0  0  0  0  0  0  0  0  0  0  0
   39.3430   30.3600   42.4980 H   0  0  0  0  0  0  0  0  0  0  0  0
   38.3130   29.9050   43.8760 H   0  0  0  0  0  0  0  0  0  0  0  0
   40.0090   28.2850   43.4080 H   0  0  0  0  0  0  0  0  0  0  0  0
   39.3550   28.0590   41.7190 H   0  0  0  0  0  0  0  0  0  0  0  0
   38.5490   26.2780   43.2470 H   0  0  0  0  0  0  0  0  0  0  0  0
   38.0730   27.4910   44.4260 H   0  0  0  0  0  0  0  0  0  0  0  0
   36.4150   26.4650   42.3730 H   0  0  0  0  0  0  0  0  0  0  0  0
   35.9980   27.7460   43.5480 H   0  0  0  0  0  0  0  0  0  0  0  0
   35.6350   28.5760   41.3310 H   0  0  0  0  0  0  0  0  0  0  0  0
   37.2490   27.9850   40.8060 H   0  0  0  0  0  0  0  0  0  0  0  0
   40.5550   28.2200   36.7570 C   0  0  0  0  0  3  0  0  0  0  0  0
   41.8890   28.8700   36.5790 C   0  0  0  0  0  3  0  0  0  0  0  0
   41.9830   29.7860   37.1650 H   0  0  0  0  0  0  0  0  0  0  0  0
   42.9640   27.8460   36.9210 C   0  0  0  0  0  3  0  0  0  0  0  0
   43.9600   28.2640   36.6540 H   0  0  0  0  0  0  0  0  0  0  0  0
   42.7870   26.7420   36.0870 O   0  0  0  0  0  0  0  0  0  0  0  0
   41.6060   26.0680   36.3060 C   0  0  0  0  0  3  0  0  0  0  0  0
   41.8280   25.0490   36.6450 H   0  0  0  0  0  0  0  0  0  0  0  0
   40.6990   26.7870   37.2730 C   0  0  0  0  0  3  0  0  0  0  0  0
   39.6790   26.3360   37.2000 H   0  0  0  0  0  0  0  0  0  0  0  0
  1 15  1  0  0  0  0
  2 11  1  0  0  0  0
  2  1  2  0  0  0  0
  3  2  1  0  0  0  0
  4  3  2  0  0  0  0
  4  5  1  0  0  0  0
  5  6  2  0  0  0  0
  6  1  1  0  0  0  0
  7  5  1  0  0  0  0
  7 12  1  0  0  0  0
  8  9  2  0  0  0  0
 10  8  1  0  0  0  0
 10  3  1  0  0  0  0
 13  7  1  0  0  0  0
 14 10  1  0  0  0  0
 15 21  1  0  0  0  0
 15 16  1  0  0  0  0
 16 23  1  0  0  0  0
 17 16  1  0  0  0  0
 17 18  1  0  0  0  0
 17 24  1  0  0  0  0
 18 27  1  0  0  0  0
 19 18  1  0  0  0  0
 19 29  1  0  0  0  0
 20 15  1  0  0  0  0
 20 19  1  0  0  0  0
 22 16  1  0  0  0  0
 25 17  1  0  0  0  0
 26 18  1  0  0  0  0
 28 19  1  0  0  0  0
 30 20  1  0  0  0  0
 31 20  1  0  0  0  0
 32 40  1  0  0  0  0
 32  8  1  0  0  0  0
 33 32  1  0  0  0  0
 33 35  1  0  0  0  0
 33 34  1  0  0  0  0
 36 35  1  0  0  0  0
 37 38  1  0  0  0  0
 37 35  1  0  0  0  0
 38 39  1  0  0  0  0
 38 40  1  0  0  0  0
 41 40  1  0  0  0  0
M  END
>  <minimizedAffinity>
-5.85151339

$$$$

 OpenBabel03242519353D

 41 43  0  0  0  0  0  0  0  0999 V2000
   38.0710   28.3590   42.4610 C   0  0  0  0  0  0  0  0  0  0  0  0
   37.2560   28.7200   41.4030 C   0  0  0  0  0  0  0  0  0  0  0  0
   37.3910   29.9620   40.8090 C   0  0  0  0  0  0  0  0  0  0  0  0
   38.3590   30.7830   41.3360 N   0  0  0  0  0  0  0  0  0  0  0  0
   39.1480   30.4100   42.3830 C   0  0  0  0  0  0  0  0  0  0  0  0
   39.0080   29.2140   42.9370 N   0  0  0  0  0  0  0  0  0  0  0  0
   40.0920   31.3640   42.8710 N   0  0  0  0  0  0  0  0  0  0  0  0
   36.1260   29.1670   39.0140 C   0  0  0  0  0  0  0  0  0  0  0  0
   36.4430   28.0290   39.4200 O   0  0  0  0  0  0  0  0  0  0  0  0
   36.5990   30.3520   39.7060 N   0  0  0  0  0  0  0  0  0  0  0  0
   36.5560   27.9220   41.2410 H   0  0  0  0  0  0  0  0  0  0  0  0
   41.1080   31.2640   42.7530 H   0  0  0  0  0  0  0  0  0  0  0  0
   39.6660   32.1920   43.3670 H   0  0  0  0  0  0  0  0  0  0  0  0
   36.4420   31.3420   39.5130 H   0  0  0  0  0  0  0  0  0  0  0  0
   37.9430   26.9680   42.9970 C   0  0  0  0  0  0  0  0  0  0  0  0
   39.2650   26.4150   43.3670 C   0  0  0  0  0  0  0  0  0  0  0  0
   39.6700   25.3170   42.4270 C   0  0  0  0  0  0  0  0  0  0  0  0
   38.6440   24.2010   42.3920 C   0  0  0  0  0  0  0  0  0  0  0  0
   37.2430   24.6880   42.2860 C   0  0  0  0  0  0  0  0  0  0  0  0
   37.1630   26.1680   42.0090 C   0  0  0  0  0  0  0  0  0  0  0  0
   37.3210   27.0980   43.9310 H   0  0  0  0  0  0  0  0  0  0  0  0
   40.1040   27.1210   43.3910 H   0  0  0  0  0  0  0  0  0  0  0  0
   39.1970   25.9430   44.3690 H   0  0  0  0  0  0  0  0  0  0  0  0
   40.6310   24.9080   42.7580 H   0  0  0  0  0  0  0  0  0  0  0  0
   39.7630   25.7680   41.4030 H   0  0  0  0  0  0  0  0  0  0  0  0
   38.9430   23.4410   41.6700 H   0  0  0  0  0  0  0  0  0  0  0  0
   38.7490   23.6970   43.3970 H   0  0  0  0  0  0  0  0  0  0  0  0
   36.7570   24.1630   41.4410 H   0  0  0  0  0  0  0  0  0  0  0  0
   36.6290   24.4740   43.1960 H   0  0  0  0  0  0  0  0  0  0  0  0
   36.1070   26.4880   42.0090 H   0  0  0  0  0  0  0  0  0  0  0  0
   37.5700   26.3060   40.9830 H   0  0  0  0  0  0  0  0  0  0  0  0
   35.2370   29.5130   37.7910 C   0  0  0  0  0  3  0  0  0  0  0  0
   35.9310   29.0600   36.5470 C   0  0  0  0  0  3  0  0  0  0  0  0
   36.9590   28.7470   36.7380 H   0  0  0  0  0  0  0  0  0  0  0  0
   35.0940   27.9570   35.9120 C   0  0  0  0  0  3  0  0  0  0  0  0
   35.5160   27.7120   34.9120 H   0  0  0  0  0  0  0  0  0  0  0  0
   33.8220   28.4710   35.6630 O   0  0  0  0  0  0  0  0  0  0  0  0
   33.1250   28.8000   36.8060 C   0  0  0  0  0  3  0  0  0  0  0  0
   32.2280   28.1740   36.8740 H   0  0  0  0  0  0  0  0  0  0  0  0
   33.9700   28.6950   38.0500 C   0  0  0  0  0  3  0  0  0  0  0  0
   33.4380   29.2180   38.8820 H   0  0  0  0  0  0  0  0  0  0  0  0
  1  6  1  0  0  0  0
  1 15  1  0  0  0  0
  2  1  2  0  0  0  0
  3  4  2  0  0  0  0
  3  2  1  0  0  0  0
  4  5  1  0  0  0  0
  5  7  1  0  0  0  0
  5  6  2  0  0  0  0
  7 13  1  0  0  0  0
  8  9  2  0  0  0  0
  8 10  1  0  0  0  0
 10  3  1  0  0  0  0
 11  2  1  0  0  0  0
 12  7  1  0  0  0  0
 14 10  1  0  0  0  0
 15 16  1  0  0  0  0
 15 21  1  0  0  0  0
 16 22  1  0  0  0  0
 16 23  1  0  0  0  0
 17 24  1  0  0  0  0
 17 16  1  0  0  0  0
 18 17  1  0  0  0  0
 18 27  1  0  0  0  0
 19 18  1  0  0  0  0
 19 29  1  0  0  0  0
 20 30  1  0  0  0  0
 20 19  1  0  0  0  0
 20 15  1  0  0  0  0
 25 17  1  0  0  0  0
 26 18  1  0  0  0  0
 28 19  1  0  0  0  0
 31 20  1  0  0  0  0
 32 40  1  0  0  0  0
 32  8  1  0  0  0  0
 33 34  1  0  0  0  0
 33 32  1  0  0  0  0
 35 33  1  0  0  0  0
 36 35  1  0  0  0  0
 37 35  1  0  0  0  0
 37 38  1  0  0  0  0
 38 39  1  0  0  0  0
 38 40  1  0  0  0  0
 40 41  1  0  0  0  0
M  END
>  <minimizedAffinity>
-5.81702423

$$$$

 OpenBabel03242519353D

 41 43  0  0  0  0  0  0  0  0999 V2000
   37.0780   30.2570   40.9540 C   0  0  0  0  0  0  0  0  0  0  0  0
   37.1370   29.5250   39.7800 C   0  0  0  0  0  0  0  0  0  0  0  0
   37.1550   30.1690   38.5560 C   0  0  0  0  0  0  0  0  0  0  0  0
   37.1060   31.5420   38.5930 N   0  0  0  0  0  0  0  0  0  0  0  0
   37.0420   32.2440   39.7610 C   0  0  0  0  0  0  0  0  0  0  0  0
   37.0300   31.6100   40.9250 N   0  0  0  0  0  0  0  0  0  0  0  0
   36.9540   33.6660   39.6710 N   0  0  0  0  0  0  0  0  0  0  0  0
   37.8600   28.1640   37.5880 C   0  0  0  0  0  0  0  0  0  0  0  0
   38.2170   27.8450   38.7420 O   0  0  0  0  0  0  0  0  0  0  0  0
   37.2480   29.4560   37.3400 N   0  0  0  0  0  0  0  0  0  0  0  0
   37.1010   28.4840   40.0410 H   0  0  0  0  0  0  0  0  0  0  0  0
   37.7170   34.2970   39.9470 H   0  0  0  0  0  0  0  0  0  0  0  0
   36.0360   34.0280   39.2960 H   0  0  0  0  0  0  0  0  0  0  0  0
   36.9050   29.8750   36.4740 H   0  0  0  0  0  0  0  0  0  0  0  0
   37.1590   29.5080   42.2460 C   0  0  0  0  0  0  0  0  0  0  0  0
   38.5220   29.5760   42.8170 C   0  0  0  0  0  0  0  0  0  0  0  0
   39.1990   28.2380   42.7520 C   0  0  0  0  0  0  0  0  0  0  0  0
   38.4000   27.1680   43.4710 C   0  0  0  0  0  0  0  0  0  0  0  0
   36.9480   27.1990   43.1500 C   0  0  0  0  0  0  0  0  0  0  0  0
   36.6250   28.1350   42.0140 C   0  0  0  0  0  0  0  0  0  0  0  0
   36.4460   30.0650   42.9230 H   0  0  0  0  0  0  0  0  0  0  0  0
   39.2140   30.2910   42.3550 H   0  0  0  0  0  0  0  0  0  0  0  0
   38.4560   29.8260   43.8960 H   0  0  0  0  0  0  0  0  0  0  0  0
   40.1870   28.3210   43.2190 H   0  0  0  0  0  0  0  0  0  0  0  0
   39.2960   27.9630   41.6670 H   0  0  0  0  0  0  0  0  0  0  0  0
   38.8930   26.2020   43.3680 H   0  0  0  0  0  0  0  0  0  0  0  0
   38.5090   27.4300   44.5640 H   0  0  0  0  0  0  0  0  0  0  0  0
   36.6400   26.1800   42.8430 H   0  0  0  0  0  0  0  0  0  0  0  0
   36.3080   27.4810   44.0230 H   0  0  0  0  0  0  0  0  0  0  0  0
   35.5320   28.1720   41.8650 H   0  0  0  0  0  0  0  0  0  0  0  0
   37.0860   27.6830   41.1080 H   0  0  0  0  0  0  0  0  0  0  0  0
   37.9900   27.3140   36.2970 C   0  0  0  0  0  3  0  0  0  0  0  0
   39.2020   26.4480   36.4090 C   0  0  0  0  0  3  0  0  0  0  0  0
   39.8180   26.7090   37.2720 H   0  0  0  0  0  0  0  0  0  0  0  0
   38.7460   24.9950   36.4380 C   0  0  0  0  0  3  0  0  0  0  0  0
   39.6380   24.3340   36.3710 H   0  0  0  0  0  0  0  0  0  0  0  0
   38.0150   24.7510   35.2760 O   0  0  0  0  0  0  0  0  0  0  0  0
   36.8390   25.4670   35.2020 C   0  0  0  0  0  3  0  0  0  0  0  0
   35.9930   24.7710   35.1900 H   0  0  0  0  0  0  0  0  0  0  0  0
   36.7080   26.4800   36.3100 C   0  0  0  0  0  3  0  0  0  0  0  0
   35.8840   27.1880   36.0430 H   0  0  0  0  0  0  0  0  0  0  0  0
  1 15  1  0  0  0  0
  2 11  1  0  0  0  0
  2  1  2  0  0  0  0
  3  4  2  0  0  0  0
  3  2  1  0  0  0  0
  4  5  1  0  0  0  0
  5  6  2  0  0  0  0
  6  1  1  0  0  0  0
  7  5  1  0  0  0  0
  7 12  1  0  0  0  0
  8  9  2  0  0  0  0
 10  8  1  0  0  0  0
 10  3  1  0  0  0  0
 13  7  1  0  0  0  0
 14 10  1  0  0  0  0
 15 16  1  0  0  0  0
 15 21  1  0  0  0  0
 16 23  1  0  0  0  0
 17 16  1  0  0  0  0
 17 24  1  0  0  0  0
 17 18  1  0  0  0  0
 18 27  1  0  0  0  0
 19 18  1  0  0  0  0
 19 29  1  0  0  0  0
 20 15  1  0  0  0  0
 20 19  1  0  0  0  0
 22 16  1  0  0  0  0
 25 17  1  0  0  0  0
 26 18  1  0  0  0  0
 28 19  1  0  0  0  0
 30 20  1  0  0  0  0
 31 20  1  0  0  0  0
 32 40  1  0  0  0  0
 32 33  1  0  0  0  0
 32  8  1  0  0  0  0
 33 35  1  0  0  0  0
 33 34  1  0  0  0  0
 36 35  1  0  0  0  0
 37 35  1  0  0  0  0
 38 37  1  0  0  0  0
 38 40  1  0  0  0  0
 39 38  1  0  0  0  0
 41 40  1  0  0  0  0
M  END
>  <minimizedAffinity>
-5.81331301

$$$$

 OpenBabel03242519353D

 41 43  0  0  0  0  0  0  0  0999 V2000
   37.7470   30.9410   40.5940 C   0  0  0  0  0  0  0  0  0  0  0  0
   38.5230   29.9740   41.2090 C   0  0  0  0  0  0  0  0  0  0  0  0
   39.7180   30.3190   41.8140 C   0  0  0  0  0  0  0  0  0  0  0  0
   40.0660   31.6480   41.7550 N   0  0  0  0  0  0  0  0  0  0  0  0
   39.2900   32.5840   41.1380 C   0  0  0  0  0  0  0  0  0  0  0  0
   38.1450   32.2360   40.5670 N   0  0  0  0  0  0  0  0  0  0  0  0
   39.7750   33.9260   41.1050 N   0  0  0  0  0  0  0  0  0  0  0  0
   39.6900   28.2500   42.8960 C   0  0  0  0  0  0  0  0  0  0  0  0
   38.4650   28.2490   42.6530 O   0  0  0  0  0  0  0  0  0  0  0  0
   40.5200   29.3660   42.4800 N   0  0  0  0  0  0  0  0  0  0  0  0
   38.0490   29.0240   41.0520 H   0  0  0  0  0  0  0  0  0  0  0  0
   39.3510   34.6930   41.6420 H   0  0  0  0  0  0  0  0  0  0  0  0
   40.6130   34.0770   40.4810 H   0  0  0  0  0  0  0  0  0  0  0  0
   41.5210   29.5300   42.5960 H   0  0  0  0  0  0  0  0  0  0  0  0
   36.4210   30.5230   40.0430 C   0  0  0  0  0  0  0  0  0  0  0  0
   35.8450   29.4090   40.8280 C   0  0  0  0  0  0  0  0  0  0  0  0
   35.8440   28.1350   40.0330 C   0  0  0  0  0  0  0  0  0  0  0  0
   35.0810   28.2870   38.7310 C   0  0  0  0  0  0  0  0  0  0  0  0
   35.4120   29.5350   37.9930 C   0  0  0  0  0  0  0  0  0  0  0  0
   36.5930   30.2630   38.5850 C   0  0  0  0  0  0  0  0  0  0  0  0
   35.7760   31.4410   40.1740 H   0  0  0  0  0  0  0  0  0  0  0  0
   36.3350   29.1730   41.7800 H   0  0  0  0  0  0  0  0  0  0  0  0
   34.7790   29.6260   41.0470 H   0  0  0  0  0  0  0  0  0  0  0  0
   35.3750   27.3470   40.6320 H   0  0  0  0  0  0  0  0  0  0  0  0
   36.9140   27.8790   39.8080 H   0  0  0  0  0  0  0  0  0  0  0  0
   35.1360   27.3620   38.1560 H   0  0  0  0  0  0  0  0  0  0  0  0
   34.0010   28.3620   39.0500 H   0  0  0  0  0  0  0  0  0  0  0  0
   35.6740   29.2630   36.9520 H   0  0  0  0  0  0  0  0  0  0  0  0
   34.5580   30.2550   37.9340 H   0  0  0  0  0  0  0  0  0  0  0  0
   36.7510   31.2120   38.0440 H   0  0  0  0  0  0  0  0  0  0  0  0
   37.4740   29.6070   38.4040 H   0  0  0  0  0  0  0  0  0  0  0  0
   40.5030   27.1510   43.6290 C   0  0  0  0  0  3  0  0  0  0  0  0
   40.0360   25.8110   43.1610 C   0  0  0  0  0  3  0  0  0  0  0  0
   39.1340   25.8790   42.5490 H   0  0  0  0  0  0  0  0  0  0  0  0
   41.1880   25.1370   42.4270 C   0  0  0  0  0  3  0  0  0  0  0  0
   40.9070   24.0850   42.2010 H   0  0  0  0  0  0  0  0  0  0  0  0
   42.2670   25.0550   43.3060 O   0  0  0  0  0  0  0  0  0  0  0  0
   42.7790   26.2810   43.6700 C   0  0  0  0  0  3  0  0  0  0  0  0
   43.8140   26.3600   43.3190 H   0  0  0  0  0  0  0  0  0  0  0  0
   41.9370   27.4290   43.1750 C   0  0  0  0  0  3  0  0  0  0  0  0
   42.2510   28.3550   43.7180 H   0  0  0  0  0  0  0  0  0  0  0  0
  1  2  1  0  0  0  0
  2  3  2  0  0  0  0
  3 10  1  0  0  0  0
  4  3  1  0  0  0  0
  5  4  2  0  0  0  0
  6  1  2  0  0  0  0
  6  5  1  0  0  0  0
  7  5  1  0  0  0  0
  7 12  1  0  0  0  0
  8 32  1  0  0  0  0
  9  8  2  0  0  0  0
 10 14  1  0  0  0  0
 10  8  1  0  0  0  0
 11  2  1  0  0  0  0
 13  7  1  0  0  0  0
 15 21  1  0  0  0  0
 15  1  1  0  0  0  0
 15 16  1  0  0  0  0
 16 23  1  0  0  0  0
 16 22  1  0  0  0  0
 17 24  1  0  0  0  0
 17 16  1  0  0  0  0
 18 27  1  0  0  0  0
 18 17  1  0  0  0  0
 19 20  1  0  0  0  0
 19 18  1  0  0  0  0
 20 15  1  0  0  0  0
 25 17  1  0  0  0  0
 26 18  1  0  0  0  0
 28 19  1  0  0  0  0
 29 19  1  0  0  0  0
 30 20  1  0  0  0  0
 31 20  1  0  0  0  0
 33 32  1  0  0  0  0
 34 33  1  0  0  0  0
 35 33  1  0  0  0  0
 35 37  1  0  0  0  0
 36 35  1  0  0  0  0
 37 38  1  0  0  0  0
 39 38  1  0  0  0  0
 40 32  1  0  0  0  0
 40 38  1  0  0  0  0
 40 41  1  0  0  0  0
M  END
>  <minimizedAffinity>
-5.77112007

$$$$

 OpenBabel03242519353D

 41 43  0  0  0  0  0  0  0  0999 V2000
   39.5480   24.9300   42.2730 C   0  0  0  0  0  0  0  0  0  0  0  0
   39.2470   26.2770   42.3830 C   0  0  0  0  0  0  0  0  0  0  0  0
   40.1970   27.1690   42.8460 C   0  0  0  0  0  0  0  0  0  0  0  0
   41.4180   26.6340   43.1830 N   0  0  0  0  0  0  0  0  0  0  0  0
   41.6920   25.3020   43.0730 C   0  0  0  0  0  0  0  0  0  0  0  0
   40.7700   24.4620   42.6220 N   0  0  0  0  0  0  0  0  0  0  0  0
   42.9820   24.8570   43.4920 N   0  0  0  0  0  0  0  0  0  0  0  0
   38.8750   28.9050   42.0160 C   0  0  0  0  0  0  0  0  0  0  0  0
   38.3520   28.0310   41.2930 O   0  0  0  0  0  0  0  0  0  0  0  0
   39.9370   28.5540   42.9410 N   0  0  0  0  0  0  0  0  0  0  0  0
   38.2160   26.4050   42.1160 H   0  0  0  0  0  0  0  0  0  0  0  0
   43.7030   24.5210   42.8400 H   0  0  0  0  0  0  0  0  0  0  0  0
   43.1460   24.8990   44.5340 H   0  0  0  0  0  0  0  0  0  0  0  0
   40.4700   29.1320   43.5930 H   0  0  0  0  0  0  0  0  0  0  0  0
   38.5130   24.0320   41.6750 C   0  0  0  0  0  0  0  0  0  0  0  0
   38.8880   23.6250   40.3020 C   0  0  0  0  0  0  0  0  0  0  0  0
   37.9840   24.2620   39.2870 C   0  0  0  0  0  0  0  0  0  0  0  0
   36.5280   23.9190   39.5380 C   0  0  0  0  0  0  0  0  0  0  0  0
   36.1270   24.0490   40.9650 C   0  0  0  0  0  0  0  0  0  0  0  0
   37.1890   24.7070   41.8080 C   0  0  0  0  0  0  0  0  0  0  0  0
   38.5260   23.1240   42.3470 H   0  0  0  0  0  0  0  0  0  0  0  0
   39.9120   23.8540   39.9850 H   0  0  0  0  0  0  0  0  0  0  0  0
   38.7410   22.5310   40.1910 H   0  0  0  0  0  0  0  0  0  0  0  0
   38.2680   23.9060   38.2910 H   0  0  0  0  0  0  0  0  0  0  0  0
   38.1220   25.3740   39.3650 H   0  0  0  0  0  0  0  0  0  0  0  0
   35.8940   24.4310   38.8140 H   0  0  0  0  0  0  0  0  0  0  0  0
   36.4500   22.8260   39.2650 H   0  0  0  0  0  0  0  0  0  0  0  0
   35.2210   24.6830   41.0130 H   0  0  0  0  0  0  0  0  0  0  0  0
   35.8640   23.0720   41.4420 H   0  0  0  0  0  0  0  0  0  0  0  0
   36.8710   24.7150   42.8650 H   0  0  0  0  0  0  0  0  0  0  0  0
   37.2480   25.7600   41.4530 H   0  0  0  0  0  0  0  0  0  0  0  0
   38.5230   30.4150   42.0670 C   0  0  0  0  0  3  0  0  0  0  0  0
   39.7750   31.1950   42.3040 C   0  0  0  0  0  3  0  0  0  0  0  0
   40.6210   30.5520   42.5550 H   0  0  0  0  0  0  0  0  0  0  0  0
   40.0400   32.0520   41.0730 C   0  0  0  0  0  3  0  0  0  0  0  0
   40.8820   32.7470   41.2900 H   0  0  0  0  0  0  0  0  0  0  0  0
   38.9280   32.8680   40.8700 O   0  0  0  0  0  0  0  0  0  0  0  0
   37.7830   32.1710   40.5480 C   0  0  0  0  0  3  0  0  0  0  0  0
   37.4560   32.4580   39.5420 H   0  0  0  0  0  0  0  0  0  0  0  0
   37.9600   30.6790   40.6690 C   0  0  0  0  0  3  0  0  0  0  0  0
   36.9490   30.2030   40.6550 H   0  0  0  0  0  0  0  0  0  0  0  0
  1  2  2  0  0  0  0
  1  6  1  0  0  0  0
  2  3  1  0  0  0  0
  3 10  1  0  0  0  0
  3  4  2  0  0  0  0
  5  4  1  0  0  0  0
  5  7  1  0  0  0  0
  6  5  2  0  0  0  0
  7 13  1  0  0  0  0
  8 32  1  0  0  0  0
  8 10  1  0  0  0  0
  9  8  2  0  0  0  0
 10 14  1  0  0  0  0
 11  2  1  0  0  0  0
 12  7  1  0  0  0  0
 15 20  1  0  0  0  0
 15  1  1  0  0  0  0
 15 21  1  0  0  0  0
 16 15  1  0  0  0  0
 17 25  1  0  0  0  0
 17 18  1  0  0  0  0
 17 16  1  0  0  0  0
 18 19  1  0  0  0  0
 19 28  1  0  0  0  0
 19 29  1  0  0  0  0
 19 20  1  0  0  0  0
 20 30  1  0  0  0  0
 22 16  1  0  0  0  0
 23 16  1  0  0  0  0
 24 17  1  0  0  0  0
 26 18  1  0  0  0  0
 27 18  1  0  0  0  0
 31 20  1  0  0  0  0
 32 33  1  0  0  0  0
 33 34  1  0  0  0  0
 35 36  1  0  0  0  0
 35 33  1  0  0  0  0
 37 35  1  0  0  0  0
 38 40  1  0  0  0  0
 38 37  1  0  0  0  0
 39 38  1  0  0  0  0
 40 32  1  0  0  0  0
 41 40  1  0  0  0  0
M  END
>  <minimizedAffinity>
-5.76043415

$$$$

 OpenBabel03242519353D

 41 43  0  0  0  0  0  0  0  0999 V2000
   37.8780   28.1070   41.6190 C   0  0  0  0  0  0  0  0  0  0  0  0
   38.8870   28.4640   40.7410 C   0  0  0  0  0  0  0  0  0  0  0  0
   38.8330   29.6710   40.0680 C   0  0  0  0  0  0  0  0  0  0  0  0
   37.7360   30.4590   40.3240 N   0  0  0  0  0  0  0  0  0  0  0  0
   36.7490   30.0860   41.1890 C   0  0  0  0  0  0  0  0  0  0  0  0
   36.8210   28.9270   41.8290 N   0  0  0  0  0  0  0  0  0  0  0  0
   35.6380   30.9700   41.3440 N   0  0  0  0  0  0  0  0  0  0  0  0
   41.0920   29.4050   39.5450 C   0  0  0  0  0  0  0  0  0  0  0  0
   41.1210   28.6070   40.5050 O   0  0  0  0  0  0  0  0  0  0  0  0
   39.8590   30.0830   39.1900 N   0  0  0  0  0  0  0  0  0  0  0  0
   39.5780   27.6440   40.6850 H   0  0  0  0  0  0  0  0  0  0  0  0
   35.4600   31.5080   42.2010 H   0  0  0  0  0  0  0  0  0  0  0  0
   35.0040   31.0310   40.5020 H   0  0  0  0  0  0  0  0  0  0  0  0
   39.6600   30.7570   38.4490 H   0  0  0  0  0  0  0  0  0  0  0  0
   38.0420   26.8360   42.3890 C   0  0  0  0  0  0  0  0  0  0  0  0
   38.7250   27.0770   43.6790 C   0  0  0  0  0  0  0  0  0  0  0  0
   40.1060   26.4890   43.6750 C   0  0  0  0  0  0  0  0  0  0  0  0
   40.0820   25.0010   43.3850 C   0  0  0  0  0  0  0  0  0  0  0  0
   39.1960   24.6340   42.2470 C   0  0  0  0  0  0  0  0  0  0  0  0
   38.6940   25.8390   41.4920 C   0  0  0  0  0  0  0  0  0  0  0  0
   36.9810   26.5050   42.5880 H   0  0  0  0  0  0  0  0  0  0  0  0
   38.8410   28.1240   43.9860 H   0  0  0  0  0  0  0  0  0  0  0  0
   38.1780   26.5520   44.4890 H   0  0  0  0  0  0  0  0  0  0  0  0
   40.5610   26.6540   44.6580 H   0  0  0  0  0  0  0  0  0  0  0  0
   40.6930   27.0140   42.8740 H   0  0  0  0  0  0  0  0  0  0  0  0
   41.0990   24.6120   43.3440 H   0  0  0  0  0  0  0  0  0  0  0  0
   39.6380   24.5440   44.3170 H   0  0  0  0  0  0  0  0  0  0  0  0
   39.7790   24.0140   41.5400 H   0  0  0  0  0  0  0  0  0  0  0  0
   38.3090   24.0270   42.5550 H   0  0  0  0  0  0  0  0  0  0  0  0
   37.9900   25.5150   40.7060 H   0  0  0  0  0  0  0  0  0  0  0  0
   39.5890   26.2810   40.9980 H   0  0  0  0  0  0  0  0  0  0  0  0
   42.2710   29.7990   38.6160 C   0  0  0  0  0  3  0  0  0  0  0  0
   42.5570   28.6610   37.6900 C   0  0  0  0  0  3  0  0  0  0  0  0
   42.0100   27.7580   37.9650 H   0  0  0  0  0  0  0  0  0  0  0  0
   42.2520   29.1180   36.2690 C   0  0  0  0  0  3  0  0  0  0  0  0
   42.5970   28.3380   35.5560 H   0  0  0  0  0  0  0  0  0  0  0  0
   43.0340   30.2410   36.0020 O   0  0  0  0  0  0  0  0  0  0  0  0
   42.7160   31.3350   36.7770 C   0  0  0  0  0  3  0  0  0  0  0  0
   42.3580   32.1450   36.1310 H   0  0  0  0  0  0  0  0  0  0  0  0
   41.7170   31.0070   37.8580 C   0  0  0  0  0  3  0  0  0  0  0  0
   41.7080   31.8470   38.5950 H   0  0  0  0  0  0  0  0  0  0  0  0
  1  6  1  0  0  0  0
  1 15  1  0  0  0  0
  2  1  2  0  0  0  0
  3  4  2  0  0  0  0
  3  2  1  0  0  0  0
  4  5  1  0  0  0  0
  5  7  1  0  0  0  0
  5  6  2  0  0  0  0
  7 12  1  0  0  0  0
  8  9  2  0  0  0  0
 10  8  1  0  0  0  0
 10  3  1  0  0  0  0
 11  2  1  0  0  0  0
 13  7  1  0  0  0  0
 14 10  1  0  0  0  0
 15 21  1  0  0  0  0
 15 16  1  0  0  0  0
 16 22  1  0  0  0  0
 16 23  1  0  0  0  0
 17 16  1  0  0  0  0
 17 24  1  0  0  0  0
 18 17  1  0  0  0  0
 18 27  1  0  0  0  0
 19 29  1  0  0  0  0
 19 18  1  0  0  0  0
 20 19  1  0  0  0  0
 20 15  1  0  0  0  0
 25 17  1  0  0  0  0
 26 18  1  0  0  0  0
 28 19  1  0  0  0  0
 30 20  1  0  0  0  0
 31 20  1  0  0  0  0
 32  8  1  0  0  0  0
 33 34  1  0  0  0  0
 33 32  1  0  0  0  0
 35 33  1  0  0  0  0
 36 35  1  0  0  0  0
 37 35  1  0  0  0  0
 37 38  1  0  0  0  0
 38 40  1  0  0  0  0
 39 38  1  0  0  0  0
 40 41  1  0  0  0  0
 40 32  1  0  0  0  0
M  END
>  <minimizedAffinity>
-5.74509573

$$$$

 OpenBabel03242519353D

 41 43  0  0  0  0  0  0  0  0999 V2000
   36.9150   29.4470   40.2100 C   0  0  0  0  0  0  0  0  0  0  0  0
   37.9640   29.9490   39.4570 C   0  0  0  0  0  0  0  0  0  0  0  0
   37.8040   30.1800   38.1030 C   0  0  0  0  0  0  0  0  0  0  0  0
   36.5700   29.8780   37.5790 N   0  0  0  0  0  0  0  0  0  0  0  0
   35.5520   29.3790   38.3360 C   0  0  0  0  0  0  0  0  0  0  0  0
   35.7210   29.1680   39.6340 N   0  0  0  0  0  0  0  0  0  0  0  0
   34.3270   29.0650   37.6720 N   0  0  0  0  0  0  0  0  0  0  0  0
   39.7520   31.4660   38.1600 C   0  0  0  0  0  0  0  0  0  0  0  0
   39.5440   31.5500   39.3890 O   0  0  0  0  0  0  0  0  0  0  0  0
   38.8400   30.7220   37.3110 N   0  0  0  0  0  0  0  0  0  0  0  0
   38.8190   30.0320   40.1010 H   0  0  0  0  0  0  0  0  0  0  0  0
   33.4600   29.6010   37.8040 H   0  0  0  0  0  0  0  0  0  0  0  0
   34.3770   28.2330   37.0250 H   0  0  0  0  0  0  0  0  0  0  0  0
   38.8550   30.5550   36.3030 H   0  0  0  0  0  0  0  0  0  0  0  0
   37.1190   29.3110   41.6850 C   0  0  0  0  0  0  0  0  0  0  0  0
   38.5460   29.4740   42.0430 C   0  0  0  0  0  0  0  0  0  0  0  0
   39.1370   28.1720   42.5000 C   0  0  0  0  0  0  0  0  0  0  0  0
   38.3800   27.5940   43.6800 C   0  0  0  0  0  0  0  0  0  0  0  0
   36.9020   27.6350   43.5120 C   0  0  0  0  0  0  0  0  0  0  0  0
   36.4880   28.0310   42.1180 C   0  0  0  0  0  0  0  0  0  0  0  0
   36.5290   30.1710   42.1170 H   0  0  0  0  0  0  0  0  0  0  0  0
   39.2100   29.8510   41.2570 H   0  0  0  0  0  0  0  0  0  0  0  0
   38.6310   30.1620   42.9090 H   0  0  0  0  0  0  0  0  0  0  0  0
   40.1790   28.3430   42.7930 H   0  0  0  0  0  0  0  0  0  0  0  0
   39.0810   27.4560   41.6360 H   0  0  0  0  0  0  0  0  0  0  0  0
   38.8040   26.6300   43.9590 H   0  0  0  0  0  0  0  0  0  0  0  0
   38.6400   28.2810   44.5380 H   0  0  0  0  0  0  0  0  0  0  0  0
   36.5040   26.6200   43.7040 H   0  0  0  0  0  0  0  0  0  0  0  0
   36.3940   28.3230   44.2320 H   0  0  0  0  0  0  0  0  0  0  0  0
   35.3890   28.1130   42.0680 H   0  0  0  0  0  0  0  0  0  0  0  0
   36.8070   27.1930   41.4580 H   0  0  0  0  0  0  0  0  0  0  0  0
   40.9290   32.0870   37.3620 C   0  0  0  0  0  3  0  0  0  0  0  0
   41.4860   33.2350   38.1390 C   0  0  0  0  0  3  0  0  0  0  0  0
   40.8610   33.4960   38.9960 H   0  0  0  0  0  0  0  0  0  0  0  0
   42.9130   32.8860   38.5440 C   0  0  0  0  0  3  0  0  0  0  0  0
   43.3920   33.7840   38.9930 H   0  0  0  0  0  0  0  0  0  0  0  0
   43.6360   32.6200   37.3810 O   0  0  0  0  0  0  0  0  0  0  0  0
   43.2000   31.5020   36.7030 C   0  0  0  0  0  3  0  0  0  0  0  0
   44.0030   30.7560   36.6830 H   0  0  0  0  0  0  0  0  0  0  0  0
   41.9300   30.9330   37.2810 C   0  0  0  0  0  3  0  0  0  0  0  0
   41.5000   30.2120   36.5420 H   0  0  0  0  0  0  0  0  0  0  0  0
  1 15  1  0  0  0  0
  2 11  1  0  0  0  0
  2  1  2  0  0  0  0
  3  2  1  0  0  0  0
  4  3  2  0  0  0  0
  4  5  1  0  0  0  0
  5  6  2  0  0  0  0
  6  1  1  0  0  0  0
  7 12  1  0  0  0  0
  7  5  1  0  0  0  0
  8  9  2  0  0  0  0
 10  3  1  0  0  0  0
 10  8  1  0  0  0  0
 13  7  1  0  0  0  0
 14 10  1  0  0  0  0
 15 16  1  0  0  0  0
 15 21  1  0  0  0  0
 15 20  1  0  0  0  0
 16 17  1  0  0  0  0
 16 23  1  0  0  0  0
 17 24  1  0  0  0  0
 17 18  1  0  0  0  0
 18 26  1  0  0  0  0
 18 27  1  0  0  0  0
 19 18  1  0  0  0  0
 19 28  1  0  0  0  0
 19 29  1  0  0  0  0
 20 19  1  0  0  0  0
 22 16  1  0  0  0  0
 25 17  1  0  0  0  0
 30 20  1  0  0  0  0
 31 20  1  0  0  0  0
 32 33  1  0  0  0  0
 32  8  1  0  0  0  0
 33 35  1  0  0  0  0
 33 34  1  0  0  0  0
 35 36  1  0  0  0  0
 37 35  1  0  0  0  0
 38 40  1  0  0  0  0
 38 37  1  0  0  0  0
 39 38  1  0  0  0  0
 40 32  1  0  0  0  0
 41 40  1  0  0  0  0
M  END
>  <minimizedAffinity>
-5.62894726

$$$$

 OpenBabel03242519353D

 41 43  0  0  0  0  0  0  0  0999 V2000
   38.2610   30.8260   41.2210 C   0  0  0  0  0  0  0  0  0  0  0  0
   37.4150   30.2930   40.2640 C   0  0  0  0  0  0  0  0  0  0  0  0
   37.2400   30.9360   39.0510 C   0  0  0  0  0  0  0  0  0  0  0  0
   37.9410   32.1050   38.8780 N   0  0  0  0  0  0  0  0  0  0  0  0
   38.7660   32.6160   39.8370 C   0  0  0  0  0  0  0  0  0  0  0  0
   38.9250   31.9840   40.9920 N   0  0  0  0  0  0  0  0  0  0  0  0
   39.4100   33.8590   39.5590 N   0  0  0  0  0  0  0  0  0  0  0  0
   36.2860   28.9710   38.2240 C   0  0  0  0  0  0  0  0  0  0  0  0
   36.8770   28.4030   39.1670 O   0  0  0  0  0  0  0  0  0  0  0  0
   36.4100   30.4050   38.0390 N   0  0  0  0  0  0  0  0  0  0  0  0
   36.9540   29.4200   40.6830 H   0  0  0  0  0  0  0  0  0  0  0  0
   40.4200   33.9460   39.3900 H   0  0  0  0  0  0  0  0  0  0  0  0
   38.7660   34.6950   39.5370 H   0  0  0  0  0  0  0  0  0  0  0  0
   36.0050   31.0220   37.3330 H   0  0  0  0  0  0  0  0  0  0  0  0
   38.4830   30.0360   42.4710 C   0  0  0  0  0  0  0  0  0  0  0  0
   39.8180   29.3950   42.4670 C   0  0  0  0  0  0  0  0  0  0  0  0
   39.6980   27.9050   42.3240 C   0  0  0  0  0  0  0  0  0  0  0  0
   38.8490   27.3020   43.4250 C   0  0  0  0  0  0  0  0  0  0  0  0
   37.5890   28.0520   43.6800 C   0  0  0  0  0  0  0  0  0  0  0  0
   37.3260   29.1120   42.6400 C   0  0  0  0  0  0  0  0  0  0  0  0
   38.4490   30.8140   43.2890 H   0  0  0  0  0  0  0  0  0  0  0  0
   40.5170   29.7210   41.6880 H   0  0  0  0  0  0  0  0  0  0  0  0
   40.3090   29.5640   43.4470 H   0  0  0  0  0  0  0  0  0  0  0  0
   40.7010   27.4670   42.3650 H   0  0  0  0  0  0  0  0  0  0  0  0
   39.2170   27.7010   41.3300 H   0  0  0  0  0  0  0  0  0  0  0  0
   38.7430   26.2280   43.2700 H   0  0  0  0  0  0  0  0  0  0  0  0
   39.4880   27.3950   44.3510 H   0  0  0  0  0  0  0  0  0  0  0  0
   36.7470   27.3350   43.6480 H   0  0  0  0  0  0  0  0  0  0  0  0
   37.5610   28.5410   44.6850 H   0  0  0  0  0  0  0  0  0  0  0  0
   36.4210   29.6810   42.9140 H   0  0  0  0  0  0  0  0  0  0  0  0
   37.1200   28.5620   41.6940 H   0  0  0  0  0  0  0  0  0  0  0  0
   35.3790   28.3130   37.1520 C   0  0  0  0  0  3  0  0  0  0  0  0
   33.9830   28.2390   37.6810 C   0  0  0  0  0  3  0  0  0  0  0  0
   33.9280   28.4970   38.7400 H   0  0  0  0  0  0  0  0  0  0  0  0
   33.1010   29.1310   36.8170 C   0  0  0  0  0  3  0  0  0  0  0  0
   32.0370   28.9740   37.1020 H   0  0  0  0  0  0  0  0  0  0  0  0
   33.2020   28.6890   35.4980 O   0  0  0  0  0  0  0  0  0  0  0  0
   34.4600   28.8440   34.9580 C   0  0  0  0  0  3  0  0  0  0  0  0
   34.4080   29.5390   34.1130 H   0  0  0  0  0  0  0  0  0  0  0  0
   35.4770   29.2890   35.9780 C   0  0  0  0  0  3  0  0  0  0  0  0
   36.4980   29.1400   35.5460 H   0  0  0  0  0  0  0  0  0  0  0  0
  1 15  1  0  0  0  0
  2 11  1  0  0  0  0
  2  1  2  0  0  0  0
  3  2  1  0  0  0  0
  4  3  2  0  0  0  0
  4  5  1  0  0  0  0
  5  6  2  0  0  0  0
  6  1  1  0  0  0  0
  7  5  1  0  0  0  0
  8  9  2  0  0  0  0
 10  8  1  0  0  0  0
 10  3  1  0  0  0  0
 12  7  1  0  0  0  0
 13  7  1  0  0  0  0
 14 10  1  0  0  0  0
 15 20  1  0  0  0  0
 15 21  1  0  0  0  0
 16 15  1  0  0  0  0
 16 23  1  0  0  0  0
 17 24  1  0  0  0  0
 17 16  1  0  0  0  0
 17 18  1  0  0  0  0
 18 19  1  0  0  0  0
 18 27  1  0  0  0  0
 19 29  1  0  0  0  0
 20 30  1  0  0  0  0
 20 19  1  0  0  0  0
 22 16  1  0  0  0  0
 25 17  1  0  0  0  0
 26 18  1  0  0  0  0
 28 19  1  0  0  0  0
 31 20  1  0  0  0  0
 32 33  1  0  0  0  0
 32  8  1  0  0  0  0
 33 34  1  0  0  0  0
 35 36  1  0  0  0  0
 35 33  1  0  0  0  0
 37 35  1  0  0  0  0
 38 37  1  0  0  0  0
 38 40  1  0  0  0  0
 39 38  1  0  0  0  0
 40 32  1  0  0  0  0
 41 40  1  0  0  0  0
M  END
>  <minimizedAffinity>
-5.62571478

$$$$

 OpenBabel03242519353D

 41 43  0  0  0  0  0  0  0  0999 V2000
   34.0510   28.9010   36.6660 C   0  0  0  0  0  0  0  0  0  0  0  0
   34.6500   28.6440   37.8880 C   0  0  0  0  0  0  0  0  0  0  0  0
   36.0260   28.6960   38.0150 C   0  0  0  0  0  0  0  0  0  0  0  0
   36.7290   29.0050   36.8750 N   0  0  0  0  0  0  0  0  0  0  0  0
   36.1200   29.2480   35.6800 C   0  0  0  0  0  0  0  0  0  0  0  0
   34.7990   29.1990   35.5770 N   0  0  0  0  0  0  0  0  0  0  0  0
   36.9580   29.5180   34.5550 N   0  0  0  0  0  0  0  0  0  0  0  0
   35.7420   28.7560   40.3320 C   0  0  0  0  0  0  0  0  0  0  0  0
   34.5800   29.1410   40.0820 O   0  0  0  0  0  0  0  0  0  0  0  0
   36.6700   28.4730   39.2530 N   0  0  0  0  0  0  0  0  0  0  0  0
   33.8770   28.3720   38.5810 H   0  0  0  0  0  0  0  0  0  0  0  0
   37.0250   30.4420   34.1100 H   0  0  0  0  0  0  0  0  0  0  0  0
   37.5120   28.6890   34.2090 H   0  0  0  0  0  0  0  0  0  0  0  0
   37.6420   28.1580   39.2750 H   0  0  0  0  0  0  0  0  0  0  0  0
   32.5570   28.9250   36.6150 C   0  0  0  0  0  0  0  0  0  0  0  0
   32.0760   29.4680   35.3250 C   0  0  0  0  0  0  0  0  0  0  0  0
   31.4420   30.8160   35.5120 C   0  0  0  0  0  0  0  0  0  0  0  0
   30.2930   30.7630   36.5000 C   0  0  0  0  0  0  0  0  0  0  0  0
   30.6090   29.9960   37.7350 C   0  0  0  0  0  0  0  0  0  0  0  0
   32.0690   29.6320   37.8330 C   0  0  0  0  0  0  0  0  0  0  0  0
   32.2690   27.8360   36.6870 H   0  0  0  0  0  0  0  0  0  0  0  0
   32.8260   29.5910   34.5330 H   0  0  0  0  0  0  0  0  0  0  0  0
   31.2760   28.8120   34.9250 H   0  0  0  0  0  0  0  0  0  0  0  0
   31.0650   31.1640   34.5440 H   0  0  0  0  0  0  0  0  0  0  0  0
   32.2350   31.5090   35.9010 H   0  0  0  0  0  0  0  0  0  0  0  0
   29.8820   31.7610   36.6490 H   0  0  0  0  0  0  0  0  0  0  0  0
   29.4820   30.1990   35.9520 H   0  0  0  0  0  0  0  0  0  0  0  0
   30.3620   30.6290   38.6080 H   0  0  0  0  0  0  0  0  0  0  0  0
   30.0120   29.0560   37.8370 H   0  0  0  0  0  0  0  0  0  0  0  0
   32.2340   29.0080   38.7280 H   0  0  0  0  0  0  0  0  0  0  0  0
   32.6110   30.5940   37.9730 H   0  0  0  0  0  0  0  0  0  0  0  0
   36.3740   28.5250   41.7300 C   0  0  0  0  0  3  0  0  0  0  0  0
   36.9360   27.1420   41.7830 C   0  0  0  0  0  3  0  0  0  0  0  0
   36.6440   26.5440   40.9170 H   0  0  0  0  0  0  0  0  0  0  0  0
   38.4490   27.2500   41.9320 C   0  0  0  0  0  3  0  0  0  0  0  0
   38.8670   26.2360   42.1210 H   0  0  0  0  0  0  0  0  0  0  0  0
   38.7150   27.9840   43.0870 O   0  0  0  0  0  0  0  0  0  0  0  0
   38.2940   29.2940   43.0180 C   0  0  0  0  0  3  0  0  0  0  0  0
   39.1640   29.9580   43.0910 H   0  0  0  0  0  0  0  0  0  0  0  0
   37.4830   29.5780   41.7790 C   0  0  0  0  0  3  0  0  0  0  0  0
   36.9630   30.5580   41.9160 H   0  0  0  0  0  0  0  0  0  0  0  0
  1  2  1  0  0  0  0
  2  3  2  0  0  0  0
  2 11  1  0  0  0  0
  3 10  1  0  0  0  0
  4  3  1  0  0  0  0
  5  4  2  0  0  0  0
  6  5  1  0  0  0  0
  6  1  2  0  0  0  0
  7  5  1  0  0  0  0
  8 32  1  0  0  0  0
  9  8  2  0  0  0  0
 10 14  1  0  0  0  0
 10  8  1  0  0  0  0
 12  7  1  0  0  0  0
 13  7  1  0  0  0  0
 15  1  1  0  0  0  0
 15 21  1  0  0  0  0
 15 20  1  0  0  0  0
 16 17  1  0  0  0  0
 16 15  1  0  0  0  0
 17 25  1  0  0  0  0
 17 18  1  0  0  0  0
 18 26  1  0  0  0  0
 18 19  1  0  0  0  0
 19 20  1  0  0  0  0
 19 29  1  0  0  0  0
 19 28  1  0  0  0  0
 20 31  1  0  0  0  0
 20 30  1  0  0  0  0
 22 16  1  0  0  0  0
 23 16  1  0  0  0  0
 24 17  1  0  0  0  0
 27 18  1  0  0  0  0
 32 40  1  0  0  0  0
 32 33  1  0  0  0  0
 33 35  1  0  0  0  0
 34 33  1  0  0  0  0
 35 36  1  0  0  0  0
 35 37  1  0  0  0  0
 38 37  1  0  0  0  0
 38 39  1  0  0  0  0
 40 41  1  0  0  0  0
 40 38  1  0  0  0  0
M  END
>  <minimizedAffinity>
-5.61894369

$$$$
