
 OpenBabel03242514343D

 27 29  0  0  1  0  0  0  0  0999 V2000
   34.5560   29.2360   39.7010 O   0  0  0  0  0  0  0  0  0  0  0  0
   35.7760   29.5080   40.5010 P   0  0  1  0  0  0  0  0  0  0  0  0
   35.5300   30.9480   41.3380 O   0  0  0  0  0  0  0  0  0  0  0  0
   35.3490   30.7600   42.2920 H   0  0  0  0  0  0  0  0  0  0  0  0
   36.0910   28.2330   41.6090 O   0  0  0  0  0  0  0  0  0  0  0  0
   37.8280   26.7780   42.3590 C   0  0  0  0  0  0  0  0  0  0  0  0
   37.3680   28.0710   42.1550 C   0  0  0  0  0  0  0  0  0  0  0  0
   38.2030   29.1280   42.5060 C   0  0  0  0  0  0  0  0  0  0  0  0
   39.4210   28.8420   43.0280 N   0  0  0  0  0  0  0  0  0  0  0  0
   39.8360   27.5740   43.2140 C   0  0  0  0  0  0  0  0  0  0  0  0
   39.0470   26.5520   42.8810 N   0  0  0  0  0  0  0  0  0  0  0  0
   37.2210   25.9030   42.1050 H   0  0  0  0  0  0  0  0  0  0  0  0
   37.8270   30.1310   42.3410 H   0  0  0  0  0  0  0  0  0  0  0  0
   40.8110   27.3760   43.6300 H   0  0  0  0  0  0  0  0  0  0  0  0
   37.0700   29.6880   39.4580 O   0  0  0  0  0  0  0  0  0  0  0  0
   37.6570   30.8610   39.1160 C   0  0  1  0  0  3  0  0  0  0  0  0
   36.8030   31.6840   38.6470 O   0  0  0  0  0  0  0  0  0  0  0  0
   38.3740   32.1110   38.7710 C   0  0  0  0  0  0  0  0  0  0  0  0
   39.8510   32.0770   38.9390 C   0  0  0  0  0  3  0  0  0  0  0  0
   40.2000   33.0680   38.5200 H   0  0  0  0  0  0  0  0  0  0  0  0
   40.3520   32.0550   40.3460 C   0  0  0  0  0  3  0  0  0  0  0  0
   40.8400   31.0820   40.5360 H   0  0  0  0  0  0  0  0  0  0  0  0
   39.3570   32.3590   41.2700 O   0  0  0  0  0  0  0  0  0  0  0  0
   38.7220   33.5250   40.8270 C   0  0  0  0  0  3  0  0  0  0  0  0
   39.4950   34.2440   40.4980 H   0  0  0  0  0  0  0  0  0  0  0  0
   37.8090   33.1840   39.6840 C   0  0  0  0  0  3  0  0  0  0  0  0
   36.8320   32.8760   40.1440 H   0  0  0  0  0  0  0  0  0  0  0  0
  2  1  2  6  0  0  0
  2  3  1  0  0  0  0
  2  5  1  0  0  0  0
  3  4  1  0  0  0  0
  5  7  1  0  0  0  0
  6 11  1  0  0  0  0
  7  6  2  0  0  0  0
  7  8  1  0  0  0  0
  8  9  2  0  0  0  0
  9 10  1  0  0  0  0
 10 14  1  0  0  0  0
 11 10  2  0  0  0  0
 12  6  1  0  0  0  0
 13  8  1  0  0  0  0
 15  2  1  0  0  0  0
 16 15  1  1  0  0  0
 17 18  1  0  0  0  0
 17 16  1  0  0  0  0
 18 19  1  0  0  0  0
 18 16  1  0  0  0  0
 18 26  1  0  0  0  0
 19 21  1  0  0  0  0
 20 19  1  0  0  0  0
 21 22  1  0  0  0  0
 21 23  1  0  0  0  0
 24 23  1  0  0  0  0
 25 24  1  0  0  0  0
 26 27  1  0  0  0  0
 26 24  1  0  0  0  0
M  END
>  <minimizedAffinity>
-4.94436789

$$$$

 OpenBabel03242514343D

 27 29  0  0  1  0  0  0  0  0999 V2000
   37.1960   32.5850   40.4540 O   0  0  0  0  0  0  0  0  0  0  0  0
   36.9600   31.1210   40.4080 P   0  0  1  0  0  0  0  0  0  0  0  0
   35.4990   30.8120   41.1870 O   0  0  0  0  0  0  0  0  0  0  0  0
   34.7960   30.6100   40.5220 H   0  0  0  0  0  0  0  0  0  0  0  0
   36.8920   30.5510   38.7890 O   0  0  0  0  0  0  0  0  0  0  0  0
   35.1370   29.2700   37.8010 C   0  0  0  0  0  0  0  0  0  0  0  0
   36.3340   29.3020   38.5020 C   0  0  0  0  0  0  0  0  0  0  0  0
   36.9070   28.0900   38.8780 C   0  0  0  0  0  0  0  0  0  0  0  0
   36.2690   26.9430   38.5410 N   0  0  0  0  0  0  0  0  0  0  0  0
   35.1070   26.9480   37.8600 C   0  0  0  0  0  0  0  0  0  0  0  0
   34.5470   28.1010   37.4940 N   0  0  0  0  0  0  0  0  0  0  0  0
   34.6340   30.1870   37.4770 H   0  0  0  0  0  0  0  0  0  0  0  0
   37.8420   28.1340   39.4250 H   0  0  0  0  0  0  0  0  0  0  0  0
   34.6220   26.0200   37.6050 H   0  0  0  0  0  0  0  0  0  0  0  0
   38.1980   30.3550   41.2300 O   0  0  0  0  0  0  0  0  0  0  0  0
   38.0470   29.4540   42.2320 C   0  0  1  0  0  3  0  0  0  0  0  0
   38.7080   29.8010   43.2660 O   0  0  0  0  0  0  0  0  0  0  0  0
   37.8300   28.4240   43.2740 C   0  0  0  0  0  0  0  0  0  0  0  0
   38.9780   27.5160   43.5370 C   0  0  0  0  0  3  0  0  0  0  0  0
   38.6460   26.9000   44.4260 H   0  0  0  0  0  0  0  0  0  0  0  0
   39.2860   26.5190   42.4680 C   0  0  0  0  0  3  0  0  0  0  0  0
   40.2660   26.7640   42.0230 H   0  0  0  0  0  0  0  0  0  0  0  0
   38.2650   26.4160   41.5280 O   0  0  0  0  0  0  0  0  0  0  0  0
   37.0660   26.2610   42.2310 C   0  0  0  0  0  3  0  0  0  0  0  0
   37.2260   25.5310   43.0450 H   0  0  0  0  0  0  0  0  0  0  0  0
   36.6540   27.5890   42.8000 C   0  0  0  0  0  3  0  0  0  0  0  0
   36.0670   28.1070   41.9940 H   0  0  0  0  0  0  0  0  0  0  0  0
  2  1  2  6  0  0  0
  2  3  1  0  0  0  0
  2 15  1  0  0  0  0
  4  3  1  0  0  0  0
  5  2  1  0  0  0  0
  6  7  1  0  0  0  0
  7  5  1  0  0  0  0
  7  8  2  0  0  0  0
  8 13  1  0  0  0  0
  9  8  1  0  0  0  0
 10  9  2  0  0  0  0
 11  6  2  0  0  0  0
 11 10  1  0  0  0  0
 12  6  1  0  0  0  0
 14 10  1  0  0  0  0
 16 15  1  1  0  0  0
 16 17  1  0  0  0  0
 16 18  1  0  0  0  0
 17 18  1  0  0  0  0
 18 19  1  0  0  0  0
 19 20  1  0  0  0  0
 21 19  1  0  0  0  0
 22 21  1  0  0  0  0
 23 24  1  0  0  0  0
 23 21  1  0  0  0  0
 24 26  1  0  0  0  0
 24 25  1  0  0  0  0
 26 18  1  0  0  0  0
 27 26  1  0  0  0  0
M  END
>  <minimizedAffinity>
-4.79840708

$$$$

 OpenBabel03242514343D

 27 29  0  0  1  0  0  0  0  0999 V2000
   37.0250   27.9490   40.0240 O   0  0  0  0  0  0  0  0  0  0  0  0
   36.5090   28.5900   41.2580 P   0  0  1  0  0  0  0  0  0  0  0  0
   34.9280   29.0850   40.9560 O   0  0  0  0  0  0  0  0  0  0  0  0
   34.2900   28.4750   41.4040 H   0  0  0  0  0  0  0  0  0  0  0  0
   36.5380   27.5000   42.5860 O   0  0  0  0  0  0  0  0  0  0  0  0
   37.6370   25.4000   42.3030 C   0  0  0  0  0  0  0  0  0  0  0  0
   37.6550   26.6910   42.8120 C   0  0  0  0  0  0  0  0  0  0  0  0
   38.7820   27.1030   43.5180 C   0  0  0  0  0  0  0  0  0  0  0  0
   39.8030   26.2250   43.6720 N   0  0  0  0  0  0  0  0  0  0  0  0
   39.7530   24.9780   43.1640 C   0  0  0  0  0  0  0  0  0  0  0  0
   38.6800   24.5710   42.4860 N   0  0  0  0  0  0  0  0  0  0  0  0
   36.7820   25.0150   41.7390 H   0  0  0  0  0  0  0  0  0  0  0  0
   38.7780   28.1130   43.9090 H   0  0  0  0  0  0  0  0  0  0  0  0
   40.5810   24.3020   43.3010 H   0  0  0  0  0  0  0  0  0  0  0  0
   37.4520   29.9280   41.6000 O   0  0  0  0  0  0  0  0  0  0  0  0
   37.4150   31.1130   40.9430 C   0  0  1  0  0  3  0  0  0  0  0  0
   36.2180   31.4410   40.6500 O   0  0  0  0  0  0  0  0  0  0  0  0
   37.4620   32.4120   40.2330 C   0  0  0  0  0  0  0  0  0  0  0  0
   37.4010   32.3410   38.7480 C   0  0  0  0  0  3  0  0  0  0  0  0
   37.3350   33.4220   38.4220 H   0  0  0  0  0  0  0  0  0  0  0  0
   38.6170   31.8050   38.0660 C   0  0  0  0  0  3  0  0  0  0  0  0
   38.3640   30.8390   37.5930 H   0  0  0  0  0  0  0  0  0  0  0  0
   39.7150   31.7290   38.9180 O   0  0  0  0  0  0  0  0  0  0  0  0
   39.8270   32.9650   39.5620 C   0  0  0  0  0  3  0  0  0  0  0  0
   39.6850   33.7670   38.8140 H   0  0  0  0  0  0  0  0  0  0  0  0
   38.7750   33.0600   40.6310 C   0  0  0  0  0  3  0  0  0  0  0  0
   39.2180   32.5880   41.5490 H   0  0  0  0  0  0  0  0  0  0  0  0
  2  1  2  6  0  0  0
  2 15  1  0  0  0  0
  2  5  1  0  0  0  0
  3  2  1  0  0  0  0
  3  4  1  0  0  0  0
  5  7  1  0  0  0  0
  6 11  2  0  0  0  0
  6  7  1  0  0  0  0
  7  8  2  0  0  0  0
  8  9  1  0  0  0  0
  8 13  1  0  0  0  0
 10 14  1  0  0  0  0
 10  9  2  0  0  0  0
 11 10  1  0  0  0  0
 12  6  1  0  0  0  0
 16 15  1  1  0  0  0
 17 16  1  0  0  0  0
 18 26  1  0  0  0  0
 18 17  1  0  0  0  0
 18 16  1  0  0  0  0
 19 18  1  0  0  0  0
 20 19  1  0  0  0  0
 21 19  1  0  0  0  0
 21 23  1  0  0  0  0
 22 21  1  0  0  0  0
 23 24  1  0  0  0  0
 24 26  1  0  0  0  0
 25 24  1  0  0  0  0
 26 27  1  0  0  0  0
M  END
>  <minimizedAffinity>
-4.79096651

$$$$

 OpenBabel03242514343D

 27 29  0  0  1  0  0  0  0  0999 V2000
   37.0270   29.2100   40.1350 O   0  0  0  0  0  0  0  0  0  0  0  0
   37.0110   29.9680   41.4110 P   0  0  1  0  0  0  0  0  0  0  0  0
   35.6330   30.9360   41.4150 O   0  0  0  0  0  0  0  0  0  0  0  0
   34.9510   30.5520   42.0200 H   0  0  0  0  0  0  0  0  0  0  0  0
   36.9880   28.9100   42.7640 O   0  0  0  0  0  0  0  0  0  0  0  0
   37.2770   26.5700   42.3890 C   0  0  0  0  0  0  0  0  0  0  0  0
   37.8150   27.7840   42.7950 C   0  0  0  0  0  0  0  0  0  0  0  0
   39.1430   27.8060   43.2100 C   0  0  0  0  0  0  0  0  0  0  0  0
   39.8430   26.6450   43.1960 N   0  0  0  0  0  0  0  0  0  0  0  0
   39.2890   25.4850   42.7950 C   0  0  0  0  0  0  0  0  0  0  0  0
   38.0180   25.4490   42.3950 N   0  0  0  0  0  0  0  0  0  0  0  0
   36.2390   26.4840   42.0510 H   0  0  0  0  0  0  0  0  0  0  0  0
   39.5460   28.7610   43.5250 H   0  0  0  0  0  0  0  0  0  0  0  0
   39.8710   24.5770   42.7930 H   0  0  0  0  0  0  0  0  0  0  0  0
   38.3700   30.9390   41.4720 O   0  0  0  0  0  0  0  0  0  0  0  0
   38.6910   31.9110   40.5820 C   0  0  1  0  0  3  0  0  0  0  0  0
   37.7230   32.7240   40.4170 O   0  0  0  0  0  0  0  0  0  0  0  0
   39.1210   32.9360   39.6030 C   0  0  0  0  0  0  0  0  0  0  0  0
   40.1700   32.5100   38.6380 C   0  0  0  0  0  3  0  0  0  0  0  0
   40.2630   33.3850   37.9270 H   0  0  0  0  0  0  0  0  0  0  0  0
   41.5420   32.3200   39.1990 C   0  0  0  0  0  3  0  0  0  0  0  0
   41.8040   31.2480   39.1430 H   0  0  0  0  0  0  0  0  0  0  0  0
   41.6710   32.8510   40.4780 O   0  0  0  0  0  0  0  0  0  0  0  0
   41.1620   34.1540   40.4410 C   0  0  0  0  0  3  0  0  0  0  0  0
   41.5380   34.6530   39.5280 H   0  0  0  0  0  0  0  0  0  0  0  0
   39.6620   34.0960   40.4200 C   0  0  0  0  0  3  0  0  0  0  0  0
   39.3360   34.0440   41.4940 H   0  0  0  0  0  0  0  0  0  0  0  0
  2  1  2  6  0  0  0
  2  3  1  0  0  0  0
  2 15  1  0  0  0  0
  2  5  1  0  0  0  0
  3  4  1  0  0  0  0
  5  7  1  0  0  0  0
  6 11  2  0  0  0  0
  6  7  1  0  0  0  0
  7  8  2  0  0  0  0
  8 13  1  0  0  0  0
  9  8  1  0  0  0  0
 10  9  2  0  0  0  0
 11 10  1  0  0  0  0
 12  6  1  0  0  0  0
 14 10  1  0  0  0  0
 16 15  1  1  0  0  0
 17 16  1  0  0  0  0
 18 17  1  0  0  0  0
 18 26  1  0  0  0  0
 18 16  1  0  0  0  0
 19 21  1  0  0  0  0
 19 18  1  0  0  0  0
 20 19  1  0  0  0  0
 21 23  1  0  0  0  0
 22 21  1  0  0  0  0
 24 23  1  0  0  0  0
 25 24  1  0  0  0  0
 26 24  1  0  0  0  0
 26 27  1  0  0  0  0
M  END
>  <minimizedAffinity>
-4.68664646

$$$$

 OpenBabel03242514343D

 27 29  0  0  1  0  0  0  0  0999 V2000
   39.9320   31.6630   39.3670 O   0  0  0  0  0  0  0  0  0  0  0  0
   39.1990   31.2940   40.6030 P   0  0  1  0  0  0  0  0  0  0  0  0
   39.8800   32.1570   41.8790 O   0  0  0  0  0  0  0  0  0  0  0  0
   39.2820   32.9000   42.1440 H   0  0  0  0  0  0  0  0  0  0  0  0
   37.5270   31.6650   40.4710 O   0  0  0  0  0  0  0  0  0  0  0  0
   35.7820   30.0580   40.7320 C   0  0  0  0  0  0  0  0  0  0  0  0
   36.6430   30.7500   39.8930 C   0  0  0  0  0  0  0  0  0  0  0  0
   36.5770   30.4920   38.5270 C   0  0  0  0  0  0  0  0  0  0  0  0
   35.6760   29.5790   38.0860 N   0  0  0  0  0  0  0  0  0  0  0  0
   34.8540   28.9250   38.9290 C   0  0  0  0  0  0  0  0  0  0  0  0
   34.9070   29.1630   40.2400 N   0  0  0  0  0  0  0  0  0  0  0  0
   35.7830   30.2140   41.8160 H   0  0  0  0  0  0  0  0  0  0  0  0
   37.2570   31.0400   37.8860 H   0  0  0  0  0  0  0  0  0  0  0  0
   34.1470   28.2050   38.5500 H   0  0  0  0  0  0  0  0  0  0  0  0
   39.3990   29.6570   40.8740 O   0  0  0  0  0  0  0  0  0  0  0  0
   39.1560   29.0100   42.0410 C   0  0  1  0  0  3  0  0  0  0  0  0
   38.8450   29.8300   42.9660 O   0  0  0  0  0  0  0  0  0  0  0  0
   38.9070   28.2280   43.2750 C   0  0  0  0  0  0  0  0  0  0  0  0
   39.0860   26.7560   43.1550 C   0  0  0  0  0  3  0  0  0  0  0  0
   38.9630   26.3760   44.2140 H   0  0  0  0  0  0  0  0  0  0  0  0
   38.0500   26.0300   42.3610 C   0  0  0  0  0  3  0  0  0  0  0  0
   38.5200   25.6270   41.4460 H   0  0  0  0  0  0  0  0  0  0  0  0
   36.9310   26.8160   42.1040 O   0  0  0  0  0  0  0  0  0  0  0  0
   36.5340   27.3840   43.3190 C   0  0  0  0  0  3  0  0  0  0  0  0
   36.5700   26.6030   44.1020 H   0  0  0  0  0  0  0  0  0  0  0  0
   37.4670   28.5080   43.6650 C   0  0  0  0  0  3  0  0  0  0  0  0
   37.0610   29.4220   43.1530 H   0  0  0  0  0  0  0  0  0  0  0  0
  2  1  2  6  0  0  0
  2 15  1  0  0  0  0
  2  3  1  0  0  0  0
  3  4  1  0  0  0  0
  5  2  1  0  0  0  0
  6 12  1  0  0  0  0
  7  5  1  0  0  0  0
  7  6  2  0  0  0  0
  8  7  1  0  0  0  0
  9  8  2  0  0  0  0
  9 10  1  0  0  0  0
 10 11  2  0  0  0  0
 11  6  1  0  0  0  0
 13  8  1  0  0  0  0
 14 10  1  0  0  0  0
 16 15  1  6  0  0  0
 16 17  1  0  0  0  0
 16 18  1  0  0  0  0
 17 18  1  0  0  0  0
 18 26  1  0  0  0  0
 19 18  1  0  0  0  0
 19 20  1  0  0  0  0
 21 19  1  0  0  0  0
 22 21  1  0  0  0  0
 23 21  1  0  0  0  0
 23 24  1  0  0  0  0
 24 26  1  0  0  0  0
 24 25  1  0  0  0  0
 27 26  1  0  0  0  0
M  END
>  <minimizedAffinity>
-4.68660736

$$$$

 OpenBabel03242514343D

 27 29  0  0  1  0  0  0  0  0999 V2000
   37.8700   30.1200   42.1890 O   0  0  0  0  0  0  0  0  0  0  0  0
   36.8290   29.8940   41.1570 P   0  0  1  0  0  0  0  0  0  0  0  0
   35.6000   31.0170   41.4140 O   0  0  0  0  0  0  0  0  0  0  0  0
   35.6480   31.7330   40.7330 H   0  0  0  0  0  0  0  0  0  0  0  0
   37.4690   30.0790   39.5740 O   0  0  0  0  0  0  0  0  0  0  0  0
   39.8040   30.2330   39.0990 C   0  0  0  0  0  0  0  0  0  0  0  0
   38.5990   30.8730   39.3570 C   0  0  0  0  0  0  0  0  0  0  0  0
   38.5880   32.2640   39.3850 C   0  0  0  0  0  0  0  0  0  0  0  0
   39.7510   32.9230   39.1600 N   0  0  0  0  0  0  0  0  0  0  0  0
   40.9030   32.2700   38.9130 C   0  0  0  0  0  0  0  0  0  0  0  0
   40.9280   30.9380   38.8820 N   0  0  0  0  0  0  0  0  0  0  0  0
   39.8810   29.1420   39.0630 H   0  0  0  0  0  0  0  0  0  0  0  0
   37.6400   32.7470   39.5890 H   0  0  0  0  0  0  0  0  0  0  0  0
   41.8130   32.8210   38.7360 H   0  0  0  0  0  0  0  0  0  0  0  0
   36.2150   28.3500   41.3460 O   0  0  0  0  0  0  0  0  0  0  0  0
   36.8010   27.3430   42.0390 C   0  0  1  0  0  3  0  0  0  0  0  0
   36.3840   27.3100   43.2440 O   0  0  0  0  0  0  0  0  0  0  0  0
   37.4840   26.2210   42.7240 C   0  0  0  0  0  0  0  0  0  0  0  0
   38.9670   26.2010   42.6120 C   0  0  0  0  0  3  0  0  0  0  0  0
   39.2840   25.3500   43.2870 H   0  0  0  0  0  0  0  0  0  0  0  0
   39.5210   25.8560   41.2680 C   0  0  0  0  0  3  0  0  0  0  0  0
   40.0320   26.7440   40.8550 H   0  0  0  0  0  0  0  0  0  0  0  0
   38.5560   25.3300   40.4150 O   0  0  0  0  0  0  0  0  0  0  0  0
   37.8860   24.3220   41.1170 C   0  0  0  0  0  3  0  0  0  0  0  0
   38.6340   23.7080   41.6510 H   0  0  0  0  0  0  0  0  0  0  0  0
   36.9370   24.9520   42.0960 C   0  0  0  0  0  3  0  0  0  0  0  0
   35.9830   25.1370   41.5320 H   0  0  0  0  0  0  0  0  0  0  0  0
  2 15  1  0  0  0  0
  2  3  1  0  0  0  0
  2  1  2  1  0  0  0
  4  3  1  0  0  0  0
  5  2  1  0  0  0  0
  6  7  1  0  0  0  0
  7  8  2  0  0  0  0
  7  5  1  0  0  0  0
  8 13  1  0  0  0  0
  9  8  1  0  0  0  0
 10  9  2  0  0  0  0
 11 10  1  0  0  0  0
 11  6  2  0  0  0  0
 12  6  1  0  0  0  0
 14 10  1  0  0  0  0
 16 15  1  6  0  0  0
 16 18  1  0  0  0  0
 16 17  1  0  0  0  0
 18 17  1  0  0  0  0
 19 18  1  0  0  0  0
 19 20  1  0  0  0  0
 21 19  1  0  0  0  0
 22 21  1  0  0  0  0
 23 24  1  0  0  0  0
 23 21  1  0  0  0  0
 24 25  1  0  0  0  0
 24 26  1  0  0  0  0
 26 18  1  0  0  0  0
 27 26  1  0  0  0  0
M  END
>  <minimizedAffinity>
-4.68648863

$$$$

 OpenBabel03242514343D

 27 29  0  0  1  0  0  0  0  0999 V2000
   37.9960   30.8410   40.8700 O   0  0  0  0  0  0  0  0  0  0  0  0
   36.7740   30.2560   40.2650 P   0  0  1  0  0  0  0  0  0  0  0  0
   35.4540   30.7730   41.1740 O   0  0  0  0  0  0  0  0  0  0  0  0
   34.9590   31.4750   40.6840 H   0  0  0  0  0  0  0  0  0  0  0  0
   36.5890   30.7520   38.6300 O   0  0  0  0  0  0  0  0  0  0  0  0
   35.3900   29.2650   37.1980 C   0  0  0  0  0  0  0  0  0  0  0  0
   36.6030   29.8080   37.5990 C   0  0  0  0  0  0  0  0  0  0  0  0
   37.7590   29.3810   36.9530 C   0  0  0  0  0  0  0  0  0  0  0  0
   37.6430   28.4580   35.9660 N   0  0  0  0  0  0  0  0  0  0  0  0
   36.4490   27.9520   35.6020 C   0  0  0  0  0  0  0  0  0  0  0  0
   35.3340   28.3530   36.2130 N   0  0  0  0  0  0  0  0  0  0  0  0
   34.4450   29.5590   37.6660 H   0  0  0  0  0  0  0  0  0  0  0  0
   38.6970   29.8140   37.2790 H   0  0  0  0  0  0  0  0  0  0  0  0
   36.3860   27.2200   34.8130 H   0  0  0  0  0  0  0  0  0  0  0  0
   36.8830   28.5900   40.3450 O   0  0  0  0  0  0  0  0  0  0  0  0
   36.9450   27.8520   41.4810 C   0  0  1  0  0  3  0  0  0  0  0  0
   36.2370   28.3700   42.4050 O   0  0  0  0  0  0  0  0  0  0  0  0
   37.0660   26.9910   42.6790 C   0  0  0  0  0  0  0  0  0  0  0  0
   38.0850   27.4100   43.6790 C   0  0  0  0  0  3  0  0  0  0  0  0
   37.9320   26.6990   44.5450 H   0  0  0  0  0  0  0  0  0  0  0  0
   39.5120   27.2300   43.2770 C   0  0  0  0  0  3  0  0  0  0  0  0
   39.9800   28.2250   43.1690 H   0  0  0  0  0  0  0  0  0  0  0  0
   39.6500   26.4320   42.1450 O   0  0  0  0  0  0  0  0  0  0  0  0
   38.8860   25.2790   42.3550 C   0  0  0  0  0  3  0  0  0  0  0  0
   39.0660   24.9200   43.3860 H   0  0  0  0  0  0  0  0  0  0  0  0
   37.4330   25.6100   42.1680 C   0  0  0  0  0  3  0  0  0  0  0  0
   37.2250   25.4970   41.0700 H   0  0  0  0  0  0  0  0  0  0  0  0
  2 15  1  0  0  0  0
  2  1  2  1  0  0  0
  2  3  1  0  0  0  0
  4  3  1  0  0  0  0
  5  2  1  0  0  0  0
  6  7  1  0  0  0  0
  6 12  1  0  0  0  0
  7  5  1  0  0  0  0
  8 13  1  0  0  0  0
  8  7  2  0  0  0  0
  9  8  1  0  0  0  0
 10  9  2  0  0  0  0
 10 11  1  0  0  0  0
 11  6  2  0  0  0  0
 14 10  1  0  0  0  0
 16 15  1  6  0  0  0
 16 17  1  0  0  0  0
 16 18  1  0  0  0  0
 17 18  1  0  0  0  0
 18 19  1  0  0  0  0
 19 20  1  0  0  0  0
 21 19  1  0  0  0  0
 22 21  1  0  0  0  0
 23 24  1  0  0  0  0
 23 21  1  0  0  0  0
 24 25  1  0  0  0  0
 26 24  1  0  0  0  0
 26 18  1  0  0  0  0
 27 26  1  0  0  0  0
M  END
>  <minimizedAffinity>
-4.56227446

$$$$

 OpenBabel03242514343D

 27 29  0  0  1  0  0  0  0  0999 V2000
   36.8050   31.4080   38.5510 O   0  0  0  0  0  0  0  0  0  0  0  0
   37.2340   31.9040   39.8820 P   0  0  1  0  0  0  0  0  0  0  0  0
   36.8700   33.5470   39.9570 O   0  0  0  0  0  0  0  0  0  0  0  0
   36.0760   33.6920   40.5280 H   0  0  0  0  0  0  0  0  0  0  0  0
   36.4280   31.0670   41.1480 O   0  0  0  0  0  0  0  0  0  0  0  0
   36.2660   28.7020   40.8720 C   0  0  0  0  0  0  0  0  0  0  0  0
   36.8400   29.7850   41.5220 C   0  0  0  0  0  0  0  0  0  0  0  0
   37.7900   29.5310   42.5080 C   0  0  0  0  0  0  0  0  0  0  0  0
   38.1060   28.2420   42.7820 N   0  0  0  0  0  0  0  0  0  0  0  0
   37.5280   27.2130   42.1310 C   0  0  0  0  0  0  0  0  0  0  0  0
   36.6180   27.4420   41.1850 N   0  0  0  0  0  0  0  0  0  0  0  0
   35.5130   28.8330   40.0880 H   0  0  0  0  0  0  0  0  0  0  0  0
   38.2260   30.3890   43.0060 H   0  0  0  0  0  0  0  0  0  0  0  0
   37.8010   26.1980   42.3700 H   0  0  0  0  0  0  0  0  0  0  0  0
   38.8860   31.6950   40.0230 O   0  0  0  0  0  0  0  0  0  0  0  0
   39.8350   32.4160   39.3770 C   0  0  1  0  0  3  0  0  0  0  0  0
   39.8790   33.6140   39.8110 O   0  0  0  0  0  0  0  0  0  0  0  0
   40.8910   33.1320   38.6250 C   0  0  0  0  0  0  0  0  0  0  0  0
   41.2640   32.5430   37.3110 C   0  0  0  0  0  3  0  0  0  0  0  0
   41.9850   33.2920   36.8660 H   0  0  0  0  0  0  0  0  0  0  0  0
   42.0230   31.2570   37.3590 C   0  0  0  0  0  3  0  0  0  0  0  0
   41.3900   30.4540   36.9420 H   0  0  0  0  0  0  0  0  0  0  0  0
   42.5050   30.9710   38.6320 O   0  0  0  0  0  0  0  0  0  0  0  0
   43.1510   32.1220   39.1000 C   0  0  0  0  0  3  0  0  0  0  0  0
   43.7750   32.5320   38.2850 H   0  0  0  0  0  0  0  0  0  0  0  0
   42.1180   33.1290   39.5190 C   0  0  0  0  0  3  0  0  0  0  0  0
   41.8620   32.8890   40.5860 H   0  0  0  0  0  0  0  0  0  0  0  0
  2  1  2  6  0  0  0
  2  3  1  0  0  0  0
  2 15  1  0  0  0  0
  2  5  1  0  0  0  0
  3  4  1  0  0  0  0
  5  7  1  0  0  0  0
  6 11  2  0  0  0  0
  6  7  1  0  0  0  0
  7  8  2  0  0  0  0
  8  9  1  0  0  0  0
  8 13  1  0  0  0  0
 10 14  1  0  0  0  0
 10  9  2  0  0  0  0
 11 10  1  0  0  0  0
 12  6  1  0  0  0  0
 16 17  1  0  0  0  0
 16 15  1  1  0  0  0
 18 16  1  0  0  0  0
 18 26  1  0  0  0  0
 18 17  1  0  0  0  0
 19 21  1  0  0  0  0
 19 18  1  0  0  0  0
 20 19  1  0  0  0  0
 21 23  1  0  0  0  0
 22 21  1  0  0  0  0
 23 24  1  0  0  0  0
 24 26  1  0  0  0  0
 25 24  1  0  0  0  0
 26 27  1  0  0  0  0
M  END
>  <minimizedAffinity>
-4.49436855

$$$$

 OpenBabel03242514343D

 27 29  0  0  1  0  0  0  0  0999 V2000
   38.3480   28.9840   40.8630 O   0  0  0  0  0  0  0  0  0  0  0  0
   38.2860   29.2900   42.3130 P   0  0  1  0  0  0  0  0  0  0  0  0
   36.7000   29.7270   42.6770 O   0  0  0  0  0  0  0  0  0  0  0  0
   36.2450   28.9880   43.1520 H   0  0  0  0  0  0  0  0  0  0  0  0
   38.7500   27.9320   43.2580 O   0  0  0  0  0  0  0  0  0  0  0  0
   39.4630   25.7210   42.7050 C   0  0  0  0  0  0  0  0  0  0  0  0
   38.4280   26.6370   42.8390 C   0  0  0  0  0  0  0  0  0  0  0  0
   37.1350   26.2130   42.5490 C   0  0  0  0  0  0  0  0  0  0  0  0
   36.9500   24.9300   42.1510 N   0  0  0  0  0  0  0  0  0  0  0  0
   37.9780   24.0670   42.0310 C   0  0  0  0  0  0  0  0  0  0  0  0
   39.2210   24.4600   42.3060 N   0  0  0  0  0  0  0  0  0  0  0  0
   40.5020   25.9910   42.9170 H   0  0  0  0  0  0  0  0  0  0  0  0
   36.3400   26.9410   42.6580 H   0  0  0  0  0  0  0  0  0  0  0  0
   37.8010   23.0520   41.7140 H   0  0  0  0  0  0  0  0  0  0  0  0
   39.3020   30.5780   42.6320 O   0  0  0  0  0  0  0  0  0  0  0  0
   39.6220   31.5700   41.7640 C   0  0  1  0  0  3  0  0  0  0  0  0
   40.8830   31.6440   41.5940 O   0  0  0  0  0  0  0  0  0  0  0  0
   39.8860   32.6700   40.8080 C   0  0  0  0  0  0  0  0  0  0  0  0
   38.7670   33.6270   40.5970 C   0  0  0  0  0  3  0  0  0  0  0  0
   39.2110   34.4310   39.9370 H   0  0  0  0  0  0  0  0  0  0  0  0
   37.5920   33.1070   39.8360 C   0  0  0  0  0  3  0  0  0  0  0  0
   36.7210   33.0590   40.5130 H   0  0  0  0  0  0  0  0  0  0  0  0
   37.8620   31.8980   39.2020 O   0  0  0  0  0  0  0  0  0  0  0  0
   39.0670   32.0530   38.5060 C   0  0  0  0  0  3  0  0  0  0  0  0
   39.0500   33.0290   37.9870 H   0  0  0  0  0  0  0  0  0  0  0  0
   40.2080   32.0050   39.4820 C   0  0  0  0  0  3  0  0  0  0  0  0
   40.4670   30.9190   39.6070 H   0  0  0  0  0  0  0  0  0  0  0  0
  2  1  2  6  0  0  0
  2 15  1  0  0  0  0
  2  3  1  0  0  0  0
  2  5  1  0  0  0  0
  3  4  1  0  0  0  0
  6  7  1  0  0  0  0
  6 12  1  0  0  0  0
  7  5  1  0  0  0  0
  8 13  1  0  0  0  0
  8  7  2  0  0  0  0
  9  8  1  0  0  0  0
 10  9  2  0  0  0  0
 10 11  1  0  0  0  0
 11  6  2  0  0  0  0
 14 10  1  0  0  0  0
 16 15  1  6  0  0  0
 17 16  1  0  0  0  0
 18 17  1  0  0  0  0
 18 16  1  0  0  0  0
 19 18  1  0  0  0  0
 20 19  1  0  0  0  0
 21 22  1  0  0  0  0
 21 19  1  0  0  0  0
 23 21  1  0  0  0  0
 24 23  1  0  0  0  0
 24 26  1  0  0  0  0
 25 24  1  0  0  0  0
 26 27  1  0  0  0  0
 26 18  1  0  0  0  0
M  END
>  <minimizedAffinity>
-4.46495914

$$$$
