
 OpenBabel03242514333D

 27 29  0  0  1  0  0  0  0  0999 V2000
   49.5660   35.3670   42.7850 O   0  0  0  0  0  0  0  0  0  0  0  0
   48.9640   34.2680   41.9900 P   0  0  1  0  0  0  0  0  0  0  0  0
   50.2080   33.2340   41.5210 O   0  0  0  0  0  0  0  0  0  0  0  0
   50.1840   32.4080   42.0630 H   0  0  0  0  0  0  0  0  0  0  0  0
   47.7970   33.4020   42.9070 O   0  0  0  0  0  0  0  0  0  0  0  0
   46.2070   35.1830   42.9190 C   0  0  0  0  0  0  0  0  0  0  0  0
   46.7620   34.0810   43.5560 C   0  0  0  0  0  0  0  0  0  0  0  0
   46.2560   33.7200   44.8010 C   0  0  0  0  0  0  0  0  0  0  0  0
   45.2500   34.4590   45.3280 N   0  0  0  0  0  0  0  0  0  0  0  0
   44.7340   35.5230   44.6820 C   0  0  0  0  0  0  0  0  0  0  0  0
   45.2080   35.8800   43.4890 N   0  0  0  0  0  0  0  0  0  0  0  0
   46.5590   35.5190   41.9380 H   0  0  0  0  0  0  0  0  0  0  0  0
   46.7020   32.8590   45.2850 H   0  0  0  0  0  0  0  0  0  0  0  0
   43.9320   36.0920   45.1250 H   0  0  0  0  0  0  0  0  0  0  0  0
   48.2460   34.9240   40.6300 O   0  0  0  0  0  0  0  0  0  0  0  0
   47.7110   34.2230   39.5990 C   0  0  1  0  0  0  0  0  0  0  0  0
   46.5440   33.8000   39.8870 O   0  0  0  0  0  0  0  0  0  0  0  0
   47.2010   33.4740   38.4280 C   0  0  0  0  0  0  0  0  0  0  0  0
   47.4560   32.0090   38.4350 C   0  0  0  0  0  0  0  0  0  0  0  0
   46.8950   31.6260   37.5310 H   0  0  0  0  0  0  0  0  0  0  0  0
   48.8730   31.5870   38.2190 C   0  0  0  0  0  0  0  0  0  0  0  0
   49.2510   31.1210   39.1470 H   0  0  0  0  0  0  0  0  0  0  0  0
   49.6730   32.6290   37.7610 O   0  0  0  0  0  0  0  0  0  0  0  0
   49.0050   33.2250   36.6860 C   0  0  0  0  0  0  0  0  0  0  0  0
   48.6020   32.4270   36.0350 H   0  0  0  0  0  0  0  0  0  0  0  0
   47.8860   34.0760   37.2150 C   0  0  0  0  0  0  0  0  0  0  0  0
   48.3350   35.0810   37.4390 H   0  0  0  0  0  0  0  0  0  0  0  0
  2  1  2  1  0  0  0
  2  5  1  0  0  0  0
  3  2  1  0  0  0  0
  3  4  1  0  0  0  0
  5  7  1  0  0  0  0
  6 11  2  0  0  0  0
  6  7  1  0  0  0  0
  7  8  2  0  0  0  0
  8 13  1  0  0  0  0
  8  9  1  0  0  0  0
 10 14  1  0  0  0  0
 10  9  2  0  0  0  0
 11 10  1  0  0  0  0
 12  6  1  0  0  0  0
 15  2  1  0  0  0  0
 16 17  1  0  0  0  0
 16 15  1  6  0  0  0
 18 19  1  0  0  0  0
 18 16  1  0  0  0  0
 18 17  1  0  0  0  0
 20 19  1  0  0  0  0
 21 19  1  0  0  0  0
 21 22  1  0  0  0  0
 23 21  1  0  0  0  0
 24 26  1  0  0  0  0
 24 23  1  0  0  0  0
 25 24  1  0  0  0  0
 26 27  1  0  0  0  0
 26 18  1  0  0  0  0
M  END
>  <minimizedAffinity>
-4.55228996

>  <minimizedRMSD>
0.765836716

$$$$
