
 OpenBabel03242522483D

 42 45  0  0  0  0  0  0  0  0999 V2000
   37.1910   30.8620   40.9820 C   0  0  0  0  0  0  0  0  0  0  0  0
   38.5890   31.0270   41.1610 C   0  0  0  0  0  0  0  0  0  0  0  0
   39.2990   30.0610   41.9020 C   0  0  0  0  0  0  0  0  0  0  0  0
   38.5950   29.0160   42.4080 N   0  0  0  0  0  0  0  0  0  0  0  0
   37.2690   28.8790   42.2260 C   0  0  0  0  0  0  0  0  0  0  0  0
   36.5840   29.7950   41.5210 N   0  0  0  0  0  0  0  0  0  0  0  0
   36.4810   31.8190   40.2460 N   0  0  0  0  0  0  0  0  0  0  0  0
   40.3660   30.1560   42.0580 H   0  0  0  0  0  0  0  0  0  0  0  0
   36.9100   32.0430   39.3090 H   0  0  0  0  0  0  0  0  0  0  0  0
   35.6090   32.2050   40.7020 H   0  0  0  0  0  0  0  0  0  0  0  0
   39.3130   32.1520   40.6100 C   0  0  0  0  0  0  0  0  0  0  0  0
   39.2130   33.4810   40.9640 C   0  0  0  0  0  0  0  0  0  0  0  0
   39.9850   34.4370   40.3310 C   0  0  0  0  0  0  0  0  0  0  0  0
   40.8890   34.0960   39.3180 C   0  0  0  0  0  0  0  0  0  0  0  0
   41.5880   35.0880   38.7680 N   0  0  0  0  0  0  0  0  0  0  0  0
   42.4810   34.7760   37.7710 C   0  0  0  0  0  0  0  0  0  0  0  0
   42.5880   33.4560   37.4140 C   0  0  0  0  0  0  0  0  0  0  0  0
   41.8720   32.4250   37.9740 C   0  0  0  0  0  0  0  0  0  0  0  0
   40.9800   32.7520   38.9710 C   0  0  0  0  0  0  0  0  0  0  0  0
   40.2090   31.7930   39.6030 C   0  0  0  0  0  0  0  0  0  0  0  0
   38.5040   33.6910   41.7460 H   0  0  0  0  0  0  0  0  0  0  0  0
   39.8660   35.4740   40.6490 H   0  0  0  0  0  0  0  0  0  0  0  0
   43.0830   35.5050   37.2760 H   0  0  0  0  0  0  0  0  0  0  0  0
   43.2950   33.1980   36.6220 H   0  0  0  0  0  0  0  0  0  0  0  0
   41.9940   31.3970   37.6540 H   0  0  0  0  0  0  0  0  0  0  0  0
   40.3610   30.7940   39.2580 H   0  0  0  0  0  0  0  0  0  0  0  0
   36.5840   27.6880   42.8280 C   0  0  0  0  0  0  0  0  0  0  0  0
   35.6670   27.4250   42.2950 H   0  0  0  0  0  0  0  0  0  0  0  0
   36.3760   28.0100   43.8900 H   0  0  0  0  0  0  0  0  0  0  0  0
   37.5740   26.5290   42.8780 C   0  0  0  0  0  0  0  0  0  0  0  0
   38.5520   26.8280   42.5060 H   0  0  0  0  0  0  0  0  0  0  0  0
   37.6100   26.1890   43.9340 H   0  0  0  0  0  0  0  0  0  0  0  0
   36.9790   25.3920   42.0460 C   0  0  0  0  0  3  0  0  0  0  0  0
   36.9670   25.7780   40.5750 C   0  0  0  0  0  3  0  0  0  0  0  0
   36.0620   25.3690   40.0960 H   0  0  0  0  0  0  0  0  0  0  0  0
   38.1670   25.1630   39.8580 C   0  0  0  0  0  3  0  0  0  0  0  0
   38.3160   25.7410   38.9320 H   0  0  0  0  0  0  0  0  0  0  0  0
   39.3200   25.2730   40.6380 O   0  0  0  0  0  0  0  0  0  0  0  0
   39.2610   24.4470   41.7580 C   0  0  0  0  0  3  0  0  0  0  0  0
   39.7260   23.4780   41.5030 H   0  0  0  0  0  0  0  0  0  0  0  0
   37.8370   24.1530   42.1600 C   0  0  0  0  0  3  0  0  0  0  0  0
   37.8420   23.7220   43.1610 H   0  0  0  0  0  0  0  0  0  0  0  0
  1  2  2  0  0  0  0
  1  6  1  0  0  0  0
  2  3  1  0  0  0  0
  3  8  1  0  0  0  0
  3  4  2  0  0  0  0
  5  4  1  0  0  0  0
  5 27  1  0  0  0  0
  6  5  2  0  0  0  0
  7 10  1  0  0  0  0
  7  1  1  0  0  0  0
  9  7  1  0  0  0  0
 11 12  1  0  0  0  0
 11  2  1  0  0  0  0
 12 21  1  0  0  0  0
 13 22  1  0  0  0  0
 13 12  2  0  0  0  0
 14 13  1  0  0  0  0
 15 14  2  0  0  0  0
 16 15  1  0  0  0  0
 17 16  2  0  0  0  0
 17 18  1  0  0  0  0
 18 19  2  0  0  0  0
 19 14  1  0  0  0  0
 19 20  1  0  0  0  0
 20 11  2  0  0  0  0
 23 16  1  0  0  0  0
 24 17  1  0  0  0  0
 25 18  1  0  0  0  0
 26 20  1  0  0  0  0
 27 30  1  0  0  0  0
 27 29  1  0  0  0  0
 28 27  1  0  0  0  0
 30 32  1  0  0  0  0
 31 30  1  0  0  0  0
 33 41  1  0  0  0  0
 33 30  1  0  0  0  0
 34 33  1  0  0  0  0
 35 34  1  0  0  0  0
 36 34  1  0  0  0  0
 36 38  1  0  0  0  0
 37 36  1  0  0  0  0
 38 39  1  0  0  0  0
 39 41  1  0  0  0  0
 40 39  1  0  0  0  0
 41 42  1  0  0  0  0
M  END
>  <minimizedAffinity>
-6.29627848

$$$$

 OpenBabel03242522483D

 42 45  0  0  0  0  0  0  0  0999 V2000
   37.3860   28.0350   42.8020 C   0  0  0  0  0  0  0  0  0  0  0  0
   38.1780   28.4880   41.7150 C   0  0  0  0  0  0  0  0  0  0  0  0
   38.6020   27.5560   40.7460 C   0  0  0  0  0  0  0  0  0  0  0  0
   38.2210   26.2630   40.9110 N   0  0  0  0  0  0  0  0  0  0  0  0
   37.4700   25.8540   41.9500 C   0  0  0  0  0  0  0  0  0  0  0  0
   37.0610   26.7360   42.8780 N   0  0  0  0  0  0  0  0  0  0  0  0
   36.9620   28.9570   43.7660 N   0  0  0  0  0  0  0  0  0  0  0  0
   39.2070   27.8670   39.9040 H   0  0  0  0  0  0  0  0  0  0  0  0
   36.5090   29.8200   43.3650 H   0  0  0  0  0  0  0  0  0  0  0  0
   37.1400   28.6920   44.7750 H   0  0  0  0  0  0  0  0  0  0  0  0
   38.5680   29.8730   41.5660 C   0  0  0  0  0  0  0  0  0  0  0  0
   39.6570   30.5120   42.1190 C   0  0  0  0  0  0  0  0  0  0  0  0
   39.8860   31.8530   41.8720 C   0  0  0  0  0  0  0  0  0  0  0  0
   39.0290   32.6050   41.0590 C   0  0  0  0  0  0  0  0  0  0  0  0
   39.3320   33.8900   40.8800 N   0  0  0  0  0  0  0  0  0  0  0  0
   38.5050   34.6470   40.0860 C   0  0  0  0  0  0  0  0  0  0  0  0
   37.4190   34.0190   39.5310 C   0  0  0  0  0  0  0  0  0  0  0  0
   37.0970   32.6940   39.7090 C   0  0  0  0  0  0  0  0  0  0  0  0
   37.9340   31.9470   40.5080 C   0  0  0  0  0  0  0  0  0  0  0  0
   37.7040   30.6060   40.7530 C   0  0  0  0  0  0  0  0  0  0  0  0
   40.2840   29.8920   42.7360 H   0  0  0  0  0  0  0  0  0  0  0  0
   40.7620   32.3110   42.3340 H   0  0  0  0  0  0  0  0  0  0  0  0
   38.6710   35.6820   39.8880 H   0  0  0  0  0  0  0  0  0  0  0  0
   36.7550   34.6120   38.8990 H   0  0  0  0  0  0  0  0  0  0  0  0
   36.2250   32.2460   39.2460 H   0  0  0  0  0  0  0  0  0  0  0  0
   36.8360   30.2040   40.2780 H   0  0  0  0  0  0  0  0  0  0  0  0
   37.1050   24.4020   42.0410 C   0  0  0  0  0  0  0  0  0  0  0  0
   36.0410   24.2320   41.8640 H   0  0  0  0  0  0  0  0  0  0  0  0
   37.4070   24.1180   43.0910 H   0  0  0  0  0  0  0  0  0  0  0  0
   37.9840   23.6170   41.0740 C   0  0  0  0  0  0  0  0  0  0  0  0
   38.5880   24.2810   40.4590 H   0  0  0  0  0  0  0  0  0  0  0  0
   38.6030   22.9340   41.6920 H   0  0  0  0  0  0  0  0  0  0  0  0
   37.0540   22.7520   40.2210 C   0  0  0  0  0  3  0  0  0  0  0  0
   35.8040   23.5380   39.8570 C   0  0  0  0  0  3  0  0  0  0  0  0
   34.9340   22.8600   39.8490 H   0  0  0  0  0  0  0  0  0  0  0  0
   35.9330   24.1140   38.4500 C   0  0  0  0  0  3  0  0  0  0  0  0
   35.2070   24.9390   38.3750 H   0  0  0  0  0  0  0  0  0  0  0  0
   37.2140   24.6310   38.2420 O   0  0  0  0  0  0  0  0  0  0  0  0
   38.1690   23.6200   38.1750 C   0  0  0  0  0  3  0  0  0  0  0  0
   38.2960   23.3280   37.1170 H   0  0  0  0  0  0  0  0  0  0  0  0
   37.7260   22.3850   38.9180 C   0  0  0  0  0  3  0  0  0  0  0  0
   38.5890   21.7310   39.0470 H   0  0  0  0  0  0  0  0  0  0  0  0
  1  6  1  0  0  0  0
  1  7  1  0  0  0  0
  2  1  2  0  0  0  0
  3  4  2  0  0  0  0
  3  2  1  0  0  0  0
  4  5  1  0  0  0  0
  5 27  1  0  0  0  0
  5  6  2  0  0  0  0
  7 10  1  0  0  0  0
  8  3  1  0  0  0  0
  9  7  1  0  0  0  0
 11  2  1  0  0  0  0
 11 12  1  0  0  0  0
 12 21  1  0  0  0  0
 13 12  2  0  0  0  0
 13 22  1  0  0  0  0
 14 13  1  0  0  0  0
 15 14  1  0  0  0  0
 16 15  2  0  0  0  0
 17 18  2  0  0  0  0
 17 16  1  0  0  0  0
 18 19  1  0  0  0  0
 19 20  1  0  0  0  0
 19 14  2  0  0  0  0
 20 11  2  0  0  0  0
 23 16  1  0  0  0  0
 24 17  1  0  0  0  0
 25 18  1  0  0  0  0
 26 20  1  0  0  0  0
 27 29  1  0  0  0  0
 28 27  1  0  0  0  0
 30 32  1  0  0  0  0
 30 27  1  0  0  0  0
 31 30  1  0  0  0  0
 33 30  1  0  0  0  0
 34 33  1  0  0  0  0
 35 34  1  0  0  0  0
 36 34  1  0  0  0  0
 37 36  1  0  0  0  0
 38 36  1  0  0  0  0
 39 38  1  0  0  0  0
 39 41  1  0  0  0  0
 40 39  1  0  0  0  0
 41 42  1  0  0  0  0
 41 33  1  0  0  0  0
M  END
>  <minimizedAffinity>
-6.17858887

$$$$

 OpenBabel03242522483D

 42 45  0  0  0  0  0  0  0  0999 V2000
   37.1840   31.2930   41.0390 C   0  0  0  0  0  0  0  0  0  0  0  0
   38.1230   30.3080   41.4410 C   0  0  0  0  0  0  0  0  0  0  0  0
   39.4910   30.6430   41.4700 C   0  0  0  0  0  0  0  0  0  0  0  0
   39.8360   31.9050   41.1080 N   0  0  0  0  0  0  0  0  0  0  0  0
   38.9290   32.8250   40.7290 C   0  0  0  0  0  0  0  0  0  0  0  0
   37.6230   32.5130   40.6990 N   0  0  0  0  0  0  0  0  0  0  0  0
   35.8230   30.9650   41.0090 N   0  0  0  0  0  0  0  0  0  0  0  0
   40.2350   29.9150   41.7720 H   0  0  0  0  0  0  0  0  0  0  0  0
   35.4710   30.5160   41.8950 H   0  0  0  0  0  0  0  0  0  0  0  0
   35.3070   31.1990   40.1160 H   0  0  0  0  0  0  0  0  0  0  0  0
   37.7260   28.9700   41.8220 C   0  0  0  0  0  0  0  0  0  0  0  0
   37.3450   28.5200   43.0690 C   0  0  0  0  0  0  0  0  0  0  0  0
   36.9920   27.1980   43.2620 C   0  0  0  0  0  0  0  0  0  0  0  0
   37.0070   26.2740   42.2090 C   0  0  0  0  0  0  0  0  0  0  0  0
   36.6510   25.0220   42.4940 N   0  0  0  0  0  0  0  0  0  0  0  0
   36.6580   24.0990   41.4760 C   0  0  0  0  0  0  0  0  0  0  0  0
   37.0350   24.5380   40.2320 C   0  0  0  0  0  0  0  0  0  0  0  0
   37.4040   25.8270   39.9280 C   0  0  0  0  0  0  0  0  0  0  0  0
   37.3930   26.7410   40.9570 C   0  0  0  0  0  0  0  0  0  0  0  0
   37.7460   28.0640   40.7610 C   0  0  0  0  0  0  0  0  0  0  0  0
   37.3510   29.2680   43.8430 H   0  0  0  0  0  0  0  0  0  0  0  0
   36.7000   26.8930   44.2680 H   0  0  0  0  0  0  0  0  0  0  0  0
   36.3880   23.0760   41.6130 H   0  0  0  0  0  0  0  0  0  0  0  0
   37.0440   23.8120   39.4170 H   0  0  0  0  0  0  0  0  0  0  0  0
   37.6940   26.1220   38.9260 H   0  0  0  0  0  0  0  0  0  0  0  0
   38.0240   28.3120   39.7610 H   0  0  0  0  0  0  0  0  0  0  0  0
   39.4150   34.1910   40.3460 C   0  0  0  0  0  0  0  0  0  0  0  0
   39.8890   34.7100   41.1820 H   0  0  0  0  0  0  0  0  0  0  0  0
   38.4780   34.7190   40.0010 H   0  0  0  0  0  0  0  0  0  0  0  0
   40.3450   34.0600   39.1460 C   0  0  0  0  0  0  0  0  0  0  0  0
   40.7210   33.0440   39.0450 H   0  0  0  0  0  0  0  0  0  0  0  0
   39.7630   34.3850   38.2570 H   0  0  0  0  0  0  0  0  0  0  0  0
   41.4820   35.0630   39.3450 C   0  0  0  0  0  3  0  0  0  0  0  0
   41.8910   35.0980   40.8090 C   0  0  0  0  0  3  0  0  0  0  0  0
   42.1660   36.1290   41.0880 H   0  0  0  0  0  0  0  0  0  0  0  0
   43.1280   34.2310   41.0330 C   0  0  0  0  0  3  0  0  0  0  0  0
   43.1650   34.0000   42.1090 H   0  0  0  0  0  0  0  0  0  0  0  0
   43.0260   33.0310   40.3260 O   0  0  0  0  0  0  0  0  0  0  0  0
   43.1230   33.2360   38.9520 C   0  0  0  0  0  3  0  0  0  0  0  0
   44.1820   33.1280   38.6560 H   0  0  0  0  0  0  0  0  0  0  0  0
   42.7040   34.6330   38.5660 C   0  0  0  0  0  3  0  0  0  0  0  0
   42.5610   34.6650   37.4860 H   0  0  0  0  0  0  0  0  0  0  0  0
  1  2  1  0  0  0  0
  2  3  2  0  0  0  0
  2 11  1  0  0  0  0
  3  8  1  0  0  0  0
  4  3  1  0  0  0  0
  5  4  2  0  0  0  0
  6  5  1  0  0  0  0
  6  1  2  0  0  0  0
  7  1  1  0  0  0  0
  7  9  1  0  0  0  0
 10  7  1  0  0  0  0
 11 12  1  0  0  0  0
 12 13  2  0  0  0  0
 12 21  1  0  0  0  0
 13 22  1  0  0  0  0
 14 15  1  0  0  0  0
 14 13  1  0  0  0  0
 16 23  1  0  0  0  0
 16 15  2  0  0  0  0
 17 16  1  0  0  0  0
 18 17  2  0  0  0  0
 18 19  1  0  0  0  0
 19 14  2  0  0  0  0
 20 19  1  0  0  0  0
 20 11  2  0  0  0  0
 24 17  1  0  0  0  0
 25 18  1  0  0  0  0
 26 20  1  0  0  0  0
 27  5  1  0  0  0  0
 27 28  1  0  0  0  0
 29 27  1  0  0  0  0
 30 33  1  0  0  0  0
 30 27  1  0  0  0  0
 31 30  1  0  0  0  0
 32 30  1  0  0  0  0
 33 34  1  0  0  0  0
 34 36  1  0  0  0  0
 34 35  1  0  0  0  0
 36 37  1  0  0  0  0
 38 36  1  0  0  0  0
 39 38  1  0  0  0  0
 40 39  1  0  0  0  0
 41 39  1  0  0  0  0
 41 33  1  0  0  0  0
 42 41  1  0  0  0  0
M  END
>  <minimizedAffinity>
-6.16196918

$$$$

 OpenBabel03242522483D

 42 45  0  0  0  0  0  0  0  0999 V2000
   37.3070   28.2990   42.5170 C   0  0  0  0  0  0  0  0  0  0  0  0
   37.5590   28.7640   41.2000 C   0  0  0  0  0  0  0  0  0  0  0  0
   37.6320   27.8290   40.1490 C   0  0  0  0  0  0  0  0  0  0  0  0
   37.4540   26.5190   40.4620 N   0  0  0  0  0  0  0  0  0  0  0  0
   37.2170   26.0990   41.7180 C   0  0  0  0  0  0  0  0  0  0  0  0
   37.1450   26.9850   42.7260 N   0  0  0  0  0  0  0  0  0  0  0  0
   37.2330   29.2260   43.5640 N   0  0  0  0  0  0  0  0  0  0  0  0
   37.8220   28.1490   39.1330 H   0  0  0  0  0  0  0  0  0  0  0  0
   36.5890   30.0380   43.3730 H   0  0  0  0  0  0  0  0  0  0  0  0
   37.8210   29.0130   44.4170 H   0  0  0  0  0  0  0  0  0  0  0  0
   37.7440   30.1670   40.8970 C   0  0  0  0  0  0  0  0  0  0  0  0
   36.7850   31.0930   40.5430 C   0  0  0  0  0  0  0  0  0  0  0  0
   37.1350   32.4050   40.2860 C   0  0  0  0  0  0  0  0  0  0  0  0
   38.4630   32.8390   40.3730 C   0  0  0  0  0  0  0  0  0  0  0  0
   38.7020   34.1230   40.1060 N   0  0  0  0  0  0  0  0  0  0  0  0
   39.9980   34.5710   40.1860 C   0  0  0  0  0  0  0  0  0  0  0  0
   40.9590   33.6570   40.5380 C   0  0  0  0  0  0  0  0  0  0  0  0
   40.7240   32.3310   40.8150 C   0  0  0  0  0  0  0  0  0  0  0  0
   39.4200   31.8950   40.7310 C   0  0  0  0  0  0  0  0  0  0  0  0
   39.0720   30.5820   40.9900 C   0  0  0  0  0  0  0  0  0  0  0  0
   35.7800   30.7090   40.4890 H   0  0  0  0  0  0  0  0  0  0  0  0
   36.3380   33.0960   40.0090 H   0  0  0  0  0  0  0  0  0  0  0  0
   40.2810   35.5810   39.9900 H   0  0  0  0  0  0  0  0  0  0  0  0
   41.9920   34.0030   40.6040 H   0  0  0  0  0  0  0  0  0  0  0  0
   41.5210   31.6500   41.0890 H   0  0  0  0  0  0  0  0  0  0  0  0
   39.8860   29.9450   41.2560 H   0  0  0  0  0  0  0  0  0  0  0  0
   37.0370   24.6290   41.9580 C   0  0  0  0  0  0  0  0  0  0  0  0
   36.0620   24.2720   41.6190 H   0  0  0  0  0  0  0  0  0  0  0  0
   37.1570   24.5260   43.0760 H   0  0  0  0  0  0  0  0  0  0  0  0
   38.1880   23.8820   41.2940 C   0  0  0  0  0  0  0  0  0  0  0  0
   38.7480   24.5310   40.6250 H   0  0  0  0  0  0  0  0  0  0  0  0
   38.8170   23.4760   42.1150 H   0  0  0  0  0  0  0  0  0  0  0  0
   37.5820   22.6930   40.5470 C   0  0  0  0  0  3  0  0  0  0  0  0
   36.3660   23.1450   39.7530 C   0  0  0  0  0  3  0  0  0  0  0  0
   35.6040   22.3480   39.7640 H   0  0  0  0  0  0  0  0  0  0  0  0
   36.7450   23.3800   38.2930 C   0  0  0  0  0  3  0  0  0  0  0  0
   35.9660   24.0280   37.8610 H   0  0  0  0  0  0  0  0  0  0  0  0
   37.9720   24.0410   38.2010 O   0  0  0  0  0  0  0  0  0  0  0  0
   39.0260   23.2210   38.5930 C   0  0  0  0  0  3  0  0  0  0  0  0
   39.4230   22.7090   37.6980 H   0  0  0  0  0  0  0  0  0  0  0  0
   38.5700   22.1430   39.5440 C   0  0  0  0  0  3  0  0  0  0  0  0
   39.4500   21.6950   40.0070 H   0  0  0  0  0  0  0  0  0  0  0  0
  1  6  1  0  0  0  0
  1  7  1  0  0  0  0
  2  1  2  0  0  0  0
  3  4  2  0  0  0  0
  3  2  1  0  0  0  0
  4  5  1  0  0  0  0
  5 27  1  0  0  0  0
  5  6  2  0  0  0  0
  7 10  1  0  0  0  0
  8  3  1  0  0  0  0
  9  7  1  0  0  0  0
 11 20  1  0  0  0  0
 11  2  1  0  0  0  0
 12 11  2  0  0  0  0
 13 14  2  0  0  0  0
 13 12  1  0  0  0  0
 14 19  1  0  0  0  0
 15 16  2  0  0  0  0
 15 14  1  0  0  0  0
 16 17  1  0  0  0  0
 17 24  1  0  0  0  0
 17 18  2  0  0  0  0
 18 25  1  0  0  0  0
 19 18  1  0  0  0  0
 19 20  2  0  0  0  0
 20 26  1  0  0  0  0
 21 12  1  0  0  0  0
 22 13  1  0  0  0  0
 23 16  1  0  0  0  0
 27 29  1  0  0  0  0
 28 27  1  0  0  0  0
 30 27  1  0  0  0  0
 30 32  1  0  0  0  0
 31 30  1  0  0  0  0
 33 30  1  0  0  0  0
 34 35  1  0  0  0  0
 34 33  1  0  0  0  0
 36 34  1  0  0  0  0
 37 36  1  0  0  0  0
 38 36  1  0  0  0  0
 38 39  1  0  0  0  0
 39 41  1  0  0  0  0
 40 39  1  0  0  0  0
 41 42  1  0  0  0  0
 41 33  1  0  0  0  0
M  END
>  <minimizedAffinity>
-6.08325815

$$$$

 OpenBabel03242522483D

 42 45  0  0  0  0  0  0  0  0999 V2000
   36.4020   29.4260   41.3950 C   0  0  0  0  0  0  0  0  0  0  0  0
   36.3210   28.4260   40.3910 C   0  0  0  0  0  0  0  0  0  0  0  0
   36.9040   27.1670   40.6350 C   0  0  0  0  0  0  0  0  0  0  0  0
   37.5170   26.9810   41.8330 N   0  0  0  0  0  0  0  0  0  0  0  0
   37.5830   27.9430   42.7710 C   0  0  0  0  0  0  0  0  0  0  0  0
   37.0290   29.1470   42.5460 N   0  0  0  0  0  0  0  0  0  0  0  0
   35.8230   30.6780   41.1570 N   0  0  0  0  0  0  0  0  0  0  0  0
   36.8610   26.3810   39.8920 H   0  0  0  0  0  0  0  0  0  0  0  0
   34.8270   30.6320   40.8160 H   0  0  0  0  0  0  0  0  0  0  0  0
   36.4380   31.5190   41.3400 H   0  0  0  0  0  0  0  0  0  0  0  0
   35.6610   28.6530   39.1240 C   0  0  0  0  0  0  0  0  0  0  0  0
   34.3070   28.7260   38.8730 C   0  0  0  0  0  0  0  0  0  0  0  0
   33.8400   28.9520   37.5920 C   0  0  0  0  0  0  0  0  0  0  0  0
   34.7160   29.1130   36.5110 C   0  0  0  0  0  0  0  0  0  0  0  0
   34.1710   29.3260   35.3140 N   0  0  0  0  0  0  0  0  0  0  0  0
   35.0110   29.4880   34.2390 C   0  0  0  0  0  0  0  0  0  0  0  0
   36.3590   29.4180   34.4790 C   0  0  0  0  0  0  0  0  0  0  0  0
   36.9320   29.1980   35.7100 C   0  0  0  0  0  0  0  0  0  0  0  0
   36.0780   29.0380   36.7780 C   0  0  0  0  0  0  0  0  0  0  0  0
   36.5480   28.8120   38.0590 C   0  0  0  0  0  0  0  0  0  0  0  0
   33.6770   28.5950   39.7360 H   0  0  0  0  0  0  0  0  0  0  0  0
   32.7600   29.0000   37.4480 H   0  0  0  0  0  0  0  0  0  0  0  0
   34.6620   29.6630   33.2450 H   0  0  0  0  0  0  0  0  0  0  0  0
   37.0350   29.5450   33.6310 H   0  0  0  0  0  0  0  0  0  0  0  0
   38.0070   29.1510   35.8450 H   0  0  0  0  0  0  0  0  0  0  0  0
   37.6110   28.7740   38.1490 H   0  0  0  0  0  0  0  0  0  0  0  0
   38.2850   27.6370   44.0610 C   0  0  0  0  0  0  0  0  0  0  0  0
   37.5890   27.3420   44.8500 H   0  0  0  0  0  0  0  0  0  0  0  0
   38.8180   28.6010   44.3090 H   0  0  0  0  0  0  0  0  0  0  0  0
   39.3440   26.5730   43.7990 C   0  0  0  0  0  0  0  0  0  0  0  0
   39.3900   25.8510   44.6120 H   0  0  0  0  0  0  0  0  0  0  0  0
   39.0840   26.0990   42.8280 H   0  0  0  0  0  0  0  0  0  0  0  0
   40.6780   27.2980   43.6170 C   0  0  0  0  0  3  0  0  0  0  0  0
   41.7600   26.6040   44.4290 C   0  0  0  0  0  3  0  0  0  0  0  0
   42.4560   27.3580   44.8330 H   0  0  0  0  0  0  0  0  0  0  0  0
   42.5790   25.6770   43.5340 C   0  0  0  0  0  3  0  0  0  0  0  0
   43.0810   24.9550   44.1960 H   0  0  0  0  0  0  0  0  0  0  0  0
   41.7490   24.9730   42.6600 O   0  0  0  0  0  0  0  0  0  0  0  0
   41.1940   25.8100   41.6940 C   0  0  0  0  0  3  0  0  0  0  0  0
   41.8530   25.8060   40.8070 H   0  0  0  0  0  0  0  0  0  0  0  0
   41.1170   27.2380   42.1720 C   0  0  0  0  0  3  0  0  0  0  0  0
   40.4630   27.7930   41.4990 H   0  0  0  0  0  0  0  0  0  0  0  0
  1  6  1  0  0  0  0
  2  3  1  0  0  0  0
  2  1  2  0  0  0  0
  3  4  2  0  0  0  0
  4  5  1  0  0  0  0
  5 27  1  0  0  0  0
  6  5  2  0  0  0  0
  7 10  1  0  0  0  0
  7  1  1  0  0  0  0
  8  3  1  0  0  0  0
  9  7  1  0  0  0  0
 11  2  1  0  0  0  0
 12 11  1  0  0  0  0
 12 21  1  0  0  0  0
 13 12  2  0  0  0  0
 14 19  1  0  0  0  0
 14 13  1  0  0  0  0
 15 14  2  0  0  0  0
 16 17  2  0  0  0  0
 16 15  1  0  0  0  0
 17 18  1  0  0  0  0
 18 25  1  0  0  0  0
 18 19  2  0  0  0  0
 19 20  1  0  0  0  0
 20 26  1  0  0  0  0
 20 11  2  0  0  0  0
 22 13  1  0  0  0  0
 23 16  1  0  0  0  0
 24 17  1  0  0  0  0
 27 29  1  0  0  0  0
 27 28  1  0  0  0  0
 30 27  1  0  0  0  0
 30 31  1  0  0  0  0
 32 30  1  0  0  0  0
 33 30  1  0  0  0  0
 33 34  1  0  0  0  0
 34 35  1  0  0  0  0
 36 37  1  0  0  0  0
 36 34  1  0  0  0  0
 38 36  1  0  0  0  0
 39 41  1  0  0  0  0
 39 38  1  0  0  0  0
 40 39  1  0  0  0  0
 41 33  1  0  0  0  0
 42 41  1  0  0  0  0
M  END
>  <minimizedAffinity>
-6.02725363

$$$$

 OpenBabel03242522483D

 42 45  0  0  0  0  0  0  0  0999 V2000
   36.3310   29.6080   40.9020 C   0  0  0  0  0  0  0  0  0  0  0  0
   36.2220   28.5750   39.9360 C   0  0  0  0  0  0  0  0  0  0  0  0
   36.6790   27.2840   40.2650 C   0  0  0  0  0  0  0  0  0  0  0  0
   37.2040   27.1010   41.5040 N   0  0  0  0  0  0  0  0  0  0  0  0
   37.2990   28.0950   42.4060 C   0  0  0  0  0  0  0  0  0  0  0  0
   36.8650   29.3300   42.1000 N   0  0  0  0  0  0  0  0  0  0  0  0
   35.8770   30.8930   40.5800 N   0  0  0  0  0  0  0  0  0  0  0  0
   36.6110   26.4720   39.5520 H   0  0  0  0  0  0  0  0  0  0  0  0
   34.9010   30.9160   40.1810 H   0  0  0  0  0  0  0  0  0  0  0  0
   36.5510   31.6870   40.7670 H   0  0  0  0  0  0  0  0  0  0  0  0
   35.6570   28.8000   38.6230 C   0  0  0  0  0  0  0  0  0  0  0  0
   36.3260   28.9560   37.4270 C   0  0  0  0  0  0  0  0  0  0  0  0
   35.6270   29.1640   36.2530 C   0  0  0  0  0  0  0  0  0  0  0  0
   34.2280   29.2240   36.2330 C   0  0  0  0  0  0  0  0  0  0  0  0
   33.6450   29.4290   35.0530 N   0  0  0  0  0  0  0  0  0  0  0  0
   32.2730   29.4900   35.0100 C   0  0  0  0  0  0  0  0  0  0  0  0
   31.6000   29.3350   36.1940 C   0  0  0  0  0  0  0  0  0  0  0  0
   32.1910   29.1230   37.4180 C   0  0  0  0  0  0  0  0  0  0  0  0
   33.5670   29.0640   37.4460 C   0  0  0  0  0  0  0  0  0  0  0  0
   34.2640   28.8550   38.6220 C   0  0  0  0  0  0  0  0  0  0  0  0
   37.3990   28.9030   37.4960 H   0  0  0  0  0  0  0  0  0  0  0  0
   36.2050   29.2820   35.3350 H   0  0  0  0  0  0  0  0  0  0  0  0
   31.7230   29.6500   34.1090 H   0  0  0  0  0  0  0  0  0  0  0  0
   30.5090   29.3830   36.1710 H   0  0  0  0  0  0  0  0  0  0  0  0
   31.6110   29.0070   38.3260 H   0  0  0  0  0  0  0  0  0  0  0  0
   33.6550   28.7450   39.4920 H   0  0  0  0  0  0  0  0  0  0  0  0
   37.8970   27.7890   43.7470 C   0  0  0  0  0  0  0  0  0  0  0  0
   37.1400   27.5100   44.4830 H   0  0  0  0  0  0  0  0  0  0  0  0
   38.4220   28.7490   44.0290 H   0  0  0  0  0  0  0  0  0  0  0  0
   38.9580   26.7090   43.5730 C   0  0  0  0  0  0  0  0  0  0  0  0
   38.9770   26.0320   44.4250 H   0  0  0  0  0  0  0  0  0  0  0  0
   38.7250   26.1860   42.6220 H   0  0  0  0  0  0  0  0  0  0  0  0
   40.3000   27.4210   43.3910 C   0  0  0  0  0  3  0  0  0  0  0  0
   41.3270   26.8440   44.3540 C   0  0  0  0  0  3  0  0  0  0  0  0
   41.9920   27.6500   44.7060 H   0  0  0  0  0  0  0  0  0  0  0  0
   42.2050   25.8210   43.6380 C   0  0  0  0  0  3  0  0  0  0  0  0
   42.6630   25.1930   44.4180 H   0  0  0  0  0  0  0  0  0  0  0  0
   41.4370   25.0050   42.8050 O   0  0  0  0  0  0  0  0  0  0  0  0
   40.9470   25.7090   41.7080 C   0  0  0  0  0  3  0  0  0  0  0  0
   41.6650   25.6010   40.8740 H   0  0  0  0  0  0  0  0  0  0  0  0
   40.8350   27.1850   41.9980 C   0  0  0  0  0  3  0  0  0  0  0  0
   40.2280   27.6450   41.2180 H   0  0  0  0  0  0  0  0  0  0  0  0
  1  6  1  0  0  0  0
  2  3  1  0  0  0  0
  2  1  2  0  0  0  0
  3  4  2  0  0  0  0
  4  5  1  0  0  0  0
  5 27  1  0  0  0  0
  6  5  2  0  0  0  0
  7 10  1  0  0  0  0
  7  1  1  0  0  0  0
  8  3  1  0  0  0  0
  9  7  1  0  0  0  0
 11  2  1  0  0  0  0
 12 21  1  0  0  0  0
 12 11  2  0  0  0  0
 13 12  1  0  0  0  0
 14 13  2  0  0  0  0
 14 19  1  0  0  0  0
 15 14  1  0  0  0  0
 16 15  2  0  0  0  0
 16 17  1  0  0  0  0
 17 18  2  0  0  0  0
 18 19  1  0  0  0  0
 18 25  1  0  0  0  0
 19 20  2  0  0  0  0
 20 11  1  0  0  0  0
 20 26  1  0  0  0  0
 22 13  1  0  0  0  0
 23 16  1  0  0  0  0
 24 17  1  0  0  0  0
 27 29  1  0  0  0  0
 27 28  1  0  0  0  0
 30 27  1  0  0  0  0
 30 31  1  0  0  0  0
 32 30  1  0  0  0  0
 33 30  1  0  0  0  0
 33 34  1  0  0  0  0
 34 35  1  0  0  0  0
 36 34  1  0  0  0  0
 36 37  1  0  0  0  0
 38 36  1  0  0  0  0
 39 41  1  0  0  0  0
 39 38  1  0  0  0  0
 40 39  1  0  0  0  0
 41 33  1  0  0  0  0
 42 41  1  0  0  0  0
M  END
>  <minimizedAffinity>
-6.01567173

$$$$

 OpenBabel03242522483D

 42 45  0  0  0  0  0  0  0  0999 V2000
   39.6090   33.4130   40.3500 C   0  0  0  0  0  0  0  0  0  0  0  0
   39.4630   32.0850   39.8720 C   0  0  0  0  0  0  0  0  0  0  0  0
   40.2540   31.6630   38.7850 C   0  0  0  0  0  0  0  0  0  0  0  0
   41.1210   32.5620   38.2530 N   0  0  0  0  0  0  0  0  0  0  0  0
   41.2430   33.8170   38.7220 C   0  0  0  0  0  0  0  0  0  0  0  0
   40.4930   34.2280   39.7580 N   0  0  0  0  0  0  0  0  0  0  0  0
   38.8250   33.8380   41.4310 N   0  0  0  0  0  0  0  0  0  0  0  0
   40.1690   30.6560   38.3950 H   0  0  0  0  0  0  0  0  0  0  0  0
   38.8460   33.1850   42.2580 H   0  0  0  0  0  0  0  0  0  0  0  0
   38.3070   34.7510   41.3010 H   0  0  0  0  0  0  0  0  0  0  0  0
   38.5300   31.1490   40.4600 C   0  0  0  0  0  0  0  0  0  0  0  0
   37.1850   31.0080   40.1910 C   0  0  0  0  0  0  0  0  0  0  0  0
   36.4320   30.0530   40.8480 C   0  0  0  0  0  0  0  0  0  0  0  0
   37.0010   29.2010   41.8020 C   0  0  0  0  0  0  0  0  0  0  0  0
   36.1940   28.3130   42.3820 N   0  0  0  0  0  0  0  0  0  0  0  0
   36.7320   27.4660   43.3210 C   0  0  0  0  0  0  0  0  0  0  0  0
   38.0690   27.5980   43.5950 C   0  0  0  0  0  0  0  0  0  0  0  0
   38.9100   28.5110   43.0030 C   0  0  0  0  0  0  0  0  0  0  0  0
   38.3590   29.3530   42.0640 C   0  0  0  0  0  0  0  0  0  0  0  0
   39.1140   30.3080   41.4070 C   0  0  0  0  0  0  0  0  0  0  0  0
   36.7960   31.6870   39.4510 H   0  0  0  0  0  0  0  0  0  0  0  0
   35.3730   29.9850   40.5980 H   0  0  0  0  0  0  0  0  0  0  0  0
   36.1600   26.7250   43.8350 H   0  0  0  0  0  0  0  0  0  0  0  0
   38.5050   26.9300   44.3410 H   0  0  0  0  0  0  0  0  0  0  0  0
   39.9620   28.5740   43.2560 H   0  0  0  0  0  0  0  0  0  0  0  0
   40.1440   30.3360   41.6850 H   0  0  0  0  0  0  0  0  0  0  0  0
   42.2300   34.7340   38.0620 C   0  0  0  0  0  0  0  0  0  0  0  0
   42.5830   35.5170   38.7380 H   0  0  0  0  0  0  0  0  0  0  0  0
   41.6530   35.1610   37.1900 H   0  0  0  0  0  0  0  0  0  0  0  0
   43.3740   33.8980   37.5000 C   0  0  0  0  0  0  0  0  0  0  0  0
   43.0640   32.8690   37.3260 H   0  0  0  0  0  0  0  0  0  0  0  0
   43.7070   34.4020   36.5690 H   0  0  0  0  0  0  0  0  0  0  0  0
   44.5240   33.9750   38.5050 C   0  0  0  0  0  3  0  0  0  0  0  0
   44.4830   32.7730   39.4340 C   0  0  0  0  0  3  0  0  0  0  0  0
   44.7970   33.0800   40.4460 H   0  0  0  0  0  0  0  0  0  0  0  0
   45.4700   31.7080   38.9640 C   0  0  0  0  0  3  0  0  0  0  0  0
   45.1560   30.7560   39.4230 H   0  0  0  0  0  0  0  0  0  0  0  0
   45.4230   31.5670   37.5760 O   0  0  0  0  0  0  0  0  0  0  0  0
   45.9490   32.6830   36.9300 C   0  0  0  0  0  3  0  0  0  0  0  0
   47.0240   32.5060   36.7450 H   0  0  0  0  0  0  0  0  0  0  0  0
   45.8530   33.9200   37.7870 C   0  0  0  0  0  3  0  0  0  0  0  0
   46.0420   34.7910   37.1600 H   0  0  0  0  0  0  0  0  0  0  0  0
  1  7  1  0  0  0  0
  2  1  1  0  0  0  0
  2 11  1  0  0  0  0
  3  2  2  0  0  0  0
  4  5  2  0  0  0  0
  4  3  1  0  0  0  0
  5  6  1  0  0  0  0
  6  1  2  0  0  0  0
  7  9  1  0  0  0  0
  8  3  1  0  0  0  0
 10  7  1  0  0  0  0
 11 20  1  0  0  0  0
 12 11  2  0  0  0  0
 12 13  1  0  0  0  0
 13 14  2  0  0  0  0
 14 19  1  0  0  0  0
 14 15  1  0  0  0  0
 15 16  2  0  0  0  0
 16 17  1  0  0  0  0
 16 23  1  0  0  0  0
 17 24  1  0  0  0  0
 18 25  1  0  0  0  0
 18 17  2  0  0  0  0
 19 18  1  0  0  0  0
 20 26  1  0  0  0  0
 20 19  2  0  0  0  0
 21 12  1  0  0  0  0
 22 13  1  0  0  0  0
 27  5  1  0  0  0  0
 27 28  1  0  0  0  0
 29 27  1  0  0  0  0
 30 27  1  0  0  0  0
 30 33  1  0  0  0  0
 31 30  1  0  0  0  0
 32 30  1  0  0  0  0
 33 34  1  0  0  0  0
 34 35  1  0  0  0  0
 36 37  1  0  0  0  0
 36 34  1  0  0  0  0
 38 36  1  0  0  0  0
 39 38  1  0  0  0  0
 39 41  1  0  0  0  0
 40 39  1  0  0  0  0
 41 33  1  0  0  0  0
 42 41  1  0  0  0  0
M  END
>  <minimizedAffinity>
-5.84670305

$$$$

 OpenBabel03242522483D

 42 45  0  0  0  0  0  0  0  0999 V2000
   38.1760   32.9790   39.9370 C   0  0  0  0  0  0  0  0  0  0  0  0
   38.2730   31.5740   39.7650 C   0  0  0  0  0  0  0  0  0  0  0  0
   39.5360   30.9590   39.8830 C   0  0  0  0  0  0  0  0  0  0  0  0
   40.5990   31.7580   40.1580 N   0  0  0  0  0  0  0  0  0  0  0  0
   40.4840   33.0900   40.3170 C   0  0  0  0  0  0  0  0  0  0  0  0
   39.2840   33.6830   40.2060 N   0  0  0  0  0  0  0  0  0  0  0  0
   36.9230   33.5940   39.8210 N   0  0  0  0  0  0  0  0  0  0  0  0
   39.6460   29.8890   39.7580 H   0  0  0  0  0  0  0  0  0  0  0  0
   36.1670   33.1380   40.3970 H   0  0  0  0  0  0  0  0  0  0  0  0
   36.8720   34.4330   39.1800 H   0  0  0  0  0  0  0  0  0  0  0  0
   37.1220   30.7480   39.4730 C   0  0  0  0  0  0  0  0  0  0  0  0
   36.1750   30.2680   40.3540 C   0  0  0  0  0  0  0  0  0  0  0  0
   35.1290   29.4860   39.9040 C   0  0  0  0  0  0  0  0  0  0  0  0
   34.9910   29.1530   38.5510 C   0  0  0  0  0  0  0  0  0  0  0  0
   33.9490   28.3930   38.2140 N   0  0  0  0  0  0  0  0  0  0  0  0
   33.7950   28.0560   36.8910 C   0  0  0  0  0  0  0  0  0  0  0  0
   34.7310   28.5290   36.0080 C   0  0  0  0  0  0  0  0  0  0  0  0
   35.8090   29.3130   36.3440 C   0  0  0  0  0  0  0  0  0  0  0  0
   35.9530   29.6440   37.6740 C   0  0  0  0  0  0  0  0  0  0  0  0
   37.0010   30.4270   38.1210 C   0  0  0  0  0  0  0  0  0  0  0  0
   36.3260   30.5510   41.3820 H   0  0  0  0  0  0  0  0  0  0  0  0
   34.4080   29.1320   40.6430 H   0  0  0  0  0  0  0  0  0  0  0  0
   32.9910   27.4520   36.5330 H   0  0  0  0  0  0  0  0  0  0  0  0
   34.6170   28.2650   34.9550 H   0  0  0  0  0  0  0  0  0  0  0  0
   36.5210   29.6610   35.6050 H   0  0  0  0  0  0  0  0  0  0  0  0
   37.6780   30.7490   37.3610 H   0  0  0  0  0  0  0  0  0  0  0  0
   41.7220   33.8830   40.6160 C   0  0  0  0  0  0  0  0  0  0  0  0
   41.8820   34.0080   41.6900 H   0  0  0  0  0  0  0  0  0  0  0  0
   41.5360   34.8700   40.1010 H   0  0  0  0  0  0  0  0  0  0  0  0
   42.9080   33.2150   39.9310 C   0  0  0  0  0  0  0  0  0  0  0  0
   43.7070   33.0040   40.6380 H   0  0  0  0  0  0  0  0  0  0  0  0
   42.5170   32.2940   39.4480 H   0  0  0  0  0  0  0  0  0  0  0  0
   43.3750   34.1560   38.8190 C   0  0  0  0  0  3  0  0  0  0  0  0
   44.8510   33.9250   38.5320 C   0  0  0  0  0  3  0  0  0  0  0  0
   45.3310   34.8870   38.2880 H   0  0  0  0  0  0  0  0  0  0  0  0
   45.0160   33.0220   37.3130 C   0  0  0  0  0  3  0  0  0  0  0  0
   46.0330   32.6020   37.3620 H   0  0  0  0  0  0  0  0  0  0  0  0
   44.1000   31.9680   37.3490 O   0  0  0  0  0  0  0  0  0  0  0  0
   42.7980   32.4150   37.1410 C   0  0  0  0  0  3  0  0  0  0  0  0
   42.5750   32.3520   36.0600 H   0  0  0  0  0  0  0  0  0  0  0  0
   42.6350   33.8620   37.5350 C   0  0  0  0  0  3  0  0  0  0  0  0
   41.5690   34.0870   37.5890 H   0  0  0  0  0  0  0  0  0  0  0  0
  1  6  1  0  0  0  0
  2  3  1  0  0  0  0
  2  1  2  0  0  0  0
  3  4  2  0  0  0  0
  4  5  1  0  0  0  0
  5 27  1  0  0  0  0
  6  5  2  0  0  0  0
  7  1  1  0  0  0  0
  7  9  1  0  0  0  0
  8  3  1  0  0  0  0
 10  7  1  0  0  0  0
 11  2  1  0  0  0  0
 11 12  1  0  0  0  0
 12 21  1  0  0  0  0
 13 12  2  0  0  0  0
 13 22  1  0  0  0  0
 14 13  1  0  0  0  0
 15 14  1  0  0  0  0
 16 15  2  0  0  0  0
 17 18  2  0  0  0  0
 17 16  1  0  0  0  0
 18 19  1  0  0  0  0
 19 20  1  0  0  0  0
 19 14  2  0  0  0  0
 20 11  2  0  0  0  0
 23 16  1  0  0  0  0
 24 17  1  0  0  0  0
 25 18  1  0  0  0  0
 26 20  1  0  0  0  0
 27 28  1  0  0  0  0
 29 27  1  0  0  0  0
 30 27  1  0  0  0  0
 30 31  1  0  0  0  0
 32 30  1  0  0  0  0
 33 30  1  0  0  0  0
 34 33  1  0  0  0  0
 35 34  1  0  0  0  0
 36 38  1  0  0  0  0
 36 37  1  0  0  0  0
 36 34  1  0  0  0  0
 39 38  1  0  0  0  0
 39 41  1  0  0  0  0
 40 39  1  0  0  0  0
 41 42  1  0  0  0  0
 41 33  1  0  0  0  0
M  END
>  <minimizedAffinity>
-5.81186819

$$$$

 OpenBabel03242522483D

 42 45  0  0  0  0  0  0  0  0999 V2000
   36.5390   31.1530   40.2060 C   0  0  0  0  0  0  0  0  0  0  0  0
   36.8360   30.5330   38.9650 C   0  0  0  0  0  0  0  0  0  0  0  0
   37.8580   31.0740   38.1610 C   0  0  0  0  0  0  0  0  0  0  0  0
   38.5090   32.1710   38.6270 N   0  0  0  0  0  0  0  0  0  0  0  0
   38.2110   32.7440   39.8080 C   0  0  0  0  0  0  0  0  0  0  0  0
   37.2370   32.2340   40.5810 N   0  0  0  0  0  0  0  0  0  0  0  0
   35.5240   30.6190   41.0090 N   0  0  0  0  0  0  0  0  0  0  0  0
   38.1110   30.6260   37.2080 H   0  0  0  0  0  0  0  0  0  0  0  0
   35.6070   29.5800   41.1700 H   0  0  0  0  0  0  0  0  0  0  0  0
   34.7970   31.3030   41.3590 H   0  0  0  0  0  0  0  0  0  0  0  0
   36.1250   29.3640   38.4940 C   0  0  0  0  0  0  0  0  0  0  0  0
   35.0170   29.3180   37.6740 C   0  0  0  0  0  0  0  0  0  0  0  0
   34.4570   28.1050   37.3170 C   0  0  0  0  0  0  0  0  0  0  0  0
   34.9890   26.8910   37.7690 C   0  0  0  0  0  0  0  0  0  0  0  0
   34.3790   25.7750   37.3700 N   0  0  0  0  0  0  0  0  0  0  0  0
   34.8840   24.5720   37.8020 C   0  0  0  0  0  0  0  0  0  0  0  0
   35.9860   24.6090   38.6170 C   0  0  0  0  0  0  0  0  0  0  0  0
   36.6230   25.7540   39.0340 C   0  0  0  0  0  0  0  0  0  0  0  0
   36.1060   26.9530   38.5940 C   0  0  0  0  0  0  0  0  0  0  0  0
   36.6680   28.1640   38.9530 C   0  0  0  0  0  0  0  0  0  0  0  0
   34.6470   30.2770   37.3550 H   0  0  0  0  0  0  0  0  0  0  0  0
   33.5810   28.1240   36.6670 H   0  0  0  0  0  0  0  0  0  0  0  0
   34.4610   23.6300   37.5320 H   0  0  0  0  0  0  0  0  0  0  0  0
   36.3950   23.6580   38.9650 H   0  0  0  0  0  0  0  0  0  0  0  0
   37.4920   25.7280   39.6800 H   0  0  0  0  0  0  0  0  0  0  0  0
   37.5230   28.0930   39.5890 H   0  0  0  0  0  0  0  0  0  0  0  0
   38.9890   33.9550   40.2310 C   0  0  0  0  0  0  0  0  0  0  0  0
   38.5070   34.4890   41.0530 H   0  0  0  0  0  0  0  0  0  0  0  0
   39.0350   34.5820   39.2920 H   0  0  0  0  0  0  0  0  0  0  0  0
   40.4100   33.5270   40.5760 C   0  0  0  0  0  0  0  0  0  0  0  0
   40.4900   33.2230   41.6170 H   0  0  0  0  0  0  0  0  0  0  0  0
   40.6730   32.7060   39.8750 H   0  0  0  0  0  0  0  0  0  0  0  0
   41.3260   34.7110   40.2640 C   0  0  0  0  0  3  0  0  0  0  0  0
   42.6680   34.5230   40.9540 C   0  0  0  0  0  3  0  0  0  0  0  0
   43.0470   35.5030   41.2920 H   0  0  0  0  0  0  0  0  0  0  0  0
   43.6940   33.9630   39.9720 C   0  0  0  0  0  3  0  0  0  0  0  0
   44.5020   33.5170   40.5740 H   0  0  0  0  0  0  0  0  0  0  0  0
   43.1260   32.9610   39.1820 O   0  0  0  0  0  0  0  0  0  0  0  0
   42.1960   33.4810   38.2860 C   0  0  0  0  0  3  0  0  0  0  0  0
   42.7130   33.7070   37.3360 H   0  0  0  0  0  0  0  0  0  0  0  0
   41.6100   34.7800   38.7810 C   0  0  0  0  0  3  0  0  0  0  0  0
   40.7290   35.0120   38.1830 H   0  0  0  0  0  0  0  0  0  0  0  0
  1  6  1  0  0  0  0
  1  7  1  0  0  0  0
  2  1  2  0  0  0  0
  3  4  2  0  0  0  0
  3  2  1  0  0  0  0
  4  5  1  0  0  0  0
  5 27  1  0  0  0  0
  5  6  2  0  0  0  0
  7  9  1  0  0  0  0
  7 10  1  0  0  0  0
  8  3  1  0  0  0  0
 11 20  1  0  0  0  0
 11  2  1  0  0  0  0
 12 11  2  0  0  0  0
 13 12  1  0  0  0  0
 13 14  2  0  0  0  0
 14 19  1  0  0  0  0
 15 14  1  0  0  0  0
 15 16  2  0  0  0  0
 16 17  1  0  0  0  0
 17 24  1  0  0  0  0
 17 18  2  0  0  0  0
 18 25  1  0  0  0  0
 19 20  2  0  0  0  0
 19 18  1  0  0  0  0
 20 26  1  0  0  0  0
 21 12  1  0  0  0  0
 22 13  1  0  0  0  0
 23 16  1  0  0  0  0
 27 30  1  0  0  0  0
 27 28  1  0  0  0  0
 29 27  1  0  0  0  0
 30 31  1  0  0  0  0
 32 30  1  0  0  0  0
 33 30  1  0  0  0  0
 33 34  1  0  0  0  0
 34 35  1  0  0  0  0
 36 37  1  0  0  0  0
 36 34  1  0  0  0  0
 38 36  1  0  0  0  0
 39 41  1  0  0  0  0
 39 38  1  0  0  0  0
 40 39  1  0  0  0  0
 41 33  1  0  0  0  0
 42 41  1  0  0  0  0
M  END
>  <minimizedAffinity>
-5.81088591

$$$$
