
 OpenBabel03242519343D

 41 43  0  0  0  0  0  0  0  0999 V2000
   46.2530   33.3080   44.4960 C   0  0  0  0  0  0  0  0  0  0  0  0
   46.6720   33.2640   43.1770 C   0  0  0  0  0  0  0  0  0  0  0  0
   46.1240   34.1220   42.2410 C   0  0  0  0  0  0  0  0  0  0  0  0
   45.1600   34.9870   42.7030 N   0  0  0  0  0  0  0  0  0  0  0  0
   44.7570   35.0100   44.0050 C   0  0  0  0  0  0  0  0  0  0  0  0
   45.2970   34.1830   44.8900 N   0  0  0  0  0  0  0  0  0  0  0  0
   43.7180   35.9240   44.3590 N   0  0  0  0  0  0  0  0  0  0  0  0
   47.8980   33.5950   40.8180 C   0  0  0  0  0  0  0  0  0  0  0  0
   48.4920   33.2260   41.8530 O   0  0  0  0  0  0  0  0  0  0  0  0
   46.5500   34.1290   40.8950 N   0  0  0  0  0  0  0  0  0  0  0  0
   47.3790   32.4620   43.0850 H   0  0  0  0  0  0  0  0  0  0  0  0
   43.8730   36.7560   44.9420 H   0  0  0  0  0  0  0  0  0  0  0  0
   42.7670   35.6810   43.9720 H   0  0  0  0  0  0  0  0  0  0  0  0
   45.9280   34.4740   40.1620 H   0  0  0  0  0  0  0  0  0  0  0  0
   46.9510   32.4240   45.4790 C   0  0  0  0  0  0  0  0  0  0  0  0
   46.6570   30.9970   45.2160 C   0  0  0  0  0  0  0  0  0  0  0  0
   45.7930   30.4190   46.2990 C   0  0  0  0  0  0  0  0  0  0  0  0
   46.4340   30.5620   47.6650 C   0  0  0  0  0  0  0  0  0  0  0  0
   47.0010   31.9140   47.9150 C   0  0  0  0  0  0  0  0  0  0  0  0
   46.6180   32.9090   46.8490 C   0  0  0  0  0  0  0  0  0  0  0  0
   48.0460   32.6180   45.2820 H   0  0  0  0  0  0  0  0  0  0  0  0
   46.1560   30.7650   44.2690 H   0  0  0  0  0  0  0  0  0  0  0  0
   47.6020   30.4160   45.2440 H   0  0  0  0  0  0  0  0  0  0  0  0
   45.6320   29.3550   46.0890 H   0  0  0  0  0  0  0  0  0  0  0  0
   44.8190   30.9770   46.2850 H   0  0  0  0  0  0  0  0  0  0  0  0
   45.7650   30.1740   48.4340 H   0  0  0  0  0  0  0  0  0  0  0  0
   47.2970   29.8340   47.6440 H   0  0  0  0  0  0  0  0  0  0  0  0
   46.6020   32.2850   48.8780 H   0  0  0  0  0  0  0  0  0  0  0  0
   48.1160   31.9170   48.0040 H   0  0  0  0  0  0  0  0  0  0  0  0
   47.1200   33.8720   47.0440 H   0  0  0  0  0  0  0  0  0  0  0  0
   45.5200   33.0590   46.9560 H   0  0  0  0  0  0  0  0  0  0  0  0
   48.4370   33.5600   39.3630 C   0  0  0  0  0  3  0  0  0  0  0  0
   49.1400   32.2610   39.1390 C   0  0  0  0  0  3  0  0  0  0  0  0
   49.2720   31.6990   40.0660 H   0  0  0  0  0  0  0  0  0  0  0  0
   48.3640   31.4780   38.0880 C   0  0  0  0  0  3  0  0  0  0  0  0
   48.9510   30.5760   37.8010 H   0  0  0  0  0  0  0  0  0  0  0  0
   48.2960   32.2600   36.9350 O   0  0  0  0  0  0  0  0  0  0  0  0
   47.5630   33.4150   37.0930 C   0  0  0  0  0  3  0  0  0  0  0  0
   46.6920   33.3870   36.4290 H   0  0  0  0  0  0  0  0  0  0  0  0
   47.1600   33.6540   38.5260 C   0  0  0  0  0  3  0  0  0  0  0  0
   46.8130   34.7110   38.6220 H   0  0  0  0  0  0  0  0  0  0  0  0
  1  6  1  0  0  0  0
  1 15  1  0  0  0  0
  2  1  2  0  0  0  0
  3  4  2  0  0  0  0
  3  2  1  0  0  0  0
  4  5  1  0  0  0  0
  5  7  1  0  0  0  0
  5  6  2  0  0  0  0
  7 12  1  0  0  0  0
  8 10  1  0  0  0  0
  8  9  2  0  0  0  0
 10  3  1  0  0  0  0
 11  2  1  0  0  0  0
 13  7  1  0  0  0  0
 14 10  1  0  0  0  0
 15 20  1  0  0  0  0
 16 23  1  0  0  0  0
 16 15  1  0  0  0  0
 16 17  1  0  0  0  0
 17 18  1  0  0  0  0
 18 19  1  0  0  0  0
 18 26  1  0  0  0  0
 19 29  1  0  0  0  0
 19 28  1  0  0  0  0
 20 31  1  0  0  0  0
 20 30  1  0  0  0  0
 20 19  1  0  0  0  0
 21 15  1  0  0  0  0
 22 16  1  0  0  0  0
 24 17  1  0  0  0  0
 25 17  1  0  0  0  0
 27 18  1  0  0  0  0
 32  8  1  0  0  0  0
 33 32  1  0  0  0  0
 33 34  1  0  0  0  0
 35 33  1  0  0  0  0
 36 35  1  0  0  0  0
 37 38  1  0  0  0  0
 37 35  1  0  0  0  0
 38 40  1  0  0  0  0
 39 38  1  0  0  0  0
 40 41  1  0  0  0  0
 40 32  1  0  0  0  0
M  END
>  <minimizedAffinity>
-5.5247097

>  <minimizedRMSD>
1.84806478

$$$$
