
 OpenBabel03242519493D

 51 54  0  0  1  0  0  0  0  0999 V2000
   48.1600   22.7000   43.0320 C   0  0  0  0  0  0  0  0  0  0  0  0
   48.4680   21.8760   43.6110 H   0  0  0  0  0  0  0  0  0  0  0  0
   47.5130   23.2350   43.9590 H   0  0  0  0  0  0  0  0  0  0  0  0
   47.0210   22.5830   42.0110 C   0  0  0  0  0  0  0  0  0  0  0  0
   46.9130   23.4830   41.4190 H   0  0  0  0  0  0  0  0  0  0  0  0
   47.2940   21.7400   41.3430 H   0  0  0  0  0  0  0  0  0  0  0  0
   45.1790   23.2740   43.4370 C   0  0  0  0  0  0  0  0  0  0  0  0
   45.7780   22.2380   42.7050 C   0  0  0  0  0  0  0  0  0  0  0  0
   45.1050   21.0400   42.7770 C   0  0  0  0  0  0  0  0  0  0  0  0
   43.9570   20.8230   43.4820 C   0  0  0  0  0  0  0  0  0  0  0  0
   43.3850   21.8630   44.1990 C   0  0  0  0  0  0  0  0  0  0  0  0
   44.0180   23.1260   44.1750 C   0  0  0  0  0  0  0  0  0  0  0  0
   45.5950   20.2660   42.2010 H   0  0  0  0  0  0  0  0  0  0  0  0
   43.5550   19.8170   43.4320 H   0  0  0  0  0  0  0  0  0  0  0  0
   42.4810   21.6480   44.7400 H   0  0  0  0  0  0  0  0  0  0  0  0
   45.6300   24.5740   43.5410 O   0  0  0  0  0  0  0  0  0  0  0  0
   46.6020   24.7520   43.7200 H   0  0  0  0  0  0  0  0  0  0  0  0
   43.3790   24.0470   44.8990 O   0  0  0  0  0  0  0  0  0  0  0  0
   42.5010   25.0580   44.7710 C   0  0  0  0  0  3  0  0  0  0  0  0
   41.3260   25.0320   45.7290 C   0  0  0  0  0  3  0  0  0  0  0  0
   41.6070   24.8260   46.7550 H   0  0  0  0  0  0  0  0  0  0  0  0
   40.2720   24.0350   45.3180 C   0  0  0  0  0  3  0  0  0  0  0  0
   40.6670   23.0240   45.1650 H   0  0  0  0  0  0  0  0  0  0  0  0
   39.7430   24.5510   44.1140 O   0  0  0  0  0  0  0  0  0  0  0  0
   40.7110   24.2970   43.1560 C   0  0  0  0  0  3  0  0  0  0  0  0
   40.8740   23.2180   43.0770 H   0  0  0  0  0  0  0  0  0  0  0  0
   41.9760   25.0900   43.3470 C   0  0  0  0  0  3  0  0  0  0  0  0
   42.7340   24.6700   42.6540 H   0  0  0  0  0  0  0  0  0  0  0  0
   48.9760   23.7280   42.7870 O   0  0  0  0  0  0  0  0  0  0  0  0
   50.8830   24.9030   43.5940 C   0  0  2  0  0  0  0  0  0  0  0  0
   51.4250   25.7090   42.5000 C   0  0  1  0  0  0  0  0  0  0  0  0
   50.6020   25.2900   41.3380 O   0  0  0  0  0  0  0  0  0  0  0  0
   50.8510   23.9260   41.4350 C   0  0  0  0  0  0  0  0  0  0  0  0
   50.3010   23.6880   42.9540 C   0  0  2  0  0  0  0  0  0  0  0  0
   51.6180   24.6590   44.3840 H   0  0  0  0  0  0  0  0  0  0  0  0
   52.4460   25.3860   42.1790 H   0  0  0  0  0  0  0  0  0  0  0  0
   50.2360   23.3050   40.7830 H   0  0  0  0  0  0  0  0  0  0  0  0
   51.9190   23.7190   41.4570 H   0  0  0  0  0  0  0  0  0  0  0  0
   50.7670   22.7010   43.1080 H   0  0  0  0  0  0  0  0  0  0  0  0
   51.7410   28.9990   44.0390 C   0  0  0  0  0  0  0  0  0  0  0  0
   51.2900   29.8730   43.0500 C   0  0  0  0  0  0  0  0  0  0  0  0
   50.8560   29.3350   41.8290 C   0  0  0  0  0  0  0  0  0  0  0  0
   50.8880   27.9950   41.6520 N   0  0  0  0  0  0  0  0  0  0  0  0
   51.3280   27.1620   42.6240 C   0  0  0  0  0  0  0  0  0  0  0  0
   51.7570   27.6540   43.8210 N   0  0  0  0  0  0  0  0  0  0  0  0
   51.2950   30.9320   43.2660 H   0  0  0  0  0  0  0  0  0  0  0  0
   50.5090   30.0170   41.0710 H   0  0  0  0  0  0  0  0  0  0  0  0
   52.1850   29.4790   45.2720 O   0  0  0  0  0  0  0  0  0  0  0  0
   51.6020   30.1270   45.7780 H   0  0  0  0  0  0  0  0  0  0  0  0
   49.7710   25.6350   44.1900 O   0  0  0  0  0  0  0  0  0  0  0  0
   49.6600   25.1740   45.0800 H   0  0  0  0  0  0  0  0  0  0  0  0
  1  2  1  0  0  0  0
  1  3  1  0  0  0  0
  4  8  1  0  0  0  0
  4  1  1  0  0  0  0
  5  4  1  0  0  0  0
  6  4  1  0  0  0  0
  7 16  1  0  0  0  0
  7 12  1  0  0  0  0
  8  9  1  0  0  0  0
  8  7  2  0  0  0  0
  9 10  2  0  0  0  0
 10 11  1  0  0  0  0
 11 15  1  0  0  0  0
 12 11  2  0  0  0  0
 12 18  1  0  0  0  0
 13  9  1  0  0  0  0
 14 10  1  0  0  0  0
 16 17  1  0  0  0  0
 19 18  1  0  0  0  0
 19 20  1  0  0  0  0
 20 21  1  0  0  0  0
 22 20  1  0  0  0  0
 23 22  1  0  0  0  0
 24 22  1  0  0  0  0
 25 27  1  0  0  0  0
 25 24  1  0  0  0  0
 26 25  1  0  0  0  0
 27 19  1  0  0  0  0
 28 27  1  0  0  0  0
 29 34  1  0  0  0  0
 29  1  1  0  0  0  0
 30 50  1  0  0  0  0
 30 35  1  1  0  0  0
 31 36  1  6  0  0  0
 31 44  1  0  0  0  0
 31 30  1  0  0  0  0
 32 33  1  0  0  0  0
 32 31  1  0  0  0  0
 33 38  1  0  0  0  0
 33 34  1  0  0  0  0
 34 39  1  1  0  0  0
 34 30  1  0  0  0  0
 37 33  1  0  0  0  0
 40 48  1  0  0  0  0
 41 46  1  0  0  0  0
 41 40  2  0  0  0  0
 42 41  1  0  0  0  0
 43 42  2  0  0  0  0
 43 44  1  0  0  0  0
 44 45  2  0  0  0  0
 45 40  1  0  0  0  0
 47 42  1  0  0  0  0
 48 49  1  0  0  0  0
 50 51  1  0  0  0  0
M  END
>  <minimizedAffinity>
-1.20593524

>  <minimizedRMSD>
7.55489206

$$$$
