
 OpenBabel03252507463D

 38 40  0  0  0  0  0  0  0  0999 V2000
   47.4080   34.6580   40.9620 C   0  0  0  0  0  0  0  0  0  0  0  0
   46.8180   34.0400   40.2640 H   0  0  0  0  0  0  0  0  0  0  0  0
   47.6930   35.5870   40.4050 H   0  0  0  0  0  0  0  0  0  0  0  0
   48.6710   33.9990   41.3500 C   0  0  0  0  0  0  0  0  0  0  0  0
   48.8970   32.7300   40.8250 C   0  0  0  0  0  0  0  0  0  0  0  0
   50.0600   32.0530   41.1410 C   0  0  0  0  0  0  0  0  0  0  0  0
   50.9560   32.6610   41.9680 N   0  0  0  0  0  0  0  0  0  0  0  0
   50.7030   33.8980   42.4610 C   0  0  0  0  0  0  0  0  0  0  0  0
   49.5870   34.5270   42.1470 N   0  0  0  0  0  0  0  0  0  0  0  0
   50.2410   31.0530   40.7290 H   0  0  0  0  0  0  0  0  0  0  0  0
   51.4630   34.3180   43.1140 H   0  0  0  0  0  0  0  0  0  0  0  0
   47.6790   31.9730   39.7330 S   0  0  0  0  0  0  0  0  0  0  0  0
   46.2570   31.3400   40.6780 C   0  0  0  0  0  3  0  0  0  0  0  0
   46.7160   31.1010   42.0920 C   0  0  0  0  0  3  0  0  0  0  0  0
   47.8250   31.0760   42.1420 H   0  0  0  0  0  0  0  0  0  0  0  0
   46.2370   29.7600   42.5610 C   0  0  0  0  0  3  0  0  0  0  0  0
   46.8520   28.9820   42.0710 H   0  0  0  0  0  0  0  0  0  0  0  0
   44.8900   29.6690   42.2120 O   0  0  0  0  0  0  0  0  0  0  0  0
   44.7530   29.4050   40.8620 C   0  0  0  0  0  3  0  0  0  0  0  0
   43.7870   29.8050   40.4870 H   0  0  0  0  0  0  0  0  0  0  0  0
   45.8530   30.0300   40.0430 C   0  0  0  0  0  3  0  0  0  0  0  0
   45.4830   30.2980   39.0180 H   0  0  0  0  0  0  0  0  0  0  0  0
   46.5670   35.0460   42.1260 C   0  0  0  0  0  0  0  0  0  0  0  0
   46.7630   34.3280   42.9560 H   0  0  0  0  0  0  0  0  0  0  0  0
   46.8390   36.0550   42.4550 H   0  0  0  0  0  0  0  0  0  0  0  0
   45.0990   34.9840   41.8610 C   0  0  0  0  0  0  0  0  0  0  0  0
   44.1760   35.5310   42.8030 C   0  0  0  0  0  0  0  0  0  0  0  0
   42.5490   35.2020   42.0230 S   0  0  0  0  0  0  0  0  0  0  0  0
   43.3970   34.3720   40.5370 C   0  0  0  0  0  0  0  0  0  0  0  0
   44.5010   34.4630   40.8170 N   0  0  0  0  0  0  0  0  0  0  0  0
   44.4200   36.0120   43.7370 H   0  0  0  0  0  0  0  0  0  0  0  0
   42.6880   33.8420   39.4650 O   0  0  0  0  0  0  0  0  0  0  0  0
   40.6960   34.1360   37.7550 O   0  0  0  0  0  0  0  0  0  0  0  0
   41.7450   34.9100   38.5430 P   0  0  0  0  0  0  0  0  0  0  0  0
   40.9800   35.9800   39.6110 O   0  0  0  0  0  0  0  0  0  0  0  0
   40.3860   35.4980   40.2250 H   0  0  0  0  0  0  0  0  0  0  0  0
   42.7310   35.8100   37.5090 O   0  0  0  0  0  0  0  0  0  0  0  0
   42.3510   35.7600   36.5820 H   0  0  0  0  0  0  0  0  0  0  0  0
  1  4  1  0  0  0  0
  1 23  1  0  0  0  0
  2  1  1  0  0  0  0
  3  1  1  0  0  0  0
  4  9  1  0  0  0  0
  5  6  1  0  0  0  0
  5  4  2  0  0  0  0
  6  7  2  0  0  0  0
  7  8  1  0  0  0  0
  8 11  1  0  0  0  0
  9  8  2  0  0  0  0
 10  6  1  0  0  0  0
 12 13  1  0  0  0  0
 12  5  1  0  0  0  0
 13 14  1  0  0  0  0
 14 15  1  0  0  0  0
 14 16  1  0  0  0  0
 17 16  1  0  0  0  0
 18 16  1  0  0  0  0
 19 18  1  0  0  0  0
 20 19  1  0  0  0  0
 21 13  1  0  0  0  0
 21 19  1  0  0  0  0
 22 21  1  0  0  0  0
 23 25  1  0  0  0  0
 23 24  1  0  0  0  0
 26 23  1  0  0  0  0
 26 27  2  0  0  0  0
 27 31  1  0  0  0  0
 28 27  1  0  0  0  0
 29 30  2  0  0  0  0
 29 28  1  0  0  0  0
 30 26  1  0  0  0  0
 32 29  1  0  0  0  0
 33 34  2  0  0  0  0
 34 32  1  0  0  0  0
 34 35  1  0  0  0  0
 35 36  1  0  0  0  0
 37 34  1  0  0  0  0
 38 37  1  0  0  0  0
M  END
>  <minimizedAffinity>
-4.33424091

>  <minimizedRMSD>
0.839922309

$$$$
