
 OpenBabel03242519343D

 41 43  0  0  0  0  0  0  0  0999 V2000
   46.3190   32.8990   45.5360 C   0  0  0  0  0  0  0  0  0  0  0  0
   46.8210   32.9380   44.2470 C   0  0  0  0  0  0  0  0  0  0  0  0
   46.4420   33.9460   43.3790 C   0  0  0  0  0  0  0  0  0  0  0  0
   45.5540   34.8710   43.8760 N   0  0  0  0  0  0  0  0  0  0  0  0
   45.0660   34.8110   45.1480 C   0  0  0  0  0  0  0  0  0  0  0  0
   45.4450   33.8400   45.9680 N   0  0  0  0  0  0  0  0  0  0  0  0
   44.1180   35.8050   45.5390 N   0  0  0  0  0  0  0  0  0  0  0  0
   48.2380   33.3530   42.0110 C   0  0  0  0  0  0  0  0  0  0  0  0
   48.7120   32.8120   43.0320 O   0  0  0  0  0  0  0  0  0  0  0  0
   46.9590   34.0360   42.0680 N   0  0  0  0  0  0  0  0  0  0  0  0
   47.4360   32.0690   44.1080 H   0  0  0  0  0  0  0  0  0  0  0  0
   44.3260   36.5490   46.2160 H   0  0  0  0  0  0  0  0  0  0  0  0
   43.1740   35.7200   45.0740 H   0  0  0  0  0  0  0  0  0  0  0  0
   46.4330   34.5270   41.3430 H   0  0  0  0  0  0  0  0  0  0  0  0
   46.8410   31.8420   46.4560 C   0  0  0  0  0  0  0  0  0  0  0  0
   45.8390   30.7730   46.6630 C   0  0  0  0  0  0  0  0  0  0  0  0
   45.3000   30.8060   48.0640 C   0  0  0  0  0  0  0  0  0  0  0  0
   46.4050   30.6730   49.0940 C   0  0  0  0  0  0  0  0  0  0  0  0
   47.5840   31.5350   48.8110 C   0  0  0  0  0  0  0  0  0  0  0  0
   47.3320   32.5140   47.6930 C   0  0  0  0  0  0  0  0  0  0  0  0
   47.7260   31.4170   45.8980 H   0  0  0  0  0  0  0  0  0  0  0  0
   44.9650   30.7830   46.0000 H   0  0  0  0  0  0  0  0  0  0  0  0
   46.3290   29.7840   46.5540 H   0  0  0  0  0  0  0  0  0  0  0  0
   44.5940   29.9770   48.1880 H   0  0  0  0  0  0  0  0  0  0  0  0
   44.7810   31.7920   48.2010 H   0  0  0  0  0  0  0  0  0  0  0  0
   45.9890   30.7450   50.0990 H   0  0  0  0  0  0  0  0  0  0  0  0
   46.7430   29.6000   49.0010 H   0  0  0  0  0  0  0  0  0  0  0  0
   47.8130   32.1190   49.7230 H   0  0  0  0  0  0  0  0  0  0  0  0
   48.5070   30.9540   48.5600 H   0  0  0  0  0  0  0  0  0  0  0  0
   48.2570   33.0770   47.4790 H   0  0  0  0  0  0  0  0  0  0  0  0
   46.5710   33.2270   48.0820 H   0  0  0  0  0  0  0  0  0  0  0  0
   48.8700   33.4000   40.5940 C   0  0  0  0  0  3  0  0  0  0  0  0
   48.8620   32.0220   40.0170 C   0  0  0  0  0  3  0  0  0  0  0  0
   48.5820   31.2670   40.7540 H   0  0  0  0  0  0  0  0  0  0  0  0
   47.9420   32.0220   38.8030 C   0  0  0  0  0  3  0  0  0  0  0  0
   48.0400   31.0470   38.2750 H   0  0  0  0  0  0  0  0  0  0  0  0
   48.4140   32.9790   37.9060 O   0  0  0  0  0  0  0  0  0  0  0  0
   48.3340   34.2700   38.3820 C   0  0  0  0  0  3  0  0  0  0  0  0
   47.6530   34.8480   37.7470 H   0  0  0  0  0  0  0  0  0  0  0  0
   47.9220   34.3280   39.8310 C   0  0  0  0  0  3  0  0  0  0  0  0
   48.1320   35.3560   40.2150 H   0  0  0  0  0  0  0  0  0  0  0  0
  1  6  1  0  0  0  0
  1 15  1  0  0  0  0
  2  1  2  0  0  0  0
  3  4  2  0  0  0  0
  3  2  1  0  0  0  0
  4  5  1  0  0  0  0
  5  7  1  0  0  0  0
  5  6  2  0  0  0  0
  7 12  1  0  0  0  0
  8 10  1  0  0  0  0
  8  9  2  0  0  0  0
 10  3  1  0  0  0  0
 11  2  1  0  0  0  0
 13  7  1  0  0  0  0
 14 10  1  0  0  0  0
 15 16  1  0  0  0  0
 15 20  1  0  0  0  0
 16 17  1  0  0  0  0
 17 24  1  0  0  0  0
 17 25  1  0  0  0  0
 17 18  1  0  0  0  0
 18 26  1  0  0  0  0
 19 18  1  0  0  0  0
 19 28  1  0  0  0  0
 20 31  1  0  0  0  0
 20 19  1  0  0  0  0
 21 15  1  0  0  0  0
 22 16  1  0  0  0  0
 23 16  1  0  0  0  0
 27 18  1  0  0  0  0
 29 19  1  0  0  0  0
 30 20  1  0  0  0  0
 32  8  1  0  0  0  0
 33 32  1  0  0  0  0
 33 34  1  0  0  0  0
 35 33  1  0  0  0  0
 36 35  1  0  0  0  0
 37 38  1  0  0  0  0
 37 35  1  0  0  0  0
 38 40  1  0  0  0  0
 39 38  1  0  0  0  0
 40 41  1  0  0  0  0
 40 32  1  0  0  0  0
M  END
>  <minimizedAffinity>
-6.15374041

>  <minimizedRMSD>
1.79710352

$$$$
