
 OpenBabel03242516533D

 46 49  0  0  1  0  0  0  0  0999 V2000
   47.8340   32.8990   41.8250 C   0  0  1  0  0  0  0  0  0  0  0  0
   47.5240   32.2440   40.5550 C   0  0  0  0  0  0  0  0  0  0  0  0
   48.5380   32.7740   39.5480 C   0  0  0  0  0  0  0  0  0  0  0  0
   48.1930   34.2350   39.3050 C   0  0  0  0  0  0  0  0  0  0  0  0
   48.1150   35.0630   40.5510 C   0  0  0  0  0  0  0  0  0  0  0  0
   47.6200   34.4160   41.7660 C   0  0  1  0  0  0  0  0  0  0  0  0
   48.9500   32.8250   42.0030 H   0  0  0  0  0  0  0  0  0  0  0  0
   46.4860   32.4680   40.2160 H   0  0  0  0  0  0  0  0  0  0  0  0
   47.5960   31.1600   40.6540 H   0  0  0  0  0  0  0  0  0  0  0  0
   49.5400   32.6660   39.9980 H   0  0  0  0  0  0  0  0  0  0  0  0
   48.4000   32.2520   38.5910 H   0  0  0  0  0  0  0  0  0  0  0  0
   47.2390   34.2610   38.7440 H   0  0  0  0  0  0  0  0  0  0  0  0
   48.9680   34.6350   38.6200 H   0  0  0  0  0  0  0  0  0  0  0  0
   49.1390   35.4930   40.7060 H   0  0  0  0  0  0  0  0  0  0  0  0
   47.4820   35.9520   40.3160 H   0  0  0  0  0  0  0  0  0  0  0  0
   48.2100   34.8110   42.6480 H   0  0  0  0  0  0  0  0  0  0  0  0
   45.4240   30.9480   43.9920 C   0  0  0  0  0  0  0  0  0  0  0  0
   46.1040   31.5030   42.9010 C   0  0  0  0  0  0  0  0  0  0  0  0
   47.1970   32.3660   43.0120 C   0  0  0  0  0  0  0  0  0  0  0  0
   47.5780   32.6460   44.2600 N   0  0  0  0  0  0  0  0  0  0  0  0
   46.9310   32.1160   45.3310 C   0  0  0  0  0  0  0  0  0  0  0  0
   45.8870   31.2920   45.2150 N   0  0  0  0  0  0  0  0  0  0  0  0
   44.5970   30.2970   43.7640 H   0  0  0  0  0  0  0  0  0  0  0  0
   45.7810   31.2640   41.8960 H   0  0  0  0  0  0  0  0  0  0  0  0
   47.3070   32.3970   46.3200 H   0  0  0  0  0  0  0  0  0  0  0  0
   46.2330   34.7740   42.0760 C   0  0  0  0  0  0  0  0  0  0  0  0
   45.7750   35.3630   43.2630 C   0  0  0  0  0  0  0  0  0  0  0  0
   44.4070   35.6270   43.3280 C   0  0  0  0  0  0  0  0  0  0  0  0
   43.6300   35.2940   42.2390 C   0  0  0  0  0  0  0  0  0  0  0  0
   44.0970   34.7120   41.0720 C   0  0  0  0  0  0  0  0  0  0  0  0
   45.4360   34.4590   41.0230 N   0  0  0  0  0  0  0  0  0  0  0  0
   46.4980   35.5540   44.0000 H   0  0  0  0  0  0  0  0  0  0  0  0
   44.0410   36.0740   44.2200 H   0  0  0  0  0  0  0  0  0  0  0  0
   42.5610   35.5050   42.3000 H   0  0  0  0  0  0  0  0  0  0  0  0
   43.1970   34.4010   39.9680 C   0  0  0  0  0  0  0  0  0  0  0  0
   42.6700   35.3630   39.3420 O   0  0  0  0  0  0  0  0  0  0  0  0
   42.8900   32.9840   39.5730 C   0  0  0  0  0  3  0  0  0  0  0  0
   44.1060   32.3380   38.9400 C   0  0  0  0  0  3  0  0  0  0  0  0
   44.3890   31.3990   39.4580 H   0  0  0  0  0  0  0  0  0  0  0  0
   43.8730   31.9830   37.4840 C   0  0  0  0  0  3  0  0  0  0  0  0
   44.8110   31.4440   37.1690 H   0  0  0  0  0  0  0  0  0  0  0  0
   42.7710   31.1690   37.2840 O   0  0  0  0  0  0  0  0  0  0  0  0
   41.6970   31.4980   38.0950 C   0  0  0  0  0  3  0  0  0  0  0  0
   40.7270   31.2300   37.6690 H   0  0  0  0  0  0  0  0  0  0  0  0
   41.8070   32.9510   38.5090 C   0  0  0  0  0  3  0  0  0  0  0  0
   40.8410   33.3230   38.8570 H   0  0  0  0  0  0  0  0  0  0  0  0
  1  7  1  1  0  0  0
  1 19  1  0  0  0  0
  2  9  1  0  0  0  0
  2  1  1  0  0  0  0
  3 10  1  0  0  0  0
  3  2  1  0  0  0  0
  4  3  1  0  0  0  0
  4  5  1  0  0  0  0
  5 14  1  0  0  0  0
  5  6  1  0  0  0  0
  6  1  1  0  0  0  0
  6 26  1  0  0  0  0
  6 16  1  1  0  0  0
  8  2  1  0  0  0  0
 11  3  1  0  0  0  0
 12  4  1  0  0  0  0
 13  4  1  0  0  0  0
 15  5  1  0  0  0  0
 17 22  1  0  0  0  0
 18 19  1  0  0  0  0
 18 17  2  0  0  0  0
 19 20  2  0  0  0  0
 20 21  1  0  0  0  0
 21 25  1  0  0  0  0
 22 21  2  0  0  0  0
 23 17  1  0  0  0  0
 24 18  1  0  0  0  0
 26 27  1  0  0  0  0
 27 28  2  0  0  0  0
 27 32  1  0  0  0  0
 28 33  1  0  0  0  0
 29 34  1  0  0  0  0
 29 28  1  0  0  0  0
 30 29  2  0  0  0  0
 31 30  1  0  0  0  0
 31 26  2  0  0  0  0
 35 30  1  0  0  0  0
 36 35  2  0  0  0  0
 37 35  1  0  0  0  0
 38 39  1  0  0  0  0
 38 37  1  0  0  0  0
 40 38  1  0  0  0  0
 41 40  1  0  0  0  0
 42 40  1  0  0  0  0
 42 43  1  0  0  0  0
 43 45  1  0  0  0  0
 44 43  1  0  0  0  0
 45 46  1  0  0  0  0
 45 37  1  0  0  0  0
M  END
>  <minimizedAffinity>
-5.3249712

>  <minimizedRMSD>
0.604282916

$$$$
