
 OpenBabel03242516533D

 46 49  0  0  1  0  0  0  0  0999 V2000
   47.8430   32.9100   41.8160 C   0  0  1  0  0  0  0  0  0  0  0  0
   47.5160   32.2950   40.5300 C   0  0  0  0  0  0  0  0  0  0  0  0
   48.5420   32.8260   39.5340 C   0  0  0  0  0  0  0  0  0  0  0  0
   48.2310   34.3000   39.3300 C   0  0  0  0  0  0  0  0  0  0  0  0
   48.1750   35.0980   40.5960 C   0  0  0  0  0  0  0  0  0  0  0  0
   47.6670   34.4330   41.7960 C   0  0  1  0  0  0  0  0  0  0  0  0
   48.9580   32.8050   41.9890 H   0  0  0  0  0  0  0  0  0  0  0  0
   46.4830   32.5540   40.1990 H   0  0  0  0  0  0  0  0  0  0  0  0
   47.5610   31.2090   40.6010 H   0  0  0  0  0  0  0  0  0  0  0  0
   49.5410   32.6820   39.9790 H   0  0  0  0  0  0  0  0  0  0  0  0
   48.3890   32.3320   38.5650 H   0  0  0  0  0  0  0  0  0  0  0  0
   47.2770   34.3640   38.7710 H   0  0  0  0  0  0  0  0  0  0  0  0
   49.0150   34.6990   38.6530 H   0  0  0  0  0  0  0  0  0  0  0  0
   49.2100   35.5000   40.7600 H   0  0  0  0  0  0  0  0  0  0  0  0
   47.5640   36.0080   40.3850 H   0  0  0  0  0  0  0  0  0  0  0  0
   48.2680   34.7910   42.6860 H   0  0  0  0  0  0  0  0  0  0  0  0
   45.4220   30.9230   43.9360 C   0  0  0  0  0  0  0  0  0  0  0  0
   46.1110   31.4930   42.8580 C   0  0  0  0  0  0  0  0  0  0  0  0
   47.1960   32.3630   42.9900 C   0  0  0  0  0  0  0  0  0  0  0  0
   47.5580   32.6370   44.2440 N   0  0  0  0  0  0  0  0  0  0  0  0
   46.9010   32.0940   45.3040 C   0  0  0  0  0  0  0  0  0  0  0  0
   45.8650   31.2620   45.1670 N   0  0  0  0  0  0  0  0  0  0  0  0
   44.6030   30.2670   43.6920 H   0  0  0  0  0  0  0  0  0  0  0  0
   45.8030   31.2580   41.8470 H   0  0  0  0  0  0  0  0  0  0  0  0
   47.2620   32.3700   46.2990 H   0  0  0  0  0  0  0  0  0  0  0  0
   46.2900   34.8170   42.1180 C   0  0  0  0  0  0  0  0  0  0  0  0
   45.8620   35.4720   43.2810 C   0  0  0  0  0  0  0  0  0  0  0  0
   44.4970   35.7490   43.3630 C   0  0  0  0  0  0  0  0  0  0  0  0
   43.6940   35.3640   42.3110 C   0  0  0  0  0  0  0  0  0  0  0  0
   44.1300   34.7170   41.1660 C   0  0  0  0  0  0  0  0  0  0  0  0
   45.4670   34.4520   41.1010 N   0  0  0  0  0  0  0  0  0  0  0  0
   46.6040   35.6970   43.9900 H   0  0  0  0  0  0  0  0  0  0  0  0
   44.1550   36.2450   44.2380 H   0  0  0  0  0  0  0  0  0  0  0  0
   42.6280   35.5850   42.3860 H   0  0  0  0  0  0  0  0  0  0  0  0
   43.2030   34.3540   40.1020 C   0  0  0  0  0  0  0  0  0  0  0  0
   42.6750   35.2840   39.4310 O   0  0  0  0  0  0  0  0  0  0  0  0
   42.8710   32.9200   39.7970 C   0  0  0  0  0  3  0  0  0  0  0  0
   41.5060   32.8210   39.1450 C   0  0  0  0  0  3  0  0  0  0  0  0
   41.5540   32.2940   38.1700 H   0  0  0  0  0  0  0  0  0  0  0  0
   40.5130   32.0670   40.0060 C   0  0  0  0  0  3  0  0  0  0  0  0
   39.5840   31.9970   39.3740 H   0  0  0  0  0  0  0  0  0  0  0  0
   40.9420   30.7960   40.3570 O   0  0  0  0  0  0  0  0  0  0  0  0
   42.2940   30.7400   40.6510 C   0  0  0  0  0  3  0  0  0  0  0  0
   42.5590   29.9410   41.3470 H   0  0  0  0  0  0  0  0  0  0  0  0
   42.7740   32.1120   41.0790 C   0  0  0  0  0  3  0  0  0  0  0  0
   43.7180   32.0350   41.6210 H   0  0  0  0  0  0  0  0  0  0  0  0
  1  7  1  1  0  0  0
  1 19  1  0  0  0  0
  2  9  1  0  0  0  0
  2  1  1  0  0  0  0
  3 10  1  0  0  0  0
  3  2  1  0  0  0  0
  4  3  1  0  0  0  0
  4  5  1  0  0  0  0
  5 14  1  0  0  0  0
  5  6  1  0  0  0  0
  6  1  1  0  0  0  0
  6 26  1  0  0  0  0
  6 16  1  1  0  0  0
  8  2  1  0  0  0  0
 11  3  1  0  0  0  0
 12  4  1  0  0  0  0
 13  4  1  0  0  0  0
 15  5  1  0  0  0  0
 17 22  1  0  0  0  0
 18 19  1  0  0  0  0
 18 17  2  0  0  0  0
 19 20  2  0  0  0  0
 20 21  1  0  0  0  0
 21 25  1  0  0  0  0
 22 21  2  0  0  0  0
 23 17  1  0  0  0  0
 24 18  1  0  0  0  0
 26 27  1  0  0  0  0
 27 28  2  0  0  0  0
 27 32  1  0  0  0  0
 28 33  1  0  0  0  0
 29 34  1  0  0  0  0
 29 28  1  0  0  0  0
 30 29  2  0  0  0  0
 31 30  1  0  0  0  0
 31 26  2  0  0  0  0
 35 30  1  0  0  0  0
 36 35  2  0  0  0  0
 37 35  1  0  0  0  0
 37 45  1  0  0  0  0
 38 37  1  0  0  0  0
 38 40  1  0  0  0  0
 39 38  1  0  0  0  0
 40 42  1  0  0  0  0
 41 40  1  0  0  0  0
 42 43  1  0  0  0  0
 43 45  1  0  0  0  0
 43 44  1  0  0  0  0
 45 46  1  0  0  0  0
M  END
>  <minimizedAffinity>
-5.28696251

>  <minimizedRMSD>
0.933830917

$$$$
