
 OpenBabel03242523543D

 46 49  0  0  1  0  0  0  0  0999 V2000
   42.7940   34.3750   38.8590 C   0  0  1  0  0  0  0  0  0  0  0  0
   43.0100   35.1600   40.1450 C   0  0  1  0  0  0  0  0  0  0  0  0
   41.7460   35.5260   40.6520 O   0  0  0  0  0  0  0  0  0  0  0  0
   40.8360   35.8440   39.6390 C   0  0  0  0  0  0  0  0  0  0  0  0
   40.4280   34.6230   38.8410 C   0  0  2  0  0  0  0  0  0  0  0  0
   41.5580   33.5590   39.0640 C   0  0  1  0  0  0  0  0  0  0  0  0
   43.6740   33.7180   38.6570 H   0  0  0  0  0  0  0  0  0  0  0  0
   43.6680   36.0250   40.0290 H   0  0  0  0  0  0  0  0  0  0  0  0
   41.1960   36.6750   38.9860 H   0  0  0  0  0  0  0  0  0  0  0  0
   39.9600   36.2670   40.1710 H   0  0  0  0  0  0  0  0  0  0  0  0
   39.4660   34.1990   39.1730 H   0  0  0  0  0  0  0  0  0  0  0  0
   41.3270   33.3970   40.1650 H   0  0  0  0  0  0  0  0  0  0  0  0
   42.6420   35.2420   37.7680 O   0  0  0  0  0  0  0  0  0  0  0  0
   42.9540   34.8170   36.9340 H   0  0  0  0  0  0  0  0  0  0  0  0
   40.4560   34.9220   37.4880 O   0  0  0  0  0  0  0  0  0  0  0  0
   40.4570   34.1070   36.9240 H   0  0  0  0  0  0  0  0  0  0  0  0
   43.4760   34.2060   41.0740 O   0  0  0  0  0  0  0  0  0  0  0  0
   44.6040   34.3270   41.7820 C   0  0  0  0  0  0  0  0  0  0  0  0
   45.8500   34.4540   41.1480 C   0  0  0  0  0  0  0  0  0  0  0  0
   46.9820   34.5770   41.9340 C   0  0  0  0  0  0  0  0  0  0  0  0
   46.8570   34.5710   43.3150 N   0  0  0  0  0  0  0  0  0  0  0  0
   45.6390   34.4450   43.8880 C   0  0  0  0  0  0  0  0  0  0  0  0
   44.5220   34.3240   43.1300 N   0  0  0  0  0  0  0  0  0  0  0  0
   45.9340   34.4580   40.0800 H   0  0  0  0  0  0  0  0  0  0  0  0
   45.5600   34.4410   44.9700 H   0  0  0  0  0  0  0  0  0  0  0  0
   48.3460   34.6960   41.3300 C   0  0  0  0  0  0  0  0  0  0  0  0
   49.0680   36.0300   41.5210 C   0  0  0  0  0  0  0  0  0  0  0  0
   49.5160   34.6980   42.1480 C   0  0  0  0  0  0  0  0  0  0  0  0
   48.3740   34.2740   40.2930 H   0  0  0  0  0  0  0  0  0  0  0  0
   48.5210   36.7570   42.1370 H   0  0  0  0  0  0  0  0  0  0  0  0
   49.6040   36.3910   40.6450 H   0  0  0  0  0  0  0  0  0  0  0  0
   50.4600   34.3340   41.7450 H   0  0  0  0  0  0  0  0  0  0  0  0
   49.3890   34.7150   43.2630 H   0  0  0  0  0  0  0  0  0  0  0  0
   41.3440   32.5570   38.1920 O   0  0  0  0  0  0  0  0  0  0  0  0
   40.4200   31.5780   38.2250 C   0  0  0  0  0  0  0  0  0  0  0  0
   39.4320   31.5260   37.3710 O   0  0  0  0  0  0  0  0  0  0  0  0
   39.8720   30.3370   38.8320 C   0  0  0  0  0  3  0  0  0  0  0  0
   40.0390   30.2910   40.3230 C   0  0  0  0  0  3  0  0  0  0  0  0
   39.3500   30.9890   40.8410 H   0  0  0  0  0  0  0  0  0  0  0  0
   39.6540   28.8760   40.7140 C   0  0  0  0  0  3  0  0  0  0  0  0
   40.3690   28.2180   40.1420 H   0  0  0  0  0  0  0  0  0  0  0  0
   38.3390   28.6310   40.3920 O   0  0  0  0  0  0  0  0  0  0  0  0
   38.0720   28.7460   39.0390 C   0  0  0  0  0  3  0  0  0  0  0  0
   38.7920   28.0890   38.4860 H   0  0  0  0  0  0  0  0  0  0  0  0
   38.3980   30.1570   38.5560 C   0  0  0  0  0  3  0  0  0  0  0  0
   37.7860   30.9120   39.0830 H   0  0  0  0  0  0  0  0  0  0  0  0
  1  7  1  6  0  0  0
  1  6  1  0  0  0  0
  1  2  1  0  0  0  0
  2  8  1  6  0  0  0
  2  3  1  0  0  0  0
  2 17  1  0  0  0  0
  4 10  1  0  0  0  0
  4  3  1  0  0  0  0
  5  6  1  0  0  0  0
  5 11  1  1  0  0  0
  5  4  1  0  0  0  0
  6 12  1  1  0  0  0
  9  4  1  0  0  0  0
 13  1  1  0  0  0  0
 14 13  1  0  0  0  0
 15  5  1  0  0  0  0
 16 15  1  0  0  0  0
 17 18  1  0  0  0  0
 18 23  1  0  0  0  0
 19 18  2  0  0  0  0
 19 20  1  0  0  0  0
 20 21  2  0  0  0  0
 21 22  1  0  0  0  0
 22 25  1  0  0  0  0
 23 22  2  0  0  0  0
 24 19  1  0  0  0  0
 26 27  1  0  0  0  0
 26 20  1  0  0  0  0
 26 28  1  0  0  0  0
 27 30  1  0  0  0  0
 27 28  1  0  0  0  0
 28 33  1  0  0  0  0
 29 26  1  0  0  0  0
 31 27  1  0  0  0  0
 32 28  1  0  0  0  0
 34 35  1  0  0  0  0
 34  6  1  0  0  0  0
 35 37  1  0  0  0  0
 36 35  2  0  0  0  0
 37 38  1  0  0  0  0
 38 40  1  0  0  0  0
 38 39  1  0  0  0  0
 41 40  1  0  0  0  0
 42 40  1  0  0  0  0
 43 42  1  0  0  0  0
 44 43  1  0  0  0  0
 45 37  1  0  0  0  0
 45 43  1  0  0  0  0
 45 46  1  0  0  0  0
M  END
>  <minimizedAffinity>
-6.06553698

>  <minimizedRMSD>
0.949223101

$$$$
