
 OpenBabel03252502283D

 36 38  0  0  0  0  0  0  0  0999 V2000
   44.9250   34.4790   41.3720 C   0  0  0  0  0  0  0  0  0  0  0  0
   45.2220   35.3340   42.4300 C   0  0  0  0  0  0  0  0  0  0  0  0
   46.5570   35.6200   42.6960 C   0  0  0  0  0  0  0  0  0  0  0  0
   47.5460   35.0620   41.9230 C   0  0  0  0  0  0  0  0  0  0  0  0
   47.2680   34.2180   40.8790 C   0  0  0  0  0  0  0  0  0  0  0  0
   45.9220   33.9400   40.6210 C   0  0  0  0  0  0  0  0  0  0  0  0
   44.4510   35.7780   43.0440 H   0  0  0  0  0  0  0  0  0  0  0  0
   46.8790   36.2720   43.4970 H   0  0  0  0  0  0  0  0  0  0  0  0
   48.5880   35.2800   42.1240 H   0  0  0  0  0  0  0  0  0  0  0  0
   48.0180   33.7580   40.2450 H   0  0  0  0  0  0  0  0  0  0  0  0
   41.2700   34.7690   40.4850 C   0  0  0  0  0  0  0  0  0  0  0  0
   42.6120   35.1330   40.6590 C   0  0  0  0  0  0  0  0  0  0  0  0
   43.5200   34.2260   41.1480 C   0  0  0  0  0  0  0  0  0  0  0  0
   43.0300   32.9930   41.4350 N   0  0  0  0  0  0  0  0  0  0  0  0
   41.7390   32.6400   41.2690 C   0  0  0  0  0  0  0  0  0  0  0  0
   40.8460   33.5380   40.7870 N   0  0  0  0  0  0  0  0  0  0  0  0
   42.9740   36.1240   40.4210 H   0  0  0  0  0  0  0  0  0  0  0  0
   41.5060   31.6300   41.5410 H   0  0  0  0  0  0  0  0  0  0  0  0
   40.2950   35.7520   39.9590 C   0  0  0  0  0  0  0  0  0  0  0  0
   39.1610   35.0390   39.5540 F   0  0  0  0  0  0  0  0  0  0  0  0
   40.8340   36.2500   38.7690 F   0  0  0  0  0  0  0  0  0  0  0  0
   39.9710   36.7360   40.8380 F   0  0  0  0  0  0  0  0  0  0  0  0
   45.7250   31.7440   39.2410 C   0  0  0  0  0  0  0  0  0  0  0  0
   46.3940   30.9410   39.8760 O   0  0  0  0  0  0  0  0  0  0  0  0
   45.5010   33.0960   39.5740 N   0  0  0  0  0  0  0  0  0  0  0  0
   44.8850   33.7030   38.9480 H   0  0  0  0  0  0  0  0  0  0  0  0
   45.0700   31.2440   37.9780 C   0  0  0  0  0  3  0  0  0  0  0  0
   45.2990   32.2300   36.8940 C   0  0  0  0  0  3  0  0  0  0  0  0
   46.3490   32.5420   36.7850 H   0  0  0  0  0  0  0  0  0  0  0  0
   44.7800   31.5830   35.6020 C   0  0  0  0  0  3  0  0  0  0  0  0
   44.5990   32.3170   34.8070 H   0  0  0  0  0  0  0  0  0  0  0  0
   43.6910   30.7730   35.8730 O   0  0  0  0  0  0  0  0  0  0  0  0
   42.8920   31.2480   36.9100 C   0  0  0  0  0  3  0  0  0  0  0  0
   42.6230   32.3150   36.7960 H   0  0  0  0  0  0  0  0  0  0  0  0
   43.5850   31.1240   38.2490 C   0  0  0  0  0  3  0  0  0  0  0  0
   43.3200   31.9330   38.9610 H   0  0  0  0  0  0  0  0  0  0  0  0
  1  2  1  0  0  0  0
  2  3  2  0  0  0  0
  2  7  1  0  0  0  0
  3  8  1  0  0  0  0
  4  9  1  0  0  0  0
  4  3  1  0  0  0  0
  5  4  2  0  0  0  0
  6  5  1  0  0  0  0
  6  1  2  0  0  0  0
 10  5  1  0  0  0  0
 11 12  2  0  0  0  0
 11 16  1  0  0  0  0
 12 13  1  0  0  0  0
 13  1  1  0  0  0  0
 13 14  2  0  0  0  0
 15 14  1  0  0  0  0
 15 18  1  0  0  0  0
 16 15  2  0  0  0  0
 17 12  1  0  0  0  0
 19 11  1  0  0  0  0
 19 22  1  0  0  0  0
 20 19  1  0  0  0  0
 21 19  1  0  0  0  0
 23 25  1  0  0  0  0
 23 24  2  0  0  0  0
 25  6  1  0  0  0  0
 26 25  1  0  0  0  0
 27 35  1  0  0  0  0
 27 23  1  0  0  0  0
 28 27  1  0  0  0  0
 29 28  1  0  0  0  0
 30 32  1  0  0  0  0
 30 28  1  0  0  0  0
 31 30  1  0  0  0  0
 32 33  1  0  0  0  0
 33 35  1  0  0  0  0
 34 33  1  0  0  0  0
 35 36  1  0  0  0  0
M  END
>  <minimizedAffinity>
-5.57933903

>  <minimizedRMSD>
0.739870906

$$$$
