
 OpenBabel03242523543D

 46 49  0  0  1  0  0  0  0  0999 V2000
   42.9190   34.0250   39.2480 C   0  0  1  0  0  0  0  0  0  0  0  0
   43.1900   35.0490   40.3410 C   0  0  1  0  0  0  0  0  0  0  0  0
   41.9630   35.6520   40.6890 O   0  0  0  0  0  0  0  0  0  0  0  0
   41.1250   35.8330   39.5850 C   0  0  0  0  0  0  0  0  0  0  0  0
   40.5980   34.5170   39.0520 C   0  0  2  0  0  0  0  0  0  0  0  0
   41.5910   33.4130   39.5610 C   0  0  1  0  0  0  0  0  0  0  0  0
   43.7200   33.2480   39.2400 H   0  0  0  0  0  0  0  0  0  0  0  0
   43.9470   35.7910   40.0740 H   0  0  0  0  0  0  0  0  0  0  0  0
   41.5960   36.4550   38.7870 H   0  0  0  0  0  0  0  0  0  0  0  0
   40.2890   36.4560   39.9660 H   0  0  0  0  0  0  0  0  0  0  0  0
   39.5850   34.2830   39.4180 H   0  0  0  0  0  0  0  0  0  0  0  0
   41.3130   33.5260   40.6570 H   0  0  0  0  0  0  0  0  0  0  0  0
   42.8980   34.6390   37.9870 O   0  0  0  0  0  0  0  0  0  0  0  0
   43.1810   34.0080   37.2840 H   0  0  0  0  0  0  0  0  0  0  0  0
   40.6980   34.5020   37.6700 O   0  0  0  0  0  0  0  0  0  0  0  0
   40.6190   33.5860   37.2980 H   0  0  0  0  0  0  0  0  0  0  0  0
   43.5160   34.2810   41.4790 O   0  0  0  0  0  0  0  0  0  0  0  0
   44.6980   34.3170   42.1020 C   0  0  0  0  0  0  0  0  0  0  0  0
   45.8910   34.5090   41.3880 C   0  0  0  0  0  0  0  0  0  0  0  0
   47.0840   34.5380   42.0890 C   0  0  0  0  0  0  0  0  0  0  0  0
   47.0700   34.3760   43.4650 N   0  0  0  0  0  0  0  0  0  0  0  0
   45.9000   34.1920   44.1180 C   0  0  0  0  0  0  0  0  0  0  0  0
   44.7240   34.1610   43.4440 N   0  0  0  0  0  0  0  0  0  0  0  0
   45.8890   34.6330   40.3240 H   0  0  0  0  0  0  0  0  0  0  0  0
   45.9070   34.0660   45.1950 H   0  0  0  0  0  0  0  0  0  0  0  0
   48.3970   34.7180   41.3940 C   0  0  0  0  0  0  0  0  0  0  0  0
   49.0860   36.0720   41.5670 C   0  0  0  0  0  0  0  0  0  0  0  0
   49.6220   34.7410   42.1270 C   0  0  0  0  0  0  0  0  0  0  0  0
   48.3650   34.3220   40.3460 H   0  0  0  0  0  0  0  0  0  0  0  0
   48.5610   36.7650   42.2390 H   0  0  0  0  0  0  0  0  0  0  0  0
   49.5460   36.4720   40.6650 H   0  0  0  0  0  0  0  0  0  0  0  0
   50.5460   34.4200   41.6490 H   0  0  0  0  0  0  0  0  0  0  0  0
   49.5730   34.7280   43.2480 H   0  0  0  0  0  0  0  0  0  0  0  0
   41.2850   32.2710   38.9190 O   0  0  0  0  0  0  0  0  0  0  0  0
   40.1290   31.5800   38.9070 C   0  0  0  0  0  0  0  0  0  0  0  0
   39.3690   31.5170   37.8450 O   0  0  0  0  0  0  0  0  0  0  0  0
   39.1290   30.7210   39.5920 C   0  0  0  0  0  3  0  0  0  0  0  0
   38.2340   31.4920   40.5190 C   0  0  0  0  0  3  0  0  0  0  0  0
   37.4980   32.1120   39.9680 H   0  0  0  0  0  0  0  0  0  0  0  0
   37.4690   30.4320   41.2890 C   0  0  0  0  0  3  0  0  0  0  0  0
   38.2660   29.8240   41.8050 H   0  0  0  0  0  0  0  0  0  0  0  0
   36.7020   29.6770   40.4330 O   0  0  0  0  0  0  0  0  0  0  0  0
   37.4400   29.0030   39.4780 C   0  0  0  0  0  3  0  0  0  0  0  0
   38.2300   28.4070   40.0070 H   0  0  0  0  0  0  0  0  0  0  0  0
   38.2250   29.9950   38.6240 C   0  0  0  0  0  3  0  0  0  0  0  0
   37.5480   30.6900   38.0930 H   0  0  0  0  0  0  0  0  0  0  0  0
  1  7  1  1  0  0  0
  1  6  1  0  0  0  0
  1  2  1  0  0  0  0
  2  8  1  6  0  0  0
  2  3  1  0  0  0  0
  2 17  1  0  0  0  0
  4 10  1  0  0  0  0
  4  3  1  0  0  0  0
  5 11  1  1  0  0  0
  5  6  1  0  0  0  0
  5  4  1  0  0  0  0
  6 12  1  1  0  0  0
  9  4  1  0  0  0  0
 13  1  1  0  0  0  0
 14 13  1  0  0  0  0
 15  5  1  0  0  0  0
 16 15  1  0  0  0  0
 17 18  1  0  0  0  0
 18 23  1  0  0  0  0
 19 20  1  0  0  0  0
 19 18  2  0  0  0  0
 20 21  2  0  0  0  0
 21 22  1  0  0  0  0
 22 25  1  0  0  0  0
 23 22  2  0  0  0  0
 24 19  1  0  0  0  0
 26 27  1  0  0  0  0
 26 20  1  0  0  0  0
 26 28  1  0  0  0  0
 27 28  1  0  0  0  0
 27 30  1  0  0  0  0
 28 33  1  0  0  0  0
 29 26  1  0  0  0  0
 31 27  1  0  0  0  0
 32 28  1  0  0  0  0
 34  6  1  0  0  0  0
 35 34  1  0  0  0  0
 35 37  1  0  0  0  0
 36 35  2  0  0  0  0
 37 38  1  0  0  0  0
 38 40  1  0  0  0  0
 39 38  1  0  0  0  0
 40 41  1  0  0  0  0
 42 40  1  0  0  0  0
 43 44  1  0  0  0  0
 43 42  1  0  0  0  0
 45 43  1  0  0  0  0
 45 37  1  0  0  0  0
 46 45  1  0  0  0  0
M  END
>  <minimizedAffinity>
-6.35203314

>  <minimizedRMSD>
1.96753991

$$$$
