
 OpenBabel03242516163D

 44 48  0  0  1  0  0  0  0  0999 V2000
   48.1180   34.5340   41.6920 C   0  0  0  0  0  0  0  0  0  0  0  0
   48.9890   35.7750   41.4520 C   0  0  0  0  0  0  0  0  0  0  0  0
   49.4820   34.5980   42.1650 C   0  0  0  0  0  0  0  0  0  0  0  0
   48.7000   36.6890   42.0080 H   0  0  0  0  0  0  0  0  0  0  0  0
   49.3250   36.0050   40.4270 H   0  0  0  0  0  0  0  0  0  0  0  0
   50.2590   34.0300   41.6090 H   0  0  0  0  0  0  0  0  0  0  0  0
   49.8230   34.8100   43.1860 H   0  0  0  0  0  0  0  0  0  0  0  0
   47.7940   33.7960   40.4440 C   0  0  0  0  0  0  0  0  0  0  0  0
   48.2410   34.4770   39.1620 C   0  0  0  0  0  0  0  0  0  0  0  0
   47.9370   33.4530   38.0550 C   0  0  0  0  0  0  0  0  0  0  0  0
   46.5500   33.5020   37.8560 O   0  0  0  0  0  0  0  0  0  0  0  0
   46.0460   32.8220   38.9970 C   0  0  0  0  0  0  0  0  0  0  0  0
   46.2610   33.6880   40.2340 C   0  0  0  0  0  0  0  0  0  0  0  0
   48.1360   32.7530   40.4130 H   0  0  0  0  0  0  0  0  0  0  0  0
   49.3300   34.6300   39.1030 H   0  0  0  0  0  0  0  0  0  0  0  0
   47.6300   35.3740   38.9800 H   0  0  0  0  0  0  0  0  0  0  0  0
   48.2980   32.4570   38.3280 H   0  0  0  0  0  0  0  0  0  0  0  0
   48.4850   33.7830   37.1520 H   0  0  0  0  0  0  0  0  0  0  0  0
   44.9900   32.5650   38.9040 H   0  0  0  0  0  0  0  0  0  0  0  0
   46.6300   31.8930   39.1380 H   0  0  0  0  0  0  0  0  0  0  0  0
   45.7740   33.1930   41.0740 H   0  0  0  0  0  0  0  0  0  0  0  0
   45.9300   34.7240   40.0530 H   0  0  0  0  0  0  0  0  0  0  0  0
   46.2160   35.9090   42.6290 C   0  0  0  0  0  0  0  0  0  0  0  0
   46.9790   34.7550   42.6520 C   0  0  0  0  0  0  0  0  0  0  0  0
   46.6590   33.8090   43.6190 C   0  0  0  0  0  0  0  0  0  0  0  0
   45.6320   34.0340   44.4950 N   0  0  0  0  0  0  0  0  0  0  0  0
   44.9440   35.1730   44.4080 C   0  0  0  0  0  0  0  0  0  0  0  0
   45.2120   36.0930   43.5090 N   0  0  0  0  0  0  0  0  0  0  0  0
   43.8640   35.4620   45.2950 N   0  0  0  0  0  0  0  0  0  0  0  0
   46.4460   36.6550   41.8880 H   0  0  0  0  0  0  0  0  0  0  0  0
   44.1810   36.0580   46.0990 H   0  0  0  0  0  0  0  0  0  0  0  0
   42.9530   35.0480   45.0190 H   0  0  0  0  0  0  0  0  0  0  0  0
   47.4300   32.5970   43.8120 C   0  0  2  0  0  3  0  0  0  0  0  0
   47.8970   32.0980   44.8620 O   0  0  0  0  0  0  0  0  0  0  0  0
   48.1310   31.3560   43.4100 C   0  0  0  0  0  0  0  0  0  0  0  0
   48.0320   30.2510   44.4600 C   0  0  0  0  0  3  0  0  0  0  0  0
   47.8480   30.7060   45.4500 H   0  0  0  0  0  0  0  0  0  0  0  0
   47.0030   29.2160   44.1780 C   0  0  0  0  0  3  0  0  0  0  0  0
   47.1240   28.4310   44.9810 H   0  0  0  0  0  0  0  0  0  0  0  0
   47.2400   28.5310   42.9820 O   0  0  0  0  0  0  0  0  0  0  0  0
   48.0670   29.2890   42.1470 C   0  0  0  0  0  3  0  0  0  0  0  0
   48.1650   28.8710   41.1490 H   0  0  0  0  0  0  0  0  0  0  0  0
   47.5890   30.7360   42.1330 C   0  0  0  0  0  3  0  0  0  0  0  0
   48.0190   31.1840   41.2480 H   0  0  0  0  0  0  0  0  0  0  0  0
  1  3  1  0  0  0  0
  1 24  1  0  0  0  0
  2  1  1  0  0  0  0
  2  4  1  0  0  0  0
  2  3  1  0  0  0  0
  3  7  1  0  0  0  0
  5  2  1  0  0  0  0
  6  3  1  0  0  0  0
  8  1  1  0  0  0  0
  9  8  1  0  0  0  0
 10 17  1  0  0  0  0
 10  9  1  0  0  0  0
 11 10  1  0  0  0  0
 11 12  1  0  0  0  0
 12 20  1  0  0  0  0
 12 13  1  0  0  0  0
 13  8  1  0  0  0  0
 13 21  1  0  0  0  0
 14  8  1  0  0  0  0
 15  9  1  0  0  0  0
 16  9  1  0  0  0  0
 18 10  1  0  0  0  0
 19 12  1  0  0  0  0
 22 13  1  0  0  0  0
 23 24  2  0  0  0  0
 23 28  1  0  0  0  0
 24 25  1  0  0  0  0
 25 26  2  0  0  0  0
 27 26  1  0  0  0  0
 27 29  1  0  0  0  0
 28 27  2  0  0  0  0
 29 31  1  0  0  0  0
 30 23  1  0  0  0  0
 32 29  1  0  0  0  0
 33 25  1  6  0  0  0
 33 34  1  0  0  0  0
 35 33  1  0  0  0  0
 35 36  1  0  0  0  0
 35 34  1  0  0  0  0
 36 37  1  0  0  0  0
 38 36  1  0  0  0  0
 38 39  1  0  0  0  0
 40 38  1  0  0  0  0
 41 40  1  0  0  0  0
 42 41  1  0  0  0  0
 43 41  1  0  0  0  0
 43 35  1  0  0  0  0
 44 43  1  0  0  0  0
M  END
>  <minimizedAffinity>
-5.21215582

>  <minimizedRMSD>
1.15983403

$$$$
