
 OpenBabel03242523543D

 46 49  0  0  1  0  0  0  0  0999 V2000
   42.9200   34.0240   39.2480 C   0  0  1  0  0  0  0  0  0  0  0  0
   43.1920   35.0480   40.3410 C   0  0  1  0  0  0  0  0  0  0  0  0
   41.9650   35.6520   40.6890 O   0  0  0  0  0  0  0  0  0  0  0  0
   41.1270   35.8320   39.5850 C   0  0  0  0  0  0  0  0  0  0  0  0
   40.6000   34.5160   39.0520 C   0  0  2  0  0  0  0  0  0  0  0  0
   41.5920   33.4120   39.5620 C   0  0  1  0  0  0  0  0  0  0  0  0
   43.7220   33.2460   39.2410 H   0  0  0  0  0  0  0  0  0  0  0  0
   43.9490   35.7890   40.0740 H   0  0  0  0  0  0  0  0  0  0  0  0
   41.5990   36.4530   38.7860 H   0  0  0  0  0  0  0  0  0  0  0  0
   40.2920   36.4560   39.9650 H   0  0  0  0  0  0  0  0  0  0  0  0
   39.5860   34.2830   39.4180 H   0  0  0  0  0  0  0  0  0  0  0  0
   41.3140   33.5260   40.6580 H   0  0  0  0  0  0  0  0  0  0  0  0
   42.9000   34.6370   37.9880 O   0  0  0  0  0  0  0  0  0  0  0  0
   43.1820   34.0050   37.2840 H   0  0  0  0  0  0  0  0  0  0  0  0
   40.7000   34.5000   37.6700 O   0  0  0  0  0  0  0  0  0  0  0  0
   40.6210   33.5850   37.2990 H   0  0  0  0  0  0  0  0  0  0  0  0
   43.5180   34.2800   41.4790 O   0  0  0  0  0  0  0  0  0  0  0  0
   44.6990   34.3150   42.1030 C   0  0  0  0  0  0  0  0  0  0  0  0
   45.8920   34.5080   41.3890 C   0  0  0  0  0  0  0  0  0  0  0  0
   47.0850   34.5360   42.0900 C   0  0  0  0  0  0  0  0  0  0  0  0
   47.0710   34.3740   43.4660 N   0  0  0  0  0  0  0  0  0  0  0  0
   45.9010   34.1890   44.1190 C   0  0  0  0  0  0  0  0  0  0  0  0
   44.7250   34.1590   43.4440 N   0  0  0  0  0  0  0  0  0  0  0  0
   45.8910   34.6330   40.3250 H   0  0  0  0  0  0  0  0  0  0  0  0
   45.9080   34.0630   45.1950 H   0  0  0  0  0  0  0  0  0  0  0  0
   48.3980   34.7180   41.3950 C   0  0  0  0  0  0  0  0  0  0  0  0
   49.0850   36.0720   41.5660 C   0  0  0  0  0  0  0  0  0  0  0  0
   49.6230   34.7440   42.1290 C   0  0  0  0  0  0  0  0  0  0  0  0
   48.3670   34.3190   40.3480 H   0  0  0  0  0  0  0  0  0  0  0  0
   48.5590   36.7660   42.2360 H   0  0  0  0  0  0  0  0  0  0  0  0
   49.5450   36.4710   40.6640 H   0  0  0  0  0  0  0  0  0  0  0  0
   50.5480   34.4230   41.6520 H   0  0  0  0  0  0  0  0  0  0  0  0
   49.5740   34.7330   43.2490 H   0  0  0  0  0  0  0  0  0  0  0  0
   41.2860   32.2700   38.9200 O   0  0  0  0  0  0  0  0  0  0  0  0
   40.1300   31.5800   38.9080 C   0  0  0  0  0  0  0  0  0  0  0  0
   39.3690   31.5180   37.8460 O   0  0  0  0  0  0  0  0  0  0  0  0
   39.1290   30.7210   39.5930 C   0  0  0  0  0  3  0  0  0  0  0  0
   38.2340   31.4920   40.5190 C   0  0  0  0  0  3  0  0  0  0  0  0
   37.4980   32.1130   39.9690 H   0  0  0  0  0  0  0  0  0  0  0  0
   37.4690   30.4320   41.2890 C   0  0  0  0  0  3  0  0  0  0  0  0
   38.2650   29.8240   41.8070 H   0  0  0  0  0  0  0  0  0  0  0  0
   36.7010   29.6770   40.4340 O   0  0  0  0  0  0  0  0  0  0  0  0
   37.4400   29.0030   39.4780 C   0  0  0  0  0  3  0  0  0  0  0  0
   38.2290   28.4070   40.0080 H   0  0  0  0  0  0  0  0  0  0  0  0
   38.2250   29.9940   38.6250 C   0  0  0  0  0  3  0  0  0  0  0  0
   37.5480   30.6900   38.0940 H   0  0  0  0  0  0  0  0  0  0  0  0
  1  7  1  1  0  0  0
  1  6  1  0  0  0  0
  1  2  1  0  0  0  0
  2  8  1  6  0  0  0
  2  3  1  0  0  0  0
  2 17  1  0  0  0  0
  4 10  1  0  0  0  0
  4  3  1  0  0  0  0
  5 11  1  1  0  0  0
  5  6  1  0  0  0  0
  5  4  1  0  0  0  0
  6 12  1  1  0  0  0
  9  4  1  0  0  0  0
 13  1  1  0  0  0  0
 14 13  1  0  0  0  0
 15  5  1  0  0  0  0
 16 15  1  0  0  0  0
 17 18  1  0  0  0  0
 18 23  1  0  0  0  0
 19 20  1  0  0  0  0
 19 18  2  0  0  0  0
 20 21  2  0  0  0  0
 21 22  1  0  0  0  0
 22 25  1  0  0  0  0
 23 22  2  0  0  0  0
 24 19  1  0  0  0  0
 26 27  1  0  0  0  0
 26 20  1  0  0  0  0
 26 28  1  0  0  0  0
 27 28  1  0  0  0  0
 27 30  1  0  0  0  0
 28 33  1  0  0  0  0
 29 26  1  0  0  0  0
 31 27  1  0  0  0  0
 32 28  1  0  0  0  0
 34  6  1  0  0  0  0
 35 34  1  0  0  0  0
 35 37  1  0  0  0  0
 36 35  2  0  0  0  0
 37 38  1  0  0  0  0
 38 40  1  0  0  0  0
 39 38  1  0  0  0  0
 40 41  1  0  0  0  0
 42 40  1  0  0  0  0
 43 44  1  0  0  0  0
 43 42  1  0  0  0  0
 45 43  1  0  0  0  0
 45 37  1  0  0  0  0
 46 45  1  0  0  0  0
M  END
>  <minimizedAffinity>
-6.3526597

>  <minimizedRMSD>
2.04480958

$$$$
