
 OpenBabel03252502283D

 36 38  0  0  0  0  0  0  0  0999 V2000
   45.1130   34.5000   41.2220 C   0  0  0  0  0  0  0  0  0  0  0  0
   45.3680   35.2070   42.3940 C   0  0  0  0  0  0  0  0  0  0  0  0
   46.6910   35.4820   42.7270 C   0  0  0  0  0  0  0  0  0  0  0  0
   47.7080   35.0590   41.9060 C   0  0  0  0  0  0  0  0  0  0  0  0
   47.4710   34.3620   40.7490 C   0  0  0  0  0  0  0  0  0  0  0  0
   46.1370   34.0930   40.4260 C   0  0  0  0  0  0  0  0  0  0  0  0
   44.5760   35.5440   43.0460 H   0  0  0  0  0  0  0  0  0  0  0  0
   46.9810   36.0240   43.6180 H   0  0  0  0  0  0  0  0  0  0  0  0
   48.7400   35.2700   42.1590 H   0  0  0  0  0  0  0  0  0  0  0  0
   48.2440   34.0110   40.0750 H   0  0  0  0  0  0  0  0  0  0  0  0
   41.4800   34.8230   40.2590 C   0  0  0  0  0  0  0  0  0  0  0  0
   42.8100   35.1870   40.5070 C   0  0  0  0  0  0  0  0  0  0  0  0
   43.7190   34.2500   40.9340 C   0  0  0  0  0  0  0  0  0  0  0  0
   43.2420   32.9890   41.0890 N   0  0  0  0  0  0  0  0  0  0  0  0
   41.9620   32.6350   40.8520 C   0  0  0  0  0  0  0  0  0  0  0  0
   41.0690   33.5620   40.4320 N   0  0  0  0  0  0  0  0  0  0  0  0
   43.1620   36.2010   40.3730 H   0  0  0  0  0  0  0  0  0  0  0  0
   41.7390   31.6010   41.0210 H   0  0  0  0  0  0  0  0  0  0  0  0
   40.5040   35.8370   39.8000 C   0  0  0  0  0  0  0  0  0  0  0  0
   39.3200   35.1630   39.4820 F   0  0  0  0  0  0  0  0  0  0  0  0
   40.9720   36.3130   38.5710 F   0  0  0  0  0  0  0  0  0  0  0  0
   40.2790   36.8350   40.6950 F   0  0  0  0  0  0  0  0  0  0  0  0
   46.0130   32.1020   38.7560 C   0  0  0  0  0  0  0  0  0  0  0  0
   46.6800   31.2300   39.2940 O   0  0  0  0  0  0  0  0  0  0  0  0
   45.7570   33.3930   39.2630 N   0  0  0  0  0  0  0  0  0  0  0  0
   45.1460   34.0710   38.7090 H   0  0  0  0  0  0  0  0  0  0  0  0
   45.3990   31.7700   37.4200 C   0  0  0  0  0  3  0  0  0  0  0  0
   44.0050   31.3050   37.6310 C   0  0  0  0  0  3  0  0  0  0  0  0
   43.4040   31.9680   38.2710 H   0  0  0  0  0  0  0  0  0  0  0  0
   43.3780   31.1660   36.2380 C   0  0  0  0  0  3  0  0  0  0  0  0
   42.4800   30.5350   36.2390 H   0  0  0  0  0  0  0  0  0  0  0  0
   44.3330   30.7710   35.3170 O   0  0  0  0  0  0  0  0  0  0  0  0
   45.3010   29.9230   35.8500 C   0  0  0  0  0  3  0  0  0  0  0  0
   44.8690   29.0770   36.4170 H   0  0  0  0  0  0  0  0  0  0  0  0
   46.2180   30.6540   36.8050 C   0  0  0  0  0  3  0  0  0  0  0  0
   46.5810   30.0210   37.6410 H   0  0  0  0  0  0  0  0  0  0  0  0
  1  2  1  0  0  0  0
  2  3  2  0  0  0  0
  2  7  1  0  0  0  0
  3  8  1  0  0  0  0
  4  9  1  0  0  0  0
  4  3  1  0  0  0  0
  5  4  2  0  0  0  0
  6  5  1  0  0  0  0
  6  1  2  0  0  0  0
 10  5  1  0  0  0  0
 11 16  2  0  0  0  0
 11 12  1  0  0  0  0
 12 13  2  0  0  0  0
 13 14  1  0  0  0  0
 13  1  1  0  0  0  0
 15 18  1  0  0  0  0
 15 14  2  0  0  0  0
 16 15  1  0  0  0  0
 17 12  1  0  0  0  0
 19 11  1  0  0  0  0
 19 22  1  0  0  0  0
 20 19  1  0  0  0  0
 21 19  1  0  0  0  0
 23 25  1  0  0  0  0
 23 24  2  0  0  0  0
 25  6  1  0  0  0  0
 26 25  1  0  0  0  0
 27 28  1  0  0  0  0
 27 23  1  0  0  0  0
 28 29  1  0  0  0  0
 30 31  1  0  0  0  0
 30 28  1  0  0  0  0
 32 33  1  0  0  0  0
 32 30  1  0  0  0  0
 33 34  1  0  0  0  0
 33 35  1  0  0  0  0
 35 27  1  0  0  0  0
 35 36  1  0  0  0  0
M  END
>  <minimizedAffinity>
-5.58762789

>  <minimizedRMSD>
0.620067537

$$$$
