
 OpenBabel03242517003D

 33 35  0  0  0  0  0  0  0  0999 V2000
   46.6270   34.7560   41.9930 C   0  0  0  0  0  0  0  0  0  0  0  0
   47.9040   35.2710   41.9160 C   0  0  0  0  0  0  0  0  0  0  0  0
   48.6260   35.0960   40.7550 C   0  0  0  0  0  0  0  0  0  0  0  0
   48.0660   34.4170   39.7030 C   0  0  0  0  0  0  0  0  0  0  0  0
   46.7980   33.8920   39.7420 C   0  0  0  0  0  0  0  0  0  0  0  0
   46.0880   34.0870   40.9390 C   0  0  0  0  0  0  0  0  0  0  0  0
   48.3480   35.8080   42.7490 H   0  0  0  0  0  0  0  0  0  0  0  0
   49.6200   35.5110   40.7330 H   0  0  0  0  0  0  0  0  0  0  0  0
   48.6690   34.3040   38.8120 H   0  0  0  0  0  0  0  0  0  0  0  0
   46.3370   33.3580   38.9340 H   0  0  0  0  0  0  0  0  0  0  0  0
   44.4980   36.1690   44.7820 C   0  0  0  0  0  0  0  0  0  0  0  0
   45.1380   36.0760   43.5300 C   0  0  0  0  0  0  0  0  0  0  0  0
   45.9130   34.9730   43.2480 C   0  0  0  0  0  0  0  0  0  0  0  0
   46.0160   34.0150   44.2250 N   0  0  0  0  0  0  0  0  0  0  0  0
   45.3940   34.1210   45.4210 C   0  0  0  0  0  0  0  0  0  0  0  0
   44.6300   35.2090   45.6970 N   0  0  0  0  0  0  0  0  0  0  0  0
   43.9230   37.0900   44.8610 H   0  0  0  0  0  0  0  0  0  0  0  0
   45.0670   36.8170   42.7570 H   0  0  0  0  0  0  0  0  0  0  0  0
   45.4910   33.3580   46.1620 H   0  0  0  0  0  0  0  0  0  0  0  0
   43.4820   34.0790   40.8050 C   0  0  0  0  0  0  0  0  0  0  0  0
   43.1890   35.1390   40.2500 O   0  0  0  0  0  0  0  0  0  0  0  0
   44.7760   33.5920   41.1120 N   0  0  0  0  0  0  0  0  0  0  0  0
   44.9740   32.6680   41.5740 H   0  0  0  0  0  0  0  0  0  0  0  0
   42.3940   33.1320   41.2410 C   0  0  0  0  0  3  0  0  0  0  0  0
   41.6730   32.5950   39.9980 C   0  0  0  0  0  3  0  0  0  0  0  0
   41.2180   33.4730   39.5060 H   0  0  0  0  0  0  0  0  0  0  0  0
   40.6370   31.6220   40.5160 C   0  0  0  0  0  3  0  0  0  0  0  0
   39.6340   32.0660   40.2780 H   0  0  0  0  0  0  0  0  0  0  0  0
   40.6580   31.4390   41.8760 O   0  0  0  0  0  0  0  0  0  0  0  0
   41.8920   30.9980   42.3480 C   0  0  0  0  0  3  0  0  0  0  0  0
   41.8490   31.0760   43.4600 H   0  0  0  0  0  0  0  0  0  0  0  0
   43.0150   31.9090   41.8900 C   0  0  0  0  0  3  0  0  0  0  0  0
   43.6130   31.3200   41.1590 H   0  0  0  0  0  0  0  0  0  0  0  0
  1 13  1  0  0  0  0
  2  1  1  0  0  0  0
  2  7  1  0  0  0  0
  3  2  2  0  0  0  0
  4  5  2  0  0  0  0
  4  3  1  0  0  0  0
  5  6  1  0  0  0  0
  6 22  1  0  0  0  0
  6  1  2  0  0  0  0
  8  3  1  0  0  0  0
  9  4  1  0  0  0  0
 10  5  1  0  0  0  0
 11 17  1  0  0  0  0
 11 16  1  0  0  0  0
 12 11  2  0  0  0  0
 13 12  1  0  0  0  0
 13 14  2  0  0  0  0
 14 15  1  0  0  0  0
 15 16  2  0  0  0  0
 15 19  1  0  0  0  0
 18 12  1  0  0  0  0
 20 22  1  0  0  0  0
 20 24  1  0  0  0  0
 21 20  2  0  0  0  0
 22 23  1  0  0  0  0
 24 32  1  0  0  0  0
 25 27  1  0  0  0  0
 25 24  1  0  0  0  0
 26 25  1  0  0  0  0
 27 29  1  0  0  0  0
 28 27  1  0  0  0  0
 29 30  1  0  0  0  0
 30 31  1  0  0  0  0
 32 30  1  0  0  0  0
 33 32  1  0  0  0  0
M  END
>  <minimizedAffinity>
-6.05831861

>  <minimizedRMSD>
0.235633582

$$$$
