
 OpenBabel03242510503D

 23 24  0  0  0  0  0  0  0  0999 V2000
   44.6430   36.6020   43.8070 C   0  0  0  0  0  0  0  0  0  0  0  0
   45.3570   36.1620   42.6670 C   0  0  0  0  0  0  0  0  0  0  0  0
   46.0320   34.9290   42.7670 C   0  0  0  0  0  0  0  0  0  0  0  0
   45.9610   34.2380   43.9380 N   0  0  0  0  0  0  0  0  0  0  0  0
   45.2760   34.6890   44.9940 C   0  0  0  0  0  0  0  0  0  0  0  0
   44.6100   35.8770   44.9340 N   0  0  0  0  0  0  0  0  0  0  0  0
   46.2330   32.8830   46.2860 C   0  0  0  0  0  0  0  0  0  0  0  0
   47.1070   32.6180   45.4330 O   0  0  0  0  0  0  0  0  0  0  0  0
   45.2580   33.9020   46.1750 N   0  0  0  0  0  0  0  0  0  0  0  0
   44.1440   37.5510   43.6800 H   0  0  0  0  0  0  0  0  0  0  0  0
   45.4120   36.7060   41.7410 H   0  0  0  0  0  0  0  0  0  0  0  0
   46.6070   34.4970   41.9560 H   0  0  0  0  0  0  0  0  0  0  0  0
   44.5650   34.0540   46.9370 H   0  0  0  0  0  0  0  0  0  0  0  0
   46.2190   32.0460   47.5350 C   0  0  0  0  0  3  0  0  0  0  0  0
   47.5610   31.4740   47.8710 C   0  0  0  0  0  3  0  0  0  0  0  0
   48.2670   32.3170   47.9470 H   0  0  0  0  0  0  0  0  0  0  0  0
   47.4270   30.8340   49.2360 C   0  0  0  0  0  3  0  0  0  0  0  0
   47.8240   29.7920   49.1780 H   0  0  0  0  0  0  0  0  0  0  0  0
   46.1120   30.7010   49.6590 O   0  0  0  0  0  0  0  0  0  0  0  0
   45.3560   30.0740   48.6650 C   0  0  0  0  0  3  0  0  0  0  0  0
   44.3850   29.8190   49.0930 H   0  0  0  0  0  0  0  0  0  0  0  0
   45.1470   30.9880   47.4750 C   0  0  0  0  0  3  0  0  0  0  0  0
   45.2950   30.4370   46.5140 H   0  0  0  0  0  0  0  0  0  0  0  0
  1  6  1  0  0  0  0
  2  3  1  0  0  0  0
  2  1  2  0  0  0  0
  3  4  2  0  0  0  0
  4  5  1  0  0  0  0
  5  9  1  0  0  0  0
  6  5  2  0  0  0  0
  7 14  1  0  0  0  0
  8  7  2  0  0  0  0
  9  7  1  0  0  0  0
  9 13  1  0  0  0  0
 10  1  1  0  0  0  0
 11  2  1  0  0  0  0
 12  3  1  0  0  0  0
 14 15  1  0  0  0  0
 15 16  1  0  0  0  0
 15 17  1  0  0  0  0
 17 19  1  0  0  0  0
 18 17  1  0  0  0  0
 20 21  1  0  0  0  0
 20 19  1  0  0  0  0
 22 14  1  0  0  0  0
 22 20  1  0  0  0  0
 23 22  1  0  0  0  0
M  END
>  <minimizedAffinity>
-4.78533125

>  <minimizedRMSD>
1.10089302

$$$$
