
 OpenBabel03242523543D

 46 49  0  0  1  0  0  0  0  0999 V2000
   42.5300   34.2290   39.0300 C   0  0  1  0  0  0  0  0  0  0  0  0
   42.9860   35.0820   40.2060 C   0  0  1  0  0  0  0  0  0  0  0  0
   41.8380   35.5900   40.8480 O   0  0  0  0  0  0  0  0  0  0  0  0
   40.8190   35.9120   39.9470 C   0  0  0  0  0  0  0  0  0  0  0  0
   40.2100   34.6770   39.3150 C   0  0  2  0  0  0  0  0  0  0  0  0
   41.2780   33.5380   39.4690 C   0  0  1  0  0  0  0  0  0  0  0  0
   43.3190   33.4850   38.7650 H   0  0  0  0  0  0  0  0  0  0  0  0
   43.6830   35.8760   39.9300 H   0  0  0  0  0  0  0  0  0  0  0  0
   41.1430   36.6610   39.1850 H   0  0  0  0  0  0  0  0  0  0  0  0
   40.0620   36.4460   40.5570 H   0  0  0  0  0  0  0  0  0  0  0  0
   39.2760   34.3620   39.8090 H   0  0  0  0  0  0  0  0  0  0  0  0
   41.1950   33.4760   40.6000 H   0  0  0  0  0  0  0  0  0  0  0  0
   42.2890   35.0250   37.9030 O   0  0  0  0  0  0  0  0  0  0  0  0
   42.4460   34.5170   37.0720 H   0  0  0  0  0  0  0  0  0  0  0  0
   40.0680   34.8750   37.9510 O   0  0  0  0  0  0  0  0  0  0  0  0
   39.9270   34.0250   37.4610 H   0  0  0  0  0  0  0  0  0  0  0  0
   43.5070   34.1590   41.1380 O   0  0  0  0  0  0  0  0  0  0  0  0
   44.6410   34.3350   41.8240 C   0  0  0  0  0  0  0  0  0  0  0  0
   45.8740   34.4640   41.1670 C   0  0  0  0  0  0  0  0  0  0  0  0
   47.0140   34.6450   41.9310 C   0  0  0  0  0  0  0  0  0  0  0  0
   46.9080   34.6930   43.3120 N   0  0  0  0  0  0  0  0  0  0  0  0
   45.7020   34.5640   43.9080 C   0  0  0  0  0  0  0  0  0  0  0  0
   44.5770   34.3850   43.1720 N   0  0  0  0  0  0  0  0  0  0  0  0
   45.9430   34.4260   40.0990 H   0  0  0  0  0  0  0  0  0  0  0  0
   45.6370   34.6030   44.9900 H   0  0  0  0  0  0  0  0  0  0  0  0
   48.3660   34.7710   41.3030 C   0  0  0  0  0  0  0  0  0  0  0  0
   49.1150   36.0830   41.5370 C   0  0  0  0  0  0  0  0  0  0  0  0
   49.5540   34.7160   42.0940 C   0  0  0  0  0  0  0  0  0  0  0  0
   48.3650   34.3950   40.2470 H   0  0  0  0  0  0  0  0  0  0  0  0
   48.5930   36.7900   42.1980 H   0  0  0  0  0  0  0  0  0  0  0  0
   49.6370   36.4750   40.6670 H   0  0  0  0  0  0  0  0  0  0  0  0
   50.4830   34.3560   41.6540 H   0  0  0  0  0  0  0  0  0  0  0  0
   49.4510   34.6850   43.2110 H   0  0  0  0  0  0  0  0  0  0  0  0
   40.8670   32.4990   38.7200 O   0  0  0  0  0  0  0  0  0  0  0  0
   39.7380   31.7710   38.8140 C   0  0  0  0  0  0  0  0  0  0  0  0
   38.7990   31.8230   37.9050 O   0  0  0  0  0  0  0  0  0  0  0  0
   38.8910   30.7870   39.5370 C   0  0  0  0  0  3  0  0  0  0  0  0
   38.0080   31.4230   40.5720 C   0  0  0  0  0  3  0  0  0  0  0  0
   37.1710   31.9870   40.1150 H   0  0  0  0  0  0  0  0  0  0  0  0
   37.4220   30.2600   41.3490 C   0  0  0  0  0  3  0  0  0  0  0  0
   38.3160   29.7150   41.7670 H   0  0  0  0  0  0  0  0  0  0  0  0
   36.6600   29.4660   40.5230 O   0  0  0  0  0  0  0  0  0  0  0  0
   37.3760   28.9100   39.4770 C   0  0  0  0  0  3  0  0  0  0  0  0
   38.2630   28.3780   39.9090 H   0  0  0  0  0  0  0  0  0  0  0  0
   37.9820   30.0130   38.6120 C   0  0  0  0  0  3  0  0  0  0  0  0
   37.1960   30.6550   38.1750 H   0  0  0  0  0  0  0  0  0  0  0  0
  1  7  1  6  0  0  0
  1  6  1  0  0  0  0
  1  2  1  0  0  0  0
  2  8  1  6  0  0  0
  2  3  1  0  0  0  0
  2 17  1  0  0  0  0
  4 10  1  0  0  0  0
  4  3  1  0  0  0  0
  5  6  1  0  0  0  0
  5 11  1  1  0  0  0
  5  4  1  0  0  0  0
  6 12  1  1  0  0  0
  9  4  1  0  0  0  0
 13  1  1  0  0  0  0
 14 13  1  0  0  0  0
 15  5  1  0  0  0  0
 16 15  1  0  0  0  0
 17 18  1  0  0  0  0
 18 23  1  0  0  0  0
 19 18  2  0  0  0  0
 19 20  1  0  0  0  0
 20 21  2  0  0  0  0
 21 22  1  0  0  0  0
 22 25  1  0  0  0  0
 23 22  2  0  0  0  0
 24 19  1  0  0  0  0
 26 27  1  0  0  0  0
 26 20  1  0  0  0  0
 26 28  1  0  0  0  0
 27 28  1  0  0  0  0
 27 30  1  0  0  0  0
 28 33  1  0  0  0  0
 29 26  1  0  0  0  0
 31 27  1  0  0  0  0
 32 28  1  0  0  0  0
 34 35  1  0  0  0  0
 34  6  1  0  0  0  0
 35 37  1  0  0  0  0
 36 35  2  0  0  0  0
 37 38  1  0  0  0  0
 38 40  1  0  0  0  0
 39 38  1  0  0  0  0
 40 41  1  0  0  0  0
 42 40  1  0  0  0  0
 43 44  1  0  0  0  0
 43 42  1  0  0  0  0
 45 43  1  0  0  0  0
 45 37  1  0  0  0  0
 46 45  1  0  0  0  0
M  END
>  <minimizedAffinity>
-6.2927413

>  <minimizedRMSD>
1.71561551

$$$$
