
 OpenBabel03242517003D

 33 35  0  0  0  0  0  0  0  0999 V2000
   46.6270   34.7560   41.9930 C   0  0  0  0  0  0  0  0  0  0  0  0
   47.9040   35.2700   41.9160 C   0  0  0  0  0  0  0  0  0  0  0  0
   48.6260   35.0950   40.7560 C   0  0  0  0  0  0  0  0  0  0  0  0
   48.0650   34.4170   39.7030 C   0  0  0  0  0  0  0  0  0  0  0  0
   46.7970   33.8920   39.7420 C   0  0  0  0  0  0  0  0  0  0  0  0
   46.0880   34.0870   40.9390 C   0  0  0  0  0  0  0  0  0  0  0  0
   48.3480   35.8070   42.7490 H   0  0  0  0  0  0  0  0  0  0  0  0
   49.6200   35.5100   40.7330 H   0  0  0  0  0  0  0  0  0  0  0  0
   48.6680   34.3030   38.8120 H   0  0  0  0  0  0  0  0  0  0  0  0
   46.3360   33.3580   38.9340 H   0  0  0  0  0  0  0  0  0  0  0  0
   44.4980   36.1690   44.7820 C   0  0  0  0  0  0  0  0  0  0  0  0
   45.1380   36.0760   43.5300 C   0  0  0  0  0  0  0  0  0  0  0  0
   45.9130   34.9730   43.2490 C   0  0  0  0  0  0  0  0  0  0  0  0
   46.0150   34.0150   44.2260 N   0  0  0  0  0  0  0  0  0  0  0  0
   45.3940   34.1210   45.4210 C   0  0  0  0  0  0  0  0  0  0  0  0
   44.6300   35.2090   45.6980 N   0  0  0  0  0  0  0  0  0  0  0  0
   43.9230   37.0900   44.8610 H   0  0  0  0  0  0  0  0  0  0  0  0
   45.0670   36.8160   42.7580 H   0  0  0  0  0  0  0  0  0  0  0  0
   45.4910   33.3580   46.1630 H   0  0  0  0  0  0  0  0  0  0  0  0
   43.4810   34.0800   40.8050 C   0  0  0  0  0  0  0  0  0  0  0  0
   43.1890   35.1400   40.2500 O   0  0  0  0  0  0  0  0  0  0  0  0
   44.7750   33.5920   41.1130 N   0  0  0  0  0  0  0  0  0  0  0  0
   44.9730   32.6690   41.5750 H   0  0  0  0  0  0  0  0  0  0  0  0
   42.3930   33.1330   41.2410 C   0  0  0  0  0  3  0  0  0  0  0  0
   41.6720   32.5960   39.9980 C   0  0  0  0  0  3  0  0  0  0  0  0
   41.2180   33.4720   39.5050 H   0  0  0  0  0  0  0  0  0  0  0  0
   40.6370   31.6220   40.5140 C   0  0  0  0  0  3  0  0  0  0  0  0
   39.6340   32.0660   40.2760 H   0  0  0  0  0  0  0  0  0  0  0  0
   40.6570   31.4390   41.8750 O   0  0  0  0  0  0  0  0  0  0  0  0
   41.8910   30.9980   42.3480 C   0  0  0  0  0  3  0  0  0  0  0  0
   41.8460   31.0770   43.4600 H   0  0  0  0  0  0  0  0  0  0  0  0
   43.0150   31.9090   41.8900 C   0  0  0  0  0  3  0  0  0  0  0  0
   43.6120   31.3210   41.1600 H   0  0  0  0  0  0  0  0  0  0  0  0
  1 13  1  0  0  0  0
  2  1  1  0  0  0  0
  2  7  1  0  0  0  0
  3  2  2  0  0  0  0
  4  5  2  0  0  0  0
  4  3  1  0  0  0  0
  5  6  1  0  0  0  0
  6 22  1  0  0  0  0
  6  1  2  0  0  0  0
  8  3  1  0  0  0  0
  9  4  1  0  0  0  0
 10  5  1  0  0  0  0
 11 17  1  0  0  0  0
 11 16  1  0  0  0  0
 12 11  2  0  0  0  0
 13 12  1  0  0  0  0
 13 14  2  0  0  0  0
 14 15  1  0  0  0  0
 15 16  2  0  0  0  0
 15 19  1  0  0  0  0
 18 12  1  0  0  0  0
 20 22  1  0  0  0  0
 20 24  1  0  0  0  0
 21 20  2  0  0  0  0
 22 23  1  0  0  0  0
 24 32  1  0  0  0  0
 25 27  1  0  0  0  0
 25 24  1  0  0  0  0
 26 25  1  0  0  0  0
 27 29  1  0  0  0  0
 28 27  1  0  0  0  0
 29 30  1  0  0  0  0
 30 31  1  0  0  0  0
 32 30  1  0  0  0  0
 33 32  1  0  0  0  0
M  END
>  <minimizedAffinity>
-6.05811501

>  <minimizedRMSD>
0.861520052

$$$$
