
 OpenBabel03252502283D

 36 38  0  0  0  0  0  0  0  0999 V2000
   44.9250   34.4780   41.3710 C   0  0  0  0  0  0  0  0  0  0  0  0
   45.2220   35.3330   42.4290 C   0  0  0  0  0  0  0  0  0  0  0  0
   46.5570   35.6200   42.6950 C   0  0  0  0  0  0  0  0  0  0  0  0
   47.5460   35.0610   41.9220 C   0  0  0  0  0  0  0  0  0  0  0  0
   47.2680   34.2180   40.8780 C   0  0  0  0  0  0  0  0  0  0  0  0
   45.9220   33.9400   40.6200 C   0  0  0  0  0  0  0  0  0  0  0  0
   44.4510   35.7770   43.0430 H   0  0  0  0  0  0  0  0  0  0  0  0
   46.8790   36.2720   43.4970 H   0  0  0  0  0  0  0  0  0  0  0  0
   48.5880   35.2800   42.1240 H   0  0  0  0  0  0  0  0  0  0  0  0
   48.0190   33.7580   40.2440 H   0  0  0  0  0  0  0  0  0  0  0  0
   41.2700   34.7690   40.4840 C   0  0  0  0  0  0  0  0  0  0  0  0
   42.6120   35.1330   40.6590 C   0  0  0  0  0  0  0  0  0  0  0  0
   43.5200   34.2250   41.1470 C   0  0  0  0  0  0  0  0  0  0  0  0
   43.0300   32.9930   41.4350 N   0  0  0  0  0  0  0  0  0  0  0  0
   41.7390   32.6390   41.2680 C   0  0  0  0  0  0  0  0  0  0  0  0
   40.8470   33.5370   40.7870 N   0  0  0  0  0  0  0  0  0  0  0  0
   42.9740   36.1240   40.4210 H   0  0  0  0  0  0  0  0  0  0  0  0
   41.5070   31.6290   41.5400 H   0  0  0  0  0  0  0  0  0  0  0  0
   40.2950   35.7510   39.9590 C   0  0  0  0  0  0  0  0  0  0  0  0
   39.1610   35.0390   39.5530 F   0  0  0  0  0  0  0  0  0  0  0  0
   40.8340   36.2500   38.7680 F   0  0  0  0  0  0  0  0  0  0  0  0
   39.9720   36.7360   40.8380 F   0  0  0  0  0  0  0  0  0  0  0  0
   45.7250   31.7440   39.2400 C   0  0  0  0  0  0  0  0  0  0  0  0
   46.3940   30.9410   39.8750 O   0  0  0  0  0  0  0  0  0  0  0  0
   45.5010   33.0960   39.5730 N   0  0  0  0  0  0  0  0  0  0  0  0
   44.8850   33.7030   38.9470 H   0  0  0  0  0  0  0  0  0  0  0  0
   45.0700   31.2440   37.9770 C   0  0  0  0  0  3  0  0  0  0  0  0
   45.2980   32.2300   36.8920 C   0  0  0  0  0  3  0  0  0  0  0  0
   46.3480   32.5430   36.7840 H   0  0  0  0  0  0  0  0  0  0  0  0
   44.7810   31.5850   35.6010 C   0  0  0  0  0  3  0  0  0  0  0  0
   44.5980   32.3170   34.8050 H   0  0  0  0  0  0  0  0  0  0  0  0
   43.6910   30.7740   35.8710 O   0  0  0  0  0  0  0  0  0  0  0  0
   42.8920   31.2470   36.9090 C   0  0  0  0  0  3  0  0  0  0  0  0
   42.6220   32.3140   36.7940 H   0  0  0  0  0  0  0  0  0  0  0  0
   43.5850   31.1230   38.2470 C   0  0  0  0  0  3  0  0  0  0  0  0
   43.3190   31.9320   38.9600 H   0  0  0  0  0  0  0  0  0  0  0  0
  1  2  1  0  0  0  0
  2  3  2  0  0  0  0
  2  7  1  0  0  0  0
  3  8  1  0  0  0  0
  4  9  1  0  0  0  0
  4  3  1  0  0  0  0
  5  4  2  0  0  0  0
  6  5  1  0  0  0  0
  6  1  2  0  0  0  0
 10  5  1  0  0  0  0
 11 12  2  0  0  0  0
 11 16  1  0  0  0  0
 12 13  1  0  0  0  0
 13  1  1  0  0  0  0
 13 14  2  0  0  0  0
 15 14  1  0  0  0  0
 15 18  1  0  0  0  0
 16 15  2  0  0  0  0
 17 12  1  0  0  0  0
 19 11  1  0  0  0  0
 19 22  1  0  0  0  0
 20 19  1  0  0  0  0
 21 19  1  0  0  0  0
 23 25  1  0  0  0  0
 23 24  2  0  0  0  0
 25  6  1  0  0  0  0
 26 25  1  0  0  0  0
 27 35  1  0  0  0  0
 27 23  1  0  0  0  0
 28 27  1  0  0  0  0
 29 28  1  0  0  0  0
 30 32  1  0  0  0  0
 30 28  1  0  0  0  0
 31 30  1  0  0  0  0
 32 33  1  0  0  0  0
 33 35  1  0  0  0  0
 34 33  1  0  0  0  0
 35 36  1  0  0  0  0
M  END
>  <minimizedAffinity>
-5.57949734

>  <minimizedRMSD>
0.714871049

$$$$
