
 OpenBabel03242522403D

 41 43  0  0  0  0  0  0  0  0999 V2000
   36.3810   30.1980   41.1870 C   0  0  0  0  0  0  0  0  0  0  0  0
   36.5830   29.2330   40.1520 C   0  0  0  0  0  0  0  0  0  0  0  0
   37.1240   29.6710   38.9430 C   0  0  0  0  0  0  0  0  0  0  0  0
   37.4300   31.0010   38.8220 N   0  0  0  0  0  0  0  0  0  0  0  0
   37.2250   31.8570   39.8080 C   0  0  0  0  0  0  0  0  0  0  0  0
   36.7130   31.4850   40.9750 N   0  0  0  0  0  0  0  0  0  0  0  0
   35.9660   29.9190   42.1450 H   0  0  0  0  0  0  0  0  0  0  0  0
   37.2880   28.9670   38.1400 H   0  0  0  0  0  0  0  0  0  0  0  0
   36.2190   27.8310   40.3880 C   0  0  0  0  0  0  0  0  0  0  0  0
   35.1030   27.7680   40.2310 H   0  0  0  0  0  0  0  0  0  0  0  0
   36.6420   27.1570   39.6410 H   0  0  0  0  0  0  0  0  0  0  0  0
   36.5730   27.5050   41.8170 C   0  0  0  0  0  0  0  0  0  0  0  0
   36.9330   28.4140   42.3840 H   0  0  0  0  0  0  0  0  0  0  0  0
   35.6100   27.2550   42.3560 H   0  0  0  0  0  0  0  0  0  0  0  0
   38.7890   26.6160   42.4050 C   0  0  0  0  0  0  0  0  0  0  0  0
   37.4860   26.3800   42.0020 C   0  0  0  0  0  0  0  0  0  0  0  0
   37.0000   25.1300   41.7700 C   0  0  0  0  0  0  0  0  0  0  0  0
   37.8340   24.0440   41.9420 C   0  0  0  0  0  0  0  0  0  0  0  0
   39.1350   24.1960   42.3370 C   0  0  0  0  0  0  0  0  0  0  0  0
   39.5710   25.5030   42.5580 C   0  0  0  0  0  0  0  0  0  0  0  0
   36.0140   24.8290   41.4530 H   0  0  0  0  0  0  0  0  0  0  0  0
   37.5440   23.0060   41.7830 H   0  0  0  0  0  0  0  0  0  0  0  0
   39.8580   23.4040   42.4950 H   0  0  0  0  0  0  0  0  0  0  0  0
   40.5960   25.6590   42.8720 H   0  0  0  0  0  0  0  0  0  0  0  0
   39.4480   28.2010   42.7070 S   0  0  0  0  0  0  0  0  0  0  0  0
   39.7660   28.9490   41.4190 O   0  0  0  0  0  0  0  0  0  0  0  0
   40.8020   28.0410   43.3790 O   0  0  0  0  0  0  0  0  0  0  0  0
   38.6730   28.9390   43.5390 H   0  0  0  0  0  0  0  0  0  0  0  0
   37.6200   33.2960   39.5950 C   0  0  0  0  0  0  0  0  0  0  0  0
   36.7810   33.9810   39.7510 H   0  0  0  0  0  0  0  0  0  0  0  0
   37.9130   33.4010   38.5210 H   0  0  0  0  0  0  0  0  0  0  0  0
   38.8520   33.6580   40.3960 C   0  0  0  0  0  3  0  0  0  0  0  0
   39.9370   32.6500   40.3630 C   0  0  0  0  0  3  0  0  0  0  0  0
   39.9780   32.0390   41.3150 H   0  0  0  0  0  0  0  0  0  0  0  0
   41.3080   33.1780   40.1620 C   0  0  0  0  0  3  0  0  0  0  0  0
   42.0680   32.5140   40.6320 H   0  0  0  0  0  0  0  0  0  0  0  0
   41.3950   34.4220   40.7920 O   0  0  0  0  0  0  0  0  0  0  0  0
   40.7290   35.2850   39.9000 C   0  0  0  0  0  3  0  0  0  0  0  0
   41.0340   35.1100   38.8420 H   0  0  0  0  0  0  0  0  0  0  0  0
   39.2600   35.0600   40.0630 C   0  0  0  0  0  3  0  0  0  0  0  0
   38.8900   35.8170   40.7870 H   0  0  0  0  0  0  0  0  0  0  0  0
  1  7  1  0  0  0  0
  2  9  1  0  0  0  0
  2  1  2  0  0  0  0
  3  2  1  0  0  0  0
  4  3  2  0  0  0  0
  4  5  1  0  0  0  0
  5  6  2  0  0  0  0
  6  1  1  0  0  0  0
  8  3  1  0  0  0  0
  9 12  1  0  0  0  0
 10  9  1  0  0  0  0
 11  9  1  0  0  0  0
 12 16  1  0  0  0  0
 12 14  1  0  0  0  0
 12 13  1  0  0  0  0
 15 20  1  0  0  0  0
 15 25  1  0  0  0  0
 16 15  2  0  0  0  0
 17 18  2  0  0  0  0
 17 16  1  0  0  0  0
 18 19  1  0  0  0  0
 19 23  1  0  0  0  0
 19 20  2  0  0  0  0
 20 24  1  0  0  0  0
 21 17  1  0  0  0  0
 22 18  1  0  0  0  0
 25 27  2  0  0  0  0
 25 28  1  0  0  0  0
 26 25  2  0  0  0  0
 29 30  1  0  0  0  0
 29  5  1  0  0  0  0
 29 32  1  0  0  0  0
 31 29  1  0  0  0  0
 33 32  1  0  0  0  0
 33 34  1  0  0  0  0
 35 33  1  0  0  0  0
 35 36  1  0  0  0  0
 35 37  1  0  0  0  0
 38 40  1  0  0  0  0
 38 37  1  0  0  0  0
 39 38  1  0  0  0  0
 40 32  1  0  0  0  0
 40 41  1  0  0  0  0
M  END
>  <minimizedAffinity>
-5.70902061

$$$$

 OpenBabel03242522403D

 41 43  0  0  0  0  0  0  0  0999 V2000
   38.8610   30.0510   42.7220 C   0  0  0  0  0  0  0  0  0  0  0  0
   37.6240   29.3350   42.6990 C   0  0  0  0  0  0  0  0  0  0  0  0
   36.7430   29.5810   41.6450 C   0  0  0  0  0  0  0  0  0  0  0  0
   37.1180   30.4940   40.6950 N   0  0  0  0  0  0  0  0  0  0  0  0
   38.2740   31.1330   40.7590 C   0  0  0  0  0  0  0  0  0  0  0  0
   39.1420   30.9310   41.7430 N   0  0  0  0  0  0  0  0  0  0  0  0
   39.5830   29.9050   43.5130 H   0  0  0  0  0  0  0  0  0  0  0  0
   35.8000   29.0560   41.5990 H   0  0  0  0  0  0  0  0  0  0  0  0
   37.3210   28.3780   43.7690 C   0  0  0  0  0  0  0  0  0  0  0  0
   38.1840   28.4380   44.4950 H   0  0  0  0  0  0  0  0  0  0  0  0
   36.4460   28.6670   44.3550 H   0  0  0  0  0  0  0  0  0  0  0  0
   37.2480   27.0080   43.1450 C   0  0  0  0  0  0  0  0  0  0  0  0
   36.4960   26.3430   43.6650 H   0  0  0  0  0  0  0  0  0  0  0  0
   36.7890   27.1270   42.1180 H   0  0  0  0  0  0  0  0  0  0  0  0
   38.7020   25.4530   41.9150 C   0  0  0  0  0  0  0  0  0  0  0  0
   38.5250   26.3180   42.9800 C   0  0  0  0  0  0  0  0  0  0  0  0
   39.4990   26.5710   43.8970 C   0  0  0  0  0  0  0  0  0  0  0  0
   40.7210   25.9410   43.7680 C   0  0  0  0  0  0  0  0  0  0  0  0
   40.9720   25.0710   42.7420 C   0  0  0  0  0  0  0  0  0  0  0  0
   39.9320   24.8570   41.8370 C   0  0  0  0  0  0  0  0  0  0  0  0
   39.4730   27.2160   44.7600 H   0  0  0  0  0  0  0  0  0  0  0  0
   41.5630   26.0740   44.4450 H   0  0  0  0  0  0  0  0  0  0  0  0
   41.8970   24.5340   42.5640 H   0  0  0  0  0  0  0  0  0  0  0  0
   40.0980   24.1740   41.0120 H   0  0  0  0  0  0  0  0  0  0  0  0
   37.4790   25.1020   40.7240 S   0  0  0  0  0  0  0  0  0  0  0  0
   36.4670   24.0780   41.2210 O   0  0  0  0  0  0  0  0  0  0  0  0
   38.1400   24.4160   39.5400 O   0  0  0  0  0  0  0  0  0  0  0  0
   36.8730   26.2200   40.2520 H   0  0  0  0  0  0  0  0  0  0  0  0
   38.6160   32.0970   39.6530 C   0  0  0  0  0  0  0  0  0  0  0  0
   37.7810   32.7640   39.4160 H   0  0  0  0  0  0  0  0  0  0  0  0
   38.8010   31.4900   38.7310 H   0  0  0  0  0  0  0  0  0  0  0  0
   39.9110   32.8270   39.9330 C   0  0  0  0  0  3  0  0  0  0  0  0
   40.9560   32.6640   38.8970 C   0  0  0  0  0  3  0  0  0  0  0  0
   41.7580   31.9300   39.2150 H   0  0  0  0  0  0  0  0  0  0  0  0
   41.6750   33.8990   38.4980 C   0  0  0  0  0  3  0  0  0  0  0  0
   42.7060   33.6700   38.1490 H   0  0  0  0  0  0  0  0  0  0  0  0
   41.7870   34.7220   39.6210 O   0  0  0  0  0  0  0  0  0  0  0  0
   40.5010   35.2840   39.7430 C   0  0  0  0  0  3  0  0  0  0  0  0
   40.1020   35.6340   38.7620 H   0  0  0  0  0  0  0  0  0  0  0  0
   39.6040   34.2390   40.3270 C   0  0  0  0  0  3  0  0  0  0  0  0
   39.5820   34.4020   41.4250 H   0  0  0  0  0  0  0  0  0  0  0  0
  1  7  1  0  0  0  0
  2  1  1  0  0  0  0
  2  9  1  0  0  0  0
  3  2  2  0  0  0  0
  4  5  2  0  0  0  0
  4  3  1  0  0  0  0
  5  6  1  0  0  0  0
  6  1  2  0  0  0  0
  8  3  1  0  0  0  0
  9 11  1  0  0  0  0
  9 10  1  0  0  0  0
 12 13  1  0  0  0  0
 12  9  1  0  0  0  0
 14 12  1  0  0  0  0
 15 16  1  0  0  0  0
 16 12  1  0  0  0  0
 16 17  2  0  0  0  0
 17 21  1  0  0  0  0
 18 17  1  0  0  0  0
 18 22  1  0  0  0  0
 19 18  2  0  0  0  0
 20 15  2  0  0  0  0
 20 19  1  0  0  0  0
 23 19  1  0  0  0  0
 24 20  1  0  0  0  0
 25 26  2  0  0  0  0
 25 15  1  0  0  0  0
 27 25  2  0  0  0  0
 28 25  1  0  0  0  0
 29 32  1  0  0  0  0
 29  5  1  0  0  0  0
 30 29  1  0  0  0  0
 31 29  1  0  0  0  0
 32 40  1  0  0  0  0
 33 34  1  0  0  0  0
 33 32  1  0  0  0  0
 35 33  1  0  0  0  0
 35 37  1  0  0  0  0
 36 35  1  0  0  0  0
 37 38  1  0  0  0  0
 38 40  1  0  0  0  0
 39 38  1  0  0  0  0
 40 41  1  0  0  0  0
M  END
>  <minimizedAffinity>
-5.64825106

$$$$

 OpenBabel03242522403D

 41 43  0  0  0  0  0  0  0  0999 V2000
   37.3160   29.0350   42.6510 C   0  0  0  0  0  0  0  0  0  0  0  0
   36.6450   28.2380   41.6730 C   0  0  0  0  0  0  0  0  0  0  0  0
   37.0890   26.9300   41.4760 C   0  0  0  0  0  0  0  0  0  0  0  0
   38.1410   26.4880   42.2350 N   0  0  0  0  0  0  0  0  0  0  0  0
   38.7300   27.2630   43.1290 C   0  0  0  0  0  0  0  0  0  0  0  0
   38.3420   28.5130   43.3490 N   0  0  0  0  0  0  0  0  0  0  0  0
   37.0180   30.0550   42.8480 H   0  0  0  0  0  0  0  0  0  0  0  0
   36.6030   26.3010   40.7440 H   0  0  0  0  0  0  0  0  0  0  0  0
   35.5270   28.8100   40.9140 C   0  0  0  0  0  0  0  0  0  0  0  0
   35.4630   28.2150   39.9560 H   0  0  0  0  0  0  0  0  0  0  0  0
   34.5640   28.6530   41.4020 H   0  0  0  0  0  0  0  0  0  0  0  0
   35.8680   30.2490   40.6210 C   0  0  0  0  0  0  0  0  0  0  0  0
   35.0010   30.9430   40.8340 H   0  0  0  0  0  0  0  0  0  0  0  0
   36.6310   30.5800   41.3880 H   0  0  0  0  0  0  0  0  0  0  0  0
   37.3180   31.5570   39.1270 C   0  0  0  0  0  0  0  0  0  0  0  0
   36.4300   30.5100   39.2980 C   0  0  0  0  0  0  0  0  0  0  0  0
   36.0510   29.6890   38.2800 C   0  0  0  0  0  0  0  0  0  0  0  0
   36.5680   29.9030   37.0190 C   0  0  0  0  0  0  0  0  0  0  0  0
   37.4500   30.9200   36.7700 C   0  0  0  0  0  0  0  0  0  0  0  0
   37.7980   31.7230   37.8560 C   0  0  0  0  0  0  0  0  0  0  0  0
   35.3710   28.8530   38.2960 H   0  0  0  0  0  0  0  0  0  0  0  0
   36.3290   29.3060   36.1390 H   0  0  0  0  0  0  0  0  0  0  0  0
   37.9040   31.1600   35.8150 H   0  0  0  0  0  0  0  0  0  0  0  0
   38.4950   32.5370   37.6930 H   0  0  0  0  0  0  0  0  0  0  0  0
   37.8240   32.6300   40.4040 S   0  0  0  0  0  0  0  0  0  0  0  0
   38.4450   33.9130   39.8670 O   0  0  0  0  0  0  0  0  0  0  0  0
   38.9580   31.9690   41.1700 O   0  0  0  0  0  0  0  0  0  0  0  0
   36.8350   32.8850   41.2950 H   0  0  0  0  0  0  0  0  0  0  0  0
   39.8600   26.6830   43.9390 C   0  0  0  0  0  0  0  0  0  0  0  0
   39.6400   25.6690   44.2860 H   0  0  0  0  0  0  0  0  0  0  0  0
   39.9640   27.3110   44.8590 H   0  0  0  0  0  0  0  0  0  0  0  0
   41.1820   26.7980   43.2100 C   0  0  0  0  0  3  0  0  0  0  0  0
   42.0190   27.9500   43.6150 C   0  0  0  0  0  3  0  0  0  0  0  0
   41.9770   28.7920   42.8590 H   0  0  0  0  0  0  0  0  0  0  0  0
   43.4600   27.6660   43.8220 C   0  0  0  0  0  3  0  0  0  0  0  0
   44.0820   28.5660   43.6210 H   0  0  0  0  0  0  0  0  0  0  0  0
   43.8470   26.6800   42.9110 O   0  0  0  0  0  0  0  0  0  0  0  0
   43.3380   25.4950   43.4770 C   0  0  0  0  0  3  0  0  0  0  0  0
   43.5420   25.4340   44.5720 H   0  0  0  0  0  0  0  0  0  0  0  0
   41.8650   25.4650   43.2190 C   0  0  0  0  0  3  0  0  0  0  0  0
   41.7060   24.8750   42.2910 H   0  0  0  0  0  0  0  0  0  0  0  0
  1  7  1  0  0  0  0
  1  6  1  0  0  0  0
  2  1  2  0  0  0  0
  3  2  1  0  0  0  0
  3  4  2  0  0  0  0
  4  5  1  0  0  0  0
  5  6  2  0  0  0  0
  5 29  1  0  0  0  0
  8  3  1  0  0  0  0
  9 11  1  0  0  0  0
  9  2  1  0  0  0  0
 10  9  1  0  0  0  0
 12 13  1  0  0  0  0
 12  9  1  0  0  0  0
 12 14  1  0  0  0  0
 15 16  1  0  0  0  0
 15 25  1  0  0  0  0
 16 12  1  0  0  0  0
 17 21  1  0  0  0  0
 17 16  2  0  0  0  0
 18 17  1  0  0  0  0
 19 18  2  0  0  0  0
 19 20  1  0  0  0  0
 20 15  2  0  0  0  0
 22 18  1  0  0  0  0
 23 19  1  0  0  0  0
 24 20  1  0  0  0  0
 25 27  2  0  0  0  0
 25 28  1  0  0  0  0
 26 25  2  0  0  0  0
 29 30  1  0  0  0  0
 29 31  1  0  0  0  0
 32 40  1  0  0  0  0
 32 33  1  0  0  0  0
 32 29  1  0  0  0  0
 33 35  1  0  0  0  0
 34 33  1  0  0  0  0
 36 35  1  0  0  0  0
 37 38  1  0  0  0  0
 37 35  1  0  0  0  0
 38 39  1  0  0  0  0
 40 38  1  0  0  0  0
 41 40  1  0  0  0  0
M  END
>  <minimizedAffinity>
-5.63838482

$$$$

 OpenBabel03242522403D

 41 43  0  0  0  0  0  0  0  0999 V2000
   36.0260   30.2600   40.5060 C   0  0  0  0  0  0  0  0  0  0  0  0
   36.0190   29.5990   39.2380 C   0  0  0  0  0  0  0  0  0  0  0  0
   36.5250   30.2900   38.1360 C   0  0  0  0  0  0  0  0  0  0  0  0
   36.9990   31.5590   38.3370 N   0  0  0  0  0  0  0  0  0  0  0  0
   36.9850   32.1290   39.5300 C   0  0  0  0  0  0  0  0  0  0  0  0
   36.5130   31.5100   40.6050 N   0  0  0  0  0  0  0  0  0  0  0  0
   35.6470   29.7770   41.3950 H   0  0  0  0  0  0  0  0  0  0  0  0
   36.5340   29.8190   37.1630 H   0  0  0  0  0  0  0  0  0  0  0  0
   35.4860   28.2360   39.1340 C   0  0  0  0  0  0  0  0  0  0  0  0
   34.9050   28.0550   40.0850 H   0  0  0  0  0  0  0  0  0  0  0  0
   34.7480   28.1340   38.3360 H   0  0  0  0  0  0  0  0  0  0  0  0
   36.6610   27.2960   39.0420 C   0  0  0  0  0  0  0  0  0  0  0  0
   36.7430   26.8150   38.0220 H   0  0  0  0  0  0  0  0  0  0  0  0
   37.6010   27.9230   39.0860 H   0  0  0  0  0  0  0  0  0  0  0  0
   36.5020   24.9630   39.8030 C   0  0  0  0  0  0  0  0  0  0  0  0
   36.7510   26.2920   40.0990 C   0  0  0  0  0  0  0  0  0  0  0  0
   37.0890   26.7200   41.3470 C   0  0  0  0  0  0  0  0  0  0  0  0
   37.1890   25.7960   42.3680 C   0  0  0  0  0  0  0  0  0  0  0  0
   36.9570   24.4650   42.1540 C   0  0  0  0  0  0  0  0  0  0  0  0
   36.6160   24.0920   40.8530 C   0  0  0  0  0  0  0  0  0  0  0  0
   37.2990   27.7190   41.6910 H   0  0  0  0  0  0  0  0  0  0  0  0
   37.4520   26.0350   43.3980 H   0  0  0  0  0  0  0  0  0  0  0  0
   37.0130   23.6740   42.8930 H   0  0  0  0  0  0  0  0  0  0  0  0
   36.4260   23.0450   40.6500 H   0  0  0  0  0  0  0  0  0  0  0  0
   36.0650   24.3780   38.2210 S   0  0  0  0  0  0  0  0  0  0  0  0
   34.5580   24.2380   38.0540 O   0  0  0  0  0  0  0  0  0  0  0  0
   36.5820   22.9570   38.0710 O   0  0  0  0  0  0  0  0  0  0  0  0
   36.6160   25.1110   37.2220 H   0  0  0  0  0  0  0  0  0  0  0  0
   37.5560   33.5170   39.6620 C   0  0  0  0  0  0  0  0  0  0  0  0
   36.8330   34.2210   40.0860 H   0  0  0  0  0  0  0  0  0  0  0  0
   37.7770   33.8830   38.6280 H   0  0  0  0  0  0  0  0  0  0  0  0
   38.8840   33.5060   40.3880 C   0  0  0  0  0  3  0  0  0  0  0  0
   39.9350   32.6800   39.7520 C   0  0  0  0  0  3  0  0  0  0  0  0
   40.0800   31.6920   40.2850 H   0  0  0  0  0  0  0  0  0  0  0  0
   41.2820   33.2950   39.6670 C   0  0  0  0  0  3  0  0  0  0  0  0
   42.0800   32.5190   39.6710 H   0  0  0  0  0  0  0  0  0  0  0  0
   41.4710   34.0930   40.7980 O   0  0  0  0  0  0  0  0  0  0  0  0
   40.7180   35.2480   40.5100 C   0  0  0  0  0  3  0  0  0  0  0  0
   40.8870   35.6090   39.4690 H   0  0  0  0  0  0  0  0  0  0  0  0
   39.2760   34.9130   40.7180 C   0  0  0  0  0  3  0  0  0  0  0  0
   39.0130   35.2190   41.7520 H   0  0  0  0  0  0  0  0  0  0  0  0
  1  6  1  0  0  0  0
  1  7  1  0  0  0  0
  2  1  2  0  0  0  0
  3  4  2  0  0  0  0
  3  2  1  0  0  0  0
  4  5  1  0  0  0  0
  5 29  1  0  0  0  0
  5  6  2  0  0  0  0
  8  3  1  0  0  0  0
  9  2  1  0  0  0  0
  9 10  1  0  0  0  0
 11  9  1  0  0  0  0
 12 14  1  0  0  0  0
 12  9  1  0  0  0  0
 12 16  1  0  0  0  0
 13 12  1  0  0  0  0
 15 16  2  0  0  0  0
 15 20  1  0  0  0  0
 16 17  1  0  0  0  0
 17 21  1  0  0  0  0
 17 18  2  0  0  0  0
 18 22  1  0  0  0  0
 19 18  1  0  0  0  0
 19 23  1  0  0  0  0
 20 19  2  0  0  0  0
 24 20  1  0  0  0  0
 25 15  1  0  0  0  0
 26 25  2  0  0  0  0
 27 25  2  0  0  0  0
 28 25  1  0  0  0  0
 29 30  1  0  0  0  0
 29 32  1  0  0  0  0
 31 29  1  0  0  0  0
 32 40  1  0  0  0  0
 33 34  1  0  0  0  0
 33 32  1  0  0  0  0
 35 36  1  0  0  0  0
 35 33  1  0  0  0  0
 35 37  1  0  0  0  0
 38 40  1  0  0  0  0
 38 37  1  0  0  0  0
 39 38  1  0  0  0  0
 40 41  1  0  0  0  0
M  END
>  <minimizedAffinity>
-5.60605049

$$$$

 OpenBabel03242522403D

 41 43  0  0  0  0  0  0  0  0999 V2000
   36.8130   30.3330   38.5390 C   0  0  0  0  0  0  0  0  0  0  0  0
   36.1950   29.8210   39.7210 C   0  0  0  0  0  0  0  0  0  0  0  0
   36.1460   30.6470   40.8450 C   0  0  0  0  0  0  0  0  0  0  0  0
   36.6940   31.8980   40.7470 N   0  0  0  0  0  0  0  0  0  0  0  0
   37.2560   32.3290   39.6300 C   0  0  0  0  0  0  0  0  0  0  0  0
   37.3250   31.5780   38.5380 N   0  0  0  0  0  0  0  0  0  0  0  0
   36.8820   29.7410   37.6370 H   0  0  0  0  0  0  0  0  0  0  0  0
   35.6850   30.2890   41.7560 H   0  0  0  0  0  0  0  0  0  0  0  0
   35.6390   28.4640   39.7190 C   0  0  0  0  0  0  0  0  0  0  0  0
   34.9520   28.4060   40.6130 H   0  0  0  0  0  0  0  0  0  0  0  0
   34.9920   28.2770   38.8600 H   0  0  0  0  0  0  0  0  0  0  0  0
   36.7900   27.5020   39.8730 C   0  0  0  0  0  0  0  0  0  0  0  0
   36.5140   26.4530   39.5520 H   0  0  0  0  0  0  0  0  0  0  0  0
   37.5730   27.7860   39.1070 H   0  0  0  0  0  0  0  0  0  0  0  0
   38.8100   27.6250   41.2680 C   0  0  0  0  0  0  0  0  0  0  0  0
   37.4360   27.4920   41.1820 C   0  0  0  0  0  0  0  0  0  0  0  0
   36.6370   27.3560   42.2770 C   0  0  0  0  0  0  0  0  0  0  0  0
   37.2140   27.3500   43.5310 C   0  0  0  0  0  0  0  0  0  0  0  0
   38.5670   27.4750   43.6970 C   0  0  0  0  0  0  0  0  0  0  0  0
   39.3280   27.6110   42.5360 C   0  0  0  0  0  0  0  0  0  0  0  0
   35.5670   27.2430   42.3300 H   0  0  0  0  0  0  0  0  0  0  0  0
   36.6660   27.2460   44.4670 H   0  0  0  0  0  0  0  0  0  0  0  0
   39.1030   27.4790   44.6390 H   0  0  0  0  0  0  0  0  0  0  0  0
   40.4020   27.7130   42.6320 H   0  0  0  0  0  0  0  0  0  0  0  0
   39.8650   27.7970   39.8910 S   0  0  0  0  0  0  0  0  0  0  0  0
   41.2910   27.3580   40.1980 O   0  0  0  0  0  0  0  0  0  0  0  0
   40.0010   29.2760   39.5680 O   0  0  0  0  0  0  0  0  0  0  0  0
   39.3790   27.1880   38.7820 H   0  0  0  0  0  0  0  0  0  0  0  0
   37.8060   33.7310   39.6050 C   0  0  0  0  0  0  0  0  0  0  0  0
   37.0450   34.4760   39.8580 H   0  0  0  0  0  0  0  0  0  0  0  0
   38.1130   33.9460   38.5510 H   0  0  0  0  0  0  0  0  0  0  0  0
   39.0660   33.8480   40.4340 C   0  0  0  0  0  3  0  0  0  0  0  0
   40.0200   32.7260   40.2830 C   0  0  0  0  0  3  0  0  0  0  0  0
   39.9780   32.0120   41.1610 H   0  0  0  0  0  0  0  0  0  0  0  0
   41.4470   33.1010   40.1350 C   0  0  0  0  0  3  0  0  0  0  0  0
   42.1160   32.3010   40.5230 H   0  0  0  0  0  0  0  0  0  0  0  0
   41.6800   34.2470   40.8990 O   0  0  0  0  0  0  0  0  0  0  0  0
   41.1310   35.2800   40.1120 C   0  0  0  0  0  3  0  0  0  0  0  0
   41.4210   35.1870   39.0390 H   0  0  0  0  0  0  0  0  0  0  0  0
   39.6440   35.2190   40.2580 C   0  0  0  0  0  3  0  0  0  0  0  0
   39.3630   35.9300   41.0630 H   0  0  0  0  0  0  0  0  0  0  0  0
  1  2  1  0  0  0  0
  2  3  2  0  0  0  0
  3  8  1  0  0  0  0
  4  3  1  0  0  0  0
  5  4  2  0  0  0  0
  6  1  2  0  0  0  0
  6  5  1  0  0  0  0
  7  1  1  0  0  0  0
  9  2  1  0  0  0  0
  9 12  1  0  0  0  0
  9 10  1  0  0  0  0
 11  9  1  0  0  0  0
 12 16  1  0  0  0  0
 13 12  1  0  0  0  0
 14 12  1  0  0  0  0
 15 20  1  0  0  0  0
 16 15  2  0  0  0  0
 16 17  1  0  0  0  0
 17 21  1  0  0  0  0
 17 18  2  0  0  0  0
 18 19  1  0  0  0  0
 18 22  1  0  0  0  0
 19 23  1  0  0  0  0
 20 24  1  0  0  0  0
 20 19  2  0  0  0  0
 25 26  2  0  0  0  0
 25 15  1  0  0  0  0
 27 25  2  0  0  0  0
 28 25  1  0  0  0  0
 29  5  1  0  0  0  0
 29 30  1  0  0  0  0
 29 32  1  0  0  0  0
 31 29  1  0  0  0  0
 33 32  1  0  0  0  0
 33 34  1  0  0  0  0
 35 33  1  0  0  0  0
 35 36  1  0  0  0  0
 35 37  1  0  0  0  0
 38 40  1  0  0  0  0
 38 37  1  0  0  0  0
 39 38  1  0  0  0  0
 40 32  1  0  0  0  0
 40 41  1  0  0  0  0
M  END
>  <minimizedAffinity>
-5.50574636

$$$$

 OpenBabel03242522403D

 41 43  0  0  0  0  0  0  0  0999 V2000
   38.5080   31.3370   41.2940 C   0  0  0  0  0  0  0  0  0  0  0  0
   37.4280   30.9820   40.4280 C   0  0  0  0  0  0  0  0  0  0  0  0
   36.9930   31.9310   39.5010 C   0  0  0  0  0  0  0  0  0  0  0  0
   37.6280   33.1440   39.4770 N   0  0  0  0  0  0  0  0  0  0  0  0
   38.6250   33.4260   40.2990 C   0  0  0  0  0  0  0  0  0  0  0  0
   39.0710   32.5560   41.1960 N   0  0  0  0  0  0  0  0  0  0  0  0
   38.8890   30.6450   42.0320 H   0  0  0  0  0  0  0  0  0  0  0  0
   36.1780   31.6940   38.8320 H   0  0  0  0  0  0  0  0  0  0  0  0
   36.8170   29.6530   40.5380 C   0  0  0  0  0  0  0  0  0  0  0  0
   36.3560   29.6060   41.5680 H   0  0  0  0  0  0  0  0  0  0  0  0
   35.9770   29.5190   39.8530 H   0  0  0  0  0  0  0  0  0  0  0  0
   37.9200   28.6340   40.4030 C   0  0  0  0  0  0  0  0  0  0  0  0
   38.4490   28.7090   39.4070 H   0  0  0  0  0  0  0  0  0  0  0  0
   38.7380   28.9230   41.1290 H   0  0  0  0  0  0  0  0  0  0  0  0
   37.7540   26.7350   41.9560 C   0  0  0  0  0  0  0  0  0  0  0  0
   37.5430   27.2530   40.6910 C   0  0  0  0  0  0  0  0  0  0  0  0
   36.9860   26.5290   39.6800 C   0  0  0  0  0  0  0  0  0  0  0  0
   36.6120   25.2220   39.9190 C   0  0  0  0  0  0  0  0  0  0  0  0
   36.7900   24.6400   41.1440 C   0  0  0  0  0  0  0  0  0  0  0  0
   37.3650   25.4350   42.1360 C   0  0  0  0  0  0  0  0  0  0  0  0
   36.7800   26.8240   38.6640 H   0  0  0  0  0  0  0  0  0  0  0  0
   36.1610   24.5600   39.1810 H   0  0  0  0  0  0  0  0  0  0  0  0
   36.5280   23.6240   41.4190 H   0  0  0  0  0  0  0  0  0  0  0  0
   37.5190   25.0040   43.1180 H   0  0  0  0  0  0  0  0  0  0  0  0
   38.4670   27.6280   43.2730 S   0  0  0  0  0  0  0  0  0  0  0  0
   39.3480   26.7520   44.1530 O   0  0  0  0  0  0  0  0  0  0  0  0
   37.3570   28.0830   44.2050 O   0  0  0  0  0  0  0  0  0  0  0  0
   39.1200   28.7410   42.8560 H   0  0  0  0  0  0  0  0  0  0  0  0
   39.2850   34.7750   40.1800 C   0  0  0  0  0  0  0  0  0  0  0  0
   39.2040   35.3560   41.1040 H   0  0  0  0  0  0  0  0  0  0  0  0
   38.7230   35.3490   39.4020 H   0  0  0  0  0  0  0  0  0  0  0  0
   40.7020   34.6570   39.6640 C   0  0  0  0  0  3  0  0  0  0  0  0
   41.7560   34.8060   40.6920 C   0  0  0  0  0  3  0  0  0  0  0  0
   42.2450   35.8270   40.6540 H   0  0  0  0  0  0  0  0  0  0  0  0
   42.8660   33.8240   40.6340 C   0  0  0  0  0  3  0  0  0  0  0  0
   43.8070   34.2550   41.0420 H   0  0  0  0  0  0  0  0  0  0  0  0
   43.1000   33.5080   39.2930 O   0  0  0  0  0  0  0  0  0  0  0  0
   42.0490   32.6240   38.9790 C   0  0  0  0  0  3  0  0  0  0  0  0
   41.8970   31.8560   39.7740 H   0  0  0  0  0  0  0  0  0  0  0  0
   40.8090   33.4400   38.7980 C   0  0  0  0  0  3  0  0  0  0  0  0
   40.7120   33.6530   37.7120 H   0  0  0  0  0  0  0  0  0  0  0  0
  1  7  1  0  0  0  0
  2  9  1  0  0  0  0
  2  1  2  0  0  0  0
  3  2  1  0  0  0  0
  4  3  2  0  0  0  0
  4  5  1  0  0  0  0
  5  6  2  0  0  0  0
  6  1  1  0  0  0  0
  8  3  1  0  0  0  0
  9 10  1  0  0  0  0
 11  9  1  0  0  0  0
 12  9  1  0  0  0  0
 12 16  1  0  0  0  0
 12 14  1  0  0  0  0
 13 12  1  0  0  0  0
 15 20  1  0  0  0  0
 15 25  1  0  0  0  0
 16 15  2  0  0  0  0
 17 18  2  0  0  0  0
 17 16  1  0  0  0  0
 18 19  1  0  0  0  0
 19 23  1  0  0  0  0
 19 20  2  0  0  0  0
 20 24  1  0  0  0  0
 21 17  1  0  0  0  0
 22 18  1  0  0  0  0
 25 26  2  0  0  0  0
 25 27  2  0  0  0  0
 28 25  1  0  0  0  0
 29  5  1  0  0  0  0
 29 30  1  0  0  0  0
 31 29  1  0  0  0  0
 32 29  1  0  0  0  0
 32 33  1  0  0  0  0
 34 33  1  0  0  0  0
 35 33  1  0  0  0  0
 35 36  1  0  0  0  0
 37 35  1  0  0  0  0
 38 37  1  0  0  0  0
 38 39  1  0  0  0  0
 40 38  1  0  0  0  0
 40 32  1  0  0  0  0
 41 40  1  0  0  0  0
M  END
>  <minimizedAffinity>
-5.43850279

$$$$

 OpenBabel03242522403D

 41 43  0  0  0  0  0  0  0  0999 V2000
   38.2160   29.0420   40.5720 C   0  0  0  0  0  0  0  0  0  0  0  0
   37.6530   28.8170   41.8660 C   0  0  0  0  0  0  0  0  0  0  0  0
   38.1780   29.5340   42.9420 C   0  0  0  0  0  0  0  0  0  0  0  0
   39.2000   30.4110   42.6930 N   0  0  0  0  0  0  0  0  0  0  0  0
   39.6880   30.5860   41.4760 C   0  0  0  0  0  0  0  0  0  0  0  0
   39.2210   29.9250   40.4240 N   0  0  0  0  0  0  0  0  0  0  0  0
   37.8530   28.5170   39.7000 H   0  0  0  0  0  0  0  0  0  0  0  0
   37.7740   29.3870   43.9340 H   0  0  0  0  0  0  0  0  0  0  0  0
   36.5590   27.8530   42.0230 C   0  0  0  0  0  0  0  0  0  0  0  0
   35.7190   28.4130   42.5290 H   0  0  0  0  0  0  0  0  0  0  0  0
   36.1410   27.5330   41.0660 H   0  0  0  0  0  0  0  0  0  0  0  0
   37.0590   26.7380   42.9050 C   0  0  0  0  0  0  0  0  0  0  0  0
   37.8220   27.1000   43.6570 H   0  0  0  0  0  0  0  0  0  0  0  0
   36.2020   26.4220   43.5710 H   0  0  0  0  0  0  0  0  0  0  0  0
   38.8770   25.2020   42.2890 C   0  0  0  0  0  0  0  0  0  0  0  0
   37.5400   25.5470   42.2100 C   0  0  0  0  0  0  0  0  0  0  0  0
   36.6290   24.8180   41.5080 C   0  0  0  0  0  0  0  0  0  0  0  0
   37.0470   23.6830   40.8440 C   0  0  0  0  0  0  0  0  0  0  0  0
   38.3540   23.2770   40.8740 C   0  0  0  0  0  0  0  0  0  0  0  0
   39.2360   24.0680   41.6110 C   0  0  0  0  0  0  0  0  0  0  0  0
   35.5740   24.9910   41.3740 H   0  0  0  0  0  0  0  0  0  0  0  0
   36.4010   23.0320   40.2560 H   0  0  0  0  0  0  0  0  0  0  0  0
   38.7690   22.4030   40.3840 H   0  0  0  0  0  0  0  0  0  0  0  0
   40.2780   23.7740   41.6560 H   0  0  0  0  0  0  0  0  0  0  0  0
   40.0730   26.1110   43.1730 S   0  0  0  0  0  0  0  0  0  0  0  0
   40.6960   27.2160   42.3310 O   0  0  0  0  0  0  0  0  0  0  0  0
   41.2410   25.1930   43.4910 O   0  0  0  0  0  0  0  0  0  0  0  0
   39.6020   26.5830   44.3540 H   0  0  0  0  0  0  0  0  0  0  0  0
   40.7930   31.5940   41.2910 C   0  0  0  0  0  0  0  0  0  0  0  0
   41.7310   31.1240   40.9810 H   0  0  0  0  0  0  0  0  0  0  0  0
   40.9900   32.0540   42.2920 H   0  0  0  0  0  0  0  0  0  0  0  0
   40.3610   32.7310   40.3920 C   0  0  0  0  0  3  0  0  0  0  0  0
   39.1080   33.4070   40.7980 C   0  0  0  0  0  3  0  0  0  0  0  0
   38.2280   33.0890   40.1600 H   0  0  0  0  0  0  0  0  0  0  0  0
   39.1240   34.8900   40.7530 C   0  0  0  0  0  3  0  0  0  0  0  0
   38.1060   35.2990   40.5680 H   0  0  0  0  0  0  0  0  0  0  0  0
   39.9330   35.2860   39.6850 O   0  0  0  0  0  0  0  0  0  0  0  0
   41.2390   35.0980   40.1790 C   0  0  0  0  0  3  0  0  0  0  0  0
   41.3550   35.4910   41.2160 H   0  0  0  0  0  0  0  0  0  0  0  0
   41.5310   33.6320   40.1420 C   0  0  0  0  0  3  0  0  0  0  0  0
   42.0580   33.4260   39.1860 H   0  0  0  0  0  0  0  0  0  0  0  0
  1  2  1  0  0  0  0
  2  9  1  0  0  0  0
  2  3  2  0  0  0  0
  3  8  1  0  0  0  0
  4  3  1  0  0  0  0
  5  4  2  0  0  0  0
  6  1  2  0  0  0  0
  6  5  1  0  0  0  0
  7  1  1  0  0  0  0
  9 10  1  0  0  0  0
  9 12  1  0  0  0  0
 11  9  1  0  0  0  0
 12 14  1  0  0  0  0
 12 13  1  0  0  0  0
 15 25  1  0  0  0  0
 16 15  1  0  0  0  0
 16 12  1  0  0  0  0
 17 16  2  0  0  0  0
 18 19  2  0  0  0  0
 18 17  1  0  0  0  0
 19 20  1  0  0  0  0
 20 24  1  0  0  0  0
 20 15  2  0  0  0  0
 21 17  1  0  0  0  0
 22 18  1  0  0  0  0
 23 19  1  0  0  0  0
 25 27  2  0  0  0  0
 25 28  1  0  0  0  0
 26 25  2  0  0  0  0
 29  5  1  0  0  0  0
 29 31  1  0  0  0  0
 30 29  1  0  0  0  0
 32 33  1  0  0  0  0
 32 29  1  0  0  0  0
 34 33  1  0  0  0  0
 35 33  1  0  0  0  0
 36 35  1  0  0  0  0
 37 38  1  0  0  0  0
 37 35  1  0  0  0  0
 38 39  1  0  0  0  0
 40 38  1  0  0  0  0
 40 32  1  0  0  0  0
 41 40  1  0  0  0  0
M  END
>  <minimizedAffinity>
-5.40011406

$$$$

 OpenBabel03242522403D

 41 43  0  0  0  0  0  0  0  0999 V2000
   39.3280   27.4820   42.1020 C   0  0  0  0  0  0  0  0  0  0  0  0
   38.3520   28.4510   42.4910 C   0  0  0  0  0  0  0  0  0  0  0  0
   37.0540   28.0070   42.7450 C   0  0  0  0  0  0  0  0  0  0  0  0
   36.7940   26.6690   42.6090 N   0  0  0  0  0  0  0  0  0  0  0  0
   37.7320   25.8090   42.2470 C   0  0  0  0  0  0  0  0  0  0  0  0
   38.9790   26.1870   41.9940 N   0  0  0  0  0  0  0  0  0  0  0  0
   40.3500   27.7650   41.8910 H   0  0  0  0  0  0  0  0  0  0  0  0
   36.2910   28.7140   43.0410 H   0  0  0  0  0  0  0  0  0  0  0  0
   38.7370   29.8610   42.6070 C   0  0  0  0  0  0  0  0  0  0  0  0
   37.7900   30.4230   42.8610 H   0  0  0  0  0  0  0  0  0  0  0  0
   39.4040   30.0460   43.4500 H   0  0  0  0  0  0  0  0  0  0  0  0
   39.2670   30.2990   41.2650 C   0  0  0  0  0  0  0  0  0  0  0  0
   40.3970   30.3000   41.2340 H   0  0  0  0  0  0  0  0  0  0  0  0
   39.0100   29.4890   40.5180 H   0  0  0  0  0  0  0  0  0  0  0  0
   37.6120   31.5430   39.9390 C   0  0  0  0  0  0  0  0  0  0  0  0
   38.7320   31.5570   40.7520 C   0  0  0  0  0  0  0  0  0  0  0  0
   39.3700   32.7050   41.1120 C   0  0  0  0  0  0  0  0  0  0  0  0
   38.8860   33.9130   40.6510 C   0  0  0  0  0  0  0  0  0  0  0  0
   37.7840   33.9810   39.8410 C   0  0  0  0  0  0  0  0  0  0  0  0
   37.1780   32.7690   39.5110 C   0  0  0  0  0  0  0  0  0  0  0  0
   40.2420   32.8350   41.7310 H   0  0  0  0  0  0  0  0  0  0  0  0
   39.3220   34.8850   40.8790 H   0  0  0  0  0  0  0  0  0  0  0  0
   37.3380   34.8810   39.4340 H   0  0  0  0  0  0  0  0  0  0  0  0
   36.3030   32.7880   38.8720 H   0  0  0  0  0  0  0  0  0  0  0  0
   36.7720   30.0950   39.4540 S   0  0  0  0  0  0  0  0  0  0  0  0
   36.2850   30.1660   38.0130 O   0  0  0  0  0  0  0  0  0  0  0  0
   35.4920   29.9840   40.2670 O   0  0  0  0  0  0  0  0  0  0  0  0
   37.4920   28.9700   39.6880 H   0  0  0  0  0  0  0  0  0  0  0  0
   37.3620   24.3520   42.1510 C   0  0  0  0  0  0  0  0  0  0  0  0
   36.4200   24.1310   42.6630 H   0  0  0  0  0  0  0  0  0  0  0  0
   38.1530   23.7750   42.6920 H   0  0  0  0  0  0  0  0  0  0  0  0
   37.4010   23.8620   40.7200 C   0  0  0  0  0  3  0  0  0  0  0  0
   38.1760   22.6180   40.5070 C   0  0  0  0  0  3  0  0  0  0  0  0
   39.1910   22.8230   40.0500 H   0  0  0  0  0  0  0  0  0  0  0  0
   37.5410   21.5980   39.6370 C   0  0  0  0  0  3  0  0  0  0  0  0
   38.3060   20.9750   39.1220 H   0  0  0  0  0  0  0  0  0  0  0  0
   36.8090   22.2600   38.6480 O   0  0  0  0  0  0  0  0  0  0  0  0
   35.6470   22.6770   39.3280 C   0  0  0  0  0  3  0  0  0  0  0  0
   35.2240   21.8670   39.9680 H   0  0  0  0  0  0  0  0  0  0  0  0
   36.0110   23.8630   40.1620 C   0  0  0  0  0  3  0  0  0  0  0  0
   35.7690   24.7700   39.5670 H   0  0  0  0  0  0  0  0  0  0  0  0
  1  2  1  0  0  0  0
  2  9  1  0  0  0  0
  2  3  2  0  0  0  0
  3  8  1  0  0  0  0
  4  3  1  0  0  0  0
  5  4  2  0  0  0  0
  6  1  2  0  0  0  0
  6  5  1  0  0  0  0
  7  1  1  0  0  0  0
  9 10  1  0  0  0  0
  9 11  1  0  0  0  0
 12  9  1  0  0  0  0
 13 12  1  0  0  0  0
 14 12  1  0  0  0  0
 15 16  1  0  0  0  0
 16 17  2  0  0  0  0
 16 12  1  0  0  0  0
 17 21  1  0  0  0  0
 18 22  1  0  0  0  0
 18 17  1  0  0  0  0
 19 18  2  0  0  0  0
 20 19  1  0  0  0  0
 20 15  2  0  0  0  0
 23 19  1  0  0  0  0
 24 20  1  0  0  0  0
 25 28  1  0  0  0  0
 25 15  1  0  0  0  0
 25 27  2  0  0  0  0
 26 25  2  0  0  0  0
 29  5  1  0  0  0  0
 29 30  1  0  0  0  0
 29 31  1  0  0  0  0
 32 29  1  0  0  0  0
 33 32  1  0  0  0  0
 34 33  1  0  0  0  0
 35 33  1  0  0  0  0
 36 35  1  0  0  0  0
 37 38  1  0  0  0  0
 37 35  1  0  0  0  0
 38 39  1  0  0  0  0
 38 40  1  0  0  0  0
 40 32  1  0  0  0  0
 41 40  1  0  0  0  0
M  END
>  <minimizedAffinity>
-5.37123775

$$$$

 OpenBabel03242522403D

 41 43  0  0  0  0  0  0  0  0999 V2000
   36.6800   30.1350   41.5880 C   0  0  0  0  0  0  0  0  0  0  0  0
   37.9900   29.6240   41.8460 C   0  0  0  0  0  0  0  0  0  0  0  0
   38.8580   29.4690   40.7650 C   0  0  0  0  0  0  0  0  0  0  0  0
   38.4020   29.8160   39.5210 N   0  0  0  0  0  0  0  0  0  0  0  0
   37.1800   30.2850   39.3300 C   0  0  0  0  0  0  0  0  0  0  0  0
   36.3210   30.4480   40.3290 N   0  0  0  0  0  0  0  0  0  0  0  0
   35.9630   30.2760   42.3840 H   0  0  0  0  0  0  0  0  0  0  0  0
   39.8560   29.0850   40.9260 H   0  0  0  0  0  0  0  0  0  0  0  0
   38.3770   29.2820   43.2190 C   0  0  0  0  0  0  0  0  0  0  0  0
   39.5060   29.3090   43.2410 H   0  0  0  0  0  0  0  0  0  0  0  0
   38.0680   30.0390   43.9430 H   0  0  0  0  0  0  0  0  0  0  0  0
   37.8740   27.8880   43.4980 C   0  0  0  0  0  0  0  0  0  0  0  0
   37.4070   27.8020   44.5240 H   0  0  0  0  0  0  0  0  0  0  0  0
   36.9890   27.7050   42.8180 H   0  0  0  0  0  0  0  0  0  0  0  0
   38.5130   25.7770   42.4130 C   0  0  0  0  0  0  0  0  0  0  0  0
   38.8350   26.8120   43.2730 C   0  0  0  0  0  0  0  0  0  0  0  0
   40.0270   26.8850   43.9280 C   0  0  0  0  0  0  0  0  0  0  0  0
   40.9610   25.8880   43.7320 C   0  0  0  0  0  0  0  0  0  0  0  0
   40.7160   24.8310   42.8980 C   0  0  0  0  0  0  0  0  0  0  0  0
   39.4760   24.8160   42.2570 C   0  0  0  0  0  0  0  0  0  0  0  0
   40.3820   27.6340   44.6160 H   0  0  0  0  0  0  0  0  0  0  0  0
   41.9410   25.8520   44.2070 H   0  0  0  0  0  0  0  0  0  0  0  0
   41.3880   24.0070   42.6870 H   0  0  0  0  0  0  0  0  0  0  0  0
   39.2500   23.9930   41.5900 H   0  0  0  0  0  0  0  0  0  0  0  0
   36.9990   25.6480   41.5600 S   0  0  0  0  0  0  0  0  0  0  0  0
   36.7250   24.2280   41.0830 O   0  0  0  0  0  0  0  0  0  0  0  0
   37.0970   26.4510   40.2740 O   0  0  0  0  0  0  0  0  0  0  0  0
   35.9570   26.1510   42.2670 H   0  0  0  0  0  0  0  0  0  0  0  0
   36.7760   30.6700   37.9310 C   0  0  0  0  0  0  0  0  0  0  0  0
   37.5730   31.2030   37.4040 H   0  0  0  0  0  0  0  0  0  0  0  0
   35.9240   31.3900   38.0200 H   0  0  0  0  0  0  0  0  0  0  0  0
   36.2330   29.4830   37.1640 C   0  0  0  0  0  3  0  0  0  0  0  0
   34.8340   29.1210   37.4830 C   0  0  0  0  0  3  0  0  0  0  0  0
   34.7730   28.2130   38.1580 H   0  0  0  0  0  0  0  0  0  0  0  0
   33.9590   28.8200   36.3240 C   0  0  0  0  0  3  0  0  0  0  0  0
   33.1520   28.1060   36.6020 H   0  0  0  0  0  0  0  0  0  0  0  0
   34.7350   28.2080   35.3370 O   0  0  0  0  0  0  0  0  0  0  0  0
   35.4430   29.2840   34.7660 C   0  0  0  0  0  3  0  0  0  0  0  0
   34.7830   30.1620   34.5720 H   0  0  0  0  0  0  0  0  0  0  0  0
   36.5420   29.6560   35.7090 C   0  0  0  0  0  3  0  0  0  0  0  0
   37.4550   29.1170   35.3780 H   0  0  0  0  0  0  0  0  0  0  0  0
  1  2  1  0  0  0  0
  1  7  1  0  0  0  0
  2  9  1  0  0  0  0
  3  8  1  0  0  0  0
  3  2  2  0  0  0  0
  4  3  1  0  0  0  0
  5  4  2  0  0  0  0
  5  6  1  0  0  0  0
  6  1  2  0  0  0  0
  9 10  1  0  0  0  0
  9 12  1  0  0  0  0
  9 11  1  0  0  0  0
 12 13  1  0  0  0  0
 14 12  1  0  0  0  0
 15 16  1  0  0  0  0
 16 12  1  0  0  0  0
 16 17  2  0  0  0  0
 17 21  1  0  0  0  0
 18 17  1  0  0  0  0
 18 22  1  0  0  0  0
 19 18  2  0  0  0  0
 20 15  2  0  0  0  0
 20 19  1  0  0  0  0
 23 19  1  0  0  0  0
 24 20  1  0  0  0  0
 25 28  1  0  0  0  0
 25 15  1  0  0  0  0
 26 25  2  0  0  0  0
 27 25  2  0  0  0  0
 29 31  1  0  0  0  0
 29  5  1  0  0  0  0
 30 29  1  0  0  0  0
 32 33  1  0  0  0  0
 32 29  1  0  0  0  0
 33 34  1  0  0  0  0
 35 36  1  0  0  0  0
 35 33  1  0  0  0  0
 37 35  1  0  0  0  0
 38 37  1  0  0  0  0
 38 40  1  0  0  0  0
 39 38  1  0  0  0  0
 40 32  1  0  0  0  0
 41 40  1  0  0  0  0
M  END
>  <minimizedAffinity>
-5.31274319

$$$$
