
 OpenBabel03242523553D

 46 49  0  0  1  0  0  0  0  0999 V2000
   42.8160   34.5050   38.7590 C   0  0  1  0  0  0  0  0  0  0  0  0
   42.9590   35.1850   40.1130 C   0  0  1  0  0  0  0  0  0  0  0  0
   41.6650   35.4020   40.6310 O   0  0  0  0  0  0  0  0  0  0  0  0
   40.7410   35.7380   39.6380 C   0  0  0  0  0  0  0  0  0  0  0  0
   40.4380   34.5660   38.7270 C   0  0  2  0  0  0  0  0  0  0  0  0
   41.6480   33.5780   38.8710 C   0  0  1  0  0  0  0  0  0  0  0  0
   43.7470   33.9400   38.5120 H   0  0  0  0  0  0  0  0  0  0  0  0
   43.5460   36.1060   40.0850 H   0  0  0  0  0  0  0  0  0  0  0  0
   41.0380   36.6510   39.0670 H   0  0  0  0  0  0  0  0  0  0  0  0
   39.8290   36.0410   40.1930 H   0  0  0  0  0  0  0  0  0  0  0  0
   39.5100   34.0390   39.0060 H   0  0  0  0  0  0  0  0  0  0  0  0
   41.4220   33.3000   39.9500 H   0  0  0  0  0  0  0  0  0  0  0  0
   42.6040   35.4520   37.7480 O   0  0  0  0  0  0  0  0  0  0  0  0
   42.9550   35.1300   36.8840 H   0  0  0  0  0  0  0  0  0  0  0  0
   40.4530   34.9870   37.4070 O   0  0  0  0  0  0  0  0  0  0  0  0
   40.5230   34.2290   36.7720 H   0  0  0  0  0  0  0  0  0  0  0  0
   43.4920   34.1900   40.9600 O   0  0  0  0  0  0  0  0  0  0  0  0
   44.6000   34.3360   41.6940 C   0  0  0  0  0  0  0  0  0  0  0  0
   45.8630   34.4400   41.0910 C   0  0  0  0  0  0  0  0  0  0  0  0
   46.9730   34.5900   41.9030 C   0  0  0  0  0  0  0  0  0  0  0  0
   46.8100   34.6330   43.2790 N   0  0  0  0  0  0  0  0  0  0  0  0
   45.5770   34.5280   43.8230 C   0  0  0  0  0  0  0  0  0  0  0  0
   44.4810   34.3800   43.0390 N   0  0  0  0  0  0  0  0  0  0  0  0
   45.9770   34.4060   40.0260 H   0  0  0  0  0  0  0  0  0  0  0  0
   45.4670   34.5630   44.9010 H   0  0  0  0  0  0  0  0  0  0  0  0
   48.3540   34.6870   41.3340 C   0  0  0  0  0  0  0  0  0  0  0  0
   49.0770   36.0220   41.5070 C   0  0  0  0  0  0  0  0  0  0  0  0
   49.5010   34.7050   42.1830 C   0  0  0  0  0  0  0  0  0  0  0  0
   48.4080   34.2360   40.3090 H   0  0  0  0  0  0  0  0  0  0  0  0
   48.5170   36.7680   42.0890 H   0  0  0  0  0  0  0  0  0  0  0  0
   49.6380   36.3580   40.6370 H   0  0  0  0  0  0  0  0  0  0  0  0
   50.4540   34.3270   41.8160 H   0  0  0  0  0  0  0  0  0  0  0  0
   49.3440   34.7540   43.2930 H   0  0  0  0  0  0  0  0  0  0  0  0
   41.5220   32.6460   37.9100 O   0  0  0  0  0  0  0  0  0  0  0  0
   40.8370   31.4860   37.9290 C   0  0  0  0  0  0  0  0  0  0  0  0
   39.6190   31.3910   37.4620 O   0  0  0  0  0  0  0  0  0  0  0  0
   40.7510   30.0400   38.2600 C   0  0  0  0  0  3  0  0  0  0  0  0
   41.0300   29.1540   37.0800 C   0  0  0  0  0  3  0  0  0  0  0  0
   42.1040   29.1480   36.8070 H   0  0  0  0  0  0  0  0  0  0  0  0
   40.6590   27.7590   37.5490 C   0  0  0  0  0  3  0  0  0  0  0  0
   39.5700   27.8320   37.8310 H   0  0  0  0  0  0  0  0  0  0  0  0
   41.4540   27.3790   38.6040 O   0  0  0  0  0  0  0  0  0  0  0  0
   41.3330   28.2030   39.7090 C   0  0  0  0  0  3  0  0  0  0  0  0
   40.2450   28.2690   39.9750 H   0  0  0  0  0  0  0  0  0  0  0  0
   41.7210   29.6320   39.3440 C   0  0  0  0  0  3  0  0  0  0  0  0
   42.7700   29.6870   39.0000 H   0  0  0  0  0  0  0  0  0  0  0  0
  1  7  1  6  0  0  0
  1  6  1  0  0  0  0
  1  2  1  0  0  0  0
  2  8  1  6  0  0  0
  2  3  1  0  0  0  0
  2 17  1  0  0  0  0
  4 10  1  0  0  0  0
  4  3  1  0  0  0  0
  5  6  1  0  0  0  0
  5 11  1  1  0  0  0
  5  4  1  0  0  0  0
  6 12  1  1  0  0  0
  9  4  1  0  0  0  0
 13  1  1  0  0  0  0
 14 13  1  0  0  0  0
 15  5  1  0  0  0  0
 16 15  1  0  0  0  0
 17 18  1  0  0  0  0
 18 23  1  0  0  0  0
 19 18  2  0  0  0  0
 19 20  1  0  0  0  0
 20 21  2  0  0  0  0
 21 22  1  0  0  0  0
 22 25  1  0  0  0  0
 23 22  2  0  0  0  0
 24 19  1  0  0  0  0
 26 27  1  0  0  0  0
 26 20  1  0  0  0  0
 26 28  1  0  0  0  0
 27 30  1  0  0  0  0
 27 28  1  0  0  0  0
 28 33  1  0  0  0  0
 29 26  1  0  0  0  0
 31 27  1  0  0  0  0
 32 28  1  0  0  0  0
 34 35  1  0  0  0  0
 34  6  1  0  0  0  0
 35 37  1  0  0  0  0
 36 35  2  0  0  0  0
 37 45  1  0  0  0  0
 38 40  1  0  0  0  0
 38 37  1  0  0  0  0
 39 38  1  0  0  0  0
 40 41  1  0  0  0  0
 40 42  1  0  0  0  0
 42 43  1  0  0  0  0
 43 44  1  0  0  0  0
 45 43  1  0  0  0  0
 46 45  1  0  0  0  0
M  END
>  <minimizedAffinity>
-5.67750645

>  <minimizedRMSD>
0.168944851

$$$$
