
 OpenBabel03242522473D

 42 45  0  0  0  0  0  0  0  0999 V2000
   45.8920   34.5460   44.0390 C   0  0  0  0  0  0  0  0  0  0  0  0
   46.9550   33.8470   43.4100 C   0  0  0  0  0  0  0  0  0  0  0  0
   47.5600   32.7720   44.0920 C   0  0  0  0  0  0  0  0  0  0  0  0
   47.0850   32.4650   45.3260 N   0  0  0  0  0  0  0  0  0  0  0  0
   46.0750   33.1420   45.9040 C   0  0  0  0  0  0  0  0  0  0  0  0
   45.4930   34.1680   45.2610 N   0  0  0  0  0  0  0  0  0  0  0  0
   45.2870   35.6140   43.3650 N   0  0  0  0  0  0  0  0  0  0  0  0
   48.3730   32.2170   43.6420 H   0  0  0  0  0  0  0  0  0  0  0  0
   44.9950   35.3880   42.3780 H   0  0  0  0  0  0  0  0  0  0  0  0
   45.1920   36.5160   43.9100 H   0  0  0  0  0  0  0  0  0  0  0  0
   47.4410   34.1970   42.0930 C   0  0  0  0  0  0  0  0  0  0  0  0
   48.3820   35.1490   41.7610 C   0  0  0  0  0  0  0  0  0  0  0  0
   48.7350   35.3590   40.4420 C   0  0  0  0  0  0  0  0  0  0  0  0
   48.1560   34.6200   39.4020 C   0  0  0  0  0  0  0  0  0  0  0  0
   48.5600   34.8950   38.1620 N   0  0  0  0  0  0  0  0  0  0  0  0
   48.0060   34.1820   37.1270 C   0  0  0  0  0  0  0  0  0  0  0  0
   47.0690   33.2340   37.4480 C   0  0  0  0  0  0  0  0  0  0  0  0
   46.6440   32.9420   38.7230 C   0  0  0  0  0  0  0  0  0  0  0  0
   47.2080   33.6640   39.7510 C   0  0  0  0  0  0  0  0  0  0  0  0
   46.8540   33.4520   41.0710 C   0  0  0  0  0  0  0  0  0  0  0  0
   48.7960   35.6890   42.5950 H   0  0  0  0  0  0  0  0  0  0  0  0
   49.4840   36.1240   40.2340 H   0  0  0  0  0  0  0  0  0  0  0  0
   48.2710   34.3350   36.1050 H   0  0  0  0  0  0  0  0  0  0  0  0
   46.6220   32.6620   36.6320 H   0  0  0  0  0  0  0  0  0  0  0  0
   45.8990   32.1810   38.9220 H   0  0  0  0  0  0  0  0  0  0  0  0
   46.1180   32.6940   41.2230 H   0  0  0  0  0  0  0  0  0  0  0  0
   45.6260   32.7230   47.2730 C   0  0  0  0  0  0  0  0  0  0  0  0
   44.9060   33.4230   47.7030 H   0  0  0  0  0  0  0  0  0  0  0  0
   46.5850   32.6870   47.8680 H   0  0  0  0  0  0  0  0  0  0  0  0
   45.0730   31.3050   47.1930 C   0  0  0  0  0  0  0  0  0  0  0  0
   43.9910   31.2950   47.3050 H   0  0  0  0  0  0  0  0  0  0  0  0
   45.4000   30.8930   46.2140 H   0  0  0  0  0  0  0  0  0  0  0  0
   45.7590   30.4900   48.2900 C   0  0  0  0  0  3  0  0  0  0  0  0
   44.9210   29.2660   48.6270 C   0  0  0  0  0  3  0  0  0  0  0  0
   44.9910   29.0610   49.7080 H   0  0  0  0  0  0  0  0  0  0  0  0
   45.4660   28.0380   47.9050 C   0  0  0  0  0  3  0  0  0  0  0  0
   44.6550   27.2940   47.8820 H   0  0  0  0  0  0  0  0  0  0  0  0
   45.8150   28.3510   46.5880 O   0  0  0  0  0  0  0  0  0  0  0  0
   46.9370   29.1750   46.5380 C   0  0  0  0  0  3  0  0  0  0  0  0
   47.8360   28.5390   46.4510 H   0  0  0  0  0  0  0  0  0  0  0  0
   47.0970   29.9780   47.8060 C   0  0  0  0  0  3  0  0  0  0  0  0
   47.8220   30.7700   47.6250 H   0  0  0  0  0  0  0  0  0  0  0  0
  1  6  1  0  0  0  0
  2  1  2  0  0  0  0
  2  3  1  0  0  0  0
  3  4  2  0  0  0  0
  4  5  1  0  0  0  0
  5 27  1  0  0  0  0
  6  5  2  0  0  0  0
  7 10  1  0  0  0  0
  7  1  1  0  0  0  0
  8  3  1  0  0  0  0
  9  7  1  0  0  0  0
 11  2  1  0  0  0  0
 12 11  1  0  0  0  0
 12 21  1  0  0  0  0
 13 12  2  0  0  0  0
 14 19  1  0  0  0  0
 14 13  1  0  0  0  0
 15 14  2  0  0  0  0
 16 17  2  0  0  0  0
 16 15  1  0  0  0  0
 17 18  1  0  0  0  0
 18 25  1  0  0  0  0
 18 19  2  0  0  0  0
 19 20  1  0  0  0  0
 20 26  1  0  0  0  0
 20 11  2  0  0  0  0
 22 13  1  0  0  0  0
 23 16  1  0  0  0  0
 24 17  1  0  0  0  0
 27 28  1  0  0  0  0
 27 29  1  0  0  0  0
 30 27  1  0  0  0  0
 30 31  1  0  0  0  0
 30 33  1  0  0  0  0
 32 30  1  0  0  0  0
 33 34  1  0  0  0  0
 34 35  1  0  0  0  0
 36 34  1  0  0  0  0
 37 36  1  0  0  0  0
 38 36  1  0  0  0  0
 39 38  1  0  0  0  0
 39 41  1  0  0  0  0
 40 39  1  0  0  0  0
 41 33  1  0  0  0  0
 42 41  1  0  0  0  0
M  END
>  <minimizedAffinity>
-5.65578318

>  <minimizedRMSD>
2.19151711

$$$$
