
 OpenBabel03242521183D

 39 41  0  0  0  0  0  0  0  0999 V2000
   50.0660   29.7490   44.1020 C   0  0  0  0  0  0  0  0  0  0  0  0
   51.0130   29.4740   43.6250 H   0  0  0  0  0  0  0  0  0  0  0  0
   50.1860   30.8120   44.4540 H   0  0  0  0  0  0  0  0  0  0  0  0
   46.9140   29.1130   42.1880 C   0  0  0  0  0  0  0  0  0  0  0  0
   47.0040   30.1250   41.2170 C   0  0  0  0  0  0  0  0  0  0  0  0
   48.1180   30.9500   41.2750 C   0  0  0  0  0  0  0  0  0  0  0  0
   49.0650   30.7440   42.2590 N   0  0  0  0  0  0  0  0  0  0  0  0
   48.9220   29.7620   43.1550 C   0  0  0  0  0  0  0  0  0  0  0  0
   47.8450   28.9240   43.1420 N   0  0  0  0  0  0  0  0  0  0  0  0
   46.0540   28.4400   42.1800 H   0  0  0  0  0  0  0  0  0  0  0  0
   46.2390   30.2390   40.4750 H   0  0  0  0  0  0  0  0  0  0  0  0
   48.2370   31.9890   40.3000 N   0  0  0  0  0  0  0  0  0  0  0  0
   47.5210   33.1090   40.4670 C   0  0  0  0  0  0  0  0  0  0  0  0
   47.6250   34.1240   39.5330 C   0  0  0  0  0  0  0  0  0  0  0  0
   48.4610   33.9330   38.4760 C   0  0  0  0  0  0  0  0  0  0  0  0
   48.5540   34.8740   37.6130 O   0  0  0  0  0  0  0  0  0  0  0  0
   49.1920   32.8130   38.2850 N   0  0  0  0  0  0  0  0  0  0  0  0
   49.0410   31.8690   39.2320 C   0  0  0  0  0  0  0  0  0  0  0  0
   49.6760   30.7840   39.1580 O   0  0  0  0  0  0  0  0  0  0  0  0
   46.8500   33.2710   41.3100 H   0  0  0  0  0  0  0  0  0  0  0  0
   47.0620   35.0440   39.6330 H   0  0  0  0  0  0  0  0  0  0  0  0
   49.8310   32.6800   37.4690 H   0  0  0  0  0  0  0  0  0  0  0  0
   49.7510   28.9230   45.3230 C   0  0  0  0  0  0  0  0  0  0  0  0
   50.5800   29.0430   46.0420 H   0  0  0  0  0  0  0  0  0  0  0  0
   49.6670   27.8460   45.0960 H   0  0  0  0  0  0  0  0  0  0  0  0
   48.6150   29.8530   47.2940 C   0  0  0  0  0  0  0  0  0  0  0  0
   49.7310   29.7210   47.8670 O   0  0  0  0  0  0  0  0  0  0  0  0
   48.5560   29.4660   45.9540 N   0  0  0  0  0  0  0  0  0  0  0  0
   47.6910   29.5520   45.3920 H   0  0  0  0  0  0  0  0  0  0  0  0
   47.4340   30.3940   48.0200 C   0  0  0  0  0  3  0  0  0  0  0  0
   47.2260   31.8690   47.7430 C   0  0  0  0  0  3  0  0  0  0  0  0
   46.8100   31.9730   46.7070 H   0  0  0  0  0  0  0  0  0  0  0  0
   46.1130   32.3280   48.6750 C   0  0  0  0  0  3  0  0  0  0  0  0
   45.9650   33.4130   48.6430 H   0  0  0  0  0  0  0  0  0  0  0  0
   44.9540   31.6610   48.2300 O   0  0  0  0  0  0  0  0  0  0  0  0
   45.0590   30.3120   48.4980 C   0  0  0  0  0  3  0  0  0  0  0  0
   44.1070   29.8310   48.1800 H   0  0  0  0  0  0  0  0  0  0  0  0
   46.1660   29.6430   47.7240 C   0  0  0  0  0  3  0  0  0  0  0  0
   45.9120   29.5420   46.6710 H   0  0  0  0  0  0  0  0  0  0  0  0
  1  3  1  0  0  0  0
  1 23  1  0  0  0  0
  2  1  1  0  0  0  0
  4  9  1  0  0  0  0
  5  6  1  0  0  0  0
  5  4  2  0  0  0  0
  6  7  2  0  0  0  0
  7  8  1  0  0  0  0
  8  1  1  0  0  0  0
  9  8  2  0  0  0  0
 10  4  1  0  0  0  0
 11  5  1  0  0  0  0
 12 13  1  0  0  0  0
 12  6  1  0  0  0  0
 13 20  1  0  0  0  0
 14 21  1  0  0  0  0
 14 13  2  0  0  0  0
 15 14  1  0  0  0  0
 16 15  2  0  0  0  0
 17 15  1  0  0  0  0
 17 18  1  0  0  0  0
 18 12  1  0  0  0  0
 19 18  2  0  0  0  0
 22 17  1  0  0  0  0
 23 28  1  0  0  0  0
 23 24  1  0  0  0  0
 25 23  1  0  0  0  0
 26 27  2  0  0  0  0
 26 30  1  0  0  0  0
 28 26  1  0  0  0  0
 29 28  1  0  0  0  0
 31 30  1  0  0  0  0
 31 33  1  0  0  0  0
 32 31  1  0  0  0  0
 34 33  1  0  0  0  0
 35 36  1  0  0  0  0
 35 33  1  0  0  0  0
 37 36  1  0  0  0  0
 38 30  1  0  0  0  0
 38 36  1  0  0  0  0
 39 38  1  0  0  0  0
M  END
>  <minimizedAffinity>
-4.01548624

>  <minimizedRMSD>
4.72580576

$$$$
