
 OpenBabel03252507463D

 38 40  0  0  0  0  0  0  0  0999 V2000
   47.1830   34.4800   40.9860 C   0  0  0  0  0  0  0  0  0  0  0  0
   46.6130   33.7090   40.4390 H   0  0  0  0  0  0  0  0  0  0  0  0
   47.4130   35.2920   40.2500 H   0  0  0  0  0  0  0  0  0  0  0  0
   48.4830   33.9690   41.4660 C   0  0  0  0  0  0  0  0  0  0  0  0
   48.7270   32.6120   41.2720 C   0  0  0  0  0  0  0  0  0  0  0  0
   49.9240   32.0640   41.6920 C   0  0  0  0  0  0  0  0  0  0  0  0
   50.8350   32.8830   42.2880 N   0  0  0  0  0  0  0  0  0  0  0  0
   50.5640   34.2000   42.4600 C   0  0  0  0  0  0  0  0  0  0  0  0
   49.4150   34.7040   42.0520 N   0  0  0  0  0  0  0  0  0  0  0  0
   50.1200   30.9960   41.5420 H   0  0  0  0  0  0  0  0  0  0  0  0
   51.3380   34.7900   42.9440 H   0  0  0  0  0  0  0  0  0  0  0  0
   47.4870   31.5750   40.4750 S   0  0  0  0  0  0  0  0  0  0  0  0
   46.4440   30.7360   41.7090 C   0  0  0  0  0  3  0  0  0  0  0  0
   45.0050   31.0240   41.3670 C   0  0  0  0  0  3  0  0  0  0  0  0
   44.9380   31.8820   40.6660 H   0  0  0  0  0  0  0  0  0  0  0  0
   44.2600   31.4220   42.6040 C   0  0  0  0  0  3  0  0  0  0  0  0
   44.5580   32.4530   42.8720 H   0  0  0  0  0  0  0  0  0  0  0  0
   44.5980   30.4980   43.5930 O   0  0  0  0  0  0  0  0  0  0  0  0
   45.8580   30.7630   44.0970 C   0  0  0  0  0  3  0  0  0  0  0  0
   46.3250   29.8290   44.4760 H   0  0  0  0  0  0  0  0  0  0  0  0
   46.7800   31.3400   43.0540 C   0  0  0  0  0  3  0  0  0  0  0  0
   47.8430   31.0450   43.2550 H   0  0  0  0  0  0  0  0  0  0  0  0
   46.3420   35.0530   42.0710 C   0  0  0  0  0  0  0  0  0  0  0  0
   46.5170   34.4630   43.0010 H   0  0  0  0  0  0  0  0  0  0  0  0
   46.6320   36.0940   42.2500 H   0  0  0  0  0  0  0  0  0  0  0  0
   44.8740   34.9810   41.8040 C   0  0  0  0  0  0  0  0  0  0  0  0
   43.9440   35.4540   42.7760 C   0  0  0  0  0  0  0  0  0  0  0  0
   42.3220   35.1440   41.9800 S   0  0  0  0  0  0  0  0  0  0  0  0
   43.1820   34.4190   40.4460 C   0  0  0  0  0  0  0  0  0  0  0  0
   44.2840   34.5120   40.7310 N   0  0  0  0  0  0  0  0  0  0  0  0
   44.1800   35.8840   43.7380 H   0  0  0  0  0  0  0  0  0  0  0  0
   42.4800   33.9410   39.3450 O   0  0  0  0  0  0  0  0  0  0  0  0
   40.4990   34.3340   37.6430 O   0  0  0  0  0  0  0  0  0  0  0  0
   41.5690   35.0580   38.4500 P   0  0  0  0  0  0  0  0  0  0  0  0
   40.8330   36.1220   39.5440 O   0  0  0  0  0  0  0  0  0  0  0  0
   40.2250   35.6410   40.1460 H   0  0  0  0  0  0  0  0  0  0  0  0
   42.5800   35.9560   37.4400 O   0  0  0  0  0  0  0  0  0  0  0  0
   42.2000   35.9400   36.5120 H   0  0  0  0  0  0  0  0  0  0  0  0
  1  4  1  0  0  0  0
  1 23  1  0  0  0  0
  2  1  1  0  0  0  0
  3  1  1  0  0  0  0
  4  9  1  0  0  0  0
  5  4  2  0  0  0  0
  5  6  1  0  0  0  0
  6  7  2  0  0  0  0
  7  8  1  0  0  0  0
  8 11  1  0  0  0  0
  9  8  2  0  0  0  0
 10  6  1  0  0  0  0
 12  5  1  0  0  0  0
 12 13  1  0  0  0  0
 13 21  1  0  0  0  0
 14 13  1  0  0  0  0
 14 16  1  0  0  0  0
 15 14  1  0  0  0  0
 16 17  1  0  0  0  0
 16 18  1  0  0  0  0
 18 19  1  0  0  0  0
 19 20  1  0  0  0  0
 21 22  1  0  0  0  0
 21 19  1  0  0  0  0
 23 25  1  0  0  0  0
 23 24  1  0  0  0  0
 26 23  1  0  0  0  0
 26 27  2  0  0  0  0
 27 31  1  0  0  0  0
 28 27  1  0  0  0  0
 29 30  2  0  0  0  0
 29 28  1  0  0  0  0
 30 26  1  0  0  0  0
 32 29  1  0  0  0  0
 33 34  2  0  0  0  0
 34 32  1  0  0  0  0
 34 35  1  0  0  0  0
 35 36  1  0  0  0  0
 37 34  1  0  0  0  0
 38 37  1  0  0  0  0
M  END
>  <minimizedAffinity>
-4.45606995

>  <minimizedRMSD>
0.968601167

$$$$
