
 OpenBabel03252503353D

 23 24  0  0  0  0  0  0  0  0999 V2000
   47.0910   33.3940   41.3280 C   0  0  0  0  0  0  0  0  0  0  0  0
   45.9020   32.9220   41.3710 O   0  0  0  0  0  0  0  0  0  0  0  0
   47.3660   34.3090   42.3750 N   0  0  0  0  0  0  0  0  0  0  0  0
   48.3100   34.7360   42.4270 H   0  0  0  0  0  0  0  0  0  0  0  0
   48.0450   33.0040   40.2850 C   0  0  0  0  0  3  0  0  0  0  0  0
   47.5210   31.9060   39.3760 C   0  0  0  0  0  3  0  0  0  0  0  0
   47.6430   30.9550   39.8970 H   0  0  0  0  0  0  0  0  0  0  0  0
   48.4270   31.9150   38.1490 C   0  0  0  0  0  3  0  0  0  0  0  0
   48.1430   32.7380   37.4430 H   0  0  0  0  0  0  0  0  0  0  0  0
   49.7550   32.1270   38.4640 O   0  0  0  0  0  0  0  0  0  0  0  0
   50.0260   31.6910   39.7470 C   0  0  0  0  0  3  0  0  0  0  0  0
   51.1120   31.6630   39.9570 H   0  0  0  0  0  0  0  0  0  0  0  0
   49.3800   32.5620   40.8090 C   0  0  0  0  0  3  0  0  0  0  0  0
   49.2970   31.9250   41.7140 H   0  0  0  0  0  0  0  0  0  0  0  0
   44.6420   36.0440   44.2230 C   0  0  0  0  0  0  0  0  0  0  0  0
   45.5620   35.7700   43.1960 C   0  0  0  0  0  0  0  0  0  0  0  0
   46.4090   34.6660   43.3510 C   0  0  0  0  0  0  0  0  0  0  0  0
   46.3120   33.9140   44.4700 N   0  0  0  0  0  0  0  0  0  0  0  0
   45.4080   34.2020   45.4540 C   0  0  0  0  0  0  0  0  0  0  0  0
   44.5890   35.2600   45.3180 N   0  0  0  0  0  0  0  0  0  0  0  0
   43.9870   36.9080   44.0910 H   0  0  0  0  0  0  0  0  0  0  0  0
   45.6300   36.3780   42.3080 H   0  0  0  0  0  0  0  0  0  0  0  0
   45.3120   33.6160   46.3560 H   0  0  0  0  0  0  0  0  0  0  0  0
  1  2  2  0  0  0  0
  1  3  1  0  0  0  0
  3  4  1  0  0  0  0
  3 17  1  0  0  0  0
  5 13  1  0  0  0  0
  5  1  1  0  0  0  0
  6  7  1  0  0  0  0
  6  5  1  0  0  0  0
  8 10  1  0  0  0  0
  8  6  1  0  0  0  0
  9  8  1  0  0  0  0
 10 11  1  0  0  0  0
 11 12  1  0  0  0  0
 11 13  1  0  0  0  0
 13 14  1  0  0  0  0
 15 20  1  0  0  0  0
 16 17  1  0  0  0  0
 16 15  2  0  0  0  0
 17 18  2  0  0  0  0
 18 19  1  0  0  0  0
 19 23  1  0  0  0  0
 20 19  2  0  0  0  0
 21 15  1  0  0  0  0
 22 16  1  0  0  0  0
M  END
>  <minimizedAffinity>
-3.74697948

>  <minimizedRMSD>
1.83752179

$$$$
