
 OpenBabel03242516533D

 46 49  0  0  1  0  0  0  0  0999 V2000
   47.8000   32.8350   41.6890 C   0  0  1  0  0  0  0  0  0  0  0  0
   47.4170   32.1480   40.4560 C   0  0  0  0  0  0  0  0  0  0  0  0
   48.4170   32.5950   39.3960 C   0  0  0  0  0  0  0  0  0  0  0  0
   48.1280   34.0600   39.1090 C   0  0  0  0  0  0  0  0  0  0  0  0
   48.1320   34.9360   40.3240 C   0  0  0  0  0  0  0  0  0  0  0  0
   47.6520   34.3570   41.5800 C   0  0  1  0  0  0  0  0  0  0  0  0
   48.9180   32.7170   41.8320 H   0  0  0  0  0  0  0  0  0  0  0  0
   46.3780   32.4080   40.1440 H   0  0  0  0  0  0  0  0  0  0  0  0
   47.4430   31.0680   40.5940 H   0  0  0  0  0  0  0  0  0  0  0  0
   49.4280   32.4570   39.8150 H   0  0  0  0  0  0  0  0  0  0  0  0
   48.2220   32.0450   38.4650 H   0  0  0  0  0  0  0  0  0  0  0  0
   47.1570   34.1090   38.5800 H   0  0  0  0  0  0  0  0  0  0  0  0
   48.8960   34.3990   38.3830 H   0  0  0  0  0  0  0  0  0  0  0  0
   49.1790   35.3240   40.4280 H   0  0  0  0  0  0  0  0  0  0  0  0
   47.5310   35.8440   40.0770 H   0  0  0  0  0  0  0  0  0  0  0  0
   48.2900   34.7570   42.4250 H   0  0  0  0  0  0  0  0  0  0  0  0
   45.4200   31.0300   44.0100 C   0  0  0  0  0  0  0  0  0  0  0  0
   46.0820   31.5170   42.8760 C   0  0  0  0  0  0  0  0  0  0  0  0
   47.1830   32.3760   42.9160 C   0  0  0  0  0  0  0  0  0  0  0  0
   47.5890   32.7240   44.1380 N   0  0  0  0  0  0  0  0  0  0  0  0
   46.9590   32.2610   45.2510 C   0  0  0  0  0  0  0  0  0  0  0  0
   45.9080   31.4400   45.2020 N   0  0  0  0  0  0  0  0  0  0  0  0
   44.5840   30.3730   43.8350 H   0  0  0  0  0  0  0  0  0  0  0  0
   45.7380   31.2230   41.8920 H   0  0  0  0  0  0  0  0  0  0  0  0
   47.3560   32.5940   46.2150 H   0  0  0  0  0  0  0  0  0  0  0  0
   46.2940   34.7900   41.9230 C   0  0  0  0  0  0  0  0  0  0  0  0
   45.9130   35.4860   43.0780 C   0  0  0  0  0  0  0  0  0  0  0  0
   44.5590   35.8050   43.1830 C   0  0  0  0  0  0  0  0  0  0  0  0
   43.7210   35.4170   42.1600 C   0  0  0  0  0  0  0  0  0  0  0  0
   44.1110   34.7280   41.0230 C   0  0  0  0  0  0  0  0  0  0  0  0
   45.4380   34.4230   40.9350 N   0  0  0  0  0  0  0  0  0  0  0  0
   46.6770   35.7070   43.7640 H   0  0  0  0  0  0  0  0  0  0  0  0
   44.2520   36.3340   44.0520 H   0  0  0  0  0  0  0  0  0  0  0  0
   42.6630   35.6720   42.2530 H   0  0  0  0  0  0  0  0  0  0  0  0
   43.1490   34.3660   39.9900 C   0  0  0  0  0  0  0  0  0  0  0  0
   42.6960   35.2850   39.2510 O   0  0  0  0  0  0  0  0  0  0  0  0
   42.6960   32.9470   39.7940 C   0  0  0  0  0  3  0  0  0  0  0  0
   42.1990   32.7420   38.3770 C   0  0  0  0  0  3  0  0  0  0  0  0
   42.7310   31.9110   37.8710 H   0  0  0  0  0  0  0  0  0  0  0  0
   40.7210   32.4110   38.3310 C   0  0  0  0  0  3  0  0  0  0  0  0
   40.5090   32.2050   37.2440 H   0  0  0  0  0  0  0  0  0  0  0  0
   40.3780   31.3080   39.0960 O   0  0  0  0  0  0  0  0  0  0  0  0
   41.0630   31.2460   40.2990 C   0  0  0  0  0  3  0  0  0  0  0  0
   40.5220   30.7150   41.0840 H   0  0  0  0  0  0  0  0  0  0  0  0
   41.5120   32.6370   40.6940 C   0  0  0  0  0  3  0  0  0  0  0  0
   41.7500   32.6730   41.7590 H   0  0  0  0  0  0  0  0  0  0  0  0
  1  7  1  1  0  0  0
  1 19  1  0  0  0  0
  2  9  1  0  0  0  0
  2  1  1  0  0  0  0
  3 10  1  0  0  0  0
  3  2  1  0  0  0  0
  4  3  1  0  0  0  0
  4  5  1  0  0  0  0
  5 14  1  0  0  0  0
  5  6  1  0  0  0  0
  6  1  1  0  0  0  0
  6 26  1  0  0  0  0
  6 16  1  1  0  0  0
  8  2  1  0  0  0  0
 11  3  1  0  0  0  0
 12  4  1  0  0  0  0
 13  4  1  0  0  0  0
 15  5  1  0  0  0  0
 17 22  1  0  0  0  0
 18 19  1  0  0  0  0
 18 17  2  0  0  0  0
 19 20  2  0  0  0  0
 20 21  1  0  0  0  0
 21 25  1  0  0  0  0
 22 21  2  0  0  0  0
 23 17  1  0  0  0  0
 24 18  1  0  0  0  0
 26 27  1  0  0  0  0
 27 28  2  0  0  0  0
 27 32  1  0  0  0  0
 28 33  1  0  0  0  0
 29 34  1  0  0  0  0
 29 28  1  0  0  0  0
 30 29  2  0  0  0  0
 31 30  1  0  0  0  0
 31 26  2  0  0  0  0
 35 30  1  0  0  0  0
 36 35  2  0  0  0  0
 37 35  1  0  0  0  0
 37 45  1  0  0  0  0
 38 37  1  0  0  0  0
 39 38  1  0  0  0  0
 40 38  1  0  0  0  0
 40 42  1  0  0  0  0
 41 40  1  0  0  0  0
 42 43  1  0  0  0  0
 43 45  1  0  0  0  0
 43 44  1  0  0  0  0
 45 46  1  0  0  0  0
M  END
>  <minimizedAffinity>
-5.45651197

>  <minimizedRMSD>
0.727540314

$$$$
