
 OpenBabel03252507463D

 38 40  0  0  0  0  0  0  0  0999 V2000
   47.5540   34.6310   40.8410 C   0  0  0  0  0  0  0  0  0  0  0  0
   46.9200   34.1250   40.0930 H   0  0  0  0  0  0  0  0  0  0  0  0
   47.8980   35.5890   40.3750 H   0  0  0  0  0  0  0  0  0  0  0  0
   48.7720   33.8550   41.1480 C   0  0  0  0  0  0  0  0  0  0  0  0
   49.0000   32.7230   40.3700 C   0  0  0  0  0  0  0  0  0  0  0  0
   50.1220   31.9490   40.5970 C   0  0  0  0  0  0  0  0  0  0  0  0
   50.9770   32.3270   41.5890 N   0  0  0  0  0  0  0  0  0  0  0  0
   50.7230   33.4350   42.3270 C   0  0  0  0  0  0  0  0  0  0  0  0
   49.6460   34.1610   42.0940 N   0  0  0  0  0  0  0  0  0  0  0  0
   50.3050   31.0570   39.9870 H   0  0  0  0  0  0  0  0  0  0  0  0
   51.4490   33.6730   43.1000 H   0  0  0  0  0  0  0  0  0  0  0  0
   47.8380   32.2710   39.0700 S   0  0  0  0  0  0  0  0  0  0  0  0
   46.4180   31.3560   39.7490 C   0  0  0  0  0  3  0  0  0  0  0  0
   46.8570   29.9340   39.9800 C   0  0  0  0  0  3  0  0  0  0  0  0
   47.7940   29.7210   39.4230 H   0  0  0  0  0  0  0  0  0  0  0  0
   45.8200   28.9910   39.4480 C   0  0  0  0  0  3  0  0  0  0  0  0
   45.8870   28.9900   38.3440 H   0  0  0  0  0  0  0  0  0  0  0  0
   44.5860   29.4510   39.9050 O   0  0  0  0  0  0  0  0  0  0  0  0
   44.1710   30.5460   39.1700 C   0  0  0  0  0  3  0  0  0  0  0  0
   43.5090   31.1940   39.7830 H   0  0  0  0  0  0  0  0  0  0  0  0
   45.3280   31.3910   38.7040 C   0  0  0  0  0  3  0  0  0  0  0  0
   45.0270   32.4690   38.6250 H   0  0  0  0  0  0  0  0  0  0  0  0
   46.7470   34.9590   42.0480 C   0  0  0  0  0  0  0  0  0  0  0  0
   46.9450   34.1820   42.8240 H   0  0  0  0  0  0  0  0  0  0  0  0
   47.0490   35.9360   42.4370 H   0  0  0  0  0  0  0  0  0  0  0  0
   45.2720   34.9450   41.8140 C   0  0  0  0  0  0  0  0  0  0  0  0
   44.3950   35.6040   42.7260 C   0  0  0  0  0  0  0  0  0  0  0  0
   42.7400   35.2940   42.0020 S   0  0  0  0  0  0  0  0  0  0  0  0
   43.5180   34.3160   40.5690 C   0  0  0  0  0  0  0  0  0  0  0  0
   44.6310   34.3760   40.8220 N   0  0  0  0  0  0  0  0  0  0  0  0
   44.6790   36.1420   43.6180 H   0  0  0  0  0  0  0  0  0  0  0  0
   42.7640   33.7420   39.5520 O   0  0  0  0  0  0  0  0  0  0  0  0
   40.7940   33.9700   37.8050 O   0  0  0  0  0  0  0  0  0  0  0  0
   41.8190   34.7760   38.5940 P   0  0  0  0  0  0  0  0  0  0  0  0
   41.0190   35.8530   39.6300 O   0  0  0  0  0  0  0  0  0  0  0  0
   40.4230   35.3730   40.2430 H   0  0  0  0  0  0  0  0  0  0  0  0
   42.8060   35.6730   37.5590 O   0  0  0  0  0  0  0  0  0  0  0  0
   42.4420   35.5980   36.6280 H   0  0  0  0  0  0  0  0  0  0  0  0
  1  4  1  0  0  0  0
  1 23  1  0  0  0  0
  2  1  1  0  0  0  0
  3  1  1  0  0  0  0
  4  9  1  0  0  0  0
  5  6  1  0  0  0  0
  5  4  2  0  0  0  0
  6  7  2  0  0  0  0
  7  8  1  0  0  0  0
  8 11  1  0  0  0  0
  9  8  2  0  0  0  0
 10  6  1  0  0  0  0
 12 13  1  0  0  0  0
 12  5  1  0  0  0  0
 13 14  1  0  0  0  0
 15 14  1  0  0  0  0
 16 18  1  0  0  0  0
 16 14  1  0  0  0  0
 17 16  1  0  0  0  0
 19 20  1  0  0  0  0
 19 18  1  0  0  0  0
 21 19  1  0  0  0  0
 21 13  1  0  0  0  0
 22 21  1  0  0  0  0
 23 25  1  0  0  0  0
 23 24  1  0  0  0  0
 26 23  1  0  0  0  0
 26 27  2  0  0  0  0
 27 31  1  0  0  0  0
 28 27  1  0  0  0  0
 29 30  2  0  0  0  0
 29 28  1  0  0  0  0
 30 26  1  0  0  0  0
 32 29  1  0  0  0  0
 33 34  2  0  0  0  0
 34 32  1  0  0  0  0
 34 35  1  0  0  0  0
 35 36  1  0  0  0  0
 37 34  1  0  0  0  0
 38 37  1  0  0  0  0
M  END
>  <minimizedAffinity>
-4.39041948

>  <minimizedRMSD>
0.88306427

$$$$
