
 OpenBabel03252503353D

 23 24  0  0  0  0  0  0  0  0999 V2000
   46.6030   33.2870   41.2980 C   0  0  0  0  0  0  0  0  0  0  0  0
   45.3800   32.9310   41.4270 O   0  0  0  0  0  0  0  0  0  0  0  0
   47.0440   34.1570   42.3260 N   0  0  0  0  0  0  0  0  0  0  0  0
   48.0260   34.4890   42.3100 H   0  0  0  0  0  0  0  0  0  0  0  0
   47.4340   32.8210   40.1830 C   0  0  0  0  0  3  0  0  0  0  0  0
   48.9160   32.7920   40.5130 C   0  0  0  0  0  3  0  0  0  0  0  0
   49.3000   33.8080   40.4250 H   0  0  0  0  0  0  0  0  0  0  0  0
   49.5630   31.9250   39.4380 C   0  0  0  0  0  3  0  0  0  0  0  0
   49.4170   30.8350   39.6540 H   0  0  0  0  0  0  0  0  0  0  0  0
   49.0300   32.1390   38.1820 O   0  0  0  0  0  0  0  0  0  0  0  0
   48.5180   33.4200   38.0830 C   0  0  0  0  0  3  0  0  0  0  0  0
   48.2650   33.6860   37.0400 H   0  0  0  0  0  0  0  0  0  0  0  0
   47.2660   33.6160   38.9200 C   0  0  0  0  0  3  0  0  0  0  0  0
   47.1940   34.7070   39.1050 H   0  0  0  0  0  0  0  0  0  0  0  0
   44.6120   36.0960   44.3680 C   0  0  0  0  0  0  0  0  0  0  0  0
   45.4190   35.7470   43.2710 C   0  0  0  0  0  0  0  0  0  0  0  0
   46.2010   34.5910   43.3740 C   0  0  0  0  0  0  0  0  0  0  0  0
   46.1530   33.8630   44.5120 N   0  0  0  0  0  0  0  0  0  0  0  0
   45.3600   34.2250   45.5650 C   0  0  0  0  0  0  0  0  0  0  0  0
   44.6040   35.3330   45.4790 N   0  0  0  0  0  0  0  0  0  0  0  0
   44.0060   37.0010   44.2760 H   0  0  0  0  0  0  0  0  0  0  0  0
   45.4480   36.3360   42.3690 H   0  0  0  0  0  0  0  0  0  0  0  0
   45.3050   33.6600   46.4830 H   0  0  0  0  0  0  0  0  0  0  0  0
  1  2  2  0  0  0  0
  1  3  1  0  0  0  0
  3 17  1  0  0  0  0
  4  3  1  0  0  0  0
  5  6  1  0  0  0  0
  5  1  1  0  0  0  0
  7  6  1  0  0  0  0
  8  9  1  0  0  0  0
  8  6  1  0  0  0  0
 10  8  1  0  0  0  0
 11 10  1  0  0  0  0
 11 13  1  0  0  0  0
 12 11  1  0  0  0  0
 13 14  1  0  0  0  0
 13  5  1  0  0  0  0
 15 20  1  0  0  0  0
 16 17  1  0  0  0  0
 16 15  2  0  0  0  0
 17 18  2  0  0  0  0
 18 19  1  0  0  0  0
 19 23  1  0  0  0  0
 20 19  2  0  0  0  0
 21 15  1  0  0  0  0
 22 16  1  0  0  0  0
M  END
>  <minimizedAffinity>
-3.89325047

>  <minimizedRMSD>
1.16239524

$$$$
