
 OpenBabel03242522473D

 42 45  0  0  0  0  0  0  0  0999 V2000
   45.6640   34.3440   42.0430 C   0  0  0  0  0  0  0  0  0  0  0  0
   46.9250   33.8160   41.6620 C   0  0  0  0  0  0  0  0  0  0  0  0
   47.7610   33.2670   42.6540 C   0  0  0  0  0  0  0  0  0  0  0  0
   47.3050   33.2750   43.9330 N   0  0  0  0  0  0  0  0  0  0  0  0
   46.1060   33.7810   44.2730 C   0  0  0  0  0  0  0  0  0  0  0  0
   45.3020   34.3060   43.3330 N   0  0  0  0  0  0  0  0  0  0  0  0
   44.8280   34.8890   41.0600 N   0  0  0  0  0  0  0  0  0  0  0  0
   48.7300   32.8560   42.3980 H   0  0  0  0  0  0  0  0  0  0  0  0
   44.6860   34.2640   40.2230 H   0  0  0  0  0  0  0  0  0  0  0  0
   44.4400   35.8520   41.2600 H   0  0  0  0  0  0  0  0  0  0  0  0
   47.3830   33.8220   40.2900 C   0  0  0  0  0  0  0  0  0  0  0  0
   48.1930   34.7500   39.6690 C   0  0  0  0  0  0  0  0  0  0  0  0
   48.5400   34.6040   38.3390 C   0  0  0  0  0  0  0  0  0  0  0  0
   48.0860   33.5180   37.5790 C   0  0  0  0  0  0  0  0  0  0  0  0
   48.4740   33.4640   36.3050 N   0  0  0  0  0  0  0  0  0  0  0  0
   48.0410   32.4080   35.5410 C   0  0  0  0  0  0  0  0  0  0  0  0
   47.2360   31.4800   36.1490 C   0  0  0  0  0  0  0  0  0  0  0  0
   46.8300   31.5260   37.4630 C   0  0  0  0  0  0  0  0  0  0  0  0
   47.2710   32.5900   38.2170 C   0  0  0  0  0  0  0  0  0  0  0  0
   46.9230   32.7340   39.5480 C   0  0  0  0  0  0  0  0  0  0  0  0
   48.5140   35.5640   40.2960 H   0  0  0  0  0  0  0  0  0  0  0  0
   49.1820   35.3660   37.8970 H   0  0  0  0  0  0  0  0  0  0  0  0
   48.3020   32.2850   34.5130 H   0  0  0  0  0  0  0  0  0  0  0  0
   46.8860   30.6370   35.5500 H   0  0  0  0  0  0  0  0  0  0  0  0
   46.1910   30.7650   37.8950 H   0  0  0  0  0  0  0  0  0  0  0  0
   46.2940   31.9630   39.9350 H   0  0  0  0  0  0  0  0  0  0  0  0
   45.6970   33.7420   45.7160 C   0  0  0  0  0  0  0  0  0  0  0  0
   44.6310   33.9400   45.8480 H   0  0  0  0  0  0  0  0  0  0  0  0
   46.3350   34.5420   46.1940 H   0  0  0  0  0  0  0  0  0  0  0  0
   46.1110   32.3990   46.3050 C   0  0  0  0  0  0  0  0  0  0  0  0
   45.4900   31.5910   45.9240 H   0  0  0  0  0  0  0  0  0  0  0  0
   47.1850   32.2610   46.0550 H   0  0  0  0  0  0  0  0  0  0  0  0
   46.0040   32.5210   47.8260 C   0  0  0  0  0  3  0  0  0  0  0  0
   44.8060   31.7280   48.3250 C   0  0  0  0  0  3  0  0  0  0  0  0
   44.3410   32.2600   49.1720 H   0  0  0  0  0  0  0  0  0  0  0  0
   45.2570   30.3670   48.8500 C   0  0  0  0  0  3  0  0  0  0  0  0
   44.3670   29.7170   48.8550 H   0  0  0  0  0  0  0  0  0  0  0  0
   46.2130   29.8010   48.0030 O   0  0  0  0  0  0  0  0  0  0  0  0
   47.4210   30.4910   48.0610 C   0  0  0  0  0  3  0  0  0  0  0  0
   48.0580   30.0160   48.8270 H   0  0  0  0  0  0  0  0  0  0  0  0
   47.2240   31.9250   48.4900 C   0  0  0  0  0  3  0  0  0  0  0  0
   48.1410   32.4760   48.2820 H   0  0  0  0  0  0  0  0  0  0  0  0
  1  6  1  0  0  0  0
  2  1  2  0  0  0  0
  2  3  1  0  0  0  0
  3  4  2  0  0  0  0
  4  5  1  0  0  0  0
  5 27  1  0  0  0  0
  6  5  2  0  0  0  0
  7 10  1  0  0  0  0
  7  1  1  0  0  0  0
  8  3  1  0  0  0  0
  9  7  1  0  0  0  0
 11  2  1  0  0  0  0
 12 11  1  0  0  0  0
 12 21  1  0  0  0  0
 13 12  2  0  0  0  0
 14 19  1  0  0  0  0
 14 13  1  0  0  0  0
 15 14  2  0  0  0  0
 16 17  2  0  0  0  0
 16 15  1  0  0  0  0
 17 18  1  0  0  0  0
 18 25  1  0  0  0  0
 18 19  2  0  0  0  0
 19 20  1  0  0  0  0
 20 26  1  0  0  0  0
 20 11  2  0  0  0  0
 22 13  1  0  0  0  0
 23 16  1  0  0  0  0
 24 17  1  0  0  0  0
 27 28  1  0  0  0  0
 27 29  1  0  0  0  0
 27 30  1  0  0  0  0
 30 33  1  0  0  0  0
 31 30  1  0  0  0  0
 32 30  1  0  0  0  0
 33 34  1  0  0  0  0
 33 41  1  0  0  0  0
 34 36  1  0  0  0  0
 34 35  1  0  0  0  0
 36 37  1  0  0  0  0
 38 39  1  0  0  0  0
 38 36  1  0  0  0  0
 39 41  1  0  0  0  0
 39 40  1  0  0  0  0
 42 41  1  0  0  0  0
M  END
>  <minimizedAffinity>
-5.87141609

>  <minimizedRMSD>
2.01040387

$$$$
