
 OpenBabel03252507463D

 38 40  0  0  0  0  0  0  0  0999 V2000
   47.6740   34.8360   41.1130 C   0  0  0  0  0  0  0  0  0  0  0  0
   47.0890   34.4450   40.2630 H   0  0  0  0  0  0  0  0  0  0  0  0
   48.0470   35.8470   40.8060 H   0  0  0  0  0  0  0  0  0  0  0  0
   48.8700   34.0140   41.3860 C   0  0  0  0  0  0  0  0  0  0  0  0
   48.9490   32.7940   40.7200 C   0  0  0  0  0  0  0  0  0  0  0  0
   50.0420   31.9720   40.9230 C   0  0  0  0  0  0  0  0  0  0  0  0
   51.0150   32.3920   41.7800 N   0  0  0  0  0  0  0  0  0  0  0  0
   50.9040   33.5860   42.4110 C   0  0  0  0  0  0  0  0  0  0  0  0
   49.8530   34.3560   42.2030 N   0  0  0  0  0  0  0  0  0  0  0  0
   50.1090   31.0110   40.4010 H   0  0  0  0  0  0  0  0  0  0  0  0
   51.7190   33.8540   43.0790 H   0  0  0  0  0  0  0  0  0  0  0  0
   47.6350   32.2890   39.5960 S   0  0  0  0  0  0  0  0  0  0  0  0
   46.6970   30.8840   40.2750 C   0  0  0  0  0  3  0  0  0  0  0  0
   45.4010   30.7860   39.5150 C   0  0  0  0  0  3  0  0  0  0  0  0
   45.2030   31.7280   38.9630 H   0  0  0  0  0  0  0  0  0  0  0  0
   44.2630   30.6040   40.4730 C   0  0  0  0  0  3  0  0  0  0  0  0
   44.0710   31.5740   40.9700 H   0  0  0  0  0  0  0  0  0  0  0  0
   44.6490   29.6140   41.3740 O   0  0  0  0  0  0  0  0  0  0  0  0
   45.5380   30.1210   42.3050 C   0  0  0  0  0  3  0  0  0  0  0  0
   46.2040   29.3150   42.6810 H   0  0  0  0  0  0  0  0  0  0  0  0
   46.4160   31.2010   41.7250 C   0  0  0  0  0  3  0  0  0  0  0  0
   47.4180   31.2100   42.2280 H   0  0  0  0  0  0  0  0  0  0  0  0
   46.7920   35.0010   42.2990 C   0  0  0  0  0  0  0  0  0  0  0  0
   46.9760   34.1500   42.9960 H   0  0  0  0  0  0  0  0  0  0  0  0
   47.0350   35.9390   42.8110 H   0  0  0  0  0  0  0  0  0  0  0  0
   45.3330   34.9680   41.9810 C   0  0  0  0  0  0  0  0  0  0  0  0
   44.3960   35.6200   42.8370 C   0  0  0  0  0  0  0  0  0  0  0  0
   42.7890   35.2850   42.0210 S   0  0  0  0  0  0  0  0  0  0  0  0
   43.6620   34.3110   40.6400 C   0  0  0  0  0  0  0  0  0  0  0  0
   44.7570   34.3860   40.9570 N   0  0  0  0  0  0  0  0  0  0  0  0
   44.6220   36.1660   43.7410 H   0  0  0  0  0  0  0  0  0  0  0  0
   42.9740   33.7210   39.5850 O   0  0  0  0  0  0  0  0  0  0  0  0
   40.9760   33.8750   37.8640 O   0  0  0  0  0  0  0  0  0  0  0  0
   41.9770   34.7190   38.6420 P   0  0  0  0  0  0  0  0  0  0  0  0
   41.1480   35.7610   39.6900 O   0  0  0  0  0  0  0  0  0  0  0  0
   40.5800   35.2560   40.3100 H   0  0  0  0  0  0  0  0  0  0  0  0
   42.9140   35.6570   37.5980 O   0  0  0  0  0  0  0  0  0  0  0  0
   42.5420   35.5700   36.6700 H   0  0  0  0  0  0  0  0  0  0  0  0
  1  4  1  0  0  0  0
  1 23  1  0  0  0  0
  2  1  1  0  0  0  0
  3  1  1  0  0  0  0
  4  9  1  0  0  0  0
  5  6  1  0  0  0  0
  5  4  2  0  0  0  0
  6  7  2  0  0  0  0
  7  8  1  0  0  0  0
  8 11  1  0  0  0  0
  9  8  2  0  0  0  0
 10  6  1  0  0  0  0
 12 13  1  0  0  0  0
 12  5  1  0  0  0  0
 13 21  1  0  0  0  0
 14 13  1  0  0  0  0
 14 16  1  0  0  0  0
 15 14  1  0  0  0  0
 16 17  1  0  0  0  0
 16 18  1  0  0  0  0
 18 19  1  0  0  0  0
 19 20  1  0  0  0  0
 21 22  1  0  0  0  0
 21 19  1  0  0  0  0
 23 25  1  0  0  0  0
 23 24  1  0  0  0  0
 26 23  1  0  0  0  0
 26 27  2  0  0  0  0
 27 31  1  0  0  0  0
 28 27  1  0  0  0  0
 29 30  2  0  0  0  0
 29 28  1  0  0  0  0
 30 26  1  0  0  0  0
 32 29  1  0  0  0  0
 33 34  2  0  0  0  0
 34 32  1  0  0  0  0
 34 35  1  0  0  0  0
 35 36  1  0  0  0  0
 37 34  1  0  0  0  0
 38 37  1  0  0  0  0
M  END
>  <minimizedAffinity>
-4.39332771

>  <minimizedRMSD>
0.617082536

$$$$
