
 OpenBabel03242517003D

 33 35  0  0  0  0  0  0  0  0999 V2000
   46.6190   34.7570   42.0080 C   0  0  0  0  0  0  0  0  0  0  0  0
   47.8950   35.2700   41.9270 C   0  0  0  0  0  0  0  0  0  0  0  0
   48.6150   35.0910   40.7660 C   0  0  0  0  0  0  0  0  0  0  0  0
   48.0520   34.4090   39.7170 C   0  0  0  0  0  0  0  0  0  0  0  0
   46.7840   33.8850   39.7600 C   0  0  0  0  0  0  0  0  0  0  0  0
   46.0770   34.0840   40.9580 C   0  0  0  0  0  0  0  0  0  0  0  0
   48.3410   35.8090   42.7570 H   0  0  0  0  0  0  0  0  0  0  0  0
   49.6090   35.5050   40.7400 H   0  0  0  0  0  0  0  0  0  0  0  0
   48.6540   34.2920   38.8250 H   0  0  0  0  0  0  0  0  0  0  0  0
   46.3210   33.3490   38.9550 H   0  0  0  0  0  0  0  0  0  0  0  0
   44.4960   36.1810   44.7960 C   0  0  0  0  0  0  0  0  0  0  0  0
   45.1340   36.0830   43.5440 C   0  0  0  0  0  0  0  0  0  0  0  0
   45.9070   34.9790   43.2650 C   0  0  0  0  0  0  0  0  0  0  0  0
   46.0110   34.0230   44.2450 N   0  0  0  0  0  0  0  0  0  0  0  0
   45.3920   34.1350   45.4410 C   0  0  0  0  0  0  0  0  0  0  0  0
   44.6290   35.2230   45.7150 N   0  0  0  0  0  0  0  0  0  0  0  0
   43.9220   37.1020   44.8730 H   0  0  0  0  0  0  0  0  0  0  0  0
   45.0610   36.8210   42.7690 H   0  0  0  0  0  0  0  0  0  0  0  0
   45.4900   33.3740   46.1850 H   0  0  0  0  0  0  0  0  0  0  0  0
   43.4710   34.0680   40.8100 C   0  0  0  0  0  0  0  0  0  0  0  0
   43.1800   35.1150   40.2290 O   0  0  0  0  0  0  0  0  0  0  0  0
   44.7650   33.5910   41.1350 N   0  0  0  0  0  0  0  0  0  0  0  0
   44.9620   32.6790   41.6200 H   0  0  0  0  0  0  0  0  0  0  0  0
   42.3830   33.1290   41.2620 C   0  0  0  0  0  3  0  0  0  0  0  0
   41.1840   33.2630   40.3150 C   0  0  0  0  0  3  0  0  0  0  0  0
   40.8320   34.3040   40.4120 H   0  0  0  0  0  0  0  0  0  0  0  0
   40.1630   32.2600   40.8040 C   0  0  0  0  0  3  0  0  0  0  0  0
   39.2850   32.8530   41.1750 H   0  0  0  0  0  0  0  0  0  0  0  0
   40.5800   31.4960   41.8650 O   0  0  0  0  0  0  0  0  0  0  0  0
   41.7460   30.7820   41.5980 C   0  0  0  0  0  3  0  0  0  0  0  0
   42.0900   30.3650   42.5760 H   0  0  0  0  0  0  0  0  0  0  0  0
   42.8510   31.6950   41.1000 C   0  0  0  0  0  3  0  0  0  0  0  0
   43.0060   31.4370   40.0300 H   0  0  0  0  0  0  0  0  0  0  0  0
  1 13  1  0  0  0  0
  2  1  1  0  0  0  0
  2  7  1  0  0  0  0
  3  2  2  0  0  0  0
  4  5  2  0  0  0  0
  4  3  1  0  0  0  0
  5  6  1  0  0  0  0
  6 22  1  0  0  0  0
  6  1  2  0  0  0  0
  8  3  1  0  0  0  0
  9  4  1  0  0  0  0
 10  5  1  0  0  0  0
 11 17  1  0  0  0  0
 11 16  1  0  0  0  0
 12 11  2  0  0  0  0
 13 12  1  0  0  0  0
 13 14  2  0  0  0  0
 14 15  1  0  0  0  0
 15 16  2  0  0  0  0
 15 19  1  0  0  0  0
 18 12  1  0  0  0  0
 20 22  1  0  0  0  0
 20 24  1  0  0  0  0
 21 20  2  0  0  0  0
 22 23  1  0  0  0  0
 25 26  1  0  0  0  0
 25 27  1  0  0  0  0
 25 24  1  0  0  0  0
 27 28  1  0  0  0  0
 27 29  1  0  0  0  0
 30 29  1  0  0  0  0
 30 31  1  0  0  0  0
 32 24  1  0  0  0  0
 32 30  1  0  0  0  0
 33 32  1  0  0  0  0
M  END
>  <minimizedAffinity>
-5.94024849

>  <minimizedRMSD>
0.254969031

$$$$
