
 OpenBabel03242516553D

 46 49  0  0  1  0  0  0  0  0999 V2000
   38.9190   24.8660   40.9080 C   0  0  1  0  0  0  0  0  0  0  0  0
   38.2800   23.7370   41.5820 C   0  0  0  0  0  0  0  0  0  0  0  0
   37.3560   23.0980   40.5510 C   0  0  0  0  0  0  0  0  0  0  0  0
   36.2190   24.0790   40.3130 C   0  0  0  0  0  0  0  0  0  0  0  0
   36.6660   25.4550   39.9260 C   0  0  0  0  0  0  0  0  0  0  0  0
   37.9130   25.9520   40.5070 C   0  0  1  0  0  0  0  0  0  0  0  0
   39.2980   24.5140   39.9010 H   0  0  0  0  0  0  0  0  0  0  0  0
   37.6980   24.0650   42.4760 H   0  0  0  0  0  0  0  0  0  0  0  0
   39.0270   23.0280   41.9370 H   0  0  0  0  0  0  0  0  0  0  0  0
   37.9460   22.9340   39.6340 H   0  0  0  0  0  0  0  0  0  0  0  0
   36.9080   22.1920   40.9840 H   0  0  0  0  0  0  0  0  0  0  0  0
   35.6000   24.0990   41.2310 H   0  0  0  0  0  0  0  0  0  0  0  0
   35.5820   23.6390   39.5180 H   0  0  0  0  0  0  0  0  0  0  0  0
   36.7050   25.4690   38.8050 H   0  0  0  0  0  0  0  0  0  0  0  0
   35.8320   26.1540   40.1750 H   0  0  0  0  0  0  0  0  0  0  0  0
   38.4600   26.5560   39.7210 H   0  0  0  0  0  0  0  0  0  0  0  0
   41.2920   25.8660   43.6800 C   0  0  0  0  0  0  0  0  0  0  0  0
   40.2330   25.3080   42.9510 C   0  0  0  0  0  0  0  0  0  0  0  0
   40.0490   25.4770   41.5770 C   0  0  0  0  0  0  0  0  0  0  0  0
   40.9690   26.2270   40.9670 N   0  0  0  0  0  0  0  0  0  0  0  0
   42.0030   26.7770   41.6570 C   0  0  0  0  0  0  0  0  0  0  0  0
   42.1710   26.6090   42.9710 N   0  0  0  0  0  0  0  0  0  0  0  0
   41.3140   25.6550   44.7360 H   0  0  0  0  0  0  0  0  0  0  0  0
   39.4970   24.7020   43.4640 H   0  0  0  0  0  0  0  0  0  0  0  0
   42.7130   27.3780   41.0810 H   0  0  0  0  0  0  0  0  0  0  0  0
   37.6910   26.9060   41.5980 C   0  0  0  0  0  0  0  0  0  0  0  0
   36.9640   26.6660   42.7730 C   0  0  0  0  0  0  0  0  0  0  0  0
   36.8990   27.7250   43.6800 C   0  0  0  0  0  0  0  0  0  0  0  0
   37.5430   28.8980   43.3530 C   0  0  0  0  0  0  0  0  0  0  0  0
   38.2580   29.1220   42.1870 C   0  0  0  0  0  0  0  0  0  0  0  0
   38.3120   28.0780   41.3100 N   0  0  0  0  0  0  0  0  0  0  0  0
   36.5330   25.7140   42.8700 H   0  0  0  0  0  0  0  0  0  0  0  0
   36.3530   27.5610   44.5770 H   0  0  0  0  0  0  0  0  0  0  0  0
   37.4850   29.7200   44.0700 H   0  0  0  0  0  0  0  0  0  0  0  0
   38.9120   30.3990   41.9330 C   0  0  0  0  0  0  0  0  0  0  0  0
   39.6960   30.8520   42.8140 O   0  0  0  0  0  0  0  0  0  0  0  0
   38.6730   31.1720   40.6660 C   0  0  0  0  0  3  0  0  0  0  0  0
   39.4470   32.4730   40.6880 C   0  0  0  0  0  3  0  0  0  0  0  0
   40.1100   32.5720   39.8030 H   0  0  0  0  0  0  0  0  0  0  0  0
   38.5350   33.6830   40.6900 C   0  0  0  0  0  3  0  0  0  0  0  0
   39.2300   34.5660   40.6220 H   0  0  0  0  0  0  0  0  0  0  0  0
   37.6420   33.7040   39.6310 O   0  0  0  0  0  0  0  0  0  0  0  0
   37.1300   32.4530   39.3260 C   0  0  0  0  0  3  0  0  0  0  0  0
   36.1410   32.4830   38.8650 H   0  0  0  0  0  0  0  0  0  0  0  0
   37.2100   31.5650   40.5510 C   0  0  0  0  0  3  0  0  0  0  0  0
   36.5340   30.7140   40.4500 H   0  0  0  0  0  0  0  0  0  0  0  0
  1  7  1  6  0  0  0
  1 19  1  0  0  0  0
  1  2  1  0  0  0  0
  2  9  1  0  0  0  0
  2  8  1  0  0  0  0
  3 11  1  0  0  0  0
  3  2  1  0  0  0  0
  4  3  1  0  0  0  0
  4 12  1  0  0  0  0
  5 15  1  0  0  0  0
  5  4  1  0  0  0  0
  5  6  1  0  0  0  0
  6 16  1  6  0  0  0
  6  1  1  0  0  0  0
  6 26  1  0  0  0  0
 10  3  1  0  0  0  0
 13  4  1  0  0  0  0
 14  5  1  0  0  0  0
 17 23  1  0  0  0  0
 18 24  1  0  0  0  0
 18 17  2  0  0  0  0
 19 18  1  0  0  0  0
 20 19  2  0  0  0  0
 20 21  1  0  0  0  0
 21 22  2  0  0  0  0
 22 17  1  0  0  0  0
 25 21  1  0  0  0  0
 26 27  1  0  0  0  0
 27 32  1  0  0  0  0
 27 28  2  0  0  0  0
 28 33  1  0  0  0  0
 29 28  1  0  0  0  0
 29 34  1  0  0  0  0
 30 29  2  0  0  0  0
 31 26  2  0  0  0  0
 31 30  1  0  0  0  0
 35 30  1  0  0  0  0
 35 36  2  0  0  0  0
 37 38  1  0  0  0  0
 37 35  1  0  0  0  0
 38 40  1  0  0  0  0
 39 38  1  0  0  0  0
 41 40  1  0  0  0  0
 42 40  1  0  0  0  0
 43 42  1  0  0  0  0
 43 45  1  0  0  0  0
 44 43  1  0  0  0  0
 45 37  1  0  0  0  0
 46 45  1  0  0  0  0
M  END
>  <minimizedAffinity>
-6.32072878

$$$$

 OpenBabel03242516553D

 46 49  0  0  1  0  0  0  0  0999 V2000
   36.5620   30.6530   38.8920 C   0  0  1  0  0  0  0  0  0  0  0  0
   36.7560   29.6910   37.8080 C   0  0  0  0  0  0  0  0  0  0  0  0
   35.3610   29.3230   37.3130 C   0  0  0  0  0  0  0  0  0  0  0  0
   34.7050   28.5100   38.4170 C   0  0  0  0  0  0  0  0  0  0  0  0
   34.6950   29.1840   39.7550 C   0  0  0  0  0  0  0  0  0  0  0  0
   35.8330   30.0380   40.0930 C   0  0  1  0  0  0  0  0  0  0  0  0
   35.8220   31.4380   38.5450 H   0  0  0  0  0  0  0  0  0  0  0  0
   37.2980   28.7800   38.1550 H   0  0  0  0  0  0  0  0  0  0  0  0
   37.3560   30.1280   37.0090 H   0  0  0  0  0  0  0  0  0  0  0  0
   34.8170   30.2650   37.1280 H   0  0  0  0  0  0  0  0  0  0  0  0
   35.4530   28.6610   36.4420 H   0  0  0  0  0  0  0  0  0  0  0  0
   35.2240   27.5330   38.4630 H   0  0  0  0  0  0  0  0  0  0  0  0
   33.6690   28.2960   38.0820 H   0  0  0  0  0  0  0  0  0  0  0  0
   33.7280   29.7510   39.8130 H   0  0  0  0  0  0  0  0  0  0  0  0
   34.5840   28.3840   40.5250 H   0  0  0  0  0  0  0  0  0  0  0  0
   35.4500   30.9340   40.6700 H   0  0  0  0  0  0  0  0  0  0  0  0
   38.6770   33.3970   40.4100 C   0  0  0  0  0  0  0  0  0  0  0  0
   37.6020   32.6300   39.9440 C   0  0  0  0  0  0  0  0  0  0  0  0
   37.7320   31.3710   39.3510 C   0  0  0  0  0  0  0  0  0  0  0  0
   38.9820   30.9170   39.2470 N   0  0  0  0  0  0  0  0  0  0  0  0
   40.0390   31.6470   39.6940 C   0  0  0  0  0  0  0  0  0  0  0  0
   39.9040   32.8490   40.2590 N   0  0  0  0  0  0  0  0  0  0  0  0
   38.4350   34.3510   40.8460 H   0  0  0  0  0  0  0  0  0  0  0  0
   36.5950   33.0150   40.0370 H   0  0  0  0  0  0  0  0  0  0  0  0
   41.0310   31.2010   39.5710 H   0  0  0  0  0  0  0  0  0  0  0  0
   36.7720   29.3940   41.0170 C   0  0  0  0  0  0  0  0  0  0  0  0
   37.3310   29.9710   42.1650 C   0  0  0  0  0  0  0  0  0  0  0  0
   38.1930   29.1580   42.9020 C   0  0  0  0  0  0  0  0  0  0  0  0
   38.4210   27.8770   42.4480 C   0  0  0  0  0  0  0  0  0  0  0  0
   37.8610   27.3190   41.3100 C   0  0  0  0  0  0  0  0  0  0  0  0
   37.0210   28.1260   40.6000 N   0  0  0  0  0  0  0  0  0  0  0  0
   37.0540   30.9630   42.3730 H   0  0  0  0  0  0  0  0  0  0  0  0
   38.6260   29.5780   43.7770 H   0  0  0  0  0  0  0  0  0  0  0  0
   39.0970   27.2490   43.0320 H   0  0  0  0  0  0  0  0  0  0  0  0
   38.1580   25.9490   40.9130 C   0  0  0  0  0  0  0  0  0  0  0  0
   39.3560   25.6550   40.6410 O   0  0  0  0  0  0  0  0  0  0  0  0
   37.0840   24.9010   40.8240 C   0  0  0  0  0  3  0  0  0  0  0  0
   37.6270   23.5510   41.2470 C   0  0  0  0  0  3  0  0  0  0  0  0
   37.0260   23.1060   42.0670 H   0  0  0  0  0  0  0  0  0  0  0  0
   37.6270   22.5510   40.1090 C   0  0  0  0  0  3  0  0  0  0  0  0
   37.9690   21.5860   40.5770 H   0  0  0  0  0  0  0  0  0  0  0  0
   36.3820   22.3770   39.5270 O   0  0  0  0  0  0  0  0  0  0  0  0
   35.6670   23.5580   39.4090 C   0  0  0  0  0  3  0  0  0  0  0  0
   34.9500   23.5570   38.5850 H   0  0  0  0  0  0  0  0  0  0  0  0
   36.6280   24.7280   39.3850 C   0  0  0  0  0  3  0  0  0  0  0  0
   36.1420   25.6130   38.9700 H   0  0  0  0  0  0  0  0  0  0  0  0
  1  7  1  6  0  0  0
  1 19  1  0  0  0  0
  1  6  1  0  0  0  0
  2  8  1  0  0  0  0
  2  1  1  0  0  0  0
  3  2  1  0  0  0  0
  3  4  1  0  0  0  0
  4 12  1  0  0  0  0
  4  5  1  0  0  0  0
  5 14  1  0  0  0  0
  5  6  1  0  0  0  0
  5 15  1  0  0  0  0
  6 16  1  1  0  0  0
  6 26  1  0  0  0  0
  9  2  1  0  0  0  0
 10  3  1  0  0  0  0
 11  3  1  0  0  0  0
 13  4  1  0  0  0  0
 17 23  1  0  0  0  0
 18 24  1  0  0  0  0
 18 17  2  0  0  0  0
 19 18  1  0  0  0  0
 20 19  2  0  0  0  0
 20 21  1  0  0  0  0
 21 22  2  0  0  0  0
 22 17  1  0  0  0  0
 25 21  1  0  0  0  0
 26 27  1  0  0  0  0
 27 32  1  0  0  0  0
 27 28  2  0  0  0  0
 28 33  1  0  0  0  0
 29 28  1  0  0  0  0
 29 34  1  0  0  0  0
 30 29  2  0  0  0  0
 31 26  2  0  0  0  0
 31 30  1  0  0  0  0
 35 30  1  0  0  0  0
 36 35  2  0  0  0  0
 37 35  1  0  0  0  0
 37 38  1  0  0  0  0
 38 39  1  0  0  0  0
 40 41  1  0  0  0  0
 40 38  1  0  0  0  0
 42 40  1  0  0  0  0
 43 42  1  0  0  0  0
 44 43  1  0  0  0  0
 45 43  1  0  0  0  0
 45 37  1  0  0  0  0
 46 45  1  0  0  0  0
M  END
>  <minimizedAffinity>
-6.13346434

$$$$

 OpenBabel03242516553D

 46 49  0  0  1  0  0  0  0  0999 V2000
   36.7350   30.4170   39.2960 C   0  0  1  0  0  0  0  0  0  0  0  0
   36.8260   29.4980   38.1620 C   0  0  0  0  0  0  0  0  0  0  0  0
   35.4240   29.4170   37.5700 C   0  0  0  0  0  0  0  0  0  0  0  0
   34.5630   28.6750   38.5800 C   0  0  0  0  0  0  0  0  0  0  0  0
   34.5860   29.2640   39.9570 C   0  0  0  0  0  0  0  0  0  0  0  0
   35.8330   29.8790   40.4120 C   0  0  1  0  0  0  0  0  0  0  0  0
   36.1710   31.3410   38.9630 H   0  0  0  0  0  0  0  0  0  0  0  0
   37.1750   28.4860   38.4770 H   0  0  0  0  0  0  0  0  0  0  0  0
   37.5440   29.8630   37.4280 H   0  0  0  0  0  0  0  0  0  0  0  0
   35.0680   30.4500   37.4190 H   0  0  0  0  0  0  0  0  0  0  0  0
   35.4530   28.7980   36.6620 H   0  0  0  0  0  0  0  0  0  0  0  0
   34.8970   27.6190   38.5890 H   0  0  0  0  0  0  0  0  0  0  0  0
   33.5300   28.6710   38.1760 H   0  0  0  0  0  0  0  0  0  0  0  0
   33.7330   29.9930   40.0000 H   0  0  0  0  0  0  0  0  0  0  0  0
   34.2850   28.4560   40.6660 H   0  0  0  0  0  0  0  0  0  0  0  0
   35.5780   30.7960   41.0260 H   0  0  0  0  0  0  0  0  0  0  0  0
   40.4120   30.5470   40.1740 C   0  0  0  0  0  0  0  0  0  0  0  0
   39.1660   30.1730   39.6570 C   0  0  0  0  0  0  0  0  0  0  0  0
   37.9820   30.8860   39.8640 C   0  0  0  0  0  0  0  0  0  0  0  0
   38.1030   31.9860   40.6090 N   0  0  0  0  0  0  0  0  0  0  0  0
   39.3040   32.3660   41.1190 C   0  0  0  0  0  0  0  0  0  0  0  0
   40.4300   31.6780   40.9150 N   0  0  0  0  0  0  0  0  0  0  0  0
   41.2440   29.9060   39.9360 H   0  0  0  0  0  0  0  0  0  0  0  0
   39.0880   29.2770   39.0550 H   0  0  0  0  0  0  0  0  0  0  0  0
   39.3160   33.2810   41.7180 H   0  0  0  0  0  0  0  0  0  0  0  0
   36.5810   29.0250   41.3410 C   0  0  0  0  0  0  0  0  0  0  0  0
   37.2390   29.4450   42.5050 C   0  0  0  0  0  0  0  0  0  0  0  0
   37.8760   28.4470   43.2430 C   0  0  0  0  0  0  0  0  0  0  0  0
   37.8080   27.1520   42.7750 C   0  0  0  0  0  0  0  0  0  0  0  0
   37.1530   26.7510   41.6220 C   0  0  0  0  0  0  0  0  0  0  0  0
   36.5360   27.7380   40.9110 N   0  0  0  0  0  0  0  0  0  0  0  0
   37.1960   30.4720   42.7220 H   0  0  0  0  0  0  0  0  0  0  0  0
   38.3800   28.7460   44.1290 H   0  0  0  0  0  0  0  0  0  0  0  0
   38.3100   26.3790   43.3600 H   0  0  0  0  0  0  0  0  0  0  0  0
   37.1310   25.3530   41.2110 C   0  0  0  0  0  0  0  0  0  0  0  0
   37.6320   24.4960   41.9910 O   0  0  0  0  0  0  0  0  0  0  0  0
   36.5340   24.9230   39.9000 C   0  0  0  0  0  3  0  0  0  0  0  0
   35.8050   23.6050   40.0590 C   0  0  0  0  0  3  0  0  0  0  0  0
   34.7490   23.6770   39.7240 H   0  0  0  0  0  0  0  0  0  0  0  0
   36.4470   22.4940   39.2540 C   0  0  0  0  0  3  0  0  0  0  0  0
   35.7660   21.6090   39.3950 H   0  0  0  0  0  0  0  0  0  0  0  0
   36.5660   22.7870   37.9050 O   0  0  0  0  0  0  0  0  0  0  0  0
   36.9150   24.1060   37.6630 C   0  0  0  0  0  3  0  0  0  0  0  0
   37.4550   24.2530   36.7260 H   0  0  0  0  0  0  0  0  0  0  0  0
   37.6270   24.6680   38.8760 C   0  0  0  0  0  3  0  0  0  0  0  0
   38.1930   25.5620   38.6070 H   0  0  0  0  0  0  0  0  0  0  0  0
  1  7  1  6  0  0  0
  1 19  1  0  0  0  0
  1  6  1  0  0  0  0
  2  8  1  0  0  0  0
  2  1  1  0  0  0  0
  3  2  1  0  0  0  0
  3  4  1  0  0  0  0
  4 12  1  0  0  0  0
  4  5  1  0  0  0  0
  5 14  1  0  0  0  0
  5  6  1  0  0  0  0
  5 15  1  0  0  0  0
  6 16  1  1  0  0  0
  6 26  1  0  0  0  0
  9  2  1  0  0  0  0
 10  3  1  0  0  0  0
 11  3  1  0  0  0  0
 13  4  1  0  0  0  0
 17 22  1  0  0  0  0
 18 19  1  0  0  0  0
 18 17  2  0  0  0  0
 19 20  2  0  0  0  0
 20 21  1  0  0  0  0
 21 25  1  0  0  0  0
 22 21  2  0  0  0  0
 23 17  1  0  0  0  0
 24 18  1  0  0  0  0
 26 27  1  0  0  0  0
 27 32  1  0  0  0  0
 27 28  2  0  0  0  0
 28 33  1  0  0  0  0
 29 28  1  0  0  0  0
 29 34  1  0  0  0  0
 30 29  2  0  0  0  0
 31 26  2  0  0  0  0
 31 30  1  0  0  0  0
 35 30  1  0  0  0  0
 35 36  2  0  0  0  0
 37 38  1  0  0  0  0
 37 35  1  0  0  0  0
 39 38  1  0  0  0  0
 40 41  1  0  0  0  0
 40 38  1  0  0  0  0
 42 40  1  0  0  0  0
 43 42  1  0  0  0  0
 43 45  1  0  0  0  0
 44 43  1  0  0  0  0
 45 37  1  0  0  0  0
 46 45  1  0  0  0  0
M  END
>  <minimizedAffinity>
-5.9088707

$$$$

 OpenBabel03242516553D

 46 49  0  0  1  0  0  0  0  0999 V2000
   37.3720   30.3990   38.6770 C   0  0  1  0  0  0  0  0  0  0  0  0
   36.8920   29.0270   38.5170 C   0  0  0  0  0  0  0  0  0  0  0  0
   35.3890   29.0720   38.7680 C   0  0  0  0  0  0  0  0  0  0  0  0
   35.1990   29.3610   40.2480 C   0  0  0  0  0  0  0  0  0  0  0  0
   35.9120   30.5860   40.7320 C   0  0  0  0  0  0  0  0  0  0  0  0
   37.1950   30.9150   40.1100 C   0  0  1  0  0  0  0  0  0  0  0  0
   36.6870   31.0870   38.0930 H   0  0  0  0  0  0  0  0  0  0  0  0
   37.3850   28.3300   39.2360 H   0  0  0  0  0  0  0  0  0  0  0  0
   37.1150   28.6560   37.5170 H   0  0  0  0  0  0  0  0  0  0  0  0
   34.9740   29.8810   38.1430 H   0  0  0  0  0  0  0  0  0  0  0  0
   34.9640   28.0760   38.5810 H   0  0  0  0  0  0  0  0  0  0  0  0
   35.5230   28.4600   40.8060 H   0  0  0  0  0  0  0  0  0  0  0  0
   34.1070   29.4550   40.4160 H   0  0  0  0  0  0  0  0  0  0  0  0
   35.1820   31.4330   40.6340 H   0  0  0  0  0  0  0  0  0  0  0  0
   36.0480   30.4740   41.8340 H   0  0  0  0  0  0  0  0  0  0  0  0
   37.2650   32.0400   40.0080 H   0  0  0  0  0  0  0  0  0  0  0  0
   40.9610   29.8290   37.6270 C   0  0  0  0  0  0  0  0  0  0  0  0
   39.6400   29.6460   38.0550 C   0  0  0  0  0  0  0  0  0  0  0  0
   38.7170   30.6820   38.2230 C   0  0  0  0  0  0  0  0  0  0  0  0
   39.1760   31.9040   37.9450 N   0  0  0  0  0  0  0  0  0  0  0  0
   40.4550   32.1010   37.5290 C   0  0  0  0  0  0  0  0  0  0  0  0
   41.3290   31.1040   37.3710 N   0  0  0  0  0  0  0  0  0  0  0  0
   41.5660   28.9420   37.5400 H   0  0  0  0  0  0  0  0  0  0  0  0
   39.2860   28.6470   38.2750 H   0  0  0  0  0  0  0  0  0  0  0  0
   40.7500   33.1340   37.3220 H   0  0  0  0  0  0  0  0  0  0  0  0
   38.3420   30.5620   40.9520 C   0  0  0  0  0  0  0  0  0  0  0  0
   39.3640   31.4270   41.3660 C   0  0  0  0  0  0  0  0  0  0  0  0
   40.3490   30.8670   42.1800 C   0  0  0  0  0  0  0  0  0  0  0  0
   40.2390   29.5330   42.5060 C   0  0  0  0  0  0  0  0  0  0  0  0
   39.2220   28.6880   42.0890 C   0  0  0  0  0  0  0  0  0  0  0  0
   38.2670   29.2500   41.2940 N   0  0  0  0  0  0  0  0  0  0  0  0
   39.3010   32.4200   41.0290 H   0  0  0  0  0  0  0  0  0  0  0  0
   41.1320   31.5080   42.5040 H   0  0  0  0  0  0  0  0  0  0  0  0
   41.0150   29.1050   43.1430 H   0  0  0  0  0  0  0  0  0  0  0  0
   39.1880   27.2880   42.4920 C   0  0  0  0  0  0  0  0  0  0  0  0
   39.5120   27.0030   43.6790 O   0  0  0  0  0  0  0  0  0  0  0  0
   38.7830   26.2000   41.5380 C   0  0  0  0  0  3  0  0  0  0  0  0
   37.2850   25.9810   41.5910 C   0  0  0  0  0  3  0  0  0  0  0  0
   36.8200   26.0790   40.5890 H   0  0  0  0  0  0  0  0  0  0  0  0
   36.9250   24.6040   42.1100 C   0  0  0  0  0  3  0  0  0  0  0  0
   35.8040   24.5480   42.0180 H   0  0  0  0  0  0  0  0  0  0  0  0
   37.5090   23.5730   41.3910 O   0  0  0  0  0  0  0  0  0  0  0  0
   38.8110   23.8480   41.0060 C   0  0  0  0  0  3  0  0  0  0  0  0
   39.4280   22.9560   40.8770 H   0  0  0  0  0  0  0  0  0  0  0  0
   39.4070   24.8760   41.9450 C   0  0  0  0  0  3  0  0  0  0  0  0
   40.4970   24.8660   41.8810 H   0  0  0  0  0  0  0  0  0  0  0  0
  1  7  1  6  0  0  0
  1  6  1  0  0  0  0
  2  1  1  0  0  0  0
  2  3  1  0  0  0  0
  2  8  1  0  0  0  0
  3  4  1  0  0  0  0
  4 13  1  0  0  0  0
  4  5  1  0  0  0  0
  4 12  1  0  0  0  0
  5 15  1  0  0  0  0
  6 16  1  6  0  0  0
  6  5  1  0  0  0  0
  6 26  1  0  0  0  0
  9  2  1  0  0  0  0
 10  3  1  0  0  0  0
 11  3  1  0  0  0  0
 14  5  1  0  0  0  0
 17 18  1  0  0  0  0
 18 19  2  0  0  0  0
 18 24  1  0  0  0  0
 19  1  1  0  0  0  0
 20 19  1  0  0  0  0
 21 20  2  0  0  0  0
 22 21  1  0  0  0  0
 22 17  2  0  0  0  0
 23 17  1  0  0  0  0
 25 21  1  0  0  0  0
 26 31  2  0  0  0  0
 26 27  1  0  0  0  0
 27 28  2  0  0  0  0
 28 33  1  0  0  0  0
 28 29  1  0  0  0  0
 29 34  1  0  0  0  0
 30 35  1  0  0  0  0
 30 29  2  0  0  0  0
 31 30  1  0  0  0  0
 32 27  1  0  0  0  0
 35 36  2  0  0  0  0
 37 38  1  0  0  0  0
 37 45  1  0  0  0  0
 37 35  1  0  0  0  0
 38 40  1  0  0  0  0
 39 38  1  0  0  0  0
 41 40  1  0  0  0  0
 42 40  1  0  0  0  0
 43 42  1  0  0  0  0
 43 45  1  0  0  0  0
 44 43  1  0  0  0  0
 46 45  1  0  0  0  0
M  END
>  <minimizedAffinity>
-5.88998985

$$$$

 OpenBabel03242516553D

 46 49  0  0  1  0  0  0  0  0999 V2000
   36.7860   30.3790   39.2360 C   0  0  1  0  0  0  0  0  0  0  0  0
   36.9710   29.4300   38.1400 C   0  0  0  0  0  0  0  0  0  0  0  0
   35.6040   29.2710   37.4830 C   0  0  0  0  0  0  0  0  0  0  0  0
   34.7250   28.5260   38.4740 C   0  0  0  0  0  0  0  0  0  0  0  0
   34.6540   29.1590   39.8290 C   0  0  0  0  0  0  0  0  0  0  0  0
   35.8510   29.8390   40.3250 C   0  0  1  0  0  0  0  0  0  0  0  0
   36.2020   31.2680   38.8450 H   0  0  0  0  0  0  0  0  0  0  0  0
   37.3430   28.4440   38.5060 H   0  0  0  0  0  0  0  0  0  0  0  0
   37.7100   29.8010   37.4300 H   0  0  0  0  0  0  0  0  0  0  0  0
   35.2160   30.2840   37.2800 H   0  0  0  0  0  0  0  0  0  0  0  0
   35.7050   28.6260   36.5990 H   0  0  0  0  0  0  0  0  0  0  0  0
   35.1000   27.4860   38.5340 H   0  0  0  0  0  0  0  0  0  0  0  0
   33.7140   28.4670   38.0190 H   0  0  0  0  0  0  0  0  0  0  0  0
   33.7710   29.8520   39.8070 H   0  0  0  0  0  0  0  0  0  0  0  0
   34.3510   28.3620   40.5500 H   0  0  0  0  0  0  0  0  0  0  0  0
   35.5290   30.7630   40.8940 H   0  0  0  0  0  0  0  0  0  0  0  0
   40.4010   30.6790   40.3090 C   0  0  0  0  0  0  0  0  0  0  0  0
   39.1980   30.2370   39.7430 C   0  0  0  0  0  0  0  0  0  0  0  0
   37.9830   30.9170   39.8500 C   0  0  0  0  0  0  0  0  0  0  0  0
   38.0250   32.0550   40.5460 N   0  0  0  0  0  0  0  0  0  0  0  0
   39.1830   32.5000   41.1020 C   0  0  0  0  0  0  0  0  0  0  0  0
   40.3400   31.8430   40.9940 N   0  0  0  0  0  0  0  0  0  0  0  0
   41.2660   30.0570   40.1480 H   0  0  0  0  0  0  0  0  0  0  0  0
   39.1840   29.3120   39.1810 H   0  0  0  0  0  0  0  0  0  0  0  0
   39.1310   33.4420   41.6570 H   0  0  0  0  0  0  0  0  0  0  0  0
   36.5840   29.0470   41.3170 C   0  0  0  0  0  0  0  0  0  0  0  0
   37.0430   29.4980   42.5620 C   0  0  0  0  0  0  0  0  0  0  0  0
   37.7080   28.5560   43.3480 C   0  0  0  0  0  0  0  0  0  0  0  0
   37.8580   27.2820   42.8450 C   0  0  0  0  0  0  0  0  0  0  0  0
   37.4000   26.8500   41.6110 C   0  0  0  0  0  0  0  0  0  0  0  0
   36.7520   27.7820   40.8540 N   0  0  0  0  0  0  0  0  0  0  0  0
   36.8470   30.5030   42.7970 H   0  0  0  0  0  0  0  0  0  0  0  0
   38.0630   28.8800   44.2960 H   0  0  0  0  0  0  0  0  0  0  0  0
   38.3800   26.5540   43.4680 H   0  0  0  0  0  0  0  0  0  0  0  0
   37.6010   25.4770   41.1670 C   0  0  0  0  0  0  0  0  0  0  0  0
   36.5810   24.7530   40.9920 O   0  0  0  0  0  0  0  0  0  0  0  0
   38.9740   24.9180   40.9210 C   0  0  0  0  0  3  0  0  0  0  0  0
   39.5240   24.2900   42.1850 C   0  0  0  0  0  3  0  0  0  0  0  0
   39.8210   23.2330   42.0230 H   0  0  0  0  0  0  0  0  0  0  0  0
   40.7490   25.0160   42.7000 C   0  0  0  0  0  3  0  0  0  0  0  0
   41.0960   24.4030   43.5790 H   0  0  0  0  0  0  0  0  0  0  0  0
   41.7660   25.1160   41.7650 O   0  0  0  0  0  0  0  0  0  0  0  0
   41.3030   25.3660   40.4830 C   0  0  0  0  0  3  0  0  0  0  0  0
   42.0200   25.8960   39.8520 H   0  0  0  0  0  0  0  0  0  0  0  0
   39.9440   26.0300   40.5590 C   0  0  0  0  0  3  0  0  0  0  0  0
   39.7090   26.5280   39.6160 H   0  0  0  0  0  0  0  0  0  0  0  0
  1  7  1  6  0  0  0
  1 19  1  0  0  0  0
  1  6  1  0  0  0  0
  2  8  1  0  0  0  0
  2  1  1  0  0  0  0
  3  2  1  0  0  0  0
  3  4  1  0  0  0  0
  4 12  1  0  0  0  0
  4  5  1  0  0  0  0
  5  6  1  0  0  0  0
  5 15  1  0  0  0  0
  6 16  1  1  0  0  0
  6 26  1  0  0  0  0
  9  2  1  0  0  0  0
 10  3  1  0  0  0  0
 11  3  1  0  0  0  0
 13  4  1  0  0  0  0
 14  5  1  0  0  0  0
 17 22  1  0  0  0  0
 18 19  1  0  0  0  0
 18 17  2  0  0  0  0
 19 20  2  0  0  0  0
 20 21  1  0  0  0  0
 21 25  1  0  0  0  0
 22 21  2  0  0  0  0
 23 17  1  0  0  0  0
 24 18  1  0  0  0  0
 26 27  1  0  0  0  0
 27 32  1  0  0  0  0
 27 28  2  0  0  0  0
 28 33  1  0  0  0  0
 29 28  1  0  0  0  0
 29 34  1  0  0  0  0
 30 29  2  0  0  0  0
 31 26  2  0  0  0  0
 31 30  1  0  0  0  0
 35 30  1  0  0  0  0
 36 35  2  0  0  0  0
 37 35  1  0  0  0  0
 37 38  1  0  0  0  0
 38 40  1  0  0  0  0
 39 38  1  0  0  0  0
 40 41  1  0  0  0  0
 42 40  1  0  0  0  0
 43 45  1  0  0  0  0
 43 42  1  0  0  0  0
 44 43  1  0  0  0  0
 45 37  1  0  0  0  0
 46 45  1  0  0  0  0
M  END
>  <minimizedAffinity>
-5.88663387

$$$$

 OpenBabel03242516553D

 46 49  0  0  1  0  0  0  0  0999 V2000
   38.4930   25.0870   41.2170 C   0  0  1  0  0  0  0  0  0  0  0  0
   37.5380   23.9810   41.2800 C   0  0  0  0  0  0  0  0  0  0  0  0
   38.2090   22.8030   40.5810 C   0  0  0  0  0  0  0  0  0  0  0  0
   38.2770   23.1510   39.1030 C   0  0  0  0  0  0  0  0  0  0  0  0
   38.9390   24.4620   38.8090 C   0  0  0  0  0  0  0  0  0  0  0  0
   38.7630   25.5440   39.7790 C   0  0  1  0  0  0  0  0  0  0  0  0
   39.5090   24.7010   41.5360 H   0  0  0  0  0  0  0  0  0  0  0  0
   36.5760   24.2360   40.7750 H   0  0  0  0  0  0  0  0  0  0  0  0
   37.2960   23.7400   42.3150 H   0  0  0  0  0  0  0  0  0  0  0  0
   39.2160   22.6910   41.0160 H   0  0  0  0  0  0  0  0  0  0  0  0
   37.5630   21.9190   40.6700 H   0  0  0  0  0  0  0  0  0  0  0  0
   37.2420   23.1260   38.7080 H   0  0  0  0  0  0  0  0  0  0  0  0
   38.8200   22.3210   38.6050 H   0  0  0  0  0  0  0  0  0  0  0  0
   40.0260   24.2350   38.6450 H   0  0  0  0  0  0  0  0  0  0  0  0
   38.5790   24.7960   37.8070 H   0  0  0  0  0  0  0  0  0  0  0  0
   39.7330   26.1220   39.8520 H   0  0  0  0  0  0  0  0  0  0  0  0
   36.5900   27.5190   43.4030 C   0  0  0  0  0  0  0  0  0  0  0  0
   36.9460   26.4310   42.5950 C   0  0  0  0  0  0  0  0  0  0  0  0
   38.2180   26.2410   42.0480 C   0  0  0  0  0  0  0  0  0  0  0  0
   39.1130   27.1840   42.3450 N   0  0  0  0  0  0  0  0  0  0  0  0
   38.7860   28.2470   43.1270 C   0  0  0  0  0  0  0  0  0  0  0  0
   37.5680   28.4210   43.6450 N   0  0  0  0  0  0  0  0  0  0  0  0
   35.5740   27.5420   43.7590 H   0  0  0  0  0  0  0  0  0  0  0  0
   36.2060   25.6750   42.3660 H   0  0  0  0  0  0  0  0  0  0  0  0
   39.5790   28.9760   43.3220 H   0  0  0  0  0  0  0  0  0  0  0  0
   37.7840   26.5440   39.3420 C   0  0  0  0  0  0  0  0  0  0  0  0
   36.4230   26.3190   39.0960 C   0  0  0  0  0  0  0  0  0  0  0  0
   35.6790   27.4320   38.7010 C   0  0  0  0  0  0  0  0  0  0  0  0
   36.3320   28.6400   38.5860 C   0  0  0  0  0  0  0  0  0  0  0  0
   37.6800   28.8480   38.8310 C   0  0  0  0  0  0  0  0  0  0  0  0
   38.3930   27.7510   39.2170 N   0  0  0  0  0  0  0  0  0  0  0  0
   36.0790   25.3360   39.2310 H   0  0  0  0  0  0  0  0  0  0  0  0
   34.6440   27.2800   38.5110 H   0  0  0  0  0  0  0  0  0  0  0  0
   35.7410   29.5030   38.2750 H   0  0  0  0  0  0  0  0  0  0  0  0
   38.2810   30.1680   38.6880 C   0  0  0  0  0  0  0  0  0  0  0  0
   38.7590   30.4850   37.5630 O   0  0  0  0  0  0  0  0  0  0  0  0
   38.3410   31.1380   39.8340 C   0  0  0  0  0  3  0  0  0  0  0  0
   37.1070   32.0160   39.8490 C   0  0  0  0  0  3  0  0  0  0  0  0
   36.5790   31.9670   40.8240 H   0  0  0  0  0  0  0  0  0  0  0  0
   37.4380   33.4740   39.6010 C   0  0  0  0  0  3  0  0  0  0  0  0
   36.4570   34.0140   39.7210 H   0  0  0  0  0  0  0  0  0  0  0  0
   38.3700   33.9870   40.4880 O   0  0  0  0  0  0  0  0  0  0  0  0
   39.3820   33.0910   40.7920 C   0  0  0  0  0  3  0  0  0  0  0  0
   40.3220   33.5700   41.0740 H   0  0  0  0  0  0  0  0  0  0  0  0
   39.5170   32.0850   39.6690 C   0  0  0  0  0  3  0  0  0  0  0  0
   40.4890   31.5890   39.7150 H   0  0  0  0  0  0  0  0  0  0  0  0
  1  2  1  0  0  0  0
  1  7  1  1  0  0  0
  1 19  1  0  0  0  0
  2  9  1  0  0  0  0
  3 11  1  0  0  0  0
  3 10  1  0  0  0  0
  3  2  1  0  0  0  0
  4  3  1  0  0  0  0
  5  4  1  0  0  0  0
  5  6  1  0  0  0  0
  6 16  1  1  0  0  0
  6  1  1  0  0  0  0
  8  2  1  0  0  0  0
 12  4  1  0  0  0  0
 13  4  1  0  0  0  0
 14  5  1  0  0  0  0
 15  5  1  0  0  0  0
 17 22  1  0  0  0  0
 17 23  1  0  0  0  0
 18 17  2  0  0  0  0
 19 20  2  0  0  0  0
 19 18  1  0  0  0  0
 20 21  1  0  0  0  0
 21 25  1  0  0  0  0
 21 22  2  0  0  0  0
 24 18  1  0  0  0  0
 26  6  1  0  0  0  0
 27 32  1  0  0  0  0
 27 26  2  0  0  0  0
 28 27  1  0  0  0  0
 29 28  2  0  0  0  0
 29 30  1  0  0  0  0
 30 31  2  0  0  0  0
 31 26  1  0  0  0  0
 33 28  1  0  0  0  0
 34 29  1  0  0  0  0
 35 30  1  0  0  0  0
 35 37  1  0  0  0  0
 36 35  2  0  0  0  0
 37 38  1  0  0  0  0
 38 39  1  0  0  0  0
 40 41  1  0  0  0  0
 40 38  1  0  0  0  0
 40 42  1  0  0  0  0
 42 43  1  0  0  0  0
 43 44  1  0  0  0  0
 45 46  1  0  0  0  0
 45 37  1  0  0  0  0
 45 43  1  0  0  0  0
M  END
>  <minimizedAffinity>
-5.79747009

$$$$

 OpenBabel03242516553D

 46 49  0  0  1  0  0  0  0  0999 V2000
   36.0050   29.7950   37.6290 C   0  0  1  0  0  0  0  0  0  0  0  0
   35.9630   29.2020   36.2930 C   0  0  0  0  0  0  0  0  0  0  0  0
   34.5140   29.3050   35.8300 C   0  0  0  0  0  0  0  0  0  0  0  0
   33.7100   28.3420   36.6890 C   0  0  0  0  0  0  0  0  0  0  0  0
   33.8710   28.5510   38.1630 C   0  0  0  0  0  0  0  0  0  0  0  0
   35.1770   29.0010   38.6460 C   0  0  1  0  0  0  0  0  0  0  0  0
   35.4540   30.7840   37.5990 H   0  0  0  0  0  0  0  0  0  0  0  0
   36.2930   28.1360   36.3030 H   0  0  0  0  0  0  0  0  0  0  0  0
   36.6320   29.7320   35.6160 H   0  0  0  0  0  0  0  0  0  0  0  0
   34.1910   30.3480   35.9840 H   0  0  0  0  0  0  0  0  0  0  0  0
   34.4420   28.9440   34.7950 H   0  0  0  0  0  0  0  0  0  0  0  0
   33.9990   27.3140   36.3940 H   0  0  0  0  0  0  0  0  0  0  0  0
   32.6470   28.4630   36.3930 H   0  0  0  0  0  0  0  0  0  0  0  0
   33.0570   29.2590   38.4710 H   0  0  0  0  0  0  0  0  0  0  0  0
   33.5970   27.5910   38.6630 H   0  0  0  0  0  0  0  0  0  0  0  0
   35.0130   29.7300   39.4960 H   0  0  0  0  0  0  0  0  0  0  0  0
   38.6960   31.3950   39.7520 C   0  0  0  0  0  0  0  0  0  0  0  0
   37.4700   31.0540   39.1660 C   0  0  0  0  0  0  0  0  0  0  0  0
   37.3140   30.0740   38.1830 C   0  0  0  0  0  0  0  0  0  0  0  0
   38.4350   29.4530   37.8150 N   0  0  0  0  0  0  0  0  0  0  0  0
   39.6340   29.7690   38.3720 C   0  0  0  0  0  0  0  0  0  0  0  0
   39.7730   30.7080   39.3110 N   0  0  0  0  0  0  0  0  0  0  0  0
   38.6740   32.1700   40.5000 H   0  0  0  0  0  0  0  0  0  0  0  0
   36.5710   31.5690   39.4790 H   0  0  0  0  0  0  0  0  0  0  0  0
   40.5050   29.2120   38.0140 H   0  0  0  0  0  0  0  0  0  0  0  0
   35.9620   27.9200   39.2500 C   0  0  0  0  0  0  0  0  0  0  0  0
   36.4630   26.7900   38.5890 C   0  0  0  0  0  0  0  0  0  0  0  0
   37.1990   25.8990   39.3700 C   0  0  0  0  0  0  0  0  0  0  0  0
   37.3700   26.1960   40.7050 C   0  0  0  0  0  0  0  0  0  0  0  0
   36.8690   27.3170   41.3460 C   0  0  0  0  0  0  0  0  0  0  0  0
   36.1520   28.1790   40.5690 N   0  0  0  0  0  0  0  0  0  0  0  0
   36.2420   26.7120   37.5650 H   0  0  0  0  0  0  0  0  0  0  0  0
   37.5870   25.0360   38.8860 H   0  0  0  0  0  0  0  0  0  0  0  0
   37.9470   25.4910   41.3070 H   0  0  0  0  0  0  0  0  0  0  0  0
   37.1090   27.5490   42.7640 C   0  0  0  0  0  0  0  0  0  0  0  0
   36.1240   27.4910   43.5520 O   0  0  0  0  0  0  0  0  0  0  0  0
   38.4830   27.8520   43.2950 C   0  0  0  0  0  3  0  0  0  0  0  0
   39.1780   28.8670   42.4110 C   0  0  0  0  0  3  0  0  0  0  0  0
   39.5160   29.7520   42.9890 H   0  0  0  0  0  0  0  0  0  0  0  0
   40.4050   28.2910   41.7330 C   0  0  0  0  0  3  0  0  0  0  0  0
   40.8630   29.1610   41.1850 H   0  0  0  0  0  0  0  0  0  0  0  0
   41.3250   27.7550   42.6190 O   0  0  0  0  0  0  0  0  0  0  0  0
   40.7340   27.0750   43.6720 C   0  0  0  0  0  3  0  0  0  0  0  0
   41.3610   26.2850   44.0920 H   0  0  0  0  0  0  0  0  0  0  0  0
   39.3540   26.6080   43.2580 C   0  0  0  0  0  3  0  0  0  0  0  0
   39.0070   25.8100   43.9170 H   0  0  0  0  0  0  0  0  0  0  0  0
  1  7  1  6  0  0  0
  1 19  1  0  0  0  0
  1  6  1  0  0  0  0
  2  8  1  0  0  0  0
  2  1  1  0  0  0  0
  3 10  1  0  0  0  0
  3  2  1  0  0  0  0
  3  4  1  0  0  0  0
  4  5  1  0  0  0  0
  5 14  1  0  0  0  0
  5  6  1  0  0  0  0
  5 15  1  0  0  0  0
  6 26  1  0  0  0  0
  6 16  1  1  0  0  0
  9  2  1  0  0  0  0
 11  3  1  0  0  0  0
 12  4  1  0  0  0  0
 13  4  1  0  0  0  0
 17 23  1  0  0  0  0
 18 24  1  0  0  0  0
 18 17  2  0  0  0  0
 19 18  1  0  0  0  0
 20 19  2  0  0  0  0
 20 21  1  0  0  0  0
 21 22  2  0  0  0  0
 22 17  1  0  0  0  0
 25 21  1  0  0  0  0
 26 31  1  0  0  0  0
 27 26  2  0  0  0  0
 27 28  1  0  0  0  0
 28 29  2  0  0  0  0
 29 34  1  0  0  0  0
 29 30  1  0  0  0  0
 30 35  1  0  0  0  0
 31 30  2  0  0  0  0
 32 27  1  0  0  0  0
 33 28  1  0  0  0  0
 35 37  1  0  0  0  0
 35 36  2  0  0  0  0
 38 39  1  0  0  0  0
 38 37  1  0  0  0  0
 40 38  1  0  0  0  0
 40 42  1  0  0  0  0
 41 40  1  0  0  0  0
 42 43  1  0  0  0  0
 43 44  1  0  0  0  0
 45 37  1  0  0  0  0
 45 43  1  0  0  0  0
 45 46  1  0  0  0  0
M  END
>  <minimizedAffinity>
-5.66572237

$$$$

 OpenBabel03242516553D

 46 49  0  0  1  0  0  0  0  0999 V2000
   37.7800   31.3280   39.4840 C   0  0  1  0  0  0  0  0  0  0  0  0
   37.4920   32.5430   40.2450 C   0  0  0  0  0  0  0  0  0  0  0  0
   38.6710   33.4810   40.0060 C   0  0  0  0  0  0  0  0  0  0  0  0
   39.8680   32.8710   40.7180 C   0  0  0  0  0  0  0  0  0  0  0  0
   40.1580   31.4540   40.3300 C   0  0  0  0  0  0  0  0  0  0  0  0
   39.0210   30.5930   40.0040 C   0  0  1  0  0  0  0  0  0  0  0  0
   38.1050   31.6280   38.4410 H   0  0  0  0  0  0  0  0  0  0  0  0
   37.3790   32.3310   41.3340 H   0  0  0  0  0  0  0  0  0  0  0  0
   36.5570   32.9920   39.9130 H   0  0  0  0  0  0  0  0  0  0  0  0
   38.8340   33.5350   38.9160 H   0  0  0  0  0  0  0  0  0  0  0  0
   38.4670   34.4440   40.4940 H   0  0  0  0  0  0  0  0  0  0  0  0
   39.6870   32.9620   41.8070 H   0  0  0  0  0  0  0  0  0  0  0  0
   40.7370   33.5220   40.4910 H   0  0  0  0  0  0  0  0  0  0  0  0
   40.8880   31.5050   39.4790 H   0  0  0  0  0  0  0  0  0  0  0  0
   40.7460   30.9990   41.1630 H   0  0  0  0  0  0  0  0  0  0  0  0
   39.3180   29.9150   39.1480 H   0  0  0  0  0  0  0  0  0  0  0  0
   35.5570   28.7180   37.8850 C   0  0  0  0  0  0  0  0  0  0  0  0
   36.5770   29.6450   38.1360 C   0  0  0  0  0  0  0  0  0  0  0  0
   36.6940   30.3850   39.3150 C   0  0  0  0  0  0  0  0  0  0  0  0
   35.7480   30.1560   40.2280 N   0  0  0  0  0  0  0  0  0  0  0  0
   34.7510   29.2600   40.0030 C   0  0  0  0  0  0  0  0  0  0  0  0
   34.6480   28.5570   38.8720 N   0  0  0  0  0  0  0  0  0  0  0  0
   35.5870   28.2150   36.9330 H   0  0  0  0  0  0  0  0  0  0  0  0
   37.3360   29.8160   37.3840 H   0  0  0  0  0  0  0  0  0  0  0  0
   34.0160   29.1320   40.8030 H   0  0  0  0  0  0  0  0  0  0  0  0
   38.6790   29.6680   41.0890 C   0  0  0  0  0  0  0  0  0  0  0  0
   38.4710   30.0080   42.4330 C   0  0  0  0  0  0  0  0  0  0  0  0
   38.1410   28.9550   43.2870 C   0  0  0  0  0  0  0  0  0  0  0  0
   38.0480   27.6900   42.7500 C   0  0  0  0  0  0  0  0  0  0  0  0
   38.2570   27.3680   41.4190 C   0  0  0  0  0  0  0  0  0  0  0  0
   38.5790   28.4070   40.5960 N   0  0  0  0  0  0  0  0  0  0  0  0
   38.5810   31.0220   42.6810 H   0  0  0  0  0  0  0  0  0  0  0  0
   37.9790   29.1940   44.3100 H   0  0  0  0  0  0  0  0  0  0  0  0
   37.7890   26.8740   43.4280 H   0  0  0  0  0  0  0  0  0  0  0  0
   38.1280   25.9970   40.9420 C   0  0  0  0  0  0  0  0  0  0  0  0
   39.1400   25.2440   41.0170 O   0  0  0  0  0  0  0  0  0  0  0  0
   36.8390   25.4740   40.3740 C   0  0  0  0  0  3  0  0  0  0  0  0
   36.5780   24.0650   40.8640 C   0  0  0  0  0  3  0  0  0  0  0  0
   35.5890   23.9790   41.3600 H   0  0  0  0  0  0  0  0  0  0  0  0
   36.5940   23.0530   39.7360 C   0  0  0  0  0  3  0  0  0  0  0  0
   36.3070   22.0790   40.2220 H   0  0  0  0  0  0  0  0  0  0  0  0
   35.7050   23.3500   38.7160 O   0  0  0  0  0  0  0  0  0  0  0  0
   35.6380   24.7040   38.4290 C   0  0  0  0  0  3  0  0  0  0  0  0
   35.3500   24.9210   37.3980 H   0  0  0  0  0  0  0  0  0  0  0  0
   36.9260   25.3730   38.8610 C   0  0  0  0  0  3  0  0  0  0  0  0
   37.0410   26.3380   38.3630 H   0  0  0  0  0  0  0  0  0  0  0  0
  1  7  1  6  0  0  0
  1  6  1  0  0  0  0
  1  2  1  0  0  0  0
  2  8  1  0  0  0  0
  3  2  1  0  0  0  0
  3 11  1  0  0  0  0
  3  4  1  0  0  0  0
  4 12  1  0  0  0  0
  5  4  1  0  0  0  0
  5 15  1  0  0  0  0
  6 16  1  6  0  0  0
  6  5  1  0  0  0  0
  6 26  1  0  0  0  0
  9  2  1  0  0  0  0
 10  3  1  0  0  0  0
 13  4  1  0  0  0  0
 14  5  1  0  0  0  0
 17 18  2  0  0  0  0
 17 22  1  0  0  0  0
 18 19  1  0  0  0  0
 19  1  1  0  0  0  0
 19 20  2  0  0  0  0
 21 20  1  0  0  0  0
 21 25  1  0  0  0  0
 22 21  2  0  0  0  0
 23 17  1  0  0  0  0
 24 18  1  0  0  0  0
 26 27  1  0  0  0  0
 27 32  1  0  0  0  0
 27 28  2  0  0  0  0
 28 33  1  0  0  0  0
 29 28  1  0  0  0  0
 29 34  1  0  0  0  0
 30 29  2  0  0  0  0
 31 26  2  0  0  0  0
 31 30  1  0  0  0  0
 35 36  2  0  0  0  0
 35 30  1  0  0  0  0
 37 38  1  0  0  0  0
 37 35  1  0  0  0  0
 38 39  1  0  0  0  0
 40 41  1  0  0  0  0
 40 38  1  0  0  0  0
 42 40  1  0  0  0  0
 43 42  1  0  0  0  0
 43 45  1  0  0  0  0
 44 43  1  0  0  0  0
 45 37  1  0  0  0  0
 46 45  1  0  0  0  0
M  END
>  <minimizedAffinity>
-5.64485836

$$$$

 OpenBabel03242516553D

 46 49  0  0  1  0  0  0  0  0999 V2000
   38.1970   25.9300   40.6580 C   0  0  1  0  0  0  0  0  0  0  0  0
   37.2730   25.1470   41.4780 C   0  0  0  0  0  0  0  0  0  0  0  0
   36.9140   23.9170   40.6520 C   0  0  0  0  0  0  0  0  0  0  0  0
   36.0600   24.4010   39.4910 C   0  0  0  0  0  0  0  0  0  0  0  0
   36.6890   25.4910   38.6780 C   0  0  0  0  0  0  0  0  0  0  0  0
   37.5390   26.4550   39.3770 C   0  0  1  0  0  0  0  0  0  0  0  0
   38.9890   25.2320   40.2460 H   0  0  0  0  0  0  0  0  0  0  0  0
   36.3540   25.7260   41.7330 H   0  0  0  0  0  0  0  0  0  0  0  0
   37.7390   24.8660   42.4220 H   0  0  0  0  0  0  0  0  0  0  0  0
   37.8580   23.4680   40.2990 H   0  0  0  0  0  0  0  0  0  0  0  0
   36.2810   23.2520   41.2560 H   0  0  0  0  0  0  0  0  0  0  0  0
   35.0850   24.7220   39.9070 H   0  0  0  0  0  0  0  0  0  0  0  0
   35.8520   23.5140   38.8570 H   0  0  0  0  0  0  0  0  0  0  0  0
   37.2490   24.9810   37.8500 H   0  0  0  0  0  0  0  0  0  0  0  0
   35.8640   26.0290   38.1540 H   0  0  0  0  0  0  0  0  0  0  0  0
   38.4130   26.7160   38.7060 H   0  0  0  0  0  0  0  0  0  0  0  0
   40.8040   28.5940   41.3020 C   0  0  0  0  0  0  0  0  0  0  0  0
   40.0530   27.5560   40.7350 C   0  0  0  0  0  0  0  0  0  0  0  0
   38.9060   27.0080   41.3150 C   0  0  0  0  0  0  0  0  0  0  0  0
   38.5470   27.5430   42.4830 N   0  0  0  0  0  0  0  0  0  0  0  0
   39.2630   28.5510   43.0490 C   0  0  0  0  0  0  0  0  0  0  0  0
   40.3580   29.0680   42.4870 N   0  0  0  0  0  0  0  0  0  0  0  0
   41.6670   28.9230   40.7480 H   0  0  0  0  0  0  0  0  0  0  0  0
   40.3600   27.1350   39.7870 H   0  0  0  0  0  0  0  0  0  0  0  0
   38.9000   28.9340   44.0080 H   0  0  0  0  0  0  0  0  0  0  0  0
   36.8700   27.7390   39.6060 C   0  0  0  0  0  0  0  0  0  0  0  0
   35.8240   27.9790   40.5080 C   0  0  0  0  0  0  0  0  0  0  0  0
   35.3520   29.2910   40.5650 C   0  0  0  0  0  0  0  0  0  0  0  0
   35.9430   30.2280   39.7450 C   0  0  0  0  0  0  0  0  0  0  0  0
   36.9760   29.9770   38.8570 C   0  0  0  0  0  0  0  0  0  0  0  0
   37.4260   28.6900   38.8120 N   0  0  0  0  0  0  0  0  0  0  0  0
   35.4850   27.1540   41.0620 H   0  0  0  0  0  0  0  0  0  0  0  0
   34.5590   29.4920   41.2440 H   0  0  0  0  0  0  0  0  0  0  0  0
   35.5650   31.2510   39.7970 H   0  0  0  0  0  0  0  0  0  0  0  0
   37.5410   31.0380   38.0330 C   0  0  0  0  0  0  0  0  0  0  0  0
   37.3780   30.9700   36.7820 O   0  0  0  0  0  0  0  0  0  0  0  0
   38.3020   32.1860   38.6340 C   0  0  0  0  0  3  0  0  0  0  0  0
   39.2850   31.6840   39.6720 C   0  0  0  0  0  3  0  0  0  0  0  0
   40.3200   32.0170   39.4520 H   0  0  0  0  0  0  0  0  0  0  0  0
   38.9500   32.1770   41.0650 C   0  0  0  0  0  3  0  0  0  0  0  0
   39.7940   31.8050   41.7100 H   0  0  0  0  0  0  0  0  0  0  0  0
   38.8610   33.5570   41.1550 O   0  0  0  0  0  0  0  0  0  0  0  0
   38.2550   34.1360   40.0520 C   0  0  0  0  0  3  0  0  0  0  0  0
   37.7590   35.0840   40.2710 H   0  0  0  0  0  0  0  0  0  0  0  0
   37.3600   33.1170   39.3770 C   0  0  0  0  0  3  0  0  0  0  0  0
   36.6340   33.6150   38.7300 H   0  0  0  0  0  0  0  0  0  0  0  0
  1  7  1  6  0  0  0
  1 19  1  0  0  0  0
  1  2  1  0  0  0  0
  2  8  1  0  0  0  0
  2  9  1  0  0  0  0
  3 11  1  0  0  0  0
  3  2  1  0  0  0  0
  4 12  1  0  0  0  0
  4  3  1  0  0  0  0
  5  6  1  0  0  0  0
  5  4  1  0  0  0  0
  6 16  1  6  0  0  0
  6 26  1  0  0  0  0
  6  1  1  0  0  0  0
 10  3  1  0  0  0  0
 13  4  1  0  0  0  0
 14  5  1  0  0  0  0
 15  5  1  0  0  0  0
 17 22  1  0  0  0  0
 18 17  2  0  0  0  0
 18 19  1  0  0  0  0
 19 20  2  0  0  0  0
 20 21  1  0  0  0  0
 21 25  1  0  0  0  0
 22 21  2  0  0  0  0
 23 17  1  0  0  0  0
 24 18  1  0  0  0  0
 26 27  1  0  0  0  0
 27 28  2  0  0  0  0
 27 32  1  0  0  0  0
 28 33  1  0  0  0  0
 29 34  1  0  0  0  0
 29 28  1  0  0  0  0
 30 29  2  0  0  0  0
 31 30  1  0  0  0  0
 31 26  2  0  0  0  0
 35 37  1  0  0  0  0
 35 30  1  0  0  0  0
 36 35  2  0  0  0  0
 37 45  1  0  0  0  0
 37 38  1  0  0  0  0
 38 40  1  0  0  0  0
 39 38  1  0  0  0  0
 40 42  1  0  0  0  0
 40 41  1  0  0  0  0
 43 44  1  0  0  0  0
 43 42  1  0  0  0  0
 45 43  1  0  0  0  0
 46 45  1  0  0  0  0
M  END
>  <minimizedAffinity>
-5.63093567

$$$$
