
 OpenBabel03242523543D

 46 49  0  0  1  0  0  0  0  0999 V2000
   42.8020   34.3370   38.9370 C   0  0  1  0  0  0  0  0  0  0  0  0
   42.9950   35.1660   40.1990 C   0  0  1  0  0  0  0  0  0  0  0  0
   41.7220   35.5510   40.6690 O   0  0  0  0  0  0  0  0  0  0  0  0
   40.8330   35.8350   39.6290 C   0  0  0  0  0  0  0  0  0  0  0  0
   40.4360   34.5880   38.8660 C   0  0  2  0  0  0  0  0  0  0  0  0
   41.5600   33.5300   39.1470 C   0  0  1  0  0  0  0  0  0  0  0  0
   43.6830   33.6710   38.7750 H   0  0  0  0  0  0  0  0  0  0  0  0
   43.6570   36.0250   40.0660 H   0  0  0  0  0  0  0  0  0  0  0  0
   41.2060   36.6420   38.9550 H   0  0  0  0  0  0  0  0  0  0  0  0
   39.9470   36.2780   40.1300 H   0  0  0  0  0  0  0  0  0  0  0  0
   39.4670   34.1770   39.1940 H   0  0  0  0  0  0  0  0  0  0  0  0
   41.3080   33.4070   40.2480 H   0  0  0  0  0  0  0  0  0  0  0  0
   42.6710   35.1650   37.8140 O   0  0  0  0  0  0  0  0  0  0  0  0
   42.9980   34.7110   37.0010 H   0  0  0  0  0  0  0  0  0  0  0  0
   40.4910   34.8390   37.5040 O   0  0  0  0  0  0  0  0  0  0  0  0
   40.5000   34.0050   36.9690 H   0  0  0  0  0  0  0  0  0  0  0  0
   43.4420   34.2440   41.1690 O   0  0  0  0  0  0  0  0  0  0  0  0
   44.5850   34.3570   41.8520 C   0  0  0  0  0  0  0  0  0  0  0  0
   45.8170   34.4800   41.1900 C   0  0  0  0  0  0  0  0  0  0  0  0
   46.9670   34.5950   41.9500 C   0  0  0  0  0  0  0  0  0  0  0  0
   46.8740   34.5860   43.3330 N   0  0  0  0  0  0  0  0  0  0  0  0
   45.6690   34.4640   43.9340 C   0  0  0  0  0  0  0  0  0  0  0  0
   44.5340   34.3500   43.2020 N   0  0  0  0  0  0  0  0  0  0  0  0
   45.8770   34.4870   40.1200 H   0  0  0  0  0  0  0  0  0  0  0  0
   45.6140   34.4580   45.0170 H   0  0  0  0  0  0  0  0  0  0  0  0
   48.3180   34.7100   41.3160 C   0  0  0  0  0  0  0  0  0  0  0  0
   49.0640   36.0290   41.5190 C   0  0  0  0  0  0  0  0  0  0  0  0
   49.5080   34.6760   42.1040 C   0  0  0  0  0  0  0  0  0  0  0  0
   48.3150   34.3110   40.2690 H   0  0  0  0  0  0  0  0  0  0  0  0
   48.5420   36.7490   42.1650 H   0  0  0  0  0  0  0  0  0  0  0  0
   49.5830   36.4030   40.6390 H   0  0  0  0  0  0  0  0  0  0  0  0
   50.4360   34.3090   41.6700 H   0  0  0  0  0  0  0  0  0  0  0  0
   49.4080   34.6690   43.2220 H   0  0  0  0  0  0  0  0  0  0  0  0
   41.3600   32.4990   38.3070 O   0  0  0  0  0  0  0  0  0  0  0  0
   40.4460   31.5120   38.3670 C   0  0  0  0  0  0  0  0  0  0  0  0
   39.8300   31.0700   37.3010 O   0  0  0  0  0  0  0  0  0  0  0  0
   39.6650   30.5190   39.1490 C   0  0  0  0  0  3  0  0  0  0  0  0
   40.1960   30.3200   40.5390 C   0  0  0  0  0  3  0  0  0  0  0  0
   39.9770   31.1850   41.1970 H   0  0  0  0  0  0  0  0  0  0  0  0
   39.4380   29.1200   41.0760 C   0  0  0  0  0  3  0  0  0  0  0  0
   39.6820   28.2840   40.3580 H   0  0  0  0  0  0  0  0  0  0  0  0
   38.0920   29.3900   41.1340 O   0  0  0  0  0  0  0  0  0  0  0  0
   37.5330   29.6810   39.9020 C   0  0  0  0  0  3  0  0  0  0  0  0
   37.7860   28.8430   39.2000 H   0  0  0  0  0  0  0  0  0  0  0  0
   38.2120   30.9040   39.2930 C   0  0  0  0  0  3  0  0  0  0  0  0
   38.0840   31.7950   39.9360 H   0  0  0  0  0  0  0  0  0  0  0  0
  1  7  1  6  0  0  0
  1  6  1  0  0  0  0
  1  2  1  0  0  0  0
  2  8  1  6  0  0  0
  2  3  1  0  0  0  0
  2 17  1  0  0  0  0
  4 10  1  0  0  0  0
  4  3  1  0  0  0  0
  5  6  1  0  0  0  0
  5 11  1  1  0  0  0
  5  4  1  0  0  0  0
  6 12  1  1  0  0  0
  9  4  1  0  0  0  0
 13  1  1  0  0  0  0
 14 13  1  0  0  0  0
 15  5  1  0  0  0  0
 16 15  1  0  0  0  0
 17 18  1  0  0  0  0
 18 23  1  0  0  0  0
 19 18  2  0  0  0  0
 19 20  1  0  0  0  0
 20 21  2  0  0  0  0
 21 22  1  0  0  0  0
 22 25  1  0  0  0  0
 23 22  2  0  0  0  0
 24 19  1  0  0  0  0
 26 27  1  0  0  0  0
 26 20  1  0  0  0  0
 26 28  1  0  0  0  0
 27 28  1  0  0  0  0
 27 30  1  0  0  0  0
 28 33  1  0  0  0  0
 29 26  1  0  0  0  0
 31 27  1  0  0  0  0
 32 28  1  0  0  0  0
 34 35  1  0  0  0  0
 34  6  1  0  0  0  0
 35 37  1  0  0  0  0
 36 35  2  0  0  0  0
 37 45  1  0  0  0  0
 37 38  1  0  0  0  0
 38 40  1  0  0  0  0
 38 39  1  0  0  0  0
 40 42  1  0  0  0  0
 41 40  1  0  0  0  0
 43 42  1  0  0  0  0
 44 43  1  0  0  0  0
 45 43  1  0  0  0  0
 45 46  1  0  0  0  0
M  END
>  <minimizedAffinity>
-6.14536953

>  <minimizedRMSD>
1.49828696

$$$$
