
 OpenBabel03242523543D

 46 49  0  0  1  0  0  0  0  0999 V2000
   42.8210   34.5130   38.7630 C   0  0  1  0  0  0  0  0  0  0  0  0
   42.9580   35.1910   40.1190 C   0  0  1  0  0  0  0  0  0  0  0  0
   41.6620   35.4030   40.6340 O   0  0  0  0  0  0  0  0  0  0  0  0
   40.7400   35.7380   39.6380 C   0  0  0  0  0  0  0  0  0  0  0  0
   40.4420   34.5680   38.7250 C   0  0  2  0  0  0  0  0  0  0  0  0
   41.6550   33.5830   38.8700 C   0  0  1  0  0  0  0  0  0  0  0  0
   43.7540   33.9510   38.5170 H   0  0  0  0  0  0  0  0  0  0  0  0
   43.5420   36.1130   40.0940 H   0  0  0  0  0  0  0  0  0  0  0  0
   41.0360   36.6530   39.0710 H   0  0  0  0  0  0  0  0  0  0  0  0
   39.8250   36.0370   40.1910 H   0  0  0  0  0  0  0  0  0  0  0  0
   39.5150   34.0370   38.9990 H   0  0  0  0  0  0  0  0  0  0  0  0
   41.4270   33.3020   39.9470 H   0  0  0  0  0  0  0  0  0  0  0  0
   42.6080   35.4620   37.7530 O   0  0  0  0  0  0  0  0  0  0  0  0
   42.9630   35.1430   36.8890 H   0  0  0  0  0  0  0  0  0  0  0  0
   40.4600   34.9910   37.4050 O   0  0  0  0  0  0  0  0  0  0  0  0
   40.5340   34.2350   36.7690 H   0  0  0  0  0  0  0  0  0  0  0  0
   43.4920   34.1960   40.9650 O   0  0  0  0  0  0  0  0  0  0  0  0
   44.6000   34.3410   41.6980 C   0  0  0  0  0  0  0  0  0  0  0  0
   45.8630   34.4430   41.0940 C   0  0  0  0  0  0  0  0  0  0  0  0
   46.9730   34.5930   41.9050 C   0  0  0  0  0  0  0  0  0  0  0  0
   46.8120   34.6370   43.2810 N   0  0  0  0  0  0  0  0  0  0  0  0
   45.5790   34.5340   43.8260 C   0  0  0  0  0  0  0  0  0  0  0  0
   44.4820   34.3870   43.0430 N   0  0  0  0  0  0  0  0  0  0  0  0
   45.9750   34.4070   40.0290 H   0  0  0  0  0  0  0  0  0  0  0  0
   45.4700   34.5700   44.9040 H   0  0  0  0  0  0  0  0  0  0  0  0
   48.3540   34.6880   41.3340 C   0  0  0  0  0  0  0  0  0  0  0  0
   49.0780   36.0230   41.5050 C   0  0  0  0  0  0  0  0  0  0  0  0
   49.5020   34.7070   42.1830 C   0  0  0  0  0  0  0  0  0  0  0  0
   48.4070   34.2350   40.3110 H   0  0  0  0  0  0  0  0  0  0  0  0
   48.5190   36.7700   42.0860 H   0  0  0  0  0  0  0  0  0  0  0  0
   49.6390   36.3560   40.6340 H   0  0  0  0  0  0  0  0  0  0  0  0
   50.4540   34.3270   41.8160 H   0  0  0  0  0  0  0  0  0  0  0  0
   49.3450   34.7570   43.2930 H   0  0  0  0  0  0  0  0  0  0  0  0
   41.5340   32.6520   37.9060 O   0  0  0  0  0  0  0  0  0  0  0  0
   40.8670   31.4820   37.9260 C   0  0  0  0  0  0  0  0  0  0  0  0
   39.6460   31.3720   37.4700 O   0  0  0  0  0  0  0  0  0  0  0  0
   40.8050   30.0340   38.2520 C   0  0  0  0  0  3  0  0  0  0  0  0
   39.8060   29.7180   39.3270 C   0  0  0  0  0  3  0  0  0  0  0  0
   38.7620   29.8000   38.9630 H   0  0  0  0  0  0  0  0  0  0  0  0
   40.0650   28.2650   39.6800 C   0  0  0  0  0  3  0  0  0  0  0  0
   41.1390   28.2400   40.0200 H   0  0  0  0  0  0  0  0  0  0  0  0
   39.8360   27.4570   38.5910 O   0  0  0  0  0  0  0  0  0  0  0  0
   40.6530   27.7430   37.5110 C   0  0  0  0  0  3  0  0  0  0  0  0
   41.7170   27.7190   37.8660 H   0  0  0  0  0  0  0  0  0  0  0  0
   40.4380   29.1840   37.0580 C   0  0  0  0  0  3  0  0  0  0  0  0
   39.3930   29.3520   36.7390 H   0  0  0  0  0  0  0  0  0  0  0  0
  1  7  1  6  0  0  0
  1  6  1  0  0  0  0
  1  2  1  0  0  0  0
  2  8  1  6  0  0  0
  2  3  1  0  0  0  0
  2 17  1  0  0  0  0
  4 10  1  0  0  0  0
  4  3  1  0  0  0  0
  5  6  1  0  0  0  0
  5 11  1  1  0  0  0
  5  4  1  0  0  0  0
  6 12  1  1  0  0  0
  9  4  1  0  0  0  0
 13  1  1  0  0  0  0
 14 13  1  0  0  0  0
 15  5  1  0  0  0  0
 16 15  1  0  0  0  0
 17 18  1  0  0  0  0
 18 23  1  0  0  0  0
 19 18  2  0  0  0  0
 19 20  1  0  0  0  0
 20 21  2  0  0  0  0
 21 22  1  0  0  0  0
 22 25  1  0  0  0  0
 23 22  2  0  0  0  0
 24 19  1  0  0  0  0
 26 27  1  0  0  0  0
 26 20  1  0  0  0  0
 26 28  1  0  0  0  0
 27 30  1  0  0  0  0
 27 28  1  0  0  0  0
 28 33  1  0  0  0  0
 29 26  1  0  0  0  0
 31 27  1  0  0  0  0
 32 28  1  0  0  0  0
 34 35  1  0  0  0  0
 34  6  1  0  0  0  0
 35 37  1  0  0  0  0
 36 35  2  0  0  0  0
 37 38  1  0  0  0  0
 38 40  1  0  0  0  0
 39 38  1  0  0  0  0
 40 41  1  0  0  0  0
 42 40  1  0  0  0  0
 43 44  1  0  0  0  0
 43 42  1  0  0  0  0
 45 43  1  0  0  0  0
 45 37  1  0  0  0  0
 46 45  1  0  0  0  0
M  END
>  <minimizedAffinity>
-5.77640152

>  <minimizedRMSD>
0.111485519

$$$$
