
 OpenBabel03242519493D

 51 54  0  0  1  0  0  0  0  0999 V2000
   45.0710   29.2270   47.3310 C   0  0  0  0  0  0  0  0  0  0  0  0
   45.1780   29.0760   48.3670 H   0  0  0  0  0  0  0  0  0  0  0  0
   43.8380   29.4280   47.3880 H   0  0  0  0  0  0  0  0  0  0  0  0
   45.0530   28.0500   46.3460 C   0  0  0  0  0  0  0  0  0  0  0  0
   45.6200   28.2630   45.4490 H   0  0  0  0  0  0  0  0  0  0  0  0
   45.5240   27.1980   46.8780 H   0  0  0  0  0  0  0  0  0  0  0  0
   43.0000   28.5440   45.1440 C   0  0  0  0  0  0  0  0  0  0  0  0
   43.6660   27.6930   46.0390 C   0  0  0  0  0  0  0  0  0  0  0  0
   42.8910   26.6580   46.5110 C   0  0  0  0  0  0  0  0  0  0  0  0
   41.5880   26.4340   46.1730 C   0  0  0  0  0  0  0  0  0  0  0  0
   40.9510   27.2890   45.2870 C   0  0  0  0  0  0  0  0  0  0  0  0
   41.6810   28.3770   44.7590 C   0  0  0  0  0  0  0  0  0  0  0  0
   43.4370   26.0240   47.1960 H   0  0  0  0  0  0  0  0  0  0  0  0
   41.1230   25.5700   46.6360 H   0  0  0  0  0  0  0  0  0  0  0  0
   39.9250   27.0750   45.0490 H   0  0  0  0  0  0  0  0  0  0  0  0
   43.5290   29.6520   44.5160 O   0  0  0  0  0  0  0  0  0  0  0  0
   44.0670   30.3150   45.0440 H   0  0  0  0  0  0  0  0  0  0  0  0
   40.9670   29.1300   43.9200 O   0  0  0  0  0  0  0  0  0  0  0  0
   40.8040   29.3710   42.6070 C   0  0  0  0  0  3  0  0  0  0  0  0
   39.5130   30.0670   42.2230 C   0  0  0  0  0  3  0  0  0  0  0  0
   39.2720   30.9140   42.8560 H   0  0  0  0  0  0  0  0  0  0  0  0
   38.3330   29.1280   42.2210 C   0  0  0  0  0  3  0  0  0  0  0  0
   38.2110   28.5820   43.1640 H   0  0  0  0  0  0  0  0  0  0  0  0
   38.5900   28.2340   41.1560 O   0  0  0  0  0  0  0  0  0  0  0  0
   39.5790   27.3870   41.6280 C   0  0  0  0  0  3  0  0  0  0  0  0
   39.2120   26.8490   42.5070 H   0  0  0  0  0  0  0  0  0  0  0  0
   40.9070   28.0650   41.8400 C   0  0  0  0  0  3  0  0  0  0  0  0
   41.5530   27.3510   42.3910 H   0  0  0  0  0  0  0  0  0  0  0  0
   45.4000   30.3850   46.7540 O   0  0  0  0  0  0  0  0  0  0  0  0
   46.5000   32.4940   46.6610 C   0  0  2  0  0  0  0  0  0  0  0  0
   47.1320   32.6270   45.3490 C   0  0  1  0  0  0  0  0  0  0  0  0
   46.9120   31.2930   44.7360 O   0  0  0  0  0  0  0  0  0  0  0  0
   47.4870   30.5410   45.7530 C   0  0  0  0  0  0  0  0  0  0  0  0
   46.5410   31.0400   46.9870 C   0  0  2  0  0  0  0  0  0  0  0  0
   46.9570   33.1210   47.4500 H   0  0  0  0  0  0  0  0  0  0  0  0
   48.2480   32.6680   45.4000 H   0  0  0  0  0  0  0  0  0  0  0  0
   47.3350   29.4650   45.6620 H   0  0  0  0  0  0  0  0  0  0  0  0
   48.4950   30.8830   45.9780 H   0  0  0  0  0  0  0  0  0  0  0  0
   47.1850   30.6690   47.8020 H   0  0  0  0  0  0  0  0  0  0  0  0
   44.8690   35.2120   44.1300 C   0  0  0  0  0  0  0  0  0  0  0  0
   45.4390   35.6100   42.9210 C   0  0  0  0  0  0  0  0  0  0  0  0
   46.6190   34.9790   42.4990 C   0  0  0  0  0  0  0  0  0  0  0  0
   47.1610   34.0110   43.2720 N   0  0  0  0  0  0  0  0  0  0  0  0
   46.5930   33.6380   44.4430 C   0  0  0  0  0  0  0  0  0  0  0  0
   45.4460   34.2320   44.8800 N   0  0  0  0  0  0  0  0  0  0  0  0
   44.9470   36.3910   42.3590 H   0  0  0  0  0  0  0  0  0  0  0  0
   47.0530   35.2920   41.5640 H   0  0  0  0  0  0  0  0  0  0  0  0
   43.6960   35.8060   44.5990 O   0  0  0  0  0  0  0  0  0  0  0  0
   42.9060   35.8750   43.9780 H   0  0  0  0  0  0  0  0  0  0  0  0
   45.0930   32.8520   46.5260 O   0  0  0  0  0  0  0  0  0  0  0  0
   44.8190   33.0200   47.4820 H   0  0  0  0  0  0  0  0  0  0  0  0
  1  3  1  0  0  0  0
  1  2  1  0  0  0  0
  4  6  1  0  0  0  0
  4  1  1  0  0  0  0
  5  4  1  0  0  0  0
  7  8  1  0  0  0  0
  8  4  1  0  0  0  0
  8  9  2  0  0  0  0
  9 13  1  0  0  0  0
 10  9  1  0  0  0  0
 10 14  1  0  0  0  0
 11 10  2  0  0  0  0
 12  7  2  0  0  0  0
 12 11  1  0  0  0  0
 15 11  1  0  0  0  0
 16 17  1  0  0  0  0
 16  7  1  0  0  0  0
 18 12  1  0  0  0  0
 19 18  1  0  0  0  0
 20 19  1  0  0  0  0
 20 21  1  0  0  0  0
 22 20  1  0  0  0  0
 22 23  1  0  0  0  0
 24 25  1  0  0  0  0
 24 22  1  0  0  0  0
 25 27  1  0  0  0  0
 25 26  1  0  0  0  0
 27 28  1  0  0  0  0
 27 19  1  0  0  0  0
 29 34  1  0  0  0  0
 29  1  1  0  0  0  0
 30 34  1  0  0  0  0
 30 35  1  1  0  0  0
 31 36  1  1  0  0  0
 31 30  1  0  0  0  0
 32 31  1  0  0  0  0
 32 33  1  0  0  0  0
 33 38  1  0  0  0  0
 33 34  1  0  0  0  0
 34 39  1  1  0  0  0
 37 33  1  0  0  0  0
 40 48  1  0  0  0  0
 40 45  1  0  0  0  0
 41 40  2  0  0  0  0
 42 41  1  0  0  0  0
 42 43  2  0  0  0  0
 43 44  1  0  0  0  0
 44 45  2  0  0  0  0
 44 31  1  0  0  0  0
 46 41  1  0  0  0  0
 47 42  1  0  0  0  0
 49 48  1  0  0  0  0
 50 30  1  0  0  0  0
 50 51  1  0  0  0  0
M  END
>  <minimizedAffinity>
-5.96886349

>  <minimizedRMSD>
1.38243055

$$$$
