
 OpenBabel03242517003D

 33 35  0  0  0  0  0  0  0  0999 V2000
   46.6270   34.7560   41.9920 C   0  0  0  0  0  0  0  0  0  0  0  0
   47.9040   35.2700   41.9150 C   0  0  0  0  0  0  0  0  0  0  0  0
   48.6260   35.0950   40.7540 C   0  0  0  0  0  0  0  0  0  0  0  0
   48.0650   34.4160   39.7020 C   0  0  0  0  0  0  0  0  0  0  0  0
   46.7970   33.8910   39.7410 C   0  0  0  0  0  0  0  0  0  0  0  0
   46.0870   34.0860   40.9380 C   0  0  0  0  0  0  0  0  0  0  0  0
   48.3480   35.8070   42.7480 H   0  0  0  0  0  0  0  0  0  0  0  0
   49.6200   35.5100   40.7320 H   0  0  0  0  0  0  0  0  0  0  0  0
   48.6680   34.3030   38.8110 H   0  0  0  0  0  0  0  0  0  0  0  0
   46.3350   33.3570   38.9330 H   0  0  0  0  0  0  0  0  0  0  0  0
   44.4990   36.1700   44.7810 C   0  0  0  0  0  0  0  0  0  0  0  0
   45.1390   36.0760   43.5290 C   0  0  0  0  0  0  0  0  0  0  0  0
   45.9130   34.9730   43.2480 C   0  0  0  0  0  0  0  0  0  0  0  0
   46.0150   34.0150   44.2250 N   0  0  0  0  0  0  0  0  0  0  0  0
   45.3930   34.1220   45.4200 C   0  0  0  0  0  0  0  0  0  0  0  0
   44.6300   35.2090   45.6970 N   0  0  0  0  0  0  0  0  0  0  0  0
   43.9240   37.0910   44.8600 H   0  0  0  0  0  0  0  0  0  0  0  0
   45.0680   36.8170   42.7570 H   0  0  0  0  0  0  0  0  0  0  0  0
   45.4900   33.3580   46.1620 H   0  0  0  0  0  0  0  0  0  0  0  0
   43.4810   34.0800   40.8060 C   0  0  0  0  0  0  0  0  0  0  0  0
   43.1890   35.1410   40.2520 O   0  0  0  0  0  0  0  0  0  0  0  0
   44.7750   33.5920   41.1120 N   0  0  0  0  0  0  0  0  0  0  0  0
   44.9730   32.6680   41.5730 H   0  0  0  0  0  0  0  0  0  0  0  0
   42.3930   33.1330   41.2410 C   0  0  0  0  0  3  0  0  0  0  0  0
   41.6730   32.5960   39.9970 C   0  0  0  0  0  3  0  0  0  0  0  0
   41.2180   33.4730   39.5050 H   0  0  0  0  0  0  0  0  0  0  0  0
   40.6380   31.6220   40.5140 C   0  0  0  0  0  3  0  0  0  0  0  0
   39.6350   32.0650   40.2750 H   0  0  0  0  0  0  0  0  0  0  0  0
   40.6570   31.4390   41.8750 O   0  0  0  0  0  0  0  0  0  0  0  0
   41.8900   30.9980   42.3480 C   0  0  0  0  0  3  0  0  0  0  0  0
   41.8470   31.0770   43.4600 H   0  0  0  0  0  0  0  0  0  0  0  0
   43.0150   31.9100   41.8900 C   0  0  0  0  0  3  0  0  0  0  0  0
   43.6120   31.3210   41.1600 H   0  0  0  0  0  0  0  0  0  0  0  0
  1 13  1  0  0  0  0
  2  1  1  0  0  0  0
  2  7  1  0  0  0  0
  3  2  2  0  0  0  0
  4  5  2  0  0  0  0
  4  3  1  0  0  0  0
  5  6  1  0  0  0  0
  6 22  1  0  0  0  0
  6  1  2  0  0  0  0
  8  3  1  0  0  0  0
  9  4  1  0  0  0  0
 10  5  1  0  0  0  0
 11 17  1  0  0  0  0
 11 16  1  0  0  0  0
 12 11  2  0  0  0  0
 13 12  1  0  0  0  0
 13 14  2  0  0  0  0
 14 15  1  0  0  0  0
 15 16  2  0  0  0  0
 15 19  1  0  0  0  0
 18 12  1  0  0  0  0
 20 22  1  0  0  0  0
 20 24  1  0  0  0  0
 21 20  2  0  0  0  0
 22 23  1  0  0  0  0
 24 32  1  0  0  0  0
 25 27  1  0  0  0  0
 25 24  1  0  0  0  0
 26 25  1  0  0  0  0
 27 29  1  0  0  0  0
 28 27  1  0  0  0  0
 29 30  1  0  0  0  0
 30 31  1  0  0  0  0
 32 30  1  0  0  0  0
 33 32  1  0  0  0  0
M  END
>  <minimizedAffinity>
-6.05788898

>  <minimizedRMSD>
0.755071104

$$$$
