
 OpenBabel03242516533D

 46 49  0  0  1  0  0  0  0  0999 V2000
   47.8060   32.8310   41.6900 C   0  0  1  0  0  0  0  0  0  0  0  0
   47.4230   32.1380   40.4610 C   0  0  0  0  0  0  0  0  0  0  0  0
   48.4210   32.5830   39.3970 C   0  0  0  0  0  0  0  0  0  0  0  0
   48.1280   34.0450   39.1050 C   0  0  0  0  0  0  0  0  0  0  0  0
   48.1300   34.9270   40.3160 C   0  0  0  0  0  0  0  0  0  0  0  0
   47.6530   34.3520   41.5740 C   0  0  1  0  0  0  0  0  0  0  0  0
   48.9240   32.7170   41.8330 H   0  0  0  0  0  0  0  0  0  0  0  0
   46.3830   32.3930   40.1490 H   0  0  0  0  0  0  0  0  0  0  0  0
   47.4530   31.0580   40.6030 H   0  0  0  0  0  0  0  0  0  0  0  0
   49.4330   32.4500   39.8170 H   0  0  0  0  0  0  0  0  0  0  0  0
   48.2270   32.0280   38.4690 H   0  0  0  0  0  0  0  0  0  0  0  0
   47.1560   34.0900   38.5760 H   0  0  0  0  0  0  0  0  0  0  0  0
   48.8940   34.3840   38.3770 H   0  0  0  0  0  0  0  0  0  0  0  0
   49.1760   35.3190   40.4170 H   0  0  0  0  0  0  0  0  0  0  0  0
   47.5260   35.8320   40.0650 H   0  0  0  0  0  0  0  0  0  0  0  0
   48.2910   34.7580   42.4180 H   0  0  0  0  0  0  0  0  0  0  0  0
   45.4450   31.0130   44.0210 C   0  0  0  0  0  0  0  0  0  0  0  0
   46.1040   31.4980   42.8850 C   0  0  0  0  0  0  0  0  0  0  0  0
   47.1910   32.3760   42.9200 C   0  0  0  0  0  0  0  0  0  0  0  0
   47.5870   32.7430   44.1400 N   0  0  0  0  0  0  0  0  0  0  0  0
   46.9600   32.2820   45.2550 C   0  0  0  0  0  0  0  0  0  0  0  0
   45.9220   31.4440   45.2110 N   0  0  0  0  0  0  0  0  0  0  0  0
   44.6210   30.3410   43.8500 H   0  0  0  0  0  0  0  0  0  0  0  0
   45.7690   31.1880   41.9030 H   0  0  0  0  0  0  0  0  0  0  0  0
   47.3480   32.6330   46.2160 H   0  0  0  0  0  0  0  0  0  0  0  0
   46.2940   34.7820   41.9170 C   0  0  0  0  0  0  0  0  0  0  0  0
   45.9160   35.5030   43.0580 C   0  0  0  0  0  0  0  0  0  0  0  0
   44.5600   35.8140   43.1650 C   0  0  0  0  0  0  0  0  0  0  0  0
   43.7180   35.3950   42.1580 C   0  0  0  0  0  0  0  0  0  0  0  0
   44.1050   34.6820   41.0350 C   0  0  0  0  0  0  0  0  0  0  0  0
   45.4340   34.3850   40.9450 N   0  0  0  0  0  0  0  0  0  0  0  0
   46.6830   35.7470   43.7320 H   0  0  0  0  0  0  0  0  0  0  0  0
   44.2550   36.3610   44.0230 H   0  0  0  0  0  0  0  0  0  0  0  0
   42.6590   35.6430   42.2520 H   0  0  0  0  0  0  0  0  0  0  0  0
   43.1390   34.2860   40.0180 C   0  0  0  0  0  0  0  0  0  0  0  0
   42.7010   35.1770   39.2370 O   0  0  0  0  0  0  0  0  0  0  0  0
   42.6640   32.8670   39.8880 C   0  0  0  0  0  3  0  0  0  0  0  0
   43.4770   32.1320   38.8410 C   0  0  0  0  0  3  0  0  0  0  0  0
   43.9380   31.2090   39.2510 H   0  0  0  0  0  0  0  0  0  0  0  0
   42.6360   31.7130   37.6520 C   0  0  0  0  0  3  0  0  0  0  0  0
   43.3370   31.1150   37.0040 H   0  0  0  0  0  0  0  0  0  0  0  0
   41.5380   30.9420   37.9970 O   0  0  0  0  0  0  0  0  0  0  0  0
   40.9220   31.3630   39.1650 C   0  0  0  0  0  3  0  0  0  0  0  0
   39.8590   31.1190   39.2130 H   0  0  0  0  0  0  0  0  0  0  0  0
   41.2290   32.8290   39.3950 C   0  0  0  0  0  3  0  0  0  0  0  0
   40.5130   33.2630   40.0950 H   0  0  0  0  0  0  0  0  0  0  0  0
  1  7  1  1  0  0  0
  1 19  1  0  0  0  0
  2  9  1  0  0  0  0
  2  1  1  0  0  0  0
  3 10  1  0  0  0  0
  3  2  1  0  0  0  0
  4  3  1  0  0  0  0
  4  5  1  0  0  0  0
  5 14  1  0  0  0  0
  5  6  1  0  0  0  0
  6  1  1  0  0  0  0
  6 26  1  0  0  0  0
  6 16  1  1  0  0  0
  8  2  1  0  0  0  0
 11  3  1  0  0  0  0
 12  4  1  0  0  0  0
 13  4  1  0  0  0  0
 15  5  1  0  0  0  0
 17 22  1  0  0  0  0
 18 19  1  0  0  0  0
 18 17  2  0  0  0  0
 19 20  2  0  0  0  0
 20 21  1  0  0  0  0
 21 25  1  0  0  0  0
 22 21  2  0  0  0  0
 23 17  1  0  0  0  0
 24 18  1  0  0  0  0
 26 27  1  0  0  0  0
 27 28  2  0  0  0  0
 27 32  1  0  0  0  0
 28 33  1  0  0  0  0
 29 34  1  0  0  0  0
 29 28  1  0  0  0  0
 30 29  2  0  0  0  0
 31 30  1  0  0  0  0
 31 26  2  0  0  0  0
 35 30  1  0  0  0  0
 36 35  2  0  0  0  0
 37 35  1  0  0  0  0
 38 39  1  0  0  0  0
 38 37  1  0  0  0  0
 40 42  1  0  0  0  0
 40 38  1  0  0  0  0
 41 40  1  0  0  0  0
 42 43  1  0  0  0  0
 43 44  1  0  0  0  0
 43 45  1  0  0  0  0
 45 37  1  0  0  0  0
 45 46  1  0  0  0  0
M  END
>  <minimizedAffinity>
-5.26101542

>  <minimizedRMSD>
0.670014977

$$$$
