
 OpenBabel03252507463D

 38 40  0  0  0  0  0  0  0  0999 V2000
   46.9820   34.3780   41.0290 C   0  0  0  0  0  0  0  0  0  0  0  0
   46.4580   33.4680   40.6930 H   0  0  0  0  0  0  0  0  0  0  0  0
   47.1050   35.0290   40.1260 H   0  0  0  0  0  0  0  0  0  0  0  0
   48.3430   34.0830   41.5200 C   0  0  0  0  0  0  0  0  0  0  0  0
   48.8020   32.7820   41.3330 C   0  0  0  0  0  0  0  0  0  0  0  0
   50.0680   32.4330   41.7630 C   0  0  0  0  0  0  0  0  0  0  0  0
   50.8320   33.3880   42.3650 N   0  0  0  0  0  0  0  0  0  0  0  0
   50.3520   34.6440   42.5310 C   0  0  0  0  0  0  0  0  0  0  0  0
   49.1410   34.9580   42.1120 N   0  0  0  0  0  0  0  0  0  0  0  0
   50.4330   31.4100   41.6180 H   0  0  0  0  0  0  0  0  0  0  0  0
   51.0180   35.3520   43.0190 H   0  0  0  0  0  0  0  0  0  0  0  0
   47.7510   31.5590   40.5290 S   0  0  0  0  0  0  0  0  0  0  0  0
   46.6770   30.7220   41.7380 C   0  0  0  0  0  3  0  0  0  0  0  0
   45.2620   31.1670   41.4810 C   0  0  0  0  0  3  0  0  0  0  0  0
   45.2510   32.0830   40.8520 H   0  0  0  0  0  0  0  0  0  0  0  0
   44.6010   31.5310   42.7770 C   0  0  0  0  0  3  0  0  0  0  0  0
   45.0050   32.5050   43.1110 H   0  0  0  0  0  0  0  0  0  0  0  0
   44.8850   30.5030   43.6760 O   0  0  0  0  0  0  0  0  0  0  0  0
   46.1820   30.6090   44.1430 C   0  0  0  0  0  3  0  0  0  0  0  0
   46.5710   29.6090   44.4280 H   0  0  0  0  0  0  0  0  0  0  0  0
   47.1160   31.1820   43.1090 C   0  0  0  0  0  3  0  0  0  0  0  0
   48.1530   30.7750   43.2410 H   0  0  0  0  0  0  0  0  0  0  0  0
   46.1450   35.1050   42.0210 C   0  0  0  0  0  0  0  0  0  0  0  0
   46.3130   34.6480   43.0240 H   0  0  0  0  0  0  0  0  0  0  0  0
   46.4460   36.1580   42.0550 H   0  0  0  0  0  0  0  0  0  0  0  0
   44.6770   35.0110   41.7620 C   0  0  0  0  0  0  0  0  0  0  0  0
   43.7450   35.4180   42.7620 C   0  0  0  0  0  0  0  0  0  0  0  0
   42.1240   35.1070   41.9650 S   0  0  0  0  0  0  0  0  0  0  0  0
   42.9860   34.4740   40.3930 C   0  0  0  0  0  0  0  0  0  0  0  0
   44.0890   34.5800   40.6730 N   0  0  0  0  0  0  0  0  0  0  0  0
   43.9800   35.8080   43.7410 H   0  0  0  0  0  0  0  0  0  0  0  0
   42.2860   34.0310   39.2760 O   0  0  0  0  0  0  0  0  0  0  0  0
   40.3490   34.5260   37.5500 O   0  0  0  0  0  0  0  0  0  0  0  0
   41.4530   35.1930   38.3610 P   0  0  0  0  0  0  0  0  0  0  0  0
   40.7730   36.3100   39.4370 O   0  0  0  0  0  0  0  0  0  0  0  0
   40.1320   35.8730   40.0370 H   0  0  0  0  0  0  0  0  0  0  0  0
   42.5270   36.0170   37.3520 O   0  0  0  0  0  0  0  0  0  0  0  0
   42.1560   36.0140   36.4210 H   0  0  0  0  0  0  0  0  0  0  0  0
  1  4  1  0  0  0  0
  1 23  1  0  0  0  0
  2  1  1  0  0  0  0
  3  1  1  0  0  0  0
  4  9  1  0  0  0  0
  5  4  2  0  0  0  0
  5  6  1  0  0  0  0
  6  7  2  0  0  0  0
  7  8  1  0  0  0  0
  8 11  1  0  0  0  0
  9  8  2  0  0  0  0
 10  6  1  0  0  0  0
 12  5  1  0  0  0  0
 12 13  1  0  0  0  0
 13 21  1  0  0  0  0
 14 13  1  0  0  0  0
 14 16  1  0  0  0  0
 15 14  1  0  0  0  0
 16 17  1  0  0  0  0
 16 18  1  0  0  0  0
 18 19  1  0  0  0  0
 19 20  1  0  0  0  0
 21 22  1  0  0  0  0
 21 19  1  0  0  0  0
 23 25  1  0  0  0  0
 23 24  1  0  0  0  0
 26 23  1  0  0  0  0
 26 27  2  0  0  0  0
 27 31  1  0  0  0  0
 28 27  1  0  0  0  0
 29 30  2  0  0  0  0
 29 28  1  0  0  0  0
 30 26  1  0  0  0  0
 32 29  1  0  0  0  0
 33 34  2  0  0  0  0
 34 32  1  0  0  0  0
 34 35  1  0  0  0  0
 35 36  1  0  0  0  0
 37 34  1  0  0  0  0
 38 37  1  0  0  0  0
M  END
>  <minimizedAffinity>
-4.44338799

>  <minimizedRMSD>
0.727416277

$$$$
