
 OpenBabel03242520133D

 35 37  0  0  0  0  0  0  0  0999 V2000
   46.1610   32.5710   46.9980 C   0  0  0  0  0  0  0  0  0  0  0  0
   45.2150   32.5570   47.9640 C   0  0  0  0  0  0  0  0  0  0  0  0
   45.4320   31.7410   49.0720 C   0  0  0  0  0  0  0  0  0  0  0  0
   46.5680   30.9700   49.1880 C   0  0  0  0  0  0  0  0  0  0  0  0
   47.5150   31.0260   48.1540 C   0  0  0  0  0  0  0  0  0  0  0  0
   47.2800   31.7990   47.1330 N   0  0  0  0  0  0  0  0  0  0  0  0
   44.3360   33.1550   47.8700 H   0  0  0  0  0  0  0  0  0  0  0  0
   44.7080   31.6880   49.8800 H   0  0  0  0  0  0  0  0  0  0  0  0
   46.7700   30.3290   50.0290 H   0  0  0  0  0  0  0  0  0  0  0  0
   44.9550   35.0040   44.5580 C   0  0  0  0  0  0  0  0  0  0  0  0
   45.9020   34.8740   43.5260 C   0  0  0  0  0  0  0  0  0  0  0  0
   46.9650   33.9460   43.6630 C   0  0  0  0  0  0  0  0  0  0  0  0
   46.9670   33.2500   44.8110 N   0  0  0  0  0  0  0  0  0  0  0  0
   46.0700   33.3790   45.7780 C   0  0  0  0  0  0  0  0  0  0  0  0
   45.0700   34.2530   45.6480 N   0  0  0  0  0  0  0  0  0  0  0  0
   43.9090   35.9440   44.3800 N   0  0  0  0  0  0  0  0  0  0  0  0
   45.8260   35.4740   42.6340 H   0  0  0  0  0  0  0  0  0  0  0  0
   47.7060   33.8230   42.8910 H   0  0  0  0  0  0  0  0  0  0  0  0
   42.9420   35.5640   44.3160 H   0  0  0  0  0  0  0  0  0  0  0  0
   43.9620   36.9890   44.3000 H   0  0  0  0  0  0  0  0  0  0  0  0
   48.7410   30.2340   48.2160 C   0  0  0  0  0  0  0  0  0  0  0  0
   49.8110   30.6120   48.8830 C   0  0  0  0  0  0  0  0  0  0  0  0
   49.8560   31.8800   49.6280 C   0  0  0  0  0  0  0  0  0  0  0  0
   49.6750   32.7220   48.9020 H   0  0  0  0  0  0  0  0  0  0  0  0
   49.0040   31.9330   50.3320 H   0  0  0  0  0  0  0  0  0  0  0  0
   51.1720   32.1740   50.2910 C   0  0  0  0  0  0  0  0  0  0  0  0
   51.1830   31.6830   51.7440 C   0  0  0  0  0  0  0  0  0  0  0  0
   50.6650   32.4560   52.3600 H   0  0  0  0  0  0  0  0  0  0  0  0
   52.6320   31.7120   52.1880 C   0  0  0  0  0  0  0  0  0  0  0  0
   53.0200   30.6680   52.0260 H   0  0  0  0  0  0  0  0  0  0  0  0
   53.3740   32.5420   51.3870 O   0  0  0  0  0  0  0  0  0  0  0  0
   52.8000   33.7640   51.1040 C   0  0  0  0  0  0  0  0  0  0  0  0
   52.7240   34.3560   52.0310 H   0  0  0  0  0  0  0  0  0  0  0  0
   51.4640   33.6470   50.3780 C   0  0  0  0  0  0  0  0  0  0  0  0
   51.4510   34.1720   49.4210 H   0  0  0  0  0  0  0  0  0  0  0  0
  1  6  2  0  0  0  0
  1  2  1  0  0  0  0
  2  3  2  0  0  0  0
  3  4  1  0  0  0  0
  3  8  1  0  0  0  0
  4  9  1  0  0  0  0
  5 21  1  0  0  0  0
  5  4  2  0  0  0  0
  6  5  1  0  0  0  0
  7  2  1  0  0  0  0
 10 15  1  0  0  0  0
 11 12  1  0  0  0  0
 11 10  2  0  0  0  0
 12 13  2  0  0  0  0
 13 14  1  0  0  0  0
 14  1  1  0  0  0  0
 15 14  2  0  0  0  0
 16 10  1  0  0  0  0
 17 11  1  0  0  0  0
 18 12  1  0  0  0  0
 19 16  1  0  0  0  0
 20 16  1  0  0  0  0
 21 22  2  0  0  0  0
 22 23  1  0  0  0  0
 23 26  1  0  0  0  0
 23 25  1  0  0  0  0
 24 23  1  0  0  0  0
 26 34  1  0  0  0  0
 26 27  1  0  0  0  0
 27 29  1  0  0  0  0
 27 28  1  0  0  0  0
 30 29  1  0  0  0  0
 31 29  1  0  0  0  0
 32 31  1  0  0  0  0
 32 33  1  0  0  0  0
 34 32  1  0  0  0  0
 35 34  1  0  0  0  0
M  END
>  <minimizedAffinity>
-6.45994902

>  <minimizedRMSD>
1.34825349

$$$$
