
 OpenBabel03242519493D

 51 54  0  0  1  0  0  0  0  0999 V2000
   45.0440   29.1550   47.0550 C   0  0  0  0  0  0  0  0  0  0  0  0
   45.2420   28.8420   48.0400 H   0  0  0  0  0  0  0  0  0  0  0  0
   43.8260   29.3590   47.2590 H   0  0  0  0  0  0  0  0  0  0  0  0
   44.9050   28.1490   45.9050 C   0  0  0  0  0  0  0  0  0  0  0  0
   45.5360   28.4050   45.0640 H   0  0  0  0  0  0  0  0  0  0  0  0
   45.2280   27.1700   46.3140 H   0  0  0  0  0  0  0  0  0  0  0  0
   43.0340   29.0290   44.6290 C   0  0  0  0  0  0  0  0  0  0  0  0
   43.4970   28.0450   45.5150 C   0  0  0  0  0  0  0  0  0  0  0  0
   42.5340   27.1400   45.9010 C   0  0  0  0  0  0  0  0  0  0  0  0
   41.2330   27.1540   45.4910 C   0  0  0  0  0  0  0  0  0  0  0  0
   40.7990   28.1380   44.6160 C   0  0  0  0  0  0  0  0  0  0  0  0
   41.7290   29.1040   44.1730 C   0  0  0  0  0  0  0  0  0  0  0  0
   42.9270   26.3980   46.5820 H   0  0  0  0  0  0  0  0  0  0  0  0
   40.6050   26.3650   45.8910 H   0  0  0  0  0  0  0  0  0  0  0  0
   39.7660   28.1110   44.3190 H   0  0  0  0  0  0  0  0  0  0  0  0
   43.7750   30.0540   44.0790 O   0  0  0  0  0  0  0  0  0  0  0  0
   44.3880   30.5960   44.6610 H   0  0  0  0  0  0  0  0  0  0  0  0
   41.2000   29.9980   43.3360 O   0  0  0  0  0  0  0  0  0  0  0  0
   41.1330   30.2980   42.0270 C   0  0  0  0  0  3  0  0  0  0  0  0
   41.2440   31.7710   41.6840 C   0  0  0  0  0  3  0  0  0  0  0  0
   42.0470   32.2780   42.2080 H   0  0  0  0  0  0  0  0  0  0  0  0
   39.9610   32.5190   41.9460 C   0  0  0  0  0  3  0  0  0  0  0  0
   39.5820   32.3880   42.9670 H   0  0  0  0  0  0  0  0  0  0  0  0
   39.0470   32.0000   41.0020 O   0  0  0  0  0  0  0  0  0  0  0  0
   38.7040   30.7480   41.4850 C   0  0  0  0  0  3  0  0  0  0  0  0
   38.2330   30.8480   42.4670 H   0  0  0  0  0  0  0  0  0  0  0  0
   39.8360   29.7560   41.4530 C   0  0  0  0  0  3  0  0  0  0  0  0
   39.5090   28.8670   42.0310 H   0  0  0  0  0  0  0  0  0  0  0  0
   45.3470   30.3870   46.6370 O   0  0  0  0  0  0  0  0  0  0  0  0
   46.5840   32.4160   46.5040 C   0  0  2  0  0  0  0  0  0  0  0  0
   47.1040   32.5520   45.1440 C   0  0  1  0  0  0  0  0  0  0  0  0
   46.7320   31.2600   44.5150 O   0  0  0  0  0  0  0  0  0  0  0  0
   47.3410   30.4330   45.4510 C   0  0  0  0  0  0  0  0  0  0  0  0
   46.5490   30.9520   46.7820 C   0  0  2  0  0  0  0  0  0  0  0  0
   47.1550   32.9810   47.2660 H   0  0  0  0  0  0  0  0  0  0  0  0
   48.2200   32.5130   45.0930 H   0  0  0  0  0  0  0  0  0  0  0  0
   47.1040   29.3740   45.3440 H   0  0  0  0  0  0  0  0  0  0  0  0
   48.3870   30.6960   45.5920 H   0  0  0  0  0  0  0  0  0  0  0  0
   47.2350   30.5080   47.5230 H   0  0  0  0  0  0  0  0  0  0  0  0
   44.8380   35.2280   44.1450 C   0  0  0  0  0  0  0  0  0  0  0  0
   45.3980   35.7150   42.9640 C   0  0  0  0  0  0  0  0  0  0  0  0
   46.5730   35.1140   42.4840 C   0  0  0  0  0  0  0  0  0  0  0  0
   47.1180   34.0890   43.1770 N   0  0  0  0  0  0  0  0  0  0  0  0
   46.5590   33.6300   44.3210 C   0  0  0  0  0  0  0  0  0  0  0  0
   45.4190   34.1930   44.8130 N   0  0  0  0  0  0  0  0  0  0  0  0
   44.9040   36.5370   42.4670 H   0  0  0  0  0  0  0  0  0  0  0  0
   46.9990   35.4960   41.5710 H   0  0  0  0  0  0  0  0  0  0  0  0
   43.6720   35.7870   44.6680 O   0  0  0  0  0  0  0  0  0  0  0  0
   42.8760   35.9060   44.0610 H   0  0  0  0  0  0  0  0  0  0  0  0
   45.2000   32.8760   46.5100 O   0  0  0  0  0  0  0  0  0  0  0  0
   45.0270   33.0290   47.4920 H   0  0  0  0  0  0  0  0  0  0  0  0
  1  3  1  0  0  0  0
  1  2  1  0  0  0  0
  4  6  1  0  0  0  0
  4  1  1  0  0  0  0
  5  4  1  0  0  0  0
  7  8  1  0  0  0  0
  8  9  2  0  0  0  0
  8  4  1  0  0  0  0
  9 13  1  0  0  0  0
 10 14  1  0  0  0  0
 10  9  1  0  0  0  0
 11 10  2  0  0  0  0
 12 11  1  0  0  0  0
 12  7  2  0  0  0  0
 15 11  1  0  0  0  0
 16  7  1  0  0  0  0
 16 17  1  0  0  0  0
 18 12  1  0  0  0  0
 19 18  1  0  0  0  0
 20 22  1  0  0  0  0
 20 19  1  0  0  0  0
 20 21  1  0  0  0  0
 22 23  1  0  0  0  0
 24 25  1  0  0  0  0
 24 22  1  0  0  0  0
 25 26  1  0  0  0  0
 27 25  1  0  0  0  0
 27 19  1  0  0  0  0
 27 28  1  0  0  0  0
 29 34  1  0  0  0  0
 29  1  1  0  0  0  0
 30 50  1  0  0  0  0
 30 34  1  0  0  0  0
 30 35  1  1  0  0  0
 31 36  1  1  0  0  0
 31 30  1  0  0  0  0
 32 31  1  0  0  0  0
 32 33  1  0  0  0  0
 33 38  1  0  0  0  0
 33 34  1  0  0  0  0
 34 39  1  1  0  0  0
 37 33  1  0  0  0  0
 40 48  1  0  0  0  0
 40 45  1  0  0  0  0
 41 40  2  0  0  0  0
 42 41  1  0  0  0  0
 42 43  2  0  0  0  0
 43 44  1  0  0  0  0
 44 45  2  0  0  0  0
 44 31  1  0  0  0  0
 46 41  1  0  0  0  0
 47 42  1  0  0  0  0
 49 48  1  0  0  0  0
 50 51  1  0  0  0  0
M  END
>  <minimizedAffinity>
-5.98810673

>  <minimizedRMSD>
1.82973731

$$$$
