
 OpenBabel03252509163D

 26 28  0  0  0  0  0  0  0  0999 V2000
   46.0830   33.1260   46.1860 C   0  0  0  0  0  0  0  0  0  0  0  0
   45.5240   32.8840   47.4670 C   0  0  0  0  0  0  0  0  0  0  0  0
   46.0550   31.8860   48.2180 C   0  0  0  0  0  0  0  0  0  0  0  0
   47.1370   31.1290   47.7050 C   0  0  0  0  0  0  0  0  0  0  0  0
   47.4090   31.8790   46.0710 S   0  0  0  0  0  0  0  0  0  0  0  0
   44.6980   33.4790   47.8300 H   0  0  0  0  0  0  0  0  0  0  0  0
   45.7410   31.5940   49.1850 H   0  0  0  0  0  0  0  0  0  0  0  0
   47.9110   30.0580   48.1880 C   0  0  0  0  0  3  0  0  0  0  0  0
   48.8580   30.5330   49.2730 C   0  0  0  0  0  3  0  0  0  0  0  0
   48.2560   30.8860   50.1470 H   0  0  0  0  0  0  0  0  0  0  0  0
   49.8080   29.4080   49.6330 C   0  0  0  0  0  3  0  0  0  0  0  0
   49.7100   29.1970   50.7360 H   0  0  0  0  0  0  0  0  0  0  0  0
   49.4210   28.2550   48.9960 O   0  0  0  0  0  0  0  0  0  0  0  0
   49.5150   28.3010   47.6240 C   0  0  0  0  0  3  0  0  0  0  0  0
   50.5610   28.2050   47.2480 H   0  0  0  0  0  0  0  0  0  0  0  0
   48.8200   29.5270   47.0830 C   0  0  0  0  0  3  0  0  0  0  0  0
   48.2780   29.3350   46.1380 H   0  0  0  0  0  0  0  0  0  0  0  0
   44.3800   36.0000   44.5850 C   0  0  0  0  0  0  0  0  0  0  0  0
   44.9780   35.9400   43.3000 C   0  0  0  0  0  0  0  0  0  0  0  0
   45.9260   34.9320   43.0400 C   0  0  0  0  0  0  0  0  0  0  0  0
   46.2110   34.0670   44.0570 N   0  0  0  0  0  0  0  0  0  0  0  0
   45.6140   34.1640   45.2700 C   0  0  0  0  0  0  0  0  0  0  0  0
   44.6980   35.1310   45.5360 N   0  0  0  0  0  0  0  0  0  0  0  0
   43.6520   36.7770   44.7840 H   0  0  0  0  0  0  0  0  0  0  0  0
   44.7350   36.6340   42.5170 H   0  0  0  0  0  0  0  0  0  0  0  0
   46.4190   34.8250   42.0910 H   0  0  0  0  0  0  0  0  0  0  0  0
  1  2  2  0  0  0  0
  2  6  1  0  0  0  0
  2  3  1  0  0  0  0
  3  7  1  0  0  0  0
  4  8  1  0  0  0  0
  4  3  2  0  0  0  0
  5  1  1  0  0  0  0
  5  4  1  0  0  0  0
  8  9  1  0  0  0  0
  9 11  1  0  0  0  0
  9 10  1  0  0  0  0
 11 12  1  0  0  0  0
 13 11  1  0  0  0  0
 14 13  1  0  0  0  0
 15 14  1  0  0  0  0
 16 14  1  0  0  0  0
 16  8  1  0  0  0  0
 17 16  1  0  0  0  0
 18 24  1  0  0  0  0
 18 23  1  0  0  0  0
 19 18  2  0  0  0  0
 20 19  1  0  0  0  0
 20 21  2  0  0  0  0
 21 22  1  0  0  0  0
 22 23  2  0  0  0  0
 22  1  1  0  0  0  0
 25 19  1  0  0  0  0
 26 20  1  0  0  0  0
M  END
>  <minimizedAffinity>
-4.59190369

>  <minimizedRMSD>
0.980233312

$$$$
