
 OpenBabel03252506573D

 39 43  0  0  0  0  0  0  0  0999 V2000
   47.3410   31.3370   45.2080 C   0  0  0  0  0  0  0  0  0  0  0  0
   46.9190   32.6500   45.1110 C   0  0  0  0  0  0  0  0  0  0  0  0
   46.2530   33.3100   46.1380 C   0  0  0  0  0  0  0  0  0  0  0  0
   45.9850   32.6490   47.3280 C   0  0  0  0  0  0  0  0  0  0  0  0
   45.3830   32.9570   48.5020 N   0  0  0  0  0  0  0  0  0  0  0  0
   45.4290   31.8650   49.3090 C   0  0  0  0  0  0  0  0  0  0  0  0
   46.0640   30.8860   48.6220 N   0  0  0  0  0  0  0  0  0  0  0  0
   46.4180   31.3360   47.4010 C   0  0  0  0  0  0  0  0  0  0  0  0
   47.0770   30.6600   46.4020 C   0  0  0  0  0  0  0  0  0  0  0  0
   47.8570   30.8390   44.4000 H   0  0  0  0  0  0  0  0  0  0  0  0
   45.9200   34.3350   46.0670 H   0  0  0  0  0  0  0  0  0  0  0  0
   44.9600   33.8990   48.7170 H   0  0  0  0  0  0  0  0  0  0  0  0
   45.0320   31.7860   50.3170 H   0  0  0  0  0  0  0  0  0  0  0  0
   46.6190   35.0990   42.3780 C   0  0  0  0  0  0  0  0  0  0  0  0
   47.6910   34.7680   41.5560 C   0  0  0  0  0  0  0  0  0  0  0  0
   48.5200   33.6980   41.9420 C   0  0  0  0  0  0  0  0  0  0  0  0
   48.2330   33.0390   43.1040 N   0  0  0  0  0  0  0  0  0  0  0  0
   47.1730   33.3940   43.8800 C   0  0  0  0  0  0  0  0  0  0  0  0
   46.3780   34.4110   43.5240 N   0  0  0  0  0  0  0  0  0  0  0  0
   45.9990   35.9230   42.0610 H   0  0  0  0  0  0  0  0  0  0  0  0
   47.8590   35.3340   40.6500 H   0  0  0  0  0  0  0  0  0  0  0  0
   49.3530   33.4210   41.3290 H   0  0  0  0  0  0  0  0  0  0  0  0
   47.4890   29.2650   46.5940 C   0  0  0  0  0  0  0  0  0  0  0  0
   48.7930   28.8130   46.3910 C   0  0  0  0  0  0  0  0  0  0  0  0
   48.7000   27.4460   46.6900 C   0  0  0  0  0  0  0  0  0  0  0  0
   47.3830   27.1620   47.0470 C   0  0  0  0  0  0  0  0  0  0  0  0
   46.7060   28.3000   46.9670 O   0  0  0  0  0  0  0  0  0  0  0  0
   49.6860   29.3250   46.0840 H   0  0  0  0  0  0  0  0  0  0  0  0
   49.4880   26.6930   46.6660 H   0  0  0  0  0  0  0  0  0  0  0  0
   46.7720   25.8840   47.4460 C   0  0  0  0  0  0  0  0  0  0  0  0
   47.3550   25.3410   48.7090 C   0  0  0  0  0  0  0  0  0  0  0  0
   47.6880   26.1290   49.4140 H   0  0  0  0  0  0  0  0  0  0  0  0
   46.2750   24.4630   49.3500 C   0  0  0  0  0  0  0  0  0  0  0  0
   45.4650   25.0850   49.7910 H   0  0  0  0  0  0  0  0  0  0  0  0
   45.6920   23.7660   48.2880 O   0  0  0  0  0  0  0  0  0  0  0  0
   44.7350   24.5980   47.6710 C   0  0  0  0  0  0  0  0  0  0  0  0
   44.5330   24.2220   46.6430 H   0  0  0  0  0  0  0  0  0  0  0  0
   45.2690   26.0130   47.6550 C   0  0  0  0  0  0  0  0  0  0  0  0
   44.8690   26.4890   46.7190 H   0  0  0  0  0  0  0  0  0  0  0  0
  1  9  1  0  0  0  0
  2  1  2  0  0  0  0
  2  3  1  0  0  0  0
  3  4  2  0  0  0  0
  4  8  1  0  0  0  0
  4  5  1  0  0  0  0
  5 12  1  0  0  0  0
  5  6  1  0  0  0  0
  6 13  1  0  0  0  0
  7  6  2  0  0  0  0
  8  7  1  0  0  0  0
  9 23  1  0  0  0  0
  9  8  2  0  0  0  0
 10  1  1  0  0  0  0
 11  3  1  0  0  0  0
 14 19  1  0  0  0  0
 15 16  1  0  0  0  0
 15 14  2  0  0  0  0
 16 17  2  0  0  0  0
 17 18  1  0  0  0  0
 18  2  1  0  0  0  0
 19 18  2  0  0  0  0
 20 14  1  0  0  0  0
 21 15  1  0  0  0  0
 22 16  1  0  0  0  0
 23 27  1  0  0  0  0
 24 23  2  0  0  0  0
 24 25  1  0  0  0  0
 25 26  2  0  0  0  0
 26 30  1  0  0  0  0
 27 26  1  0  0  0  0
 28 24  1  0  0  0  0
 29 25  1  0  0  0  0
 30 38  1  0  0  0  0
 30 31  1  0  0  0  0
 31 33  1  0  0  0  0
 31 32  1  0  0  0  0
 33 34  1  0  0  0  0
 35 33  1  0  0  0  0
 36 35  1  0  0  0  0
 37 36  1  0  0  0  0
 38 36  1  0  0  0  0
 39 38  1  0  0  0  0
M  END
>  <minimizedAffinity>
-5.88110304

>  <minimizedRMSD>
1.13336468

$$$$
