
 OpenBabel03252509043D

 49 51  0  0  1  0  0  0  0  0999 V2000
   46.7230   34.3740   43.6470 N   0  0  0  0  0  0  0  0  0  0  0  0
   46.3060   35.1640   42.5540 C   0  0  0  0  0  0  0  0  0  0  0  0
   44.8040   35.2990   42.3950 C   0  0  0  0  0  0  0  0  0  0  0  0
   44.0480   35.2980   43.6940 C   0  0  0  0  0  0  0  0  0  0  0  0
   44.9770   35.2620   44.8860 C   0  0  0  0  0  0  0  0  0  0  0  0
   45.8450   33.9690   44.6320 C   0  0  2  0  0  0  0  0  0  0  0  0
   46.6870   34.8860   41.5650 H   0  0  0  0  0  0  0  0  0  0  0  0
   46.6880   36.2070   42.7320 H   0  0  0  0  0  0  0  0  0  0  0  0
   44.4600   34.5070   41.7020 H   0  0  0  0  0  0  0  0  0  0  0  0
   44.5920   36.2720   41.8950 H   0  0  0  0  0  0  0  0  0  0  0  0
   43.3840   36.1890   43.8010 H   0  0  0  0  0  0  0  0  0  0  0  0
   43.3930   34.4210   43.7660 H   0  0  0  0  0  0  0  0  0  0  0  0
   44.3890   35.0630   45.7870 H   0  0  0  0  0  0  0  0  0  0  0  0
   45.6500   36.1400   44.9520 H   0  0  0  0  0  0  0  0  0  0  0  0
   45.0860   33.2010   44.3800 H   0  0  0  0  0  0  0  0  0  0  0  0
   47.8610   33.5420   43.3650 C   0  0  0  0  0  0  0  0  0  0  0  0
   48.2880   33.2000   44.3330 H   0  0  0  0  0  0  0  0  0  0  0  0
   48.5870   34.1600   42.8060 H   0  0  0  0  0  0  0  0  0  0  0  0
   47.4260   32.3570   42.5900 C   0  0  0  0  0  0  0  0  0  0  0  0
   47.4660   31.4010   43.1430 H   0  0  0  0  0  0  0  0  0  0  0  0
   46.3540   32.4530   42.2660 H   0  0  0  0  0  0  0  0  0  0  0  0
   50.2260   31.6700   40.1840 C   0  0  0  0  0  0  0  0  0  0  0  0
   49.4730   31.7720   41.3680 C   0  0  0  0  0  0  0  0  0  0  0  0
   48.1990   32.2600   41.3280 C   0  0  0  0  0  0  0  0  0  0  0  0
   47.7170   32.6270   40.1370 N   0  0  0  0  0  0  0  0  0  0  0  0
   48.4150   32.5380   39.0010 C   0  0  0  0  0  0  0  0  0  0  0  0
   49.6730   32.0620   39.0020 N   0  0  0  0  0  0  0  0  0  0  0  0
   51.2480   31.2810   40.2040 H   0  0  0  0  0  0  0  0  0  0  0  0
   49.9530   31.4480   42.2890 H   0  0  0  0  0  0  0  0  0  0  0  0
   47.8710   32.8800   38.1160 H   0  0  0  0  0  0  0  0  0  0  0  0
   46.4640   33.7950   45.8500 O   0  0  0  0  0  0  0  0  0  0  0  0
   45.7640   31.2720   45.4400 O   0  0  0  0  0  0  0  0  0  0  0  0
   46.1820   32.2700   46.5180 P   0  0  2  0  0  0  0  0  0  0  0  0
   44.8360   32.4510   47.5400 O   0  0  0  0  0  0  0  0  0  0  0  0
   44.9830   32.0710   48.4390 H   0  0  0  0  0  0  0  0  0  0  0  0
   47.4740   31.7300   47.4320 O   0  0  0  0  0  0  0  0  0  0  0  0
   47.5950   30.3540   47.2260 C   0  0  0  0  0  0  0  0  0  0  0  0
   46.5900   29.9010   47.4320 H   0  0  0  0  0  0  0  0  0  0  0  0
   47.9360   30.1140   46.2180 H   0  0  0  0  0  0  0  0  0  0  0  0
   48.5460   29.8530   48.2930 C   0  0  0  0  0  3  0  0  0  0  0  0
   48.8120   30.8770   49.3720 C   0  0  0  0  0  3  0  0  0  0  0  0
   49.4150   31.7070   48.9480 H   0  0  0  0  0  0  0  0  0  0  0  0
   49.7110   30.1660   50.3860 C   0  0  0  0  0  3  0  0  0  0  0  0
   50.0060   30.8380   51.2170 H   0  0  0  0  0  0  0  0  0  0  0  0
   50.8720   29.7560   49.7700 O   0  0  0  0  0  0  0  0  0  0  0  0
   50.7060   28.8410   48.7550 C   0  0  0  0  0  3  0  0  0  0  0  0
   51.7130   28.6140   48.3580 H   0  0  0  0  0  0  0  0  0  0  0  0
   49.8460   29.4370   47.6470 C   0  0  0  0  0  3  0  0  0  0  0  0
   50.3390   30.3490   47.2670 H   0  0  0  0  0  0  0  0  0  0  0  0
  1  6  1  0  0  0  0
  2  8  1  0  0  0  0
  2  1  1  0  0  0  0
  3  2  1  0  0  0  0
  3  4  1  0  0  0  0
  4 12  1  0  0  0  0
  4 11  1  0  0  0  0
  4  5  1  0  0  0  0
  5 14  1  0  0  0  0
  5 13  1  0  0  0  0
  6 15  1  6  0  0  0
  6  5  1  0  0  0  0
  6 31  1  0  0  0  0
  7  2  1  0  0  0  0
  9  3  1  0  0  0  0
 10  3  1  0  0  0  0
 16  1  1  0  0  0  0
 16 17  1  0  0  0  0
 18 16  1  0  0  0  0
 19 20  1  0  0  0  0
 19 16  1  0  0  0  0
 21 19  1  0  0  0  0
 22 28  1  0  0  0  0
 22 23  1  0  0  0  0
 23 29  1  0  0  0  0
 24 23  2  0  0  0  0
 24 19  1  0  0  0  0
 25 24  1  0  0  0  0
 26 27  1  0  0  0  0
 26 25  2  0  0  0  0
 27 22  2  0  0  0  0
 30 26  1  0  0  0  0
 31 33  1  0  0  0  0
 33 32  2  6  0  0  0
 33 36  1  0  0  0  0
 33 34  1  0  0  0  0
 34 35  1  0  0  0  0
 37 36  1  0  0  0  0
 37 38  1  0  0  0  0
 37 40  1  0  0  0  0
 39 37  1  0  0  0  0
 40 41  1  0  0  0  0
 41 43  1  0  0  0  0
 42 41  1  0  0  0  0
 43 44  1  0  0  0  0
 45 43  1  0  0  0  0
 46 45  1  0  0  0  0
 47 46  1  0  0  0  0
 48 40  1  0  0  0  0
 48 46  1  0  0  0  0
 49 48  1  0  0  0  0
M  END
>  <minimizedAffinity>
-4.79281235

>  <minimizedRMSD>
2.18170547

$$$$
