
 OpenBabel03252505583D

 37 39  0  0  0  0  0  0  0  0999 V2000
   44.8260   35.1370   44.9340 C   0  0  0  0  0  0  0  0  0  0  0  0
   45.7790   34.7050   43.9880 C   0  0  0  0  0  0  0  0  0  0  0  0
   46.6410   33.6660   44.3700 C   0  0  0  0  0  0  0  0  0  0  0  0
   46.5010   33.1550   45.6020 N   0  0  0  0  0  0  0  0  0  0  0  0
   45.5850   33.5900   46.4760 C   0  0  0  0  0  0  0  0  0  0  0  0
   44.7490   34.5750   46.1510 N   0  0  0  0  0  0  0  0  0  0  0  0
   44.1450   35.9450   44.6590 H   0  0  0  0  0  0  0  0  0  0  0  0
   47.6530   33.1610   43.4710 C   0  0  0  0  0  0  0  0  0  0  0  0
   48.4360   34.3040   42.8770 C   0  0  0  0  0  0  0  0  0  0  0  0
   49.0270   34.8760   43.6070 H   0  0  0  0  0  0  0  0  0  0  0  0
   49.2770   33.8790   41.6910 C   0  0  0  0  0  0  0  0  0  0  0  0
   48.7980   34.1760   40.7220 H   0  0  0  0  0  0  0  0  0  0  0  0
   49.2860   32.4820   41.6700 O   0  0  0  0  0  0  0  0  0  0  0  0
   47.9920   32.0600   41.2840 C   0  0  0  0  0  0  0  0  0  0  0  0
   48.0210   30.9410   41.4310 H   0  0  0  0  0  0  0  0  0  0  0  0
   46.9290   32.6500   42.1870 C   0  0  0  0  0  0  0  0  0  0  0  0
   46.2280   31.8540   42.4490 H   0  0  0  0  0  0  0  0  0  0  0  0
   45.8120   35.3360   42.6550 C   0  0  0  0  0  0  0  0  0  0  0  0
   44.8440   36.3070   42.6940 F   0  0  0  0  0  0  0  0  0  0  0  0
   45.3730   34.3600   41.7400 F   0  0  0  0  0  0  0  0  0  0  0  0
   46.9980   35.8080   42.3450 F   0  0  0  0  0  0  0  0  0  0  0  0
   45.4530   33.0530   47.7500 O   0  0  0  0  0  0  0  0  0  0  0  0
   44.9090   31.7870   47.9630 C   0  0  0  0  0  0  0  0  0  0  0  0
   44.4590   31.7040   48.9720 H   0  0  0  0  0  0  0  0  0  0  0  0
   44.1060   31.5640   47.2180 H   0  0  0  0  0  0  0  0  0  0  0  0
   45.9980   30.8030   47.8820 C   0  0  0  0  0  0  0  0  0  0  0  0
   46.0270   29.6010   47.2120 C   0  0  0  0  0  0  0  0  0  0  0  0
   47.1780   28.8680   47.3000 C   0  0  0  0  0  0  0  0  0  0  0  0
   48.2320   29.2710   47.9930 N   0  0  0  0  0  0  0  0  0  0  0  0
   48.1860   30.4390   48.6360 C   0  0  0  0  0  0  0  0  0  0  0  0
   47.0740   31.2250   48.5940 N   0  0  0  0  0  0  0  0  0  0  0  0
   45.1370   29.3710   46.6900 H   0  0  0  0  0  0  0  0  0  0  0  0
   47.1840   27.9150   46.7620 H   0  0  0  0  0  0  0  0  0  0  0  0
   49.4220   30.8150   49.3910 C   0  0  0  0  0  0  0  0  0  0  0  0
   49.5680   32.1730   49.4660 F   0  0  0  0  0  0  0  0  0  0  0  0
   50.5410   30.2460   48.7630 F   0  0  0  0  0  0  0  0  0  0  0  0
   49.3980   30.3330   50.6840 F   0  0  0  0  0  0  0  0  0  0  0  0
  1  6  1  0  0  0  0
  2  3  1  0  0  0  0
  2  1  2  0  0  0  0
  3  4  2  0  0  0  0
  4  5  1  0  0  0  0
  5 22  1  0  0  0  0
  6  5  2  0  0  0  0
  7  1  1  0  0  0  0
  8  3  1  0  0  0  0
  9  8  1  0  0  0  0
  9 10  1  0  0  0  0
 11  9  1  0  0  0  0
 12 11  1  0  0  0  0
 13 11  1  0  0  0  0
 14 15  1  0  0  0  0
 14 13  1  0  0  0  0
 14 16  1  0  0  0  0
 16 17  1  0  0  0  0
 16  8  1  0  0  0  0
 18 19  1  0  0  0  0
 18  2  1  0  0  0  0
 20 18  1  0  0  0  0
 21 18  1  0  0  0  0
 22 23  1  0  0  0  0
 23 24  1  0  0  0  0
 25 23  1  0  0  0  0
 26 23  1  0  0  0  0
 26 31  1  0  0  0  0
 27 28  1  0  0  0  0
 27 26  2  0  0  0  0
 28 29  2  0  0  0  0
 29 30  1  0  0  0  0
 30 34  1  0  0  0  0
 31 30  2  0  0  0  0
 32 27  1  0  0  0  0
 33 28  1  0  0  0  0
 34 35  1  0  0  0  0
 34 37  1  0  0  0  0
 36 34  1  0  0  0  0
M  END
>  <minimizedAffinity>
-6.17931414

>  <minimizedRMSD>
0.661209702

$$$$
