
 OpenBabel03252509053D

 49 51  0  0  1  0  0  0  0  0999 V2000
   47.0930   34.3360   43.2720 N   0  0  0  0  0  0  0  0  0  0  0  0
   46.7260   34.9040   42.0340 C   0  0  0  0  0  0  0  0  0  0  0  0
   45.2710   34.7240   41.6500 C   0  0  0  0  0  0  0  0  0  0  0  0
   44.3250   34.7180   42.8190 C   0  0  0  0  0  0  0  0  0  0  0  0
   45.0400   34.9950   44.1220 C   0  0  0  0  0  0  0  0  0  0  0  0
   46.1520   33.8770   44.1720 C   0  0  2  0  0  0  0  0  0  0  0  0
   47.3070   34.6000   41.1550 H   0  0  0  0  0  0  0  0  0  0  0  0
   46.8840   36.0140   42.1170 H   0  0  0  0  0  0  0  0  0  0  0  0
   45.1900   33.8090   41.0320 H   0  0  0  0  0  0  0  0  0  0  0  0
   44.9740   35.5760   40.9960 H   0  0  0  0  0  0  0  0  0  0  0  0
   43.5060   35.4680   42.7080 H   0  0  0  0  0  0  0  0  0  0  0  0
   43.8330   33.7430   42.9200 H   0  0  0  0  0  0  0  0  0  0  0  0
   44.3580   34.7840   44.9510 H   0  0  0  0  0  0  0  0  0  0  0  0
   45.5270   35.9900   44.1590 H   0  0  0  0  0  0  0  0  0  0  0  0
   45.5920   32.9530   43.9260 H   0  0  0  0  0  0  0  0  0  0  0  0
   48.3910   33.7160   43.2680 C   0  0  0  0  0  0  0  0  0  0  0  0
   48.7650   33.6900   44.3150 H   0  0  0  0  0  0  0  0  0  0  0  0
   49.0460   34.3340   42.6290 H   0  0  0  0  0  0  0  0  0  0  0  0
   48.2740   32.3270   42.7680 C   0  0  0  0  0  0  0  0  0  0  0  0
   48.3350   31.5470   43.5480 H   0  0  0  0  0  0  0  0  0  0  0  0
   47.2800   32.1560   42.2720 H   0  0  0  0  0  0  0  0  0  0  0  0
   51.5770   31.8720   41.0400 C   0  0  0  0  0  0  0  0  0  0  0  0
   50.6050   32.1040   42.0310 C   0  0  0  0  0  0  0  0  0  0  0  0
   49.2780   32.0810   41.7060 C   0  0  0  0  0  0  0  0  0  0  0  0
   48.9610   31.8340   40.4320 N   0  0  0  0  0  0  0  0  0  0  0  0
   49.8680   31.6110   39.4760 C   0  0  0  0  0  0  0  0  0  0  0  0
   51.1830   31.6260   39.7600 N   0  0  0  0  0  0  0  0  0  0  0  0
   52.6420   31.8880   41.2890 H   0  0  0  0  0  0  0  0  0  0  0  0
   50.9620   32.2960   43.0400 H   0  0  0  0  0  0  0  0  0  0  0  0
   49.4380   31.4250   38.4880 H   0  0  0  0  0  0  0  0  0  0  0  0
   46.5860   33.9620   45.4760 O   0  0  0  0  0  0  0  0  0  0  0  0
   45.8120   31.4270   45.4660 O   0  0  0  0  0  0  0  0  0  0  0  0
   46.2310   32.5780   46.3780 P   0  0  2  0  0  0  0  0  0  0  0  0
   44.8610   32.9670   47.3060 O   0  0  0  0  0  0  0  0  0  0  0  0
   44.9670   32.7380   48.2600 H   0  0  0  0  0  0  0  0  0  0  0  0
   47.4750   32.1630   47.4150 O   0  0  0  0  0  0  0  0  0  0  0  0
   47.1000   30.9930   48.0800 C   0  0  0  0  0  0  0  0  0  0  0  0
   46.2140   31.2460   48.7180 H   0  0  0  0  0  0  0  0  0  0  0  0
   46.8690   30.1800   47.3900 H   0  0  0  0  0  0  0  0  0  0  0  0
   48.2470   30.6530   49.0090 C   0  0  0  0  0  3  0  0  0  0  0  0
   49.1730   31.8220   49.2510 C   0  0  0  0  0  3  0  0  0  0  0  0
   49.7350   32.0430   48.3220 H   0  0  0  0  0  0  0  0  0  0  0  0
   50.2000   31.3160   50.2670 C   0  0  0  0  0  3  0  0  0  0  0  0
   50.9640   32.0860   50.4990 H   0  0  0  0  0  0  0  0  0  0  0  0
   50.8690   30.2310   49.7480 O   0  0  0  0  0  0  0  0  0  0  0  0
   50.0850   29.1330   49.4730 C   0  0  0  0  0  3  0  0  0  0  0  0
   50.7530   28.3540   49.0630 H   0  0  0  0  0  0  0  0  0  0  0  0
   49.0250   29.4920   48.4390 C   0  0  0  0  0  3  0  0  0  0  0  0
   49.5300   29.8430   47.5210 H   0  0  0  0  0  0  0  0  0  0  0  0
  1  6  1  0  0  0  0
  2  8  1  0  0  0  0
  2  1  1  0  0  0  0
  3  2  1  0  0  0  0
  3  4  1  0  0  0  0
  4 12  1  0  0  0  0
  4  5  1  0  0  0  0
  5 14  1  0  0  0  0
  5  6  1  0  0  0  0
  5 13  1  0  0  0  0
  6 15  1  6  0  0  0
  6 31  1  0  0  0  0
  7  2  1  0  0  0  0
  9  3  1  0  0  0  0
 10  3  1  0  0  0  0
 11  4  1  0  0  0  0
 16  1  1  0  0  0  0
 16 17  1  0  0  0  0
 18 16  1  0  0  0  0
 19 16  1  0  0  0  0
 19 20  1  0  0  0  0
 21 19  1  0  0  0  0
 22 28  1  0  0  0  0
 22 23  1  0  0  0  0
 23 29  1  0  0  0  0
 24 23  2  0  0  0  0
 24 19  1  0  0  0  0
 25 24  1  0  0  0  0
 26 27  1  0  0  0  0
 26 25  2  0  0  0  0
 27 22  2  0  0  0  0
 30 26  1  0  0  0  0
 31 33  1  0  0  0  0
 33 32  2  6  0  0  0
 33 34  1  0  0  0  0
 33 36  1  0  0  0  0
 34 35  1  0  0  0  0
 36 37  1  0  0  0  0
 37 38  1  0  0  0  0
 37 40  1  0  0  0  0
 39 37  1  0  0  0  0
 40 41  1  0  0  0  0
 41 43  1  0  0  0  0
 42 41  1  0  0  0  0
 43 44  1  0  0  0  0
 45 43  1  0  0  0  0
 46 45  1  0  0  0  0
 47 46  1  0  0  0  0
 48 40  1  0  0  0  0
 48 46  1  0  0  0  0
 49 48  1  0  0  0  0
M  END
>  <minimizedAffinity>
-4.95132065

>  <minimizedRMSD>
2.86802173

$$$$
