
 OpenBabel03252503033D

 35 36  0  0  0  0  0  0  0  0999 V2000
   41.3840   32.4360   41.9100 C   0  0  0  0  0  0  0  0  0  0  0  0
   42.2860   32.7790   40.9210 C   0  0  0  0  0  0  0  0  0  0  0  0
   41.9980   32.5590   39.5780 C   0  0  0  0  0  0  0  0  0  0  0  0
   40.8010   31.9980   39.2830 N   0  0  0  0  0  0  0  0  0  0  0  0
   39.9340   31.6720   40.2700 C   0  0  0  0  0  0  0  0  0  0  0  0
   40.1990   31.8780   41.5700 N   0  0  0  0  0  0  0  0  0  0  0  0
   41.5890   32.5980   42.9580 H   0  0  0  0  0  0  0  0  0  0  0  0
   42.7190   32.8370   38.8480 H   0  0  0  0  0  0  0  0  0  0  0  0
   43.8690   33.5220   41.3540 S   0  0  0  0  0  0  0  0  0  0  0  0
   43.6720   35.2870   41.5430 C   0  0  0  0  0  0  0  0  0  0  0  0
   44.5490   35.8700   41.1890 H   0  0  0  0  0  0  0  0  0  0  0  0
   42.8140   35.6490   40.9350 H   0  0  0  0  0  0  0  0  0  0  0  0
   43.3760   35.5590   42.9430 N   0  0  0  0  0  0  0  0  0  0  0  0
   42.9490   34.7390   43.4210 H   0  0  0  0  0  0  0  0  0  0  0  0
   44.8010   35.9210   43.8360 S   0  0  0  0  0  0  0  0  0  0  0  0
   46.0460   35.5720   43.1010 O   0  0  0  0  0  0  0  0  0  0  0  0
   46.1060   35.1130   42.2160 H   0  0  0  0  0  0  0  0  0  0  0  0
   44.7770   37.4210   44.0870 O   0  0  0  0  0  0  0  0  0  0  0  0
   44.1260   37.8570   44.6950 H   0  0  0  0  0  0  0  0  0  0  0  0
   44.7270   35.1660   45.3200 O   0  0  0  0  0  0  0  0  0  0  0  0
   45.5750   34.0730   45.3910 C   0  0  0  0  0  0  0  0  0  0  0  0
   45.0570   33.3310   46.0330 H   0  0  0  0  0  0  0  0  0  0  0  0
   45.8430   33.6900   44.4060 H   0  0  0  0  0  0  0  0  0  0  0  0
   46.5080   34.4410   45.8920 H   0  0  0  0  0  0  0  0  0  0  0  0
   38.6950   31.0950   40.0010 O   0  0  0  0  0  0  0  0  0  0  0  0
   38.5550   29.7140   39.6990 C   0  0  0  0  0  0  0  0  0  0  0  0
   39.7260   28.9490   40.1990 C   0  0  0  0  0  0  0  0  0  0  0  0
   39.9370   28.1570   39.4230 H   0  0  0  0  0  0  0  0  0  0  0  0
   39.5710   28.2720   41.5110 C   0  0  0  0  0  0  0  0  0  0  0  0
   40.0660   27.2570   41.4850 H   0  0  0  0  0  0  0  0  0  0  0  0
   38.2980   28.0600   41.9570 O   0  0  0  0  0  0  0  0  0  0  0  0
   37.4290   29.1040   41.7860 C   0  0  0  0  0  0  0  0  0  0  0  0
   36.4340   28.7400   42.1630 H   0  0  0  0  0  0  0  0  0  0  0  0
   37.2370   29.2910   40.2980 C   0  0  0  0  0  0  0  0  0  0  0  0
   36.4660   30.0760   40.1600 H   0  0  0  0  0  0  0  0  0  0  0  0
  1  7  1  0  0  0  0
  2  9  1  0  0  0  0
  2  1  2  0  0  0  0
  3  2  1  0  0  0  0
  4  3  2  0  0  0  0
  4  5  1  0  0  0  0
  5  6  2  0  0  0  0
  6  1  1  0  0  0  0
  8  3  1  0  0  0  0
  9 10  1  0  0  0  0
 10 13  1  0  0  0  0
 11 10  1  0  0  0  0
 12 10  1  0  0  0  0
 13 14  1  0  0  0  0
 13 15  1  0  0  0  0
 15 18  1  0  0  0  0
 15 20  1  0  0  0  0
 16 15  1  0  0  0  0
 17 16  1  0  0  0  0
 18 19  1  0  0  0  0
 20 21  1  0  0  0  0
 21 24  1  0  0  0  0
 21 22  1  0  0  0  0
 23 21  1  0  0  0  0
 25  5  1  0  0  0  0
 26 25  1  0  0  0  0
 26 27  1  0  0  0  0
 26 34  1  0  0  0  0
 27 29  1  0  0  0  0
 28 27  1  0  0  0  0
 29 31  1  0  0  0  0
 30 29  1  0  0  0  0
 32 31  1  0  0  0  0
 32 33  1  0  0  0  0
 34 32  1  0  0  0  0
 35 34  1  0  0  0  0
M  END
>  <minimizedAffinity>
-4.303895

>  <minimizedRMSD>
3.73260403

$$$$
