
 OpenBabel03252508293D

 40 43  0  0  1  0  0  0  0  0999 V2000
   41.0850   33.2220   39.5980 N   0  0  0  0  0  0  0  0  0  0  0  0
   41.1760   33.0280   41.0480 C   0  0  2  0  0  0  0  0  0  0  0  0
   39.9890   33.5510   41.7710 C   0  0  0  0  0  0  0  0  0  0  0  0
   38.8960   33.9010   40.8810 N   0  0  0  0  0  0  0  0  0  0  0  0
   39.2630   34.7240   39.7770 C   0  0  0  0  0  0  0  0  0  0  0  0
   40.7250   34.6450   39.4500 C   0  0  2  0  0  0  0  0  0  0  0  0
   42.0110   33.0010   39.2180 H   0  0  0  0  0  0  0  0  0  0  0  0
   41.3190   31.9450   41.2920 H   0  0  0  0  0  0  0  0  0  0  0  0
   39.5480   32.8060   42.4850 H   0  0  0  0  0  0  0  0  0  0  0  0
   40.1120   34.5020   42.3170 H   0  0  0  0  0  0  0  0  0  0  0  0
   38.2660   33.1140   40.6870 H   0  0  0  0  0  0  0  0  0  0  0  0
   38.9550   35.7980   39.9350 H   0  0  0  0  0  0  0  0  0  0  0  0
   38.6890   34.4090   38.8800 H   0  0  0  0  0  0  0  0  0  0  0  0
   41.3130   35.2200   40.1610 H   0  0  0  0  0  0  0  0  0  0  0  0
   41.0140   35.1380   38.0620 C   0  0  0  0  0  3  0  0  0  0  0  0
   42.4060   34.9140   37.5880 C   0  0  0  0  0  3  0  0  0  0  0  0
   42.4320   34.2700   36.6620 H   0  0  0  0  0  0  0  0  0  0  0  0
   42.9950   36.2520   37.1250 C   0  0  0  0  0  3  0  0  0  0  0  0
   43.9840   35.9820   36.6500 H   0  0  0  0  0  0  0  0  0  0  0  0
   42.2350   36.8230   36.1290 O   0  0  0  0  0  0  0  0  0  0  0  0
   40.8850   36.9020   36.4190 C   0  0  0  0  0  3  0  0  0  0  0  0
   40.4140   36.0430   35.8570 H   0  0  0  0  0  0  0  0  0  0  0  0
   40.6470   36.5740   37.9000 C   0  0  0  0  0  3  0  0  0  0  0  0
   39.5420   36.6480   38.0530 H   0  0  0  0  0  0  0  0  0  0  0  0
   44.4130   34.2210   42.1100 C   0  0  0  0  0  0  0  0  0  0  0  0
   43.5780   35.3380   42.2400 C   0  0  0  0  0  0  0  0  0  0  0  0
   42.2870   35.0060   41.8670 C   0  0  0  0  0  0  0  0  0  0  0  0
   42.3620   33.7230   41.5210 N   0  0  0  0  0  0  0  0  0  0  0  0
   43.6000   33.2650   41.6620 N   0  0  0  0  0  0  0  0  0  0  0  0
   44.0310   36.2800   42.6040 H   0  0  0  0  0  0  0  0  0  0  0  0
   41.6410   35.8680   41.9760 H   0  0  0  0  0  0  0  0  0  0  0  0
   48.1190   34.8600   42.1840 C   0  0  0  0  0  0  0  0  0  0  0  0
   46.7610   34.9790   41.7670 C   0  0  0  0  0  0  0  0  0  0  0  0
   45.8400   34.1950   42.4260 C   0  0  0  0  0  0  0  0  0  0  0  0
   46.2470   33.3650   43.4150 N   0  0  0  0  0  0  0  0  0  0  0  0
   47.5450   33.2720   43.7910 C   0  0  0  0  0  0  0  0  0  0  0  0
   48.4500   34.0210   43.1670 N   0  0  0  0  0  0  0  0  0  0  0  0
   48.8620   35.4770   41.6690 H   0  0  0  0  0  0  0  0  0  0  0  0
   46.4420   35.6360   40.9840 H   0  0  0  0  0  0  0  0  0  0  0  0
   47.7510   32.5720   44.5970 H   0  0  0  0  0  0  0  0  0  0  0  0
  1  2  1  0  0  0  0
  2  8  1  1  0  0  0
  2 28  1  0  0  0  0
  2  3  1  0  0  0  0
  3 10  1  0  0  0  0
  3  9  1  0  0  0  0
  4  3  1  0  0  0  0
  5 12  1  0  0  0  0
  5  4  1  0  0  0  0
  6  1  1  0  0  0  0
  6  5  1  0  0  0  0
  6 14  1  1  0  0  0
  7  1  1  0  0  0  0
 11  4  1  0  0  0  0
 13  5  1  0  0  0  0
 15  6  1  0  0  0  0
 16 15  1  0  0  0  0
 17 16  1  0  0  0  0
 18 16  1  0  0  0  0
 19 18  1  0  0  0  0
 20 21  1  0  0  0  0
 20 18  1  0  0  0  0
 21 23  1  0  0  0  0
 22 21  1  0  0  0  0
 23 24  1  0  0  0  0
 23 15  1  0  0  0  0
 25 26  1  0  0  0  0
 25 34  1  0  0  0  0
 26 30  1  0  0  0  0
 27 31  1  0  0  0  0
 27 26  2  0  0  0  0
 28 29  1  0  0  0  0
 28 27  1  0  0  0  0
 29 25  2  0  0  0  0
 32 37  1  0  0  0  0
 33 32  2  0  0  0  0
 33 34  1  0  0  0  0
 34 35  2  0  0  0  0
 35 36  1  0  0  0  0
 36 40  1  0  0  0  0
 37 36  2  0  0  0  0
 38 32  1  0  0  0  0
 39 33  1  0  0  0  0
M  END
>  <minimizedAffinity>
-3.67378497

>  <minimizedRMSD>
1.77826285

$$$$
