
 OpenBabel03242517563D

 44 46  0  0  0  0  0  0  0  0999 V2000
   45.3620   30.2880   47.1320 C   0  0  0  0  0  0  0  0  0  0  0  0
   46.2010   31.2700   46.7240 C   0  0  0  0  0  0  0  0  0  0  0  0
   46.5430   32.2650   47.6190 C   0  0  0  0  0  0  0  0  0  0  0  0
   46.0680   32.3000   48.9080 C   0  0  0  0  0  0  0  0  0  0  0  0
   45.2150   31.2960   49.3210 C   0  0  0  0  0  0  0  0  0  0  0  0
   44.8740   30.3010   48.4210 C   0  0  0  0  0  0  0  0  0  0  0  0
   47.2030   33.0850   47.3760 H   0  0  0  0  0  0  0  0  0  0  0  0
   46.3220   33.0640   49.6160 H   0  0  0  0  0  0  0  0  0  0  0  0
   44.7820   31.2250   50.3100 H   0  0  0  0  0  0  0  0  0  0  0  0
   44.1980   29.4930   48.7260 H   0  0  0  0  0  0  0  0  0  0  0  0
   44.8810   29.1280   45.9370 S   0  0  0  0  0  0  0  0  0  0  0  0
   44.8280   29.6390   44.5610 O   0  0  0  0  0  0  0  0  0  0  0  0
   43.4060   28.7990   46.2850 O   0  0  0  0  0  0  0  0  0  0  0  0
   45.5680   27.5220   46.1050 C   0  0  0  0  0  0  0  0  0  0  0  0
   44.5000   26.5590   45.5860 C   0  0  0  0  0  0  0  0  0  0  0  0
   44.1080   26.8290   44.6070 H   0  0  0  0  0  0  0  0  0  0  0  0
   43.3720   26.3750   46.5610 C   0  0  0  0  0  0  0  0  0  0  0  0
   42.7670   25.5340   46.1430 H   0  0  0  0  0  0  0  0  0  0  0  0
   43.7990   25.9570   47.7980 O   0  0  0  0  0  0  0  0  0  0  0  0
   44.7520   26.7540   48.3740 C   0  0  0  0  0  0  0  0  0  0  0  0
   45.1970   26.1450   49.2160 H   0  0  0  0  0  0  0  0  0  0  0  0
   45.9030   27.1270   47.5020 C   0  0  0  0  0  0  0  0  0  0  0  0
   46.5160   27.8540   48.0530 H   0  0  0  0  0  0  0  0  0  0  0  0
   46.7910   31.4160   45.4770 O   0  0  0  0  0  0  0  0  0  0  0  0
   45.4390   34.2130   43.8140 C   0  0  0  0  0  0  0  0  0  0  0  0
   46.5590   34.7190   43.1160 C   0  0  0  0  0  0  0  0  0  0  0  0
   47.7680   34.0840   43.2320 C   0  0  0  0  0  0  0  0  0  0  0  0
   47.7960   33.0010   44.0210 N   0  0  0  0  0  0  0  0  0  0  0  0
   46.7500   32.5260   44.6740 C   0  0  0  0  0  0  0  0  0  0  0  0
   45.5680   33.1310   44.5710 N   0  0  0  0  0  0  0  0  0  0  0  0
   44.4860   34.7140   43.7200 H   0  0  0  0  0  0  0  0  0  0  0  0
   46.3710   35.5950   42.5220 H   0  0  0  0  0  0  0  0  0  0  0  0
   48.9870   34.5150   42.5390 C   0  0  0  0  0  0  0  0  0  0  0  0
   49.3480   33.6460   41.9200 H   0  0  0  0  0  0  0  0  0  0  0  0
   49.7380   34.7630   43.2900 H   0  0  0  0  0  0  0  0  0  0  0  0
   48.7520   35.6780   41.6210 C   0  0  0  0  0  0  0  0  0  0  0  0
   47.9950   36.3870   41.9440 H   0  0  0  0  0  0  0  0  0  0  0  0
   49.7230   36.2720   41.6730 H   0  0  0  0  0  0  0  0  0  0  0  0
   48.6130   35.2990   40.2160 C   0  0  0  0  0  0  0  0  0  0  0  0
   48.0900   34.3580   39.4400 C   0  0  0  0  0  0  0  0  0  0  0  0
   48.2430   34.2310   37.9380 C   0  0  0  0  0  0  0  0  0  0  0  0
   48.5760   33.2120   37.7530 H   0  0  0  0  0  0  0  0  0  0  0  0
   49.0560   34.9430   37.6320 H   0  0  0  0  0  0  0  0  0  0  0  0
   47.2980   34.5340   37.4720 H   0  0  0  0  0  0  0  0  0  0  0  0
  1  6  1  0  0  0  0
  2  1  2  0  0  0  0
  2  3  1  0  0  0  0
  3  4  2  0  0  0  0
  4  5  1  0  0  0  0
  4  8  1  0  0  0  0
  5  9  1  0  0  0  0
  6 10  1  0  0  0  0
  6  5  2  0  0  0  0
  7  3  1  0  0  0  0
 11 14  1  0  0  0  0
 11 13  2  0  0  0  0
 11  1  1  0  0  0  0
 12 11  2  0  0  0  0
 14 22  1  0  0  0  0
 15 14  1  0  0  0  0
 15 17  1  0  0  0  0
 16 15  1  0  0  0  0
 17 19  1  0  0  0  0
 18 17  1  0  0  0  0
 19 20  1  0  0  0  0
 20 21  1  0  0  0  0
 22 23  1  0  0  0  0
 22 20  1  0  0  0  0
 24  2  1  0  0  0  0
 25 30  1  0  0  0  0
 26 27  1  0  0  0  0
 26 25  2  0  0  0  0
 27 28  2  0  0  0  0
 28 29  1  0  0  0  0
 29 24  1  0  0  0  0
 30 29  2  0  0  0  0
 31 25  1  0  0  0  0
 32 26  1  0  0  0  0
 33 27  1  0  0  0  0
 33 35  1  0  0  0  0
 34 33  1  0  0  0  0
 36 38  1  0  0  0  0
 36 37  1  0  0  0  0
 36 33  1  0  0  0  0
 39 36  1  0  0  0  0
 40 39  2  0  0  0  0
 41 40  1  0  0  0  0
 42 41  1  0  0  0  0
 43 41  1  0  0  0  0
 44 41  1  0  0  0  0
M  END
>  <minimizedAffinity>
-5.89497662

>  <minimizedRMSD>
2.33059049

$$$$
