
 OpenBabel03242523433D

 25 26  0  0  1  0  0  0  0  0999 V2000
   37.9990   27.9370   43.3520 C   0  0  1  0  0  0  0  0  0  0  0  0
   38.4980   28.1510   44.3510 H   0  0  0  0  0  0  0  0  0  0  0  0
   38.6080   26.7030   42.8110 C   0  0  0  0  0  3  0  0  0  0  0  0
   37.6280   25.6730   42.2790 C   0  0  0  0  0  3  0  0  0  0  0  0
   37.2050   25.0710   43.0780 H   0  0  0  0  0  0  0  0  0  0  0  0
   38.5050   24.7440   41.4360 C   0  0  0  0  0  3  0  0  0  0  0  0
   39.0080   25.3880   40.6930 H   0  0  0  0  0  0  0  0  0  0  0  0
   39.3360   24.0670   42.2670 O   0  0  0  0  0  0  0  0  0  0  0  0
   40.2040   24.7920   43.0420 C   0  0  0  0  0  3  0  0  0  0  0  0
   40.5800   24.1200   43.8450 H   0  0  0  0  0  0  0  0  0  0  0  0
   39.6150   26.0150   43.6730 C   0  0  0  0  0  3  0  0  0  0  0  0
   39.1510   25.7320   44.6250 H   0  0  0  0  0  0  0  0  0  0  0  0
   36.9980   29.5160   41.7610 C   0  0  0  0  0  0  0  0  0  0  0  0
   38.0920   29.1530   42.5500 C   0  0  0  0  0  0  0  0  0  0  0  0
   39.2300   29.9620   42.5210 C   0  0  0  0  0  0  0  0  0  0  0  0
   39.2100   31.0610   41.7250 N   0  0  0  0  0  0  0  0  0  0  0  0
   38.1330   31.3880   40.9700 C   0  0  0  0  0  0  0  0  0  0  0  0
   37.0130   30.6170   40.9800 N   0  0  0  0  0  0  0  0  0  0  0  0
   36.0980   28.9140   41.7560 H   0  0  0  0  0  0  0  0  0  0  0  0
   40.0960   29.7290   43.0980 H   0  0  0  0  0  0  0  0  0  0  0  0
   38.1910   32.2930   40.3510 H   0  0  0  0  0  0  0  0  0  0  0  0
   36.5390   27.7040   43.6800 C   0  0  0  0  0  0  0  0  0  0  0  0
   35.9800   27.4640   42.7620 H   0  0  0  0  0  0  0  0  0  0  0  0
   36.4930   26.8950   44.4400 H   0  0  0  0  0  0  0  0  0  0  0  0
   36.1280   28.6510   44.1000 H   0  0  0  0  0  0  0  0  0  0  0  0
  1 22  1  0  0  0  0
  1  2  1  1  0  0  0
  3  1  1  0  0  0  0
  3 11  1  0  0  0  0
  4  3  1  0  0  0  0
  4  5  1  0  0  0  0
  6  8  1  0  0  0  0
  6  4  1  0  0  0  0
  7  6  1  0  0  0  0
  8  9  1  0  0  0  0
  9 11  1  0  0  0  0
  9 10  1  0  0  0  0
 11 12  1  0  0  0  0
 13 14  1  0  0  0  0
 14  1  1  0  0  0  0
 15 14  2  0  0  0  0
 15 20  1  0  0  0  0
 16 15  1  0  0  0  0
 17 18  1  0  0  0  0
 17 16  2  0  0  0  0
 18 13  2  0  0  0  0
 19 13  1  0  0  0  0
 21 17  1  0  0  0  0
 22 25  1  0  0  0  0
 22 24  1  0  0  0  0
 23 22  1  0  0  0  0
M  END
>  <minimizedAffinity>
-4.42441988

$$$$

 OpenBabel03242523433D

 25 26  0  0  1  0  0  0  0  0999 V2000
   36.9370   27.2140   42.3120 C   0  0  1  0  0  0  0  0  0  0  0  0
   36.2120   26.5100   41.7910 H   0  0  0  0  0  0  0  0  0  0  0  0
   36.9810   28.4640   41.5240 C   0  0  0  0  0  3  0  0  0  0  0  0
   37.4620   29.6900   42.2770 C   0  0  0  0  0  3  0  0  0  0  0  0
   36.6680   30.1350   42.8700 H   0  0  0  0  0  0  0  0  0  0  0  0
   37.7990   30.6860   41.1650 C   0  0  0  0  0  3  0  0  0  0  0  0
   38.5320   30.1800   40.5120 H   0  0  0  0  0  0  0  0  0  0  0  0
   36.6450   31.0570   40.5560 O   0  0  0  0  0  0  0  0  0  0  0  0
   35.8880   30.0810   39.9610 C   0  0  0  0  0  3  0  0  0  0  0  0
   34.8750   30.5030   39.7830 H   0  0  0  0  0  0  0  0  0  0  0  0
   35.7520   28.8180   40.7530 C   0  0  0  0  0  3  0  0  0  0  0  0
   34.9050   28.9230   41.4420 H   0  0  0  0  0  0  0  0  0  0  0  0
   38.5330   25.4970   41.5820 C   0  0  0  0  0  0  0  0  0  0  0  0
   38.1860   26.4840   42.5070 C   0  0  0  0  0  0  0  0  0  0  0  0
   39.0420   26.7140   43.5860 C   0  0  0  0  0  0  0  0  0  0  0  0
   40.1690   25.9640   43.6770 N   0  0  0  0  0  0  0  0  0  0  0  0
   40.4800   25.0120   42.7630 C   0  0  0  0  0  0  0  0  0  0  0  0
   39.6630   24.7680   41.7030 N   0  0  0  0  0  0  0  0  0  0  0  0
   37.8950   25.2890   40.7320 H   0  0  0  0  0  0  0  0  0  0  0  0
   38.8240   27.4500   44.3260 H   0  0  0  0  0  0  0  0  0  0  0  0
   41.4100   24.4450   42.9030 H   0  0  0  0  0  0  0  0  0  0  0  0
   36.3290   27.4700   43.6750 C   0  0  0  0  0  0  0  0  0  0  0  0
   36.9620   28.1690   44.2450 H   0  0  0  0  0  0  0  0  0  0  0  0
   35.2980   27.8520   43.5130 H   0  0  0  0  0  0  0  0  0  0  0  0
   36.2980   26.5010   44.2240 H   0  0  0  0  0  0  0  0  0  0  0  0
  1  2  1  6  0  0  0
  1 14  1  0  0  0  0
  1 22  1  0  0  0  0
  3  4  1  0  0  0  0
  3  1  1  0  0  0  0
  4  5  1  0  0  0  0
  6  4  1  0  0  0  0
  7  6  1  0  0  0  0
  8  6  1  0  0  0  0
  9  8  1  0  0  0  0
  9 11  1  0  0  0  0
 10  9  1  0  0  0  0
 11 12  1  0  0  0  0
 11  3  1  0  0  0  0
 13 18  2  0  0  0  0
 13 14  1  0  0  0  0
 14 15  2  0  0  0  0
 15 16  1  0  0  0  0
 15 20  1  0  0  0  0
 17 21  1  0  0  0  0
 17 16  2  0  0  0  0
 18 17  1  0  0  0  0
 19 13  1  0  0  0  0
 22 25  1  0  0  0  0
 22 23  1  0  0  0  0
 24 22  1  0  0  0  0
M  END
>  <minimizedAffinity>
-4.31897402

$$$$

 OpenBabel03242523433D

 25 26  0  0  1  0  0  0  0  0999 V2000
   36.5740   27.3450   42.1710 C   0  0  1  0  0  0  0  0  0  0  0  0
   35.4780   27.1460   41.9430 H   0  0  0  0  0  0  0  0  0  0  0  0
   36.9280   28.6360   41.5440 C   0  0  0  0  0  3  0  0  0  0  0  0
   37.7050   29.5960   42.4250 C   0  0  0  0  0  3  0  0  0  0  0  0
   37.0490   30.1440   43.0970 H   0  0  0  0  0  0  0  0  0  0  0  0
   38.2770   30.6120   41.4340 C   0  0  0  0  0  3  0  0  0  0  0  0
   38.8560   30.0280   40.6970 H   0  0  0  0  0  0  0  0  0  0  0  0
   37.2510   31.3340   40.9180 O   0  0  0  0  0  0  0  0  0  0  0  0
   36.2700   30.6620   40.2340 C   0  0  0  0  0  3  0  0  0  0  0  0
   35.3950   31.3420   40.1460 H   0  0  0  0  0  0  0  0  0  0  0  0
   35.8240   29.3810   40.8680 C   0  0  0  0  0  3  0  0  0  0  0  0
   35.0330   29.6030   41.5940 H   0  0  0  0  0  0  0  0  0  0  0  0
   38.4180   26.3220   40.9140 C   0  0  0  0  0  0  0  0  0  0  0  0
   37.3240   26.1600   41.7670 C   0  0  0  0  0  0  0  0  0  0  0  0
   36.9880   24.8680   42.1800 C   0  0  0  0  0  0  0  0  0  0  0  0
   37.7470   23.8380   41.7280 N   0  0  0  0  0  0  0  0  0  0  0  0
   38.8040   24.0260   40.8990 C   0  0  0  0  0  0  0  0  0  0  0  0
   39.1510   25.2730   40.4830 N   0  0  0  0  0  0  0  0  0  0  0  0
   38.7090   27.3070   40.5720 H   0  0  0  0  0  0  0  0  0  0  0  0
   36.1600   24.6850   42.8250 H   0  0  0  0  0  0  0  0  0  0  0  0
   39.3700   23.1430   40.5760 H   0  0  0  0  0  0  0  0  0  0  0  0
   36.6510   27.4530   43.6800 C   0  0  0  0  0  0  0  0  0  0  0  0
   37.6850   27.6710   43.9900 H   0  0  0  0  0  0  0  0  0  0  0  0
   35.9290   28.2380   43.9950 H   0  0  0  0  0  0  0  0  0  0  0  0
   36.3590   26.4670   44.1090 H   0  0  0  0  0  0  0  0  0  0  0  0
  1  2  1  6  0  0  0
  1 22  1  0  0  0  0
  3  1  1  0  0  0  0
  3  4  1  0  0  0  0
  4  5  1  0  0  0  0
  6  4  1  0  0  0  0
  7  6  1  0  0  0  0
  8  6  1  0  0  0  0
  9 11  1  0  0  0  0
  9  8  1  0  0  0  0
 10  9  1  0  0  0  0
 11  3  1  0  0  0  0
 11 12  1  0  0  0  0
 13 14  1  0  0  0  0
 14  1  1  0  0  0  0
 14 15  2  0  0  0  0
 15 20  1  0  0  0  0
 16 15  1  0  0  0  0
 17 16  2  0  0  0  0
 18 17  1  0  0  0  0
 18 13  2  0  0  0  0
 19 13  1  0  0  0  0
 21 17  1  0  0  0  0
 22 23  1  0  0  0  0
 22 24  1  0  0  0  0
 22 25  1  0  0  0  0
M  END
>  <minimizedAffinity>
-4.25395775

$$$$

 OpenBabel03242523433D

 25 26  0  0  1  0  0  0  0  0999 V2000
   35.7560   29.4650   40.8060 C   0  0  1  0  0  0  0  0  0  0  0  0
   34.7540   29.4530   41.3420 H   0  0  0  0  0  0  0  0  0  0  0  0
   35.5030   29.1300   39.3890 C   0  0  0  0  0  3  0  0  0  0  0  0
   36.2450   29.9820   38.3750 C   0  0  0  0  0  3  0  0  0  0  0  0
   35.7420   30.9300   38.2030 H   0  0  0  0  0  0  0  0  0  0  0  0
   36.1350   29.1770   37.0780 C   0  0  0  0  0  3  0  0  0  0  0  0
   36.5570   28.1800   37.3000 H   0  0  0  0  0  0  0  0  0  0  0  0
   34.8390   29.1770   36.6810 O   0  0  0  0  0  0  0  0  0  0  0  0
   33.9040   28.6410   37.5290 C   0  0  0  0  0  3  0  0  0  0  0  0
   32.9030   28.9830   37.1870 H   0  0  0  0  0  0  0  0  0  0  0  0
   34.0740   29.0100   38.9700 C   0  0  0  0  0  3  0  0  0  0  0  0
   33.5580   29.9600   39.1540 H   0  0  0  0  0  0  0  0  0  0  0  0
   37.3830   29.1640   42.6190 C   0  0  0  0  0  0  0  0  0  0  0  0
   36.6630   28.6070   41.5600 C   0  0  0  0  0  0  0  0  0  0  0  0
   36.8580   27.2560   41.2620 C   0  0  0  0  0  0  0  0  0  0  0  0
   37.7400   26.5570   42.0210 N   0  0  0  0  0  0  0  0  0  0  0  0
   38.4250   27.1260   43.0430 C   0  0  0  0  0  0  0  0  0  0  0  0
   38.2540   28.4390   43.3530 N   0  0  0  0  0  0  0  0  0  0  0  0
   37.2600   30.2080   42.8800 H   0  0  0  0  0  0  0  0  0  0  0  0
   36.3400   26.7790   40.4610 H   0  0  0  0  0  0  0  0  0  0  0  0
   39.1220   26.4960   43.6130 H   0  0  0  0  0  0  0  0  0  0  0  0
   36.2530   30.8910   40.9290 C   0  0  0  0  0  0  0  0  0  0  0  0
   37.2190   31.0000   40.4110 H   0  0  0  0  0  0  0  0  0  0  0  0
   35.4640   31.5560   40.5180 H   0  0  0  0  0  0  0  0  0  0  0  0
   36.4120   31.1060   42.0110 H   0  0  0  0  0  0  0  0  0  0  0  0
  1 22  1  0  0  0  0
  1  2  1  1  0  0  0
  1 14  1  0  0  0  0
  3  1  1  0  0  0  0
  4  3  1  0  0  0  0
  5  4  1  0  0  0  0
  6  7  1  0  0  0  0
  6  4  1  0  0  0  0
  8  6  1  0  0  0  0
  8  9  1  0  0  0  0
  9 11  1  0  0  0  0
 10  9  1  0  0  0  0
 11 12  1  0  0  0  0
 11  3  1  0  0  0  0
 13 19  1  0  0  0  0
 13 18  1  0  0  0  0
 14 13  2  0  0  0  0
 15 14  1  0  0  0  0
 15 16  2  0  0  0  0
 16 17  1  0  0  0  0
 17 18  2  0  0  0  0
 17 21  1  0  0  0  0
 20 15  1  0  0  0  0
 22 25  1  0  0  0  0
 23 22  1  0  0  0  0
 24 22  1  0  0  0  0
M  END
>  <minimizedAffinity>
-4.15913868

$$$$

 OpenBabel03242523433D

 25 26  0  0  1  0  0  0  0  0999 V2000
   36.7120   30.0890   41.4150 C   0  0  1  0  0  0  0  0  0  0  0  0
   36.1550   30.4860   42.3220 H   0  0  0  0  0  0  0  0  0  0  0  0
   37.4050   28.8510   41.8300 C   0  0  0  0  0  3  0  0  0  0  0  0
   36.8640   27.5680   41.2260 C   0  0  0  0  0  3  0  0  0  0  0  0
   35.9870   27.2120   41.7600 H   0  0  0  0  0  0  0  0  0  0  0  0
   37.9810   26.5520   41.4770 C   0  0  0  0  0  3  0  0  0  0  0  0
   38.8910   26.9780   41.0170 H   0  0  0  0  0  0  0  0  0  0  0  0
   38.0640   26.3260   42.8120 O   0  0  0  0  0  0  0  0  0  0  0  0
   38.3410   27.3900   43.6310 C   0  0  0  0  0  3  0  0  0  0  0  0
   38.0840   27.0910   44.6700 H   0  0  0  0  0  0  0  0  0  0  0  0
   37.6070   28.6510   43.2960 C   0  0  0  0  0  3  0  0  0  0  0  0
   36.6340   28.6380   43.8010 H   0  0  0  0  0  0  0  0  0  0  0  0
   36.9360   32.0700   39.9840 C   0  0  0  0  0  0  0  0  0  0  0  0
   37.5220   31.1830   40.8890 C   0  0  0  0  0  0  0  0  0  0  0  0
   38.8620   31.3740   41.2340 C   0  0  0  0  0  0  0  0  0  0  0  0
   39.5230   32.4160   40.6700 N   0  0  0  0  0  0  0  0  0  0  0  0
   38.9270   33.2620   39.7930 C   0  0  0  0  0  0  0  0  0  0  0  0
   37.6240   33.0970   39.4400 N   0  0  0  0  0  0  0  0  0  0  0  0
   35.9000   31.9550   39.6900 H   0  0  0  0  0  0  0  0  0  0  0  0
   39.3620   30.7230   41.9150 H   0  0  0  0  0  0  0  0  0  0  0  0
   39.5270   34.0820   39.3780 H   0  0  0  0  0  0  0  0  0  0  0  0
   35.6360   29.7740   40.3970 C   0  0  0  0  0  0  0  0  0  0  0  0
   36.0900   29.3570   39.4840 H   0  0  0  0  0  0  0  0  0  0  0  0
   34.9140   29.0790   40.8780 H   0  0  0  0  0  0  0  0  0  0  0  0
   35.1290   30.7290   40.1280 H   0  0  0  0  0  0  0  0  0  0  0  0
  1  3  1  0  0  0  0
  1  2  1  1  0  0  0
  3 11  1  0  0  0  0
  4  6  1  0  0  0  0
  4  5  1  0  0  0  0
  4  3  1  0  0  0  0
  6  8  1  0  0  0  0
  7  6  1  0  0  0  0
  8  9  1  0  0  0  0
  9 10  1  0  0  0  0
 11  9  1  0  0  0  0
 11 12  1  0  0  0  0
 13 14  1  0  0  0  0
 14 15  2  0  0  0  0
 14  1  1  0  0  0  0
 15 20  1  0  0  0  0
 16 15  1  0  0  0  0
 17 16  2  0  0  0  0
 18 17  1  0  0  0  0
 18 13  2  0  0  0  0
 19 13  1  0  0  0  0
 21 17  1  0  0  0  0
 22 24  1  0  0  0  0
 22  1  1  0  0  0  0
 23 22  1  0  0  0  0
 25 22  1  0  0  0  0
M  END
>  <minimizedAffinity>
-4.13809824

$$$$

 OpenBabel03242523433D

 25 26  0  0  1  0  0  0  0  0999 V2000
   36.6800   28.9510   40.2390 C   0  0  1  0  0  0  0  0  0  0  0  0
   36.8330   28.2220   39.3800 H   0  0  0  0  0  0  0  0  0  0  0  0
   37.1320   30.2800   39.7750 C   0  0  0  0  0  3  0  0  0  0  0  0
   36.6340   31.4580   40.5920 C   0  0  0  0  0  3  0  0  0  0  0  0
   35.6240   31.7440   40.3110 H   0  0  0  0  0  0  0  0  0  0  0  0
   37.5550   32.6050   40.1700 C   0  0  0  0  0  3  0  0  0  0  0  0
   38.5860   32.2580   40.3670 H   0  0  0  0  0  0  0  0  0  0  0  0
   37.2900   32.9150   38.8770 O   0  0  0  0  0  0  0  0  0  0  0  0
   37.4600   31.9370   37.9310 C   0  0  0  0  0  3  0  0  0  0  0  0
   36.9310   32.2640   37.0100 H   0  0  0  0  0  0  0  0  0  0  0  0
   36.9520   30.5850   38.3240 C   0  0  0  0  0  3  0  0  0  0  0  0
   35.8880   30.5180   38.0650 H   0  0  0  0  0  0  0  0  0  0  0  0
   38.7230   28.3060   41.4360 C   0  0  0  0  0  0  0  0  0  0  0  0
   37.3290   28.3800   41.4140 C   0  0  0  0  0  0  0  0  0  0  0  0
   36.6200   27.8870   42.5120 C   0  0  0  0  0  0  0  0  0  0  0  0
   37.3280   27.3610   43.5440 N   0  0  0  0  0  0  0  0  0  0  0  0
   38.6830   27.3030   43.5360 C   0  0  0  0  0  0  0  0  0  0  0  0
   39.3960   27.7760   42.4800 N   0  0  0  0  0  0  0  0  0  0  0  0
   39.3090   28.6770   40.6040 H   0  0  0  0  0  0  0  0  0  0  0  0
   35.5550   27.9110   42.5470 H   0  0  0  0  0  0  0  0  0  0  0  0
   39.1850   26.8630   44.4080 H   0  0  0  0  0  0  0  0  0  0  0  0
   35.1860   28.9600   40.4890 C   0  0  0  0  0  0  0  0  0  0  0  0
   34.9430   29.6650   41.2990 H   0  0  0  0  0  0  0  0  0  0  0  0
   34.6890   29.2150   39.5280 H   0  0  0  0  0  0  0  0  0  0  0  0
   34.8880   27.9370   40.8160 H   0  0  0  0  0  0  0  0  0  0  0  0
  1  2  1  6  0  0  0
  1 22  1  0  0  0  0
  1 14  1  0  0  0  0
  3  1  1  0  0  0  0
  3  4  1  0  0  0  0
  5  4  1  0  0  0  0
  6  7  1  0  0  0  0
  6  4  1  0  0  0  0
  8  6  1  0  0  0  0
  9 11  1  0  0  0  0
  9  8  1  0  0  0  0
 10  9  1  0  0  0  0
 11  3  1  0  0  0  0
 12 11  1  0  0  0  0
 13 18  1  0  0  0  0
 14 13  2  0  0  0  0
 14 15  1  0  0  0  0
 15 20  1  0  0  0  0
 15 16  2  0  0  0  0
 17 16  1  0  0  0  0
 17 21  1  0  0  0  0
 18 17  2  0  0  0  0
 19 13  1  0  0  0  0
 22 25  1  0  0  0  0
 22 23  1  0  0  0  0
 24 22  1  0  0  0  0
M  END
>  <minimizedAffinity>
-4.106534

$$$$

 OpenBabel03242523433D

 25 26  0  0  1  0  0  0  0  0999 V2000
   35.7700   29.0700   40.0680 C   0  0  1  0  0  0  0  0  0  0  0  0
   34.9060   29.2730   40.7780 H   0  0  0  0  0  0  0  0  0  0  0  0
   36.6100   28.0210   40.6830 C   0  0  0  0  0  3  0  0  0  0  0  0
   36.5760   26.6710   39.9900 C   0  0  0  0  0  3  0  0  0  0  0  0
   35.7030   26.0920   40.2810 H   0  0  0  0  0  0  0  0  0  0  0  0
   37.8000   25.9460   40.5540 C   0  0  0  0  0  3  0  0  0  0  0  0
   38.6670   26.5970   40.3410 H   0  0  0  0  0  0  0  0  0  0  0  0
   37.5810   25.6910   41.8680 O   0  0  0  0  0  0  0  0  0  0  0  0
   37.3650   26.7560   42.7040 C   0  0  0  0  0  3  0  0  0  0  0  0
   36.9250   26.3610   43.6450 H   0  0  0  0  0  0  0  0  0  0  0  0
   36.4610   27.8150   42.1550 C   0  0  0  0  0  3  0  0  0  0  0  0
   35.4230   27.5460   42.3840 H   0  0  0  0  0  0  0  0  0  0  0  0
   36.7120   30.6430   38.4360 C   0  0  0  0  0  0  0  0  0  0  0  0
   36.3940   30.3540   39.7640 C   0  0  0  0  0  0  0  0  0  0  0  0
   36.7050   31.3010   40.7430 C   0  0  0  0  0  0  0  0  0  0  0  0
   37.3000   32.4550   40.3480 N   0  0  0  0  0  0  0  0  0  0  0  0
   37.5960   32.7080   39.0490 C   0  0  0  0  0  0  0  0  0  0  0  0
   37.3040   31.8020   38.0770 N   0  0  0  0  0  0  0  0  0  0  0  0
   36.4870   29.9350   37.6480 H   0  0  0  0  0  0  0  0  0  0  0  0
   36.4910   31.1310   41.7740 H   0  0  0  0  0  0  0  0  0  0  0  0
   38.0780   33.6640   38.8050 H   0  0  0  0  0  0  0  0  0  0  0  0
   35.1260   28.5530   38.7990 C   0  0  0  0  0  0  0  0  0  0  0  0
   35.9010   28.3060   38.0560 H   0  0  0  0  0  0  0  0  0  0  0  0
   34.4970   27.6800   39.0760 H   0  0  0  0  0  0  0  0  0  0  0  0
   34.4900   29.3670   38.3810 H   0  0  0  0  0  0  0  0  0  0  0  0
  1  3  1  0  0  0  0
  1  2  1  1  0  0  0
  3 11  1  0  0  0  0
  4  5  1  0  0  0  0
  4  6  1  0  0  0  0
  4  3  1  0  0  0  0
  6  8  1  0  0  0  0
  7  6  1  0  0  0  0
  8  9  1  0  0  0  0
  9 10  1  0  0  0  0
 11 12  1  0  0  0  0
 11  9  1  0  0  0  0
 13 14  1  0  0  0  0
 14  1  1  0  0  0  0
 14 15  2  0  0  0  0
 15 20  1  0  0  0  0
 16 15  1  0  0  0  0
 17 16  2  0  0  0  0
 18 13  2  0  0  0  0
 18 17  1  0  0  0  0
 19 13  1  0  0  0  0
 21 17  1  0  0  0  0
 22 24  1  0  0  0  0
 22  1  1  0  0  0  0
 23 22  1  0  0  0  0
 25 22  1  0  0  0  0
M  END
>  <minimizedAffinity>
-4.09566259

$$$$

 OpenBabel03242523433D

 25 26  0  0  1  0  0  0  0  0999 V2000
   37.7730   28.2170   42.5530 C   0  0  1  0  0  0  0  0  0  0  0  0
   37.5720   28.4850   43.6390 H   0  0  0  0  0  0  0  0  0  0  0  0
   38.4740   26.9160   42.5430 C   0  0  0  0  0  3  0  0  0  0  0  0
   37.5900   25.7010   42.3330 C   0  0  0  0  0  3  0  0  0  0  0  0
   37.1070   25.3920   43.2570 H   0  0  0  0  0  0  0  0  0  0  0  0
   38.5780   24.5960   41.9560 C   0  0  0  0  0  3  0  0  0  0  0  0
   39.1330   24.9690   41.0760 H   0  0  0  0  0  0  0  0  0  0  0  0
   39.3410   24.3130   43.0400 O   0  0  0  0  0  0  0  0  0  0  0  0
   40.1010   25.3220   43.5750 C   0  0  0  0  0  3  0  0  0  0  0  0
   40.4150   25.0040   44.5930 H   0  0  0  0  0  0  0  0  0  0  0  0
   39.4100   26.6460   43.6750 C   0  0  0  0  0  3  0  0  0  0  0  0
   38.8600   26.6870   44.6220 H   0  0  0  0  0  0  0  0  0  0  0  0
   39.2110   30.1960   42.7520 C   0  0  0  0  0  0  0  0  0  0  0  0
   38.4420   29.3600   41.9400 C   0  0  0  0  0  0  0  0  0  0  0  0
   38.3340   29.6670   40.5820 C   0  0  0  0  0  0  0  0  0  0  0  0
   38.9860   30.7660   40.1230 N   0  0  0  0  0  0  0  0  0  0  0  0
   39.7270   31.5590   40.9360 C   0  0  0  0  0  0  0  0  0  0  0  0
   39.8470   31.2820   42.2620 N   0  0  0  0  0  0  0  0  0  0  0  0
   39.3180   29.9920   43.8100 H   0  0  0  0  0  0  0  0  0  0  0  0
   37.7550   29.0680   39.9170 H   0  0  0  0  0  0  0  0  0  0  0  0
   40.2260   32.4310   40.4930 H   0  0  0  0  0  0  0  0  0  0  0  0
   36.4040   28.0830   41.9190 C   0  0  0  0  0  0  0  0  0  0  0  0
   36.5050   27.7980   40.8600 H   0  0  0  0  0  0  0  0  0  0  0  0
   35.8320   27.3390   42.5150 H   0  0  0  0  0  0  0  0  0  0  0  0
   35.9060   29.0780   41.9660 H   0  0  0  0  0  0  0  0  0  0  0  0
  1  2  1  1  0  0  0
  3  1  1  0  0  0  0
  3 11  1  0  0  0  0
  4  3  1  0  0  0  0
  4  5  1  0  0  0  0
  6  4  1  0  0  0  0
  6  8  1  0  0  0  0
  7  6  1  0  0  0  0
  8  9  1  0  0  0  0
  9 11  1  0  0  0  0
  9 10  1  0  0  0  0
 11 12  1  0  0  0  0
 13 19  1  0  0  0  0
 14  1  1  0  0  0  0
 14 13  2  0  0  0  0
 15 14  1  0  0  0  0
 16 15  2  0  0  0  0
 16 17  1  0  0  0  0
 17 18  2  0  0  0  0
 18 13  1  0  0  0  0
 20 15  1  0  0  0  0
 21 17  1  0  0  0  0
 22 25  1  0  0  0  0
 22 24  1  0  0  0  0
 22  1  1  0  0  0  0
 23 22  1  0  0  0  0
M  END
>  <minimizedAffinity>
-4.01456594

$$$$

 OpenBabel03242523433D

 25 26  0  0  1  0  0  0  0  0999 V2000
   37.7250   27.7780   42.8740 C   0  0  1  0  0  0  0  0  0  0  0  0
   38.4950   28.1110   43.6410 H   0  0  0  0  0  0  0  0  0  0  0  0
   38.2640   26.5800   42.1990 C   0  0  0  0  0  3  0  0  0  0  0  0
   38.9920   26.8400   40.8930 C   0  0  0  0  0  3  0  0  0  0  0  0
   38.2990   26.9510   40.0630 H   0  0  0  0  0  0  0  0  0  0  0  0
   39.7730   25.5470   40.6510 C   0  0  0  0  0  3  0  0  0  0  0  0
   40.3970   25.3940   41.5490 H   0  0  0  0  0  0  0  0  0  0  0  0
   38.8890   24.5530   40.3880 O   0  0  0  0  0  0  0  0  0  0  0  0
   37.9580   24.2490   41.3470 C   0  0  0  0  0  3  0  0  0  0  0  0
   37.1620   23.6430   40.8630 H   0  0  0  0  0  0  0  0  0  0  0  0
   37.3270   25.4320   42.0120 C   0  0  0  0  0  3  0  0  0  0  0  0
   36.4670   25.7550   41.4150 H   0  0  0  0  0  0  0  0  0  0  0  0
   36.1830   28.9540   41.3690 C   0  0  0  0  0  0  0  0  0  0  0  0
   37.4010   28.9400   42.0520 C   0  0  0  0  0  0  0  0  0  0  0  0
   38.2610   30.0300   41.9010 C   0  0  0  0  0  0  0  0  0  0  0  0
   37.8640   31.0480   41.0960 N   0  0  0  0  0  0  0  0  0  0  0  0
   36.6740   31.0340   40.4460 C   0  0  0  0  0  0  0  0  0  0  0  0
   35.8190   29.9850   40.5760 N   0  0  0  0  0  0  0  0  0  0  0  0
   35.4900   28.1280   41.4600 H   0  0  0  0  0  0  0  0  0  0  0  0
   39.2060   30.0690   42.3930 H   0  0  0  0  0  0  0  0  0  0  0  0
   36.4210   31.8950   39.8120 H   0  0  0  0  0  0  0  0  0  0  0  0
   36.4930   27.4200   43.6800 C   0  0  0  0  0  0  0  0  0  0  0  0
   35.6960   27.0610   43.0100 H   0  0  0  0  0  0  0  0  0  0  0  0
   36.7980   26.6640   44.4360 H   0  0  0  0  0  0  0  0  0  0  0  0
   36.1330   28.3460   44.1850 H   0  0  0  0  0  0  0  0  0  0  0  0
  1  2  1  1  0  0  0
  1 22  1  0  0  0  0
  3  1  1  0  0  0  0
  4  3  1  0  0  0  0
  5  4  1  0  0  0  0
  6  4  1  0  0  0  0
  6  7  1  0  0  0  0
  8  6  1  0  0  0  0
  8  9  1  0  0  0  0
  9 11  1  0  0  0  0
 10  9  1  0  0  0  0
 11  3  1  0  0  0  0
 12 11  1  0  0  0  0
 13 19  1  0  0  0  0
 13 14  1  0  0  0  0
 14  1  1  0  0  0  0
 15 14  2  0  0  0  0
 15 20  1  0  0  0  0
 16 15  1  0  0  0  0
 17 18  1  0  0  0  0
 17 16  2  0  0  0  0
 18 13  2  0  0  0  0
 21 17  1  0  0  0  0
 22 25  1  0  0  0  0
 22 24  1  0  0  0  0
 23 22  1  0  0  0  0
M  END
>  <minimizedAffinity>
-4.0086565

$$$$
