
 OpenBabel03242523423D

 25 26  0  0  1  0  0  0  0  0999 V2000
   46.8470   35.0790   41.8390 C   0  0  1  0  0  0  0  0  0  0  0  0
   46.7230   36.1260   41.4160 H   0  0  0  0  0  0  0  0  0  0  0  0
   46.4550   34.1260   40.7790 C   0  0  0  0  0  3  0  0  0  0  0  0
   44.9660   33.8550   40.6650 C   0  0  0  0  0  3  0  0  0  0  0  0
   44.6350   33.1220   41.3970 H   0  0  0  0  0  0  0  0  0  0  0  0
   44.8210   33.2050   39.2880 C   0  0  0  0  0  3  0  0  0  0  0  0
   45.2570   33.9190   38.5650 H   0  0  0  0  0  0  0  0  0  0  0  0
   45.4160   31.9880   39.3220 O   0  0  0  0  0  0  0  0  0  0  0  0
   46.7540   31.9310   39.6190 C   0  0  0  0  0  3  0  0  0  0  0  0
   46.9940   30.8810   39.8880 H   0  0  0  0  0  0  0  0  0  0  0  0
   47.1890   32.8270   40.7370 C   0  0  0  0  0  3  0  0  0  0  0  0
   47.0530   32.2970   41.6870 H   0  0  0  0  0  0  0  0  0  0  0  0
   45.2150   36.0550   43.3900 C   0  0  0  0  0  0  0  0  0  0  0  0
   46.1210   35.0320   43.1040 C   0  0  0  0  0  0  0  0  0  0  0  0
   46.3040   34.0210   44.0500 C   0  0  0  0  0  0  0  0  0  0  0  0
   45.5860   34.0890   45.2010 N   0  0  0  0  0  0  0  0  0  0  0  0
   44.7130   35.0960   45.4510 C   0  0  0  0  0  0  0  0  0  0  0  0
   44.5180   36.0920   44.5460 N   0  0  0  0  0  0  0  0  0  0  0  0
   45.0460   36.8570   42.6820 H   0  0  0  0  0  0  0  0  0  0  0  0
   46.9870   33.2190   43.8880 H   0  0  0  0  0  0  0  0  0  0  0  0
   44.1680   35.0820   46.4040 H   0  0  0  0  0  0  0  0  0  0  0  0
   48.3250   34.9480   42.1440 C   0  0  0  0  0  0  0  0  0  0  0  0
   48.5410   33.9430   42.5410 H   0  0  0  0  0  0  0  0  0  0  0  0
   48.8800   35.1720   41.2080 H   0  0  0  0  0  0  0  0  0  0  0  0
   48.5790   35.6950   42.9310 H   0  0  0  0  0  0  0  0  0  0  0  0
  1  2  1  6  0  0  0
  1 22  1  0  0  0  0
  1 14  1  0  0  0  0
  3  1  1  0  0  0  0
  4  3  1  0  0  0  0
  4  5  1  0  0  0  0
  6  8  1  0  0  0  0
  6  4  1  0  0  0  0
  7  6  1  0  0  0  0
  8  9  1  0  0  0  0
  9 10  1  0  0  0  0
  9 11  1  0  0  0  0
 11  3  1  0  0  0  0
 11 12  1  0  0  0  0
 13 18  1  0  0  0  0
 14 13  2  0  0  0  0
 14 15  1  0  0  0  0
 15 16  2  0  0  0  0
 16 17  1  0  0  0  0
 17 21  1  0  0  0  0
 18 17  2  0  0  0  0
 19 13  1  0  0  0  0
 20 15  1  0  0  0  0
 22 23  1  0  0  0  0
 22 25  1  0  0  0  0
 24 22  1  0  0  0  0
M  END
>  <minimizedAffinity>
-4.08805275

>  <minimizedRMSD>
0.937588453

$$$$
