
 OpenBabel03242510583D

 37 39  0  0  0  0  0  0  0  0999 V2000
   39.6680   32.4870   40.4690 C   0  0  0  0  0  0  0  0  0  0  0  0
   38.8210   33.3120   39.7320 C   0  0  0  0  0  0  0  0  0  0  0  0
   37.4700   33.0780   39.5700 C   0  0  0  0  0  0  0  0  0  0  0  0
   36.9470   31.9620   40.1790 C   0  0  0  0  0  0  0  0  0  0  0  0
   37.7950   31.1320   40.9200 C   0  0  0  0  0  0  0  0  0  0  0  0
   39.0880   31.4170   41.0350 N   0  0  0  0  0  0  0  0  0  0  0  0
   39.2830   34.1760   39.2720 H   0  0  0  0  0  0  0  0  0  0  0  0
   36.8940   33.7730   38.9800 H   0  0  0  0  0  0  0  0  0  0  0  0
   35.8870   31.7920   40.0430 H   0  0  0  0  0  0  0  0  0  0  0  0
   44.4540   35.6610   42.3300 C   0  0  0  0  0  0  0  0  0  0  0  0
   45.4290   34.9840   41.5840 C   0  0  0  0  0  0  0  0  0  0  0  0
   45.0140   33.9700   40.6990 C   0  0  0  0  0  0  0  0  0  0  0  0
   43.6820   33.6950   40.6090 N   0  0  0  0  0  0  0  0  0  0  0  0
   42.7780   34.3710   41.3460 C   0  0  0  0  0  0  0  0  0  0  0  0
   43.1570   35.3660   42.2180 N   0  0  0  0  0  0  0  0  0  0  0  0
   41.0840   32.8070   40.5890 C   0  0  0  0  0  0  0  0  0  0  0  0
   41.9300   32.0060   40.1450 O   0  0  0  0  0  0  0  0  0  0  0  0
   41.3940   34.0600   41.2290 N   0  0  0  0  0  0  0  0  0  0  0  0
   44.7620   36.4420   43.0130 H   0  0  0  0  0  0  0  0  0  0  0  0
   46.4820   35.2180   41.6690 H   0  0  0  0  0  0  0  0  0  0  0  0
   45.7110   33.4180   40.1030 H   0  0  0  0  0  0  0  0  0  0  0  0
   40.6750   34.7370   41.6050 H   0  0  0  0  0  0  0  0  0  0  0  0
   37.2310   29.9610   41.5570 C   0  0  0  0  0  3  0  0  0  0  0  0
   37.7840   29.4430   42.6330 C   0  0  0  0  0  3  0  0  0  0  0  0
   37.3420   28.2530   43.4070 C   0  0  0  0  0  0  0  0  0  0  0  0
   36.8740   28.5200   44.3620 H   0  0  0  0  0  0  0  0  0  0  0  0
   36.5920   27.7440   42.7680 H   0  0  0  0  0  0  0  0  0  0  0  0
   38.5130   27.3190   43.5510 C   0  0  0  0  0  3  0  0  0  0  0  0
   38.3540   26.0320   42.8000 C   0  0  0  0  0  3  0  0  0  0  0  0
   38.2390   26.2790   41.7080 H   0  0  0  0  0  0  0  0  0  0  0  0
   39.6840   25.2930   42.8960 C   0  0  0  0  0  3  0  0  0  0  0  0
   40.2450   25.2780   41.9550 H   0  0  0  0  0  0  0  0  0  0  0  0
   40.4690   25.7740   43.9420 O   0  0  0  0  0  0  0  0  0  0  0  0
   40.9360   27.0610   43.6900 C   0  0  0  0  0  3  0  0  0  0  0  0
   41.2730   27.4850   44.6490 H   0  0  0  0  0  0  0  0  0  0  0  0
   39.8170   27.9550   43.1700 C   0  0  0  0  0  3  0  0  0  0  0  0
   39.9170   28.9910   43.5660 H   0  0  0  0  0  0  0  0  0  0  0  0
  1 16  1  0  0  0  0
  1  6  1  0  0  0  0
  2  1  2  0  0  0  0
  3  2  1  0  0  0  0
  3  4  2  0  0  0  0
  4  5  1  0  0  0  0
  5  6  2  0  0  0  0
  5 23  1  0  0  0  0
  7  2  1  0  0  0  0
  8  3  1  0  0  0  0
  9  4  1  0  0  0  0
 10 19  1  0  0  0  0
 11 20  1  0  0  0  0
 11 10  2  0  0  0  0
 12 11  1  0  0  0  0
 13 12  2  0  0  0  0
 13 14  1  0  0  0  0
 14 15  2  0  0  0  0
 15 10  1  0  0  0  0
 16 18  1  0  0  0  0
 17 16  2  0  0  0  0
 18 14  1  0  0  0  0
 18 22  1  0  0  0  0
 21 12  1  0  0  0  0
 23 24  2  0  0  0  0
 24 25  1  0  0  0  0
 25 28  1  0  0  0  0
 25 26  1  0  0  0  0
 27 25  1  0  0  0  0
 29 31  1  0  0  0  0
 29 28  1  0  0  0  0
 30 29  1  0  0  0  0
 31 33  1  0  0  0  0
 32 31  1  0  0  0  0
 34 33  1  0  0  0  0
 34 35  1  0  0  0  0
 36 28  1  0  0  0  0
 36 37  1  0  0  0  0
 36 34  1  0  0  0  0
M  END
>  <minimizedAffinity>
-6.49532747

$$$$

 OpenBabel03242510583D

 37 39  0  0  0  0  0  0  0  0999 V2000
   40.9160   33.7730   39.0310 C   0  0  0  0  0  0  0  0  0  0  0  0
   40.9650   35.0770   39.5220 C   0  0  0  0  0  0  0  0  0  0  0  0
   39.9530   35.6580   40.2580 C   0  0  0  0  0  0  0  0  0  0  0  0
   38.8400   34.8930   40.5150 C   0  0  0  0  0  0  0  0  0  0  0  0
   38.7890   33.5840   40.0240 C   0  0  0  0  0  0  0  0  0  0  0  0
   39.8000   33.0860   39.3200 N   0  0  0  0  0  0  0  0  0  0  0  0
   41.8620   35.6370   39.2920 H   0  0  0  0  0  0  0  0  0  0  0  0
   40.0800   36.6750   40.5950 H   0  0  0  0  0  0  0  0  0  0  0  0
   38.0560   35.3630   41.0940 H   0  0  0  0  0  0  0  0  0  0  0  0
   43.6820   29.8820   35.3360 C   0  0  0  0  0  0  0  0  0  0  0  0
   44.9780   30.4050   35.4510 C   0  0  0  0  0  0  0  0  0  0  0  0
   45.1940   31.4760   36.3390 C   0  0  0  0  0  0  0  0  0  0  0  0
   44.1320   31.9560   37.0460 N   0  0  0  0  0  0  0  0  0  0  0  0
   42.9020   31.4230   36.9040 C   0  0  0  0  0  0  0  0  0  0  0  0
   42.6630   30.3750   36.0440 N   0  0  0  0  0  0  0  0  0  0  0  0
   42.0300   33.2360   38.2600 C   0  0  0  0  0  0  0  0  0  0  0  0
   43.0810   33.8990   38.1650 O   0  0  0  0  0  0  0  0  0  0  0  0
   41.8130   31.9460   37.6560 N   0  0  0  0  0  0  0  0  0  0  0  0
   43.5050   29.0580   34.6570 H   0  0  0  0  0  0  0  0  0  0  0  0
   45.8090   30.0090   34.8810 H   0  0  0  0  0  0  0  0  0  0  0  0
   46.1610   31.9170   36.4700 H   0  0  0  0  0  0  0  0  0  0  0  0
   40.9200   31.3870   37.7380 H   0  0  0  0  0  0  0  0  0  0  0  0
   37.6120   32.7890   40.3020 C   0  0  0  0  0  3  0  0  0  0  0  0
   37.7170   31.5300   40.6740 C   0  0  0  0  0  3  0  0  0  0  0  0
   36.6230   30.5760   40.9940 C   0  0  0  0  0  0  0  0  0  0  0  0
   35.8880   30.9950   41.6920 H   0  0  0  0  0  0  0  0  0  0  0  0
   36.1220   30.3620   40.0280 H   0  0  0  0  0  0  0  0  0  0  0  0
   37.2410   29.2890   41.4710 C   0  0  0  0  0  3  0  0  0  0  0  0
   37.7210   29.3400   42.8890 C   0  0  0  0  0  3  0  0  0  0  0  0
   36.8360   29.5650   43.5480 H   0  0  0  0  0  0  0  0  0  0  0  0
   38.1410   27.9240   43.2690 C   0  0  0  0  0  3  0  0  0  0  0  0
   37.4510   27.4360   43.9670 H   0  0  0  0  0  0  0  0  0  0  0  0
   38.3610   27.1320   42.1440 O   0  0  0  0  0  0  0  0  0  0  0  0
   37.1770   26.8500   41.4680 C   0  0  0  0  0  3  0  0  0  0  0  0
   37.4470   26.4990   40.4600 H   0  0  0  0  0  0  0  0  0  0  0  0
   36.3340   28.1070   41.2980 C   0  0  0  0  0  3  0  0  0  0  0  0
   35.8150   28.1090   40.3130 H   0  0  0  0  0  0  0  0  0  0  0  0
  1  6  2  0  0  0  0
  1  2  1  0  0  0  0
  2  3  2  0  0  0  0
  3  4  1  0  0  0  0
  3  8  1  0  0  0  0
  4  9  1  0  0  0  0
  5 23  1  0  0  0  0
  5  4  2  0  0  0  0
  6  5  1  0  0  0  0
  7  2  1  0  0  0  0
 10 11  2  0  0  0  0
 10 15  1  0  0  0  0
 11 12  1  0  0  0  0
 12 21  1  0  0  0  0
 12 13  2  0  0  0  0
 14 13  1  0  0  0  0
 14 18  1  0  0  0  0
 15 14  2  0  0  0  0
 16  1  1  0  0  0  0
 17 16  2  0  0  0  0
 18 22  1  0  0  0  0
 18 16  1  0  0  0  0
 19 10  1  0  0  0  0
 20 11  1  0  0  0  0
 23 24  2  0  0  0  0
 24 25  1  0  0  0  0
 25 28  1  0  0  0  0
 25 26  1  0  0  0  0
 27 25  1  0  0  0  0
 28 29  1  0  0  0  0
 29 31  1  0  0  0  0
 29 30  1  0  0  0  0
 31 32  1  0  0  0  0
 33 31  1  0  0  0  0
 34 33  1  0  0  0  0
 35 34  1  0  0  0  0
 36 34  1  0  0  0  0
 36 28  1  0  0  0  0
 37 36  1  0  0  0  0
M  END
>  <minimizedAffinity>
-6.27996159

$$$$

 OpenBabel03242510583D

 37 39  0  0  0  0  0  0  0  0999 V2000
   37.2100   30.8020   40.8050 C   0  0  0  0  0  0  0  0  0  0  0  0
   36.0570   30.4380   40.1110 C   0  0  0  0  0  0  0  0  0  0  0  0
   35.3560   29.2720   40.3460 C   0  0  0  0  0  0  0  0  0  0  0  0
   35.8350   28.4340   41.3240 C   0  0  0  0  0  0  0  0  0  0  0  0
   36.9920   28.7970   42.0220 C   0  0  0  0  0  0  0  0  0  0  0  0
   37.6190   29.9360   41.7450 N   0  0  0  0  0  0  0  0  0  0  0  0
   35.7220   31.1320   39.3520 H   0  0  0  0  0  0  0  0  0  0  0  0
   34.4740   29.0750   39.7570 H   0  0  0  0  0  0  0  0  0  0  0  0
   35.2740   27.5250   41.4960 H   0  0  0  0  0  0  0  0  0  0  0  0
   41.9590   34.4790   40.1970 C   0  0  0  0  0  0  0  0  0  0  0  0
   41.2490   35.6580   39.9300 C   0  0  0  0  0  0  0  0  0  0  0  0
   39.8420   35.6180   39.9670 C   0  0  0  0  0  0  0  0  0  0  0  0
   39.2350   34.4340   40.2610 N   0  0  0  0  0  0  0  0  0  0  0  0
   39.9570   33.3230   40.5110 C   0  0  0  0  0  0  0  0  0  0  0  0
   41.3330   33.3350   40.4820 N   0  0  0  0  0  0  0  0  0  0  0  0
   37.8900   32.0520   40.4940 C   0  0  0  0  0  0  0  0  0  0  0  0
   37.2440   32.9870   39.9830 O   0  0  0  0  0  0  0  0  0  0  0  0
   39.2940   32.1010   40.8160 N   0  0  0  0  0  0  0  0  0  0  0  0
   43.0400   34.4980   40.1710 H   0  0  0  0  0  0  0  0  0  0  0  0
   41.7500   36.5890   39.6980 H   0  0  0  0  0  0  0  0  0  0  0  0
   39.2450   36.4850   39.7720 H   0  0  0  0  0  0  0  0  0  0  0  0
   39.8390   31.3060   41.2490 H   0  0  0  0  0  0  0  0  0  0  0  0
   37.4850   27.9060   43.0500 C   0  0  0  0  0  3  0  0  0  0  0  0
   38.7550   27.5610   43.0940 C   0  0  0  0  0  3  0  0  0  0  0  0
   39.4260   26.6620   44.0700 C   0  0  0  0  0  0  0  0  0  0  0  0
   39.1830   26.9120   45.1100 H   0  0  0  0  0  0  0  0  0  0  0  0
   39.0480   25.6440   43.8460 H   0  0  0  0  0  0  0  0  0  0  0  0
   40.9030   26.6650   43.7800 C   0  0  0  0  0  3  0  0  0  0  0  0
   41.3850   25.4200   43.1020 C   0  0  0  0  0  3  0  0  0  0  0  0
   40.8400   25.3240   42.1220 H   0  0  0  0  0  0  0  0  0  0  0  0
   42.8420   25.6580   42.7160 C   0  0  0  0  0  3  0  0  0  0  0  0
   42.9920   25.7930   41.6390 H   0  0  0  0  0  0  0  0  0  0  0  0
   43.4010   26.7100   43.4380 O   0  0  0  0  0  0  0  0  0  0  0  0
   42.8590   27.9380   43.0700 C   0  0  0  0  0  3  0  0  0  0  0  0
   43.1060   28.6610   43.8630 H   0  0  0  0  0  0  0  0  0  0  0  0
   41.3390   27.8610   42.9880 C   0  0  0  0  0  3  0  0  0  0  0  0
   40.8720   28.8050   43.3490 H   0  0  0  0  0  0  0  0  0  0  0  0
  1  6  1  0  0  0  0
  2  3  1  0  0  0  0
  2  1  2  0  0  0  0
  3  4  2  0  0  0  0
  4  9  1  0  0  0  0
  4  5  1  0  0  0  0
  5 23  1  0  0  0  0
  6  5  2  0  0  0  0
  7  2  1  0  0  0  0
  8  3  1  0  0  0  0
 10 15  1  0  0  0  0
 11 12  1  0  0  0  0
 11 10  2  0  0  0  0
 12 13  2  0  0  0  0
 13 14  1  0  0  0  0
 14 18  1  0  0  0  0
 15 14  2  0  0  0  0
 16  1  1  0  0  0  0
 16 18  1  0  0  0  0
 17 16  2  0  0  0  0
 18 22  1  0  0  0  0
 19 10  1  0  0  0  0
 20 11  1  0  0  0  0
 21 12  1  0  0  0  0
 23 24  2  0  0  0  0
 24 25  1  0  0  0  0
 25 26  1  0  0  0  0
 27 25  1  0  0  0  0
 28 25  1  0  0  0  0
 29 28  1  0  0  0  0
 30 29  1  0  0  0  0
 31 29  1  0  0  0  0
 31 33  1  0  0  0  0
 32 31  1  0  0  0  0
 34 33  1  0  0  0  0
 34 35  1  0  0  0  0
 36 34  1  0  0  0  0
 36 37  1  0  0  0  0
 36 28  1  0  0  0  0
M  END
>  <minimizedAffinity>
-6.27698612

$$$$

 OpenBabel03242510583D

 37 39  0  0  0  0  0  0  0  0999 V2000
   39.7080   32.0490   40.5760 C   0  0  0  0  0  0  0  0  0  0  0  0
   38.6730   32.6870   39.8930 C   0  0  0  0  0  0  0  0  0  0  0  0
   37.3490   32.3070   39.9770 C   0  0  0  0  0  0  0  0  0  0  0  0
   37.0500   31.2380   40.7870 C   0  0  0  0  0  0  0  0  0  0  0  0
   38.0860   30.5960   41.4750 C   0  0  0  0  0  0  0  0  0  0  0  0
   39.3420   31.0130   41.3470 N   0  0  0  0  0  0  0  0  0  0  0  0
   38.9610   33.5220   39.2690 H   0  0  0  0  0  0  0  0  0  0  0  0
   36.6170   32.8610   39.4110 H   0  0  0  0  0  0  0  0  0  0  0  0
   36.0080   30.9520   40.8440 H   0  0  0  0  0  0  0  0  0  0  0  0
   44.7170   35.0070   42.1880 C   0  0  0  0  0  0  0  0  0  0  0  0
   45.4410   34.8070   41.0040 C   0  0  0  0  0  0  0  0  0  0  0  0
   44.8120   34.1380   39.9370 C   0  0  0  0  0  0  0  0  0  0  0  0
   43.5270   33.7160   40.1040 N   0  0  0  0  0  0  0  0  0  0  0  0
   42.8670   33.9290   41.2610 C   0  0  0  0  0  0  0  0  0  0  0  0
   43.4590   34.5810   42.3190 N   0  0  0  0  0  0  0  0  0  0  0  0
   41.0810   32.5140   40.4300 C   0  0  0  0  0  0  0  0  0  0  0  0
   41.7780   32.0700   39.4970 O   0  0  0  0  0  0  0  0  0  0  0  0
   41.5260   33.4770   41.4050 N   0  0  0  0  0  0  0  0  0  0  0  0
   45.1910   35.5200   43.0150 H   0  0  0  0  0  0  0  0  0  0  0  0
   46.4610   35.1500   40.8910 H   0  0  0  0  0  0  0  0  0  0  0  0
   45.3130   33.9560   39.0080 H   0  0  0  0  0  0  0  0  0  0  0  0
   40.9320   33.8500   42.1950 H   0  0  0  0  0  0  0  0  0  0  0  0
   37.7580   29.4710   42.3240 C   0  0  0  0  0  3  0  0  0  0  0  0
   37.0860   28.4410   41.8550 C   0  0  0  0  0  3  0  0  0  0  0  0
   36.6650   27.2140   42.5810 C   0  0  0  0  0  0  0  0  0  0  0  0
   36.6320   27.3580   43.6680 H   0  0  0  0  0  0  0  0  0  0  0  0
   35.6430   26.9880   42.2160 H   0  0  0  0  0  0  0  0  0  0  0  0
   37.5550   26.0800   42.1500 C   0  0  0  0  0  3  0  0  0  0  0  0
   38.8410   25.9990   42.9150 C   0  0  0  0  0  3  0  0  0  0  0  0
   38.5900   25.8490   44.0020 H   0  0  0  0  0  0  0  0  0  0  0  0
   39.5300   24.7060   42.4910 C   0  0  0  0  0  3  0  0  0  0  0  0
   39.5150   23.9290   43.2640 H   0  0  0  0  0  0  0  0  0  0  0  0
   39.0280   24.2240   41.2840 O   0  0  0  0  0  0  0  0  0  0  0  0
   37.7220   23.7590   41.4150 C   0  0  0  0  0  3  0  0  0  0  0  0
   37.2930   23.6870   40.4030 H   0  0  0  0  0  0  0  0  0  0  0  0
   36.8670   24.7480   42.1970 C   0  0  0  0  0  3  0  0  0  0  0  0
   35.8310   24.7900   41.7900 H   0  0  0  0  0  0  0  0  0  0  0  0
  1  6  1  0  0  0  0
  2  3  1  0  0  0  0
  2  1  2  0  0  0  0
  3  4  2  0  0  0  0
  4  9  1  0  0  0  0
  4  5  1  0  0  0  0
  5 23  1  0  0  0  0
  6  5  2  0  0  0  0
  7  2  1  0  0  0  0
  8  3  1  0  0  0  0
 10 15  1  0  0  0  0
 10 19  1  0  0  0  0
 11 10  2  0  0  0  0
 12 13  2  0  0  0  0
 12 11  1  0  0  0  0
 13 14  1  0  0  0  0
 14 18  1  0  0  0  0
 14 15  2  0  0  0  0
 16  1  1  0  0  0  0
 16 18  1  0  0  0  0
 17 16  2  0  0  0  0
 18 22  1  0  0  0  0
 20 11  1  0  0  0  0
 21 12  1  0  0  0  0
 24 23  2  0  0  0  0
 24 25  1  0  0  0  0
 25 26  1  0  0  0  0
 27 25  1  0  0  0  0
 28 36  1  0  0  0  0
 28 25  1  0  0  0  0
 28 29  1  0  0  0  0
 29 30  1  0  0  0  0
 31 29  1  0  0  0  0
 31 32  1  0  0  0  0
 33 34  1  0  0  0  0
 33 31  1  0  0  0  0
 34 36  1  0  0  0  0
 35 34  1  0  0  0  0
 37 36  1  0  0  0  0
M  END
>  <minimizedAffinity>
-6.07705498

$$$$

 OpenBabel03242510583D

 37 39  0  0  0  0  0  0  0  0999 V2000
   37.9220   30.1740   38.8900 C   0  0  0  0  0  0  0  0  0  0  0  0
   36.7470   30.2190   38.1410 C   0  0  0  0  0  0  0  0  0  0  0  0
   35.6090   29.5020   38.4540 C   0  0  0  0  0  0  0  0  0  0  0  0
   35.6540   28.7050   39.5720 C   0  0  0  0  0  0  0  0  0  0  0  0
   36.8310   28.6590   40.3270 C   0  0  0  0  0  0  0  0  0  0  0  0
   37.8920   29.3750   39.9680 N   0  0  0  0  0  0  0  0  0  0  0  0
   36.7640   30.8610   37.2700 H   0  0  0  0  0  0  0  0  0  0  0  0
   34.7470   29.6000   37.8130 H   0  0  0  0  0  0  0  0  0  0  0  0
   34.7540   28.1500   39.8050 H   0  0  0  0  0  0  0  0  0  0  0  0
   41.7010   34.8790   39.0570 C   0  0  0  0  0  0  0  0  0  0  0  0
   42.4750   34.5350   37.9400 C   0  0  0  0  0  0  0  0  0  0  0  0
   42.1130   33.3970   37.1950 C   0  0  0  0  0  0  0  0  0  0  0  0
   41.0250   32.6810   37.5950 N   0  0  0  0  0  0  0  0  0  0  0  0
   40.3080   33.0470   38.6770 C   0  0  0  0  0  0  0  0  0  0  0  0
   40.6400   34.1550   39.4220 N   0  0  0  0  0  0  0  0  0  0  0  0
   39.0790   30.9630   38.4890 C   0  0  0  0  0  0  0  0  0  0  0  0
   39.9010   30.4750   37.6890 O   0  0  0  0  0  0  0  0  0  0  0  0
   39.1770   32.2780   39.0700 N   0  0  0  0  0  0  0  0  0  0  0  0
   41.9710   35.7520   39.6370 H   0  0  0  0  0  0  0  0  0  0  0  0
   43.3360   35.1180   37.6380 H   0  0  0  0  0  0  0  0  0  0  0  0
   42.6650   33.0850   36.3320 H   0  0  0  0  0  0  0  0  0  0  0  0
   38.4790   32.6880   39.7490 H   0  0  0  0  0  0  0  0  0  0  0  0
   36.8650   27.8160   41.5030 C   0  0  0  0  0  3  0  0  0  0  0  0
   37.7150   28.0510   42.4800 C   0  0  0  0  0  3  0  0  0  0  0  0
   37.8860   27.2920   43.7470 C   0  0  0  0  0  0  0  0  0  0  0  0
   37.5650   27.8630   44.6280 H   0  0  0  0  0  0  0  0  0  0  0  0
   37.2420   26.3940   43.6460 H   0  0  0  0  0  0  0  0  0  0  0  0
   39.3110   26.8140   43.8260 C   0  0  0  0  0  3  0  0  0  0  0  0
   39.5390   25.4890   43.1650 C   0  0  0  0  0  3  0  0  0  0  0  0
   39.2670   25.5920   42.0770 H   0  0  0  0  0  0  0  0  0  0  0  0
   41.0440   25.2420   43.1700 C   0  0  0  0  0  3  0  0  0  0  0  0
   41.5050   25.3360   42.1800 H   0  0  0  0  0  0  0  0  0  0  0  0
   41.6950   26.0410   44.1070 O   0  0  0  0  0  0  0  0  0  0  0  0
   41.6820   27.3850   43.7420 C   0  0  0  0  0  3  0  0  0  0  0  0
   41.9260   27.9750   44.6390 H   0  0  0  0  0  0  0  0  0  0  0  0
   40.2910   27.8120   43.2860 C   0  0  0  0  0  3  0  0  0  0  0  0
   40.0660   28.8510   43.6150 H   0  0  0  0  0  0  0  0  0  0  0  0
  1  6  1  0  0  0  0
  2  3  1  0  0  0  0
  2  1  2  0  0  0  0
  3  4  2  0  0  0  0
  4  9  1  0  0  0  0
  4  5  1  0  0  0  0
  5 23  1  0  0  0  0
  6  5  2  0  0  0  0
  7  2  1  0  0  0  0
  8  3  1  0  0  0  0
 10 15  1  0  0  0  0
 10 19  1  0  0  0  0
 11 10  2  0  0  0  0
 12 13  2  0  0  0  0
 12 11  1  0  0  0  0
 13 14  1  0  0  0  0
 14 18  1  0  0  0  0
 14 15  2  0  0  0  0
 16  1  1  0  0  0  0
 16 18  1  0  0  0  0
 17 16  2  0  0  0  0
 18 22  1  0  0  0  0
 20 11  1  0  0  0  0
 21 12  1  0  0  0  0
 23 24  2  0  0  0  0
 24 25  1  0  0  0  0
 25 28  1  0  0  0  0
 25 26  1  0  0  0  0
 27 25  1  0  0  0  0
 29 31  1  0  0  0  0
 29 28  1  0  0  0  0
 30 29  1  0  0  0  0
 31 33  1  0  0  0  0
 32 31  1  0  0  0  0
 34 33  1  0  0  0  0
 34 35  1  0  0  0  0
 36 37  1  0  0  0  0
 36 34  1  0  0  0  0
 36 28  1  0  0  0  0
M  END
>  <minimizedAffinity>
-5.85031891

$$$$

 OpenBabel03242510583D

 37 39  0  0  0  0  0  0  0  0999 V2000
   37.6620   29.3750   41.8360 C   0  0  0  0  0  0  0  0  0  0  0  0
   37.6960   29.1190   43.2060 C   0  0  0  0  0  0  0  0  0  0  0  0
   37.4740   27.8740   43.7600 C   0  0  0  0  0  0  0  0  0  0  0  0
   37.2060   26.8380   42.8960 C   0  0  0  0  0  0  0  0  0  0  0  0
   37.1720   27.0930   41.5210 C   0  0  0  0  0  0  0  0  0  0  0  0
   37.3940   28.3180   41.0540 N   0  0  0  0  0  0  0  0  0  0  0  0
   37.9100   29.9670   43.8420 H   0  0  0  0  0  0  0  0  0  0  0  0
   37.5200   27.7720   44.8320 H   0  0  0  0  0  0  0  0  0  0  0  0
   37.0350   25.8690   43.3450 H   0  0  0  0  0  0  0  0  0  0  0  0
   41.0290   34.1260   40.2440 C   0  0  0  0  0  0  0  0  0  0  0  0
   39.9810   35.0240   40.0010 C   0  0  0  0  0  0  0  0  0  0  0  0
   38.6620   34.6020   40.2540 C   0  0  0  0  0  0  0  0  0  0  0  0
   38.4650   33.3380   40.7240 N   0  0  0  0  0  0  0  0  0  0  0  0
   39.5030   32.5060   40.9430 C   0  0  0  0  0  0  0  0  0  0  0  0
   40.8020   32.8930   40.7040 N   0  0  0  0  0  0  0  0  0  0  0  0
   37.9070   30.7210   41.3340 C   0  0  0  0  0  0  0  0  0  0  0  0
   36.9590   31.3760   40.8590 O   0  0  0  0  0  0  0  0  0  0  0  0
   39.2650   31.1920   41.4340 N   0  0  0  0  0  0  0  0  0  0  0  0
   42.0470   34.4400   40.0520 H   0  0  0  0  0  0  0  0  0  0  0  0
   40.1580   36.0250   39.6280 H   0  0  0  0  0  0  0  0  0  0  0  0
   37.8200   35.2430   40.0890 H   0  0  0  0  0  0  0  0  0  0  0  0
   40.0670   30.6330   41.8360 H   0  0  0  0  0  0  0  0  0  0  0  0
   36.8900   25.9940   40.6230 C   0  0  0  0  0  3  0  0  0  0  0  0
   36.9030   24.7490   41.0510 C   0  0  0  0  0  3  0  0  0  0  0  0
   36.6410   23.5100   40.2720 C   0  0  0  0  0  0  0  0  0  0  0  0
   37.5430   22.9030   40.1280 H   0  0  0  0  0  0  0  0  0  0  0  0
   35.9090   22.9300   40.8720 H   0  0  0  0  0  0  0  0  0  0  0  0
   35.9610   23.8930   38.9860 C   0  0  0  0  0  3  0  0  0  0  0  0
   36.7830   23.6170   37.7640 C   0  0  0  0  0  3  0  0  0  0  0  0
   36.9920   22.5110   37.7290 H   0  0  0  0  0  0  0  0  0  0  0  0
   35.8900   23.8830   36.5570 C   0  0  0  0  0  3  0  0  0  0  0  0
   35.5780   22.9720   36.0340 H   0  0  0  0  0  0  0  0  0  0  0  0
   34.7910   24.6720   36.8910 O   0  0  0  0  0  0  0  0  0  0  0  0
   33.8880   23.9870   37.7010 C   0  0  0  0  0  3  0  0  0  0  0  0
   33.2280   24.7340   38.1670 H   0  0  0  0  0  0  0  0  0  0  0  0
   34.6110   23.2590   38.8280 C   0  0  0  0  0  3  0  0  0  0  0  0
   34.0150   23.2870   39.7680 H   0  0  0  0  0  0  0  0  0  0  0  0
  1  2  1  0  0  0  0
  2  3  2  0  0  0  0
  2  7  1  0  0  0  0
  3  8  1  0  0  0  0
  4  9  1  0  0  0  0
  4  3  1  0  0  0  0
  5  4  2  0  0  0  0
  6  5  1  0  0  0  0
  6  1  2  0  0  0  0
 10 15  1  0  0  0  0
 11 10  2  0  0  0  0
 11 12  1  0  0  0  0
 12 13  2  0  0  0  0
 13 14  1  0  0  0  0
 14 18  1  0  0  0  0
 15 14  2  0  0  0  0
 16 18  1  0  0  0  0
 16  1  1  0  0  0  0
 17 16  2  0  0  0  0
 18 22  1  0  0  0  0
 19 10  1  0  0  0  0
 20 11  1  0  0  0  0
 21 12  1  0  0  0  0
 23 24  2  0  0  0  0
 23  5  1  0  0  0  0
 25 27  1  0  0  0  0
 25 24  1  0  0  0  0
 26 25  1  0  0  0  0
 28 25  1  0  0  0  0
 29 28  1  0  0  0  0
 30 29  1  0  0  0  0
 31 33  1  0  0  0  0
 31 29  1  0  0  0  0
 32 31  1  0  0  0  0
 33 34  1  0  0  0  0
 34 35  1  0  0  0  0
 34 36  1  0  0  0  0
 36 28  1  0  0  0  0
 36 37  1  0  0  0  0
M  END
>  <minimizedAffinity>
-5.81322241

$$$$

 OpenBabel03242510583D

 37 39  0  0  0  0  0  0  0  0999 V2000
   37.7090   30.6800   40.5330 C   0  0  0  0  0  0  0  0  0  0  0  0
   36.3500   30.7530   40.2310 C   0  0  0  0  0  0  0  0  0  0  0  0
   35.4500   29.7390   40.4900 C   0  0  0  0  0  0  0  0  0  0  0  0
   35.9380   28.5990   41.0810 C   0  0  0  0  0  0  0  0  0  0  0  0
   37.3020   28.5220   41.3860 C   0  0  0  0  0  0  0  0  0  0  0  0
   38.1150   29.5370   41.1080 N   0  0  0  0  0  0  0  0  0  0  0  0
   36.0170   31.6720   39.7670 H   0  0  0  0  0  0  0  0  0  0  0  0
   34.4170   29.8870   40.2200 H   0  0  0  0  0  0  0  0  0  0  0  0
   35.2210   27.8130   41.2780 H   0  0  0  0  0  0  0  0  0  0  0  0
   42.0210   33.6120   37.4920 C   0  0  0  0  0  0  0  0  0  0  0  0
   42.1170   34.7280   38.3340 C   0  0  0  0  0  0  0  0  0  0  0  0
   41.3360   34.7560   39.5050 C   0  0  0  0  0  0  0  0  0  0  0  0
   40.5210   33.6950   39.7650 N   0  0  0  0  0  0  0  0  0  0  0  0
   40.4580   32.6410   38.9260 C   0  0  0  0  0  0  0  0  0  0  0  0
   41.2120   32.5890   37.7760 N   0  0  0  0  0  0  0  0  0  0  0  0
   38.5910   31.7980   40.2260 C   0  0  0  0  0  0  0  0  0  0  0  0
   38.4360   32.8790   40.8260 O   0  0  0  0  0  0  0  0  0  0  0  0
   39.5980   31.5480   39.2250 N   0  0  0  0  0  0  0  0  0  0  0  0
   42.6170   33.5800   36.5890 H   0  0  0  0  0  0  0  0  0  0  0  0
   42.7710   35.5610   38.1110 H   0  0  0  0  0  0  0  0  0  0  0  0
   41.3660   35.5800   40.1880 H   0  0  0  0  0  0  0  0  0  0  0  0
   39.7250   30.6300   38.7170 H   0  0  0  0  0  0  0  0  0  0  0  0
   37.8030   27.3150   42.0080 C   0  0  0  0  0  3  0  0  0  0  0  0
   37.2120   26.1560   41.8090 C   0  0  0  0  0  3  0  0  0  0  0  0
   37.5890   24.8300   42.3660 C   0  0  0  0  0  0  0  0  0  0  0  0
   38.5900   24.8290   42.8150 H   0  0  0  0  0  0  0  0  0  0  0  0
   36.8400   24.6150   43.1560 H   0  0  0  0  0  0  0  0  0  0  0  0
   37.4100   23.7950   41.2890 C   0  0  0  0  0  3  0  0  0  0  0  0
   36.2040   24.0210   40.4300 C   0  0  0  0  0  3  0  0  0  0  0  0
   36.3150   25.0240   39.9320 H   0  0  0  0  0  0  0  0  0  0  0  0
   36.2730   23.0090   39.2900 C   0  0  0  0  0  3  0  0  0  0  0  0
   36.5200   23.4580   38.3220 H   0  0  0  0  0  0  0  0  0  0  0  0
   37.1300   21.9520   39.5880 O   0  0  0  0  0  0  0  0  0  0  0  0
   38.4620   22.3580   39.6200 C   0  0  0  0  0  3  0  0  0  0  0  0
   39.0340   21.5790   40.1470 H   0  0  0  0  0  0  0  0  0  0  0  0
   38.6200   23.6490   40.4140 C   0  0  0  0  0  3  0  0  0  0  0  0
   39.5690   23.6440   40.9970 H   0  0  0  0  0  0  0  0  0  0  0  0
  1  6  1  0  0  0  0
  2  3  1  0  0  0  0
  2  1  2  0  0  0  0
  3  4  2  0  0  0  0
  4  9  1  0  0  0  0
  4  5  1  0  0  0  0
  5 23  1  0  0  0  0
  6  5  2  0  0  0  0
  7  2  1  0  0  0  0
  8  3  1  0  0  0  0
 10 15  2  0  0  0  0
 10 11  1  0  0  0  0
 11 12  2  0  0  0  0
 12 13  1  0  0  0  0
 12 21  1  0  0  0  0
 14 18  1  0  0  0  0
 14 13  2  0  0  0  0
 15 14  1  0  0  0  0
 16  1  1  0  0  0  0
 16 17  2  0  0  0  0
 18 16  1  0  0  0  0
 19 10  1  0  0  0  0
 20 11  1  0  0  0  0
 22 18  1  0  0  0  0
 24 23  2  0  0  0  0
 24 25  1  0  0  0  0
 25 26  1  0  0  0  0
 25 27  1  0  0  0  0
 28 25  1  0  0  0  0
 29 28  1  0  0  0  0
 30 29  1  0  0  0  0
 31 33  1  0  0  0  0
 31 29  1  0  0  0  0
 32 31  1  0  0  0  0
 33 34  1  0  0  0  0
 34 35  1  0  0  0  0
 34 36  1  0  0  0  0
 36 37  1  0  0  0  0
 36 28  1  0  0  0  0
M  END
>  <minimizedAffinity>
-5.80891562

$$$$

 OpenBabel03242510583D

 37 39  0  0  0  0  0  0  0  0999 V2000
   37.1940   30.4030   39.6200 C   0  0  0  0  0  0  0  0  0  0  0  0
   36.8670   29.6880   40.7710 C   0  0  0  0  0  0  0  0  0  0  0  0
   35.8130   28.7990   40.8480 C   0  0  0  0  0  0  0  0  0  0  0  0
   35.0550   28.6200   39.7160 C   0  0  0  0  0  0  0  0  0  0  0  0
   35.3820   29.3360   38.5590 C   0  0  0  0  0  0  0  0  0  0  0  0
   36.4110   30.1780   38.5540 N   0  0  0  0  0  0  0  0  0  0  0  0
   37.4940   29.8650   41.6340 H   0  0  0  0  0  0  0  0  0  0  0  0
   35.6360   28.2910   41.7830 H   0  0  0  0  0  0  0  0  0  0  0  0
   34.2330   27.9200   39.7920 H   0  0  0  0  0  0  0  0  0  0  0  0
   40.0060   35.6610   40.5640 C   0  0  0  0  0  0  0  0  0  0  0  0
   41.2310   35.3270   39.9680 C   0  0  0  0  0  0  0  0  0  0  0  0
   41.3570   34.0670   39.3530 C   0  0  0  0  0  0  0  0  0  0  0  0
   40.2820   33.2290   39.3660 N   0  0  0  0  0  0  0  0  0  0  0  0
   39.1230   33.5910   39.9520 C   0  0  0  0  0  0  0  0  0  0  0  0
   38.9720   34.8160   40.5590 N   0  0  0  0  0  0  0  0  0  0  0  0
   38.3240   31.3240   39.6240 C   0  0  0  0  0  0  0  0  0  0  0  0
   39.4620   30.8920   39.3540 O   0  0  0  0  0  0  0  0  0  0  0  0
   38.0180   32.6940   39.9480 N   0  0  0  0  0  0  0  0  0  0  0  0
   39.8980   36.6270   41.0400 H   0  0  0  0  0  0  0  0  0  0  0  0
   42.0730   36.0070   39.9680 H   0  0  0  0  0  0  0  0  0  0  0  0
   42.2670   33.7560   38.8820 H   0  0  0  0  0  0  0  0  0  0  0  0
   37.0520   33.0560   40.1780 H   0  0  0  0  0  0  0  0  0  0  0  0
   34.5750   29.1380   37.3740 C   0  0  0  0  0  3  0  0  0  0  0  0
   33.2730   28.9710   37.4620 C   0  0  0  0  0  3  0  0  0  0  0  0
   32.3010   28.7550   36.3580 C   0  0  0  0  0  0  0  0  0  0  0  0
   32.7170   28.1520   35.5410 H   0  0  0  0  0  0  0  0  0  0  0  0
   31.4500   28.2060   36.8120 H   0  0  0  0  0  0  0  0  0  0  0  0
   31.7810   30.0950   35.9140 C   0  0  0  0  0  3  0  0  0  0  0  0
   31.5740   30.2010   34.4340 C   0  0  0  0  0  3  0  0  0  0  0  0
   30.8210   29.4200   34.1320 H   0  0  0  0  0  0  0  0  0  0  0  0
   30.8790   31.5340   34.1760 C   0  0  0  0  0  3  0  0  0  0  0  0
   29.8270   31.4300   33.8870 H   0  0  0  0  0  0  0  0  0  0  0  0
   31.0210   32.4070   35.2520 O   0  0  0  0  0  0  0  0  0  0  0  0
   30.3000   31.9810   36.3640 C   0  0  0  0  0  3  0  0  0  0  0  0
   30.6900   32.5240   37.2400 H   0  0  0  0  0  0  0  0  0  0  0  0
   30.5210   30.4950   36.6200 C   0  0  0  0  0  3  0  0  0  0  0  0
   30.5570   30.2800   37.7120 H   0  0  0  0  0  0  0  0  0  0  0  0
  1 16  1  0  0  0  0
  1  2  1  0  0  0  0
  2  3  2  0  0  0  0
  2  7  1  0  0  0  0
  3  8  1  0  0  0  0
  4  9  1  0  0  0  0
  4  3  1  0  0  0  0
  5  4  2  0  0  0  0
  6  5  1  0  0  0  0
  6  1  2  0  0  0  0
 10 19  1  0  0  0  0
 11 10  2  0  0  0  0
 12 13  2  0  0  0  0
 12 11  1  0  0  0  0
 13 14  1  0  0  0  0
 14 15  2  0  0  0  0
 15 10  1  0  0  0  0
 16 18  1  0  0  0  0
 17 16  2  0  0  0  0
 18 14  1  0  0  0  0
 18 22  1  0  0  0  0
 20 11  1  0  0  0  0
 21 12  1  0  0  0  0
 23 24  2  0  0  0  0
 23  5  1  0  0  0  0
 25 27  1  0  0  0  0
 25 24  1  0  0  0  0
 26 25  1  0  0  0  0
 28 25  1  0  0  0  0
 28 36  1  0  0  0  0
 29 28  1  0  0  0  0
 30 29  1  0  0  0  0
 31 29  1  0  0  0  0
 31 33  1  0  0  0  0
 32 31  1  0  0  0  0
 33 34  1  0  0  0  0
 34 36  1  0  0  0  0
 34 35  1  0  0  0  0
 36 37  1  0  0  0  0
M  END
>  <minimizedAffinity>
-5.78702068

$$$$

 OpenBabel03242510583D

 37 39  0  0  0  0  0  0  0  0999 V2000
   38.3720   29.6020   41.9540 C   0  0  0  0  0  0  0  0  0  0  0  0
   38.0790   29.2710   43.2760 C   0  0  0  0  0  0  0  0  0  0  0  0
   37.3950   28.1320   43.6490 C   0  0  0  0  0  0  0  0  0  0  0  0
   36.9880   27.2840   42.6470 C   0  0  0  0  0  0  0  0  0  0  0  0
   37.2820   27.6120   41.3190 C   0  0  0  0  0  0  0  0  0  0  0  0
   37.9440   28.7280   41.0290 N   0  0  0  0  0  0  0  0  0  0  0  0
   38.4200   29.9720   44.0270 H   0  0  0  0  0  0  0  0  0  0  0  0
   37.2130   27.9610   44.6980 H   0  0  0  0  0  0  0  0  0  0  0  0
   36.4540   26.3950   42.9550 H   0  0  0  0  0  0  0  0  0  0  0  0
   38.9930   35.3200   40.1230 C   0  0  0  0  0  0  0  0  0  0  0  0
   40.3940   35.3670   40.1280 C   0  0  0  0  0  0  0  0  0  0  0  0
   41.1040   34.1920   40.4410 C   0  0  0  0  0  0  0  0  0  0  0  0
   40.3960   33.0620   40.7230 N   0  0  0  0  0  0  0  0  0  0  0  0
   39.0470   33.0620   40.7070 C   0  0  0  0  0  0  0  0  0  0  0  0
   38.3290   34.1970   40.4040 N   0  0  0  0  0  0  0  0  0  0  0  0
   39.0990   30.8260   41.6460 C   0  0  0  0  0  0  0  0  0  0  0  0
   40.3070   30.9080   41.9430 O   0  0  0  0  0  0  0  0  0  0  0  0
   38.3360   31.8670   41.0060 N   0  0  0  0  0  0  0  0  0  0  0  0
   38.4370   36.2180   39.8840 H   0  0  0  0  0  0  0  0  0  0  0  0
   40.9390   36.2740   39.9010 H   0  0  0  0  0  0  0  0  0  0  0  0
   42.1740   34.1650   40.4610 H   0  0  0  0  0  0  0  0  0  0  0  0
   37.3110   31.7940   40.7570 H   0  0  0  0  0  0  0  0  0  0  0  0
   36.8480   26.7110   40.2730 C   0  0  0  0  0  3  0  0  0  0  0  0
   36.2760   27.1690   39.1790 C   0  0  0  0  0  3  0  0  0  0  0  0
   35.7720   26.3910   38.0160 C   0  0  0  0  0  0  0  0  0  0  0  0
   36.5720   25.8590   37.4860 H   0  0  0  0  0  0  0  0  0  0  0  0
   35.0630   25.6500   38.4370 H   0  0  0  0  0  0  0  0  0  0  0  0
   34.9780   27.3170   37.1350 C   0  0  0  0  0  3  0  0  0  0  0  0
   34.0270   28.1960   37.8870 C   0  0  0  0  0  3  0  0  0  0  0  0
   34.6270   28.8270   38.6010 H   0  0  0  0  0  0  0  0  0  0  0  0
   33.4470   29.1870   36.8830 C   0  0  0  0  0  3  0  0  0  0  0  0
   33.8240   30.2090   37.0090 H   0  0  0  0  0  0  0  0  0  0  0  0
   33.6130   28.7500   35.5700 O   0  0  0  0  0  0  0  0  0  0  0  0
   34.9490   28.7770   35.1790 C   0  0  0  0  0  3  0  0  0  0  0  0
   35.0440   28.1490   34.2790 H   0  0  0  0  0  0  0  0  0  0  0  0
   35.8430   28.1660   36.2510 C   0  0  0  0  0  3  0  0  0  0  0  0
   36.6790   27.5910   35.7930 H   0  0  0  0  0  0  0  0  0  0  0  0
  1  2  1  0  0  0  0
  2  3  2  0  0  0  0
  2  7  1  0  0  0  0
  3  8  1  0  0  0  0
  4  9  1  0  0  0  0
  4  3  1  0  0  0  0
  5  4  2  0  0  0  0
  6  5  1  0  0  0  0
  6  1  2  0  0  0  0
 10 11  2  0  0  0  0
 10 15  1  0  0  0  0
 11 12  1  0  0  0  0
 12 21  1  0  0  0  0
 12 13  2  0  0  0  0
 14 13  1  0  0  0  0
 14 18  1  0  0  0  0
 15 14  2  0  0  0  0
 16 17  2  0  0  0  0
 16  1  1  0  0  0  0
 18 16  1  0  0  0  0
 19 10  1  0  0  0  0
 20 11  1  0  0  0  0
 22 18  1  0  0  0  0
 23  5  1  0  0  0  0
 24 23  2  0  0  0  0
 25 27  1  0  0  0  0
 25 24  1  0  0  0  0
 26 25  1  0  0  0  0
 28 29  1  0  0  0  0
 28 25  1  0  0  0  0
 29 30  1  0  0  0  0
 31 32  1  0  0  0  0
 31 29  1  0  0  0  0
 33 31  1  0  0  0  0
 34 33  1  0  0  0  0
 34 36  1  0  0  0  0
 35 34  1  0  0  0  0
 36 28  1  0  0  0  0
 37 36  1  0  0  0  0
M  END
>  <minimizedAffinity>
-5.76585102

$$$$
