
 OpenBabel03252500163D

 39 42  0  0  0  0  0  0  0  0999 V2000
   39.9050   31.2500   42.1440 Cl  0  0  0  0  0  0  0  0  0  0  0  0
   38.5360   31.0630   41.0900 C   0  0  0  0  0  0  0  0  0  0  0  0
   38.2290   32.0160   40.1700 C   0  0  0  0  0  0  0  0  0  0  0  0
   37.1400   31.8970   39.3120 C   0  0  0  0  0  0  0  0  0  0  0  0
   36.3880   30.7510   39.4480 C   0  0  0  0  0  0  0  0  0  0  0  0
   36.6950   29.7780   40.3810 C   0  0  0  0  0  0  0  0  0  0  0  0
   37.7610   29.9260   41.2010 C   0  0  0  0  0  0  0  0  0  0  0  0
   36.8900   32.6330   38.5900 H   0  0  0  0  0  0  0  0  0  0  0  0
   35.5220   30.5680   38.8260 H   0  0  0  0  0  0  0  0  0  0  0  0
   36.0860   28.8780   40.4730 H   0  0  0  0  0  0  0  0  0  0  0  0
   39.5240   35.4340   40.6970 C   0  0  0  0  0  0  0  0  0  0  0  0
   40.6710   35.4510   39.8630 C   0  0  0  0  0  0  0  0  0  0  0  0
   40.9780   34.3100   39.1470 C   0  0  0  0  0  0  0  0  0  0  0  0
   40.1600   33.2080   39.2710 N   0  0  0  0  0  0  0  0  0  0  0  0
   39.0730   33.2210   40.0720 C   0  0  0  0  0  0  0  0  0  0  0  0
   38.7610   34.3240   40.7760 N   0  0  0  0  0  0  0  0  0  0  0  0
   39.2950   36.3340   41.2520 H   0  0  0  0  0  0  0  0  0  0  0  0
   41.3050   36.3130   39.7720 H   0  0  0  0  0  0  0  0  0  0  0  0
   42.1660   34.2080   38.2330 C   0  0  0  0  0  0  0  0  0  0  0  0
   43.2480   33.7320   38.8980 F   0  0  0  0  0  0  0  0  0  0  0  0
   41.8340   33.3530   37.1870 F   0  0  0  0  0  0  0  0  0  0  0  0
   42.3770   35.4730   37.7320 F   0  0  0  0  0  0  0  0  0  0  0  0
   38.1030   28.9170   42.1890 C   0  0  0  0  0  0  0  0  0  0  0  0
   37.3560   28.6520   43.3420 C   0  0  0  0  0  0  0  0  0  0  0  0
   37.9600   27.6400   44.0540 C   0  0  0  0  0  0  0  0  0  0  0  0
   39.0690   27.3330   43.2810 C   0  0  0  0  0  0  0  0  0  0  0  0
   39.1270   28.0940   42.2020 O   0  0  0  0  0  0  0  0  0  0  0  0
   36.4350   29.1430   43.6640 H   0  0  0  0  0  0  0  0  0  0  0  0
   37.7030   27.1620   44.9680 H   0  0  0  0  0  0  0  0  0  0  0  0
   40.1390   26.3130   43.5090 C   0  0  0  0  0  3  0  0  0  0  0  0
   41.3210   27.0470   44.1340 C   0  0  0  0  0  3  0  0  0  0  0  0
   41.4850   27.9620   43.4960 H   0  0  0  0  0  0  0  0  0  0  0  0
   42.5780   26.2360   44.1500 C   0  0  0  0  0  3  0  0  0  0  0  0
   42.8470   26.0520   45.2100 H   0  0  0  0  0  0  0  0  0  0  0  0
   42.4290   25.0650   43.4360 O   0  0  0  0  0  0  0  0  0  0  0  0
   42.0300   25.4130   42.1360 C   0  0  0  0  0  3  0  0  0  0  0  0
   42.2300   24.5950   41.4140 H   0  0  0  0  0  0  0  0  0  0  0  0
   40.5570   25.7550   42.1840 C   0  0  0  0  0  3  0  0  0  0  0  0
   39.9790   24.8720   41.8890 H   0  0  0  0  0  0  0  0  0  0  0  0
  2  7  1  0  0  0  0
  2  1  1  0  0  0  0
  3  2  2  0  0  0  0
  4  5  2  0  0  0  0
  4  3  1  0  0  0  0
  5  6  1  0  0  0  0
  6 10  1  0  0  0  0
  6  7  2  0  0  0  0
  7 23  1  0  0  0  0
  8  4  1  0  0  0  0
  9  5  1  0  0  0  0
 11 16  1  0  0  0  0
 11 17  1  0  0  0  0
 12 11  2  0  0  0  0
 13 14  2  0  0  0  0
 13 12  1  0  0  0  0
 14 15  1  0  0  0  0
 15  3  1  0  0  0  0
 15 16  2  0  0  0  0
 18 12  1  0  0  0  0
 19 20  1  0  0  0  0
 19 13  1  0  0  0  0
 21 19  1  0  0  0  0
 22 19  1  0  0  0  0
 23 27  1  0  0  0  0
 23 24  2  0  0  0  0
 24 28  1  0  0  0  0
 24 25  1  0  0  0  0
 25 29  1  0  0  0  0
 26 30  1  0  0  0  0
 26 25  2  0  0  0  0
 27 26  1  0  0  0  0
 30 31  1  0  0  0  0
 31 33  1  0  0  0  0
 32 31  1  0  0  0  0
 33 34  1  0  0  0  0
 35 33  1  0  0  0  0
 36 38  1  0  0  0  0
 36 35  1  0  0  0  0
 37 36  1  0  0  0  0
 38 30  1  0  0  0  0
 39 38  1  0  0  0  0
M  END
>  <minimizedAffinity>
-7.10390425

$$$$

 OpenBabel03252500163D

 39 42  0  0  0  0  0  0  0  0999 V2000
   39.2460   31.0870   41.8450 Cl  0  0  0  0  0  0  0  0  0  0  0  0
   38.1570   30.8820   40.5060 C   0  0  0  0  0  0  0  0  0  0  0  0
   37.3190   29.8130   40.4470 C   0  0  0  0  0  0  0  0  0  0  0  0
   36.4360   29.6190   39.3880 C   0  0  0  0  0  0  0  0  0  0  0  0
   36.4610   30.5780   38.3990 C   0  0  0  0  0  0  0  0  0  0  0  0
   37.3120   31.6660   38.4530 C   0  0  0  0  0  0  0  0  0  0  0  0
   38.1580   31.8240   39.4970 C   0  0  0  0  0  0  0  0  0  0  0  0
   35.7760   28.7900   39.3300 H   0  0  0  0  0  0  0  0  0  0  0  0
   35.8110   30.5140   37.5360 H   0  0  0  0  0  0  0  0  0  0  0  0
   37.3150   32.4140   37.6590 H   0  0  0  0  0  0  0  0  0  0  0  0
   37.2950   28.3280   43.8280 C   0  0  0  0  0  0  0  0  0  0  0  0
   37.3750   26.9410   43.5440 C   0  0  0  0  0  0  0  0  0  0  0  0
   37.4340   26.5430   42.2230 C   0  0  0  0  0  0  0  0  0  0  0  0
   37.4130   27.5060   41.2380 N   0  0  0  0  0  0  0  0  0  0  0  0
   37.3380   28.8200   41.5370 C   0  0  0  0  0  0  0  0  0  0  0  0
   37.2800   29.2240   42.8190 N   0  0  0  0  0  0  0  0  0  0  0  0
   37.2500   28.6260   44.8660 H   0  0  0  0  0  0  0  0  0  0  0  0
   37.3900   26.1950   44.3180 H   0  0  0  0  0  0  0  0  0  0  0  0
   37.5200   25.1040   41.8010 C   0  0  0  0  0  0  0  0  0  0  0  0
   38.6390   24.5200   42.2950 F   0  0  0  0  0  0  0  0  0  0  0  0
   36.3890   24.4460   42.2750 F   0  0  0  0  0  0  0  0  0  0  0  0
   37.4960   25.1040   40.4240 F   0  0  0  0  0  0  0  0  0  0  0  0
   39.0600   32.9600   39.5760 C   0  0  0  0  0  0  0  0  0  0  0  0
   38.7100   34.2160   40.0850 C   0  0  0  0  0  0  0  0  0  0  0  0
   39.7980   35.0570   40.0120 C   0  0  0  0  0  0  0  0  0  0  0  0
   40.7770   34.2520   39.4500 C   0  0  0  0  0  0  0  0  0  0  0  0
   40.3180   33.0370   39.2070 O   0  0  0  0  0  0  0  0  0  0  0  0
   37.7420   34.5240   40.4860 H   0  0  0  0  0  0  0  0  0  0  0  0
   39.9320   36.0730   40.2930 H   0  0  0  0  0  0  0  0  0  0  0  0
   42.1970   34.5750   39.1080 C   0  0  0  0  0  3  0  0  0  0  0  0
   42.5620   33.7250   37.8950 C   0  0  0  0  0  3  0  0  0  0  0  0
   42.2230   32.6790   38.1430 H   0  0  0  0  0  0  0  0  0  0  0  0
   44.0300   33.7030   37.6090 C   0  0  0  0  0  3  0  0  0  0  0  0
   44.1890   34.1840   36.6220 H   0  0  0  0  0  0  0  0  0  0  0  0
   44.7470   34.3200   38.6140 O   0  0  0  0  0  0  0  0  0  0  0  0
   44.4230   33.6740   39.8180 C   0  0  0  0  0  3  0  0  0  0  0  0
   45.1930   33.8520   40.5970 H   0  0  0  0  0  0  0  0  0  0  0  0
   43.0680   34.1790   40.2610 C   0  0  0  0  0  3  0  0  0  0  0  0
   43.2110   34.9870   40.9880 H   0  0  0  0  0  0  0  0  0  0  0  0
  2  1  1  0  0  0  0
  3  2  1  0  0  0  0
  3 15  1  0  0  0  0
  4  3  2  0  0  0  0
  5  6  2  0  0  0  0
  5  4  1  0  0  0  0
  6  7  1  0  0  0  0
  7 23  1  0  0  0  0
  7  2  2  0  0  0  0
  8  4  1  0  0  0  0
  9  5  1  0  0  0  0
 10  6  1  0  0  0  0
 11 17  1  0  0  0  0
 12 11  1  0  0  0  0
 12 18  1  0  0  0  0
 13 12  2  0  0  0  0
 14 15  2  0  0  0  0
 14 13  1  0  0  0  0
 15 16  1  0  0  0  0
 16 11  2  0  0  0  0
 19 13  1  0  0  0  0
 19 21  1  0  0  0  0
 19 20  1  0  0  0  0
 22 19  1  0  0  0  0
 23 24  2  0  0  0  0
 24 28  1  0  0  0  0
 25 24  1  0  0  0  0
 25 29  1  0  0  0  0
 26 25  2  0  0  0  0
 27 26  1  0  0  0  0
 27 23  1  0  0  0  0
 30 26  1  0  0  0  0
 30 38  1  0  0  0  0
 31 32  1  0  0  0  0
 31 30  1  0  0  0  0
 33 31  1  0  0  0  0
 33 35  1  0  0  0  0
 34 33  1  0  0  0  0
 35 36  1  0  0  0  0
 36 38  1  0  0  0  0
 36 37  1  0  0  0  0
 38 39  1  0  0  0  0
M  END
>  <minimizedAffinity>
-6.7959528

$$$$

 OpenBabel03252500163D

 39 42  0  0  0  0  0  0  0  0999 V2000
   40.7340   30.4350   40.5390 Cl  0  0  0  0  0  0  0  0  0  0  0  0
   39.5230   31.6600   40.3090 C   0  0  0  0  0  0  0  0  0  0  0  0
   38.2000   31.3510   40.3620 C   0  0  0  0  0  0  0  0  0  0  0  0
   37.2060   32.3090   40.1820 C   0  0  0  0  0  0  0  0  0  0  0  0
   37.6430   33.5940   39.9460 C   0  0  0  0  0  0  0  0  0  0  0  0
   38.9870   33.9140   39.8900 C   0  0  0  0  0  0  0  0  0  0  0  0
   39.9270   32.9580   40.0690 C   0  0  0  0  0  0  0  0  0  0  0  0
   36.1700   32.0820   40.2210 H   0  0  0  0  0  0  0  0  0  0  0  0
   36.9460   34.4070   39.7940 H   0  0  0  0  0  0  0  0  0  0  0  0
   39.3110   34.9380   39.7020 H   0  0  0  0  0  0  0  0  0  0  0  0
   37.1790   27.8460   39.8100 C   0  0  0  0  0  0  0  0  0  0  0  0
   37.0410   27.3630   41.1370 C   0  0  0  0  0  0  0  0  0  0  0  0
   37.2960   28.2310   42.1800 C   0  0  0  0  0  0  0  0  0  0  0  0
   37.6720   29.5250   41.8920 N   0  0  0  0  0  0  0  0  0  0  0  0
   37.7940   29.9570   40.6190 C   0  0  0  0  0  0  0  0  0  0  0  0
   37.5500   29.1250   39.5910 N   0  0  0  0  0  0  0  0  0  0  0  0
   36.9760   27.1560   39.0020 H   0  0  0  0  0  0  0  0  0  0  0  0
   36.7480   26.3530   41.3540 H   0  0  0  0  0  0  0  0  0  0  0  0
   37.1840   27.8340   43.6250 C   0  0  0  0  0  0  0  0  0  0  0  0
   36.0340   27.1530   43.8520 F   0  0  0  0  0  0  0  0  0  0  0  0
   38.2810   27.0380   43.9400 F   0  0  0  0  0  0  0  0  0  0  0  0
   37.2510   29.0020   44.3520 F   0  0  0  0  0  0  0  0  0  0  0  0
   41.3450   33.2710   40.0160 C   0  0  0  0  0  0  0  0  0  0  0  0
   42.1470   33.1210   38.8790 C   0  0  0  0  0  0  0  0  0  0  0  0
   43.4350   33.5070   39.1750 C   0  0  0  0  0  0  0  0  0  0  0  0
   43.3500   33.8810   40.5080 C   0  0  0  0  0  0  0  0  0  0  0  0
   42.1210   33.7310   40.9700 O   0  0  0  0  0  0  0  0  0  0  0  0
   41.8430   32.7610   37.8940 H   0  0  0  0  0  0  0  0  0  0  0  0
   44.3210   33.5390   38.5880 H   0  0  0  0  0  0  0  0  0  0  0  0
   44.4140   34.3970   41.4230 C   0  0  0  0  0  3  0  0  0  0  0  0
   44.8480   33.2250   42.2980 C   0  0  0  0  0  3  0  0  0  0  0  0
   43.8950   32.7590   42.6800 H   0  0  0  0  0  0  0  0  0  0  0  0
   45.6880   33.6380   43.4650 C   0  0  0  0  0  3  0  0  0  0  0  0
   46.6940   33.1900   43.3320 H   0  0  0  0  0  0  0  0  0  0  0  0
   45.7370   35.0110   43.5870 O   0  0  0  0  0  0  0  0  0  0  0  0
   44.4150   35.4730   43.6850 C   0  0  0  0  0  3  0  0  0  0  0  0
   44.3680   36.4860   44.1340 H   0  0  0  0  0  0  0  0  0  0  0  0
   43.8200   35.4610   42.2940 C   0  0  0  0  0  3  0  0  0  0  0  0
   43.9060   36.4650   41.8630 H   0  0  0  0  0  0  0  0  0  0  0  0
  2  3  1  0  0  0  0
  2  1  1  0  0  0  0
  3 15  1  0  0  0  0
  4  8  1  0  0  0  0
  4  3  2  0  0  0  0
  5  4  1  0  0  0  0
  6  5  2  0  0  0  0
  6  7  1  0  0  0  0
  7  2  2  0  0  0  0
  9  5  1  0  0  0  0
 10  6  1  0  0  0  0
 11 12  1  0  0  0  0
 12 18  1  0  0  0  0
 12 13  2  0  0  0  0
 13 19  1  0  0  0  0
 14 13  1  0  0  0  0
 15 14  2  0  0  0  0
 16 11  2  0  0  0  0
 16 15  1  0  0  0  0
 17 11  1  0  0  0  0
 19 20  1  0  0  0  0
 19 21  1  0  0  0  0
 19 22  1  0  0  0  0
 23  7  1  0  0  0  0
 23 27  1  0  0  0  0
 24 25  1  0  0  0  0
 24 23  2  0  0  0  0
 25 26  2  0  0  0  0
 26 27  1  0  0  0  0
 26 30  1  0  0  0  0
 28 24  1  0  0  0  0
 29 25  1  0  0  0  0
 30 38  1  0  0  0  0
 30 31  1  0  0  0  0
 31 32  1  0  0  0  0
 31 33  1  0  0  0  0
 33 35  1  0  0  0  0
 34 33  1  0  0  0  0
 35 36  1  0  0  0  0
 36 37  1  0  0  0  0
 38 36  1  0  0  0  0
 39 38  1  0  0  0  0
M  END
>  <minimizedAffinity>
-6.66798019

$$$$

 OpenBabel03252500163D

 39 42  0  0  0  0  0  0  0  0999 V2000
   40.8000   31.4680   40.1150 Cl  0  0  0  0  0  0  0  0  0  0  0  0
   40.0420   33.0320   40.0880 C   0  0  0  0  0  0  0  0  0  0  0  0
   40.7890   34.1690   40.1050 C   0  0  0  0  0  0  0  0  0  0  0  0
   40.2130   35.4360   40.0850 C   0  0  0  0  0  0  0  0  0  0  0  0
   38.8370   35.4720   40.0450 C   0  0  0  0  0  0  0  0  0  0  0  0
   38.0720   34.3200   40.0280 C   0  0  0  0  0  0  0  0  0  0  0  0
   38.6640   33.1040   40.0500 C   0  0  0  0  0  0  0  0  0  0  0  0
   40.7840   36.3300   40.0970 H   0  0  0  0  0  0  0  0  0  0  0  0
   38.2980   36.4100   40.0270 H   0  0  0  0  0  0  0  0  0  0  0  0
   36.9830   34.3720   39.9970 H   0  0  0  0  0  0  0  0  0  0  0  0
   44.2760   34.3400   41.3070 C   0  0  0  0  0  0  0  0  0  0  0  0
   45.0010   33.8570   40.1870 C   0  0  0  0  0  0  0  0  0  0  0  0
   44.2960   33.4870   39.0590 C   0  0  0  0  0  0  0  0  0  0  0  0
   42.9230   33.6010   39.0660 N   0  0  0  0  0  0  0  0  0  0  0  0
   42.2590   34.0650   40.1460 C   0  0  0  0  0  0  0  0  0  0  0  0
   42.9310   34.4290   41.2530 N   0  0  0  0  0  0  0  0  0  0  0  0
   44.8400   34.6260   42.1830 H   0  0  0  0  0  0  0  0  0  0  0  0
   46.0720   33.7700   40.1880 H   0  0  0  0  0  0  0  0  0  0  0  0
   44.9540   32.9620   37.8140 C   0  0  0  0  0  0  0  0  0  0  0  0
   44.0290   32.4990   36.9370 F   0  0  0  0  0  0  0  0  0  0  0  0
   45.6810   33.9990   37.2390 F   0  0  0  0  0  0  0  0  0  0  0  0
   45.8230   31.9760   38.2240 F   0  0  0  0  0  0  0  0  0  0  0  0
   37.8820   31.8800   40.0310 C   0  0  0  0  0  0  0  0  0  0  0  0
   37.1840   31.4030   38.9160 C   0  0  0  0  0  0  0  0  0  0  0  0
   36.5530   30.2240   39.2440 C   0  0  0  0  0  0  0  0  0  0  0  0
   36.9060   30.0390   40.5710 C   0  0  0  0  0  0  0  0  0  0  0  0
   37.6800   31.0200   41.0030 O   0  0  0  0  0  0  0  0  0  0  0  0
   37.1220   31.8580   37.9260 H   0  0  0  0  0  0  0  0  0  0  0  0
   35.9360   29.5660   38.6800 H   0  0  0  0  0  0  0  0  0  0  0  0
   36.5390   28.9350   41.5120 C   0  0  0  0  0  3  0  0  0  0  0  0
   37.4310   29.0890   42.7390 C   0  0  0  0  0  3  0  0  0  0  0  0
   38.4780   29.2210   42.3420 H   0  0  0  0  0  0  0  0  0  0  0  0
   37.4040   27.8960   43.6430 C   0  0  0  0  0  3  0  0  0  0  0  0
   36.9650   28.2160   44.6100 H   0  0  0  0  0  0  0  0  0  0  0  0
   36.7080   26.8500   43.0720 O   0  0  0  0  0  0  0  0  0  0  0  0
   37.3070   26.5730   41.8330 C   0  0  0  0  0  3  0  0  0  0  0  0
   37.0570   25.5520   41.4780 H   0  0  0  0  0  0  0  0  0  0  0  0
   36.8390   27.6250   40.8510 C   0  0  0  0  0  3  0  0  0  0  0  0
   35.9910   27.2270   40.2820 H   0  0  0  0  0  0  0  0  0  0  0  0
  2  3  1  0  0  0  0
  2  1  1  0  0  0  0
  3 15  1  0  0  0  0
  4  8  1  0  0  0  0
  4  3  2  0  0  0  0
  5  4  1  0  0  0  0
  6  5  2  0  0  0  0
  6  7  1  0  0  0  0
  7  2  2  0  0  0  0
  9  5  1  0  0  0  0
 10  6  1  0  0  0  0
 11 17  1  0  0  0  0
 12 18  1  0  0  0  0
 12 11  2  0  0  0  0
 13 14  2  0  0  0  0
 13 12  1  0  0  0  0
 14 15  1  0  0  0  0
 15 16  2  0  0  0  0
 16 11  1  0  0  0  0
 19 22  1  0  0  0  0
 19 13  1  0  0  0  0
 20 19  1  0  0  0  0
 21 19  1  0  0  0  0
 23  7  1  0  0  0  0
 23 27  1  0  0  0  0
 24 25  1  0  0  0  0
 24 23  2  0  0  0  0
 25 26  2  0  0  0  0
 26 27  1  0  0  0  0
 26 30  1  0  0  0  0
 28 24  1  0  0  0  0
 29 25  1  0  0  0  0
 30 31  1  0  0  0  0
 31 33  1  0  0  0  0
 32 31  1  0  0  0  0
 33 34  1  0  0  0  0
 35 33  1  0  0  0  0
 36 35  1  0  0  0  0
 37 36  1  0  0  0  0
 38 30  1  0  0  0  0
 38 36  1  0  0  0  0
 39 38  1  0  0  0  0
M  END
>  <minimizedAffinity>
-6.66363764

$$$$

 OpenBabel03252500163D

 39 42  0  0  0  0  0  0  0  0999 V2000
   35.5530   29.4710   38.5730 Cl  0  0  0  0  0  0  0  0  0  0  0  0
   35.4590   27.7540   38.3190 C   0  0  0  0  0  0  0  0  0  0  0  0
   36.2580   26.9010   39.0150 C   0  0  0  0  0  0  0  0  0  0  0  0
   36.2080   25.5220   38.8340 C   0  0  0  0  0  0  0  0  0  0  0  0
   35.2970   25.0680   37.9060 C   0  0  0  0  0  0  0  0  0  0  0  0
   34.4820   25.9300   37.1950 C   0  0  0  0  0  0  0  0  0  0  0  0
   34.5570   27.2660   37.3950 C   0  0  0  0  0  0  0  0  0  0  0  0
   36.8240   24.8460   39.3710 H   0  0  0  0  0  0  0  0  0  0  0  0
   35.1830   24.0130   37.6970 H   0  0  0  0  0  0  0  0  0  0  0  0
   33.7670   25.5500   36.4650 H   0  0  0  0  0  0  0  0  0  0  0  0
   39.2550   28.4980   40.4660 C   0  0  0  0  0  0  0  0  0  0  0  0
   38.9710   28.4570   41.8550 C   0  0  0  0  0  0  0  0  0  0  0  0
   37.7780   27.8940   42.2650 C   0  0  0  0  0  0  0  0  0  0  0  0
   36.9160   27.3960   41.3120 N   0  0  0  0  0  0  0  0  0  0  0  0
   37.2130   27.4480   39.9960 C   0  0  0  0  0  0  0  0  0  0  0  0
   38.3710   27.9930   39.5810 N   0  0  0  0  0  0  0  0  0  0  0  0
   40.1920   28.9410   40.1590 H   0  0  0  0  0  0  0  0  0  0  0  0
   39.6470   28.8480   42.5930 H   0  0  0  0  0  0  0  0  0  0  0  0
   37.3680   27.7960   43.7070 C   0  0  0  0  0  0  0  0  0  0  0  0
   36.1730   27.1670   43.8290 F   0  0  0  0  0  0  0  0  0  0  0  0
   38.3530   27.0860   44.3890 F   0  0  0  0  0  0  0  0  0  0  0  0
   37.3300   29.0870   44.1860 F   0  0  0  0  0  0  0  0  0  0  0  0
   33.7110   28.1910   36.6600 C   0  0  0  0  0  0  0  0  0  0  0  0
   34.0220   28.7200   35.4020 C   0  0  0  0  0  0  0  0  0  0  0  0
   33.0070   29.5580   34.9970 C   0  0  0  0  0  0  0  0  0  0  0  0
   32.1100   29.4950   36.0520 C   0  0  0  0  0  0  0  0  0  0  0  0
   32.5470   28.6910   37.0060 O   0  0  0  0  0  0  0  0  0  0  0  0
   34.9130   28.5280   34.8020 H   0  0  0  0  0  0  0  0  0  0  0  0
   32.8730   30.1390   34.1170 H   0  0  0  0  0  0  0  0  0  0  0  0
   30.7930   30.1830   36.2270 C   0  0  0  0  0  3  0  0  0  0  0  0
   30.9100   31.5380   35.5370 C   0  0  0  0  0  3  0  0  0  0  0  0
   31.8780   31.9850   35.9020 H   0  0  0  0  0  0  0  0  0  0  0  0
   29.7890   32.4710   35.8740 C   0  0  0  0  0  3  0  0  0  0  0  0
   29.2230   32.6680   34.9410 H   0  0  0  0  0  0  0  0  0  0  0  0
   28.9900   31.9550   36.8730 O   0  0  0  0  0  0  0  0  0  0  0  0
   29.8170   31.6860   37.9760 C   0  0  0  0  0  3  0  0  0  0  0  0
   29.2330   31.6140   38.9160 H   0  0  0  0  0  0  0  0  0  0  0  0
   30.5590   30.4000   37.6910 C   0  0  0  0  0  3  0  0  0  0  0  0
   30.0250   29.5690   38.1670 H   0  0  0  0  0  0  0  0  0  0  0  0
  2  1  1  0  0  0  0
  2  3  1  0  0  0  0
  3 15  1  0  0  0  0
  4  3  2  0  0  0  0
  4  8  1  0  0  0  0
  5  4  1  0  0  0  0
  6  7  1  0  0  0  0
  6  5  2  0  0  0  0
  7  2  2  0  0  0  0
  9  5  1  0  0  0  0
 10  6  1  0  0  0  0
 11 12  1  0  0  0  0
 12 13  2  0  0  0  0
 12 18  1  0  0  0  0
 13 19  1  0  0  0  0
 14 13  1  0  0  0  0
 15 14  2  0  0  0  0
 16 15  1  0  0  0  0
 16 11  2  0  0  0  0
 17 11  1  0  0  0  0
 19 20  1  0  0  0  0
 19 22  1  0  0  0  0
 19 21  1  0  0  0  0
 23 27  1  0  0  0  0
 23  7  1  0  0  0  0
 24 23  2  0  0  0  0
 25 24  1  0  0  0  0
 25 26  2  0  0  0  0
 26 30  1  0  0  0  0
 26 27  1  0  0  0  0
 28 24  1  0  0  0  0
 29 25  1  0  0  0  0
 30 38  1  0  0  0  0
 31 33  1  0  0  0  0
 31 32  1  0  0  0  0
 31 30  1  0  0  0  0
 33 35  1  0  0  0  0
 34 33  1  0  0  0  0
 35 36  1  0  0  0  0
 36 37  1  0  0  0  0
 38 36  1  0  0  0  0
 38 39  1  0  0  0  0
M  END
>  <minimizedAffinity>
-6.54951

$$$$

 OpenBabel03252500163D

 39 42  0  0  0  0  0  0  0  0999 V2000
   40.7390   31.4610   40.1560 Cl  0  0  0  0  0  0  0  0  0  0  0  0
   39.9900   33.0280   40.0890 C   0  0  0  0  0  0  0  0  0  0  0  0
   40.7420   34.1610   40.1040 C   0  0  0  0  0  0  0  0  0  0  0  0
   40.1720   35.4300   40.0520 C   0  0  0  0  0  0  0  0  0  0  0  0
   38.7970   35.4720   39.9850 C   0  0  0  0  0  0  0  0  0  0  0  0
   38.0280   34.3230   39.9700 C   0  0  0  0  0  0  0  0  0  0  0  0
   38.6130   33.1040   40.0220 C   0  0  0  0  0  0  0  0  0  0  0  0
   40.7470   36.3220   40.0620 H   0  0  0  0  0  0  0  0  0  0  0  0
   38.2640   36.4120   39.9410 H   0  0  0  0  0  0  0  0  0  0  0  0
   36.9400   34.3790   39.9160 H   0  0  0  0  0  0  0  0  0  0  0  0
   44.2910   33.9880   39.1010 C   0  0  0  0  0  0  0  0  0  0  0  0
   44.9470   33.8440   40.3500 C   0  0  0  0  0  0  0  0  0  0  0  0
   44.1770   33.8090   41.4960 C   0  0  0  0  0  0  0  0  0  0  0  0
   42.8080   33.9160   41.3790 N   0  0  0  0  0  0  0  0  0  0  0  0
   42.2100   34.0510   40.1760 C   0  0  0  0  0  0  0  0  0  0  0  0
   42.9470   34.0870   39.0510 N   0  0  0  0  0  0  0  0  0  0  0  0
   44.9060   34.0140   38.2120 H   0  0  0  0  0  0  0  0  0  0  0  0
   46.0150   33.7620   40.4340 H   0  0  0  0  0  0  0  0  0  0  0  0
   44.7580   33.6610   42.8730 C   0  0  0  0  0  0  0  0  0  0  0  0
   43.8980   33.0090   43.6930 F   0  0  0  0  0  0  0  0  0  0  0  0
   45.9490   32.9500   42.7650 F   0  0  0  0  0  0  0  0  0  0  0  0
   45.0330   34.9370   43.3140 F   0  0  0  0  0  0  0  0  0  0  0  0
   37.8260   31.8840   40.0070 C   0  0  0  0  0  0  0  0  0  0  0  0
   37.0860   31.4320   38.9080 C   0  0  0  0  0  0  0  0  0  0  0  0
   36.4620   30.2490   39.2340 C   0  0  0  0  0  0  0  0  0  0  0  0
   36.8620   30.0350   40.5430 C   0  0  0  0  0  0  0  0  0  0  0  0
   37.6550   31.0040   40.9670 O   0  0  0  0  0  0  0  0  0  0  0  0
   36.9910   31.9080   37.9300 H   0  0  0  0  0  0  0  0  0  0  0  0
   35.8230   29.6050   38.6790 H   0  0  0  0  0  0  0  0  0  0  0  0
   36.5250   28.9140   41.4730 C   0  0  0  0  0  3  0  0  0  0  0  0
   37.3870   29.1000   42.7180 C   0  0  0  0  0  3  0  0  0  0  0  0
   38.4350   29.2770   42.3400 H   0  0  0  0  0  0  0  0  0  0  0  0
   37.3930   27.9040   43.6170 C   0  0  0  0  0  3  0  0  0  0  0  0
   36.9240   28.2010   44.5770 H   0  0  0  0  0  0  0  0  0  0  0  0
   36.7520   26.8320   43.0310 O   0  0  0  0  0  0  0  0  0  0  0  0
   37.3850   26.5850   41.8020 C   0  0  0  0  0  3  0  0  0  0  0  0
   37.1850   25.5550   41.4390 H   0  0  0  0  0  0  0  0  0  0  0  0
   36.8920   27.6200   40.8150 C   0  0  0  0  0  3  0  0  0  0  0  0
   36.0720   27.1890   40.2290 H   0  0  0  0  0  0  0  0  0  0  0  0
  2  3  1  0  0  0  0
  2  1  1  0  0  0  0
  3 15  1  0  0  0  0
  4  8  1  0  0  0  0
  4  3  2  0  0  0  0
  5  4  1  0  0  0  0
  6  5  2  0  0  0  0
  6  7  1  0  0  0  0
  7  2  2  0  0  0  0
  9  5  1  0  0  0  0
 10  6  1  0  0  0  0
 11 12  1  0  0  0  0
 12 18  1  0  0  0  0
 12 13  2  0  0  0  0
 13 19  1  0  0  0  0
 14 13  1  0  0  0  0
 15 14  2  0  0  0  0
 16 11  2  0  0  0  0
 16 15  1  0  0  0  0
 17 11  1  0  0  0  0
 19 22  1  0  0  0  0
 19 20  1  0  0  0  0
 21 19  1  0  0  0  0
 23  7  1  0  0  0  0
 23 27  1  0  0  0  0
 24 25  1  0  0  0  0
 24 23  2  0  0  0  0
 25 26  2  0  0  0  0
 26 27  1  0  0  0  0
 26 30  1  0  0  0  0
 28 24  1  0  0  0  0
 29 25  1  0  0  0  0
 30 31  1  0  0  0  0
 31 33  1  0  0  0  0
 32 31  1  0  0  0  0
 33 34  1  0  0  0  0
 35 33  1  0  0  0  0
 36 35  1  0  0  0  0
 37 36  1  0  0  0  0
 38 30  1  0  0  0  0
 38 36  1  0  0  0  0
 39 38  1  0  0  0  0
M  END
>  <minimizedAffinity>
-6.52204752

$$$$

 OpenBabel03252500163D

 39 42  0  0  0  0  0  0  0  0999 V2000
   39.2550   27.5940   40.3260 Cl  0  0  0  0  0  0  0  0  0  0  0  0
   38.3200   27.7170   41.7860 C   0  0  0  0  0  0  0  0  0  0  0  0
   37.4790   26.7160   42.1620 C   0  0  0  0  0  0  0  0  0  0  0  0
   36.7160   26.7840   43.3240 C   0  0  0  0  0  0  0  0  0  0  0  0
   36.8640   27.9290   44.0760 C   0  0  0  0  0  0  0  0  0  0  0  0
   37.7170   28.9500   43.6990 C   0  0  0  0  0  0  0  0  0  0  0  0
   38.4430   28.8520   42.5610 C   0  0  0  0  0  0  0  0  0  0  0  0
   36.0580   26.0100   43.6290 H   0  0  0  0  0  0  0  0  0  0  0  0
   36.3140   28.0730   44.9960 H   0  0  0  0  0  0  0  0  0  0  0  0
   37.8180   29.8480   44.3080 H   0  0  0  0  0  0  0  0  0  0  0  0
   37.9590   23.2930   40.8630 C   0  0  0  0  0  0  0  0  0  0  0  0
   37.1280   23.2910   39.7130 C   0  0  0  0  0  0  0  0  0  0  0  0
   36.4280   24.4420   39.4080 C   0  0  0  0  0  0  0  0  0  0  0  0
   36.5660   25.5400   40.2280 N   0  0  0  0  0  0  0  0  0  0  0  0
   37.3650   25.5140   41.3150 C   0  0  0  0  0  0  0  0  0  0  0  0
   38.0530   24.4010   41.6260 N   0  0  0  0  0  0  0  0  0  0  0  0
   38.5010   22.3850   41.0900 H   0  0  0  0  0  0  0  0  0  0  0  0
   37.0250   22.4300   39.0780 H   0  0  0  0  0  0  0  0  0  0  0  0
   35.5170   24.5590   38.2180 C   0  0  0  0  0  0  0  0  0  0  0  0
   36.1300   24.1120   37.0940 F   0  0  0  0  0  0  0  0  0  0  0  0
   34.3760   23.8040   38.4730 F   0  0  0  0  0  0  0  0  0  0  0  0
   35.1680   25.8880   38.1300 F   0  0  0  0  0  0  0  0  0  0  0  0
   39.3460   29.9110   42.1460 C   0  0  0  0  0  0  0  0  0  0  0  0
   40.6850   30.0110   42.5400 C   0  0  0  0  0  0  0  0  0  0  0  0
   41.2470   31.1290   41.9660 C   0  0  0  0  0  0  0  0  0  0  0  0
   40.1990   31.6650   41.2340 C   0  0  0  0  0  0  0  0  0  0  0  0
   39.1050   30.9340   41.3590 O   0  0  0  0  0  0  0  0  0  0  0  0
   41.2370   29.3350   43.1960 H   0  0  0  0  0  0  0  0  0  0  0  0
   42.2260   31.5410   42.0210 H   0  0  0  0  0  0  0  0  0  0  0  0
   40.1610   32.8910   40.3780 C   0  0  0  0  0  3  0  0  0  0  0  0
   41.4100   33.7000   40.7140 C   0  0  0  0  0  3  0  0  0  0  0  0
   41.4490   33.7500   41.8400 H   0  0  0  0  0  0  0  0  0  0  0  0
   41.3760   35.0930   40.1690 C   0  0  0  0  0  3  0  0  0  0  0  0
   42.1930   35.1850   39.4250 H   0  0  0  0  0  0  0  0  0  0  0  0
   40.1410   35.3910   39.6290 O   0  0  0  0  0  0  0  0  0  0  0  0
   39.1820   35.1820   40.6330 C   0  0  0  0  0  3  0  0  0  0  0  0
   38.2380   35.7220   40.4150 H   0  0  0  0  0  0  0  0  0  0  0  0
   38.9490   33.6920   40.7430 C   0  0  0  0  0  3  0  0  0  0  0  0
   38.0660   33.4260   40.1510 H   0  0  0  0  0  0  0  0  0  0  0  0
  1  2  1  0  0  0  0
  2  3  2  0  0  0  0
  2  7  1  0  0  0  0
  3  4  1  0  0  0  0
  4  8  1  0  0  0  0
  4  5  2  0  0  0  0
  5  9  1  0  0  0  0
  6  5  1  0  0  0  0
  6 10  1  0  0  0  0
  7  6  2  0  0  0  0
 11 17  1  0  0  0  0
 11 16  1  0  0  0  0
 12 11  2  0  0  0  0
 13 12  1  0  0  0  0
 13 14  2  0  0  0  0
 14 15  1  0  0  0  0
 15 16  2  0  0  0  0
 15  3  1  0  0  0  0
 18 12  1  0  0  0  0
 19 21  1  0  0  0  0
 19 13  1  0  0  0  0
 20 19  1  0  0  0  0
 22 19  1  0  0  0  0
 23 24  2  0  0  0  0
 23  7  1  0  0  0  0
 24 28  1  0  0  0  0
 25 29  1  0  0  0  0
 25 24  1  0  0  0  0
 26 27  1  0  0  0  0
 26 25  2  0  0  0  0
 27 23  1  0  0  0  0
 30 31  1  0  0  0  0
 30 38  1  0  0  0  0
 30 26  1  0  0  0  0
 31 32  1  0  0  0  0
 33 31  1  0  0  0  0
 34 33  1  0  0  0  0
 35 33  1  0  0  0  0
 35 36  1  0  0  0  0
 36 38  1  0  0  0  0
 37 36  1  0  0  0  0
 39 38  1  0  0  0  0
M  END
>  <minimizedAffinity>
-6.46598673

$$$$

 OpenBabel03252500163D

 39 42  0  0  0  0  0  0  0  0999 V2000
   40.5710   30.3090   41.3080 Cl  0  0  0  0  0  0  0  0  0  0  0  0
   39.1680   31.1790   40.7660 C   0  0  0  0  0  0  0  0  0  0  0  0
   39.2940   32.3420   40.0730 C   0  0  0  0  0  0  0  0  0  0  0  0
   38.1910   33.0640   39.6250 C   0  0  0  0  0  0  0  0  0  0  0  0
   36.9580   32.5280   39.9250 C   0  0  0  0  0  0  0  0  0  0  0  0
   36.8230   31.3460   40.6300 C   0  0  0  0  0  0  0  0  0  0  0  0
   37.9170   30.6700   41.0510 C   0  0  0  0  0  0  0  0  0  0  0  0
   38.2750   33.9720   39.0830 H   0  0  0  0  0  0  0  0  0  0  0  0
   36.0420   33.0150   39.6190 H   0  0  0  0  0  0  0  0  0  0  0  0
   35.8380   30.9390   40.8570 H   0  0  0  0  0  0  0  0  0  0  0  0
   42.3660   33.2750   38.2480 C   0  0  0  0  0  0  0  0  0  0  0  0
   43.1590   33.8510   39.2740 C   0  0  0  0  0  0  0  0  0  0  0  0
   42.6370   33.9100   40.5510 C   0  0  0  0  0  0  0  0  0  0  0  0
   41.3740   33.4090   40.7770 N   0  0  0  0  0  0  0  0  0  0  0  0
   40.6420   32.8650   39.7810 C   0  0  0  0  0  0  0  0  0  0  0  0
   41.1350   32.8010   38.5310 N   0  0  0  0  0  0  0  0  0  0  0  0
   42.7870   33.2360   37.2530 H   0  0  0  0  0  0  0  0  0  0  0  0
   44.1430   34.2410   39.0910 H   0  0  0  0  0  0  0  0  0  0  0  0
   43.3820   34.4970   41.7170 C   0  0  0  0  0  0  0  0  0  0  0  0
   43.6880   33.5390   42.6270 F   0  0  0  0  0  0  0  0  0  0  0  0
   44.5460   35.0870   41.2340 F   0  0  0  0  0  0  0  0  0  0  0  0
   42.5660   35.4740   42.2430 F   0  0  0  0  0  0  0  0  0  0  0  0
   37.8000   29.4260   41.7920 C   0  0  0  0  0  0  0  0  0  0  0  0
   37.8510   29.3280   43.1880 C   0  0  0  0  0  0  0  0  0  0  0  0
   37.7080   28.0090   43.5570 C   0  0  0  0  0  0  0  0  0  0  0  0
   37.5750   27.3570   42.3410 C   0  0  0  0  0  0  0  0  0  0  0  0
   37.6330   28.2080   41.3320 O   0  0  0  0  0  0  0  0  0  0  0  0
   37.9800   30.1390   43.9070 H   0  0  0  0  0  0  0  0  0  0  0  0
   37.6930   27.5340   44.5080 H   0  0  0  0  0  0  0  0  0  0  0  0
   37.3860   25.9010   42.0550 C   0  0  0  0  0  3  0  0  0  0  0  0
   38.7480   25.2370   42.2380 C   0  0  0  0  0  3  0  0  0  0  0  0
   39.4790   25.8760   41.6650 H   0  0  0  0  0  0  0  0  0  0  0  0
   38.8010   23.8410   41.7020 C   0  0  0  0  0  3  0  0  0  0  0  0
   38.9730   23.1570   42.5590 H   0  0  0  0  0  0  0  0  0  0  0  0
   37.6530   23.5270   41.0040 O   0  0  0  0  0  0  0  0  0  0  0  0
   37.5010   24.4870   39.9910 C   0  0  0  0  0  3  0  0  0  0  0  0
   36.8350   24.1250   39.1810 H   0  0  0  0  0  0  0  0  0  0  0  0
   36.9570   25.7460   40.6290 C   0  0  0  0  0  3  0  0  0  0  0  0
   35.8680   25.7630   40.5050 H   0  0  0  0  0  0  0  0  0  0  0  0
  2  7  1  0  0  0  0
  2  1  1  0  0  0  0
  3  2  2  0  0  0  0
  4  5  2  0  0  0  0
  4  3  1  0  0  0  0
  5  6  1  0  0  0  0
  6 10  1  0  0  0  0
  6  7  2  0  0  0  0
  7 23  1  0  0  0  0
  8  4  1  0  0  0  0
  9  5  1  0  0  0  0
 11 16  2  0  0  0  0
 11 12  1  0  0  0  0
 12 13  2  0  0  0  0
 13 14  1  0  0  0  0
 13 19  1  0  0  0  0
 15  3  1  0  0  0  0
 15 14  2  0  0  0  0
 16 15  1  0  0  0  0
 17 11  1  0  0  0  0
 18 12  1  0  0  0  0
 19 22  1  0  0  0  0
 19 20  1  0  0  0  0
 21 19  1  0  0  0  0
 23 24  2  0  0  0  0
 24 25  1  0  0  0  0
 24 28  1  0  0  0  0
 25 29  1  0  0  0  0
 26 25  2  0  0  0  0
 27 23  1  0  0  0  0
 27 26  1  0  0  0  0
 30 31  1  0  0  0  0
 30 26  1  0  0  0  0
 32 31  1  0  0  0  0
 33 31  1  0  0  0  0
 33 34  1  0  0  0  0
 35 33  1  0  0  0  0
 36 38  1  0  0  0  0
 36 35  1  0  0  0  0
 37 36  1  0  0  0  0
 38 30  1  0  0  0  0
 39 38  1  0  0  0  0
M  END
>  <minimizedAffinity>
-6.43494177

$$$$

 OpenBabel03252500163D

 39 42  0  0  0  0  0  0  0  0999 V2000
   38.8430   28.0920   39.7230 Cl  0  0  0  0  0  0  0  0  0  0  0  0
   38.0930   27.9060   41.2800 C   0  0  0  0  0  0  0  0  0  0  0  0
   37.2560   26.8640   41.5310 C   0  0  0  0  0  0  0  0  0  0  0  0
   36.6390   26.6870   42.7670 C   0  0  0  0  0  0  0  0  0  0  0  0
   36.9290   27.6330   43.7250 C   0  0  0  0  0  0  0  0  0  0  0  0
   37.7790   28.6950   43.4770 C   0  0  0  0  0  0  0  0  0  0  0  0
   38.3610   28.8370   42.2630 C   0  0  0  0  0  0  0  0  0  0  0  0
   35.9850   25.8790   42.9760 H   0  0  0  0  0  0  0  0  0  0  0  0
   36.4980   27.5810   44.7160 H   0  0  0  0  0  0  0  0  0  0  0  0
   37.9940   29.4320   44.2500 H   0  0  0  0  0  0  0  0  0  0  0  0
   35.9270   25.3220   38.4500 C   0  0  0  0  0  0  0  0  0  0  0  0
   36.5050   24.0280   38.4910 C   0  0  0  0  0  0  0  0  0  0  0  0
   37.3270   23.7100   39.5550 C   0  0  0  0  0  0  0  0  0  0  0  0
   37.5510   24.6580   40.5280 N   0  0  0  0  0  0  0  0  0  0  0  0
   36.9860   25.8830   40.4640 C   0  0  0  0  0  0  0  0  0  0  0  0
   36.1830   26.2080   39.4350 N   0  0  0  0  0  0  0  0  0  0  0  0
   35.2860   25.5580   37.6120 H   0  0  0  0  0  0  0  0  0  0  0  0
   36.3280   23.2930   37.7280 H   0  0  0  0  0  0  0  0  0  0  0  0
   37.9960   22.3720   39.7060 C   0  0  0  0  0  0  0  0  0  0  0  0
   39.0260   22.2460   38.8330 F   0  0  0  0  0  0  0  0  0  0  0  0
   38.4610   22.2670   41.0130 F   0  0  0  0  0  0  0  0  0  0  0  0
   37.0170   21.4270   39.4980 F   0  0  0  0  0  0  0  0  0  0  0  0
   39.2580   29.9440   41.9790 C   0  0  0  0  0  0  0  0  0  0  0  0
   40.5210   30.1090   42.5590 C   0  0  0  0  0  0  0  0  0  0  0  0
   41.1010   31.2580   42.0700 C   0  0  0  0  0  0  0  0  0  0  0  0
   40.1400   31.7450   41.1970 C   0  0  0  0  0  0  0  0  0  0  0  0
   39.0780   30.9590   41.1660 O   0  0  0  0  0  0  0  0  0  0  0  0
   41.0080   29.4570   43.2870 H   0  0  0  0  0  0  0  0  0  0  0  0
   42.0390   31.7190   42.2620 H   0  0  0  0  0  0  0  0  0  0  0  0
   40.1610   32.9730   40.3440 C   0  0  0  0  0  3  0  0  0  0  0  0
   41.4410   33.7270   40.6900 C   0  0  0  0  0  3  0  0  0  0  0  0
   41.4740   33.7730   41.8160 H   0  0  0  0  0  0  0  0  0  0  0  0
   41.4710   35.1220   40.1470 C   0  0  0  0  0  3  0  0  0  0  0  0
   42.2960   35.1790   39.4090 H   0  0  0  0  0  0  0  0  0  0  0  0
   40.2530   35.4730   39.6000 O   0  0  0  0  0  0  0  0  0  0  0  0
   39.2790   35.3040   40.5980 C   0  0  0  0  0  3  0  0  0  0  0  0
   38.3610   35.8840   40.3750 H   0  0  0  0  0  0  0  0  0  0  0  0
   38.9820   33.8240   40.7020 C   0  0  0  0  0  3  0  0  0  0  0  0
   38.0920   33.5990   40.1030 H   0  0  0  0  0  0  0  0  0  0  0  0
  1  2  1  0  0  0  0
  2  3  2  0  0  0  0
  2  7  1  0  0  0  0
  3  4  1  0  0  0  0
  4  8  1  0  0  0  0
  4  5  2  0  0  0  0
  5  9  1  0  0  0  0
  6  5  1  0  0  0  0
  6 10  1  0  0  0  0
  7  6  2  0  0  0  0
 11 12  2  0  0  0  0
 11 16  1  0  0  0  0
 12 13  1  0  0  0  0
 13 19  1  0  0  0  0
 13 14  2  0  0  0  0
 15 14  1  0  0  0  0
 15  3  1  0  0  0  0
 16 15  2  0  0  0  0
 17 11  1  0  0  0  0
 18 12  1  0  0  0  0
 19 21  1  0  0  0  0
 20 19  1  0  0  0  0
 22 19  1  0  0  0  0
 23  7  1  0  0  0  0
 23 24  2  0  0  0  0
 24 28  1  0  0  0  0
 25 29  1  0  0  0  0
 25 24  1  0  0  0  0
 26 25  2  0  0  0  0
 27 26  1  0  0  0  0
 27 23  1  0  0  0  0
 30 31  1  0  0  0  0
 30 38  1  0  0  0  0
 30 26  1  0  0  0  0
 31 32  1  0  0  0  0
 33 31  1  0  0  0  0
 34 33  1  0  0  0  0
 35 33  1  0  0  0  0
 35 36  1  0  0  0  0
 36 38  1  0  0  0  0
 37 36  1  0  0  0  0
 39 38  1  0  0  0  0
M  END
>  <minimizedAffinity>
-6.26896572

$$$$
