
 OpenBabel03252500593D

 39 41  0  0  0  0  0  0  0  0999 V2000
   36.6080   28.9120   40.3000 O   0  0  0  0  0  0  0  0  0  0  0  0
   36.9700   30.3190   40.7570 P   0  0  1  0  0  0  0  0  0  0  0  0
   35.5580   31.0630   41.3650 O   0  0  0  0  0  0  0  0  0  0  0  0
   35.0640   30.4230   41.9550 H   0  0  0  0  0  0  0  0  0  0  0  0
   38.0890   30.2300   42.0200 O   0  0  0  0  0  0  0  0  0  0  0  0
   38.6760   28.2950   43.2140 C   0  0  0  0  0  0  0  0  0  0  0  0
   39.0030   29.2160   42.2490 C   0  0  0  0  0  0  0  0  0  0  0  0
   40.2370   29.0570   41.5690 C   0  0  0  0  0  0  0  0  0  0  0  0
   41.0030   28.0070   41.9230 N   0  0  0  0  0  0  0  0  0  0  0  0
   40.6580   27.1270   42.8680 C   0  0  0  0  0  0  0  0  0  0  0  0
   39.4860   27.2740   43.5180 N   0  0  0  0  0  0  0  0  0  0  0  0
   40.4330   29.7990   40.8340 H   0  0  0  0  0  0  0  0  0  0  0  0
   41.3300   26.3270   43.0820 H   0  0  0  0  0  0  0  0  0  0  0  0
   37.4160   28.4010   43.9550 C   0  0  0  0  0  0  0  0  0  0  0  0
   37.5520   28.4090   45.0540 H   0  0  0  0  0  0  0  0  0  0  0  0
   36.9210   29.3770   43.6930 H   0  0  0  0  0  0  0  0  0  0  0  0
   36.4730   27.3270   43.4920 C   0  0  0  0  0  0  0  0  0  0  0  0
   36.4840   27.2810   42.4010 H   0  0  0  0  0  0  0  0  0  0  0  0
   35.4280   27.5850   43.7990 H   0  0  0  0  0  0  0  0  0  0  0  0
   36.6910   26.3400   43.9650 H   0  0  0  0  0  0  0  0  0  0  0  0
   37.4970   31.2610   39.4520 O   0  0  0  0  0  0  0  0  0  0  0  0
   38.4010   32.2780   39.6840 C   0  0  0  0  0  0  0  0  0  0  0  0
   37.8960   33.5470   39.9810 C   0  0  0  0  0  0  0  0  0  0  0  0
   38.7330   34.6260   40.2290 C   0  0  0  0  0  0  0  0  0  0  0  0
   40.0840   34.4110   40.1740 N   0  0  0  0  0  0  0  0  0  0  0  0
   40.5590   33.1980   39.8910 C   0  0  0  0  0  0  0  0  0  0  0  0
   39.7340   32.1860   39.6590 N   0  0  0  0  0  0  0  0  0  0  0  0
   36.8390   33.7130   40.0230 H   0  0  0  0  0  0  0  0  0  0  0  0
   38.3120   35.6000   40.4560 H   0  0  0  0  0  0  0  0  0  0  0  0
   42.0380   33.0570   39.8540 C   0  0  0  0  0  3  0  0  0  0  0  0
   42.4820   31.7400   39.2400 C   0  0  0  0  0  3  0  0  0  0  0  0
   43.4610   31.4900   39.7100 H   0  0  0  0  0  0  0  0  0  0  0  0
   42.7550   31.9000   37.7480 C   0  0  0  0  0  3  0  0  0  0  0  0
   42.4960   30.9300   37.2770 H   0  0  0  0  0  0  0  0  0  0  0  0
   41.9190   32.8620   37.1880 O   0  0  0  0  0  0  0  0  0  0  0  0
   42.1560   34.1290   37.6620 C   0  0  0  0  0  3  0  0  0  0  0  0
   41.1840   34.6960   37.6450 H   0  0  0  0  0  0  0  0  0  0  0  0
   42.7130   34.1620   39.0680 C   0  0  0  0  0  3  0  0  0  0  0  0
   42.4450   35.1690   39.4730 H   0  0  0  0  0  0  0  0  0  0  0  0
  2  1  2  6  0  0  0
  2  3  1  0  0  0  0
  2  5  1  0  0  0  0
  3  4  1  0  0  0  0
  5  7  1  0  0  0  0
  6 11  1  0  0  0  0
  6 14  1  0  0  0  0
  7  6  2  0  0  0  0
  8  9  2  0  0  0  0
  8  7  1  0  0  0  0
  9 10  1  0  0  0  0
 10 13  1  0  0  0  0
 10 11  2  0  0  0  0
 12  8  1  0  0  0  0
 14 15  1  0  0  0  0
 16 14  1  0  0  0  0
 17 19  1  0  0  0  0
 17 14  1  0  0  0  0
 17 20  1  0  0  0  0
 18 17  1  0  0  0  0
 21 22  1  0  0  0  0
 21  2  1  0  0  0  0
 22 23  1  0  0  0  0
 23 28  1  0  0  0  0
 23 24  2  0  0  0  0
 24 29  1  0  0  0  0
 25 24  1  0  0  0  0
 26 25  2  0  0  0  0
 27 22  2  0  0  0  0
 27 26  1  0  0  0  0
 30 26  1  0  0  0  0
 31 32  1  0  0  0  0
 31 30  1  0  0  0  0
 33 31  1  0  0  0  0
 34 33  1  0  0  0  0
 35 36  1  0  0  0  0
 35 33  1  0  0  0  0
 36 38  1  0  0  0  0
 37 36  1  0  0  0  0
 38 39  1  0  0  0  0
 38 30  1  0  0  0  0
M  END
>  <minimizedAffinity>
-5.92990541

$$$$

 OpenBabel03252500593D

 39 41  0  0  0  0  0  0  0  0999 V2000
   39.7770   32.0160   41.4610 O   0  0  0  0  0  0  0  0  0  0  0  0
   38.7990   32.8660   40.6590 P   0  0  1  0  0  0  0  0  0  0  0  0
   38.7260   34.4150   41.3760 O   0  0  0  0  0  0  0  0  0  0  0  0
   39.6490   34.7310   41.5960 H   0  0  0  0  0  0  0  0  0  0  0  0
   39.3790   33.0550   39.0840 O   0  0  0  0  0  0  0  0  0  0  0  0
   41.2400   32.0780   38.0380 C   0  0  0  0  0  0  0  0  0  0  0  0
   40.7030   33.1590   38.6930 C   0  0  0  0  0  0  0  0  0  0  0  0
   41.5370   34.2840   38.9150 C   0  0  0  0  0  0  0  0  0  0  0  0
   42.8040   34.2080   38.4640 N   0  0  0  0  0  0  0  0  0  0  0  0
   43.2980   33.1410   37.8300 C   0  0  0  0  0  0  0  0  0  0  0  0
   42.5110   32.0700   37.6160 N   0  0  0  0  0  0  0  0  0  0  0  0
   41.0640   35.0870   39.4260 H   0  0  0  0  0  0  0  0  0  0  0  0
   44.3160   33.1730   37.5090 H   0  0  0  0  0  0  0  0  0  0  0  0
   40.4330   30.8830   37.7760 C   0  0  0  0  0  0  0  0  0  0  0  0
   39.3480   31.0930   37.7070 H   0  0  0  0  0  0  0  0  0  0  0  0
   40.7340   30.4520   36.7800 H   0  0  0  0  0  0  0  0  0  0  0  0
   40.7580   29.8270   38.7940 C   0  0  0  0  0  0  0  0  0  0  0  0
   41.8420   29.7620   38.9130 H   0  0  0  0  0  0  0  0  0  0  0  0
   40.4080   28.8300   38.4270 H   0  0  0  0  0  0  0  0  0  0  0  0
   40.2310   29.9960   39.7620 H   0  0  0  0  0  0  0  0  0  0  0  0
   37.2360   32.2180   40.7320 O   0  0  0  0  0  0  0  0  0  0  0  0
   37.0750   30.8510   40.6290 C   0  0  0  0  0  0  0  0  0  0  0  0
   37.0300   30.2920   39.3490 C   0  0  0  0  0  0  0  0  0  0  0  0
   36.8720   28.9270   39.1530 C   0  0  0  0  0  0  0  0  0  0  0  0
   36.7590   28.1330   40.2630 N   0  0  0  0  0  0  0  0  0  0  0  0
   36.8040   28.6720   41.4810 C   0  0  0  0  0  0  0  0  0  0  0  0
   36.9560   29.9800   41.6360 N   0  0  0  0  0  0  0  0  0  0  0  0
   37.1180   30.9150   38.4830 H   0  0  0  0  0  0  0  0  0  0  0  0
   36.8400   28.5210   38.1480 H   0  0  0  0  0  0  0  0  0  0  0  0
   36.6750   27.7340   42.6260 C   0  0  0  0  0  3  0  0  0  0  0  0
   36.9600   26.2940   42.2340 C   0  0  0  0  0  3  0  0  0  0  0  0
   36.3610   25.6570   42.9250 H   0  0  0  0  0  0  0  0  0  0  0  0
   38.4220   25.9410   42.4910 C   0  0  0  0  0  3  0  0  0  0  0  0
   38.7040   25.2000   41.7150 H   0  0  0  0  0  0  0  0  0  0  0  0
   39.2420   27.0510   42.3130 O   0  0  0  0  0  0  0  0  0  0  0  0
   39.0200   28.0430   43.2360 C   0  0  0  0  0  3  0  0  0  0  0  0
   39.2420   29.0320   42.7460 H   0  0  0  0  0  0  0  0  0  0  0  0
   37.6060   28.0740   43.7720 C   0  0  0  0  0  3  0  0  0  0  0  0
   37.4430   29.1210   44.1280 H   0  0  0  0  0  0  0  0  0  0  0  0
  2 21  1  0  0  0  0
  2  3  1  0  0  0  0
  2  1  2  1  0  0  0
  3  4  1  0  0  0  0
  5  2  1  0  0  0  0
  6  7  1  0  0  0  0
  7  8  2  0  0  0  0
  7  5  1  0  0  0  0
  8 12  1  0  0  0  0
  9  8  1  0  0  0  0
 10  9  2  0  0  0  0
 11 10  1  0  0  0  0
 11  6  2  0  0  0  0
 13 10  1  0  0  0  0
 14  6  1  0  0  0  0
 14 17  1  0  0  0  0
 15 14  1  0  0  0  0
 16 14  1  0  0  0  0
 17 18  1  0  0  0  0
 17 20  1  0  0  0  0
 19 17  1  0  0  0  0
 22 21  1  0  0  0  0
 22 27  1  0  0  0  0
 23 22  2  0  0  0  0
 24 23  1  0  0  0  0
 24 25  2  0  0  0  0
 25 26  1  0  0  0  0
 26 27  2  0  0  0  0
 26 30  1  0  0  0  0
 28 23  1  0  0  0  0
 29 24  1  0  0  0  0
 30 38  1  0  0  0  0
 31 33  1  0  0  0  0
 31 30  1  0  0  0  0
 31 32  1  0  0  0  0
 34 33  1  0  0  0  0
 35 33  1  0  0  0  0
 35 36  1  0  0  0  0
 36 38  1  0  0  0  0
 37 36  1  0  0  0  0
 38 39  1  0  0  0  0
M  END
>  <minimizedAffinity>
-5.6580596

$$$$

 OpenBabel03252500593D

 39 41  0  0  0  0  0  0  0  0999 V2000
   37.3530   32.6540   40.2480 O   0  0  0  0  0  0  0  0  0  0  0  0
   36.9300   31.1910   40.2890 P   0  0  1  0  0  0  0  0  0  0  0  0
   35.6270   31.0430   41.3840 O   0  0  0  0  0  0  0  0  0  0  0  0
   34.9700   31.7820   41.2320 H   0  0  0  0  0  0  0  0  0  0  0  0
   36.3760   30.7220   38.7630 O   0  0  0  0  0  0  0  0  0  0  0  0
   36.0200   28.6030   37.8160 C   0  0  0  0  0  0  0  0  0  0  0  0
   36.8560   29.6790   37.9900 C   0  0  0  0  0  0  0  0  0  0  0  0
   38.1310   29.6370   37.3720 C   0  0  0  0  0  0  0  0  0  0  0  0
   38.4300   28.5370   36.6540 N   0  0  0  0  0  0  0  0  0  0  0  0
   37.5940   27.5060   36.5020 C   0  0  0  0  0  0  0  0  0  0  0  0
   36.3810   27.5400   37.0880 N   0  0  0  0  0  0  0  0  0  0  0  0
   38.7310   30.4980   37.5430 H   0  0  0  0  0  0  0  0  0  0  0  0
   37.9190   26.6760   35.9150 H   0  0  0  0  0  0  0  0  0  0  0  0
   34.6880   28.5820   38.4280 C   0  0  0  0  0  0  0  0  0  0  0  0
   34.4860   27.6580   39.0050 H   0  0  0  0  0  0  0  0  0  0  0  0
   34.6110   29.4330   39.1600 H   0  0  0  0  0  0  0  0  0  0  0  0
   33.6500   28.8500   37.3760 C   0  0  0  0  0  0  0  0  0  0  0  0
   33.9730   29.6900   36.7560 H   0  0  0  0  0  0  0  0  0  0  0  0
   32.6900   29.1530   37.8630 H   0  0  0  0  0  0  0  0  0  0  0  0
   33.4110   27.9420   36.7750 H   0  0  0  0  0  0  0  0  0  0  0  0
   38.1820   30.2170   40.8820 O   0  0  0  0  0  0  0  0  0  0  0  0
   37.8620   29.0950   41.6190 C   0  0  0  0  0  0  0  0  0  0  0  0
   37.9040   29.1930   43.0130 C   0  0  0  0  0  0  0  0  0  0  0  0
   37.5960   28.1150   43.8310 C   0  0  0  0  0  0  0  0  0  0  0  0
   37.2480   26.9360   43.2280 N   0  0  0  0  0  0  0  0  0  0  0  0
   37.2100   26.8490   41.8980 C   0  0  0  0  0  0  0  0  0  0  0  0
   37.5080   27.8980   41.1430 N   0  0  0  0  0  0  0  0  0  0  0  0
   38.1770   30.1160   43.4820 H   0  0  0  0  0  0  0  0  0  0  0  0
   37.6380   28.2210   44.9100 H   0  0  0  0  0  0  0  0  0  0  0  0
   36.8200   25.5320   41.3310 C   0  0  0  0  0  3  0  0  0  0  0  0
   37.0720   25.4440   39.8350 C   0  0  0  0  0  3  0  0  0  0  0  0
   36.3200   24.7270   39.4330 H   0  0  0  0  0  0  0  0  0  0  0  0
   38.4390   24.8300   39.5500 C   0  0  0  0  0  3  0  0  0  0  0  0
   38.8030   25.3000   38.6130 H   0  0  0  0  0  0  0  0  0  0  0  0
   39.3510   25.1560   40.5510 O   0  0  0  0  0  0  0  0  0  0  0  0
   39.0380   24.6070   41.7690 C   0  0  0  0  0  3  0  0  0  0  0  0
   39.4080   25.3030   42.5720 H   0  0  0  0  0  0  0  0  0  0  0  0
   37.5570   24.3750   41.9730 C   0  0  0  0  0  3  0  0  0  0  0  0
   37.4050   24.3630   43.0810 H   0  0  0  0  0  0  0  0  0  0  0  0
  2  1  2  6  0  0  0
  2 21  1  0  0  0  0
  2  3  1  0  0  0  0
  4  3  1  0  0  0  0
  5  2  1  0  0  0  0
  6  7  1  0  0  0  0
  6 14  1  0  0  0  0
  7  5  1  0  0  0  0
  8 12  1  0  0  0  0
  8  7  2  0  0  0  0
  9  8  1  0  0  0  0
 10  9  2  0  0  0  0
 10 11  1  0  0  0  0
 11  6  2  0  0  0  0
 13 10  1  0  0  0  0
 14 15  1  0  0  0  0
 14 16  1  0  0  0  0
 17 19  1  0  0  0  0
 17 14  1  0  0  0  0
 18 17  1  0  0  0  0
 20 17  1  0  0  0  0
 21 22  1  0  0  0  0
 22 23  1  0  0  0  0
 23 28  1  0  0  0  0
 23 24  2  0  0  0  0
 24 29  1  0  0  0  0
 25 24  1  0  0  0  0
 26 25  2  0  0  0  0
 27 22  2  0  0  0  0
 27 26  1  0  0  0  0
 30 26  1  0  0  0  0
 30 38  1  0  0  0  0
 31 30  1  0  0  0  0
 32 31  1  0  0  0  0
 33 31  1  0  0  0  0
 33 35  1  0  0  0  0
 34 33  1  0  0  0  0
 35 36  1  0  0  0  0
 36 38  1  0  0  0  0
 36 37  1  0  0  0  0
 38 39  1  0  0  0  0
M  END
>  <minimizedAffinity>
-5.64712143

$$$$

 OpenBabel03252500593D

 39 41  0  0  0  0  0  0  0  0999 V2000
   40.3200   30.8770   40.0350 O   0  0  0  0  0  0  0  0  0  0  0  0
   39.7590   32.0120   40.8820 P   0  0  1  0  0  0  0  0  0  0  0  0
   40.1770   31.7200   42.5120 O   0  0  0  0  0  0  0  0  0  0  0  0
   41.1350   31.4360   42.5710 H   0  0  0  0  0  0  0  0  0  0  0  0
   40.4790   33.4680   40.4190 O   0  0  0  0  0  0  0  0  0  0  0  0
   42.7820   33.8140   40.1090 C   0  0  0  0  0  0  0  0  0  0  0  0
   41.5420   33.6280   39.5460 C   0  0  0  0  0  0  0  0  0  0  0  0
   41.4500   33.6140   38.1320 C   0  0  0  0  0  0  0  0  0  0  0  0
   42.5920   33.7860   37.4390 N   0  0  0  0  0  0  0  0  0  0  0  0
   43.7850   33.9650   38.0160 C   0  0  0  0  0  0  0  0  0  0  0  0
   43.8790   33.9780   39.3600 N   0  0  0  0  0  0  0  0  0  0  0  0
   40.4660   33.4660   37.7570 H   0  0  0  0  0  0  0  0  0  0  0  0
   44.6360   34.0930   37.3850 H   0  0  0  0  0  0  0  0  0  0  0  0
   42.9480   33.8380   41.5650 C   0  0  0  0  0  0  0  0  0  0  0  0
   42.0200   34.1070   42.1080 H   0  0  0  0  0  0  0  0  0  0  0  0
   43.2300   32.8070   41.9160 H   0  0  0  0  0  0  0  0  0  0  0  0
   44.1080   34.7240   41.9210 C   0  0  0  0  0  0  0  0  0  0  0  0
   44.9490   34.5000   41.2600 H   0  0  0  0  0  0  0  0  0  0  0  0
   44.4440   34.5030   42.9650 H   0  0  0  0  0  0  0  0  0  0  0  0
   43.8330   35.8040   41.9130 H   0  0  0  0  0  0  0  0  0  0  0  0
   38.0670   32.0410   40.8080 O   0  0  0  0  0  0  0  0  0  0  0  0
   37.3690   30.8750   41.0530 C   0  0  0  0  0  0  0  0  0  0  0  0
   36.2400   30.6120   40.2730 C   0  0  0  0  0  0  0  0  0  0  0  0
   35.4800   29.4650   40.4500 C   0  0  0  0  0  0  0  0  0  0  0  0
   35.8710   28.5860   41.4250 N   0  0  0  0  0  0  0  0  0  0  0  0
   36.9490   28.8430   42.1660 C   0  0  0  0  0  0  0  0  0  0  0  0
   37.6550   29.9480   41.9710 N   0  0  0  0  0  0  0  0  0  0  0  0
   35.9360   31.3010   39.5110 H   0  0  0  0  0  0  0  0  0  0  0  0
   34.6080   29.2880   39.8290 H   0  0  0  0  0  0  0  0  0  0  0  0
   37.2990   27.8330   43.1980 C   0  0  0  0  0  3  0  0  0  0  0  0
   36.6670   26.4780   42.9250 C   0  0  0  0  0  3  0  0  0  0  0  0
   36.5250   25.9930   43.9180 H   0  0  0  0  0  0  0  0  0  0  0  0
   37.6230   25.5800   42.1460 C   0  0  0  0  0  3  0  0  0  0  0  0
   36.9900   24.9330   41.5050 H   0  0  0  0  0  0  0  0  0  0  0  0
   38.4320   26.3300   41.2960 O   0  0  0  0  0  0  0  0  0  0  0  0
   39.2980   27.1600   41.9650 C   0  0  0  0  0  3  0  0  0  0  0  0
   39.4730   28.0690   41.3260 H   0  0  0  0  0  0  0  0  0  0  0  0
   38.7920   27.6090   43.3180 C   0  0  0  0  0  3  0  0  0  0  0  0
   39.3280   28.5660   43.5370 H   0  0  0  0  0  0  0  0  0  0  0  0
  2  1  2  6  0  0  0
  2  3  1  0  0  0  0
  3  4  1  0  0  0  0
  5  2  1  0  0  0  0
  6 14  1  0  0  0  0
  7  6  1  0  0  0  0
  7  5  1  0  0  0  0
  8  7  2  0  0  0  0
  9 10  2  0  0  0  0
  9  8  1  0  0  0  0
 10 11  1  0  0  0  0
 11  6  2  0  0  0  0
 12  8  1  0  0  0  0
 13 10  1  0  0  0  0
 14 16  1  0  0  0  0
 14 17  1  0  0  0  0
 14 15  1  0  0  0  0
 17 19  1  0  0  0  0
 18 17  1  0  0  0  0
 20 17  1  0  0  0  0
 21  2  1  0  0  0  0
 21 22  1  0  0  0  0
 22 27  1  0  0  0  0
 23 24  1  0  0  0  0
 23 22  2  0  0  0  0
 24 25  2  0  0  0  0
 25 26  1  0  0  0  0
 26 30  1  0  0  0  0
 27 26  2  0  0  0  0
 28 23  1  0  0  0  0
 29 24  1  0  0  0  0
 30 38  1  0  0  0  0
 31 30  1  0  0  0  0
 31 32  1  0  0  0  0
 33 31  1  0  0  0  0
 34 33  1  0  0  0  0
 35 36  1  0  0  0  0
 35 33  1  0  0  0  0
 36 38  1  0  0  0  0
 37 36  1  0  0  0  0
 38 39  1  0  0  0  0
M  END
>  <minimizedAffinity>
-5.63992405

$$$$

 OpenBabel03252500593D

 39 41  0  0  0  0  0  0  0  0999 V2000
   35.5290   29.8500   38.8870 O   0  0  0  0  0  0  0  0  0  0  0  0
   36.5600   30.6210   39.7010 P   0  0  1  0  0  0  0  0  0  0  0  0
   35.8090   31.1680   41.1340 O   0  0  0  0  0  0  0  0  0  0  0  0
   35.2610   30.4320   41.5320 H   0  0  0  0  0  0  0  0  0  0  0  0
   37.8180   29.5830   40.1420 O   0  0  0  0  0  0  0  0  0  0  0  0
   38.9310   28.8000   42.0570 C   0  0  0  0  0  0  0  0  0  0  0  0
   37.8410   28.7200   41.2240 C   0  0  0  0  0  0  0  0  0  0  0  0
   36.8350   27.7700   41.5350 C   0  0  0  0  0  0  0  0  0  0  0  0
   37.0250   27.0110   42.6320 N   0  0  0  0  0  0  0  0  0  0  0  0
   38.0970   27.1120   43.4230 C   0  0  0  0  0  0  0  0  0  0  0  0
   39.0560   28.0130   43.1320 N   0  0  0  0  0  0  0  0  0  0  0  0
   36.0180   27.7560   40.8550 H   0  0  0  0  0  0  0  0  0  0  0  0
   38.1610   26.4680   44.2710 H   0  0  0  0  0  0  0  0  0  0  0  0
   40.0060   29.7600   41.7930 C   0  0  0  0  0  0  0  0  0  0  0  0
   41.0170   29.3140   41.8550 H   0  0  0  0  0  0  0  0  0  0  0  0
   39.8980   30.1480   40.7420 H   0  0  0  0  0  0  0  0  0  0  0  0
   39.8410   30.9540   42.6900 C   0  0  0  0  0  0  0  0  0  0  0  0
   38.7940   31.2650   42.6880 H   0  0  0  0  0  0  0  0  0  0  0  0
   40.4380   31.8120   42.2890 H   0  0  0  0  0  0  0  0  0  0  0  0
   40.2310   30.7680   43.7180 H   0  0  0  0  0  0  0  0  0  0  0  0
   37.0820   31.9980   38.8630 O   0  0  0  0  0  0  0  0  0  0  0  0
   38.1440   32.7220   39.3670 C   0  0  0  0  0  0  0  0  0  0  0  0
   37.8650   33.9320   40.0080 C   0  0  0  0  0  0  0  0  0  0  0  0
   38.8710   34.7240   40.5440 C   0  0  0  0  0  0  0  0  0  0  0  0
   40.1610   34.2820   40.4250 N   0  0  0  0  0  0  0  0  0  0  0  0
   40.4200   33.1270   39.8120 C   0  0  0  0  0  0  0  0  0  0  0  0
   39.4370   32.3920   39.3110 N   0  0  0  0  0  0  0  0  0  0  0  0
   36.8550   34.2760   40.1000 H   0  0  0  0  0  0  0  0  0  0  0  0
   38.6240   35.6590   41.0360 H   0  0  0  0  0  0  0  0  0  0  0  0
   41.8490   32.7260   39.7300 C   0  0  0  0  0  3  0  0  0  0  0  0
   42.0720   31.5520   38.7920 C   0  0  0  0  0  3  0  0  0  0  0  0
   42.9680   31.0110   39.1740 H   0  0  0  0  0  0  0  0  0  0  0  0
   42.4330   32.0370   37.3920 C   0  0  0  0  0  3  0  0  0  0  0  0
   42.0220   31.2870   36.6860 H   0  0  0  0  0  0  0  0  0  0  0  0
   41.8110   33.2490   37.1070 O   0  0  0  0  0  0  0  0  0  0  0  0
   42.2550   34.2840   37.8930 C   0  0  0  0  0  3  0  0  0  0  0  0
   41.4040   35.0070   38.0310 H   0  0  0  0  0  0  0  0  0  0  0  0
   42.7470   33.8490   39.2550 C   0  0  0  0  0  3  0  0  0  0  0  0
   42.6510   34.7500   39.9110 H   0  0  0  0  0  0  0  0  0  0  0  0
  2  1  2  6  0  0  0
  2  5  1  0  0  0  0
  2  3  1  0  0  0  0
  3  4  1  0  0  0  0
  5  7  1  0  0  0  0
  6 11  1  0  0  0  0
  7  8  1  0  0  0  0
  7  6  2  0  0  0  0
  8  9  2  0  0  0  0
  9 10  1  0  0  0  0
 10 13  1  0  0  0  0
 11 10  2  0  0  0  0
 12  8  1  0  0  0  0
 14 15  1  0  0  0  0
 14  6  1  0  0  0  0
 14 17  1  0  0  0  0
 16 14  1  0  0  0  0
 17 20  1  0  0  0  0
 18 17  1  0  0  0  0
 19 17  1  0  0  0  0
 21 22  1  0  0  0  0
 21  2  1  0  0  0  0
 22 23  1  0  0  0  0
 23 28  1  0  0  0  0
 23 24  2  0  0  0  0
 24 29  1  0  0  0  0
 25 24  1  0  0  0  0
 26 25  2  0  0  0  0
 27 22  2  0  0  0  0
 27 26  1  0  0  0  0
 30 26  1  0  0  0  0
 31 32  1  0  0  0  0
 31 30  1  0  0  0  0
 33 31  1  0  0  0  0
 34 33  1  0  0  0  0
 35 33  1  0  0  0  0
 35 36  1  0  0  0  0
 36 37  1  0  0  0  0
 36 38  1  0  0  0  0
 38 30  1  0  0  0  0
 38 39  1  0  0  0  0
M  END
>  <minimizedAffinity>
-5.60698318

$$$$

 OpenBabel03252500593D

 39 41  0  0  0  0  0  0  0  0999 V2000
   39.1660   30.3060   42.8120 O   0  0  0  0  0  0  0  0  0  0  0  0
   38.0640   29.3230   42.4390 P   0  0  1  0  0  0  0  0  0  0  0  0
   36.5710   30.1520   42.4830 O   0  0  0  0  0  0  0  0  0  0  0  0
   36.6630   31.0420   42.0350 H   0  0  0  0  0  0  0  0  0  0  0  0
   38.3050   28.7810   40.8570 O   0  0  0  0  0  0  0  0  0  0  0  0
   37.0210   29.3330   38.9690 C   0  0  0  0  0  0  0  0  0  0  0  0
   38.1720   29.5230   39.6960 C   0  0  0  0  0  0  0  0  0  0  0  0
   39.1220   30.4540   39.2050 C   0  0  0  0  0  0  0  0  0  0  0  0
   38.8240   31.0880   38.0550 N   0  0  0  0  0  0  0  0  0  0  0  0
   37.6950   30.8810   37.3700 C   0  0  0  0  0  0  0  0  0  0  0  0
   36.7890   29.9980   37.8310 N   0  0  0  0  0  0  0  0  0  0  0  0
   39.9900   30.5560   39.8110 H   0  0  0  0  0  0  0  0  0  0  0  0
   37.5460   31.4300   36.4670 H   0  0  0  0  0  0  0  0  0  0  0  0
   35.9980   28.3860   39.4200 C   0  0  0  0  0  0  0  0  0  0  0  0
   35.8400   27.5450   38.7170 H   0  0  0  0  0  0  0  0  0  0  0  0
   36.3310   27.9250   40.3910 H   0  0  0  0  0  0  0  0  0  0  0  0
   34.7310   29.1300   39.7320 C   0  0  0  0  0  0  0  0  0  0  0  0
   34.9700   30.0220   40.3160 H   0  0  0  0  0  0  0  0  0  0  0  0
   34.0660   28.4920   40.3670 H   0  0  0  0  0  0  0  0  0  0  0  0
   34.1400   29.3640   38.8150 H   0  0  0  0  0  0  0  0  0  0  0  0
   37.9630   28.0710   43.5750 O   0  0  0  0  0  0  0  0  0  0  0  0
   38.4880   26.8350   43.2540 C   0  0  0  0  0  0  0  0  0  0  0  0
   39.7700   26.5290   43.7170 C   0  0  0  0  0  0  0  0  0  0  0  0
   40.3750   25.3100   43.4430 C   0  0  0  0  0  0  0  0  0  0  0  0
   39.6720   24.4040   42.6950 N   0  0  0  0  0  0  0  0  0  0  0  0
   38.4490   24.7020   42.2560 C   0  0  0  0  0  0  0  0  0  0  0  0
   37.8980   25.8750   42.5360 N   0  0  0  0  0  0  0  0  0  0  0  0
   40.3190   27.2390   44.3020 H   0  0  0  0  0  0  0  0  0  0  0  0
   41.3720   25.1000   43.8160 H   0  0  0  0  0  0  0  0  0  0  0  0
   37.7600   23.6590   41.4530 C   0  0  0  0  0  3  0  0  0  0  0  0
   36.4480   24.1490   40.8630 C   0  0  0  0  0  3  0  0  0  0  0  0
   35.7950   23.2530   40.7640 H   0  0  0  0  0  0  0  0  0  0  0  0
   36.6560   24.6820   39.4490 C   0  0  0  0  0  3  0  0  0  0  0  0
   35.9160   25.4970   39.3100 H   0  0  0  0  0  0  0  0  0  0  0  0
   37.9190   25.2510   39.3090 O   0  0  0  0  0  0  0  0  0  0  0  0
   38.9390   24.3390   39.4250 C   0  0  0  0  0  3  0  0  0  0  0  0
   39.8320   24.8680   39.8610 H   0  0  0  0  0  0  0  0  0  0  0  0
   38.6030   23.1530   40.3010 C   0  0  0  0  0  3  0  0  0  0  0  0
   39.5850   22.7580   40.6610 H   0  0  0  0  0  0  0  0  0  0  0  0
  2  3  1  0  0  0  0
  2  1  2  1  0  0  0
  2 21  1  0  0  0  0
  4  3  1  0  0  0  0
  5  2  1  0  0  0  0
  6 14  1  0  0  0  0
  6  7  1  0  0  0  0
  7  5  1  0  0  0  0
  8  7  2  0  0  0  0
  8 12  1  0  0  0  0
  9  8  1  0  0  0  0
 10 11  1  0  0  0  0
 10  9  2  0  0  0  0
 11  6  2  0  0  0  0
 13 10  1  0  0  0  0
 14 17  1  0  0  0  0
 14 16  1  0  0  0  0
 15 14  1  0  0  0  0
 17 18  1  0  0  0  0
 17 19  1  0  0  0  0
 20 17  1  0  0  0  0
 22 21  1  0  0  0  0
 22 23  1  0  0  0  0
 23 28  1  0  0  0  0
 24 23  2  0  0  0  0
 24 29  1  0  0  0  0
 25 24  1  0  0  0  0
 26 27  1  0  0  0  0
 26 25  2  0  0  0  0
 27 22  2  0  0  0  0
 30 26  1  0  0  0  0
 31 30  1  0  0  0  0
 32 31  1  0  0  0  0
 33 31  1  0  0  0  0
 34 33  1  0  0  0  0
 35 36  1  0  0  0  0
 35 33  1  0  0  0  0
 36 37  1  0  0  0  0
 36 38  1  0  0  0  0
 38 39  1  0  0  0  0
 38 30  1  0  0  0  0
M  END
>  <minimizedAffinity>
-5.52920151

$$$$

 OpenBabel03252500593D

 39 41  0  0  0  0  0  0  0  0999 V2000
   40.7660   30.9830   40.0790 O   0  0  0  0  0  0  0  0  0  0  0  0
   40.1280   32.1400   40.8370 P   0  0  1  0  0  0  0  0  0  0  0  0
   40.3200   31.8530   42.5100 O   0  0  0  0  0  0  0  0  0  0  0  0
   41.2530   31.5460   42.6970 H   0  0  0  0  0  0  0  0  0  0  0  0
   40.9400   33.5730   40.4640 O   0  0  0  0  0  0  0  0  0  0  0  0
   42.8330   33.9190   39.1170 C   0  0  0  0  0  0  0  0  0  0  0  0
   42.3100   33.7520   40.3770 C   0  0  0  0  0  0  0  0  0  0  0  0
   43.2050   33.7770   41.4760 C   0  0  0  0  0  0  0  0  0  0  0  0
   44.5100   33.9630   41.2030 N   0  0  0  0  0  0  0  0  0  0  0  0
   44.9890   34.1220   39.9650 C   0  0  0  0  0  0  0  0  0  0  0  0
   44.1440   34.0990   38.9160 N   0  0  0  0  0  0  0  0  0  0  0  0
   42.7400   33.6430   42.4240 H   0  0  0  0  0  0  0  0  0  0  0  0
   46.0400   34.2630   39.8460 H   0  0  0  0  0  0  0  0  0  0  0  0
   41.9640   33.9040   37.9370 C   0  0  0  0  0  0  0  0  0  0  0  0
   40.9010   34.1060   38.1730 H   0  0  0  0  0  0  0  0  0  0  0  0
   42.2910   34.7200   37.2350 H   0  0  0  0  0  0  0  0  0  0  0  0
   42.1600   32.6160   37.1890 C   0  0  0  0  0  0  0  0  0  0  0  0
   43.2280   32.4060   37.1060 H   0  0  0  0  0  0  0  0  0  0  0  0
   41.7650   32.7220   36.1480 H   0  0  0  0  0  0  0  0  0  0  0  0
   41.5910   31.7720   37.6440 H   0  0  0  0  0  0  0  0  0  0  0  0
   38.4620   32.2090   40.5400 O   0  0  0  0  0  0  0  0  0  0  0  0
   37.6810   31.1160   40.8570 C   0  0  0  0  0  0  0  0  0  0  0  0
   36.5350   30.8870   40.0910 C   0  0  0  0  0  0  0  0  0  0  0  0
   35.6940   29.8110   40.3390 C   0  0  0  0  0  0  0  0  0  0  0  0
   36.0210   28.9690   41.3680 N   0  0  0  0  0  0  0  0  0  0  0  0
   37.1160   29.1930   42.0940 C   0  0  0  0  0  0  0  0  0  0  0  0
   37.9010   30.2300   41.8320 N   0  0  0  0  0  0  0  0  0  0  0  0
   36.2800   31.5460   39.2870 H   0  0  0  0  0  0  0  0  0  0  0  0
   34.8100   29.6590   39.7280 H   0  0  0  0  0  0  0  0  0  0  0  0
   37.3940   28.2280   43.1890 C   0  0  0  0  0  3  0  0  0  0  0  0
   36.5950   26.9430   43.0490 C   0  0  0  0  0  3  0  0  0  0  0  0
   36.4450   26.5530   44.0820 H   0  0  0  0  0  0  0  0  0  0  0  0
   37.4010   25.8810   42.3070 C   0  0  0  0  0  3  0  0  0  0  0  0
   36.6670   25.2690   41.7440 H   0  0  0  0  0  0  0  0  0  0  0  0
   38.2510   26.4630   41.3710 O   0  0  0  0  0  0  0  0  0  0  0  0
   39.2390   27.2290   41.9380 C   0  0  0  0  0  3  0  0  0  0  0  0
   39.4900   28.0610   41.2220 H   0  0  0  0  0  0  0  0  0  0  0  0
   38.8550   27.8350   43.2690 C   0  0  0  0  0  3  0  0  0  0  0  0
   39.5090   28.7330   43.3910 H   0  0  0  0  0  0  0  0  0  0  0  0
  2  1  2  6  0  0  0
  2  3  1  0  0  0  0
  3  4  1  0  0  0  0
  5  2  1  0  0  0  0
  6  7  1  0  0  0  0
  7  5  1  0  0  0  0
  7  8  2  0  0  0  0
  8 12  1  0  0  0  0
  9  8  1  0  0  0  0
 10  9  2  0  0  0  0
 11  6  2  0  0  0  0
 11 10  1  0  0  0  0
 13 10  1  0  0  0  0
 14 15  1  0  0  0  0
 14  6  1  0  0  0  0
 16 14  1  0  0  0  0
 17 20  1  0  0  0  0
 17 14  1  0  0  0  0
 18 17  1  0  0  0  0
 19 17  1  0  0  0  0
 21  2  1  0  0  0  0
 21 22  1  0  0  0  0
 22 27  1  0  0  0  0
 23 24  1  0  0  0  0
 23 22  2  0  0  0  0
 24 25  2  0  0  0  0
 25 26  1  0  0  0  0
 26 30  1  0  0  0  0
 27 26  2  0  0  0  0
 28 23  1  0  0  0  0
 29 24  1  0  0  0  0
 30 38  1  0  0  0  0
 31 30  1  0  0  0  0
 31 32  1  0  0  0  0
 33 31  1  0  0  0  0
 34 33  1  0  0  0  0
 35 36  1  0  0  0  0
 35 33  1  0  0  0  0
 36 38  1  0  0  0  0
 37 36  1  0  0  0  0
 38 39  1  0  0  0  0
M  END
>  <minimizedAffinity>
-5.51547194

$$$$

 OpenBabel03252500593D

 39 41  0  0  0  0  0  0  0  0999 V2000
   37.6810   31.9920   36.6080 O   0  0  0  0  0  0  0  0  0  0  0  0
   37.9530   30.7770   37.4860 P   0  0  1  0  0  0  0  0  0  0  0  0
   38.3590   29.4650   36.4710 O   0  0  0  0  0  0  0  0  0  0  0  0
   39.0020   29.7670   35.7670 H   0  0  0  0  0  0  0  0  0  0  0  0
   39.2830   31.0880   38.4810 O   0  0  0  0  0  0  0  0  0  0  0  0
   40.1470   33.1180   39.2870 C   0  0  0  0  0  0  0  0  0  0  0  0
   40.1980   32.1190   38.3460 C   0  0  0  0  0  0  0  0  0  0  0  0
   41.1720   32.2190   37.3210 C   0  0  0  0  0  0  0  0  0  0  0  0
   41.9830   33.2950   37.3460 N   0  0  0  0  0  0  0  0  0  0  0  0
   41.9090   34.2520   38.2760 C   0  0  0  0  0  0  0  0  0  0  0  0
   40.9840   34.1620   39.2520 N   0  0  0  0  0  0  0  0  0  0  0  0
   41.1620   31.4150   36.6250 H   0  0  0  0  0  0  0  0  0  0  0  0
   42.5930   35.0680   38.2140 H   0  0  0  0  0  0  0  0  0  0  0  0
   39.1640   33.0760   40.3720 C   0  0  0  0  0  0  0  0  0  0  0  0
   38.9220   32.0480   40.7060 H   0  0  0  0  0  0  0  0  0  0  0  0
   39.5900   33.6050   41.2700 H   0  0  0  0  0  0  0  0  0  0  0  0
   37.9460   33.8610   39.9740 C   0  0  0  0  0  0  0  0  0  0  0  0
   38.2570   34.8090   39.5300 H   0  0  0  0  0  0  0  0  0  0  0  0
   37.3430   34.1070   40.8840 H   0  0  0  0  0  0  0  0  0  0  0  0
   37.2660   33.2790   39.3090 H   0  0  0  0  0  0  0  0  0  0  0  0
   36.5610   30.3250   38.3390 O   0  0  0  0  0  0  0  0  0  0  0  0
   36.6670   29.3690   39.3300 C   0  0  0  0  0  0  0  0  0  0  0  0
   36.3540   28.0480   39.0000 C   0  0  0  0  0  0  0  0  0  0  0  0
   36.4340   27.0240   39.9330 C   0  0  0  0  0  0  0  0  0  0  0  0
   36.8310   27.3470   41.2020 N   0  0  0  0  0  0  0  0  0  0  0  0
   37.1270   28.6100   41.5110 C   0  0  0  0  0  0  0  0  0  0  0  0
   37.0430   29.5660   40.5970 N   0  0  0  0  0  0  0  0  0  0  0  0
   36.0440   27.7970   38.0060 H   0  0  0  0  0  0  0  0  0  0  0  0
   36.1850   26.0070   39.6470 H   0  0  0  0  0  0  0  0  0  0  0  0
   37.5500   28.8680   42.9120 C   0  0  0  0  0  3  0  0  0  0  0  0
   37.8380   27.5880   43.6780 C   0  0  0  0  0  3  0  0  0  0  0  0
   37.6220   27.8080   44.7490 H   0  0  0  0  0  0  0  0  0  0  0  0
   39.3210   27.2350   43.6080 C   0  0  0  0  0  3  0  0  0  0  0  0
   39.3790   26.1270   43.6300 H   0  0  0  0  0  0  0  0  0  0  0  0
   39.8750   27.6480   42.4000 O   0  0  0  0  0  0  0  0  0  0  0  0
   39.8980   29.0130   42.2520 C   0  0  0  0  0  3  0  0  0  0  0  0
   39.8000   29.2480   41.1560 H   0  0  0  0  0  0  0  0  0  0  0  0
   38.7940   29.7270   43.0010 C   0  0  0  0  0  3  0  0  0  0  0  0
   38.6530   30.7010   42.4700 H   0  0  0  0  0  0  0  0  0  0  0  0
  2  1  2  6  0  0  0
  2 21  1  0  0  0  0
  2  5  1  0  0  0  0
  3  2  1  0  0  0  0
  4  3  1  0  0  0  0
  6 14  1  0  0  0  0
  7  5  1  0  0  0  0
  7  6  2  0  0  0  0
  8  9  2  0  0  0  0
  8  7  1  0  0  0  0
  9 10  1  0  0  0  0
 10 11  2  0  0  0  0
 11  6  1  0  0  0  0
 12  8  1  0  0  0  0
 13 10  1  0  0  0  0
 14 15  1  0  0  0  0
 14 16  1  0  0  0  0
 17 14  1  0  0  0  0
 17 19  1  0  0  0  0
 18 17  1  0  0  0  0
 20 17  1  0  0  0  0
 21 22  1  0  0  0  0
 22 27  1  0  0  0  0
 23 22  2  0  0  0  0
 23 24  1  0  0  0  0
 24 25  2  0  0  0  0
 25 26  1  0  0  0  0
 26 30  1  0  0  0  0
 27 26  2  0  0  0  0
 28 23  1  0  0  0  0
 29 24  1  0  0  0  0
 30 38  1  0  0  0  0
 30 31  1  0  0  0  0
 31 32  1  0  0  0  0
 33 34  1  0  0  0  0
 33 31  1  0  0  0  0
 35 33  1  0  0  0  0
 36 35  1  0  0  0  0
 36 38  1  0  0  0  0
 37 36  1  0  0  0  0
 39 38  1  0  0  0  0
M  END
>  <minimizedAffinity>
-5.46696806

$$$$

 OpenBabel03252500593D

 39 41  0  0  0  0  0  0  0  0999 V2000
   35.4110   28.8990   41.0690 O   0  0  0  0  0  0  0  0  0  0  0  0
   36.8870   29.1910   41.3070 P   0  0  1  0  0  0  0  0  0  0  0  0
   37.7910   28.3910   40.0990 O   0  0  0  0  0  0  0  0  0  0  0  0
   37.3600   28.5260   39.2060 H   0  0  0  0  0  0  0  0  0  0  0  0
   37.1660   30.8490   41.1450 O   0  0  0  0  0  0  0  0  0  0  0  0
   38.4450   32.1460   39.6620 C   0  0  0  0  0  0  0  0  0  0  0  0
   38.3720   31.4630   40.8520 C   0  0  0  0  0  0  0  0  0  0  0  0
   39.5240   31.4410   41.6770 C   0  0  0  0  0  0  0  0  0  0  0  0
   40.6130   32.0960   41.2310 N   0  0  0  0  0  0  0  0  0  0  0  0
   40.6530   32.7520   40.0670 C   0  0  0  0  0  0  0  0  0  0  0  0
   39.5610   32.7770   39.2790 N   0  0  0  0  0  0  0  0  0  0  0  0
   39.4050   30.8980   42.5840 H   0  0  0  0  0  0  0  0  0  0  0  0
   41.5620   33.2430   39.7960 H   0  0  0  0  0  0  0  0  0  0  0  0
   37.2900   32.2090   38.7620 C   0  0  0  0  0  0  0  0  0  0  0  0
   36.3210   32.0740   39.2820 H   0  0  0  0  0  0  0  0  0  0  0  0
   37.2530   33.2290   38.2890 H   0  0  0  0  0  0  0  0  0  0  0  0
   37.4850   31.2390   37.6320 C   0  0  0  0  0  0  0  0  0  0  0  0
   38.5040   31.3300   37.2500 H   0  0  0  0  0  0  0  0  0  0  0  0
   36.7950   31.4990   36.7900 H   0  0  0  0  0  0  0  0  0  0  0  0
   37.2270   30.1940   37.9220 H   0  0  0  0  0  0  0  0  0  0  0  0
   37.3930   28.5620   42.7960 O   0  0  0  0  0  0  0  0  0  0  0  0
   38.0000   27.3220   42.8250 C   0  0  0  0  0  0  0  0  0  0  0  0
   39.1530   27.1760   43.6010 C   0  0  0  0  0  0  0  0  0  0  0  0
   39.8260   25.9650   43.6890 C   0  0  0  0  0  0  0  0  0  0  0  0
   39.3240   24.9040   42.9830 N   0  0  0  0  0  0  0  0  0  0  0  0
   38.2240   25.0510   42.2450 C   0  0  0  0  0  0  0  0  0  0  0  0
   37.6030   26.2200   42.1820 N   0  0  0  0  0  0  0  0  0  0  0  0
   39.5440   28.0070   44.1520 H   0  0  0  0  0  0  0  0  0  0  0  0
   40.7190   25.8820   44.2990 H   0  0  0  0  0  0  0  0  0  0  0  0
   37.7510   23.8460   41.5150 C   0  0  0  0  0  3  0  0  0  0  0  0
   36.4110   24.0660   40.8330 C   0  0  0  0  0  3  0  0  0  0  0  0
   35.9130   23.0710   40.7920 H   0  0  0  0  0  0  0  0  0  0  0  0
   36.6040   24.5060   39.3850 C   0  0  0  0  0  3  0  0  0  0  0  0
   35.7520   25.1750   39.1460 H   0  0  0  0  0  0  0  0  0  0  0  0
   37.7670   25.2580   39.2420 O   0  0  0  0  0  0  0  0  0  0  0  0
   38.9110   24.5360   39.4790 C   0  0  0  0  0  3  0  0  0  0  0  0
   39.6850   25.2370   39.8980 H   0  0  0  0  0  0  0  0  0  0  0  0
   38.7210   23.3890   40.4450 C   0  0  0  0  0  3  0  0  0  0  0  0
   39.7340   23.1890   40.8760 H   0  0  0  0  0  0  0  0  0  0  0  0
  2  1  2  6  0  0  0
  2 21  1  0  0  0  0
  3  2  1  0  0  0  0
  4  3  1  0  0  0  0
  5  2  1  0  0  0  0
  6  7  1  0  0  0  0
  7  5  1  0  0  0  0
  7  8  2  0  0  0  0
  8 12  1  0  0  0  0
  9  8  1  0  0  0  0
 10  9  2  0  0  0  0
 11  6  2  0  0  0  0
 11 10  1  0  0  0  0
 13 10  1  0  0  0  0
 14 15  1  0  0  0  0
 14  6  1  0  0  0  0
 16 14  1  0  0  0  0
 17 20  1  0  0  0  0
 17 14  1  0  0  0  0
 18 17  1  0  0  0  0
 19 17  1  0  0  0  0
 21 22  1  0  0  0  0
 22 23  1  0  0  0  0
 23 24  2  0  0  0  0
 23 28  1  0  0  0  0
 24 29  1  0  0  0  0
 25 24  1  0  0  0  0
 26 25  2  0  0  0  0
 27 26  1  0  0  0  0
 27 22  2  0  0  0  0
 30 26  1  0  0  0  0
 31 30  1  0  0  0  0
 32 31  1  0  0  0  0
 33 31  1  0  0  0  0
 34 33  1  0  0  0  0
 35 33  1  0  0  0  0
 35 36  1  0  0  0  0
 36 37  1  0  0  0  0
 36 38  1  0  0  0  0
 38 39  1  0  0  0  0
 38 30  1  0  0  0  0
M  END
>  <minimizedAffinity>
-5.43937731

$$$$
