
 OpenBabel03252508153D

 38 41  0  0  1  0  0  0  0  0999 V2000
   46.0220   33.0750   46.0870 C   0  0  0  0  0  3  0  0  0  0  0  0
   46.8500   32.1690   45.7430 C   0  0  0  0  0  3  0  0  0  0  0  0
   44.4920   36.0070   44.4630 C   0  0  0  0  0  0  0  0  0  0  0  0
   45.0790   36.0230   43.2050 C   0  0  0  0  0  0  0  0  0  0  0  0
   45.9990   35.0250   42.9390 C   0  0  0  0  0  0  0  0  0  0  0  0
   46.2490   34.1310   43.9030 N   0  0  0  0  0  0  0  0  0  0  0  0
   45.6900   34.1110   45.1100 C   0  0  0  0  0  0  0  0  0  0  0  0
   44.8060   35.0770   45.3570 N   0  0  0  0  0  0  0  0  0  0  0  0
   43.7710   36.7770   44.6930 H   0  0  0  0  0  0  0  0  0  0  0  0
   44.8700   36.7430   42.4420 H   0  0  0  0  0  0  0  0  0  0  0  0
   46.7150   34.8860   41.6680 C   0  0  0  0  0  3  0  0  0  0  0  0
   46.9100   33.4130   41.2840 C   0  0  0  0  0  3  0  0  0  0  0  0
   47.6780   32.9470   41.9070 H   0  0  0  0  0  0  0  0  0  0  0  0
   47.3790   33.4490   39.8420 C   0  0  0  0  0  3  0  0  0  0  0  0
   47.9640   32.5450   39.6250 H   0  0  0  0  0  0  0  0  0  0  0  0
   47.9770   34.6390   39.5090 O   0  0  0  0  0  0  0  0  0  0  0  0
   48.8010   35.1800   40.4820 C   0  0  0  0  0  3  0  0  0  0  0  0
   49.1040   36.1880   40.0840 H   0  0  0  0  0  0  0  0  0  0  0  0
   48.1240   35.4330   41.7970 C   0  0  0  0  0  3  0  0  0  0  0  0
   48.6430   34.7950   42.5630 H   0  0  0  0  0  0  0  0  0  0  0  0
   47.1450   31.1210   46.8100 C   0  0  0  0  0  0  0  0  0  0  0  0
   48.1820   30.7740   46.7300 H   0  0  0  0  0  0  0  0  0  0  0  0
   46.4700   30.2750   46.5800 H   0  0  0  0  0  0  0  0  0  0  0  0
   46.7740   31.6620   48.1710 C   0  0  1  0  0  0  0  0  0  0  0  0
   46.2130   30.6780   49.1370 C   0  0  0  0  0  0  0  0  0  0  0  0
   47.5410   31.2180   49.3580 C   0  0  1  0  0  0  0  0  0  0  0  0
   46.3810   32.6950   48.1880 H   0  0  0  0  0  0  0  0  0  0  0  0
   46.1040   29.6180   48.8170 H   0  0  0  0  0  0  0  0  0  0  0  0
   45.3700   30.9840   49.8060 H   0  0  0  0  0  0  0  0  0  0  0  0
   47.6280   31.9800   50.1920 H   0  0  0  0  0  0  0  0  0  0  0  0
   48.8070   30.4800   49.1370 C   0  0  0  0  0  0  0  0  0  0  0  0
   49.6600   30.2650   50.4210 C   0  0  0  0  0  0  0  0  0  0  0  0
   50.1050   31.2730   49.4450 C   0  0  0  0  0  0  0  0  0  0  0  0
   48.8900   29.7020   48.3560 H   0  0  0  0  0  0  0  0  0  0  0  0
   49.2400   30.6450   51.3740 H   0  0  0  0  0  0  0  0  0  0  0  0
   50.2200   29.3040   50.4370 H   0  0  0  0  0  0  0  0  0  0  0  0
   49.9640   32.3480   49.6640 H   0  0  0  0  0  0  0  0  0  0  0  0
   50.9520   31.0840   48.7390 H   0  0  0  0  0  0  0  0  0  0  0  0
  2  1  2  0  0  0  0
  2 21  1  0  0  0  0
  3  9  1  0  0  0  0
  3  8  1  0  0  0  0
  4  3  2  0  0  0  0
  5  4  1  0  0  0  0
  5  6  2  0  0  0  0
  6  7  1  0  0  0  0
  7  8  2  0  0  0  0
  7  1  1  0  0  0  0
 10  4  1  0  0  0  0
 11 19  1  0  0  0  0
 11  5  1  0  0  0  0
 12 11  1  0  0  0  0
 12 13  1  0  0  0  0
 14 12  1  0  0  0  0
 15 14  1  0  0  0  0
 16 14  1  0  0  0  0
 16 17  1  0  0  0  0
 17 19  1  0  0  0  0
 18 17  1  0  0  0  0
 19 20  1  0  0  0  0
 21 24  1  0  0  0  0
 22 21  1  0  0  0  0
 23 21  1  0  0  0  0
 24 27  1  1  0  0  0
 24 25  1  0  0  0  0
 24 26  1  0  0  0  0
 25 26  1  0  0  0  0
 25 29  1  0  0  0  0
 26 30  1  1  0  0  0
 28 25  1  0  0  0  0
 31 26  1  0  0  0  0
 31 33  1  0  0  0  0
 31 32  1  0  0  0  0
 32 36  1  0  0  0  0
 32 35  1  0  0  0  0
 33 37  1  0  0  0  0
 33 32  1  0  0  0  0
 34 31  1  0  0  0  0
 38 33  1  0  0  0  0
M  END
>  <minimizedAffinity>
-5.82960463

>  <minimizedRMSD>
0.210497454

$$$$
