
 OpenBabel03242520343D

 29 31  0  0  1  0  0  0  0  0999 V2000
   45.5220   33.5710   41.6140 C   0  0  0  0  0  0  0  0  0  0  0  0
   45.9780   34.1250   42.8550 C   0  0  0  0  0  0  0  0  0  0  0  0
   45.2600   35.1820   43.3820 C   0  0  0  0  0  0  0  0  0  0  0  0
   44.1730   35.6290   42.6980 N   0  0  0  0  0  0  0  0  0  0  0  0
   43.7680   35.1010   41.5480 C   0  0  0  0  0  0  0  0  0  0  0  0
   44.4520   34.0650   41.0100 N   0  0  0  0  0  0  0  0  0  0  0  0
   46.0940   32.7310   41.1960 H   0  0  0  0  0  0  0  0  0  0  0  0
   45.5300   35.6610   44.3110 H   0  0  0  0  0  0  0  0  0  0  0  0
   42.5780   35.5970   40.8080 C   0  0  0  0  0  0  0  0  0  0  0  0
   41.2870   35.4430   41.5660 C   0  0  0  0  0  0  0  0  0  0  0  0
   41.0710   34.4400   41.9290 H   0  0  0  0  0  0  0  0  0  0  0  0
   40.1970   35.9440   40.6270 C   0  0  0  0  0  0  0  0  0  0  0  0
   40.6060   36.8650   40.1210 H   0  0  0  0  0  0  0  0  0  0  0  0
   40.0120   35.0030   39.6440 O   0  0  0  0  0  0  0  0  0  0  0  0
   41.0930   34.1710   39.4850 C   0  0  0  0  0  0  0  0  0  0  0  0
   41.0390   33.6550   38.4830 H   0  0  0  0  0  0  0  0  0  0  0  0
   42.4310   34.8460   39.5180 C   0  0  0  0  0  0  0  0  0  0  0  0
   43.1960   34.0440   39.4620 H   0  0  0  0  0  0  0  0  0  0  0  0
   47.1840   33.6020   43.5560 C   0  0  1  0  0  0  0  0  0  0  0  0
   48.0890   32.6990   42.8790 C   0  0  0  0  0  0  0  0  0  0  0  0
   48.5500   34.0950   43.0890 C   0  0  1  0  0  0  0  0  0  0  0  0
   47.0540   33.5190   44.6600 H   0  0  0  0  0  0  0  0  0  0  0  0
   47.8650   32.4720   41.7950 H   0  0  0  0  0  0  0  0  0  0  0  0
   48.5840   31.8320   43.3590 H   0  0  0  0  0  0  0  0  0  0  0  0
   49.3020   34.2240   43.9120 H   0  0  0  0  0  0  0  0  0  0  0  0
   48.6560   35.0530   41.9540 C   0  0  0  0  0  0  0  0  0  0  0  0
   49.9090   35.6370   41.8850 F   0  0  0  0  0  0  0  0  0  0  0  0
   47.6930   36.0600   42.0430 F   0  0  0  0  0  0  0  0  0  0  0  0
   48.4710   34.3580   40.7890 F   0  0  0  0  0  0  0  0  0  0  0  0
  1  2  1  0  0  0  0
  2  3  2  0  0  0  0
  2 19  1  0  0  0  0
  3  8  1  0  0  0  0
  4  3  1  0  0  0  0
  5  4  2  0  0  0  0
  6  5  1  0  0  0  0
  6  1  2  0  0  0  0
  7  1  1  0  0  0  0
  9  5  1  0  0  0  0
  9 10  1  0  0  0  0
 10 11  1  0  0  0  0
 12 10  1  0  0  0  0
 13 12  1  0  0  0  0
 14 12  1  0  0  0  0
 15 17  1  0  0  0  0
 15 14  1  0  0  0  0
 16 15  1  0  0  0  0
 17  9  1  0  0  0  0
 18 17  1  0  0  0  0
 19 22  1  1  0  0  0
 20 21  1  0  0  0  0
 20 24  1  0  0  0  0
 20 19  1  0  0  0  0
 21 19  1  0  0  0  0
 21 25  1  1  0  0  0
 23 20  1  0  0  0  0
 26 28  1  0  0  0  0
 26 21  1  0  0  0  0
 27 26  1  0  0  0  0
 29 26  1  0  0  0  0
M  END
>  <minimizedAffinity>
-5.34064579

>  <minimizedRMSD>
4.78367424

$$$$
