
 OpenBabel03252508153D

 38 41  0  0  1  0  0  0  0  0999 V2000
   46.0170   33.0740   46.0840 C   0  0  0  0  0  3  0  0  0  0  0  0
   46.8580   32.1770   45.7450 C   0  0  0  0  0  3  0  0  0  0  0  0
   44.4920   36.0100   44.4620 C   0  0  0  0  0  0  0  0  0  0  0  0
   45.0800   36.0260   43.2050 C   0  0  0  0  0  0  0  0  0  0  0  0
   45.9990   35.0270   42.9380 C   0  0  0  0  0  0  0  0  0  0  0  0
   46.2470   34.1320   43.9010 N   0  0  0  0  0  0  0  0  0  0  0  0
   45.6870   34.1120   45.1080 C   0  0  0  0  0  0  0  0  0  0  0  0
   44.8050   35.0780   45.3550 N   0  0  0  0  0  0  0  0  0  0  0  0
   43.7720   36.7800   44.6920 H   0  0  0  0  0  0  0  0  0  0  0  0
   44.8720   36.7470   42.4420 H   0  0  0  0  0  0  0  0  0  0  0  0
   46.7160   34.8890   41.6670 C   0  0  0  0  0  3  0  0  0  0  0  0
   46.9090   33.4150   41.2820 C   0  0  0  0  0  3  0  0  0  0  0  0
   47.6760   32.9470   41.9050 H   0  0  0  0  0  0  0  0  0  0  0  0
   47.3780   33.4530   39.8400 C   0  0  0  0  0  3  0  0  0  0  0  0
   47.9620   32.5470   39.6220 H   0  0  0  0  0  0  0  0  0  0  0  0
   47.9770   34.6420   39.5080 O   0  0  0  0  0  0  0  0  0  0  0  0
   48.8030   35.1800   40.4820 C   0  0  0  0  0  3  0  0  0  0  0  0
   49.1070   36.1890   40.0850 H   0  0  0  0  0  0  0  0  0  0  0  0
   48.1250   35.4330   41.7970 C   0  0  0  0  0  3  0  0  0  0  0  0
   48.6430   34.7930   42.5630 H   0  0  0  0  0  0  0  0  0  0  0  0
   47.1500   31.1270   46.8110 C   0  0  0  0  0  0  0  0  0  0  0  0
   48.1870   30.7790   46.7310 H   0  0  0  0  0  0  0  0  0  0  0  0
   46.4740   30.2830   46.5790 H   0  0  0  0  0  0  0  0  0  0  0  0
   46.7790   31.6660   48.1730 C   0  0  1  0  0  0  0  0  0  0  0  0
   46.2160   30.6830   49.1370 C   0  0  0  0  0  0  0  0  0  0  0  0
   47.5440   31.2190   49.3600 C   0  0  1  0  0  0  0  0  0  0  0  0
   46.3880   32.7000   48.1920 H   0  0  0  0  0  0  0  0  0  0  0  0
   46.1050   29.6240   48.8160 H   0  0  0  0  0  0  0  0  0  0  0  0
   45.3730   30.9890   49.8060 H   0  0  0  0  0  0  0  0  0  0  0  0
   47.6320   31.9800   50.1950 H   0  0  0  0  0  0  0  0  0  0  0  0
   48.8090   30.4800   49.1390 C   0  0  0  0  0  0  0  0  0  0  0  0
   49.6620   30.2640   50.4230 C   0  0  0  0  0  0  0  0  0  0  0  0
   50.1090   31.2710   49.4460 C   0  0  0  0  0  0  0  0  0  0  0  0
   48.8910   29.7010   48.3580 H   0  0  0  0  0  0  0  0  0  0  0  0
   49.2430   30.6450   51.3760 H   0  0  0  0  0  0  0  0  0  0  0  0
   50.2210   29.3020   50.4380 H   0  0  0  0  0  0  0  0  0  0  0  0
   49.9700   32.3460   49.6650 H   0  0  0  0  0  0  0  0  0  0  0  0
   50.9550   31.0800   48.7400 H   0  0  0  0  0  0  0  0  0  0  0  0
  2  1  2  0  0  0  0
  2 21  1  0  0  0  0
  3  9  1  0  0  0  0
  3  8  1  0  0  0  0
  4  3  2  0  0  0  0
  5  4  1  0  0  0  0
  5  6  2  0  0  0  0
  6  7  1  0  0  0  0
  7  8  2  0  0  0  0
  7  1  1  0  0  0  0
 10  4  1  0  0  0  0
 11 19  1  0  0  0  0
 11  5  1  0  0  0  0
 12 11  1  0  0  0  0
 12 13  1  0  0  0  0
 14 12  1  0  0  0  0
 15 14  1  0  0  0  0
 16 14  1  0  0  0  0
 16 17  1  0  0  0  0
 17 19  1  0  0  0  0
 18 17  1  0  0  0  0
 19 20  1  0  0  0  0
 21 24  1  0  0  0  0
 22 21  1  0  0  0  0
 23 21  1  0  0  0  0
 24 27  1  1  0  0  0
 24 25  1  0  0  0  0
 24 26  1  0  0  0  0
 25 26  1  0  0  0  0
 25 29  1  0  0  0  0
 26 30  1  1  0  0  0
 28 25  1  0  0  0  0
 31 26  1  0  0  0  0
 31 33  1  0  0  0  0
 31 32  1  0  0  0  0
 32 36  1  0  0  0  0
 32 35  1  0  0  0  0
 33 37  1  0  0  0  0
 33 32  1  0  0  0  0
 34 31  1  0  0  0  0
 38 33  1  0  0  0  0
M  END
>  <minimizedAffinity>
-5.82866049

>  <minimizedRMSD>
0.687215328

$$$$
