
 OpenBabel03252508153D

 38 41  0  0  1  0  0  0  0  0999 V2000
   46.0280   33.0800   46.0880 C   0  0  0  0  0  3  0  0  0  0  0  0
   46.8480   32.1680   45.7400 C   0  0  0  0  0  3  0  0  0  0  0  0
   44.4900   36.0060   44.4610 C   0  0  0  0  0  0  0  0  0  0  0  0
   45.0770   36.0230   43.2040 C   0  0  0  0  0  0  0  0  0  0  0  0
   46.0000   35.0270   42.9380 C   0  0  0  0  0  0  0  0  0  0  0  0
   46.2520   34.1340   43.9030 N   0  0  0  0  0  0  0  0  0  0  0  0
   45.6930   34.1140   45.1100 C   0  0  0  0  0  0  0  0  0  0  0  0
   44.8070   35.0770   45.3560 N   0  0  0  0  0  0  0  0  0  0  0  0
   43.7670   36.7740   44.6910 H   0  0  0  0  0  0  0  0  0  0  0  0
   44.8660   36.7410   42.4400 H   0  0  0  0  0  0  0  0  0  0  0  0
   46.7170   34.8890   41.6670 C   0  0  0  0  0  3  0  0  0  0  0  0
   46.9090   33.4160   41.2820 C   0  0  0  0  0  3  0  0  0  0  0  0
   47.6760   32.9470   41.9040 H   0  0  0  0  0  0  0  0  0  0  0  0
   47.3780   33.4530   39.8390 C   0  0  0  0  0  3  0  0  0  0  0  0
   47.9620   32.5480   39.6210 H   0  0  0  0  0  0  0  0  0  0  0  0
   47.9780   34.6420   39.5080 O   0  0  0  0  0  0  0  0  0  0  0  0
   48.8040   35.1800   40.4830 C   0  0  0  0  0  3  0  0  0  0  0  0
   49.1090   36.1890   40.0860 H   0  0  0  0  0  0  0  0  0  0  0  0
   48.1270   35.4330   41.7980 C   0  0  0  0  0  3  0  0  0  0  0  0
   48.6430   34.7930   42.5640 H   0  0  0  0  0  0  0  0  0  0  0  0
   47.1470   31.1220   46.8080 C   0  0  0  0  0  0  0  0  0  0  0  0
   48.1850   30.7770   46.7270 H   0  0  0  0  0  0  0  0  0  0  0  0
   46.4740   30.2750   46.5800 H   0  0  0  0  0  0  0  0  0  0  0  0
   46.7760   31.6640   48.1690 C   0  0  1  0  0  0  0  0  0  0  0  0
   46.2150   30.6820   49.1360 C   0  0  0  0  0  0  0  0  0  0  0  0
   47.5430   31.2210   49.3560 C   0  0  1  0  0  0  0  0  0  0  0  0
   46.3840   32.6970   48.1860 H   0  0  0  0  0  0  0  0  0  0  0  0
   46.1050   29.6220   48.8170 H   0  0  0  0  0  0  0  0  0  0  0  0
   45.3730   30.9890   49.8050 H   0  0  0  0  0  0  0  0  0  0  0  0
   47.6310   31.9840   50.1900 H   0  0  0  0  0  0  0  0  0  0  0  0
   48.8080   30.4820   49.1360 C   0  0  0  0  0  0  0  0  0  0  0  0
   49.6600   30.2640   50.4210 C   0  0  0  0  0  0  0  0  0  0  0  0
   50.1080   31.2730   49.4470 C   0  0  0  0  0  0  0  0  0  0  0  0
   48.8910   29.7050   48.3540 H   0  0  0  0  0  0  0  0  0  0  0  0
   49.2390   30.6440   51.3740 H   0  0  0  0  0  0  0  0  0  0  0  0
   50.2190   29.3030   50.4350 H   0  0  0  0  0  0  0  0  0  0  0  0
   49.9670   32.3480   49.6670 H   0  0  0  0  0  0  0  0  0  0  0  0
   50.9550   31.0840   48.7410 H   0  0  0  0  0  0  0  0  0  0  0  0
  2  1  2  0  0  0  0
  2 21  1  0  0  0  0
  3  9  1  0  0  0  0
  3  8  1  0  0  0  0
  4  3  2  0  0  0  0
  5  4  1  0  0  0  0
  5  6  2  0  0  0  0
  6  7  1  0  0  0  0
  7  8  2  0  0  0  0
  7  1  1  0  0  0  0
 10  4  1  0  0  0  0
 11 19  1  0  0  0  0
 11  5  1  0  0  0  0
 12 11  1  0  0  0  0
 12 13  1  0  0  0  0
 14 12  1  0  0  0  0
 15 14  1  0  0  0  0
 16 14  1  0  0  0  0
 16 17  1  0  0  0  0
 17 19  1  0  0  0  0
 18 17  1  0  0  0  0
 19 20  1  0  0  0  0
 21 24  1  0  0  0  0
 22 21  1  0  0  0  0
 23 21  1  0  0  0  0
 24 27  1  1  0  0  0
 24 25  1  0  0  0  0
 24 26  1  0  0  0  0
 25 26  1  0  0  0  0
 25 29  1  0  0  0  0
 26 30  1  1  0  0  0
 28 25  1  0  0  0  0
 31 26  1  0  0  0  0
 31 33  1  0  0  0  0
 31 32  1  0  0  0  0
 32 36  1  0  0  0  0
 32 35  1  0  0  0  0
 33 37  1  0  0  0  0
 33 32  1  0  0  0  0
 34 31  1  0  0  0  0
 38 33  1  0  0  0  0
M  END
>  <minimizedAffinity>
-5.82950974

>  <minimizedRMSD>
0.922680795

$$$$
