
 OpenBabel03242523153D

 26 28  0  0  0  0  0  0  0  0999 V2000
   37.3620   30.1720   41.3010 C   0  0  0  0  0  0  0  0  0  0  0  0
   37.6580   29.0680   42.1460 C   0  0  0  0  0  0  0  0  0  0  0  0
   38.8820   29.0500   42.8450 C   0  0  0  0  0  0  0  0  0  0  0  0
   39.7380   30.1160   42.6640 N   0  0  0  0  0  0  0  0  0  0  0  0
   39.4130   31.1280   41.8560 C   0  0  0  0  0  0  0  0  0  0  0  0
   38.2330   31.1670   41.1730 N   0  0  0  0  0  0  0  0  0  0  0  0
   39.0460   28.2040   43.4600 H   0  0  0  0  0  0  0  0  0  0  0  0
   40.2150   31.8560   41.8540 H   0  0  0  0  0  0  0  0  0  0  0  0
   36.1510   30.4870   40.5160 C   0  0  0  0  0  3  0  0  0  0  0  0
   35.2340   29.3410   40.2900 C   0  0  0  0  0  3  0  0  0  0  0  0
   34.1700   29.5930   40.5800 H   0  0  0  0  0  0  0  0  0  0  0  0
   35.1910   28.7440   38.9390 C   0  0  0  0  0  3  0  0  0  0  0  0
   35.9370   27.9180   38.7920 H   0  0  0  0  0  0  0  0  0  0  0  0
   35.4080   29.6450   37.9030 O   0  0  0  0  0  0  0  0  0  0  0  0
   36.7240   30.1010   38.1130 C   0  0  0  0  0  3  0  0  0  0  0  0
   37.3800   29.2590   38.3610 H   0  0  0  0  0  0  0  0  0  0  0  0
   36.6200   31.1180   39.1960 C   0  0  0  0  0  3  0  0  0  0  0  0
   35.9080   31.8970   38.8570 H   0  0  0  0  0  0  0  0  0  0  0  0
   36.7520   27.8920   42.2440 C   0  0  0  0  0  0  0  0  0  0  0  0
   37.1730   26.6330   42.7330 C   0  0  0  0  0  0  0  0  0  0  0  0
   36.3210   27.4390   43.6690 C   0  0  0  0  0  0  0  0  0  0  0  0
   35.7770   28.1030   41.6870 H   0  0  0  0  0  0  0  0  0  0  0  0
   36.7280   25.6660   42.3370 H   0  0  0  0  0  0  0  0  0  0  0  0
   38.1560   26.4100   43.1740 H   0  0  0  0  0  0  0  0  0  0  0  0
   35.2730   27.1240   43.7250 H   0  0  0  0  0  0  0  0  0  0  0  0
   36.7300   27.9800   44.5170 H   0  0  0  0  0  0  0  0  0  0  0  0
  1  2  1  0  0  0  0
  2 19  1  0  0  0  0
  2  3  2  0  0  0  0
  3  7  1  0  0  0  0
  4  3  1  0  0  0  0
  5  4  2  0  0  0  0
  6  1  2  0  0  0  0
  6  5  1  0  0  0  0
  8  5  1  0  0  0  0
  9  1  1  0  0  0  0
 10  9  1  0  0  0  0
 10 11  1  0  0  0  0
 12 10  1  0  0  0  0
 13 12  1  0  0  0  0
 14 15  1  0  0  0  0
 14 12  1  0  0  0  0
 15 16  1  0  0  0  0
 15 17  1  0  0  0  0
 17  9  1  0  0  0  0
 18 17  1  0  0  0  0
 19 20  1  0  0  0  0
 19 21  1  0  0  0  0
 20 24  1  0  0  0  0
 20 21  1  0  0  0  0
 21 25  1  0  0  0  0
 21 26  1  0  0  0  0
 22 19  1  0  0  0  0
 23 20  1  0  0  0  0
M  END
>  <minimizedAffinity>
-4.75347567

$$$$

 OpenBabel03242523153D

 26 28  0  0  0  0  0  0  0  0999 V2000
   38.5520   26.7540   42.8470 C   0  0  0  0  0  0  0  0  0  0  0  0
   38.6310   25.5920   42.0320 C   0  0  0  0  0  0  0  0  0  0  0  0
   39.7930   24.7970   42.0850 C   0  0  0  0  0  0  0  0  0  0  0  0
   40.8050   25.1970   42.9330 N   0  0  0  0  0  0  0  0  0  0  0  0
   40.6810   26.2990   43.6770 C   0  0  0  0  0  0  0  0  0  0  0  0
   39.5650   27.0820   43.6430 N   0  0  0  0  0  0  0  0  0  0  0  0
   39.7930   23.9440   41.4580 H   0  0  0  0  0  0  0  0  0  0  0  0
   41.5790   26.4340   44.2680 H   0  0  0  0  0  0  0  0  0  0  0  0
   37.4520   27.7200   43.0460 C   0  0  0  0  0  3  0  0  0  0  0  0
   36.4910   27.8150   41.9180 C   0  0  0  0  0  3  0  0  0  0  0  0
   35.4210   27.7050   42.2680 H   0  0  0  0  0  0  0  0  0  0  0  0
   36.5490   29.0160   41.0580 C   0  0  0  0  0  3  0  0  0  0  0  0
   37.2500   28.9110   40.1890 H   0  0  0  0  0  0  0  0  0  0  0  0
   36.9290   30.1790   41.7180 O   0  0  0  0  0  0  0  0  0  0  0  0
   38.2430   29.9160   42.1520 C   0  0  0  0  0  3  0  0  0  0  0  0
   38.8140   29.4320   41.3510 H   0  0  0  0  0  0  0  0  0  0  0  0
   38.0940   29.0760   43.3730 C   0  0  0  0  0  3  0  0  0  0  0  0
   37.4730   29.6420   44.0950 H   0  0  0  0  0  0  0  0  0  0  0  0
   37.5600   25.2440   41.0600 C   0  0  0  0  0  0  0  0  0  0  0  0
   37.5070   24.0030   40.3830 C   0  0  0  0  0  0  0  0  0  0  0  0
   36.5190   24.1740   41.4990 C   0  0  0  0  0  0  0  0  0  0  0  0
   36.9470   26.1740   40.8050 H   0  0  0  0  0  0  0  0  0  0  0  0
   37.0850   23.9220   39.3310 H   0  0  0  0  0  0  0  0  0  0  0  0
   38.1710   23.1440   40.5610 H   0  0  0  0  0  0  0  0  0  0  0  0
   35.4970   24.4060   41.1780 H   0  0  0  0  0  0  0  0  0  0  0  0
   36.6480   23.7120   42.4730 H   0  0  0  0  0  0  0  0  0  0  0  0
  1  9  1  0  0  0  0
  1  6  1  0  0  0  0
  2  3  1  0  0  0  0
  2  1  2  0  0  0  0
  3  4  2  0  0  0  0
  4  5  1  0  0  0  0
  5  8  1  0  0  0  0
  6  5  2  0  0  0  0
  7  3  1  0  0  0  0
  9 17  1  0  0  0  0
 10 11  1  0  0  0  0
 10  9  1  0  0  0  0
 12 14  1  0  0  0  0
 12 10  1  0  0  0  0
 13 12  1  0  0  0  0
 14 15  1  0  0  0  0
 15 17  1  0  0  0  0
 16 15  1  0  0  0  0
 17 18  1  0  0  0  0
 19 21  1  0  0  0  0
 19  2  1  0  0  0  0
 20 24  1  0  0  0  0
 20 19  1  0  0  0  0
 20 21  1  0  0  0  0
 21 26  1  0  0  0  0
 22 19  1  0  0  0  0
 23 20  1  0  0  0  0
 25 21  1  0  0  0  0
M  END
>  <minimizedAffinity>
-4.45613289

$$$$

 OpenBabel03242523153D

 26 28  0  0  0  0  0  0  0  0999 V2000
   36.7560   29.2330   41.2100 C   0  0  0  0  0  0  0  0  0  0  0  0
   36.1120   29.6170   40.0030 C   0  0  0  0  0  0  0  0  0  0  0  0
   36.5210   30.8010   39.3570 C   0  0  0  0  0  0  0  0  0  0  0  0
   37.5330   31.5330   39.9410 N   0  0  0  0  0  0  0  0  0  0  0  0
   38.1040   31.1280   41.0780 C   0  0  0  0  0  0  0  0  0  0  0  0
   37.7270   29.9850   41.7190 N   0  0  0  0  0  0  0  0  0  0  0  0
   36.0070   31.0350   38.4610 H   0  0  0  0  0  0  0  0  0  0  0  0
   38.8710   31.8380   41.3660 H   0  0  0  0  0  0  0  0  0  0  0  0
   36.5860   28.0310   42.0530 C   0  0  0  0  0  3  0  0  0  0  0  0
   37.1950   28.1220   43.4040 C   0  0  0  0  0  3  0  0  0  0  0  0
   36.4570   27.8470   44.2150 H   0  0  0  0  0  0  0  0  0  0  0  0
   38.4330   27.3560   43.6580 C   0  0  0  0  0  3  0  0  0  0  0  0
   39.3690   27.9250   43.4170 H   0  0  0  0  0  0  0  0  0  0  0  0
   38.5230   26.1570   42.9600 O   0  0  0  0  0  0  0  0  0  0  0  0
   38.5480   26.5480   41.6060 C   0  0  0  0  0  3  0  0  0  0  0  0
   39.2190   27.4050   41.4750 H   0  0  0  0  0  0  0  0  0  0  0  0
   37.1310   26.8380   41.2540 C   0  0  0  0  0  3  0  0  0  0  0  0
   36.5410   25.9230   41.4610 H   0  0  0  0  0  0  0  0  0  0  0  0
   34.9600   28.8540   39.4530 C   0  0  0  0  0  0  0  0  0  0  0  0
   34.4370   29.0740   38.1570 C   0  0  0  0  0  0  0  0  0  0  0  0
   35.2580   27.8290   38.3200 C   0  0  0  0  0  0  0  0  0  0  0  0
   34.4610   28.2480   40.2840 H   0  0  0  0  0  0  0  0  0  0  0  0
   33.3320   28.9350   37.9340 H   0  0  0  0  0  0  0  0  0  0  0  0
   34.8660   29.7420   37.3950 H   0  0  0  0  0  0  0  0  0  0  0  0
   34.6790   26.9040   38.4100 H   0  0  0  0  0  0  0  0  0  0  0  0
   36.2820   27.7500   37.9670 H   0  0  0  0  0  0  0  0  0  0  0  0
  1  6  1  0  0  0  0
  1  9  1  0  0  0  0
  2  1  2  0  0  0  0
  3  4  2  0  0  0  0
  3  2  1  0  0  0  0
  4  5  1  0  0  0  0
  5  8  1  0  0  0  0
  5  6  2  0  0  0  0
  7  3  1  0  0  0  0
  9 10  1  0  0  0  0
 10 12  1  0  0  0  0
 10 11  1  0  0  0  0
 13 12  1  0  0  0  0
 14 12  1  0  0  0  0
 15 14  1  0  0  0  0
 16 15  1  0  0  0  0
 17 18  1  0  0  0  0
 17 15  1  0  0  0  0
 17  9  1  0  0  0  0
 19  2  1  0  0  0  0
 19 22  1  0  0  0  0
 20 21  1  0  0  0  0
 20 19  1  0  0  0  0
 21 25  1  0  0  0  0
 21 19  1  0  0  0  0
 23 20  1  0  0  0  0
 24 20  1  0  0  0  0
 26 21  1  0  0  0  0
M  END
>  <minimizedAffinity>
-4.30138254

$$$$

 OpenBabel03242523153D

 26 28  0  0  0  0  0  0  0  0999 V2000
   38.5840   30.4440   41.8850 C   0  0  0  0  0  0  0  0  0  0  0  0
   38.5490   31.5540   40.9990 C   0  0  0  0  0  0  0  0  0  0  0  0
   39.7270   32.3000   40.7900 C   0  0  0  0  0  0  0  0  0  0  0  0
   40.8620   31.9090   41.4680 N   0  0  0  0  0  0  0  0  0  0  0  0
   40.8400   30.8580   42.2930 C   0  0  0  0  0  0  0  0  0  0  0  0
   39.7130   30.1210   42.5070 N   0  0  0  0  0  0  0  0  0  0  0  0
   39.6410   33.1130   40.1180 H   0  0  0  0  0  0  0  0  0  0  0  0
   41.8260   30.7210   42.7220 H   0  0  0  0  0  0  0  0  0  0  0  0
   37.5410   29.4590   42.2380 C   0  0  0  0  0  3  0  0  0  0  0  0
   37.7560   28.7530   43.5270 C   0  0  0  0  0  3  0  0  0  0  0  0
   36.8400   28.8030   44.1890 H   0  0  0  0  0  0  0  0  0  0  0  0
   38.1870   27.3400   43.4790 C   0  0  0  0  0  3  0  0  0  0  0  0
   39.3020   27.2140   43.4540 H   0  0  0  0  0  0  0  0  0  0  0  0
   37.6960   26.6230   42.3940 O   0  0  0  0  0  0  0  0  0  0  0  0
   38.2580   27.2660   41.2740 C   0  0  0  0  0  3  0  0  0  0  0  0
   39.3160   27.4840   41.4560 H   0  0  0  0  0  0  0  0  0  0  0  0
   37.4240   28.4820   41.0590 C   0  0  0  0  0  3  0  0  0  0  0  0
   36.3760   28.1500   40.9240 H   0  0  0  0  0  0  0  0  0  0  0  0
   37.2850   32.0040   40.3570 C   0  0  0  0  0  0  0  0  0  0  0  0
   37.2480   32.9550   39.3110 C   0  0  0  0  0  0  0  0  0  0  0  0
   37.0180   31.5310   38.8990 C   0  0  0  0  0  0  0  0  0  0  0  0
   36.3880   31.6360   40.9630 H   0  0  0  0  0  0  0  0  0  0  0  0
   36.3730   33.6710   39.1950 H   0  0  0  0  0  0  0  0  0  0  0  0
   38.1220   33.3860   38.8010 H   0  0  0  0  0  0  0  0  0  0  0  0
   35.9700   31.2690   38.7140 H   0  0  0  0  0  0  0  0  0  0  0  0
   37.7800   30.9300   38.4140 H   0  0  0  0  0  0  0  0  0  0  0  0
  1  9  1  0  0  0  0
  1  6  1  0  0  0  0
  2  1  2  0  0  0  0
  3  2  1  0  0  0  0
  3  4  2  0  0  0  0
  4  5  1  0  0  0  0
  5  6  2  0  0  0  0
  5  8  1  0  0  0  0
  7  3  1  0  0  0  0
  9 10  1  0  0  0  0
 10 11  1  0  0  0  0
 12 10  1  0  0  0  0
 13 12  1  0  0  0  0
 14 12  1  0  0  0  0
 15 16  1  0  0  0  0
 15 14  1  0  0  0  0
 17 15  1  0  0  0  0
 17  9  1  0  0  0  0
 18 17  1  0  0  0  0
 19 22  1  0  0  0  0
 19  2  1  0  0  0  0
 20 19  1  0  0  0  0
 21 20  1  0  0  0  0
 21 19  1  0  0  0  0
 23 20  1  0  0  0  0
 24 20  1  0  0  0  0
 25 21  1  0  0  0  0
 26 21  1  0  0  0  0
M  END
>  <minimizedAffinity>
-4.29882526

$$$$

 OpenBabel03242523153D

 26 28  0  0  0  0  0  0  0  0999 V2000
   37.0290   26.7420   40.7440 C   0  0  0  0  0  0  0  0  0  0  0  0
   36.5490   27.7850   41.5830 C   0  0  0  0  0  0  0  0  0  0  0  0
   35.7620   28.8090   41.0180 C   0  0  0  0  0  0  0  0  0  0  0  0
   35.5010   28.7450   39.6650 N   0  0  0  0  0  0  0  0  0  0  0  0
   35.9790   27.7440   38.9210 C   0  0  0  0  0  0  0  0  0  0  0  0
   36.7390   26.7410   39.4470 N   0  0  0  0  0  0  0  0  0  0  0  0
   35.4320   29.5570   41.6910 H   0  0  0  0  0  0  0  0  0  0  0  0
   35.6620   27.8790   37.8940 H   0  0  0  0  0  0  0  0  0  0  0  0
   37.8020   25.5250   41.0660 C   0  0  0  0  0  3  0  0  0  0  0  0
   38.6350   25.0000   39.9550 C   0  0  0  0  0  3  0  0  0  0  0  0
   39.7050   24.8290   40.2780 H   0  0  0  0  0  0  0  0  0  0  0  0
   38.1820   23.7710   39.2710 C   0  0  0  0  0  3  0  0  0  0  0  0
   37.5010   23.9680   38.4010 H   0  0  0  0  0  0  0  0  0  0  0  0
   37.5080   22.8710   40.0880 O   0  0  0  0  0  0  0  0  0  0  0  0
   36.3530   23.5710   40.4920 C   0  0  0  0  0  3  0  0  0  0  0  0
   35.9130   24.0950   39.6360 H   0  0  0  0  0  0  0  0  0  0  0  0
   36.8040   24.4780   41.5830 C   0  0  0  0  0  3  0  0  0  0  0  0
   37.2650   23.8510   42.3720 H   0  0  0  0  0  0  0  0  0  0  0  0
   36.9290   27.8720   43.0180 C   0  0  0  0  0  0  0  0  0  0  0  0
   38.1990   27.4850   43.5040 C   0  0  0  0  0  0  0  0  0  0  0  0
   37.9640   28.9640   43.4170 C   0  0  0  0  0  0  0  0  0  0  0  0
   36.0030   28.0880   43.6530 H   0  0  0  0  0  0  0  0  0  0  0  0
   38.3240   27.0450   44.5450 H   0  0  0  0  0  0  0  0  0  0  0  0
   39.0570   27.1760   42.8900 H   0  0  0  0  0  0  0  0  0  0  0  0
   37.7330   29.4510   44.3710 H   0  0  0  0  0  0  0  0  0  0  0  0
   38.3810   29.5790   42.6250 H   0  0  0  0  0  0  0  0  0  0  0  0
  1  9  1  0  0  0  0
  1  2  1  0  0  0  0
  2 19  1  0  0  0  0
  3  2  2  0  0  0  0
  3  7  1  0  0  0  0
  4  3  1  0  0  0  0
  5  6  1  0  0  0  0
  5  4  2  0  0  0  0
  6  1  2  0  0  0  0
  8  5  1  0  0  0  0
  9 17  1  0  0  0  0
 10 11  1  0  0  0  0
 10  9  1  0  0  0  0
 12 10  1  0  0  0  0
 12 14  1  0  0  0  0
 13 12  1  0  0  0  0
 14 15  1  0  0  0  0
 15 17  1  0  0  0  0
 16 15  1  0  0  0  0
 17 18  1  0  0  0  0
 19 21  1  0  0  0  0
 19 20  1  0  0  0  0
 19 22  1  0  0  0  0
 20 23  1  0  0  0  0
 21 20  1  0  0  0  0
 21 25  1  0  0  0  0
 24 20  1  0  0  0  0
 26 21  1  0  0  0  0
M  END
>  <minimizedAffinity>
-4.24194336

$$$$

 OpenBabel03242523153D

 26 28  0  0  0  0  0  0  0  0999 V2000
   37.2220   26.8590   41.7100 C   0  0  0  0  0  0  0  0  0  0  0  0
   36.8140   28.2180   41.6200 C   0  0  0  0  0  0  0  0  0  0  0  0
   37.3800   29.1610   42.5010 C   0  0  0  0  0  0  0  0  0  0  0  0
   38.3080   28.7080   43.4150 N   0  0  0  0  0  0  0  0  0  0  0  0
   38.6550   27.4190   43.4590 C   0  0  0  0  0  0  0  0  0  0  0  0
   38.1220   26.4900   42.6150 N   0  0  0  0  0  0  0  0  0  0  0  0
   37.0400   30.1570   42.3860 H   0  0  0  0  0  0  0  0  0  0  0  0
   39.3910   27.2740   44.2410 H   0  0  0  0  0  0  0  0  0  0  0  0
   36.8560   25.6870   40.8890 C   0  0  0  0  0  3  0  0  0  0  0  0
   36.9810   24.3770   41.5760 C   0  0  0  0  0  3  0  0  0  0  0  0
   36.0340   23.7640   41.4840 H   0  0  0  0  0  0  0  0  0  0  0  0
   38.1090   23.5010   41.1970 C   0  0  0  0  0  3  0  0  0  0  0  0
   39.0370   23.6810   41.8020 H   0  0  0  0  0  0  0  0  0  0  0  0
   38.4950   23.6000   39.8650 O   0  0  0  0  0  0  0  0  0  0  0  0
   38.9400   24.9310   39.7340 C   0  0  0  0  0  3  0  0  0  0  0  0
   39.5650   25.2050   40.5920 H   0  0  0  0  0  0  0  0  0  0  0  0
   37.7020   25.7490   39.6090 C   0  0  0  0  0  3  0  0  0  0  0  0
   37.1330   25.3640   38.7400 H   0  0  0  0  0  0  0  0  0  0  0  0
   35.7420   28.6540   40.6860 C   0  0  0  0  0  0  0  0  0  0  0  0
   35.5670   29.9990   40.2860 C   0  0  0  0  0  0  0  0  0  0  0  0
   36.1760   29.0930   39.2570 C   0  0  0  0  0  0  0  0  0  0  0  0
   34.9950   27.8030   40.5260 H   0  0  0  0  0  0  0  0  0  0  0  0
   34.5360   30.4180   40.0560 H   0  0  0  0  0  0  0  0  0  0  0  0
   36.2370   30.8360   40.5330 H   0  0  0  0  0  0  0  0  0  0  0  0
   35.4880   28.7580   38.4730 H   0  0  0  0  0  0  0  0  0  0  0  0
   37.2370   29.0930   39.0290 H   0  0  0  0  0  0  0  0  0  0  0  0
  1  6  1  0  0  0  0
  2  1  2  0  0  0  0
  2  3  1  0  0  0  0
  3  4  2  0  0  0  0
  4  5  1  0  0  0  0
  5  8  1  0  0  0  0
  6  5  2  0  0  0  0
  7  3  1  0  0  0  0
  9 10  1  0  0  0  0
  9  1  1  0  0  0  0
 11 10  1  0  0  0  0
 12 10  1  0  0  0  0
 12 13  1  0  0  0  0
 14 12  1  0  0  0  0
 15 14  1  0  0  0  0
 15 16  1  0  0  0  0
 17 15  1  0  0  0  0
 17  9  1  0  0  0  0
 18 17  1  0  0  0  0
 19  2  1  0  0  0  0
 20 24  1  0  0  0  0
 20 19  1  0  0  0  0
 21 20  1  0  0  0  0
 21 19  1  0  0  0  0
 22 19  1  0  0  0  0
 23 20  1  0  0  0  0
 25 21  1  0  0  0  0
 26 21  1  0  0  0  0
M  END
>  <minimizedAffinity>
-4.2370162

$$$$

 OpenBabel03242523153D

 26 28  0  0  0  0  0  0  0  0999 V2000
   36.9620   29.4680   41.3060 C   0  0  0  0  0  0  0  0  0  0  0  0
   37.4890   30.3200   40.2980 C   0  0  0  0  0  0  0  0  0  0  0  0
   36.7900   30.4530   39.0810 C   0  0  0  0  0  0  0  0  0  0  0  0
   35.6210   29.7370   38.9320 N   0  0  0  0  0  0  0  0  0  0  0  0
   35.1700   28.9480   39.9110 C   0  0  0  0  0  0  0  0  0  0  0  0
   35.8280   28.8070   41.0970 N   0  0  0  0  0  0  0  0  0  0  0  0
   37.2290   31.1020   38.3690 H   0  0  0  0  0  0  0  0  0  0  0  0
   34.2450   28.4800   39.5950 H   0  0  0  0  0  0  0  0  0  0  0  0
   37.4340   29.1930   42.6790 C   0  0  0  0  0  3  0  0  0  0  0  0
   38.9040   29.2810   42.8660 C   0  0  0  0  0  3  0  0  0  0  0  0
   39.1760   29.9500   43.7370 H   0  0  0  0  0  0  0  0  0  0  0  0
   39.6580   28.0210   43.0290 C   0  0  0  0  0  3  0  0  0  0  0  0
   40.0090   27.5810   42.0580 H   0  0  0  0  0  0  0  0  0  0  0  0
   38.9570   27.0090   43.6760 O   0  0  0  0  0  0  0  0  0  0  0  0
   37.8740   26.7370   42.8170 C   0  0  0  0  0  3  0  0  0  0  0  0
   38.2190   26.6970   41.7780 H   0  0  0  0  0  0  0  0  0  0  0  0
   36.8830   27.8170   43.0800 C   0  0  0  0  0  3  0  0  0  0  0  0
   36.6360   27.7900   44.1590 H   0  0  0  0  0  0  0  0  0  0  0  0
   38.8010   31.0030   40.4560 C   0  0  0  0  0  0  0  0  0  0  0  0
   39.2600   32.0060   39.5720 C   0  0  0  0  0  0  0  0  0  0  0  0
   38.7800   32.4920   40.9080 C   0  0  0  0  0  0  0  0  0  0  0  0
   39.4310   30.4590   41.2400 H   0  0  0  0  0  0  0  0  0  0  0  0
   40.3660   32.1340   39.3460 H   0  0  0  0  0  0  0  0  0  0  0  0
   38.6820   32.4530   38.7490 H   0  0  0  0  0  0  0  0  0  0  0  0
   39.5750   32.7390   41.6200 H   0  0  0  0  0  0  0  0  0  0  0  0
   37.8130   32.9640   41.0480 H   0  0  0  0  0  0  0  0  0  0  0  0
  1  9  1  0  0  0  0
  2 19  1  0  0  0  0
  2  1  2  0  0  0  0
  3  2  1  0  0  0  0
  4  3  2  0  0  0  0
  4  5  1  0  0  0  0
  5  6  2  0  0  0  0
  6  1  1  0  0  0  0
  7  3  1  0  0  0  0
  8  5  1  0  0  0  0
  9 10  1  0  0  0  0
  9 17  1  0  0  0  0
 10 12  1  0  0  0  0
 10 11  1  0  0  0  0
 12 14  1  0  0  0  0
 13 12  1  0  0  0  0
 15 17  1  0  0  0  0
 15 14  1  0  0  0  0
 16 15  1  0  0  0  0
 17 18  1  0  0  0  0
 19 21  1  0  0  0  0
 19 22  1  0  0  0  0
 20 19  1  0  0  0  0
 20 21  1  0  0  0  0
 21 26  1  0  0  0  0
 21 25  1  0  0  0  0
 23 20  1  0  0  0  0
 24 20  1  0  0  0  0
M  END
>  <minimizedAffinity>
-4.21998835

$$$$

 OpenBabel03242523153D

 26 28  0  0  0  0  0  0  0  0999 V2000
   38.1630   26.4540   42.3780 C   0  0  0  0  0  0  0  0  0  0  0  0
   38.9490   27.4100   43.0770 C   0  0  0  0  0  0  0  0  0  0  0  0
   38.5140   28.7490   43.1270 C   0  0  0  0  0  0  0  0  0  0  0  0
   37.3350   29.0630   42.4840 N   0  0  0  0  0  0  0  0  0  0  0  0
   36.6340   28.1270   41.8390 C   0  0  0  0  0  0  0  0  0  0  0  0
   37.0360   26.8250   41.7800 N   0  0  0  0  0  0  0  0  0  0  0  0
   39.1380   29.4140   43.6630 H   0  0  0  0  0  0  0  0  0  0  0  0
   35.7490   28.5780   41.4060 H   0  0  0  0  0  0  0  0  0  0  0  0
   38.3340   24.9950   42.2200 C   0  0  0  0  0  3  0  0  0  0  0  0
   39.1920   24.5840   41.0800 C   0  0  0  0  0  3  0  0  0  0  0  0
   40.0010   23.8630   41.4040 H   0  0  0  0  0  0  0  0  0  0  0  0
   38.5340   24.0020   39.8920 C   0  0  0  0  0  3  0  0  0  0  0  0
   38.2300   24.7660   39.1290 H   0  0  0  0  0  0  0  0  0  0  0  0
   37.3890   23.2640   40.1720 O   0  0  0  0  0  0  0  0  0  0  0  0
   36.4970   24.2070   40.7200 C   0  0  0  0  0  3  0  0  0  0  0  0
   36.5210   25.1330   40.1340 H   0  0  0  0  0  0  0  0  0  0  0  0
   36.9290   24.3820   42.1340 C   0  0  0  0  0  3  0  0  0  0  0  0
   36.9030   23.3850   42.6180 H   0  0  0  0  0  0  0  0  0  0  0  0
   40.2620   27.0540   43.6790 C   0  0  0  0  0  0  0  0  0  0  0  0
   41.3700   26.6230   42.9120 C   0  0  0  0  0  0  0  0  0  0  0  0
   41.4490   28.0290   43.4300 C   0  0  0  0  0  0  0  0  0  0  0  0
   40.1640   26.9820   44.8150 H   0  0  0  0  0  0  0  0  0  0  0  0
   42.1230   25.8800   43.3270 H   0  0  0  0  0  0  0  0  0  0  0  0
   41.4210   26.5950   41.8130 H   0  0  0  0  0  0  0  0  0  0  0  0
   42.0920   28.1610   44.3070 H   0  0  0  0  0  0  0  0  0  0  0  0
   41.2680   28.8970   42.8030 H   0  0  0  0  0  0  0  0  0  0  0  0
  1  2  1  0  0  0  0
  2  3  2  0  0  0  0
  2 19  1  0  0  0  0
  3  7  1  0  0  0  0
  4  3  1  0  0  0  0
  5  4  2  0  0  0  0
  6  5  1  0  0  0  0
  6  1  2  0  0  0  0
  8  5  1  0  0  0  0
  9  1  1  0  0  0  0
 10 11  1  0  0  0  0
 10  9  1  0  0  0  0
 12 14  1  0  0  0  0
 12 10  1  0  0  0  0
 13 12  1  0  0  0  0
 14 15  1  0  0  0  0
 15 17  1  0  0  0  0
 16 15  1  0  0  0  0
 17  9  1  0  0  0  0
 17 18  1  0  0  0  0
 19 22  1  0  0  0  0
 20 23  1  0  0  0  0
 20 21  1  0  0  0  0
 20 19  1  0  0  0  0
 21 19  1  0  0  0  0
 21 25  1  0  0  0  0
 24 20  1  0  0  0  0
 26 21  1  0  0  0  0
M  END
>  <minimizedAffinity>
-4.19250059

$$$$

 OpenBabel03242523153D

 26 28  0  0  0  0  0  0  0  0999 V2000
   38.5540   26.4230   42.6380 C   0  0  0  0  0  0  0  0  0  0  0  0
   39.2350   27.6320   42.9440 C   0  0  0  0  0  0  0  0  0  0  0  0
   40.5730   27.5710   43.3830 C   0  0  0  0  0  0  0  0  0  0  0  0
   41.1540   26.3250   43.4960 N   0  0  0  0  0  0  0  0  0  0  0  0
   40.4690   25.2190   43.1970 C   0  0  0  0  0  0  0  0  0  0  0  0
   39.1740   25.2540   42.7680 N   0  0  0  0  0  0  0  0  0  0  0  0
   41.0290   28.5030   43.5940 H   0  0  0  0  0  0  0  0  0  0  0  0
   41.1020   24.3530   43.3520 H   0  0  0  0  0  0  0  0  0  0  0  0
   37.1970   26.1900   42.1020 C   0  0  0  0  0  3  0  0  0  0  0  0
   36.7130   24.7900   42.2080 C   0  0  0  0  0  3  0  0  0  0  0  0
   35.6920   24.7360   42.6910 H   0  0  0  0  0  0  0  0  0  0  0  0
   36.6580   23.9810   40.9720 C   0  0  0  0  0  3  0  0  0  0  0  0
   37.6090   23.4250   40.7600 H   0  0  0  0  0  0  0  0  0  0  0  0
   36.3720   24.7060   39.8210 O   0  0  0  0  0  0  0  0  0  0  0  0
   37.4620   25.5890   39.6900 C   0  0  0  0  0  3  0  0  0  0  0  0
   38.4020   25.0580   39.8820 H   0  0  0  0  0  0  0  0  0  0  0  0
   37.1910   26.6940   40.6510 C   0  0  0  0  0  3  0  0  0  0  0  0
   36.2070   27.1310   40.3900 H   0  0  0  0  0  0  0  0  0  0  0  0
   38.5480   28.9500   42.9010 C   0  0  0  0  0  0  0  0  0  0  0  0
   39.2430   30.1820   42.8890 C   0  0  0  0  0  0  0  0  0  0  0  0
   38.6470   29.7630   41.5780 C   0  0  0  0  0  0  0  0  0  0  0  0
   37.4290   28.8130   43.0880 H   0  0  0  0  0  0  0  0  0  0  0  0
   38.8080   31.1110   43.3780 H   0  0  0  0  0  0  0  0  0  0  0  0
   40.3340   30.3050   42.8140 H   0  0  0  0  0  0  0  0  0  0  0  0
   37.7140   30.2730   41.3120 H   0  0  0  0  0  0  0  0  0  0  0  0
   39.2390   29.3450   40.7700 H   0  0  0  0  0  0  0  0  0  0  0  0
  1  6  2  0  0  0  0
  1  2  1  0  0  0  0
  2  3  2  0  0  0  0
  3  4  1  0  0  0  0
  3  7  1  0  0  0  0
  5  8  1  0  0  0  0
  5  4  2  0  0  0  0
  6  5  1  0  0  0  0
  9 10  1  0  0  0  0
  9  1  1  0  0  0  0
 10 11  1  0  0  0  0
 12 10  1  0  0  0  0
 13 12  1  0  0  0  0
 14 12  1  0  0  0  0
 15 14  1  0  0  0  0
 15 16  1  0  0  0  0
 15 17  1  0  0  0  0
 17  9  1  0  0  0  0
 18 17  1  0  0  0  0
 19  2  1  0  0  0  0
 19 22  1  0  0  0  0
 20 19  1  0  0  0  0
 20 23  1  0  0  0  0
 21 20  1  0  0  0  0
 21 19  1  0  0  0  0
 24 20  1  0  0  0  0
 25 21  1  0  0  0  0
 26 21  1  0  0  0  0
M  END
>  <minimizedAffinity>
-4.17390251

$$$$
