
 OpenBabel03252509043D

 49 51  0  0  1  0  0  0  0  0999 V2000
   46.8040   34.3500   43.5030 N   0  0  0  0  0  0  0  0  0  0  0  0
   46.5060   34.9570   42.2640 C   0  0  0  0  0  0  0  0  0  0  0  0
   45.0340   34.9950   41.9050 C   0  0  0  0  0  0  0  0  0  0  0  0
   44.1180   35.1400   43.0880 C   0  0  0  0  0  0  0  0  0  0  0  0
   44.8880   35.3180   44.3770 C   0  0  0  0  0  0  0  0  0  0  0  0
   45.8210   34.0460   44.4220 C   0  0  2  0  0  0  0  0  0  0  0  0
   47.0200   34.5610   41.3800 H   0  0  0  0  0  0  0  0  0  0  0  0
   46.8310   36.0310   42.3320 H   0  0  0  0  0  0  0  0  0  0  0  0
   44.8060   34.0970   41.2980 H   0  0  0  0  0  0  0  0  0  0  0  0
   44.8580   35.8760   41.2460 H   0  0  0  0  0  0  0  0  0  0  0  0
   43.4190   36.0040   42.9810 H   0  0  0  0  0  0  0  0  0  0  0  0
   43.4860   34.2510   43.2070 H   0  0  0  0  0  0  0  0  0  0  0  0
   44.1970   35.2190   45.2190 H   0  0  0  0  0  0  0  0  0  0  0  0
   45.5200   36.2280   44.3950 H   0  0  0  0  0  0  0  0  0  0  0  0
   45.1240   33.2140   44.1940 H   0  0  0  0  0  0  0  0  0  0  0  0
   47.9940   33.5430   43.4860 C   0  0  0  0  0  0  0  0  0  0  0  0
   48.2250   33.2450   44.5320 H   0  0  0  0  0  0  0  0  0  0  0  0
   48.8040   34.1630   43.0620 H   0  0  0  0  0  0  0  0  0  0  0  0
   47.7500   32.3200   42.6850 C   0  0  0  0  0  0  0  0  0  0  0  0
   47.5340   31.4130   43.2770 H   0  0  0  0  0  0  0  0  0  0  0  0
   46.8550   32.4430   42.0170 H   0  0  0  0  0  0  0  0  0  0  0  0
   51.2500   32.1080   41.3400 C   0  0  0  0  0  0  0  0  0  0  0  0
   50.1560   32.3290   42.1970 C   0  0  0  0  0  0  0  0  0  0  0  0
   48.8860   32.0800   41.7620 C   0  0  0  0  0  0  0  0  0  0  0  0
   48.7400   31.6280   40.5130 N   0  0  0  0  0  0  0  0  0  0  0  0
   49.7650   31.4110   39.6840 C   0  0  0  0  0  0  0  0  0  0  0  0
   51.0290   31.6450   40.0780 N   0  0  0  0  0  0  0  0  0  0  0  0
   52.2720   32.3040   41.6770 H   0  0  0  0  0  0  0  0  0  0  0  0
   50.3770   32.6990   43.1960 H   0  0  0  0  0  0  0  0  0  0  0  0
   49.4690   31.0410   38.6990 H   0  0  0  0  0  0  0  0  0  0  0  0
   46.2840   34.0750   45.7190 O   0  0  0  0  0  0  0  0  0  0  0  0
   45.5780   31.5250   45.5720 O   0  0  0  0  0  0  0  0  0  0  0  0
   46.0550   32.6130   46.5310 P   0  0  2  0  0  0  0  0  0  0  0  0
   44.7720   32.8790   47.6160 O   0  0  0  0  0  0  0  0  0  0  0  0
   44.9780   32.5790   48.5330 H   0  0  0  0  0  0  0  0  0  0  0  0
   47.4040   32.1570   47.4070 O   0  0  0  0  0  0  0  0  0  0  0  0
   47.6050   30.7910   47.1960 C   0  0  0  0  0  0  0  0  0  0  0  0
   46.6900   30.2620   47.5690 H   0  0  0  0  0  0  0  0  0  0  0  0
   47.7960   30.5560   46.1480 H   0  0  0  0  0  0  0  0  0  0  0  0
   48.7570   30.3930   48.0960 C   0  0  0  0  0  3  0  0  0  0  0  0
   48.9630   28.8980   48.1610 C   0  0  0  0  0  3  0  0  0  0  0  0
   48.1180   28.4350   48.7120 H   0  0  0  0  0  0  0  0  0  0  0  0
   50.2050   28.7030   49.0350 C   0  0  0  0  0  3  0  0  0  0  0  0
   50.4350   27.6280   49.1860 H   0  0  0  0  0  0  0  0  0  0  0  0
   49.9850   29.2440   50.2800 O   0  0  0  0  0  0  0  0  0  0  0  0
   49.7620   30.6030   50.2980 C   0  0  0  0  0  3  0  0  0  0  0  0
   49.5990   30.8890   51.3540 H   0  0  0  0  0  0  0  0  0  0  0  0
   48.5200   30.9400   49.4820 C   0  0  0  0  0  3  0  0  0  0  0  0
   47.6560   30.4020   49.9120 H   0  0  0  0  0  0  0  0  0  0  0  0
  1  6  1  0  0  0  0
  2  8  1  0  0  0  0
  2  1  1  0  0  0  0
  3  2  1  0  0  0  0
  3  4  1  0  0  0  0
  4 12  1  0  0  0  0
  4  5  1  0  0  0  0
  5 14  1  0  0  0  0
  5  6  1  0  0  0  0
  5 13  1  0  0  0  0
  6 15  1  6  0  0  0
  6 31  1  0  0  0  0
  7  2  1  0  0  0  0
  9  3  1  0  0  0  0
 10  3  1  0  0  0  0
 11  4  1  0  0  0  0
 16  1  1  0  0  0  0
 16 17  1  0  0  0  0
 18 16  1  0  0  0  0
 19 20  1  0  0  0  0
 19 16  1  0  0  0  0
 21 19  1  0  0  0  0
 22 28  1  0  0  0  0
 22 23  1  0  0  0  0
 23 29  1  0  0  0  0
 24 23  2  0  0  0  0
 24 19  1  0  0  0  0
 25 24  1  0  0  0  0
 26 27  1  0  0  0  0
 26 25  2  0  0  0  0
 27 22  2  0  0  0  0
 30 26  1  0  0  0  0
 31 33  1  0  0  0  0
 33 32  2  6  0  0  0
 33 36  1  0  0  0  0
 33 34  1  0  0  0  0
 34 35  1  0  0  0  0
 37 36  1  0  0  0  0
 37 38  1  0  0  0  0
 37 40  1  0  0  0  0
 39 37  1  0  0  0  0
 40 41  1  0  0  0  0
 40 48  1  0  0  0  0
 41 42  1  0  0  0  0
 41 43  1  0  0  0  0
 43 44  1  0  0  0  0
 43 45  1  0  0  0  0
 45 46  1  0  0  0  0
 46 47  1  0  0  0  0
 48 49  1  0  0  0  0
 48 46  1  0  0  0  0
M  END
>  <minimizedAffinity>
-4.99093008

>  <minimizedRMSD>
2.75572228

$$$$
