
 OpenBabel03242523433D

 25 26  0  0  1  0  0  0  0  0999 V2000
   46.2720   35.1870   42.1490 C   0  0  1  0  0  0  0  0  0  0  0  0
   46.0070   36.2910   42.0940 H   0  0  0  0  0  0  0  0  0  0  0  0
   45.5820   34.5100   41.0310 C   0  0  0  0  0  3  0  0  0  0  0  0
   44.2760   33.8280   41.3890 C   0  0  0  0  0  3  0  0  0  0  0  0
   44.4430   32.8490   41.8300 H   0  0  0  0  0  0  0  0  0  0  0  0
   43.6050   33.5960   40.0330 C   0  0  0  0  0  3  0  0  0  0  0  0
   43.5360   34.5880   39.5520 H   0  0  0  0  0  0  0  0  0  0  0  0
   44.3260   32.6750   39.3490 O   0  0  0  0  0  0  0  0  0  0  0  0
   45.6390   32.9600   39.0690 C   0  0  0  0  0  3  0  0  0  0  0  0
   46.1360   32.0110   38.7800 H   0  0  0  0  0  0  0  0  0  0  0  0
   46.4020   33.5830   40.1970 C   0  0  0  0  0  3  0  0  0  0  0  0
   46.8090   32.7850   40.8290 H   0  0  0  0  0  0  0  0  0  0  0  0
   45.0220   35.4330   44.2470 C   0  0  0  0  0  0  0  0  0  0  0  0
   45.9790   34.7370   43.5060 C   0  0  0  0  0  0  0  0  0  0  0  0
   46.6250   33.6530   44.1060 C   0  0  0  0  0  0  0  0  0  0  0  0
   46.2850   33.3340   45.3800 N   0  0  0  0  0  0  0  0  0  0  0  0
   45.3500   34.0290   46.0750 C   0  0  0  0  0  0  0  0  0  0  0  0
   44.7080   35.0890   45.5140 N   0  0  0  0  0  0  0  0  0  0  0  0
   44.5010   36.2790   43.8170 H   0  0  0  0  0  0  0  0  0  0  0  0
   47.3690   33.0900   43.5900 H   0  0  0  0  0  0  0  0  0  0  0  0
   45.1280   33.7110   47.1020 H   0  0  0  0  0  0  0  0  0  0  0  0
   47.7730   35.1310   41.9530 C   0  0  0  0  0  0  0  0  0  0  0  0
   48.1170   34.0850   41.9700 H   0  0  0  0  0  0  0  0  0  0  0  0
   48.0040   35.6490   40.9970 H   0  0  0  0  0  0  0  0  0  0  0  0
   48.2500   35.6670   42.8060 H   0  0  0  0  0  0  0  0  0  0  0  0
  1  2  1  6  0  0  0
  1 14  1  0  0  0  0
  3  4  1  0  0  0  0
  3  1  1  0  0  0  0
  4  5  1  0  0  0  0
  6  4  1  0  0  0  0
  7  6  1  0  0  0  0
  8  6  1  0  0  0  0
  9  8  1  0  0  0  0
  9 11  1  0  0  0  0
 10  9  1  0  0  0  0
 11 12  1  0  0  0  0
 11  3  1  0  0  0  0
 13 18  1  0  0  0  0
 14 15  1  0  0  0  0
 14 13  2  0  0  0  0
 15 16  2  0  0  0  0
 16 17  1  0  0  0  0
 17 21  1  0  0  0  0
 18 17  2  0  0  0  0
 19 13  1  0  0  0  0
 20 15  1  0  0  0  0
 22 23  1  0  0  0  0
 22  1  1  0  0  0  0
 22 25  1  0  0  0  0
 24 22  1  0  0  0  0
M  END
>  <minimizedAffinity>
-4.03639698

>  <minimizedRMSD>
1.01667607

$$$$
