
 OpenBabel03252506463D

 43 46  0  0  1  0  0  0  0  0999 V2000
   49.3520   33.2820   41.4460 N   0  0  1  0  0  0  0  0  0  0  0  0
   50.6750   33.1290   42.0340 C   0  0  0  0  0  0  0  0  0  0  0  0
   51.3160   31.8120   41.7110 C   0  0  0  0  0  0  0  0  0  0  0  0
   50.5350   30.7170   42.4220 C   0  0  0  0  0  0  0  0  0  0  0  0
   49.0580   31.0270   42.3980 C   0  0  0  0  0  0  0  0  0  0  0  0
   48.7650   31.9950   41.2770 C   0  0  2  0  0  0  0  0  0  0  0  0
   50.6630   33.2250   43.1350 H   0  0  0  0  0  0  0  0  0  0  0  0
   51.3130   33.9510   41.6400 H   0  0  0  0  0  0  0  0  0  0  0  0
   52.3390   31.8520   42.1280 H   0  0  0  0  0  0  0  0  0  0  0  0
   51.3810   31.6210   40.6140 H   0  0  0  0  0  0  0  0  0  0  0  0
   50.9220   30.5240   43.4350 H   0  0  0  0  0  0  0  0  0  0  0  0
   50.7150   29.7940   41.8320 H   0  0  0  0  0  0  0  0  0  0  0  0
   48.4330   30.1460   42.3200 H   0  0  0  0  0  0  0  0  0  0  0  0
   48.8300   31.5570   43.3580 H   0  0  0  0  0  0  0  0  0  0  0  0
   47.6550   32.1530   41.2920 H   0  0  0  0  0  0  0  0  0  0  0  0
   47.2290   34.6200   42.0100 C   0  0  1  0  0  0  0  0  0  0  0  0
   48.3340   35.5240   41.7120 C   0  0  0  0  0  0  0  0  0  0  0  0
   48.6490   34.1890   42.2970 C   0  0  2  0  0  0  0  0  0  0  0  0
   46.7690   33.9900   41.2030 H   0  0  0  0  0  0  0  0  0  0  0  0
   48.5950   35.7130   40.6460 H   0  0  0  0  0  0  0  0  0  0  0  0
   48.4700   36.4290   42.3520 H   0  0  0  0  0  0  0  0  0  0  0  0
   48.9260   34.1730   43.3700 H   0  0  0  0  0  0  0  0  0  0  0  0
   45.5190   36.0420   43.1670 C   0  0  0  0  0  0  0  0  0  0  0  0
   46.3170   34.8720   43.1330 C   0  0  0  0  0  0  0  0  0  0  0  0
   46.1930   33.9840   44.2000 C   0  0  0  0  0  0  0  0  0  0  0  0
   45.3270   34.2900   45.1950 N   0  0  0  0  0  0  0  0  0  0  0  0
   44.5820   35.4020   45.2080 C   0  0  0  0  0  0  0  0  0  0  0  0
   44.6690   36.2960   44.1900 N   0  0  0  0  0  0  0  0  0  0  0  0
   45.5920   36.7630   42.3420 H   0  0  0  0  0  0  0  0  0  0  0  0
   46.7880   33.0700   44.2150 H   0  0  0  0  0  0  0  0  0  0  0  0
   43.8890   35.6520   46.0000 H   0  0  0  0  0  0  0  0  0  0  0  0
   49.0680   31.3980   40.0100 N   0  0  0  0  0  0  0  0  0  0  0  0
   50.0850   31.1830   39.9670 H   0  0  0  0  0  0  0  0  0  0  0  0
   48.4990   31.9810   38.8760 C   0  0  0  0  0  3  0  0  0  0  0  0
   47.6020   30.9350   38.2100 C   0  0  0  0  0  3  0  0  0  0  0  0
   46.8610   31.4160   37.5620 H   0  0  0  0  0  0  0  0  0  0  0  0
   48.4400   30.0130   37.3290 C   0  0  0  0  0  3  0  0  0  0  0  0
   47.7340   29.3420   36.8110 H   0  0  0  0  0  0  0  0  0  0  0  0
   49.1610   30.7170   36.3660 O   0  0  0  0  0  0  0  0  0  0  0  0
   50.1450   31.4420   37.0540 C   0  0  0  0  0  3  0  0  0  0  0  0
   50.7640   30.8070   37.7140 H   0  0  0  0  0  0  0  0  0  0  0  0
   49.4010   32.5230   37.8270 C   0  0  0  0  0  3  0  0  0  0  0  0
   48.7260   32.9970   37.0630 H   0  0  0  0  0  0  0  0  0  0  0  0
  1  2  1  1  0  0  0
  1 18  1  0  0  0  0
  2  7  1  0  0  0  0
  3  2  1  0  0  0  0
  3  9  1  0  0  0  0
  3  4  1  0  0  0  0
  4 11  1  0  0  0  0
  5  4  1  0  0  0  0
  5 14  1  0  0  0  0
  6 15  1  1  0  0  0
  6  1  1  0  0  0  0
  6  5  1  0  0  0  0
  8  2  1  0  0  0  0
 10  3  1  0  0  0  0
 12  4  1  0  0  0  0
 13  5  1  0  0  0  0
 16 19  1  6  0  0  0
 16 18  1  0  0  0  0
 16 24  1  0  0  0  0
 17 16  1  0  0  0  0
 17 18  1  0  0  0  0
 17 21  1  0  0  0  0
 18 22  1  1  0  0  0
 20 17  1  0  0  0  0
 23 28  1  0  0  0  0
 24 23  2  0  0  0  0
 24 25  1  0  0  0  0
 25 30  1  0  0  0  0
 25 26  2  0  0  0  0
 26 27  1  0  0  0  0
 27 31  1  0  0  0  0
 28 27  2  0  0  0  0
 29 23  1  0  0  0  0
 32  6  1  0  0  0  0
 33 32  1  0  0  0  0
 34 32  1  0  0  0  0
 35 34  1  0  0  0  0
 36 35  1  0  0  0  0
 37 35  1  0  0  0  0
 38 37  1  0  0  0  0
 39 40  1  0  0  0  0
 39 37  1  0  0  0  0
 40 41  1  0  0  0  0
 40 42  1  0  0  0  0
 42 34  1  0  0  0  0
 43 42  1  0  0  0  0
M  END
>  <minimizedAffinity>
-4.78579521

>  <minimizedRMSD>
1.81589925

$$$$
