
 OpenBabel03252503223D

 41 45  0  0  1  0  0  0  0  0999 V2000
   47.5320   33.9940   41.2930 C   0  0  1  0  0  0  0  0  0  0  0  0
   48.1200   35.2500   41.7110 C   0  0  0  0  0  0  0  0  0  0  0  0
   46.6270   35.0910   41.8340 C   0  0  2  0  0  0  0  0  0  0  0  0
   47.5340   33.0510   41.9010 H   0  0  0  0  0  0  0  0  0  0  0  0
   48.7350   35.2670   42.6320 H   0  0  0  0  0  0  0  0  0  0  0  0
   48.5040   35.9230   40.9300 H   0  0  0  0  0  0  0  0  0  0  0  0
   46.0420   35.7170   41.1620 H   0  0  0  0  0  0  0  0  0  0  0  0
   46.1060   34.8520   43.2100 C   0  0  0  0  0  0  0  0  0  0  0  0
   45.1120   35.5900   43.8140 C   0  0  0  0  0  0  0  0  0  0  0  0
   44.6620   35.3140   45.0860 C   0  0  0  0  0  0  0  0  0  0  0  0
   45.2120   34.2680   45.7930 C   0  0  0  0  0  0  0  0  0  0  0  0
   44.8050   33.9490   47.0510 N   0  0  0  0  0  0  0  0  0  0  0  0
   45.3480   32.9250   47.7300 C   0  0  0  0  0  0  0  0  0  0  0  0
   46.3650   32.1140   47.2010 C   0  0  0  0  0  0  0  0  0  0  0  0
   46.8090   32.4070   45.9190 C   0  0  0  0  0  0  0  0  0  0  0  0
   46.2260   33.4780   45.2420 C   0  0  0  0  0  0  0  0  0  0  0  0
   46.6350   33.8090   43.9580 C   0  0  0  0  0  0  0  0  0  0  0  0
   44.7100   36.4010   43.2190 H   0  0  0  0  0  0  0  0  0  0  0  0
   43.8750   35.9120   45.5420 H   0  0  0  0  0  0  0  0  0  0  0  0
   45.0340   32.6600   48.7310 H   0  0  0  0  0  0  0  0  0  0  0  0
   46.8090   31.2900   47.7300 H   0  0  0  0  0  0  0  0  0  0  0  0
   47.5850   31.8110   45.4770 H   0  0  0  0  0  0  0  0  0  0  0  0
   47.4350   33.1550   43.6150 H   0  0  0  0  0  0  0  0  0  0  0  0
   48.2070   34.3230   38.8940 C   0  0  0  0  0  0  0  0  0  0  0  0
   47.3980   33.6440   39.8550 C   0  0  0  0  0  0  0  0  0  0  0  0
   46.5200   32.6730   39.4150 C   0  0  0  0  0  0  0  0  0  0  0  0
   46.4850   32.4270   38.0690 N   0  0  0  0  0  0  0  0  0  0  0  0
   47.2470   33.0680   37.1680 C   0  0  0  0  0  0  0  0  0  0  0  0
   48.1060   34.0160   37.5900 N   0  0  0  0  0  0  0  0  0  0  0  0
   48.9110   35.0970   39.2080 H   0  0  0  0  0  0  0  0  0  0  0  0
   45.8910   32.1360   40.1120 H   0  0  0  0  0  0  0  0  0  0  0  0
   47.0350   32.6190   35.7680 C   0  0  0  0  0  0  0  0  0  0  0  0
   48.3170   32.4920   34.9830 C   0  0  0  0  0  0  0  0  0  0  0  0
   48.0650   31.8900   34.0650 H   0  0  0  0  0  0  0  0  0  0  0  0
   49.2840   31.6620   35.7870 C   0  0  0  0  0  0  0  0  0  0  0  0
   49.6970   32.3160   36.5860 H   0  0  0  0  0  0  0  0  0  0  0  0
   48.6480   30.5730   36.3600 O   0  0  0  0  0  0  0  0  0  0  0  0
   47.4900   30.2160   35.7170 C   0  0  0  0  0  0  0  0  0  0  0  0
   47.6590   29.9790   34.6450 H   0  0  0  0  0  0  0  0  0  0  0  0
   46.3940   31.2510   35.8100 C   0  0  0  0  0  0  0  0  0  0  0  0
   45.6660   31.1480   34.9670 H   0  0  0  0  0  0  0  0  0  0  0  0
  1  2  1  0  0  0  0
  1  3  1  0  0  0  0
  1  4  1  1  0  0  0
  2  3  1  0  0  0  0
  2  5  1  0  0  0  0
  3  7  1  6  0  0  0
  3  8  1  0  0  0  0
  6  2  1  0  0  0  0
  8  9  2  0  0  0  0
  8 17  1  0  0  0  0
  9 10  1  0  0  0  0
 10 19  1  0  0  0  0
 10 11  2  0  0  0  0
 11 12  1  0  0  0  0
 12 13  2  0  0  0  0
 13 20  1  0  0  0  0
 14 13  1  0  0  0  0
 14 21  1  0  0  0  0
 15 14  2  0  0  0  0
 16 11  1  0  0  0  0
 16 15  1  0  0  0  0
 17 16  2  0  0  0  0
 18  9  1  0  0  0  0
 22 15  1  0  0  0  0
 23 17  1  0  0  0  0
 24 30  1  0  0  0  0
 24 25  1  0  0  0  0
 25  1  1  0  0  0  0
 26 25  2  0  0  0  0
 26 31  1  0  0  0  0
 27 26  1  0  0  0  0
 28 29  1  0  0  0  0
 28 27  2  0  0  0  0
 29 24  2  0  0  0  0
 32 40  1  0  0  0  0
 32 28  1  0  0  0  0
 33 32  1  0  0  0  0
 33 35  1  0  0  0  0
 34 33  1  0  0  0  0
 35 37  1  0  0  0  0
 35 36  1  0  0  0  0
 38 40  1  0  0  0  0
 38 37  1  0  0  0  0
 39 38  1  0  0  0  0
 41 40  1  0  0  0  0
M  END
>  <minimizedAffinity>
-6.21620417

>  <minimizedRMSD>
8.67219734

$$$$
