
 OpenBabel03252509163D

 26 28  0  0  0  0  0  0  0  0999 V2000
   45.8950   33.0770   46.3880 C   0  0  0  0  0  0  0  0  0  0  0  0
   45.3440   32.9030   47.6840 C   0  0  0  0  0  0  0  0  0  0  0  0
   45.9550   32.0320   48.5260 C   0  0  0  0  0  0  0  0  0  0  0  0
   47.1090   31.3340   48.0900 C   0  0  0  0  0  0  0  0  0  0  0  0
   47.3300   31.9530   46.3940 S   0  0  0  0  0  0  0  0  0  0  0  0
   44.4630   33.4500   47.9870 H   0  0  0  0  0  0  0  0  0  0  0  0
   45.6580   31.8020   49.5150 H   0  0  0  0  0  0  0  0  0  0  0  0
   47.9720   30.3890   48.6730 C   0  0  0  0  0  3  0  0  0  0  0  0
   48.9820   31.0750   49.5720 C   0  0  0  0  0  3  0  0  0  0  0  0
   48.4380   31.5510   50.4260 H   0  0  0  0  0  0  0  0  0  0  0  0
   50.0130   30.0620   50.0280 C   0  0  0  0  0  3  0  0  0  0  0  0
   50.0180   30.0390   51.1550 H   0  0  0  0  0  0  0  0  0  0  0  0
   49.6310   28.8040   49.6310 O   0  0  0  0  0  0  0  0  0  0  0  0
   49.6070   28.6180   48.2680 C   0  0  0  0  0  3  0  0  0  0  0  0
   50.6210   28.4930   47.8190 H   0  0  0  0  0  0  0  0  0  0  0  0
   48.8100   29.7090   47.5940 C   0  0  0  0  0  3  0  0  0  0  0  0
   48.2000   29.3400   46.7480 H   0  0  0  0  0  0  0  0  0  0  0  0
   44.3240   35.8890   44.5570 C   0  0  0  0  0  0  0  0  0  0  0  0
   44.4120   35.3850   43.2350 C   0  0  0  0  0  0  0  0  0  0  0  0
   44.9990   34.1210   43.0280 C   0  0  0  0  0  0  0  0  0  0  0  0
   45.4490   33.4550   44.1310 N   0  0  0  0  0  0  0  0  0  0  0  0
   45.3420   33.9780   45.3770 C   0  0  0  0  0  0  0  0  0  0  0  0
   44.7800   35.1950   45.5920 N   0  0  0  0  0  0  0  0  0  0  0  0
   43.8730   36.8610   44.7150 H   0  0  0  0  0  0  0  0  0  0  0  0
   44.0490   35.9300   42.3830 H   0  0  0  0  0  0  0  0  0  0  0  0
   45.1000   33.6770   42.0550 H   0  0  0  0  0  0  0  0  0  0  0  0
  1  5  1  0  0  0  0
  1  2  2  0  0  0  0
  2  6  1  0  0  0  0
  2  3  1  0  0  0  0
  3  7  1  0  0  0  0
  4  3  2  0  0  0  0
  4  8  1  0  0  0  0
  5  4  1  0  0  0  0
  8  9  1  0  0  0  0
  9 11  1  0  0  0  0
  9 10  1  0  0  0  0
 11 12  1  0  0  0  0
 13 11  1  0  0  0  0
 14 13  1  0  0  0  0
 15 14  1  0  0  0  0
 16 14  1  0  0  0  0
 16  8  1  0  0  0  0
 17 16  1  0  0  0  0
 18 24  1  0  0  0  0
 18 23  1  0  0  0  0
 19 18  2  0  0  0  0
 20 19  1  0  0  0  0
 20 21  2  0  0  0  0
 21 22  1  0  0  0  0
 22 23  2  0  0  0  0
 22  1  1  0  0  0  0
 25 19  1  0  0  0  0
 26 20  1  0  0  0  0
M  END
>  <minimizedAffinity>
-4.7182188

>  <minimizedRMSD>
0.891278267

$$$$
