
 OpenBabel03252509043D

 49 51  0  0  1  0  0  0  0  0999 V2000
   46.7780   34.2790   43.5940 N   0  0  0  0  0  0  0  0  0  0  0  0
   46.4580   34.8940   42.3650 C   0  0  0  0  0  0  0  0  0  0  0  0
   44.9770   34.9610   42.0460 C   0  0  0  0  0  0  0  0  0  0  0  0
   44.0980   35.1240   43.2550 C   0  0  0  0  0  0  0  0  0  0  0  0
   44.9070   35.2840   44.5220 C   0  0  0  0  0  0  0  0  0  0  0  0
   45.8140   33.9930   44.5410 C   0  0  2  0  0  0  0  0  0  0  0  0
   46.9380   34.4890   41.4660 H   0  0  0  0  0  0  0  0  0  0  0  0
   46.8050   35.9610   42.4250 H   0  0  0  0  0  0  0  0  0  0  0  0
   44.7150   34.0690   41.4450 H   0  0  0  0  0  0  0  0  0  0  0  0
   44.8010   35.8470   41.3940 H   0  0  0  0  0  0  0  0  0  0  0  0
   43.4140   36.0020   43.1680 H   0  0  0  0  0  0  0  0  0  0  0  0
   43.4520   34.2470   43.3910 H   0  0  0  0  0  0  0  0  0  0  0  0
   44.2360   35.1980   45.3830 H   0  0  0  0  0  0  0  0  0  0  0  0
   45.5560   36.1810   44.5240 H   0  0  0  0  0  0  0  0  0  0  0  0
   45.0940   33.1760   44.3310 H   0  0  0  0  0  0  0  0  0  0  0  0
   47.9500   33.4480   43.5440 C   0  0  0  0  0  0  0  0  0  0  0  0
   48.1570   33.0780   44.5720 H   0  0  0  0  0  0  0  0  0  0  0  0
   48.7800   34.0760   43.1740 H   0  0  0  0  0  0  0  0  0  0  0  0
   47.6940   32.2860   42.6620 C   0  0  0  0  0  0  0  0  0  0  0  0
   47.4300   31.3520   43.1890 H   0  0  0  0  0  0  0  0  0  0  0  0
   46.8260   32.4800   41.9750 H   0  0  0  0  0  0  0  0  0  0  0  0
   51.2220   32.1330   41.3840 C   0  0  0  0  0  0  0  0  0  0  0  0
   50.1090   32.3350   42.2190 C   0  0  0  0  0  0  0  0  0  0  0  0
   48.8510   32.0650   41.7610 C   0  0  0  0  0  0  0  0  0  0  0  0
   48.7370   31.6100   40.5100 N   0  0  0  0  0  0  0  0  0  0  0  0
   49.7810   31.4110   39.7000 C   0  0  0  0  0  0  0  0  0  0  0  0
   51.0340   31.6660   40.1180 N   0  0  0  0  0  0  0  0  0  0  0  0
   52.2340   32.3460   41.7410 H   0  0  0  0  0  0  0  0  0  0  0  0
   50.3040   32.7080   43.2230 H   0  0  0  0  0  0  0  0  0  0  0  0
   49.5110   31.0350   38.7090 H   0  0  0  0  0  0  0  0  0  0  0  0
   46.3130   34.0120   45.8240 O   0  0  0  0  0  0  0  0  0  0  0  0
   45.7400   31.4300   45.6510 O   0  0  0  0  0  0  0  0  0  0  0  0
   46.1060   32.5430   46.6300 P   0  0  2  0  0  0  0  0  0  0  0  0
   44.7500   32.7510   47.6350 O   0  0  0  0  0  0  0  0  0  0  0  0
   44.9140   32.4630   48.5640 H   0  0  0  0  0  0  0  0  0  0  0  0
   47.4210   32.1550   47.5870 O   0  0  0  0  0  0  0  0  0  0  0  0
   47.3460   30.7910   47.8790 C   0  0  0  0  0  0  0  0  0  0  0  0
   46.3350   30.6040   48.3260 H   0  0  0  0  0  0  0  0  0  0  0  0
   47.5080   30.1690   46.9970 H   0  0  0  0  0  0  0  0  0  0  0  0
   48.3750   30.5370   48.9620 C   0  0  0  0  0  3  0  0  0  0  0  0
   49.2630   31.7320   49.2220 C   0  0  0  0  0  3  0  0  0  0  0  0
   49.9320   31.8870   48.3510 H   0  0  0  0  0  0  0  0  0  0  0  0
   50.1610   31.3170   50.3880 C   0  0  0  0  0  3  0  0  0  0  0  0
   50.8910   32.1100   50.6490 H   0  0  0  0  0  0  0  0  0  0  0  0
   50.8910   30.2030   50.0380 O   0  0  0  0  0  0  0  0  0  0  0  0
   50.1470   29.0790   49.7580 C   0  0  0  0  0  3  0  0  0  0  0  0
   50.8610   28.2780   49.4920 H   0  0  0  0  0  0  0  0  0  0  0  0
   49.2170   29.3440   48.5800 C   0  0  0  0  0  3  0  0  0  0  0  0
   49.8280   29.6300   47.7040 H   0  0  0  0  0  0  0  0  0  0  0  0
  1  6  1  0  0  0  0
  2  8  1  0  0  0  0
  2  1  1  0  0  0  0
  3  2  1  0  0  0  0
  3  4  1  0  0  0  0
  4 12  1  0  0  0  0
  4  5  1  0  0  0  0
  5 14  1  0  0  0  0
  5  6  1  0  0  0  0
  5 13  1  0  0  0  0
  6 15  1  6  0  0  0
  6 31  1  0  0  0  0
  7  2  1  0  0  0  0
  9  3  1  0  0  0  0
 10  3  1  0  0  0  0
 11  4  1  0  0  0  0
 16  1  1  0  0  0  0
 16 17  1  0  0  0  0
 18 16  1  0  0  0  0
 19 20  1  0  0  0  0
 19 16  1  0  0  0  0
 21 19  1  0  0  0  0
 22 28  1  0  0  0  0
 22 23  1  0  0  0  0
 23 29  1  0  0  0  0
 24 23  2  0  0  0  0
 24 19  1  0  0  0  0
 25 24  1  0  0  0  0
 26 27  1  0  0  0  0
 26 25  2  0  0  0  0
 27 22  2  0  0  0  0
 30 26  1  0  0  0  0
 31 33  1  0  0  0  0
 33 32  2  6  0  0  0
 33 36  1  0  0  0  0
 33 34  1  0  0  0  0
 34 35  1  0  0  0  0
 36 37  1  0  0  0  0
 37 38  1  0  0  0  0
 37 40  1  0  0  0  0
 39 37  1  0  0  0  0
 40 41  1  0  0  0  0
 41 43  1  0  0  0  0
 42 41  1  0  0  0  0
 43 44  1  0  0  0  0
 45 43  1  0  0  0  0
 46 45  1  0  0  0  0
 47 46  1  0  0  0  0
 48 40  1  0  0  0  0
 48 46  1  0  0  0  0
 49 48  1  0  0  0  0
M  END
>  <minimizedAffinity>
-5.05760193

>  <minimizedRMSD>
3.11135054

$$$$
