
 OpenBabel03252509333D

 41 43  0  0  1  0  0  0  0  0999 V2000
   47.1820   32.3050   41.7130 C   0  0  1  0  0  0  0  0  0  0  0  0
   46.3200   31.1500   41.2800 C   0  0  0  0  0  0  0  0  0  0  0  0
   47.3480   30.1100   40.9080 C   0  0  0  0  0  0  0  0  0  0  0  0
   48.5970   30.8650   40.5370 C   0  0  0  0  0  0  0  0  0  0  0  0
   48.2130   32.3380   40.5910 C   0  0  1  0  0  0  0  0  0  0  0  0
   47.7360   32.0330   42.6310 H   0  0  0  0  0  0  0  0  0  0  0  0
   45.7360   30.7320   42.1510 H   0  0  0  0  0  0  0  0  0  0  0  0
   45.6020   31.3970   40.5030 H   0  0  0  0  0  0  0  0  0  0  0  0
   47.5560   29.4020   41.7560 H   0  0  0  0  0  0  0  0  0  0  0  0
   46.9390   29.4890   40.1020 H   0  0  0  0  0  0  0  0  0  0  0  0
   48.8560   30.5400   39.5130 H   0  0  0  0  0  0  0  0  0  0  0  0
   49.3920   30.6940   41.2800 H   0  0  0  0  0  0  0  0  0  0  0  0
   49.0670   32.9770   40.8450 H   0  0  0  0  0  0  0  0  0  0  0  0
   47.6260   32.8150   39.3030 C   0  0  0  0  0  3  0  0  0  0  0  0
   48.0910   34.2350   39.0560 C   0  0  0  0  0  3  0  0  0  0  0  0
   47.3370   35.0000   39.3530 H   0  0  0  0  0  0  0  0  0  0  0  0
   48.2660   34.4740   37.5490 C   0  0  0  0  0  3  0  0  0  0  0  0
   48.6440   35.5270   37.4750 H   0  0  0  0  0  0  0  0  0  0  0  0
   49.2640   33.6800   37.0230 O   0  0  0  0  0  0  0  0  0  0  0  0
   49.4670   32.4840   37.6790 C   0  0  0  0  0  3  0  0  0  0  0  0
   49.8260   31.7110   36.9740 H   0  0  0  0  0  0  0  0  0  0  0  0
   48.0990   32.0120   38.1520 C   0  0  0  0  0  3  0  0  0  0  0  0
   48.1380   30.9370   38.2880 H   0  0  0  0  0  0  0  0  0  0  0  0
   46.5220   33.5030   41.8340 O   0  0  0  0  0  0  0  0  0  0  0  0
   45.8240   35.0510   43.7980 O   0  0  0  0  0  0  0  0  0  0  0  0
   45.8090   33.6200   43.3520 P   0  0  1  0  0  0  0  0  0  0  0  0
   44.2660   32.9630   43.3630 O   0  0  0  0  0  0  0  0  0  0  0  0
   44.1000   32.4770   42.5200 H   0  0  0  0  0  0  0  0  0  0  0  0
   46.7250   32.6740   44.4250 O   0  0  0  0  0  0  0  0  0  0  0  0
   45.9000   31.7460   44.9840 C   0  0  0  0  0  0  0  0  0  0  0  0
   46.1950   30.7570   44.5220 H   0  0  0  0  0  0  0  0  0  0  0  0
   44.8320   31.8260   44.8240 H   0  0  0  0  0  0  0  0  0  0  0  0
   47.3200   32.1930   48.3950 C   0  0  0  0  0  0  0  0  0  0  0  0
   47.1080   32.3580   47.0220 C   0  0  0  0  0  0  0  0  0  0  0  0
   46.1310   31.5810   46.4250 C   0  0  0  0  0  0  0  0  0  0  0  0
   45.4280   30.6970   47.2010 N   0  0  0  0  0  0  0  0  0  0  0  0
   45.6630   30.5680   48.5260 C   0  0  0  0  0  0  0  0  0  0  0  0
   46.5970   31.3100   49.1040 N   0  0  0  0  0  0  0  0  0  0  0  0
   48.1040   32.8390   48.7970 H   0  0  0  0  0  0  0  0  0  0  0  0
   47.6770   33.0680   46.4140 H   0  0  0  0  0  0  0  0  0  0  0  0
   45.0790   29.8560   49.0890 H   0  0  0  0  0  0  0  0  0  0  0  0
  1 24  1  0  0  0  0
  1  6  1  1  0  0  0
  2  1  1  0  0  0  0
  2  7  1  0  0  0  0
  3  2  1  0  0  0  0
  3  9  1  0  0  0  0
  4  5  1  0  0  0  0
  4  3  1  0  0  0  0
  4 12  1  0  0  0  0
  5 13  1  1  0  0  0
  5  1  1  0  0  0  0
  8  2  1  0  0  0  0
 10  3  1  0  0  0  0
 11  4  1  0  0  0  0
 14  5  1  0  0  0  0
 15 14  1  0  0  0  0
 15 16  1  0  0  0  0
 17 15  1  0  0  0  0
 18 17  1  0  0  0  0
 19 17  1  0  0  0  0
 19 20  1  0  0  0  0
 20 22  1  0  0  0  0
 21 20  1  0  0  0  0
 22 23  1  0  0  0  0
 22 14  1  0  0  0  0
 24 26  1  0  0  0  0
 26 27  1  0  0  0  0
 26 25  2  1  0  0  0
 26 29  1  0  0  0  0
 28 27  1  0  0  0  0
 29 30  1  0  0  0  0
 30 35  1  0  0  0  0
 31 30  1  0  0  0  0
 32 30  1  0  0  0  0
 33 39  1  0  0  0  0
 33 38  1  0  0  0  0
 34 33  2  0  0  0  0
 35 34  1  0  0  0  0
 35 36  2  0  0  0  0
 36 37  1  0  0  0  0
 37 41  1  0  0  0  0
 37 38  2  0  0  0  0
 40 34  1  0  0  0  0
M  END
>  <minimizedAffinity>
-4.35209751

>  <minimizedRMSD>
3.06800628

$$$$
