
 OpenBabel03252508263D

 42 46  0  0  1  0  0  0  0  0999 V2000
   46.3840   32.3900   46.1770 C   0  0  1  0  0  0  0  0  0  0  0  0
   46.8250   32.5610   47.5700 C   0  0  0  0  0  0  0  0  0  0  0  0
   45.4500   31.8990   47.1700 C   0  0  2  0  0  0  0  0  0  0  0  0
   47.2150   31.7760   45.6770 H   0  0  0  0  0  0  0  0  0  0  0  0
   47.4670   31.8420   48.1140 H   0  0  0  0  0  0  0  0  0  0  0  0
   46.7230   33.5120   48.1100 H   0  0  0  0  0  0  0  0  0  0  0  0
   44.6770   32.5520   47.6920 H   0  0  0  0  0  0  0  0  0  0  0  0
   45.2050   30.4890   47.4890 C   0  0  0  0  0  0  0  0  0  0  0  0
   45.0810   29.9170   48.7130 C   0  0  0  0  0  0  0  0  0  0  0  0
   44.9760   28.5650   48.9730 C   0  0  0  0  0  0  0  0  0  0  0  0
   45.0020   27.7120   47.8620 C   0  0  0  0  0  0  0  0  0  0  0  0
   45.1250   28.2630   46.5860 C   0  0  0  0  0  0  0  0  0  0  0  0
   45.0780   27.3860   45.5180 C   0  0  0  0  0  0  0  0  0  0  0  0
   45.1200   27.8990   44.2280 C   0  0  0  0  0  0  0  0  0  0  0  0
   45.2040   29.2600   44.0120 C   0  0  0  0  0  0  0  0  0  0  0  0
   45.2500   30.0840   45.1130 C   0  0  0  0  0  0  0  0  0  0  0  0
   45.2200   29.6260   46.4220 C   0  0  0  0  0  0  0  0  0  0  0  0
   45.0660   30.6180   49.5500 H   0  0  0  0  0  0  0  0  0  0  0  0
   44.8800   28.1800   49.9690 H   0  0  0  0  0  0  0  0  0  0  0  0
   44.9250   26.6530   48.0470 H   0  0  0  0  0  0  0  0  0  0  0  0
   45.0080   26.3180   45.7220 H   0  0  0  0  0  0  0  0  0  0  0  0
   45.0790   27.1160   43.4660 H   0  0  0  0  0  0  0  0  0  0  0  0
   45.2210   29.4560   42.9680 H   0  0  0  0  0  0  0  0  0  0  0  0
   45.2240   31.0530   44.7020 H   0  0  0  0  0  0  0  0  0  0  0  0
   44.6660   35.4400   45.0050 C   0  0  0  0  0  0  0  0  0  0  0  0
   45.2970   35.6710   43.7320 C   0  0  0  0  0  0  0  0  0  0  0  0
   46.3210   34.7570   43.3230 C   0  0  0  0  0  0  0  0  0  0  0  0
   46.6440   33.7410   44.1260 N   0  0  0  0  0  0  0  0  0  0  0  0
   46.0070   33.5650   45.3350 C   0  0  0  0  0  0  0  0  0  0  0  0
   45.0520   34.3870   45.7590 N   0  0  0  0  0  0  0  0  0  0  0  0
   43.9150   36.1610   45.2390 H   0  0  0  0  0  0  0  0  0  0  0  0
   45.0550   36.4710   43.0800 H   0  0  0  0  0  0  0  0  0  0  0  0
   47.0190   34.9110   42.0440 C   0  0  0  0  0  3  0  0  0  0  0  0
   46.8540   33.7070   41.1280 C   0  0  0  0  0  3  0  0  0  0  0  0
   46.9100   32.7490   41.6600 H   0  0  0  0  0  0  0  0  0  0  0  0
   47.9630   33.8540   40.0810 C   0  0  0  0  0  3  0  0  0  0  0  0
   47.5910   33.5130   39.0940 H   0  0  0  0  0  0  0  0  0  0  0  0
   48.3150   35.1960   39.9030 O   0  0  0  0  0  0  0  0  0  0  0  0
   49.0560   35.7030   40.9630 C   0  0  0  0  0  3  0  0  0  0  0  0
   50.1380   35.6370   40.8340 H   0  0  0  0  0  0  0  0  0  0  0  0
   48.5270   35.0790   42.2310 C   0  0  0  0  0  3  0  0  0  0  0  0
   48.7110   35.6830   43.1230 H   0  0  0  0  0  0  0  0  0  0  0  0
  1  4  1  6  0  0  0
  1  3  1  0  0  0  0
  1  2  1  0  0  0  0
  2  6  1  0  0  0  0
  2  5  1  0  0  0  0
  3  8  1  0  0  0  0
  3  2  1  0  0  0  0
  3  7  1  1  0  0  0
  8  9  1  0  0  0  0
  9 10  2  0  0  0  0
  9 18  1  0  0  0  0
 10 19  1  0  0  0  0
 11 20  1  0  0  0  0
 11 10  1  0  0  0  0
 12 11  2  0  0  0  0
 13 21  1  0  0  0  0
 13 12  1  0  0  0  0
 14 13  2  0  0  0  0
 15 14  1  0  0  0  0
 15 16  2  0  0  0  0
 16 17  1  0  0  0  0
 17 12  1  0  0  0  0
 17  8  2  0  0  0  0
 22 14  1  0  0  0  0
 23 15  1  0  0  0  0
 24 16  1  0  0  0  0
 25 31  1  0  0  0  0
 25 30  1  0  0  0  0
 26 25  2  0  0  0  0
 27 26  1  0  0  0  0
 27 28  2  0  0  0  0
 28 29  1  0  0  0  0
 29 30  2  0  0  0  0
 29  1  1  0  0  0  0
 32 26  1  0  0  0  0
 33 41  1  0  0  0  0
 33 27  1  0  0  0  0
 34 35  1  0  0  0  0
 34 33  1  0  0  0  0
 36 34  1  0  0  0  0
 37 36  1  0  0  0  0
 38 36  1  0  0  0  0
 38 39  1  0  0  0  0
 39 41  1  0  0  0  0
 40 39  1  0  0  0  0
 41 42  1  0  0  0  0
M  END
>  <minimizedAffinity>
-5.88373756

>  <minimizedRMSD>
0.575838685

$$$$
