
 OpenBabel03252507203D

 45 48  0  0  1  0  0  0  0  0999 V2000
   46.9800   32.3280   44.2640 C   0  0  0  0  0  0  0  0  0  0  0  0
   47.0800   33.2810   45.1170 O   0  0  0  0  0  0  0  0  0  0  0  0
   46.1380   31.1990   44.4900 N   0  0  0  0  0  0  0  0  0  0  0  0
   45.2000   30.5340   43.5740 C   0  0  0  0  0  0  0  0  0  0  0  0
   45.5030   29.0390   43.5360 C   0  0  0  0  0  0  0  0  0  0  0  0
   45.2170   28.4470   44.9060 C   0  0  0  0  0  0  0  0  0  0  0  0
   45.0970   29.5360   45.9060 C   0  0  0  0  0  0  0  0  0  0  0  0
   46.1660   30.5920   45.7850 C   0  0  1  0  0  0  0  0  0  0  0  0
   45.5280   30.8870   42.5540 H   0  0  0  0  0  0  0  0  0  0  0  0
   44.1630   30.7790   43.7690 H   0  0  0  0  0  0  0  0  0  0  0  0
   46.5880   28.9660   43.2880 H   0  0  0  0  0  0  0  0  0  0  0  0
   44.8770   28.6170   42.7330 H   0  0  0  0  0  0  0  0  0  0  0  0
   45.8600   27.6070   45.1460 H   0  0  0  0  0  0  0  0  0  0  0  0
   44.1870   28.0000   44.7870 H   0  0  0  0  0  0  0  0  0  0  0  0
   44.9880   29.2210   46.9400 H   0  0  0  0  0  0  0  0  0  0  0  0
   44.1340   30.0830   45.6700 H   0  0  0  0  0  0  0  0  0  0  0  0
   45.8480   31.3890   46.4930 H   0  0  0  0  0  0  0  0  0  0  0  0
   47.4930   30.1030   46.2700 C   0  0  0  0  0  3  0  0  0  0  0  0
   47.5520   29.5920   47.6800 C   0  0  0  0  0  3  0  0  0  0  0  0
   46.6880   28.8820   47.7800 H   0  0  0  0  0  0  0  0  0  0  0  0
   48.7680   28.6720   47.8680 C   0  0  0  0  0  3  0  0  0  0  0  0
   48.5480   27.6720   47.4960 H   0  0  0  0  0  0  0  0  0  0  0  0
   49.8280   29.2400   47.1990 O   0  0  0  0  0  0  0  0  0  0  0  0
   49.6870   29.1440   45.8170 C   0  0  0  0  0  3  0  0  0  0  0  0
   50.0990   30.1030   45.4000 H   0  0  0  0  0  0  0  0  0  0  0  0
   48.2070   29.1330   45.3960 C   0  0  0  0  0  3  0  0  0  0  0  0
   47.8890   28.0810   45.5200 H   0  0  0  0  0  0  0  0  0  0  0  0
   48.8730   31.5960   42.9240 C   0  0  0  0  0  0  0  0  0  0  0  0
   47.7390   32.4030   43.0490 C   0  0  0  0  0  0  0  0  0  0  0  0
   47.3880   33.2440   42.0180 C   0  0  0  0  0  0  0  0  0  0  0  0
   48.1550   33.2600   40.9150 N   0  0  0  0  0  0  0  0  0  0  0  0
   49.2620   32.4780   40.7830 C   0  0  0  0  0  0  0  0  0  0  0  0
   49.5940   31.6650   41.7880 N   0  0  0  0  0  0  0  0  0  0  0  0
   49.2290   30.9040   43.6720 H   0  0  0  0  0  0  0  0  0  0  0  0
   49.8720   32.5100   39.8700 H   0  0  0  0  0  0  0  0  0  0  0  0
   46.2100   34.0730   42.1610 C   0  0  0  0  0  0  0  0  0  0  0  0
   45.0030   33.6520   41.6600 C   0  0  0  0  0  0  0  0  0  0  0  0
   43.8970   34.4590   41.8100 C   0  0  0  0  0  0  0  0  0  0  0  0
   43.9350   35.6850   42.4460 C   0  0  0  0  0  0  0  0  0  0  0  0
   45.1740   36.0530   42.9280 C   0  0  0  0  0  0  0  0  0  0  0  0
   46.2350   35.2620   42.7750 N   0  0  0  0  0  0  0  0  0  0  0  0
   44.8220   32.7440   41.1480 H   0  0  0  0  0  0  0  0  0  0  0  0
   42.9100   34.1660   41.4270 H   0  0  0  0  0  0  0  0  0  0  0  0
   43.0830   36.3360   42.5780 H   0  0  0  0  0  0  0  0  0  0  0  0
   45.3100   37.0090   43.4480 H   0  0  0  0  0  0  0  0  0  0  0  0
  1  3  1  0  0  0  0
  1  2  2  0  0  0  0
  3  8  1  0  0  0  0
  4 10  1  0  0  0  0
  4  3  1  0  0  0  0
  5  4  1  0  0  0  0
  5  6  1  0  0  0  0
  6 13  1  0  0  0  0
  6  7  1  0  0  0  0
  7 15  1  0  0  0  0
  8  7  1  0  0  0  0
  8 18  1  0  0  0  0
  8 17  1  1  0  0  0
  9  4  1  0  0  0  0
 11  5  1  0  0  0  0
 12  5  1  0  0  0  0
 14  6  1  0  0  0  0
 16  7  1  0  0  0  0
 18 19  1  0  0  0  0
 19 20  1  0  0  0  0
 19 21  1  0  0  0  0
 22 21  1  0  0  0  0
 23 21  1  0  0  0  0
 24 23  1  0  0  0  0
 25 24  1  0  0  0  0
 26 27  1  0  0  0  0
 26 24  1  0  0  0  0
 26 18  1  0  0  0  0
 28 29  1  0  0  0  0
 28 34  1  0  0  0  0
 29  1  1  0  0  0  0
 30 36  1  0  0  0  0
 30 29  2  0  0  0  0
 31 30  1  0  0  0  0
 32 31  2  0  0  0  0
 32 33  1  0  0  0  0
 33 28  2  0  0  0  0
 35 32  1  0  0  0  0
 36 41  1  0  0  0  0
 37 38  1  0  0  0  0
 37 36  2  0  0  0  0
 38 39  2  0  0  0  0
 39 44  1  0  0  0  0
 39 40  1  0  0  0  0
 40 45  1  0  0  0  0
 41 40  2  0  0  0  0
 42 37  1  0  0  0  0
 43 38  1  0  0  0  0
M  END
>  <minimizedAffinity>
-4.44735527

>  <minimizedRMSD>
6.65445423

$$$$
