
 OpenBabel03252509173D

 26 28  0  0  0  0  0  0  0  0999 V2000
   37.6340   30.1880   40.9320 C   0  0  0  0  0  0  0  0  0  0  0  0
   36.2750   29.7980   41.0540 C   0  0  0  0  0  0  0  0  0  0  0  0
   36.0050   28.4900   41.2900 C   0  0  0  0  0  0  0  0  0  0  0  0
   37.0740   27.5670   41.4070 C   0  0  0  0  0  0  0  0  0  0  0  0
   38.5360   28.6210   41.1670 S   0  0  0  0  0  0  0  0  0  0  0  0
   35.4820   30.5260   40.9590 H   0  0  0  0  0  0  0  0  0  0  0  0
   35.0450   28.0580   41.4020 H   0  0  0  0  0  0  0  0  0  0  0  0
   37.1640   26.1840   41.6430 C   0  0  0  0  0  3  0  0  0  0  0  0
   38.5770   25.8030   42.0420 C   0  0  0  0  0  3  0  0  0  0  0  0
   38.8180   26.2910   43.0200 H   0  0  0  0  0  0  0  0  0  0  0  0
   38.6910   24.2930   42.0970 C   0  0  0  0  0  3  0  0  0  0  0  0
   39.0310   23.9990   43.1310 H   0  0  0  0  0  0  0  0  0  0  0  0
   37.4490   23.7310   41.9380 O   0  0  0  0  0  0  0  0  0  0  0  0
   36.8800   23.9440   40.7030 C   0  0  0  0  0  3  0  0  0  0  0  0
   37.3150   23.3070   39.8970 H   0  0  0  0  0  0  0  0  0  0  0  0
   36.9040   25.4120   40.3510 C   0  0  0  0  0  3  0  0  0  0  0  0
   35.9870   25.7480   39.8300 H   0  0  0  0  0  0  0  0  0  0  0  0
   39.4860   33.3920   40.7590 C   0  0  0  0  0  0  0  0  0  0  0  0
   38.5550   34.1600   40.0150 C   0  0  0  0  0  0  0  0  0  0  0  0
   37.3490   33.5560   39.6090 C   0  0  0  0  0  0  0  0  0  0  0  0
   37.1530   32.2530   39.9640 N   0  0  0  0  0  0  0  0  0  0  0  0
   38.0730   31.5590   40.6770 C   0  0  0  0  0  0  0  0  0  0  0  0
   39.2410   32.1260   41.0750 N   0  0  0  0  0  0  0  0  0  0  0  0
   40.4130   33.8570   41.0700 H   0  0  0  0  0  0  0  0  0  0  0  0
   38.7340   35.1850   39.7480 H   0  0  0  0  0  0  0  0  0  0  0  0
   36.5980   34.0770   39.0430 H   0  0  0  0  0  0  0  0  0  0  0  0
  1  2  2  0  0  0  0
  1  5  1  0  0  0  0
  2  3  1  0  0  0  0
  3  7  1  0  0  0  0
  3  4  2  0  0  0  0
  4  8  1  0  0  0  0
  5  4  1  0  0  0  0
  6  2  1  0  0  0  0
  8  9  1  0  0  0  0
  9 11  1  0  0  0  0
  9 10  1  0  0  0  0
 11 12  1  0  0  0  0
 13 11  1  0  0  0  0
 14 13  1  0  0  0  0
 15 14  1  0  0  0  0
 16 14  1  0  0  0  0
 16  8  1  0  0  0  0
 17 16  1  0  0  0  0
 18 24  1  0  0  0  0
 18 23  1  0  0  0  0
 19 18  2  0  0  0  0
 20 21  2  0  0  0  0
 20 19  1  0  0  0  0
 21 22  1  0  0  0  0
 22  1  1  0  0  0  0
 22 23  2  0  0  0  0
 25 19  1  0  0  0  0
 26 20  1  0  0  0  0
M  END
>  <minimizedAffinity>
-4.79097319

$$$$

 OpenBabel03252509173D

 26 28  0  0  0  0  0  0  0  0999 V2000
   38.0470   30.1910   41.2520 C   0  0  0  0  0  0  0  0  0  0  0  0
   38.4730   29.8240   42.5550 C   0  0  0  0  0  0  0  0  0  0  0  0
   38.4210   28.5120   42.8970 C   0  0  0  0  0  0  0  0  0  0  0  0
   37.9500   27.5640   41.9550 C   0  0  0  0  0  0  0  0  0  0  0  0
   37.5630   28.5990   40.5100 S   0  0  0  0  0  0  0  0  0  0  0  0
   38.8270   30.5710   43.2510 H   0  0  0  0  0  0  0  0  0  0  0  0
   38.7030   28.0950   43.8270 H   0  0  0  0  0  0  0  0  0  0  0  0
   37.7650   26.1700   41.9630 C   0  0  0  0  0  3  0  0  0  0  0  0
   39.1020   25.4560   41.9210 C   0  0  0  0  0  3  0  0  0  0  0  0
   39.6650   25.6900   42.8600 H   0  0  0  0  0  0  0  0  0  0  0  0
   38.8690   23.9710   41.7320 C   0  0  0  0  0  3  0  0  0  0  0  0
   39.3550   23.4220   42.5900 H   0  0  0  0  0  0  0  0  0  0  0  0
   37.5270   23.6980   41.8270 O   0  0  0  0  0  0  0  0  0  0  0  0
   36.7610   24.2520   40.8270 C   0  0  0  0  0  3  0  0  0  0  0  0
   36.8410   23.7110   39.8540 H   0  0  0  0  0  0  0  0  0  0  0  0
   37.0470   25.7280   40.6900 C   0  0  0  0  0  3  0  0  0  0  0  0
   36.1420   26.3270   40.4800 H   0  0  0  0  0  0  0  0  0  0  0  0
   37.2440   33.4130   39.6080 C   0  0  0  0  0  0  0  0  0  0  0  0
   38.3890   34.1590   39.9840 C   0  0  0  0  0  0  0  0  0  0  0  0
   39.3750   33.5370   40.7750 C   0  0  0  0  0  0  0  0  0  0  0  0
   39.1590   32.2380   41.1310 N   0  0  0  0  0  0  0  0  0  0  0  0
   38.0470   31.5640   40.7470 C   0  0  0  0  0  0  0  0  0  0  0  0
   37.0880   32.1500   39.9850 N   0  0  0  0  0  0  0  0  0  0  0  0
   36.4860   33.8930   39.0000 H   0  0  0  0  0  0  0  0  0  0  0  0
   38.5340   35.1820   39.6890 H   0  0  0  0  0  0  0  0  0  0  0  0
   40.2680   34.0400   41.0980 H   0  0  0  0  0  0  0  0  0  0  0  0
  1  2  2  0  0  0  0
  2  3  1  0  0  0  0
  2  6  1  0  0  0  0
  3  7  1  0  0  0  0
  4  8  1  0  0  0  0
  4  3  2  0  0  0  0
  5  1  1  0  0  0  0
  5  4  1  0  0  0  0
  9  8  1  0  0  0  0
  9 10  1  0  0  0  0
 11 13  1  0  0  0  0
 11  9  1  0  0  0  0
 11 12  1  0  0  0  0
 14 13  1  0  0  0  0
 15 14  1  0  0  0  0
 16 14  1  0  0  0  0
 16  8  1  0  0  0  0
 17 16  1  0  0  0  0
 18 19  2  0  0  0  0
 18 23  1  0  0  0  0
 19 20  1  0  0  0  0
 20 26  1  0  0  0  0
 20 21  2  0  0  0  0
 22 21  1  0  0  0  0
 22  1  1  0  0  0  0
 23 22  2  0  0  0  0
 24 18  1  0  0  0  0
 25 19  1  0  0  0  0
M  END
>  <minimizedAffinity>
-4.74864435

$$$$

 OpenBabel03252509173D

 26 28  0  0  0  0  0  0  0  0999 V2000
   38.1790   27.7810   41.5720 C   0  0  0  0  0  0  0  0  0  0  0  0
   38.8500   28.4440   42.6320 C   0  0  0  0  0  0  0  0  0  0  0  0
   38.9900   29.7910   42.5570 C   0  0  0  0  0  0  0  0  0  0  0  0
   38.4680   30.4840   41.4360 C   0  0  0  0  0  0  0  0  0  0  0  0
   37.7420   29.1440   40.4430 S   0  0  0  0  0  0  0  0  0  0  0  0
   39.2370   27.8870   43.4740 H   0  0  0  0  0  0  0  0  0  0  0  0
   39.4650   30.4130   43.2680 H   0  0  0  0  0  0  0  0  0  0  0  0
   38.4300   31.8320   41.0380 C   0  0  0  0  0  3  0  0  0  0  0  0
   37.2530   32.0810   40.1140 C   0  0  0  0  0  3  0  0  0  0  0  0
   36.3060   31.9100   40.6850 H   0  0  0  0  0  0  0  0  0  0  0  0
   37.3510   33.4830   39.5480 C   0  0  0  0  0  3  0  0  0  0  0  0
   36.4070   34.0410   39.8130 H   0  0  0  0  0  0  0  0  0  0  0  0
   38.3710   34.1610   40.1670 O   0  0  0  0  0  0  0  0  0  0  0  0
   39.6250   33.6510   39.9230 C   0  0  0  0  0  3  0  0  0  0  0  0
   40.0190   33.9050   38.9110 H   0  0  0  0  0  0  0  0  0  0  0  0
   39.6610   32.1670   40.1980 C   0  0  0  0  0  3  0  0  0  0  0  0
   40.6040   31.8360   40.6730 H   0  0  0  0  0  0  0  0  0  0  0  0
   38.2100   24.1200   42.1350 C   0  0  0  0  0  0  0  0  0  0  0  0
   37.3020   23.7200   41.1220 C   0  0  0  0  0  0  0  0  0  0  0  0
   36.7250   24.7070   40.3000 C   0  0  0  0  0  0  0  0  0  0  0  0
   37.0840   26.0030   40.5370 N   0  0  0  0  0  0  0  0  0  0  0  0
   37.9560   26.3370   41.5180 C   0  0  0  0  0  0  0  0  0  0  0  0
   38.5200   25.3970   42.3190 N   0  0  0  0  0  0  0  0  0  0  0  0
   38.6520   23.3590   42.7670 H   0  0  0  0  0  0  0  0  0  0  0  0
   37.0370   22.6920   40.9560 H   0  0  0  0  0  0  0  0  0  0  0  0
   36.0310   24.4790   39.5120 H   0  0  0  0  0  0  0  0  0  0  0  0
  1  2  2  0  0  0  0
  2  6  1  0  0  0  0
  3  2  1  0  0  0  0
  3  7  1  0  0  0  0
  4  3  2  0  0  0  0
  5  4  1  0  0  0  0
  5  1  1  0  0  0  0
  8  4  1  0  0  0  0
  9 10  1  0  0  0  0
  9  8  1  0  0  0  0
 11 12  1  0  0  0  0
 11  9  1  0  0  0  0
 11 13  1  0  0  0  0
 14 13  1  0  0  0  0
 14 16  1  0  0  0  0
 15 14  1  0  0  0  0
 16 17  1  0  0  0  0
 16  8  1  0  0  0  0
 18 23  1  0  0  0  0
 18 24  1  0  0  0  0
 19 18  2  0  0  0  0
 20 21  2  0  0  0  0
 20 19  1  0  0  0  0
 21 22  1  0  0  0  0
 22  1  1  0  0  0  0
 22 23  2  0  0  0  0
 25 19  1  0  0  0  0
 26 20  1  0  0  0  0
M  END
>  <minimizedAffinity>
-4.57705784

$$$$

 OpenBabel03252509173D

 26 28  0  0  0  0  0  0  0  0999 V2000
   37.8300   27.9940   41.2790 C   0  0  0  0  0  0  0  0  0  0  0  0
   38.1560   28.4780   42.5720 C   0  0  0  0  0  0  0  0  0  0  0  0
   38.6110   29.7520   42.6810 C   0  0  0  0  0  0  0  0  0  0  0  0
   38.7440   30.5470   41.5160 C   0  0  0  0  0  0  0  0  0  0  0  0
   38.1920   29.4190   40.2000 S   0  0  0  0  0  0  0  0  0  0  0  0
   38.0430   27.8470   43.4420 H   0  0  0  0  0  0  0  0  0  0  0  0
   38.8910   30.2430   43.5750 H   0  0  0  0  0  0  0  0  0  0  0  0
   39.1680   31.8630   41.2600 C   0  0  0  0  0  3  0  0  0  0  0  0
   38.0820   32.6440   40.5470 C   0  0  0  0  0  3  0  0  0  0  0  0
   37.2000   32.7390   41.2300 H   0  0  0  0  0  0  0  0  0  0  0  0
   38.6340   33.9850   40.1120 C   0  0  0  0  0  3  0  0  0  0  0  0
   37.9960   34.7980   40.5650 H   0  0  0  0  0  0  0  0  0  0  0  0
   39.8900   34.1600   40.6390 O   0  0  0  0  0  0  0  0  0  0  0  0
   40.8340   33.2790   40.1660 C   0  0  0  0  0  3  0  0  0  0  0  0
   41.1910   33.5190   39.1360 H   0  0  0  0  0  0  0  0  0  0  0  0
   40.3450   31.8550   40.2870 C   0  0  0  0  0  3  0  0  0  0  0  0
   41.1410   31.1470   40.5840 H   0  0  0  0  0  0  0  0  0  0  0  0
   36.4120   24.9260   39.7620 C   0  0  0  0  0  0  0  0  0  0  0  0
   36.4890   24.0560   40.8790 C   0  0  0  0  0  0  0  0  0  0  0  0
   37.0160   24.5500   42.0880 C   0  0  0  0  0  0  0  0  0  0  0  0
   37.4240   25.8520   42.1040 N   0  0  0  0  0  0  0  0  0  0  0  0
   37.3310   26.6460   41.0100 C   0  0  0  0  0  0  0  0  0  0  0  0
   36.8260   26.1850   39.8370 N   0  0  0  0  0  0  0  0  0  0  0  0
   36.0070   24.5440   38.8320 H   0  0  0  0  0  0  0  0  0  0  0  0
   36.1610   23.0340   40.8390 H   0  0  0  0  0  0  0  0  0  0  0  0
   37.1050   23.9490   42.9740 H   0  0  0  0  0  0  0  0  0  0  0  0
  1  2  2  0  0  0  0
  2  3  1  0  0  0  0
  2  6  1  0  0  0  0
  3  7  1  0  0  0  0
  4  3  2  0  0  0  0
  5  1  1  0  0  0  0
  5  4  1  0  0  0  0
  8  4  1  0  0  0  0
  9 10  1  0  0  0  0
  9  8  1  0  0  0  0
 11  9  1  0  0  0  0
 11 12  1  0  0  0  0
 11 13  1  0  0  0  0
 14 16  1  0  0  0  0
 14 13  1  0  0  0  0
 15 14  1  0  0  0  0
 16 17  1  0  0  0  0
 16  8  1  0  0  0  0
 18 23  2  0  0  0  0
 18 19  1  0  0  0  0
 19 20  2  0  0  0  0
 20 21  1  0  0  0  0
 20 26  1  0  0  0  0
 22  1  1  0  0  0  0
 22 21  2  0  0  0  0
 23 22  1  0  0  0  0
 24 18  1  0  0  0  0
 25 19  1  0  0  0  0
M  END
>  <minimizedAffinity>
-4.53938627

$$$$

 OpenBabel03252509173D

 26 28  0  0  0  0  0  0  0  0999 V2000
   36.2320   27.9990   40.3270 C   0  0  0  0  0  0  0  0  0  0  0  0
   35.2270   28.9890   40.4790 C   0  0  0  0  0  0  0  0  0  0  0  0
   34.3980   29.2230   39.4310 C   0  0  0  0  0  0  0  0  0  0  0  0
   34.5590   28.4810   38.2350 C   0  0  0  0  0  0  0  0  0  0  0  0
   35.9660   27.3950   38.6280 S   0  0  0  0  0  0  0  0  0  0  0  0
   35.1300   29.5390   41.4040 H   0  0  0  0  0  0  0  0  0  0  0  0
   33.6090   29.9270   39.4010 H   0  0  0  0  0  0  0  0  0  0  0  0
   33.9050   28.4560   36.9910 C   0  0  0  0  0  3  0  0  0  0  0  0
   32.5900   29.2060   37.0650 C   0  0  0  0  0  3  0  0  0  0  0  0
   32.8020   30.2850   37.2730 H   0  0  0  0  0  0  0  0  0  0  0  0
   31.8210   28.9970   35.7770 C   0  0  0  0  0  3  0  0  0  0  0  0
   31.6070   30.0060   35.3220 H   0  0  0  0  0  0  0  0  0  0  0  0
   32.6130   28.3380   34.8690 O   0  0  0  0  0  0  0  0  0  0  0  0
   32.9480   27.0540   35.2310 C   0  0  0  0  0  3  0  0  0  0  0  0
   32.1180   26.3220   35.0940 H   0  0  0  0  0  0  0  0  0  0  0  0
   33.5180   27.0240   36.6290 C   0  0  0  0  0  3  0  0  0  0  0  0
   34.3570   26.3130   36.7400 H   0  0  0  0  0  0  0  0  0  0  0  0
   39.0370   26.5870   42.2940 C   0  0  0  0  0  0  0  0  0  0  0  0
   38.7830   27.2100   43.5420 C   0  0  0  0  0  0  0  0  0  0  0  0
   37.6780   28.0750   43.6570 C   0  0  0  0  0  0  0  0  0  0  0  0
   36.9130   28.2600   42.5420 N   0  0  0  0  0  0  0  0  0  0  0  0
   37.1950   27.6430   41.3690 C   0  0  0  0  0  0  0  0  0  0  0  0
   38.2570   26.8060   41.2430 N   0  0  0  0  0  0  0  0  0  0  0  0
   39.8870   25.9230   42.2070 H   0  0  0  0  0  0  0  0  0  0  0  0
   39.4020   27.0470   44.4060 H   0  0  0  0  0  0  0  0  0  0  0  0
   37.4250   28.5810   44.5700 H   0  0  0  0  0  0  0  0  0  0  0  0
  1  2  2  0  0  0  0
  1 22  1  0  0  0  0
  2  6  1  0  0  0  0
  3  2  1  0  0  0  0
  4  5  1  0  0  0  0
  4  3  2  0  0  0  0
  5  1  1  0  0  0  0
  7  3  1  0  0  0  0
  8  9  1  0  0  0  0
  8  4  1  0  0  0  0
  9 10  1  0  0  0  0
 11  9  1  0  0  0  0
 12 11  1  0  0  0  0
 13 14  1  0  0  0  0
 13 11  1  0  0  0  0
 14 16  1  0  0  0  0
 15 14  1  0  0  0  0
 16 17  1  0  0  0  0
 16  8  1  0  0  0  0
 18 19  1  0  0  0  0
 19 20  2  0  0  0  0
 19 25  1  0  0  0  0
 20 26  1  0  0  0  0
 21 20  1  0  0  0  0
 22 21  2  0  0  0  0
 23 22  1  0  0  0  0
 23 18  2  0  0  0  0
 24 18  1  0  0  0  0
M  END
>  <minimizedAffinity>
-4.26625919

$$$$

 OpenBabel03252509173D

 26 28  0  0  0  0  0  0  0  0999 V2000
   36.8640   27.8370   40.7410 C   0  0  0  0  0  0  0  0  0  0  0  0
   35.8180   28.7360   41.0760 C   0  0  0  0  0  0  0  0  0  0  0  0
   35.0400   29.2120   40.0720 C   0  0  0  0  0  0  0  0  0  0  0  0
   35.2920   28.8020   38.7400 C   0  0  0  0  0  0  0  0  0  0  0  0
   36.7120   27.6810   38.9310 S   0  0  0  0  0  0  0  0  0  0  0  0
   35.6510   29.0300   42.1020 H   0  0  0  0  0  0  0  0  0  0  0  0
   34.2290   29.8850   40.1730 H   0  0  0  0  0  0  0  0  0  0  0  0
   34.7080   29.0820   37.4920 C   0  0  0  0  0  3  0  0  0  0  0  0
   33.2010   28.9230   37.5610 C   0  0  0  0  0  3  0  0  0  0  0  0
   32.7900   29.6900   38.2640 H   0  0  0  0  0  0  0  0  0  0  0  0
   32.6220   29.0370   36.1650 C   0  0  0  0  0  3  0  0  0  0  0  0
   31.8660   29.8740   36.1610 H   0  0  0  0  0  0  0  0  0  0  0  0
   33.6060   29.4180   35.2870 O   0  0  0  0  0  0  0  0  0  0  0  0
   34.6110   28.4940   35.1200 C   0  0  0  0  0  3  0  0  0  0  0  0
   34.3180   27.6300   34.4780 H   0  0  0  0  0  0  0  0  0  0  0  0
   35.1610   28.0550   36.4570 C   0  0  0  0  0  3  0  0  0  0  0  0
   36.2580   27.9130   36.4480 H   0  0  0  0  0  0  0  0  0  0  0  0
   39.0440   27.1310   43.6520 C   0  0  0  0  0  0  0  0  0  0  0  0
   39.5050   25.8400   43.2910 C   0  0  0  0  0  0  0  0  0  0  0  0
   39.0560   25.2730   42.0830 C   0  0  0  0  0  0  0  0  0  0  0  0
   38.1940   26.0150   41.3280 N   0  0  0  0  0  0  0  0  0  0  0  0
   37.7800   27.2460   41.7150 C   0  0  0  0  0  0  0  0  0  0  0  0
   38.2040   27.8060   42.8770 N   0  0  0  0  0  0  0  0  0  0  0  0
   39.3890   27.5660   44.5820 H   0  0  0  0  0  0  0  0  0  0  0  0
   40.1840   25.2760   43.9040 H   0  0  0  0  0  0  0  0  0  0  0  0
   39.3620   24.3000   41.7450 H   0  0  0  0  0  0  0  0  0  0  0  0
  1  2  2  0  0  0  0
  1 22  1  0  0  0  0
  2  6  1  0  0  0  0
  3  7  1  0  0  0  0
  3  2  1  0  0  0  0
  4  5  1  0  0  0  0
  4  3  2  0  0  0  0
  5  1  1  0  0  0  0
  8  9  1  0  0  0  0
  8  4  1  0  0  0  0
  9 10  1  0  0  0  0
 11  9  1  0  0  0  0
 12 11  1  0  0  0  0
 13 11  1  0  0  0  0
 14 13  1  0  0  0  0
 14 16  1  0  0  0  0
 15 14  1  0  0  0  0
 16  8  1  0  0  0  0
 17 16  1  0  0  0  0
 18 24  1  0  0  0  0
 19 18  1  0  0  0  0
 19 25  1  0  0  0  0
 20 19  2  0  0  0  0
 21 22  2  0  0  0  0
 21 20  1  0  0  0  0
 22 23  1  0  0  0  0
 23 18  2  0  0  0  0
 26 20  1  0  0  0  0
M  END
>  <minimizedAffinity>
-4.212605

$$$$

 OpenBabel03252509173D

 26 28  0  0  0  0  0  0  0  0999 V2000
   36.8350   27.8410   39.8820 C   0  0  0  0  0  0  0  0  0  0  0  0
   36.2170   28.7280   38.9620 C   0  0  0  0  0  0  0  0  0  0  0  0
   36.5110   30.0490   39.0540 C   0  0  0  0  0  0  0  0  0  0  0  0
   37.4130   30.4950   40.0520 C   0  0  0  0  0  0  0  0  0  0  0  0
   37.8630   28.9500   40.9000 S   0  0  0  0  0  0  0  0  0  0  0  0
   35.5330   28.3570   38.2130 H   0  0  0  0  0  0  0  0  0  0  0  0
   36.1270   30.8210   38.4410 H   0  0  0  0  0  0  0  0  0  0  0  0
   37.9320   31.7470   40.4280 C   0  0  0  0  0  3  0  0  0  0  0  0
   37.2900   32.8550   39.6160 C   0  0  0  0  0  3  0  0  0  0  0  0
   36.1990   32.8960   39.8620 H   0  0  0  0  0  0  0  0  0  0  0  0
   38.0030   34.1610   39.9000 C   0  0  0  0  0  3  0  0  0  0  0  0
   37.2460   34.9060   40.2780 H   0  0  0  0  0  0  0  0  0  0  0  0
   38.8980   33.9840   40.9260 O   0  0  0  0  0  0  0  0  0  0  0  0
   39.9370   33.1310   40.6360 C   0  0  0  0  0  3  0  0  0  0  0  0
   40.7180   33.5870   39.9830 H   0  0  0  0  0  0  0  0  0  0  0  0
   39.4180   31.8240   40.0850 C   0  0  0  0  0  3  0  0  0  0  0  0
   39.9860   30.9460   40.4440 H   0  0  0  0  0  0  0  0  0  0  0  0
   35.9450   24.3330   39.0890 C   0  0  0  0  0  0  0  0  0  0  0  0
   36.3440   23.7120   40.2990 C   0  0  0  0  0  0  0  0  0  0  0  0
   36.8940   24.5090   41.3220 C   0  0  0  0  0  0  0  0  0  0  0  0
   37.0080   25.8470   41.0760 N   0  0  0  0  0  0  0  0  0  0  0  0
   36.6120   26.3960   39.9020 C   0  0  0  0  0  0  0  0  0  0  0  0
   36.0810   25.6410   38.9070 N   0  0  0  0  0  0  0  0  0  0  0  0
   35.5230   23.7190   38.3030 H   0  0  0  0  0  0  0  0  0  0  0  0
   36.2440   22.6550   40.4670 H   0  0  0  0  0  0  0  0  0  0  0  0
   37.2190   24.1080   42.2650 H   0  0  0  0  0  0  0  0  0  0  0  0
  1 22  1  0  0  0  0
  1  5  1  0  0  0  0
  2  3  1  0  0  0  0
  2  1  2  0  0  0  0
  3  4  2  0  0  0  0
  4  8  1  0  0  0  0
  4  5  1  0  0  0  0
  6  2  1  0  0  0  0
  7  3  1  0  0  0  0
  9 10  1  0  0  0  0
  9 11  1  0  0  0  0
  9  8  1  0  0  0  0
 11 12  1  0  0  0  0
 11 13  1  0  0  0  0
 14 13  1  0  0  0  0
 15 14  1  0  0  0  0
 16  8  1  0  0  0  0
 16 17  1  0  0  0  0
 16 14  1  0  0  0  0
 18 19  1  0  0  0  0
 19 25  1  0  0  0  0
 19 20  2  0  0  0  0
 20 26  1  0  0  0  0
 21 20  1  0  0  0  0
 22 21  2  0  0  0  0
 23 18  2  0  0  0  0
 23 22  1  0  0  0  0
 24 18  1  0  0  0  0
M  END
>  <minimizedAffinity>
-4.20915985

$$$$

 OpenBabel03252509173D

 26 28  0  0  0  0  0  0  0  0999 V2000
   35.2530   29.0700   38.5630 C   0  0  0  0  0  0  0  0  0  0  0  0
   35.0500   29.0930   39.9670 C   0  0  0  0  0  0  0  0  0  0  0  0
   35.7440   30.0020   40.6970 C   0  0  0  0  0  0  0  0  0  0  0  0
   36.6370   30.8870   40.0430 C   0  0  0  0  0  0  0  0  0  0  0  0
   36.4770   30.3950   38.2990 S   0  0  0  0  0  0  0  0  0  0  0  0
   34.3620   28.4050   40.4370 H   0  0  0  0  0  0  0  0  0  0  0  0
   35.6950   30.1330   41.7460 H   0  0  0  0  0  0  0  0  0  0  0  0
   37.4910   31.9200   40.4660 C   0  0  0  0  0  3  0  0  0  0  0  0
   37.3270   33.1420   39.5820 C   0  0  0  0  0  3  0  0  0  0  0  0
   36.2880   33.5390   39.7080 H   0  0  0  0  0  0  0  0  0  0  0  0
   38.3910   34.1610   39.9350 C   0  0  0  0  0  3  0  0  0  0  0  0
   37.8800   35.1240   40.2240 H   0  0  0  0  0  0  0  0  0  0  0  0
   39.0720   33.7490   41.0540 O   0  0  0  0  0  0  0  0  0  0  0  0
   39.8040   32.5970   40.8840 C   0  0  0  0  0  3  0  0  0  0  0  0
   40.7520   32.7520   40.3170 H   0  0  0  0  0  0  0  0  0  0  0  0
   38.9500   31.5040   40.2870 C   0  0  0  0  0  3  0  0  0  0  0  0
   39.1640   30.5050   40.7110 H   0  0  0  0  0  0  0  0  0  0  0  0
   34.2080   26.1610   36.5200 C   0  0  0  0  0  0  0  0  0  0  0  0
   33.0680   26.7170   35.8870 C   0  0  0  0  0  0  0  0  0  0  0  0
   32.7090   28.0470   36.1830 C   0  0  0  0  0  0  0  0  0  0  0  0
   33.4950   28.7220   37.0720 N   0  0  0  0  0  0  0  0  0  0  0  0
   34.5770   28.1470   37.6520 C   0  0  0  0  0  0  0  0  0  0  0  0
   34.9350   26.8660   37.3780 N   0  0  0  0  0  0  0  0  0  0  0  0
   34.4820   25.1380   36.2930 H   0  0  0  0  0  0  0  0  0  0  0  0
   32.4660   26.1640   35.1900 H   0  0  0  0  0  0  0  0  0  0  0  0
   31.8590   28.5340   35.7410 H   0  0  0  0  0  0  0  0  0  0  0  0
  1  2  2  0  0  0  0
  2  6  1  0  0  0  0
  2  3  1  0  0  0  0
  3  7  1  0  0  0  0
  4  8  1  0  0  0  0
  4  3  2  0  0  0  0
  5  1  1  0  0  0  0
  5  4  1  0  0  0  0
  9 10  1  0  0  0  0
  9 11  1  0  0  0  0
  9  8  1  0  0  0  0
 11 12  1  0  0  0  0
 11 13  1  0  0  0  0
 14 13  1  0  0  0  0
 15 14  1  0  0  0  0
 16  8  1  0  0  0  0
 16 17  1  0  0  0  0
 16 14  1  0  0  0  0
 18 23  1  0  0  0  0
 19 20  1  0  0  0  0
 19 18  2  0  0  0  0
 20 21  2  0  0  0  0
 21 22  1  0  0  0  0
 22  1  1  0  0  0  0
 23 22  2  0  0  0  0
 24 18  1  0  0  0  0
 25 19  1  0  0  0  0
 26 20  1  0  0  0  0
M  END
>  <minimizedAffinity>
-4.10722017

$$$$

 OpenBabel03252509173D

 26 28  0  0  0  0  0  0  0  0999 V2000
   34.6680   28.1660   38.2230 C   0  0  0  0  0  0  0  0  0  0  0  0
   34.2950   29.1300   39.1960 C   0  0  0  0  0  0  0  0  0  0  0  0
   35.0810   29.2670   40.2930 C   0  0  0  0  0  0  0  0  0  0  0  0
   36.2330   28.4540   40.4310 C   0  0  0  0  0  0  0  0  0  0  0  0
   36.1910   27.4450   38.9180 S   0  0  0  0  0  0  0  0  0  0  0  0
   33.4100   29.7360   39.0620 H   0  0  0  0  0  0  0  0  0  0  0  0
   34.9270   29.9400   41.0950 H   0  0  0  0  0  0  0  0  0  0  0  0
   37.2430   28.3260   41.4010 C   0  0  0  0  0  3  0  0  0  0  0  0
   36.7560   27.4940   42.5710 C   0  0  0  0  0  3  0  0  0  0  0  0
   36.5510   26.4540   42.2120 H   0  0  0  0  0  0  0  0  0  0  0  0
   37.7870   27.5390   43.6800 C   0  0  0  0  0  3  0  0  0  0  0  0
   38.1010   26.4820   43.9170 H   0  0  0  0  0  0  0  0  0  0  0  0
   38.9200   28.1720   43.2310 O   0  0  0  0  0  0  0  0  0  0  0  0
   38.7470   29.5030   42.9280 C   0  0  0  0  0  3  0  0  0  0  0  0
   38.6890   30.1600   43.8280 H   0  0  0  0  0  0  0  0  0  0  0  0
   37.5690   29.6910   42.0020 C   0  0  0  0  0  3  0  0  0  0  0  0
   37.7420   30.4670   41.2330 H   0  0  0  0  0  0  0  0  0  0  0  0
   32.7500   26.6570   35.4350 C   0  0  0  0  0  0  0  0  0  0  0  0
   32.5670   27.8080   34.6280 C   0  0  0  0  0  0  0  0  0  0  0  0
   33.1000   29.0360   35.0660 C   0  0  0  0  0  0  0  0  0  0  0  0
   33.7670   29.0370   36.2560 N   0  0  0  0  0  0  0  0  0  0  0  0
   33.9170   27.9100   36.9950 C   0  0  0  0  0  0  0  0  0  0  0  0
   33.4090   26.7190   36.5860 N   0  0  0  0  0  0  0  0  0  0  0  0
   32.3390   25.7140   35.0970 H   0  0  0  0  0  0  0  0  0  0  0  0
   32.0370   27.7810   33.6930 H   0  0  0  0  0  0  0  0  0  0  0  0
   33.0010   29.9490   34.5070 H   0  0  0  0  0  0  0  0  0  0  0  0
  1  5  1  0  0  0  0
  1  2  2  0  0  0  0
  2  3  1  0  0  0  0
  3  4  2  0  0  0  0
  3  7  1  0  0  0  0
  4  8  1  0  0  0  0
  5  4  1  0  0  0  0
  6  2  1  0  0  0  0
  8 16  1  0  0  0  0
  8  9  1  0  0  0  0
  9 11  1  0  0  0  0
 10  9  1  0  0  0  0
 11 12  1  0  0  0  0
 13 11  1  0  0  0  0
 14 13  1  0  0  0  0
 14 15  1  0  0  0  0
 16 14  1  0  0  0  0
 17 16  1  0  0  0  0
 18 23  1  0  0  0  0
 19 20  1  0  0  0  0
 19 18  2  0  0  0  0
 20 21  2  0  0  0  0
 21 22  1  0  0  0  0
 22  1  1  0  0  0  0
 23 22  2  0  0  0  0
 24 18  1  0  0  0  0
 25 19  1  0  0  0  0
 26 20  1  0  0  0  0
M  END
>  <minimizedAffinity>
-4.087358

$$$$
