
 OpenBabel03252508293D

 40 43  0  0  1  0  0  0  0  0999 V2000
   41.7170   33.0580   40.2400 N   0  0  0  0  0  0  0  0  0  0  0  0
   42.2710   34.3420   40.6810 C   0  0  2  0  0  0  0  0  0  0  0  0
   41.3770   35.4880   40.3690 C   0  0  0  0  0  0  0  0  0  0  0  0
   40.0550   35.0690   39.9380 N   0  0  0  0  0  0  0  0  0  0  0  0
   40.0450   34.0810   38.9100 C   0  0  0  0  0  0  0  0  0  0  0  0
   41.3250   33.3010   38.8390 C   0  0  2  0  0  0  0  0  0  0  0  0
   42.4730   32.3720   40.3320 H   0  0  0  0  0  0  0  0  0  0  0  0
   42.4870   34.3210   41.7790 H   0  0  0  0  0  0  0  0  0  0  0  0
   41.1910   36.1510   41.2540 H   0  0  0  0  0  0  0  0  0  0  0  0
   41.6660   36.1340   39.5230 H   0  0  0  0  0  0  0  0  0  0  0  0
   39.3990   34.9400   40.7150 H   0  0  0  0  0  0  0  0  0  0  0  0
   39.8010   34.5260   37.9030 H   0  0  0  0  0  0  0  0  0  0  0  0
   39.2140   33.3680   39.0980 H   0  0  0  0  0  0  0  0  0  0  0  0
   42.1080   33.8850   38.3620 H   0  0  0  0  0  0  0  0  0  0  0  0
   41.1510   32.0110   38.0920 C   0  0  0  0  0  3  0  0  0  0  0  0
   41.6960   30.8060   38.7740 C   0  0  0  0  0  3  0  0  0  0  0  0
   40.8900   30.0420   38.9750 H   0  0  0  0  0  0  0  0  0  0  0  0
   42.6580   30.0870   37.8200 C   0  0  0  0  0  3  0  0  0  0  0  0
   42.9140   29.1200   38.3450 H   0  0  0  0  0  0  0  0  0  0  0  0
   42.0370   29.7320   36.6440 O   0  0  0  0  0  0  0  0  0  0  0  0
   41.3460   30.7640   36.0340 C   0  0  0  0  0  3  0  0  0  0  0  0
   40.2620   30.5860   36.2970 H   0  0  0  0  0  0  0  0  0  0  0  0
   41.6940   32.0990   36.7050 C   0  0  0  0  0  3  0  0  0  0  0  0
   41.0930   32.8750   36.1680 H   0  0  0  0  0  0  0  0  0  0  0  0
   45.5580   34.2550   39.1930 C   0  0  0  0  0  0  0  0  0  0  0  0
   45.0520   35.5090   38.8290 C   0  0  0  0  0  0  0  0  0  0  0  0
   43.7810   35.6730   39.3520 C   0  0  0  0  0  0  0  0  0  0  0  0
   43.5430   34.5390   40.0070 N   0  0  0  0  0  0  0  0  0  0  0  0
   44.5780   33.7120   39.9150 N   0  0  0  0  0  0  0  0  0  0  0  0
   45.6950   36.1640   38.2100 H   0  0  0  0  0  0  0  0  0  0  0  0
   43.3940   36.6460   39.0760 H   0  0  0  0  0  0  0  0  0  0  0  0
   48.6440   33.1970   37.3200 C   0  0  0  0  0  0  0  0  0  0  0  0
   47.3330   33.7160   37.5300 C   0  0  0  0  0  0  0  0  0  0  0  0
   46.8780   33.7410   38.8310 C   0  0  0  0  0  0  0  0  0  0  0  0
   47.6690   33.2850   39.8300 N   0  0  0  0  0  0  0  0  0  0  0  0
   48.9110   32.7970   39.6010 C   0  0  0  0  0  0  0  0  0  0  0  0
   49.3690   32.7640   38.3530 N   0  0  0  0  0  0  0  0  0  0  0  0
   49.0190   33.1710   36.2930 H   0  0  0  0  0  0  0  0  0  0  0  0
   46.7100   34.0750   36.7380 H   0  0  0  0  0  0  0  0  0  0  0  0
   49.4530   32.4600   40.4830 H   0  0  0  0  0  0  0  0  0  0  0  0
  1  7  1  0  0  0  0
  1  2  1  0  0  0  0
  2  8  1  1  0  0  0
  3  2  1  0  0  0  0
  3  9  1  0  0  0  0
  4  3  1  0  0  0  0
  4 11  1  0  0  0  0
  5 13  1  0  0  0  0
  5  4  1  0  0  0  0
  6 14  1  6  0  0  0
  6  5  1  0  0  0  0
  6  1  1  0  0  0  0
 10  3  1  0  0  0  0
 12  5  1  0  0  0  0
 15 16  1  0  0  0  0
 15  6  1  0  0  0  0
 16 17  1  0  0  0  0
 18 19  1  0  0  0  0
 18 16  1  0  0  0  0
 20 18  1  0  0  0  0
 21 22  1  0  0  0  0
 21 20  1  0  0  0  0
 21 23  1  0  0  0  0
 23 15  1  0  0  0  0
 24 23  1  0  0  0  0
 25 29  2  0  0  0  0
 26 25  1  0  0  0  0
 26 27  2  0  0  0  0
 27 28  1  0  0  0  0
 28  2  1  0  0  0  0
 29 28  1  0  0  0  0
 30 26  1  0  0  0  0
 31 27  1  0  0  0  0
 32 33  2  0  0  0  0
 32 37  1  0  0  0  0
 33 34  1  0  0  0  0
 34 25  1  0  0  0  0
 34 35  2  0  0  0  0
 36 35  1  0  0  0  0
 36 40  1  0  0  0  0
 37 36  2  0  0  0  0
 38 32  1  0  0  0  0
 39 33  1  0  0  0  0
M  END
>  <minimizedAffinity>
4.29685402

>  <minimizedRMSD>
3.62641358

$$$$
