
 OpenBabel03252506573D

 39 43  0  0  0  0  0  0  0  0999 V2000
   47.3270   31.3460   45.1930 C   0  0  0  0  0  0  0  0  0  0  0  0
   46.9190   32.6630   45.0950 C   0  0  0  0  0  0  0  0  0  0  0  0
   46.2640   33.3320   46.1230 C   0  0  0  0  0  0  0  0  0  0  0  0
   45.9930   32.6770   47.3150 C   0  0  0  0  0  0  0  0  0  0  0  0
   45.3970   32.9940   48.4900 N   0  0  0  0  0  0  0  0  0  0  0  0
   45.4340   31.9040   49.2990 C   0  0  0  0  0  0  0  0  0  0  0  0
   46.0570   30.9160   48.6120 N   0  0  0  0  0  0  0  0  0  0  0  0
   46.4120   31.3590   47.3900 C   0  0  0  0  0  0  0  0  0  0  0  0
   47.0600   30.6740   46.3900 C   0  0  0  0  0  0  0  0  0  0  0  0
   47.8350   30.8390   44.3850 H   0  0  0  0  0  0  0  0  0  0  0  0
   45.9420   34.3610   46.0500 H   0  0  0  0  0  0  0  0  0  0  0  0
   44.9850   33.9410   48.7040 H   0  0  0  0  0  0  0  0  0  0  0  0
   45.0400   31.8310   50.3090 H   0  0  0  0  0  0  0  0  0  0  0  0
   46.6350   35.1060   42.3540 C   0  0  0  0  0  0  0  0  0  0  0  0
   47.7030   34.7640   41.5330 C   0  0  0  0  0  0  0  0  0  0  0  0
   48.5250   33.6900   41.9210 C   0  0  0  0  0  0  0  0  0  0  0  0
   48.2340   33.0360   43.0850 N   0  0  0  0  0  0  0  0  0  0  0  0
   47.1780   33.4020   43.8620 C   0  0  0  0  0  0  0  0  0  0  0  0
   46.3900   34.4220   43.5030 N   0  0  0  0  0  0  0  0  0  0  0  0
   46.0200   35.9330   42.0360 H   0  0  0  0  0  0  0  0  0  0  0  0
   47.8750   35.3260   40.6250 H   0  0  0  0  0  0  0  0  0  0  0  0
   49.3550   33.4050   41.3090 H   0  0  0  0  0  0  0  0  0  0  0  0
   47.4580   29.2750   46.5830 C   0  0  0  0  0  0  0  0  0  0  0  0
   48.7470   28.8010   46.3440 C   0  0  0  0  0  0  0  0  0  0  0  0
   48.6440   27.4390   46.6610 C   0  0  0  0  0  0  0  0  0  0  0  0
   47.3350   27.1780   47.0620 C   0  0  0  0  0  0  0  0  0  0  0  0
   46.6730   28.3260   46.9930 O   0  0  0  0  0  0  0  0  0  0  0  0
   49.6370   29.2960   46.0030 H   0  0  0  0  0  0  0  0  0  0  0  0
   49.4190   26.6740   46.6190 H   0  0  0  0  0  0  0  0  0  0  0  0
   46.7180   25.9140   47.4950 C   0  0  0  0  0  3  0  0  0  0  0  0
   45.2920   26.0840   47.9040 C   0  0  0  0  0  3  0  0  0  0  0  0
   44.7660   26.8850   47.3450 H   0  0  0  0  0  0  0  0  0  0  0  0
   44.6060   24.7320   47.6820 C   0  0  0  0  0  3  0  0  0  0  0  0
   44.4490   24.5370   46.5990 H   0  0  0  0  0  0  0  0  0  0  0  0
   45.5300   23.7770   48.1160 O   0  0  0  0  0  0  0  0  0  0  0  0
   46.4600   23.5440   47.0830 C   0  0  0  0  0  3  0  0  0  0  0  0
   47.3790   23.0880   47.5140 H   0  0  0  0  0  0  0  0  0  0  0  0
   46.7540   24.8600   46.3960 C   0  0  0  0  0  3  0  0  0  0  0  0
   47.8260   24.8050   46.0580 H   0  0  0  0  0  0  0  0  0  0  0  0
  1  9  1  0  0  0  0
  2  1  2  0  0  0  0
  2  3  1  0  0  0  0
  3  4  2  0  0  0  0
  4  8  1  0  0  0  0
  4  5  1  0  0  0  0
  5 12  1  0  0  0  0
  5  6  1  0  0  0  0
  6 13  1  0  0  0  0
  7  6  2  0  0  0  0
  8  7  1  0  0  0  0
  9 23  1  0  0  0  0
  9  8  2  0  0  0  0
 10  1  1  0  0  0  0
 11  3  1  0  0  0  0
 14 19  1  0  0  0  0
 15 16  1  0  0  0  0
 15 14  2  0  0  0  0
 16 17  2  0  0  0  0
 17 18  1  0  0  0  0
 18  2  1  0  0  0  0
 19 18  2  0  0  0  0
 20 14  1  0  0  0  0
 21 15  1  0  0  0  0
 22 16  1  0  0  0  0
 23 27  1  0  0  0  0
 24 23  2  0  0  0  0
 24 25  1  0  0  0  0
 25 26  2  0  0  0  0
 26 30  1  0  0  0  0
 27 26  1  0  0  0  0
 28 24  1  0  0  0  0
 29 25  1  0  0  0  0
 30 31  1  0  0  0  0
 32 31  1  0  0  0  0
 33 31  1  0  0  0  0
 33 35  1  0  0  0  0
 34 33  1  0  0  0  0
 36 37  1  0  0  0  0
 36 35  1  0  0  0  0
 38 36  1  0  0  0  0
 38 30  1  0  0  0  0
 39 38  1  0  0  0  0
M  END
>  <minimizedAffinity>
-5.64936924

>  <minimizedRMSD>
0.880475342

$$$$
