
 OpenBabel03242510573D

 37 39  0  0  0  0  0  0  0  0999 V2000
   45.6970   31.5760   47.0050 C   0  0  0  0  0  0  0  0  0  0  0  0
   45.7710   31.9400   48.3490 C   0  0  0  0  0  0  0  0  0  0  0  0
   45.5380   31.0700   49.3950 C   0  0  0  0  0  0  0  0  0  0  0  0
   45.2180   29.7720   49.0750 C   0  0  0  0  0  0  0  0  0  0  0  0
   45.1440   29.4030   47.7270 C   0  0  0  0  0  0  0  0  0  0  0  0
   45.3790   30.2930   46.7690 N   0  0  0  0  0  0  0  0  0  0  0  0
   46.0260   32.9730   48.5460 H   0  0  0  0  0  0  0  0  0  0  0  0
   45.6180   31.4440   50.4030 H   0  0  0  0  0  0  0  0  0  0  0  0
   45.0390   29.1020   49.9060 H   0  0  0  0  0  0  0  0  0  0  0  0
   44.7430   36.6290   43.8430 C   0  0  0  0  0  0  0  0  0  0  0  0
   45.6960   36.4040   42.8400 C   0  0  0  0  0  0  0  0  0  0  0  0
   46.4120   35.1920   42.8540 C   0  0  0  0  0  0  0  0  0  0  0  0
   46.1460   34.2920   43.8430 N   0  0  0  0  0  0  0  0  0  0  0  0
   45.2200   34.5500   44.7890 C   0  0  0  0  0  0  0  0  0  0  0  0
   44.5060   35.7270   44.7990 N   0  0  0  0  0  0  0  0  0  0  0  0
   45.9570   32.5590   45.9620 C   0  0  0  0  0  0  0  0  0  0  0  0
   46.9930   32.4590   45.2760 O   0  0  0  0  0  0  0  0  0  0  0  0
   44.9640   33.5910   45.8080 N   0  0  0  0  0  0  0  0  0  0  0  0
   44.1870   37.5570   43.8430 H   0  0  0  0  0  0  0  0  0  0  0  0
   45.8930   37.1310   42.0630 H   0  0  0  0  0  0  0  0  0  0  0  0
   47.1520   34.9630   42.1140 H   0  0  0  0  0  0  0  0  0  0  0  0
   44.0870   33.6730   46.3920 H   0  0  0  0  0  0  0  0  0  0  0  0
   44.8060   28.0330   47.4050 C   0  0  0  0  0  0  0  0  0  0  0  0
   44.6650   27.1300   48.3520 C   0  0  0  0  0  0  0  0  0  0  0  0
   44.3250   25.6900   48.2010 C   0  0  0  0  0  0  0  0  0  0  0  0
   43.3100   25.4580   48.5450 H   0  0  0  0  0  0  0  0  0  0  0  0
   44.3930   25.4800   47.1140 H   0  0  0  0  0  0  0  0  0  0  0  0
   45.3930   24.8770   48.8810 C   0  0  0  0  0  0  0  0  0  0  0  0
   46.7860   25.2730   48.5010 C   0  0  0  0  0  0  0  0  0  0  0  0
   46.9330   26.3510   48.7930 H   0  0  0  0  0  0  0  0  0  0  0  0
   47.7340   24.4920   49.4040 C   0  0  0  0  0  0  0  0  0  0  0  0
   48.2220   25.1100   50.1660 H   0  0  0  0  0  0  0  0  0  0  0  0
   47.1080   23.3870   49.9780 O   0  0  0  0  0  0  0  0  0  0  0  0
   46.1500   23.7640   50.9160 C   0  0  0  0  0  0  0  0  0  0  0  0
   45.5010   22.8930   51.0950 H   0  0  0  0  0  0  0  0  0  0  0  0
   45.2670   24.8820   50.3750 C   0  0  0  0  0  0  0  0  0  0  0  0
   44.2140   24.7580   50.7150 H   0  0  0  0  0  0  0  0  0  0  0  0
  1  2  1  0  0  0  0
  2  7  1  0  0  0  0
  2  3  2  0  0  0  0
  3  8  1  0  0  0  0
  4  3  1  0  0  0  0
  4  9  1  0  0  0  0
  5  4  2  0  0  0  0
  6  1  2  0  0  0  0
  6  5  1  0  0  0  0
 10 15  1  0  0  0  0
 11 12  1  0  0  0  0
 11 10  2  0  0  0  0
 12 13  2  0  0  0  0
 13 14  1  0  0  0  0
 14 15  2  0  0  0  0
 14 18  1  0  0  0  0
 16  1  1  0  0  0  0
 17 16  2  0  0  0  0
 18 16  1  0  0  0  0
 18 22  1  0  0  0  0
 19 10  1  0  0  0  0
 20 11  1  0  0  0  0
 21 12  1  0  0  0  0
 23  5  1  0  0  0  0
 23 24  2  0  0  0  0
 25 24  1  0  0  0  0
 25 26  1  0  0  0  0
 25 28  1  0  0  0  0
 27 25  1  0  0  0  0
 28 36  1  0  0  0  0
 29 30  1  0  0  0  0
 29 28  1  0  0  0  0
 29 31  1  0  0  0  0
 31 33  1  0  0  0  0
 31 32  1  0  0  0  0
 33 34  1  0  0  0  0
 34 35  1  0  0  0  0
 36 37  1  0  0  0  0
 36 34  1  0  0  0  0
M  END
>  <minimizedAffinity>
-5.80522776

>  <minimizedRMSD>
0.921507776

$$$$
