
 OpenBabel03252508263D

 42 46  0  0  1  0  0  0  0  0999 V2000
   46.4130   32.4860   46.0930 C   0  0  1  0  0  0  0  0  0  0  0  0
   46.8660   32.6990   47.4760 C   0  0  0  0  0  0  0  0  0  0  0  0
   45.4840   32.0330   47.1080 C   0  0  2  0  0  0  0  0  0  0  0  0
   47.2370   31.8510   45.6070 H   0  0  0  0  0  0  0  0  0  0  0  0
   47.5090   31.9950   48.0390 H   0  0  0  0  0  0  0  0  0  0  0  0
   46.7730   33.6680   47.9850 H   0  0  0  0  0  0  0  0  0  0  0  0
   44.7190   32.7060   47.6140 H   0  0  0  0  0  0  0  0  0  0  0  0
   45.2340   30.6350   47.4750 C   0  0  0  0  0  0  0  0  0  0  0  0
   45.1040   30.1060   48.7180 C   0  0  0  0  0  0  0  0  0  0  0  0
   44.9940   28.7640   49.0250 C   0  0  0  0  0  0  0  0  0  0  0  0
   45.0220   27.8730   47.9440 C   0  0  0  0  0  0  0  0  0  0  0  0
   45.1520   28.3790   46.6500 C   0  0  0  0  0  0  0  0  0  0  0  0
   45.1070   27.4660   45.6130 C   0  0  0  0  0  0  0  0  0  0  0  0
   45.1560   27.9340   44.3060 C   0  0  0  0  0  0  0  0  0  0  0  0
   45.2440   29.2860   44.0430 C   0  0  0  0  0  0  0  0  0  0  0  0
   45.2880   30.1480   45.1150 C   0  0  0  0  0  0  0  0  0  0  0  0
   45.2520   29.7350   46.4390 C   0  0  0  0  0  0  0  0  0  0  0  0
   45.0870   30.8360   49.5300 H   0  0  0  0  0  0  0  0  0  0  0  0
   44.8930   28.4150   50.0330 H   0  0  0  0  0  0  0  0  0  0  0  0
   44.9420   26.8210   48.1650 H   0  0  0  0  0  0  0  0  0  0  0  0
   45.0340   26.4050   45.8540 H   0  0  0  0  0  0  0  0  0  0  0  0
   45.1160   27.1240   43.5720 H   0  0  0  0  0  0  0  0  0  0  0  0
   45.2660   29.4450   42.9930 H   0  0  0  0  0  0  0  0  0  0  0  0
   45.2660   31.1020   44.6700 H   0  0  0  0  0  0  0  0  0  0  0  0
   44.7100   35.5130   44.8410 C   0  0  0  0  0  0  0  0  0  0  0  0
   45.3240   35.6910   43.5500 C   0  0  0  0  0  0  0  0  0  0  0  0
   46.3300   34.7500   43.1580 C   0  0  0  0  0  0  0  0  0  0  0  0
   46.6550   33.7600   43.9910 N   0  0  0  0  0  0  0  0  0  0  0  0
   46.0360   33.6350   45.2160 C   0  0  0  0  0  0  0  0  0  0  0  0
   45.0970   34.4820   45.6260 N   0  0  0  0  0  0  0  0  0  0  0  0
   43.9720   36.2500   45.0610 H   0  0  0  0  0  0  0  0  0  0  0  0
   45.0800   36.4700   42.8750 H   0  0  0  0  0  0  0  0  0  0  0  0
   47.0090   34.8510   41.8640 C   0  0  0  0  0  3  0  0  0  0  0  0
   46.9220   33.5710   41.0450 C   0  0  0  0  0  3  0  0  0  0  0  0
   47.0470   32.6630   41.6500 H   0  0  0  0  0  0  0  0  0  0  0  0
   48.0130   33.7100   39.9790 C   0  0  0  0  0  3  0  0  0  0  0  0
   47.6610   33.2670   39.0260 H   0  0  0  0  0  0  0  0  0  0  0  0
   48.2710   35.0540   39.6930 O   0  0  0  0  0  0  0  0  0  0  0  0
   48.9810   35.6910   40.7030 C   0  0  0  0  0  3  0  0  0  0  0  0
   50.0640   35.6900   40.5670 H   0  0  0  0  0  0  0  0  0  0  0  0
   48.5030   35.1340   42.0200 C   0  0  0  0  0  3  0  0  0  0  0  0
   48.6510   35.8170   42.8610 H   0  0  0  0  0  0  0  0  0  0  0  0
  1  4  1  6  0  0  0
  1  3  1  0  0  0  0
  1  2  1  0  0  0  0
  2  6  1  0  0  0  0
  2  5  1  0  0  0  0
  3  8  1  0  0  0  0
  3  2  1  0  0  0  0
  3  7  1  1  0  0  0
  8  9  1  0  0  0  0
  9 10  2  0  0  0  0
  9 18  1  0  0  0  0
 10 19  1  0  0  0  0
 11 20  1  0  0  0  0
 11 10  1  0  0  0  0
 12 11  2  0  0  0  0
 13 21  1  0  0  0  0
 13 12  1  0  0  0  0
 14 13  2  0  0  0  0
 15 14  1  0  0  0  0
 15 16  2  0  0  0  0
 16 17  1  0  0  0  0
 17 12  1  0  0  0  0
 17  8  2  0  0  0  0
 22 14  1  0  0  0  0
 23 15  1  0  0  0  0
 24 16  1  0  0  0  0
 25 31  1  0  0  0  0
 25 30  1  0  0  0  0
 26 25  2  0  0  0  0
 27 26  1  0  0  0  0
 27 28  2  0  0  0  0
 28 29  1  0  0  0  0
 29 30  2  0  0  0  0
 29  1  1  0  0  0  0
 32 26  1  0  0  0  0
 33 41  1  0  0  0  0
 33 27  1  0  0  0  0
 34 35  1  0  0  0  0
 34 33  1  0  0  0  0
 36 34  1  0  0  0  0
 37 36  1  0  0  0  0
 38 36  1  0  0  0  0
 38 39  1  0  0  0  0
 39 41  1  0  0  0  0
 40 39  1  0  0  0  0
 41 42  1  0  0  0  0
M  END
>  <minimizedAffinity>
-5.90698147

>  <minimizedRMSD>
0.38286379

$$$$
