
 OpenBabel03252509043D

 49 51  0  0  1  0  0  0  0  0999 V2000
   47.1550   34.1950   43.0880 N   0  0  0  0  0  0  0  0  0  0  0  0
   46.6430   35.3030   42.3800 C   0  0  0  0  0  0  0  0  0  0  0  0
   45.1470   35.5120   42.5060 C   0  0  0  0  0  0  0  0  0  0  0  0
   44.5820   35.1060   43.8390 C   0  0  0  0  0  0  0  0  0  0  0  0
   45.6650   34.6680   44.7990 C   0  0  0  0  0  0  0  0  0  0  0  0
   46.3980   33.5100   44.0180 C   0  0  2  0  0  0  0  0  0  0  0  0
   46.8630   35.3530   41.3070 H   0  0  0  0  0  0  0  0  0  0  0  0
   47.1170   36.2250   42.8160 H   0  0  0  0  0  0  0  0  0  0  0  0
   44.6560   34.9930   41.6590 H   0  0  0  0  0  0  0  0  0  0  0  0
   44.9340   36.5970   42.3780 H   0  0  0  0  0  0  0  0  0  0  0  0
   44.0020   35.9280   44.3230 H   0  0  0  0  0  0  0  0  0  0  0  0
   43.8850   34.2650   43.7300 H   0  0  0  0  0  0  0  0  0  0  0  0
   45.1970   34.2000   45.6700 H   0  0  0  0  0  0  0  0  0  0  0  0
   46.3980   35.4650   45.0340 H   0  0  0  0  0  0  0  0  0  0  0  0
   45.5610   32.8800   43.6570 H   0  0  0  0  0  0  0  0  0  0  0  0
   48.1830   33.4760   42.3840 C   0  0  0  0  0  0  0  0  0  0  0  0
   48.7890   32.9200   43.1310 H   0  0  0  0  0  0  0  0  0  0  0  0
   48.7970   34.2240   41.8520 H   0  0  0  0  0  0  0  0  0  0  0  0
   47.5590   32.5050   41.4560 C   0  0  0  0  0  0  0  0  0  0  0  0
   47.6150   31.4510   41.7820 H   0  0  0  0  0  0  0  0  0  0  0  0
   46.4600   32.7060   41.3340 H   0  0  0  0  0  0  0  0  0  0  0  0
   49.5320   31.8260   38.3340 C   0  0  0  0  0  0  0  0  0  0  0  0
   48.9790   31.7020   39.6210 C   0  0  0  0  0  0  0  0  0  0  0  0
   48.1290   32.6600   40.0960 C   0  0  0  0  0  0  0  0  0  0  0  0
   47.8590   33.6940   39.2950 N   0  0  0  0  0  0  0  0  0  0  0  0
   48.3730   33.8310   38.0700 C   0  0  0  0  0  0  0  0  0  0  0  0
   49.2130   32.9070   37.5690 N   0  0  0  0  0  0  0  0  0  0  0  0
   50.2130   31.0650   37.9430 H   0  0  0  0  0  0  0  0  0  0  0  0
   49.2590   30.8230   40.1980 H   0  0  0  0  0  0  0  0  0  0  0  0
   48.0480   34.7360   37.5490 H   0  0  0  0  0  0  0  0  0  0  0  0
   47.1690   32.9400   45.0070 O   0  0  0  0  0  0  0  0  0  0  0  0
   46.1170   30.6390   44.2170 O   0  0  0  0  0  0  0  0  0  0  0  0
   46.6480   31.3920   45.4350 P   0  0  2  0  0  0  0  0  0  0  0  0
   45.3140   31.6190   46.4660 O   0  0  0  0  0  0  0  0  0  0  0  0
   45.3790   31.0920   47.2970 H   0  0  0  0  0  0  0  0  0  0  0  0
   47.8200   30.5360   46.2640 O   0  0  0  0  0  0  0  0  0  0  0  0
   47.7660   29.2100   45.8290 C   0  0  0  0  0  0  0  0  0  0  0  0
   46.7800   28.7940   46.1650 H   0  0  0  0  0  0  0  0  0  0  0  0
   47.8810   29.1240   44.7470 H   0  0  0  0  0  0  0  0  0  0  0  0
   48.8520   28.4750   46.5870 C   0  0  0  0  0  3  0  0  0  0  0  0
   50.2400   28.7950   46.0830 C   0  0  0  0  0  3  0  0  0  0  0  0
   50.3740   28.3530   45.0750 H   0  0  0  0  0  0  0  0  0  0  0  0
   51.1880   28.0370   47.0140 C   0  0  0  0  0  3  0  0  0  0  0  0
   52.2480   28.1680   46.7170 H   0  0  0  0  0  0  0  0  0  0  0  0
   50.9190   26.6890   46.9550 O   0  0  0  0  0  0  0  0  0  0  0  0
   49.6590   26.3240   47.3740 C   0  0  0  0  0  3  0  0  0  0  0  0
   49.5900   25.2260   47.2640 H   0  0  0  0  0  0  0  0  0  0  0  0
   48.6030   26.9900   46.5000 C   0  0  0  0  0  3  0  0  0  0  0  0
   48.7650   26.6820   45.4520 H   0  0  0  0  0  0  0  0  0  0  0  0
  1  6  1  0  0  0  0
  2  3  1  0  0  0  0
  2  8  1  0  0  0  0
  2  1  1  0  0  0  0
  3  4  1  0  0  0  0
  4 11  1  0  0  0  0
  4  5  1  0  0  0  0
  5 14  1  0  0  0  0
  5 13  1  0  0  0  0
  6 15  1  6  0  0  0
  6  5  1  0  0  0  0
  6 31  1  0  0  0  0
  7  2  1  0  0  0  0
  9  3  1  0  0  0  0
 10  3  1  0  0  0  0
 12  4  1  0  0  0  0
 16  1  1  0  0  0  0
 16 17  1  0  0  0  0
 18 16  1  0  0  0  0
 19 20  1  0  0  0  0
 19 16  1  0  0  0  0
 21 19  1  0  0  0  0
 22 23  1  0  0  0  0
 23 24  2  0  0  0  0
 23 29  1  0  0  0  0
 24 19  1  0  0  0  0
 25 24  1  0  0  0  0
 26 25  2  0  0  0  0
 27 26  1  0  0  0  0
 27 22  2  0  0  0  0
 28 22  1  0  0  0  0
 30 26  1  0  0  0  0
 31 33  1  0  0  0  0
 33 32  2  6  0  0  0
 33 36  1  0  0  0  0
 33 34  1  0  0  0  0
 34 35  1  0  0  0  0
 37 38  1  0  0  0  0
 37 36  1  0  0  0  0
 37 40  1  0  0  0  0
 39 37  1  0  0  0  0
 41 40  1  0  0  0  0
 41 43  1  0  0  0  0
 42 41  1  0  0  0  0
 44 43  1  0  0  0  0
 45 43  1  0  0  0  0
 45 46  1  0  0  0  0
 47 46  1  0  0  0  0
 48 40  1  0  0  0  0
 48 46  1  0  0  0  0
 49 48  1  0  0  0  0
M  END
>  <minimizedAffinity>
-3.62444973

>  <minimizedRMSD>
0.615872979

$$$$
