
 OpenBabel03242518173D

 24 25  0  0  0  0  0  0  0  0999 V2000
   46.6590   33.0200   46.3190 C   0  0  0  0  0  0  0  0  0  0  0  0
   47.4490   32.3550   45.8820 H   0  0  0  0  0  0  0  0  0  0  0  0
   47.0880   33.7140   47.0590 H   0  0  0  0  0  0  0  0  0  0  0  0
   45.7020   32.1140   47.0280 C   0  0  0  0  0  3  0  0  0  0  0  0
   45.8030   32.3050   48.5180 C   0  0  0  0  0  3  0  0  0  0  0  0
   46.8640   32.3430   48.7870 H   0  0  0  0  0  0  0  0  0  0  0  0
   45.0240   31.2690   49.2830 C   0  0  0  0  0  3  0  0  0  0  0  0
   45.4250   31.2610   50.3240 H   0  0  0  0  0  0  0  0  0  0  0  0
   45.1790   29.9920   48.7780 O   0  0  0  0  0  0  0  0  0  0  0  0
   44.8540   29.8870   47.4400 C   0  0  0  0  0  3  0  0  0  0  0  0
   43.9030   30.3880   47.1570 H   0  0  0  0  0  0  0  0  0  0  0  0
   45.9350   30.6550   46.6670 C   0  0  0  0  0  3  0  0  0  0  0  0
   46.9520   30.4030   47.0460 H   0  0  0  0  0  0  0  0  0  0  0  0
   44.4500   35.4840   44.7680 C   0  0  0  0  0  0  0  0  0  0  0  0
   44.4210   35.1130   43.4170 C   0  0  0  0  0  0  0  0  0  0  0  0
   45.1620   34.0150   43.0430 C   0  0  0  0  0  0  0  0  0  0  0  0
   45.8810   33.3430   43.9770 N   0  0  0  0  0  0  0  0  0  0  0  0
   45.8890   33.7230   45.2620 C   0  0  0  0  0  0  0  0  0  0  0  0
   45.1750   34.7920   45.6620 N   0  0  0  0  0  0  0  0  0  0  0  0
   43.8930   36.3340   45.1250 H   0  0  0  0  0  0  0  0  0  0  0  0
   45.1200   33.7560   42.0080 H   0  0  0  0  0  0  0  0  0  0  0  0
   43.6220   35.9180   42.5770 N   0  0  0  0  0  0  0  0  0  0  0  0
   42.7350   35.4680   42.2160 H   0  0  0  0  0  0  0  0  0  0  0  0
   43.9950   36.8840   42.4000 H   0  0  0  0  0  0  0  0  0  0  0  0
  1  4  1  0  0  0  0
  1  3  1  0  0  0  0
  2  1  1  0  0  0  0
  4  5  1  0  0  0  0
  5  6  1  0  0  0  0
  5  7  1  0  0  0  0
  7  8  1  0  0  0  0
  9  7  1  0  0  0  0
 10  9  1  0  0  0  0
 11 10  1  0  0  0  0
 12  4  1  0  0  0  0
 12 13  1  0  0  0  0
 12 10  1  0  0  0  0
 14 20  1  0  0  0  0
 14 19  1  0  0  0  0
 15 14  2  0  0  0  0
 16 15  1  0  0  0  0
 16 17  2  0  0  0  0
 17 18  1  0  0  0  0
 18 19  2  0  0  0  0
 18  1  1  0  0  0  0
 21 16  1  0  0  0  0
 22 15  1  0  0  0  0
 23 22  1  0  0  0  0
 24 22  1  0  0  0  0
M  END
>  <minimizedAffinity>
-4.46556711

>  <minimizedRMSD>
0.91193074

$$$$
