
 OpenBabel03252507203D

 45 48  0  0  1  0  0  0  0  0999 V2000
   48.7650   31.6270   42.5920 C   0  0  0  0  0  0  0  0  0  0  0  0
   49.5600   32.6330   42.6480 O   0  0  0  0  0  0  0  0  0  0  0  0
   47.3670   31.7830   42.3560 N   0  0  0  0  0  0  0  0  0  0  0  0
   46.4820   31.0320   41.4540 C   0  0  0  0  0  0  0  0  0  0  0  0
   45.2750   30.5230   42.2360 C   0  0  0  0  0  0  0  0  0  0  0  0
   44.4580   31.7150   42.7030 C   0  0  0  0  0  0  0  0  0  0  0  0
   45.2620   32.9540   42.5750 C   0  0  0  0  0  0  0  0  0  0  0  0
   46.6780   32.8120   43.0710 C   0  0  1  0  0  0  0  0  0  0  0  0
   47.0620   30.0880   41.2360 H   0  0  0  0  0  0  0  0  0  0  0  0
   46.2370   31.5710   40.5470 H   0  0  0  0  0  0  0  0  0  0  0  0
   45.7010   29.9660   43.1030 H   0  0  0  0  0  0  0  0  0  0  0  0
   44.7270   29.8500   41.5560 H   0  0  0  0  0  0  0  0  0  0  0  0
   43.9480   31.5360   43.6450 H   0  0  0  0  0  0  0  0  0  0  0  0
   43.6320   31.7830   41.9360 H   0  0  0  0  0  0  0  0  0  0  0  0
   44.8080   33.8580   42.9730 H   0  0  0  0  0  0  0  0  0  0  0  0
   45.3700   33.1530   41.4660 H   0  0  0  0  0  0  0  0  0  0  0  0
   47.1730   33.7630   42.7700 H   0  0  0  0  0  0  0  0  0  0  0  0
   46.7460   32.7560   44.5640 C   0  0  0  0  0  3  0  0  0  0  0  0
   45.9130   33.7480   45.3170 C   0  0  0  0  0  3  0  0  0  0  0  0
   44.8890   33.6920   44.8600 H   0  0  0  0  0  0  0  0  0  0  0  0
   45.6650   33.2620   46.7540 C   0  0  0  0  0  3  0  0  0  0  0  0
   44.8530   32.5380   46.7760 H   0  0  0  0  0  0  0  0  0  0  0  0
   46.8430   32.7190   47.2190 O   0  0  0  0  0  0  0  0  0  0  0  0
   47.1280   31.4970   46.6150 C   0  0  0  0  0  3  0  0  0  0  0  0
   48.2440   31.4750   46.4790 H   0  0  0  0  0  0  0  0  0  0  0  0
   46.5550   31.4190   45.1890 C   0  0  0  0  0  3  0  0  0  0  0  0
   45.4980   31.1240   45.3300 H   0  0  0  0  0  0  0  0  0  0  0  0
   49.1340   29.6880   44.0130 C   0  0  0  0  0  0  0  0  0  0  0  0
   49.3020   30.3090   42.7720 C   0  0  0  0  0  0  0  0  0  0  0  0
   49.9770   29.6510   41.7710 C   0  0  0  0  0  0  0  0  0  0  0  0
   50.4550   28.4200   42.0220 N   0  0  0  0  0  0  0  0  0  0  0  0
   50.2960   27.8070   43.2270 C   0  0  0  0  0  0  0  0  0  0  0  0
   49.6400   28.4530   44.1930 N   0  0  0  0  0  0  0  0  0  0  0  0
   48.6190   30.1190   44.8590 H   0  0  0  0  0  0  0  0  0  0  0  0
   50.6980   26.7990   43.4070 H   0  0  0  0  0  0  0  0  0  0  0  0
   50.1430   30.3050   40.4900 C   0  0  0  0  0  0  0  0  0  0  0  0
   49.1790   30.1810   39.5200 C   0  0  0  0  0  0  0  0  0  0  0  0
   49.3600   30.8150   38.3110 C   0  0  0  0  0  0  0  0  0  0  0  0
   50.4720   31.5800   38.0160 C   0  0  0  0  0  0  0  0  0  0  0  0
   51.4040   31.6670   39.0290 C   0  0  0  0  0  0  0  0  0  0  0  0
   51.2150   31.0480   40.1930 N   0  0  0  0  0  0  0  0  0  0  0  0
   48.2800   29.6280   39.6000 H   0  0  0  0  0  0  0  0  0  0  0  0
   48.6180   30.7460   37.5040 H   0  0  0  0  0  0  0  0  0  0  0  0
   50.6380   32.0880   37.0770 H   0  0  0  0  0  0  0  0  0  0  0  0
   52.3230   32.2500   38.8940 H   0  0  0  0  0  0  0  0  0  0  0  0
  1  2  2  0  0  0  0
  1 29  1  0  0  0  0
  3  1  1  0  0  0  0
  3  8  1  0  0  0  0
  4  5  1  0  0  0  0
  4  3  1  0  0  0  0
  5  6  1  0  0  0  0
  5 11  1  0  0  0  0
  6 13  1  0  0  0  0
  7  6  1  0  0  0  0
  7 15  1  0  0  0  0
  7  8  1  0  0  0  0
  8 17  1  6  0  0  0
  8 18  1  0  0  0  0
  9  4  1  0  0  0  0
 10  4  1  0  0  0  0
 12  5  1  0  0  0  0
 14  6  1  0  0  0  0
 16  7  1  0  0  0  0
 18 26  1  0  0  0  0
 18 19  1  0  0  0  0
 19 21  1  0  0  0  0
 20 19  1  0  0  0  0
 21 22  1  0  0  0  0
 21 23  1  0  0  0  0
 24 23  1  0  0  0  0
 25 24  1  0  0  0  0
 26 27  1  0  0  0  0
 26 24  1  0  0  0  0
 28 33  1  0  0  0  0
 28 34  1  0  0  0  0
 29 28  2  0  0  0  0
 30 31  2  0  0  0  0
 30 29  1  0  0  0  0
 31 32  1  0  0  0  0
 32 35  1  0  0  0  0
 32 33  2  0  0  0  0
 36 30  1  0  0  0  0
 37 42  1  0  0  0  0
 37 36  2  0  0  0  0
 38 37  1  0  0  0  0
 39 38  2  0  0  0  0
 39 40  1  0  0  0  0
 40 41  2  0  0  0  0
 41 36  1  0  0  0  0
 43 38  1  0  0  0  0
 44 39  1  0  0  0  0
 45 40  1  0  0  0  0
M  END
>  <minimizedAffinity>
-3.52001238

>  <minimizedRMSD>
6.74463558

$$$$
