
 OpenBabel03252508153D

 38 41  0  0  1  0  0  0  0  0999 V2000
   46.0180   33.0740   46.0840 C   0  0  0  0  0  3  0  0  0  0  0  0
   46.8600   32.1780   45.7450 C   0  0  0  0  0  3  0  0  0  0  0  0
   44.4920   36.0090   44.4620 C   0  0  0  0  0  0  0  0  0  0  0  0
   45.0800   36.0260   43.2040 C   0  0  0  0  0  0  0  0  0  0  0  0
   45.9990   35.0270   42.9380 C   0  0  0  0  0  0  0  0  0  0  0  0
   46.2480   34.1320   43.9010 N   0  0  0  0  0  0  0  0  0  0  0  0
   45.6880   34.1120   45.1070 C   0  0  0  0  0  0  0  0  0  0  0  0
   44.8050   35.0780   45.3540 N   0  0  0  0  0  0  0  0  0  0  0  0
   43.7720   36.7790   44.6920 H   0  0  0  0  0  0  0  0  0  0  0  0
   44.8720   36.7460   42.4420 H   0  0  0  0  0  0  0  0  0  0  0  0
   46.7160   34.8890   41.6670 C   0  0  0  0  0  3  0  0  0  0  0  0
   46.9090   33.4150   41.2810 C   0  0  0  0  0  3  0  0  0  0  0  0
   47.6760   32.9480   41.9040 H   0  0  0  0  0  0  0  0  0  0  0  0
   47.3790   33.4530   39.8400 C   0  0  0  0  0  3  0  0  0  0  0  0
   47.9630   32.5470   39.6220 H   0  0  0  0  0  0  0  0  0  0  0  0
   47.9790   34.6430   39.5080 O   0  0  0  0  0  0  0  0  0  0  0  0
   48.8030   35.1810   40.4820 C   0  0  0  0  0  3  0  0  0  0  0  0
   49.1080   36.1890   40.0860 H   0  0  0  0  0  0  0  0  0  0  0  0
   48.1260   35.4330   41.7970 C   0  0  0  0  0  3  0  0  0  0  0  0
   48.6430   34.7940   42.5630 H   0  0  0  0  0  0  0  0  0  0  0  0
   47.1520   31.1280   46.8110 C   0  0  0  0  0  0  0  0  0  0  0  0
   48.1890   30.7800   46.7320 H   0  0  0  0  0  0  0  0  0  0  0  0
   46.4770   30.2840   46.5800 H   0  0  0  0  0  0  0  0  0  0  0  0
   46.7810   31.6680   48.1730 C   0  0  1  0  0  0  0  0  0  0  0  0
   46.2160   30.6840   49.1370 C   0  0  0  0  0  0  0  0  0  0  0  0
   47.5450   31.2190   49.3600 C   0  0  1  0  0  0  0  0  0  0  0  0
   46.3910   32.7020   48.1920 H   0  0  0  0  0  0  0  0  0  0  0  0
   46.1040   29.6250   48.8150 H   0  0  0  0  0  0  0  0  0  0  0  0
   45.3730   30.9920   49.8050 H   0  0  0  0  0  0  0  0  0  0  0  0
   47.6330   31.9800   50.1960 H   0  0  0  0  0  0  0  0  0  0  0  0
   48.8090   30.4780   49.1400 C   0  0  0  0  0  0  0  0  0  0  0  0
   49.6630   30.2640   50.4240 C   0  0  0  0  0  0  0  0  0  0  0  0
   50.1100   31.2690   49.4440 C   0  0  0  0  0  0  0  0  0  0  0  0
   48.8890   29.6970   48.3610 H   0  0  0  0  0  0  0  0  0  0  0  0
   49.2450   30.6480   51.3760 H   0  0  0  0  0  0  0  0  0  0  0  0
   50.2210   29.3020   50.4410 H   0  0  0  0  0  0  0  0  0  0  0  0
   49.9710   32.3450   49.6600 H   0  0  0  0  0  0  0  0  0  0  0  0
   50.9550   31.0750   48.7370 H   0  0  0  0  0  0  0  0  0  0  0  0
  2  1  2  0  0  0  0
  2 21  1  0  0  0  0
  3  9  1  0  0  0  0
  3  8  1  0  0  0  0
  4  3  2  0  0  0  0
  5  4  1  0  0  0  0
  5  6  2  0  0  0  0
  6  7  1  0  0  0  0
  7  8  2  0  0  0  0
  7  1  1  0  0  0  0
 10  4  1  0  0  0  0
 11 19  1  0  0  0  0
 11  5  1  0  0  0  0
 12 11  1  0  0  0  0
 12 13  1  0  0  0  0
 14 12  1  0  0  0  0
 15 14  1  0  0  0  0
 16 14  1  0  0  0  0
 16 17  1  0  0  0  0
 17 19  1  0  0  0  0
 18 17  1  0  0  0  0
 19 20  1  0  0  0  0
 21 24  1  0  0  0  0
 22 21  1  0  0  0  0
 23 21  1  0  0  0  0
 24 27  1  1  0  0  0
 24 25  1  0  0  0  0
 24 26  1  0  0  0  0
 25 26  1  0  0  0  0
 25 29  1  0  0  0  0
 26 30  1  1  0  0  0
 28 25  1  0  0  0  0
 31 26  1  0  0  0  0
 31 33  1  0  0  0  0
 31 32  1  0  0  0  0
 32 36  1  0  0  0  0
 32 35  1  0  0  0  0
 33 37  1  0  0  0  0
 33 32  1  0  0  0  0
 34 31  1  0  0  0  0
 38 33  1  0  0  0  0
M  END
>  <minimizedAffinity>
-5.82675123

>  <minimizedRMSD>
0.554611564

$$$$
