
 OpenBabel03242518183D

 24 25  0  0  0  0  0  0  0  0999 V2000
   46.6760   33.0310   46.3490 C   0  0  0  0  0  0  0  0  0  0  0  0
   47.4610   32.3530   45.9220 H   0  0  0  0  0  0  0  0  0  0  0  0
   47.1120   33.7340   47.0770 H   0  0  0  0  0  0  0  0  0  0  0  0
   45.7140   32.1440   47.0740 C   0  0  0  0  0  3  0  0  0  0  0  0
   45.8330   32.3450   48.5620 C   0  0  0  0  0  3  0  0  0  0  0  0
   46.8960   32.3710   48.8200 H   0  0  0  0  0  0  0  0  0  0  0  0
   45.0470   31.3260   49.3420 C   0  0  0  0  0  3  0  0  0  0  0  0
   45.4580   31.3200   50.3790 H   0  0  0  0  0  0  0  0  0  0  0  0
   45.1810   30.0420   48.8470 O   0  0  0  0  0  0  0  0  0  0  0  0
   44.8400   29.9320   47.5130 C   0  0  0  0  0  3  0  0  0  0  0  0
   43.8940   30.4430   47.2350 H   0  0  0  0  0  0  0  0  0  0  0  0
   45.9240   30.6790   46.7230 C   0  0  0  0  0  3  0  0  0  0  0  0
   46.9420   30.4150   47.0930 H   0  0  0  0  0  0  0  0  0  0  0  0
   44.4540   35.4640   44.7690 C   0  0  0  0  0  0  0  0  0  0  0  0
   44.4450   35.0900   43.4180 C   0  0  0  0  0  0  0  0  0  0  0  0
   45.2030   34.0010   43.0540 C   0  0  0  0  0  0  0  0  0  0  0  0
   45.9200   33.3400   43.9980 N   0  0  0  0  0  0  0  0  0  0  0  0
   45.9090   33.7220   45.2820 C   0  0  0  0  0  0  0  0  0  0  0  0
   45.1780   34.7830   45.6720 N   0  0  0  0  0  0  0  0  0  0  0  0
   43.8820   36.3070   45.1180 H   0  0  0  0  0  0  0  0  0  0  0  0
   45.1750   33.7390   42.0200 H   0  0  0  0  0  0  0  0  0  0  0  0
   43.6450   35.8840   42.5680 N   0  0  0  0  0  0  0  0  0  0  0  0
   42.7670   35.4220   42.1980 H   0  0  0  0  0  0  0  0  0  0  0  0
   44.0070   36.8530   42.3920 H   0  0  0  0  0  0  0  0  0  0  0  0
  1  4  1  0  0  0  0
  1  3  1  0  0  0  0
  2  1  1  0  0  0  0
  4  5  1  0  0  0  0
  5  6  1  0  0  0  0
  5  7  1  0  0  0  0
  7  8  1  0  0  0  0
  9  7  1  0  0  0  0
 10  9  1  0  0  0  0
 11 10  1  0  0  0  0
 12  4  1  0  0  0  0
 12 13  1  0  0  0  0
 12 10  1  0  0  0  0
 14 20  1  0  0  0  0
 14 19  1  0  0  0  0
 15 14  2  0  0  0  0
 16 15  1  0  0  0  0
 16 17  2  0  0  0  0
 17 18  1  0  0  0  0
 18 19  2  0  0  0  0
 18  1  1  0  0  0  0
 21 16  1  0  0  0  0
 22 15  1  0  0  0  0
 23 22  1  0  0  0  0
 24 22  1  0  0  0  0
M  END
>  <minimizedAffinity>
-4.47591209

>  <minimizedRMSD>
0.995022058

$$$$
