
 OpenBabel03242511593D

 42 45  0  0  1  0  0  0  0  0999 V2000
   36.7830   25.7520   41.3360 C   0  0  2  0  0  0  0  0  0  0  0  0
   37.0340   24.4110   41.9310 C   0  0  0  0  0  0  0  0  0  0  0  0
   37.6910   23.4660   40.9970 C   0  0  0  0  0  0  0  0  0  0  0  0
   36.9680   23.3210   39.6780 C   0  0  0  0  0  0  0  0  0  0  0  0
   36.4110   24.6190   39.1480 C   0  0  0  0  0  0  0  0  0  0  0  0
   36.9790   25.8200   39.8500 C   0  0  1  0  0  0  0  0  0  0  0  0
   35.7130   26.0040   41.6020 H   0  0  0  0  0  0  0  0  0  0  0  0
   36.1330   23.9070   42.3530 H   0  0  0  0  0  0  0  0  0  0  0  0
   37.7180   24.5490   42.7960 H   0  0  0  0  0  0  0  0  0  0  0  0
   38.7700   23.7040   40.8070 H   0  0  0  0  0  0  0  0  0  0  0  0
   37.6980   22.4560   41.4570 H   0  0  0  0  0  0  0  0  0  0  0  0
   37.7190   22.9590   38.9460 H   0  0  0  0  0  0  0  0  0  0  0  0
   36.1690   22.5350   39.7120 H   0  0  0  0  0  0  0  0  0  0  0  0
   35.3210   24.6120   39.3480 H   0  0  0  0  0  0  0  0  0  0  0  0
   36.6000   24.7710   38.0600 H   0  0  0  0  0  0  0  0  0  0  0  0
   38.0070   25.9690   39.5080 H   0  0  0  0  0  0  0  0  0  0  0  0
   37.5900   26.8120   41.9750 C   0  0  0  0  0  0  0  0  0  0  0  0
   36.9330   27.5050   42.9940 C   0  0  0  0  0  0  0  0  0  0  0  0
   37.5970   28.5330   43.6800 C   0  0  0  0  0  0  0  0  0  0  0  0
   38.9000   28.7860   43.2740 N   0  0  0  0  0  0  0  0  0  0  0  0
   39.5020   28.0940   42.2830 C   0  0  0  0  0  0  0  0  0  0  0  0
   38.8350   27.1150   41.6490 N   0  0  0  0  0  0  0  0  0  0  0  0
   35.9440   27.4460   43.4160 H   0  0  0  0  0  0  0  0  0  0  0  0
   37.2240   29.1500   44.4800 H   0  0  0  0  0  0  0  0  0  0  0  0
   40.5210   28.3710   42.0450 H   0  0  0  0  0  0  0  0  0  0  0  0
   36.2070   27.0290   39.3610 C   0  0  2  0  0  0  0  0  0  0  0  0
   36.1660   27.2720   37.8660 C   0  0  0  0  0  0  0  0  0  0  0  0
   36.8960   28.1960   38.7640 C   0  0  1  0  0  0  0  0  0  0  0  0
   35.3190   27.2690   39.9840 H   0  0  0  0  0  0  0  0  0  0  0  0
   35.1450   27.5270   37.5030 H   0  0  0  0  0  0  0  0  0  0  0  0
   36.7240   26.5410   37.2460 H   0  0  0  0  0  0  0  0  0  0  0  0
   38.0140   28.1720   38.6450 H   0  0  0  0  0  0  0  0  0  0  0  0
   36.3010   29.5660   38.8960 C   0  0  0  0  0  3  0  0  0  0  0  0
   35.8400   29.8990   40.2950 C   0  0  0  0  0  3  0  0  0  0  0  0
   35.4980   29.0480   40.8810 H   0  0  0  0  0  0  0  0  0  0  0  0
   36.9090   30.7290   40.9700 C   0  0  0  0  0  3  0  0  0  0  0  0
   37.9000   30.2370   40.9940 H   0  0  0  0  0  0  0  0  0  0  0  0
   36.9280   31.9890   40.3910 O   0  0  0  0  0  0  0  0  0  0  0  0
   36.9790   31.9680   39.0150 C   0  0  0  0  0  3  0  0  0  0  0  0
   36.0070   32.1820   38.5130 H   0  0  0  0  0  0  0  0  0  0  0  0
   37.3970   30.5800   38.5420 C   0  0  0  0  0  3  0  0  0  0  0  0
   37.5710   30.6430   37.4530 H   0  0  0  0  0  0  0  0  0  0  0  0
  1  7  1  1  0  0  0
  1  2  1  0  0  0  0
  1 17  1  0  0  0  0
  2  8  1  0  0  0  0
  2  9  1  0  0  0  0
  3 11  1  0  0  0  0
  3  2  1  0  0  0  0
  4 13  1  0  0  0  0
  4  3  1  0  0  0  0
  5 14  1  0  0  0  0
  5  4  1  0  0  0  0
  5  6  1  0  0  0  0
  6 16  1  6  0  0  0
  6  1  1  0  0  0  0
 10  3  1  0  0  0  0
 12  4  1  0  0  0  0
 15  5  1  0  0  0  0
 17 18  1  0  0  0  0
 18 23  1  0  0  0  0
 18 19  2  0  0  0  0
 19 24  1  0  0  0  0
 20 19  1  0  0  0  0
 21 20  2  0  0  0  0
 22 17  2  0  0  0  0
 22 21  1  0  0  0  0
 25 21  1  0  0  0  0
 26  6  1  0  0  0  0
 26 29  1  1  0  0  0
 27 28  1  0  0  0  0
 27 26  1  0  0  0  0
 28 32  1  6  0  0  0
 28 33  1  0  0  0  0
 28 26  1  0  0  0  0
 30 27  1  0  0  0  0
 31 27  1  0  0  0  0
 33 34  1  0  0  0  0
 34 35  1  0  0  0  0
 34 36  1  0  0  0  0
 36 37  1  0  0  0  0
 38 36  1  0  0  0  0
 39 38  1  0  0  0  0
 40 39  1  0  0  0  0
 41 33  1  0  0  0  0
 41 39  1  0  0  0  0
 42 41  1  0  0  0  0
M  END
>  <minimizedAffinity>
-5.50830317

$$$$

 OpenBabel03242511593D

 42 45  0  0  1  0  0  0  0  0999 V2000
   37.2930   29.4010   41.6950 C   0  0  2  0  0  0  0  0  0  0  0  0
   38.0000   29.3230   43.0030 C   0  0  0  0  0  0  0  0  0  0  0  0
   38.7680   28.0670   43.1820 C   0  0  0  0  0  0  0  0  0  0  0  0
   37.9440   26.8190   42.9640 C   0  0  0  0  0  0  0  0  0  0  0  0
   36.9690   26.9330   41.8180 C   0  0  0  0  0  0  0  0  0  0  0  0
   37.2560   28.1100   40.9290 C   0  0  1  0  0  0  0  0  0  0  0  0
   36.2430   29.7410   41.9390 H   0  0  0  0  0  0  0  0  0  0  0  0
   37.3490   29.4590   43.8980 H   0  0  0  0  0  0  0  0  0  0  0  0
   38.7260   30.1630   43.0440 H   0  0  0  0  0  0  0  0  0  0  0  0
   39.6950   28.0180   42.5550 H   0  0  0  0  0  0  0  0  0  0  0  0
   39.1290   28.0180   44.2310 H   0  0  0  0  0  0  0  0  0  0  0  0
   38.6600   26.0110   42.7110 H   0  0  0  0  0  0  0  0  0  0  0  0
   37.4190   26.4840   43.8950 H   0  0  0  0  0  0  0  0  0  0  0  0
   35.9650   27.0960   42.2590 H   0  0  0  0  0  0  0  0  0  0  0  0
   36.9550   26.0350   41.1570 H   0  0  0  0  0  0  0  0  0  0  0  0
   38.1400   27.8840   40.3280 H   0  0  0  0  0  0  0  0  0  0  0  0
   37.8380   30.4600   40.8220 C   0  0  0  0  0  0  0  0  0  0  0  0
   36.9970   31.5620   40.6520 C   0  0  0  0  0  0  0  0  0  0  0  0
   37.4060   32.6360   39.8480 C   0  0  0  0  0  0  0  0  0  0  0  0
   38.6590   32.5100   39.2640 N   0  0  0  0  0  0  0  0  0  0  0  0
   39.4450   31.4280   39.4510 C   0  0  0  0  0  0  0  0  0  0  0  0
   39.0200   30.4180   40.2290 N   0  0  0  0  0  0  0  0  0  0  0  0
   36.0130   31.8080   41.0140 H   0  0  0  0  0  0  0  0  0  0  0  0
   36.8710   33.5440   39.6260 H   0  0  0  0  0  0  0  0  0  0  0  0
   40.4040   31.4310   38.9500 H   0  0  0  0  0  0  0  0  0  0  0  0
   36.1080   28.2170   39.9450 C   0  0  2  0  0  0  0  0  0  0  0  0
   36.0150   27.1590   38.8650 C   0  0  0  0  0  0  0  0  0  0  0  0
   36.3380   28.5630   38.5250 C   0  0  1  0  0  0  0  0  0  0  0  0
   35.1800   28.6330   40.3920 H   0  0  0  0  0  0  0  0  0  0  0  0
   34.9800   26.7710   38.7360 H   0  0  0  0  0  0  0  0  0  0  0  0
   36.8140   26.3900   38.8770 H   0  0  0  0  0  0  0  0  0  0  0  0
   37.3900   28.7220   38.1620 H   0  0  0  0  0  0  0  0  0  0  0  0
   35.2830   29.2940   37.7510 C   0  0  0  0  0  3  0  0  0  0  0  0
   35.4390   29.1840   36.2520 C   0  0  0  0  0  3  0  0  0  0  0  0
   36.4650   29.0830   35.9030 H   0  0  0  0  0  0  0  0  0  0  0  0
   34.5030   28.1080   35.7480 C   0  0  0  0  0  3  0  0  0  0  0  0
   34.6610   27.1240   36.2300 H   0  0  0  0  0  0  0  0  0  0  0  0
   33.1990   28.5710   35.8450 O   0  0  0  0  0  0  0  0  0  0  0  0
   32.8850   29.0950   37.0790 C   0  0  0  0  0  3  0  0  0  0  0  0
   32.8660   30.2090   37.1170 H   0  0  0  0  0  0  0  0  0  0  0  0
   33.9310   28.6590   38.0990 C   0  0  0  0  0  3  0  0  0  0  0  0
   33.5680   28.9690   39.0940 H   0  0  0  0  0  0  0  0  0  0  0  0
  1  7  1  1  0  0  0
  1  2  1  0  0  0  0
  2  9  1  0  0  0  0
  2  3  1  0  0  0  0
  2  8  1  0  0  0  0
  3 11  1  0  0  0  0
  4  3  1  0  0  0  0
  4 13  1  0  0  0  0
  5 14  1  0  0  0  0
  5  4  1  0  0  0  0
  6 16  1  6  0  0  0
  6  1  1  0  0  0  0
  6  5  1  0  0  0  0
 10  3  1  0  0  0  0
 12  4  1  0  0  0  0
 15  5  1  0  0  0  0
 17  1  1  0  0  0  0
 18 17  1  0  0  0  0
 18 23  1  0  0  0  0
 19 18  2  0  0  0  0
 20 21  2  0  0  0  0
 20 19  1  0  0  0  0
 21 22  1  0  0  0  0
 22 17  2  0  0  0  0
 24 19  1  0  0  0  0
 25 21  1  0  0  0  0
 26 29  1  1  0  0  0
 26  6  1  0  0  0  0
 27 31  1  0  0  0  0
 27 26  1  0  0  0  0
 28 32  1  6  0  0  0
 28 27  1  0  0  0  0
 28 26  1  0  0  0  0
 30 27  1  0  0  0  0
 33 41  1  0  0  0  0
 33 28  1  0  0  0  0
 34 33  1  0  0  0  0
 35 34  1  0  0  0  0
 36 38  1  0  0  0  0
 36 37  1  0  0  0  0
 36 34  1  0  0  0  0
 38 39  1  0  0  0  0
 39 40  1  0  0  0  0
 39 41  1  0  0  0  0
 41 42  1  0  0  0  0
M  END
>  <minimizedAffinity>
-5.36302757

$$$$

 OpenBabel03242511593D

 42 45  0  0  1  0  0  0  0  0999 V2000
   37.6050   29.7360   38.2630 C   0  0  2  0  0  0  0  0  0  0  0  0
   37.3310   29.8200   36.8030 C   0  0  0  0  0  0  0  0  0  0  0  0
   35.8970   29.6580   36.4630 C   0  0  0  0  0  0  0  0  0  0  0  0
   35.2800   28.4020   37.0340 C   0  0  0  0  0  0  0  0  0  0  0  0
   35.7500   28.0800   38.4310 C   0  0  0  0  0  0  0  0  0  0  0  0
   36.4530   29.2360   39.0850 C   0  0  1  0  0  0  0  0  0  0  0  0
   38.4900   29.0390   38.3640 H   0  0  0  0  0  0  0  0  0  0  0  0
   37.9160   29.1100   36.1720 H   0  0  0  0  0  0  0  0  0  0  0  0
   37.6390   30.8310   36.4600 H   0  0  0  0  0  0  0  0  0  0  0  0
   35.2690   30.5440   36.7420 H   0  0  0  0  0  0  0  0  0  0  0  0
   35.7990   29.5750   35.3600 H   0  0  0  0  0  0  0  0  0  0  0  0
   34.1870   28.5860   37.0870 H   0  0  0  0  0  0  0  0  0  0  0  0
   35.4100   27.5160   36.3610 H   0  0  0  0  0  0  0  0  0  0  0  0
   36.4890   27.2580   38.3440 H   0  0  0  0  0  0  0  0  0  0  0  0
   34.9250   27.7820   39.1190 H   0  0  0  0  0  0  0  0  0  0  0  0
   35.7060   29.9820   39.3670 H   0  0  0  0  0  0  0  0  0  0  0  0
   38.0720   31.0200   38.8240 C   0  0  0  0  0  0  0  0  0  0  0  0
   37.0840   32.0010   38.9270 C   0  0  0  0  0  0  0  0  0  0  0  0
   37.4020   33.2630   39.4480 C   0  0  0  0  0  0  0  0  0  0  0  0
   38.7250   33.4410   39.8330 N   0  0  0  0  0  0  0  0  0  0  0  0
   39.6540   32.4670   39.7180 C   0  0  0  0  0  0  0  0  0  0  0  0
   39.3100   31.2700   39.2140 N   0  0  0  0  0  0  0  0  0  0  0  0
   36.0380   32.0330   38.6690 H   0  0  0  0  0  0  0  0  0  0  0  0
   36.7530   34.1110   39.5880 H   0  0  0  0  0  0  0  0  0  0  0  0
   40.6550   32.7100   40.0480 H   0  0  0  0  0  0  0  0  0  0  0  0
   37.0340   28.7250   40.3890 C   0  0  2  0  0  0  0  0  0  0  0  0
   36.0600   28.3700   41.4940 C   0  0  0  0  0  0  0  0  0  0  0  0
   36.9710   29.5300   41.6290 C   0  0  1  0  0  0  0  0  0  0  0  0
   37.9600   28.1270   40.2560 H   0  0  0  0  0  0  0  0  0  0  0  0
   36.3040   27.4010   41.9820 H   0  0  0  0  0  0  0  0  0  0  0  0
   34.9880   28.5290   41.2580 H   0  0  0  0  0  0  0  0  0  0  0  0
   36.4560   30.5290   41.6110 H   0  0  0  0  0  0  0  0  0  0  0  0
   38.0410   29.3870   42.6710 C   0  0  0  0  0  3  0  0  0  0  0  0
   37.7730   28.2900   43.6740 C   0  0  0  0  0  3  0  0  0  0  0  0
   36.7200   28.1000   43.8780 H   0  0  0  0  0  0  0  0  0  0  0  0
   38.5570   27.0620   43.2670 C   0  0  0  0  0  3  0  0  0  0  0  0
   38.3330   26.7150   42.2410 H   0  0  0  0  0  0  0  0  0  0  0  0
   39.9060   27.3010   43.4900 O   0  0  0  0  0  0  0  0  0  0  0  0
   40.3550   28.4910   42.9600 C   0  0  0  0  0  3  0  0  0  0  0  0
   40.4900   29.3070   43.7070 H   0  0  0  0  0  0  0  0  0  0  0  0
   39.3410   29.0130   41.9480 C   0  0  0  0  0  3  0  0  0  0  0  0
   39.8010   29.8790   41.4410 H   0  0  0  0  0  0  0  0  0  0  0  0
  1  7  1  1  0  0  0
  1 17  1  0  0  0  0
  1  6  1  0  0  0  0
  2  1  1  0  0  0  0
  3 10  1  0  0  0  0
  3  2  1  0  0  0  0
  3  4  1  0  0  0  0
  4 12  1  0  0  0  0
  4  5  1  0  0  0  0
  5  6  1  0  0  0  0
  5 15  1  0  0  0  0
  6 16  1  1  0  0  0
  6 26  1  0  0  0  0
  8  2  1  0  0  0  0
  9  2  1  0  0  0  0
 11  3  1  0  0  0  0
 13  4  1  0  0  0  0
 14  5  1  0  0  0  0
 17 18  2  0  0  0  0
 17 22  1  0  0  0  0
 18 19  1  0  0  0  0
 19 24  1  0  0  0  0
 19 20  2  0  0  0  0
 21 20  1  0  0  0  0
 21 25  1  0  0  0  0
 22 21  2  0  0  0  0
 23 18  1  0  0  0  0
 26 29  1  6  0  0  0
 26 27  1  0  0  0  0
 26 28  1  0  0  0  0
 27 28  1  0  0  0  0
 27 30  1  0  0  0  0
 28 32  1  6  0  0  0
 28 33  1  0  0  0  0
 31 27  1  0  0  0  0
 33 34  1  0  0  0  0
 34 35  1  0  0  0  0
 36 38  1  0  0  0  0
 36 34  1  0  0  0  0
 37 36  1  0  0  0  0
 39 38  1  0  0  0  0
 39 40  1  0  0  0  0
 41 33  1  0  0  0  0
 41 39  1  0  0  0  0
 42 41  1  0  0  0  0
M  END
>  <minimizedAffinity>
-5.32063246

$$$$

 OpenBabel03242511593D

 42 45  0  0  1  0  0  0  0  0999 V2000
   36.1420   29.6610   40.3060 C   0  0  2  0  0  0  0  0  0  0  0  0
   34.8010   29.1360   39.9320 C   0  0  0  0  0  0  0  0  0  0  0  0
   34.7690   28.5050   38.5900 C   0  0  0  0  0  0  0  0  0  0  0  0
   35.3010   29.3980   37.4920 C   0  0  0  0  0  0  0  0  0  0  0  0
   36.5070   30.2060   37.9020 C   0  0  0  0  0  0  0  0  0  0  0  0
   37.1290   29.7100   39.1760 C   0  0  1  0  0  0  0  0  0  0  0  0
   35.9570   30.7010   40.7080 H   0  0  0  0  0  0  0  0  0  0  0  0
   33.9730   29.8800   39.9820 H   0  0  0  0  0  0  0  0  0  0  0  0
   34.5280   28.3520   40.6700 H   0  0  0  0  0  0  0  0  0  0  0  0
   35.2890   27.5140   38.5500 H   0  0  0  0  0  0  0  0  0  0  0  0
   33.7140   28.2860   38.3240 H   0  0  0  0  0  0  0  0  0  0  0  0
   35.6160   28.7260   36.6670 H   0  0  0  0  0  0  0  0  0  0  0  0
   34.5090   30.0630   37.0600 H   0  0  0  0  0  0  0  0  0  0  0  0
   36.1560   31.2400   38.0930 H   0  0  0  0  0  0  0  0  0  0  0  0
   37.3180   30.2120   37.1360 H   0  0  0  0  0  0  0  0  0  0  0  0
   37.6610   28.7790   38.9640 H   0  0  0  0  0  0  0  0  0  0  0  0
   36.7430   28.9220   41.4350 C   0  0  0  0  0  0  0  0  0  0  0  0
   36.7860   27.5370   41.2630 C   0  0  0  0  0  0  0  0  0  0  0  0
   37.3370   26.7240   42.2650 C   0  0  0  0  0  0  0  0  0  0  0  0
   37.8120   27.3890   43.3870 N   0  0  0  0  0  0  0  0  0  0  0  0
   37.7530   28.7320   43.5180 C   0  0  0  0  0  0  0  0  0  0  0  0
   37.2170   29.4780   42.5360 N   0  0  0  0  0  0  0  0  0  0  0  0
   36.4580   26.8740   40.4790 H   0  0  0  0  0  0  0  0  0  0  0  0
   37.4380   25.6530   42.2740 H   0  0  0  0  0  0  0  0  0  0  0  0
   38.1510   29.1500   44.4330 H   0  0  0  0  0  0  0  0  0  0  0  0
   38.1970   30.7110   39.5700 C   0  0  2  0  0  0  0  0  0  0  0  0
   37.7620   32.1450   39.7890 C   0  0  0  0  0  0  0  0  0  0  0  0
   38.6300   31.7830   38.6450 C   0  0  1  0  0  0  0  0  0  0  0  0
   39.0010   30.2750   40.2010 H   0  0  0  0  0  0  0  0  0  0  0  0
   38.2000   32.5880   40.7110 H   0  0  0  0  0  0  0  0  0  0  0  0
   36.6840   32.3490   39.6270 H   0  0  0  0  0  0  0  0  0  0  0  0
   38.1340   31.8740   37.6400 H   0  0  0  0  0  0  0  0  0  0  0  0
   40.0310   32.3100   38.7110 C   0  0  0  0  0  3  0  0  0  0  0  0
   40.9470   31.5000   39.5980 C   0  0  0  0  0  3  0  0  0  0  0  0
   40.4580   31.0140   40.4420 H   0  0  0  0  0  0  0  0  0  0  0  0
   41.7600   30.5670   38.7300 C   0  0  0  0  0  3  0  0  0  0  0  0
   41.1410   29.9010   38.0970 H   0  0  0  0  0  0  0  0  0  0  0  0
   42.6820   31.3150   38.0120 O   0  0  0  0  0  0  0  0  0  0  0  0
   42.1330   32.3990   37.3620 C   0  0  0  0  0  3  0  0  0  0  0  0
   42.3150   33.3780   37.8610 H   0  0  0  0  0  0  0  0  0  0  0  0
   40.6180   32.2390   37.2950 C   0  0  0  0  0  3  0  0  0  0  0  0
   40.2320   33.0420   36.6430 H   0  0  0  0  0  0  0  0  0  0  0  0
  1  7  1  1  0  0  0
  1 17  1  0  0  0  0
  2  8  1  0  0  0  0
  2  1  1  0  0  0  0
  2  9  1  0  0  0  0
  3  2  1  0  0  0  0
  4  5  1  0  0  0  0
  4  3  1  0  0  0  0
  5 14  1  0  0  0  0
  5  6  1  0  0  0  0
  6 16  1  6  0  0  0
  6 26  1  0  0  0  0
  6  1  1  0  0  0  0
 10  3  1  0  0  0  0
 11  3  1  0  0  0  0
 12  4  1  0  0  0  0
 13  4  1  0  0  0  0
 15  5  1  0  0  0  0
 17 22  1  0  0  0  0
 18 17  2  0  0  0  0
 18 19  1  0  0  0  0
 19 24  1  0  0  0  0
 19 20  2  0  0  0  0
 20 21  1  0  0  0  0
 21 25  1  0  0  0  0
 22 21  2  0  0  0  0
 23 18  1  0  0  0  0
 26 27  1  0  0  0  0
 26 29  1  1  0  0  0
 27 30  1  0  0  0  0
 28 32  1  6  0  0  0
 28 33  1  0  0  0  0
 28 26  1  0  0  0  0
 28 27  1  0  0  0  0
 31 27  1  0  0  0  0
 33 34  1  0  0  0  0
 34 35  1  0  0  0  0
 36 34  1  0  0  0  0
 37 36  1  0  0  0  0
 38 36  1  0  0  0  0
 39 40  1  0  0  0  0
 39 38  1  0  0  0  0
 41 39  1  0  0  0  0
 41 33  1  0  0  0  0
 42 41  1  0  0  0  0
M  END
>  <minimizedAffinity>
-5.27874899

$$$$

 OpenBabel03242511593D

 42 45  0  0  1  0  0  0  0  0999 V2000
   37.8870   27.7540   40.8490 C   0  0  2  0  0  0  0  0  0  0  0  0
   38.0060   26.4400   41.5400 C   0  0  0  0  0  0  0  0  0  0  0  0
   36.9490   26.2120   42.5550 C   0  0  0  0  0  0  0  0  0  0  0  0
   36.8400   27.3240   43.5720 C   0  0  0  0  0  0  0  0  0  0  0  0
   37.0130   28.7020   42.9820 C   0  0  0  0  0  0  0  0  0  0  0  0
   36.9140   28.7040   41.4820 C   0  0  1  0  0  0  0  0  0  0  0  0
   38.9280   28.1950   40.8600 H   0  0  0  0  0  0  0  0  0  0  0  0
   38.9930   26.2500   42.0210 H   0  0  0  0  0  0  0  0  0  0  0  0
   37.9020   25.6450   40.7710 H   0  0  0  0  0  0  0  0  0  0  0  0
   35.9400   26.0100   42.1110 H   0  0  0  0  0  0  0  0  0  0  0  0
   37.1980   25.2940   43.1270 H   0  0  0  0  0  0  0  0  0  0  0  0
   35.8130   27.2690   43.9880 H   0  0  0  0  0  0  0  0  0  0  0  0
   37.5320   27.1790   44.4420 H   0  0  0  0  0  0  0  0  0  0  0  0
   38.0370   29.0400   43.2400 H   0  0  0  0  0  0  0  0  0  0  0  0
   36.2620   29.4390   43.3490 H   0  0  0  0  0  0  0  0  0  0  0  0
   35.8650   28.5730   41.2030 H   0  0  0  0  0  0  0  0  0  0  0  0
   37.5530   27.6090   39.4170 C   0  0  0  0  0  0  0  0  0  0  0  0
   36.2520   27.1700   39.1670 C   0  0  0  0  0  0  0  0  0  0  0  0
   35.8140   26.9980   37.8460 C   0  0  0  0  0  0  0  0  0  0  0  0
   36.7460   27.2890   36.8580 N   0  0  0  0  0  0  0  0  0  0  0  0
   37.9970   27.7110   37.1400 C   0  0  0  0  0  0  0  0  0  0  0  0
   38.3810   27.8650   38.4180 N   0  0  0  0  0  0  0  0  0  0  0  0
   35.4250   26.8950   39.8010 H   0  0  0  0  0  0  0  0  0  0  0  0
   34.8480   26.6700   37.5000 H   0  0  0  0  0  0  0  0  0  0  0  0
   38.6450   27.9100   36.2950 H   0  0  0  0  0  0  0  0  0  0  0  0
   37.2910   30.0950   41.0130 C   0  0  2  0  0  0  0  0  0  0  0  0
   36.2150   31.1610   41.0550 C   0  0  0  0  0  0  0  0  0  0  0  0
   36.7390   30.6640   39.7630 C   0  0  1  0  0  0  0  0  0  0  0  0
   38.3450   30.3660   41.2340 H   0  0  0  0  0  0  0  0  0  0  0  0
   36.5820   32.1210   41.4810 H   0  0  0  0  0  0  0  0  0  0  0  0
   35.2220   30.8260   41.4190 H   0  0  0  0  0  0  0  0  0  0  0  0
   36.0020   30.0620   39.1630 H   0  0  0  0  0  0  0  0  0  0  0  0
   37.5400   31.6550   38.9720 C   0  0  0  0  0  3  0  0  0  0  0  0
   37.3240   33.0890   39.3930 C   0  0  0  0  0  3  0  0  0  0  0  0
   36.3320   33.3090   39.7840 H   0  0  0  0  0  0  0  0  0  0  0  0
   38.4570   33.4990   40.3070 C   0  0  0  0  0  3  0  0  0  0  0  0
   38.5680   32.8460   41.1930 H   0  0  0  0  0  0  0  0  0  0  0  0
   39.6170   33.6160   39.5550 O   0  0  0  0  0  0  0  0  0  0  0  0
   39.8720   32.5260   38.7520 C   0  0  0  0  0  3  0  0  0  0  0  0
   39.6260   32.6780   37.6760 H   0  0  0  0  0  0  0  0  0  0  0  0
   39.0240   31.3450   39.2120 C   0  0  0  0  0  3  0  0  0  0  0  0
   39.3620   30.4590   38.6480 H   0  0  0  0  0  0  0  0  0  0  0  0
  1  7  1  1  0  0  0
  1  6  1  0  0  0  0
  1  2  1  0  0  0  0
  2  8  1  0  0  0  0
  2  3  1  0  0  0  0
  3 11  1  0  0  0  0
  3  4  1  0  0  0  0
  4 12  1  0  0  0  0
  4 13  1  0  0  0  0
  5 14  1  0  0  0  0
  5 15  1  0  0  0  0
  5  4  1  0  0  0  0
  6 16  1  6  0  0  0
  6  5  1  0  0  0  0
  9  2  1  0  0  0  0
 10  3  1  0  0  0  0
 17  1  1  0  0  0  0
 18 17  1  0  0  0  0
 18 23  1  0  0  0  0
 19 18  2  0  0  0  0
 20 21  2  0  0  0  0
 20 19  1  0  0  0  0
 21 22  1  0  0  0  0
 22 17  2  0  0  0  0
 24 19  1  0  0  0  0
 25 21  1  0  0  0  0
 26 27  1  0  0  0  0
 26 29  1  1  0  0  0
 26  6  1  0  0  0  0
 27 31  1  0  0  0  0
 27 30  1  0  0  0  0
 28 32  1  6  0  0  0
 28 26  1  0  0  0  0
 28 27  1  0  0  0  0
 33 41  1  0  0  0  0
 33 34  1  0  0  0  0
 33 28  1  0  0  0  0
 34 35  1  0  0  0  0
 34 36  1  0  0  0  0
 36 37  1  0  0  0  0
 38 36  1  0  0  0  0
 39 41  1  0  0  0  0
 39 38  1  0  0  0  0
 40 39  1  0  0  0  0
 42 41  1  0  0  0  0
M  END
>  <minimizedAffinity>
-5.21990728

$$$$

 OpenBabel03242511593D

 42 45  0  0  1  0  0  0  0  0999 V2000
   37.6020   26.5000   40.1310 C   0  0  2  0  0  0  0  0  0  0  0  0
   37.2210   25.3070   39.3260 C   0  0  0  0  0  0  0  0  0  0  0  0
   36.1990   24.4570   39.9820 C   0  0  0  0  0  0  0  0  0  0  0  0
   36.5740   24.0360   41.3850 C   0  0  0  0  0  0  0  0  0  0  0  0
   37.2530   25.1240   42.1800 C   0  0  0  0  0  0  0  0  0  0  0  0
   37.1050   26.4790   41.5470 C   0  0  1  0  0  0  0  0  0  0  0  0
   38.7320   26.5270   40.1130 H   0  0  0  0  0  0  0  0  0  0  0  0
   38.0720   24.6530   39.0240 H   0  0  0  0  0  0  0  0  0  0  0  0
   36.7840   25.6710   38.3710 H   0  0  0  0  0  0  0  0  0  0  0  0
   35.1760   24.9130   39.9890 H   0  0  0  0  0  0  0  0  0  0  0  0
   36.0890   23.5190   39.3990 H   0  0  0  0  0  0  0  0  0  0  0  0
   35.6250   23.7900   41.9030 H   0  0  0  0  0  0  0  0  0  0  0  0
   37.1860   23.0970   41.4010 H   0  0  0  0  0  0  0  0  0  0  0  0
   38.3360   24.8890   42.1950 H   0  0  0  0  0  0  0  0  0  0  0  0
   36.8670   25.2180   43.2210 H   0  0  0  0  0  0  0  0  0  0  0  0
   36.0800   26.8250   41.7010 H   0  0  0  0  0  0  0  0  0  0  0  0
   37.1850   27.7660   39.4950 C   0  0  0  0  0  0  0  0  0  0  0  0
   35.8250   28.0560   39.6200 C   0  0  0  0  0  0  0  0  0  0  0  0
   35.3070   29.2340   39.0610 C   0  0  0  0  0  0  0  0  0  0  0  0
   36.2230   30.0440   38.4050 N   0  0  0  0  0  0  0  0  0  0  0  0
   37.5330   29.7300   38.3040 C   0  0  0  0  0  0  0  0  0  0  0  0
   37.9930   28.5920   38.8530 N   0  0  0  0  0  0  0  0  0  0  0  0
   34.9930   27.5430   40.0750 H   0  0  0  0  0  0  0  0  0  0  0  0
   34.2900   29.5880   39.0760 H   0  0  0  0  0  0  0  0  0  0  0  0
   38.1620   30.4310   37.7720 H   0  0  0  0  0  0  0  0  0  0  0  0
   37.9810   27.4360   42.3330 C   0  0  2  0  0  0  0  0  0  0  0  0
   37.4600   27.9180   43.6720 C   0  0  0  0  0  0  0  0  0  0  0  0
   37.5950   28.8510   42.5300 C   0  0  1  0  0  0  0  0  0  0  0  0
   39.0680   27.2540   42.1970 H   0  0  0  0  0  0  0  0  0  0  0  0
   38.2370   27.8850   44.4680 H   0  0  0  0  0  0  0  0  0  0  0  0
   36.4610   27.5350   43.9630 H   0  0  0  0  0  0  0  0  0  0  0  0
   36.6170   29.2170   42.1120 H   0  0  0  0  0  0  0  0  0  0  0  0
   38.6520   29.9020   42.6830 C   0  0  0  0  0  3  0  0  0  0  0  0
   40.0610   29.3760   42.5390 C   0  0  0  0  0  3  0  0  0  0  0  0
   40.2020   28.3460   42.8620 H   0  0  0  0  0  0  0  0  0  0  0  0
   40.5410   29.6590   41.1340 C   0  0  0  0  0  3  0  0  0  0  0  0
   39.8860   29.2340   40.3500 H   0  0  0  0  0  0  0  0  0  0  0  0
   40.7540   31.0240   41.0010 O   0  0  0  0  0  0  0  0  0  0  0  0
   39.6960   31.7950   41.4300 C   0  0  0  0  0  3  0  0  0  0  0  0
   39.8450   32.2680   42.4290 H   0  0  0  0  0  0  0  0  0  0  0  0
   38.4500   30.9270   41.5580 C   0  0  0  0  0  3  0  0  0  0  0  0
   37.5990   31.6010   41.7560 H   0  0  0  0  0  0  0  0  0  0  0  0
  1  7  1  1  0  0  0
  1  6  1  0  0  0  0
  2  3  1  0  0  0  0
  2  1  1  0  0  0  0
  3 10  1  0  0  0  0
  3  4  1  0  0  0  0
  4 13  1  0  0  0  0
  4 12  1  0  0  0  0
  4  5  1  0  0  0  0
  5 14  1  0  0  0  0
  5 15  1  0  0  0  0
  6 16  1  1  0  0  0
  6  5  1  0  0  0  0
  6 26  1  0  0  0  0
  8  2  1  0  0  0  0
  9  2  1  0  0  0  0
 11  3  1  0  0  0  0
 17 18  1  0  0  0  0
 17  1  1  0  0  0  0
 18 23  1  0  0  0  0
 19 24  1  0  0  0  0
 19 18  2  0  0  0  0
 20 19  1  0  0  0  0
 21 20  2  0  0  0  0
 21 22  1  0  0  0  0
 22 17  2  0  0  0  0
 25 21  1  0  0  0  0
 26 29  1  6  0  0  0
 26 28  1  0  0  0  0
 26 27  1  0  0  0  0
 27 31  1  0  0  0  0
 27 30  1  0  0  0  0
 28 32  1  6  0  0  0
 28 33  1  0  0  0  0
 28 27  1  0  0  0  0
 34 33  1  0  0  0  0
 34 35  1  0  0  0  0
 36 34  1  0  0  0  0
 37 36  1  0  0  0  0
 38 36  1  0  0  0  0
 38 39  1  0  0  0  0
 39 41  1  0  0  0  0
 39 40  1  0  0  0  0
 41 42  1  0  0  0  0
 41 33  1  0  0  0  0
M  END
>  <minimizedAffinity>
-5.15223837

$$$$

 OpenBabel03242511593D

 42 45  0  0  1  0  0  0  0  0999 V2000
   37.4800   29.3100   42.0420 C   0  0  2  0  0  0  0  0  0  0  0  0
   37.7230   28.8740   43.4440 C   0  0  0  0  0  0  0  0  0  0  0  0
   38.3220   27.5210   43.5440 C   0  0  0  0  0  0  0  0  0  0  0  0
   37.5440   26.4600   42.7990 C   0  0  0  0  0  0  0  0  0  0  0  0
   36.9980   26.9320   41.4740 C   0  0  0  0  0  0  0  0  0  0  0  0
   37.6200   28.2210   41.0180 C   0  0  1  0  0  0  0  0  0  0  0  0
   36.4280   29.7230   42.0330 H   0  0  0  0  0  0  0  0  0  0  0  0
   36.8280   28.9040   44.1080 H   0  0  0  0  0  0  0  0  0  0  0  0
   38.4430   29.5880   43.8990 H   0  0  0  0  0  0  0  0  0  0  0  0
   39.3970   27.4850   43.2320 H   0  0  0  0  0  0  0  0  0  0  0  0
   38.3230   27.2100   44.6100 H   0  0  0  0  0  0  0  0  0  0  0  0
   38.2580   25.6370   42.5900 H   0  0  0  0  0  0  0  0  0  0  0  0
   36.7300   26.0090   43.4230 H   0  0  0  0  0  0  0  0  0  0  0  0
   35.9160   27.1270   41.6190 H   0  0  0  0  0  0  0  0  0  0  0  0
   37.1470   26.1990   40.6470 H   0  0  0  0  0  0  0  0  0  0  0  0
   38.6370   28.0140   40.6750 H   0  0  0  0  0  0  0  0  0  0  0  0
   38.3350   30.4490   41.6500 C   0  0  0  0  0  0  0  0  0  0  0  0
   39.6890   30.2860   41.9490 C   0  0  0  0  0  0  0  0  0  0  0  0
   40.6040   31.2980   41.6220 C   0  0  0  0  0  0  0  0  0  0  0  0
   40.0670   32.4200   41.0040 N   0  0  0  0  0  0  0  0  0  0  0  0
   38.7500   32.5410   40.7310 C   0  0  0  0  0  0  0  0  0  0  0  0
   37.9040   31.5500   41.0590 N   0  0  0  0  0  0  0  0  0  0  0  0
   40.2570   29.5040   42.4250 H   0  0  0  0  0  0  0  0  0  0  0  0
   41.6680   31.3160   41.7880 H   0  0  0  0  0  0  0  0  0  0  0  0
   38.4360   33.4570   40.2470 H   0  0  0  0  0  0  0  0  0  0  0  0
   36.8570   28.6740   39.7890 C   0  0  2  0  0  0  0  0  0  0  0  0
   35.3870   28.9970   39.9610 C   0  0  0  0  0  0  0  0  0  0  0  0
   35.8180   27.8230   39.1680 C   0  0  1  0  0  0  0  0  0  0  0  0
   37.4730   29.2660   39.0800 H   0  0  0  0  0  0  0  0  0  0  0  0
   35.0960   29.9440   39.4540 H   0  0  0  0  0  0  0  0  0  0  0  0
   34.9820   28.8600   40.9840 H   0  0  0  0  0  0  0  0  0  0  0  0
   35.5690   26.8310   39.6360 H   0  0  0  0  0  0  0  0  0  0  0  0
   35.5560   27.9130   37.6950 C   0  0  0  0  0  3  0  0  0  0  0  0
   35.4560   29.3280   37.1780 C   0  0  0  0  0  3  0  0  0  0  0  0
   35.0660   30.0520   37.8920 H   0  0  0  0  0  0  0  0  0  0  0  0
   36.7830   29.7140   36.5650 C   0  0  0  0  0  3  0  0  0  0  0  0
   37.6370   29.6140   37.2620 H   0  0  0  0  0  0  0  0  0  0  0  0
   36.9480   29.0110   35.3800 O   0  0  0  0  0  0  0  0  0  0  0  0
   36.7250   27.6570   35.5010 C   0  0  0  0  0  3  0  0  0  0  0  0
   35.7400   27.3140   35.1090 H   0  0  0  0  0  0  0  0  0  0  0  0
   36.7470   27.2660   36.9750 C   0  0  0  0  0  3  0  0  0  0  0  0
   36.7160   26.1640   37.0230 H   0  0  0  0  0  0  0  0  0  0  0  0
  1  7  1  6  0  0  0
  1  2  1  0  0  0  0
  2  3  1  0  0  0  0
  2  9  1  0  0  0  0
  2  8  1  0  0  0  0
  3 11  1  0  0  0  0
  4 13  1  0  0  0  0
  4  3  1  0  0  0  0
  5 14  1  0  0  0  0
  5  4  1  0  0  0  0
  6 16  1  6  0  0  0
  6  5  1  0  0  0  0
  6  1  1  0  0  0  0
 10  3  1  0  0  0  0
 12  4  1  0  0  0  0
 15  5  1  0  0  0  0
 17 18  1  0  0  0  0
 17  1  1  0  0  0  0
 18 23  1  0  0  0  0
 19 24  1  0  0  0  0
 19 18  2  0  0  0  0
 20 19  1  0  0  0  0
 21 20  2  0  0  0  0
 21 22  1  0  0  0  0
 22 17  2  0  0  0  0
 25 21  1  0  0  0  0
 26 29  1  6  0  0  0
 26 27  1  0  0  0  0
 26  6  1  0  0  0  0
 27 31  1  0  0  0  0
 28 32  1  1  0  0  0
 28 26  1  0  0  0  0
 28 27  1  0  0  0  0
 30 27  1  0  0  0  0
 33 28  1  0  0  0  0
 34 33  1  0  0  0  0
 34 35  1  0  0  0  0
 36 34  1  0  0  0  0
 36 37  1  0  0  0  0
 38 39  1  0  0  0  0
 38 36  1  0  0  0  0
 39 41  1  0  0  0  0
 40 39  1  0  0  0  0
 41 42  1  0  0  0  0
 41 33  1  0  0  0  0
M  END
>  <minimizedAffinity>
-5.10949326

$$$$

 OpenBabel03242511593D

 42 45  0  0  1  0  0  0  0  0999 V2000
   37.2680   29.5040   38.1220 C   0  0  2  0  0  0  0  0  0  0  0  0
   37.0290   30.6340   37.1820 C   0  0  0  0  0  0  0  0  0  0  0  0
   37.6120   31.9170   37.6430 C   0  0  0  0  0  0  0  0  0  0  0  0
   37.1850   32.3060   39.0400 C   0  0  0  0  0  0  0  0  0  0  0  0
   37.1110   31.1400   39.9950 C   0  0  0  0  0  0  0  0  0  0  0  0
   37.7990   29.9140   39.4650 C   0  0  1  0  0  0  0  0  0  0  0  0
   36.2680   28.9910   38.2360 H   0  0  0  0  0  0  0  0  0  0  0  0
   35.9590   30.8140   36.9260 H   0  0  0  0  0  0  0  0  0  0  0  0
   37.5170   30.3780   36.2170 H   0  0  0  0  0  0  0  0  0  0  0  0
   38.7300   31.9510   37.5710 H   0  0  0  0  0  0  0  0  0  0  0  0
   37.2580   32.7290   36.9750 H   0  0  0  0  0  0  0  0  0  0  0  0
   37.9610   33.0000   39.4230 H   0  0  0  0  0  0  0  0  0  0  0  0
   36.2250   32.8830   39.0490 H   0  0  0  0  0  0  0  0  0  0  0  0
   36.0390   30.8850   40.1150 H   0  0  0  0  0  0  0  0  0  0  0  0
   37.5680   31.3530   40.9900 H   0  0  0  0  0  0  0  0  0  0  0  0
   38.8790   30.0670   39.5270 H   0  0  0  0  0  0  0  0  0  0  0  0
   38.1580   28.4740   37.5490 C   0  0  0  0  0  0  0  0  0  0  0  0
   39.4950   28.8590   37.4390 C   0  0  0  0  0  0  0  0  0  0  0  0
   40.4400   27.9650   36.9140 C   0  0  0  0  0  0  0  0  0  0  0  0
   39.9480   26.7240   36.5310 N   0  0  0  0  0  0  0  0  0  0  0  0
   38.6460   26.3870   36.6520 C   0  0  0  0  0  0  0  0  0  0  0  0
   37.7700   27.2710   37.1610 N   0  0  0  0  0  0  0  0  0  0  0  0
   40.0300   29.7650   37.6720 H   0  0  0  0  0  0  0  0  0  0  0  0
   41.4960   28.1180   36.7690 H   0  0  0  0  0  0  0  0  0  0  0  0
   38.3680   25.3940   36.3240 H   0  0  0  0  0  0  0  0  0  0  0  0
   37.4900   28.7800   40.4220 C   0  0  2  0  0  0  0  0  0  0  0  0
   36.0720   28.6760   40.9450 C   0  0  0  0  0  0  0  0  0  0  0  0
   37.1880   29.0350   41.8490 C   0  0  1  0  0  0  0  0  0  0  0  0
   38.0720   27.8570   40.2170 H   0  0  0  0  0  0  0  0  0  0  0  0
   35.6820   27.6340   40.9160 H   0  0  0  0  0  0  0  0  0  0  0  0
   35.3700   29.4580   40.5890 H   0  0  0  0  0  0  0  0  0  0  0  0
   37.1590   30.0950   42.2230 H   0  0  0  0  0  0  0  0  0  0  0  0
   37.5320   28.0060   42.8830 C   0  0  0  0  0  3  0  0  0  0  0  0
   37.0150   26.6230   42.5650 C   0  0  0  0  0  3  0  0  0  0  0  0
   36.0880   26.6000   41.9930 H   0  0  0  0  0  0  0  0  0  0  0  0
   38.1390   25.8150   41.9580 C   0  0  0  0  0  3  0  0  0  0  0  0
   38.5830   26.2820   41.0580 H   0  0  0  0  0  0  0  0  0  0  0  0
   39.0670   25.5280   42.9490 O   0  0  0  0  0  0  0  0  0  0  0  0
   39.4590   26.6280   43.6790 C   0  0  0  0  0  3  0  0  0  0  0  0
   38.9900   26.7040   44.6880 H   0  0  0  0  0  0  0  0  0  0  0  0
   39.0620   27.9000   42.9380 C   0  0  0  0  0  3  0  0  0  0  0  0
   39.5200   28.7490   43.4740 H   0  0  0  0  0  0  0  0  0  0  0  0
  1  7  1  1  0  0  0
  1  6  1  0  0  0  0
  2  3  1  0  0  0  0
  2  1  1  0  0  0  0
  3  4  1  0  0  0  0
  4 13  1  0  0  0  0
  4 12  1  0  0  0  0
  4  5  1  0  0  0  0
  5 14  1  0  0  0  0
  5 15  1  0  0  0  0
  6 16  1  6  0  0  0
  6  5  1  0  0  0  0
  6 26  1  0  0  0  0
  8  2  1  0  0  0  0
  9  2  1  0  0  0  0
 10  3  1  0  0  0  0
 11  3  1  0  0  0  0
 17  1  1  0  0  0  0
 18 17  1  0  0  0  0
 18 23  1  0  0  0  0
 19 18  2  0  0  0  0
 20 21  2  0  0  0  0
 20 19  1  0  0  0  0
 21 22  1  0  0  0  0
 22 17  2  0  0  0  0
 24 19  1  0  0  0  0
 25 21  1  0  0  0  0
 26 29  1  6  0  0  0
 26 27  1  0  0  0  0
 26 28  1  0  0  0  0
 27 28  1  0  0  0  0
 28 32  1  1  0  0  0
 28 33  1  0  0  0  0
 30 27  1  0  0  0  0
 31 27  1  0  0  0  0
 33 41  1  0  0  0  0
 34 33  1  0  0  0  0
 35 34  1  0  0  0  0
 36 34  1  0  0  0  0
 36 38  1  0  0  0  0
 37 36  1  0  0  0  0
 38 39  1  0  0  0  0
 39 40  1  0  0  0  0
 41 42  1  0  0  0  0
 41 39  1  0  0  0  0
M  END
>  <minimizedAffinity>
-5.07333946

$$$$

 OpenBabel03242511593D

 42 45  0  0  1  0  0  0  0  0999 V2000
   36.8870   29.0170   37.2030 C   0  0  2  0  0  0  0  0  0  0  0  0
   37.0540   29.1100   35.7270 C   0  0  0  0  0  0  0  0  0  0  0  0
   35.8830   29.7040   35.0380 C   0  0  0  0  0  0  0  0  0  0  0  0
   34.5760   29.0200   35.3700 C   0  0  0  0  0  0  0  0  0  0  0  0
   34.4570   28.6170   36.8190 C   0  0  0  0  0  0  0  0  0  0  0  0
   35.4900   29.2760   37.6890 C   0  0  1  0  0  0  0  0  0  0  0  0
   37.2090   27.9690   37.4780 H   0  0  0  0  0  0  0  0  0  0  0  0
   37.2990   28.1470   35.2200 H   0  0  0  0  0  0  0  0  0  0  0  0
   37.9240   29.7710   35.5270 H   0  0  0  0  0  0  0  0  0  0  0  0
   35.7800   30.8080   35.2040 H   0  0  0  0  0  0  0  0  0  0  0  0
   36.0190   29.5920   33.9420 H   0  0  0  0  0  0  0  0  0  0  0  0
   33.7750   29.7590   35.1640 H   0  0  0  0  0  0  0  0  0  0  0  0
   34.3690   28.1460   34.7000 H   0  0  0  0  0  0  0  0  0  0  0  0
   34.6390   27.5250   36.8690 H   0  0  0  0  0  0  0  0  0  0  0  0
   33.4660   28.8610   37.2660 H   0  0  0  0  0  0  0  0  0  0  0  0
   35.2150   30.3250   37.8210 H   0  0  0  0  0  0  0  0  0  0  0  0
   37.8190   29.9010   37.9320 C   0  0  0  0  0  0  0  0  0  0  0  0
   37.4550   31.2490   37.9360 C   0  0  0  0  0  0  0  0  0  0  0  0
   38.2580   32.1880   38.6000 C   0  0  0  0  0  0  0  0  0  0  0  0
   39.3920   31.6810   39.2200 N   0  0  0  0  0  0  0  0  0  0  0  0
   39.7120   30.3690   39.1940 C   0  0  0  0  0  0  0  0  0  0  0  0
   38.9170   29.4990   38.5480 N   0  0  0  0  0  0  0  0  0  0  0  0
   36.6350   31.8000   37.5050 H   0  0  0  0  0  0  0  0  0  0  0  0
   38.1080   33.2510   38.6890 H   0  0  0  0  0  0  0  0  0  0  0  0
   40.6180   30.0790   39.7100 H   0  0  0  0  0  0  0  0  0  0  0  0
   35.3810   28.6480   39.0640 C   0  0  2  0  0  0  0  0  0  0  0  0
   34.2600   29.1280   39.9630 C   0  0  0  0  0  0  0  0  0  0  0  0
   35.6740   29.4210   40.2910 C   0  0  1  0  0  0  0  0  0  0  0  0
   35.6910   27.5810   39.0890 H   0  0  0  0  0  0  0  0  0  0  0  0
   33.7270   28.2890   40.4640 H   0  0  0  0  0  0  0  0  0  0  0  0
   33.6110   29.9200   39.5380 H   0  0  0  0  0  0  0  0  0  0  0  0
   35.9550   30.5060   40.2030 H   0  0  0  0  0  0  0  0  0  0  0  0
   36.2070   28.7250   41.5070 C   0  0  0  0  0  3  0  0  0  0  0  0
   36.7600   27.3470   41.2280 C   0  0  0  0  0  3  0  0  0  0  0  0
   36.2790   26.8170   40.4070 H   0  0  0  0  0  0  0  0  0  0  0  0
   38.2640   27.4450   41.1100 C   0  0  0  0  0  3  0  0  0  0  0  0
   38.6000   28.1630   40.3370 H   0  0  0  0  0  0  0  0  0  0  0  0
   38.7950   27.6930   42.3670 O   0  0  0  0  0  0  0  0  0  0  0  0
   38.1870   28.7350   43.0320 C   0  0  0  0  0  3  0  0  0  0  0  0
   37.4720   28.4200   43.8280 H   0  0  0  0  0  0  0  0  0  0  0  0
   37.3740   29.5650   42.0450 C   0  0  0  0  0  3  0  0  0  0  0  0
   37.0270   30.4660   42.5800 H   0  0  0  0  0  0  0  0  0  0  0  0
  1  7  1  1  0  0  0
  1  6  1  0  0  0  0
  1 17  1  0  0  0  0
  2  1  1  0  0  0  0
  3 10  1  0  0  0  0
  3  4  1  0  0  0  0
  3  2  1  0  0  0  0
  4  5  1  0  0  0  0
  5 14  1  0  0  0  0
  5 15  1  0  0  0  0
  5  6  1  0  0  0  0
  6 16  1  1  0  0  0
  6 26  1  0  0  0  0
  8  2  1  0  0  0  0
  9  2  1  0  0  0  0
 11  3  1  0  0  0  0
 12  4  1  0  0  0  0
 13  4  1  0  0  0  0
 17 18  2  0  0  0  0
 17 22  1  0  0  0  0
 18 19  1  0  0  0  0
 19 24  1  0  0  0  0
 19 20  2  0  0  0  0
 21 20  1  0  0  0  0
 21 25  1  0  0  0  0
 22 21  2  0  0  0  0
 23 18  1  0  0  0  0
 26 29  1  1  0  0  0
 26 27  1  0  0  0  0
 26 28  1  0  0  0  0
 27 28  1  0  0  0  0
 27 30  1  0  0  0  0
 28 32  1  6  0  0  0
 28 33  1  0  0  0  0
 31 27  1  0  0  0  0
 33 41  1  0  0  0  0
 34 33  1  0  0  0  0
 35 34  1  0  0  0  0
 36 34  1  0  0  0  0
 36 38  1  0  0  0  0
 37 36  1  0  0  0  0
 38 39  1  0  0  0  0
 39 40  1  0  0  0  0
 41 42  1  0  0  0  0
 41 39  1  0  0  0  0
M  END
>  <minimizedAffinity>
-5.04417753

$$$$
