
 OpenBabel03252505473D

 29 31  0  0  1  0  0  0  0  0999 V2000
   36.8970   28.5430   41.8440 C   0  0  0  0  0  0  0  0  0  0  0  0
   35.7280   28.5530   41.0270 C   0  0  0  0  0  0  0  0  0  0  0  0
   35.4260   29.6450   40.2190 C   0  0  0  0  0  0  0  0  0  0  0  0
   36.3090   30.6850   40.2650 N   0  0  0  0  0  0  0  0  0  0  0  0
   37.4190   30.6430   41.0580 C   0  0  0  0  0  0  0  0  0  0  0  0
   37.6940   29.5970   41.8210 N   0  0  0  0  0  0  0  0  0  0  0  0
   35.0450   27.7160   41.0090 H   0  0  0  0  0  0  0  0  0  0  0  0
   34.5590   29.6700   39.6040 H   0  0  0  0  0  0  0  0  0  0  0  0
   38.3400   31.8110   41.0600 C   0  0  0  0  0  3  0  0  0  0  0  0
   37.6910   32.8710   40.1620 C   0  0  0  0  0  3  0  0  0  0  0  0
   37.6510   32.5000   39.1140 H   0  0  0  0  0  0  0  0  0  0  0  0
   38.6540   34.0630   40.2420 C   0  0  0  0  0  3  0  0  0  0  0  0
   38.1570   34.9950   39.9650 H   0  0  0  0  0  0  0  0  0  0  0  0
   39.7410   33.7490   39.4660 O   0  0  0  0  0  0  0  0  0  0  0  0
   39.9910   32.4150   39.2830 C   0  0  0  0  0  3  0  0  0  0  0  0
   41.1090   32.3230   39.1510 H   0  0  0  0  0  0  0  0  0  0  0  0
   39.6860   31.5470   40.4890 C   0  0  0  0  0  3  0  0  0  0  0  0
   39.8730   30.5070   40.2090 H   0  0  0  0  0  0  0  0  0  0  0  0
   37.1540   27.3610   42.6780 C   0  0  1  0  0  0  0  0  0  0  0  0
   38.0710   26.3290   41.9490 C   0  0  1  0  0  0  0  0  0  0  0  0
   38.4290   27.0200   43.2310 C   0  0  0  0  0  0  0  0  0  0  0  0
   36.2240   26.9190   43.1020 H   0  0  0  0  0  0  0  0  0  0  0  0
   38.5840   26.6420   41.0420 H   0  0  0  0  0  0  0  0  0  0  0  0
   39.2490   27.7650   43.1570 H   0  0  0  0  0  0  0  0  0  0  0  0
   38.5090   26.4040   44.1470 H   0  0  0  0  0  0  0  0  0  0  0  0
   37.6110   24.8970   42.1090 C   0  0  0  0  0  0  0  0  0  0  0  0
   36.3410   24.8130   42.6310 F   0  0  0  0  0  0  0  0  0  0  0  0
   37.5830   24.3020   40.8410 F   0  0  0  0  0  0  0  0  0  0  0  0
   38.5180   24.1740   42.8540 F   0  0  0  0  0  0  0  0  0  0  0  0
  1 19  1  0  0  0  0
  2  1  2  0  0  0  0
  3  4  2  0  0  0  0
  3  2  1  0  0  0  0
  4  5  1  0  0  0  0
  5  9  1  0  0  0  0
  5  6  2  0  0  0  0
  6  1  1  0  0  0  0
  7  2  1  0  0  0  0
  8  3  1  0  0  0  0
 10 12  1  0  0  0  0
 10  9  1  0  0  0  0
 11 10  1  0  0  0  0
 13 12  1  0  0  0  0
 14 12  1  0  0  0  0
 15 14  1  0  0  0  0
 15 17  1  0  0  0  0
 16 15  1  0  0  0  0
 17  9  1  0  0  0  0
 18 17  1  0  0  0  0
 19 22  1  1  0  0  0
 19 21  1  0  0  0  0
 20 23  1  6  0  0  0
 20 26  1  0  0  0  0
 20 19  1  0  0  0  0
 20 21  1  0  0  0  0
 21 25  1  0  0  0  0
 24 21  1  0  0  0  0
 26 27  1  0  0  0  0
 26 29  1  0  0  0  0
 28 26  1  0  0  0  0
M  END
>  <minimizedAffinity>
-5.44867802

$$$$

 OpenBabel03252505473D

 29 31  0  0  1  0  0  0  0  0999 V2000
   36.8530   30.8580   40.7900 C   0  0  0  0  0  0  0  0  0  0  0  0
   35.7200   30.3650   40.0770 C   0  0  0  0  0  0  0  0  0  0  0  0
   35.2380   29.0790   40.2970 C   0  0  0  0  0  0  0  0  0  0  0  0
   35.9120   28.3380   41.2230 N   0  0  0  0  0  0  0  0  0  0  0  0
   36.9930   28.8400   41.8880 C   0  0  0  0  0  0  0  0  0  0  0  0
   37.4400   30.0660   41.6700 N   0  0  0  0  0  0  0  0  0  0  0  0
   35.2040   30.9730   39.3480 H   0  0  0  0  0  0  0  0  0  0  0  0
   34.3950   28.6940   39.7730 H   0  0  0  0  0  0  0  0  0  0  0  0
   37.6820   27.9780   42.8860 C   0  0  0  0  0  3  0  0  0  0  0  0
   39.1800   28.0790   42.5770 C   0  0  0  0  0  3  0  0  0  0  0  0
   39.3880   27.6370   41.5770 H   0  0  0  0  0  0  0  0  0  0  0  0
   39.8400   27.2160   43.6600 C   0  0  0  0  0  3  0  0  0  0  0  0
   40.8910   27.4820   43.7960 H   0  0  0  0  0  0  0  0  0  0  0  0
   39.6290   25.9070   43.3090 O   0  0  0  0  0  0  0  0  0  0  0  0
   38.5410   25.6590   42.5160 C   0  0  0  0  0  3  0  0  0  0  0  0
   38.1950   24.6160   42.7780 H   0  0  0  0  0  0  0  0  0  0  0  0
   37.3370   26.5350   42.8090 C   0  0  0  0  0  3  0  0  0  0  0  0
   36.5560   26.2840   42.0860 H   0  0  0  0  0  0  0  0  0  0  0  0
   37.3150   32.2240   40.5060 C   0  0  1  0  0  0  0  0  0  0  0  0
   38.6190   32.2240   39.6460 C   0  0  1  0  0  0  0  0  0  0  0  0
   37.3160   32.8270   39.2090 C   0  0  0  0  0  0  0  0  0  0  0  0
   37.3760   32.8590   41.4190 H   0  0  0  0  0  0  0  0  0  0  0  0
   38.9310   31.2930   39.1790 H   0  0  0  0  0  0  0  0  0  0  0  0
   36.8000   32.2940   38.3830 H   0  0  0  0  0  0  0  0  0  0  0  0
   37.2690   33.9260   39.0880 H   0  0  0  0  0  0  0  0  0  0  0  0
   39.6510   33.2230   40.1180 C   0  0  0  0  0  0  0  0  0  0  0  0
   39.1170   34.1610   40.9710 F   0  0  0  0  0  0  0  0  0  0  0  0
   40.6400   32.5280   40.8270 F   0  0  0  0  0  0  0  0  0  0  0  0
   40.2870   33.8110   39.0460 F   0  0  0  0  0  0  0  0  0  0  0  0
  1  6  1  0  0  0  0
  2  3  1  0  0  0  0
  2  1  2  0  0  0  0
  3  4  2  0  0  0  0
  4  5  1  0  0  0  0
  5  9  1  0  0  0  0
  6  5  2  0  0  0  0
  7  2  1  0  0  0  0
  8  3  1  0  0  0  0
 10  9  1  0  0  0  0
 10 12  1  0  0  0  0
 11 10  1  0  0  0  0
 12 13  1  0  0  0  0
 14 12  1  0  0  0  0
 15 16  1  0  0  0  0
 15 17  1  0  0  0  0
 15 14  1  0  0  0  0
 17  9  1  0  0  0  0
 18 17  1  0  0  0  0
 19  1  1  0  0  0  0
 19 22  1  1  0  0  0
 20 23  1  6  0  0  0
 20 26  1  0  0  0  0
 20 19  1  0  0  0  0
 21 20  1  0  0  0  0
 21 19  1  0  0  0  0
 24 21  1  0  0  0  0
 25 21  1  0  0  0  0
 26 28  1  0  0  0  0
 26 27  1  0  0  0  0
 29 26  1  0  0  0  0
M  END
>  <minimizedAffinity>
-5.32065582

$$$$

 OpenBabel03252505473D

 29 31  0  0  1  0  0  0  0  0999 V2000
   37.1440   26.6720   42.2890 C   0  0  0  0  0  0  0  0  0  0  0  0
   37.7250   27.2260   43.4680 C   0  0  0  0  0  0  0  0  0  0  0  0
   37.8270   28.6030   43.6390 C   0  0  0  0  0  0  0  0  0  0  0  0
   37.3430   29.3700   42.6190 N   0  0  0  0  0  0  0  0  0  0  0  0
   36.7930   28.8080   41.5040 C   0  0  0  0  0  0  0  0  0  0  0  0
   36.7010   27.4960   41.3550 N   0  0  0  0  0  0  0  0  0  0  0  0
   38.1000   26.5960   44.2620 H   0  0  0  0  0  0  0  0  0  0  0  0
   38.2570   29.0330   44.5120 H   0  0  0  0  0  0  0  0  0  0  0  0
   36.2850   29.7030   40.4290 C   0  0  0  0  0  3  0  0  0  0  0  0
   37.2400   29.5320   39.2420 C   0  0  0  0  0  3  0  0  0  0  0  0
   38.2510   29.9070   39.5170 H   0  0  0  0  0  0  0  0  0  0  0  0
   36.6430   30.4330   38.1540 C   0  0  0  0  0  3  0  0  0  0  0  0
   36.9870   30.1400   37.1600 H   0  0  0  0  0  0  0  0  0  0  0  0
   36.9450   31.7260   38.4980 O   0  0  0  0  0  0  0  0  0  0  0  0
   37.1640   31.9640   39.8290 C   0  0  0  0  0  3  0  0  0  0  0  0
   36.8440   33.0320   40.0110 H   0  0  0  0  0  0  0  0  0  0  0  0
   36.2920   31.1500   40.7660 C   0  0  0  0  0  3  0  0  0  0  0  0
   36.5910   31.3850   41.7910 H   0  0  0  0  0  0  0  0  0  0  0  0
   37.0720   25.2100   42.1680 C   0  0  1  0  0  0  0  0  0  0  0  0
   37.8130   24.7000   40.8910 C   0  0  1  0  0  0  0  0  0  0  0  0
   38.1920   24.3290   42.2950 C   0  0  0  0  0  0  0  0  0  0  0  0
   36.0360   24.8160   42.2750 H   0  0  0  0  0  0  0  0  0  0  0  0
   38.4590   25.3930   40.3560 H   0  0  0  0  0  0  0  0  0  0  0  0
   39.1530   24.7520   42.6550 H   0  0  0  0  0  0  0  0  0  0  0  0
   38.0600   23.2750   42.6050 H   0  0  0  0  0  0  0  0  0  0  0  0
   37.0520   23.6320   40.1390 C   0  0  0  0  0  0  0  0  0  0  0  0
   35.6930   23.8470   40.1630 F   0  0  0  0  0  0  0  0  0  0  0  0
   37.4570   23.6680   38.7990 F   0  0  0  0  0  0  0  0  0  0  0  0
   37.3780   22.3780   40.6070 F   0  0  0  0  0  0  0  0  0  0  0  0
  1  2  1  0  0  0  0
  2  3  2  0  0  0  0
  2  7  1  0  0  0  0
  3  8  1  0  0  0  0
  4  3  1  0  0  0  0
  5  4  2  0  0  0  0
  6  5  1  0  0  0  0
  6  1  2  0  0  0  0
  9 17  1  0  0  0  0
  9  5  1  0  0  0  0
 10 11  1  0  0  0  0
 10  9  1  0  0  0  0
 12 14  1  0  0  0  0
 12 10  1  0  0  0  0
 13 12  1  0  0  0  0
 14 15  1  0  0  0  0
 15 16  1  0  0  0  0
 15 17  1  0  0  0  0
 17 18  1  0  0  0  0
 19 22  1  1  0  0  0
 19  1  1  0  0  0  0
 19 21  1  0  0  0  0
 20 23  1  6  0  0  0
 20 19  1  0  0  0  0
 20 21  1  0  0  0  0
 21 25  1  0  0  0  0
 21 24  1  0  0  0  0
 26 27  1  0  0  0  0
 26 29  1  0  0  0  0
 26 20  1  0  0  0  0
 28 26  1  0  0  0  0
M  END
>  <minimizedAffinity>
-5.23180103

$$$$

 OpenBabel03252505473D

 29 31  0  0  1  0  0  0  0  0999 V2000
   36.4000   29.1790   40.3280 C   0  0  0  0  0  0  0  0  0  0  0  0
   35.6100   28.6800   39.2500 C   0  0  0  0  0  0  0  0  0  0  0  0
   35.5960   29.3180   38.0140 C   0  0  0  0  0  0  0  0  0  0  0  0
   36.3750   30.4340   37.9100 N   0  0  0  0  0  0  0  0  0  0  0  0
   37.1190   30.8860   38.9610 C   0  0  0  0  0  0  0  0  0  0  0  0
   37.1230   30.2670   40.1310 N   0  0  0  0  0  0  0  0  0  0  0  0
   35.0020   27.7930   39.3600 H   0  0  0  0  0  0  0  0  0  0  0  0
   35.0130   28.9600   37.2000 H   0  0  0  0  0  0  0  0  0  0  0  0
   37.9460   32.1090   38.7780 C   0  0  0  0  0  3  0  0  0  0  0  0
   39.3560   31.7490   39.2580 C   0  0  0  0  0  3  0  0  0  0  0  0
   39.3380   31.5370   40.3500 H   0  0  0  0  0  0  0  0  0  0  0  0
   40.1710   33.0230   39.0010 C   0  0  0  0  0  3  0  0  0  0  0  0
   41.2400   32.8080   38.9440 H   0  0  0  0  0  0  0  0  0  0  0  0
   39.8260   33.9200   39.9800 O   0  0  0  0  0  0  0  0  0  0  0  0
   38.5910   33.7530   40.5470 C   0  0  0  0  0  3  0  0  0  0  0  0
   38.2490   34.7840   40.8580 H   0  0  0  0  0  0  0  0  0  0  0  0
   37.5160   33.2790   39.5870 C   0  0  0  0  0  3  0  0  0  0  0  0
   36.5960   33.1340   40.1580 H   0  0  0  0  0  0  0  0  0  0  0  0
   36.3640   28.4610   41.6100 C   0  0  1  0  0  0  0  0  0  0  0  0
   37.6130   27.5400   41.7890 C   0  0  1  0  0  0  0  0  0  0  0  0
   37.2710   28.6880   42.6920 C   0  0  0  0  0  0  0  0  0  0  0  0
   35.3940   27.9450   41.7910 H   0  0  0  0  0  0  0  0  0  0  0  0
   38.4500   27.6630   41.1050 H   0  0  0  0  0  0  0  0  0  0  0  0
   37.9530   29.5620   42.6310 H   0  0  0  0  0  0  0  0  0  0  0  0
   36.9850   28.4580   43.7370 H   0  0  0  0  0  0  0  0  0  0  0  0
   37.2790   26.1760   42.3470 C   0  0  0  0  0  0  0  0  0  0  0  0
   38.3740   25.5600   42.9100 F   0  0  0  0  0  0  0  0  0  0  0  0
   36.3250   26.3390   43.3600 F   0  0  0  0  0  0  0  0  0  0  0  0
   36.6880   25.3850   41.3850 F   0  0  0  0  0  0  0  0  0  0  0  0
  1 19  1  0  0  0  0
  2  7  1  0  0  0  0
  2  1  2  0  0  0  0
  3  2  1  0  0  0  0
  4  3  2  0  0  0  0
  4  5  1  0  0  0  0
  5  6  2  0  0  0  0
  6  1  1  0  0  0  0
  8  3  1  0  0  0  0
  9  5  1  0  0  0  0
  9 10  1  0  0  0  0
  9 17  1  0  0  0  0
 10 11  1  0  0  0  0
 12 10  1  0  0  0  0
 12 14  1  0  0  0  0
 13 12  1  0  0  0  0
 14 15  1  0  0  0  0
 15 16  1  0  0  0  0
 17 18  1  0  0  0  0
 17 15  1  0  0  0  0
 19 20  1  0  0  0  0
 19 22  1  1  0  0  0
 19 21  1  0  0  0  0
 20 23  1  6  0  0  0
 20 26  1  0  0  0  0
 20 21  1  0  0  0  0
 21 25  1  0  0  0  0
 24 21  1  0  0  0  0
 26 27  1  0  0  0  0
 26 28  1  0  0  0  0
 29 26  1  0  0  0  0
M  END
>  <minimizedAffinity>
-5.14333868

$$$$

 OpenBabel03252505473D

 29 31  0  0  1  0  0  0  0  0999 V2000
   37.1330   29.2510   41.6600 C   0  0  0  0  0  0  0  0  0  0  0  0
   37.6360   29.2080   42.9950 C   0  0  0  0  0  0  0  0  0  0  0  0
   38.0000   28.0030   43.5860 C   0  0  0  0  0  0  0  0  0  0  0  0
   37.8430   26.8870   42.8160 N   0  0  0  0  0  0  0  0  0  0  0  0
   37.3590   26.9630   41.5420 C   0  0  0  0  0  0  0  0  0  0  0  0
   37.0180   28.1170   40.9910 N   0  0  0  0  0  0  0  0  0  0  0  0
   37.7500   30.1070   43.5840 H   0  0  0  0  0  0  0  0  0  0  0  0
   38.3760   27.9520   44.5800 H   0  0  0  0  0  0  0  0  0  0  0  0
   37.2140   25.7080   40.7570 C   0  0  0  0  0  3  0  0  0  0  0  0
   37.5940   24.5640   41.7030 C   0  0  0  0  0  3  0  0  0  0  0  0
   38.6700   24.6450   41.9760 H   0  0  0  0  0  0  0  0  0  0  0  0
   37.3790   23.3000   40.8610 C   0  0  0  0  0  3  0  0  0  0  0  0
   37.2520   22.4170   41.4910 H   0  0  0  0  0  0  0  0  0  0  0  0
   38.4310   23.2220   39.9840 O   0  0  0  0  0  0  0  0  0  0  0  0
   39.0500   24.4030   39.6730 C   0  0  0  0  0  3  0  0  0  0  0  0
   39.4440   24.2800   38.6210 H   0  0  0  0  0  0  0  0  0  0  0  0
   38.1180   25.5970   39.5830 C   0  0  0  0  0  3  0  0  0  0  0  0
   38.7260   26.4830   39.3820 H   0  0  0  0  0  0  0  0  0  0  0  0
   36.7610   30.5560   41.0970 C   0  0  1  0  0  0  0  0  0  0  0  0
   37.8080   31.0520   40.0500 C   0  0  1  0  0  0  0  0  0  0  0  0
   36.3680   30.7710   39.7380 C   0  0  0  0  0  0  0  0  0  0  0  0
   36.5120   31.3100   41.8780 H   0  0  0  0  0  0  0  0  0  0  0  0
   38.5530   30.3470   39.6890 H   0  0  0  0  0  0  0  0  0  0  0  0
   36.1840   29.8820   39.0990 H   0  0  0  0  0  0  0  0  0  0  0  0
   35.7230   31.6250   39.4570 H   0  0  0  0  0  0  0  0  0  0  0  0
   38.1510   32.5180   40.1890 C   0  0  0  0  0  0  0  0  0  0  0  0
   38.7200   32.8070   41.4080 F   0  0  0  0  0  0  0  0  0  0  0  0
   39.0890   32.8440   39.2020 F   0  0  0  0  0  0  0  0  0  0  0  0
   37.0450   33.3030   39.9440 F   0  0  0  0  0  0  0  0  0  0  0  0
  1  2  1  0  0  0  0
  2  7  1  0  0  0  0
  2  3  2  0  0  0  0
  3  8  1  0  0  0  0
  4  3  1  0  0  0  0
  5  4  2  0  0  0  0
  6  5  1  0  0  0  0
  6  1  2  0  0  0  0
  9  5  1  0  0  0  0
  9 10  1  0  0  0  0
 10 11  1  0  0  0  0
 12 13  1  0  0  0  0
 12 10  1  0  0  0  0
 14 12  1  0  0  0  0
 15 14  1  0  0  0  0
 16 15  1  0  0  0  0
 17 15  1  0  0  0  0
 17  9  1  0  0  0  0
 18 17  1  0  0  0  0
 19  1  1  0  0  0  0
 19 22  1  1  0  0  0
 20 23  1  6  0  0  0
 20 26  1  0  0  0  0
 20 19  1  0  0  0  0
 21 20  1  0  0  0  0
 21 19  1  0  0  0  0
 24 21  1  0  0  0  0
 25 21  1  0  0  0  0
 26 27  1  0  0  0  0
 28 26  1  0  0  0  0
 29 26  1  0  0  0  0
M  END
>  <minimizedAffinity>
-4.86057472

$$$$

 OpenBabel03252505473D

 29 31  0  0  1  0  0  0  0  0999 V2000
   37.4050   28.5400   41.6530 C   0  0  0  0  0  0  0  0  0  0  0  0
   38.2940   29.5480   42.1340 C   0  0  0  0  0  0  0  0  0  0  0  0
   38.4790   30.7350   41.4320 C   0  0  0  0  0  0  0  0  0  0  0  0
   37.7670   30.8630   40.2760 N   0  0  0  0  0  0  0  0  0  0  0  0
   36.9250   29.8800   39.8440 C   0  0  0  0  0  0  0  0  0  0  0  0
   36.7570   28.7560   40.5220 N   0  0  0  0  0  0  0  0  0  0  0  0
   38.8470   29.4210   43.0540 H   0  0  0  0  0  0  0  0  0  0  0  0
   39.1380   31.4970   41.7750 H   0  0  0  0  0  0  0  0  0  0  0  0
   36.1780   30.0850   38.5730 C   0  0  0  0  0  3  0  0  0  0  0  0
   35.4510   28.7670   38.2860 C   0  0  0  0  0  3  0  0  0  0  0  0
   36.1950   27.9620   38.0920 H   0  0  0  0  0  0  0  0  0  0  0  0
   34.6640   29.0510   37.0000 C   0  0  0  0  0  3  0  0  0  0  0  0
   33.8310   28.3540   36.8800 H   0  0  0  0  0  0  0  0  0  0  0  0
   35.5670   29.0350   35.9690 O   0  0  0  0  0  0  0  0  0  0  0  0
   36.8670   29.3170   36.2960 C   0  0  0  0  0  3  0  0  0  0  0  0
   37.3200   29.8000   35.3820 H   0  0  0  0  0  0  0  0  0  0  0  0
   37.0290   30.3590   37.3870 C   0  0  0  0  0  3  0  0  0  0  0  0
   38.0970   30.4620   37.5970 H   0  0  0  0  0  0  0  0  0  0  0  0
   37.2600   27.3070   42.4390 C   0  0  1  0  0  0  0  0  0  0  0  0
   37.9930   26.1040   41.7640 C   0  0  1  0  0  0  0  0  0  0  0  0
   38.3310   26.6490   43.1210 C   0  0  0  0  0  0  0  0  0  0  0  0
   36.2030   27.0930   42.7170 H   0  0  0  0  0  0  0  0  0  0  0  0
   38.6820   26.3100   40.9480 H   0  0  0  0  0  0  0  0  0  0  0  0
   39.3070   27.1720   43.1940 H   0  0  0  0  0  0  0  0  0  0  0  0
   38.1390   26.0040   44.0000 H   0  0  0  0  0  0  0  0  0  0  0  0
   37.1880   24.8240   41.7790 C   0  0  0  0  0  0  0  0  0  0  0  0
   36.3000   24.7790   42.8290 F   0  0  0  0  0  0  0  0  0  0  0  0
   36.4410   24.7640   40.5960 F   0  0  0  0  0  0  0  0  0  0  0  0
   38.0190   23.7250   41.7650 F   0  0  0  0  0  0  0  0  0  0  0  0
  1  2  1  0  0  0  0
  1 19  1  0  0  0  0
  2  7  1  0  0  0  0
  3  8  1  0  0  0  0
  3  2  2  0  0  0  0
  4  3  1  0  0  0  0
  5  4  2  0  0  0  0
  5  6  1  0  0  0  0
  6  1  2  0  0  0  0
  9  5  1  0  0  0  0
 10  9  1  0  0  0  0
 11 10  1  0  0  0  0
 12 10  1  0  0  0  0
 13 12  1  0  0  0  0
 14 15  1  0  0  0  0
 14 12  1  0  0  0  0
 15 17  1  0  0  0  0
 16 15  1  0  0  0  0
 17 18  1  0  0  0  0
 17  9  1  0  0  0  0
 19 22  1  1  0  0  0
 19 21  1  0  0  0  0
 20 23  1  6  0  0  0
 20 26  1  0  0  0  0
 20 19  1  0  0  0  0
 20 21  1  0  0  0  0
 21 24  1  0  0  0  0
 21 25  1  0  0  0  0
 26 27  1  0  0  0  0
 28 26  1  0  0  0  0
 29 26  1  0  0  0  0
M  END
>  <minimizedAffinity>
-4.81778955

$$$$

 OpenBabel03252505473D

 29 31  0  0  1  0  0  0  0  0999 V2000
   37.5550   28.9110   41.1880 C   0  0  0  0  0  0  0  0  0  0  0  0
   37.5120   29.4820   42.4940 C   0  0  0  0  0  0  0  0  0  0  0  0
   37.6560   28.6890   43.6290 C   0  0  0  0  0  0  0  0  0  0  0  0
   37.8340   27.3550   43.4070 N   0  0  0  0  0  0  0  0  0  0  0  0
   37.8700   26.8410   42.1430 C   0  0  0  0  0  0  0  0  0  0  0  0
   37.7330   27.6070   41.0720 N   0  0  0  0  0  0  0  0  0  0  0  0
   37.3690   30.5430   42.6420 H   0  0  0  0  0  0  0  0  0  0  0  0
   37.6260   29.0980   44.6100 H   0  0  0  0  0  0  0  0  0  0  0  0
   38.0680   25.3760   41.9730 C   0  0  0  0  0  3  0  0  0  0  0  0
   38.6270   25.1800   40.5590 C   0  0  0  0  0  3  0  0  0  0  0  0
   37.8650   25.4880   39.8090 H   0  0  0  0  0  0  0  0  0  0  0  0
   38.8560   23.6670   40.4580 C   0  0  0  0  0  3  0  0  0  0  0  0
   39.5780   23.4250   39.6740 H   0  0  0  0  0  0  0  0  0  0  0  0
   37.6250   23.0880   40.2910 O   0  0  0  0  0  0  0  0  0  0  0  0
   36.5530   23.7940   40.7680 C   0  0  0  0  0  3  0  0  0  0  0  0
   35.7810   23.0260   41.0670 H   0  0  0  0  0  0  0  0  0  0  0  0
   36.8250   24.5650   42.0460 C   0  0  0  0  0  3  0  0  0  0  0  0
   35.9210   25.1260   42.2980 H   0  0  0  0  0  0  0  0  0  0  0  0
   37.3900   29.8030   40.0310 C   0  0  1  0  0  0  0  0  0  0  0  0
   35.9570   29.6960   39.4200 C   0  0  1  0  0  0  0  0  0  0  0  0
   36.5360   30.9500   40.0070 C   0  0  0  0  0  0  0  0  0  0  0  0
   38.2090   29.6980   39.2830 H   0  0  0  0  0  0  0  0  0  0  0  0
   35.1890   29.1770   39.9890 H   0  0  0  0  0  0  0  0  0  0  0  0
   36.0780   31.2840   40.9620 H   0  0  0  0  0  0  0  0  0  0  0  0
   36.7350   31.7980   39.3230 H   0  0  0  0  0  0  0  0  0  0  0  0
   35.9490   29.6500   37.9090 C   0  0  0  0  0  0  0  0  0  0  0  0
   36.6510   30.6940   37.3520 F   0  0  0  0  0  0  0  0  0  0  0  0
   36.5740   28.4640   37.5040 F   0  0  0  0  0  0  0  0  0  0  0  0
   34.6590   29.5890   37.4290 F   0  0  0  0  0  0  0  0  0  0  0  0
  1  2  1  0  0  0  0
  2  7  1  0  0  0  0
  2  3  2  0  0  0  0
  3  8  1  0  0  0  0
  4  3  1  0  0  0  0
  5  4  2  0  0  0  0
  6  1  2  0  0  0  0
  6  5  1  0  0  0  0
  9 17  1  0  0  0  0
  9  5  1  0  0  0  0
 10  9  1  0  0  0  0
 11 10  1  0  0  0  0
 12 10  1  0  0  0  0
 13 12  1  0  0  0  0
 14 12  1  0  0  0  0
 14 15  1  0  0  0  0
 15 16  1  0  0  0  0
 15 17  1  0  0  0  0
 17 18  1  0  0  0  0
 19 22  1  6  0  0  0
 19  1  1  0  0  0  0
 20 23  1  1  0  0  0
 20 21  1  0  0  0  0
 20 19  1  0  0  0  0
 21 19  1  0  0  0  0
 21 24  1  0  0  0  0
 25 21  1  0  0  0  0
 26 20  1  0  0  0  0
 27 26  1  0  0  0  0
 28 26  1  0  0  0  0
 29 26  1  0  0  0  0
M  END
>  <minimizedAffinity>
-4.77985477

$$$$

 OpenBabel03252505473D

 29 31  0  0  1  0  0  0  0  0999 V2000
   36.0840   29.3480   38.1080 C   0  0  0  0  0  0  0  0  0  0  0  0
   35.1180   28.6920   38.9270 C   0  0  0  0  0  0  0  0  0  0  0  0
   34.8880   29.1040   40.2360 C   0  0  0  0  0  0  0  0  0  0  0  0
   35.6380   30.1580   40.6710 N   0  0  0  0  0  0  0  0  0  0  0  0
   36.5540   30.7640   39.8620 C   0  0  0  0  0  0  0  0  0  0  0  0
   36.7620   30.3620   38.6180 N   0  0  0  0  0  0  0  0  0  0  0  0
   34.5370   27.8590   38.5570 H   0  0  0  0  0  0  0  0  0  0  0  0
   34.1720   28.6260   40.8610 H   0  0  0  0  0  0  0  0  0  0  0  0
   37.3380   31.9080   40.4000 C   0  0  0  0  0  3  0  0  0  0  0  0
   37.3050   32.9960   39.3210 C   0  0  0  0  0  3  0  0  0  0  0  0
   37.8430   32.6400   38.4140 H   0  0  0  0  0  0  0  0  0  0  0  0
   38.0820   34.1610   39.9470 C   0  0  0  0  0  3  0  0  0  0  0  0
   37.8320   35.1100   39.4670 H   0  0  0  0  0  0  0  0  0  0  0  0
   39.4120   33.8310   39.8890 O   0  0  0  0  0  0  0  0  0  0  0  0
   39.7030   32.4930   39.8390 C   0  0  0  0  0  3  0  0  0  0  0  0
   40.7070   32.3740   40.3410 H   0  0  0  0  0  0  0  0  0  0  0  0
   38.7720   31.6160   40.6560 C   0  0  0  0  0  3  0  0  0  0  0  0
   39.0680   30.5760   40.4990 H   0  0  0  0  0  0  0  0  0  0  0  0
   36.2830   28.8590   36.7370 C   0  0  1  0  0  0  0  0  0  0  0  0
   36.6110   30.0250   35.7510 C   0  0  1  0  0  0  0  0  0  0  0  0
   37.5330   28.8780   36.0420 C   0  0  0  0  0  0  0  0  0  0  0  0
   35.4600   28.1940   36.3900 H   0  0  0  0  0  0  0  0  0  0  0  0
   36.8640   30.9980   36.1660 H   0  0  0  0  0  0  0  0  0  0  0  0
   38.4480   29.1370   36.6160 H   0  0  0  0  0  0  0  0  0  0  0  0
   37.7450   28.1630   35.2240 H   0  0  0  0  0  0  0  0  0  0  0  0
   35.8750   29.9260   34.4350 C   0  0  0  0  0  0  0  0  0  0  0  0
   34.5290   29.6920   34.6060 F   0  0  0  0  0  0  0  0  0  0  0  0
   36.0050   31.1500   33.7670 F   0  0  0  0  0  0  0  0  0  0  0  0
   36.4560   28.9790   33.6190 F   0  0  0  0  0  0  0  0  0  0  0  0
  1  6  2  0  0  0  0
  1  2  1  0  0  0  0
  2  3  2  0  0  0  0
  3  4  1  0  0  0  0
  3  8  1  0  0  0  0
  5  9  1  0  0  0  0
  5  4  2  0  0  0  0
  6  5  1  0  0  0  0
  7  2  1  0  0  0  0
  9 17  1  0  0  0  0
 10 12  1  0  0  0  0
 10  9  1  0  0  0  0
 11 10  1  0  0  0  0
 13 12  1  0  0  0  0
 14 12  1  0  0  0  0
 15 14  1  0  0  0  0
 15 16  1  0  0  0  0
 15 17  1  0  0  0  0
 18 17  1  0  0  0  0
 19 22  1  6  0  0  0
 19  1  1  0  0  0  0
 20 21  1  0  0  0  0
 20 23  1  1  0  0  0
 20 19  1  0  0  0  0
 21 24  1  0  0  0  0
 21 19  1  0  0  0  0
 25 21  1  0  0  0  0
 26 27  1  0  0  0  0
 26 20  1  0  0  0  0
 28 26  1  0  0  0  0
 29 26  1  0  0  0  0
M  END
>  <minimizedAffinity>
-4.77942562

$$$$

 OpenBabel03252505473D

 29 31  0  0  1  0  0  0  0  0999 V2000
   36.2500   27.9460   39.3330 C   0  0  0  0  0  0  0  0  0  0  0  0
   35.9240   26.9270   38.3890 C   0  0  0  0  0  0  0  0  0  0  0  0
   36.1310   25.5830   38.6840 C   0  0  0  0  0  0  0  0  0  0  0  0
   36.6610   25.3160   39.9130 N   0  0  0  0  0  0  0  0  0  0  0  0
   36.9620   26.3150   40.7920 C   0  0  0  0  0  0  0  0  0  0  0  0
   36.7580   27.5890   40.4990 N   0  0  0  0  0  0  0  0  0  0  0  0
   35.5050   27.1670   37.4220 H   0  0  0  0  0  0  0  0  0  0  0  0
   35.8940   24.8110   37.9920 H   0  0  0  0  0  0  0  0  0  0  0  0
   37.5370   25.9520   42.1160 C   0  0  0  0  0  3  0  0  0  0  0  0
   38.7950   26.8120   42.2860 C   0  0  0  0  0  3  0  0  0  0  0  0
   39.5510   26.5260   41.5220 H   0  0  0  0  0  0  0  0  0  0  0  0
   39.3140   26.4350   43.6800 C   0  0  0  0  0  3  0  0  0  0  0  0
   39.9690   27.2100   44.0840 H   0  0  0  0  0  0  0  0  0  0  0  0
   39.9030   25.2010   43.5650 O   0  0  0  0  0  0  0  0  0  0  0  0
   39.4600   24.4110   42.5370 C   0  0  0  0  0  3  0  0  0  0  0  0
   39.5810   23.3450   42.8900 H   0  0  0  0  0  0  0  0  0  0  0  0
   37.9780   24.5390   42.2390 C   0  0  0  0  0  3  0  0  0  0  0  0
   37.7540   23.9070   41.3750 H   0  0  0  0  0  0  0  0  0  0  0  0
   36.0120   29.3470   38.9570 C   0  0  1  0  0  0  0  0  0  0  0  0
   37.3490   30.1410   38.8150 C   0  0  1  0  0  0  0  0  0  0  0  0
   36.3730   29.9210   37.6970 C   0  0  0  0  0  0  0  0  0  0  0  0
   35.2570   29.8470   39.6040 H   0  0  0  0  0  0  0  0  0  0  0  0
   38.2830   29.5840   38.7920 H   0  0  0  0  0  0  0  0  0  0  0  0
   36.7190   29.2420   36.8900 H   0  0  0  0  0  0  0  0  0  0  0  0
   35.8380   30.8040   37.2960 H   0  0  0  0  0  0  0  0  0  0  0  0
   37.2990   31.5190   39.4370 C   0  0  0  0  0  0  0  0  0  0  0  0
   38.5190   31.9070   39.9430 F   0  0  0  0  0  0  0  0  0  0  0  0
   36.9490   32.4370   38.4380 F   0  0  0  0  0  0  0  0  0  0  0  0
   36.3060   31.5890   40.3890 F   0  0  0  0  0  0  0  0  0  0  0  0
  1  6  1  0  0  0  0
  2  3  1  0  0  0  0
  2  1  2  0  0  0  0
  3  4  2  0  0  0  0
  4  5  1  0  0  0  0
  5  9  1  0  0  0  0
  6  5  2  0  0  0  0
  7  2  1  0  0  0  0
  8  3  1  0  0  0  0
  9 17  1  0  0  0  0
  9 10  1  0  0  0  0
 10 12  1  0  0  0  0
 11 10  1  0  0  0  0
 12 13  1  0  0  0  0
 14 12  1  0  0  0  0
 15 16  1  0  0  0  0
 15 14  1  0  0  0  0
 17 15  1  0  0  0  0
 18 17  1  0  0  0  0
 19  1  1  0  0  0  0
 19 22  1  1  0  0  0
 20 23  1  6  0  0  0
 20 19  1  0  0  0  0
 20 26  1  0  0  0  0
 21 20  1  0  0  0  0
 21 19  1  0  0  0  0
 24 21  1  0  0  0  0
 25 21  1  0  0  0  0
 26 27  1  0  0  0  0
 26 29  1  0  0  0  0
 28 26  1  0  0  0  0
M  END
>  <minimizedAffinity>
-4.75402832

$$$$
