
 OpenBabel03252502453D

 32 34  0  0  1  0  0  0  0  0999 V2000
   37.7510   27.7830   43.4830 C   0  0  1  0  0  0  0  0  0  0  0  0
   36.3130   27.4450   43.6790 C   0  0  0  0  0  0  0  0  0  0  0  0
   36.9990   27.1440   42.3880 C   0  0  2  0  0  0  0  0  0  0  0  0
   38.5540   27.2420   44.0530 H   0  0  0  0  0  0  0  0  0  0  0  0
   36.1830   26.6620   44.4520 H   0  0  0  0  0  0  0  0  0  0  0  0
   35.5180   28.1930   43.7960 H   0  0  0  0  0  0  0  0  0  0  0  0
   36.7790   27.5190   41.4070 H   0  0  0  0  0  0  0  0  0  0  0  0
   37.3670   25.6830   42.2300 C   0  0  0  0  0  3  0  0  0  0  0  0
   36.9490   25.1280   40.9010 C   0  0  0  0  0  3  0  0  0  0  0  0
   37.4740   25.5900   40.0310 H   0  0  0  0  0  0  0  0  0  0  0  0
   37.4000   23.6680   40.8260 C   0  0  0  0  0  3  0  0  0  0  0  0
   37.1360   23.3420   39.7970 H   0  0  0  0  0  0  0  0  0  0  0  0
   38.7870   23.6070   40.8890 O   0  0  0  0  0  0  0  0  0  0  0  0
   39.2730   24.0670   42.0830 C   0  0  0  0  0  3  0  0  0  0  0  0
   40.3960   24.1210   41.9700 H   0  0  0  0  0  0  0  0  0  0  0  0
   38.8210   25.3900   42.5400 C   0  0  0  0  0  3  0  0  0  0  0  0
   39.4260   26.1910   42.0340 H   0  0  0  0  0  0  0  0  0  0  0  0
   38.1040   29.2270   43.3120 C   0  0  0  0  0  0  0  0  0  0  0  0
   37.0980   29.7530   43.2590 H   0  0  0  0  0  0  0  0  0  0  0  0
   38.6510   29.6630   44.1410 H   0  0  0  0  0  0  0  0  0  0  0  0
   38.7790   29.3330   41.9600 C   0  0  0  0  0  0  0  0  0  0  0  0
   38.1380   28.7090   41.2590 H   0  0  0  0  0  0  0  0  0  0  0  0
   39.8310   29.1020   41.9390 H   0  0  0  0  0  0  0  0  0  0  0  0
   36.9320   31.9270   39.9780 C   0  0  0  0  0  0  0  0  0  0  0  0
   37.2360   30.6980   40.6000 C   0  0  0  0  0  0  0  0  0  0  0  0
   38.3860   30.6290   41.3390 C   0  0  0  0  0  0  0  0  0  0  0  0
   39.1780   31.7330   41.4490 N   0  0  0  0  0  0  0  0  0  0  0  0
   38.8760   32.8790   40.8600 C   0  0  0  0  0  0  0  0  0  0  0  0
   37.7640   32.9860   40.1270 N   0  0  0  0  0  0  0  0  0  0  0  0
   36.0630   32.1070   39.3730 H   0  0  0  0  0  0  0  0  0  0  0  0
   36.4690   29.9740   40.3930 H   0  0  0  0  0  0  0  0  0  0  0  0
   39.5570   33.7100   40.9950 H   0  0  0  0  0  0  0  0  0  0  0  0
  1  2  1  0  0  0  0
  1  4  1  1  0  0  0
  2  6  1  0  0  0  0
  2  5  1  0  0  0  0
  3  7  1  6  0  0  0
  3  1  1  0  0  0  0
  3  2  1  0  0  0  0
  8  3  1  0  0  0  0
  8 16  1  0  0  0  0
  9  8  1  0  0  0  0
 10  9  1  0  0  0  0
 11 13  1  0  0  0  0
 11  9  1  0  0  0  0
 12 11  1  0  0  0  0
 13 14  1  0  0  0  0
 14 16  1  0  0  0  0
 15 14  1  0  0  0  0
 17 16  1  0  0  0  0
 18  1  1  0  0  0  0
 18 20  1  0  0  0  0
 19 18  1  0  0  0  0
 21 18  1  0  0  0  0
 22 21  1  0  0  0  0
 23 21  1  0  0  0  0
 24 29  2  0  0  0  0
 24 25  1  0  0  0  0
 25 26  2  0  0  0  0
 26 27  1  0  0  0  0
 26 21  1  0  0  0  0
 28 32  1  0  0  0  0
 28 27  2  0  0  0  0
 29 28  1  0  0  0  0
 30 24  1  0  0  0  0
 31 25  1  0  0  0  0
M  END
>  <minimizedAffinity>
-4.87604666

$$$$

 OpenBabel03252502453D

 32 34  0  0  1  0  0  0  0  0999 V2000
   37.0960   29.5370   38.8510 C   0  0  1  0  0  0  0  0  0  0  0  0
   36.9100   30.2250   37.5420 C   0  0  0  0  0  0  0  0  0  0  0  0
   36.6280   30.9350   38.8250 C   0  0  2  0  0  0  0  0  0  0  0  0
   38.1220   29.2560   39.2140 H   0  0  0  0  0  0  0  0  0  0  0  0
   37.8750   30.3610   37.0150 H   0  0  0  0  0  0  0  0  0  0  0  0
   36.1410   29.9480   36.8090 H   0  0  0  0  0  0  0  0  0  0  0  0
   35.7010   31.3470   39.1750 H   0  0  0  0  0  0  0  0  0  0  0  0
   37.7220   31.9020   39.2280 C   0  0  0  0  0  3  0  0  0  0  0  0
   37.1890   33.2690   39.5420 C   0  0  0  0  0  3  0  0  0  0  0  0
   36.5180   33.3010   40.4330 H   0  0  0  0  0  0  0  0  0  0  0  0
   38.3610   34.1540   39.9750 C   0  0  0  0  0  3  0  0  0  0  0  0
   37.8950   35.1180   40.2690 H   0  0  0  0  0  0  0  0  0  0  0  0
   38.9220   33.6430   41.1400 O   0  0  0  0  0  0  0  0  0  0  0  0
   39.4660   32.4020   40.9540 C   0  0  0  0  0  3  0  0  0  0  0  0
   39.7470   32.0200   41.9790 H   0  0  0  0  0  0  0  0  0  0  0  0
   38.6210   31.3730   40.3260 C   0  0  0  0  0  3  0  0  0  0  0  0
   37.9480   30.9150   41.1020 H   0  0  0  0  0  0  0  0  0  0  0  0
   36.0940   28.4930   39.2310 C   0  0  0  0  0  0  0  0  0  0  0  0
   35.2420   28.6460   38.4960 H   0  0  0  0  0  0  0  0  0  0  0  0
   36.4380   27.4700   39.1170 H   0  0  0  0  0  0  0  0  0  0  0  0
   35.6110   28.8650   40.6180 C   0  0  0  0  0  0  0  0  0  0  0  0
   34.8360   28.0770   40.8820 H   0  0  0  0  0  0  0  0  0  0  0  0
   35.2850   29.8840   40.7470 H   0  0  0  0  0  0  0  0  0  0  0  0
   37.8550   26.6080   42.6040 C   0  0  0  0  0  0  0  0  0  0  0  0
   36.9560   27.0470   41.6100 C   0  0  0  0  0  0  0  0  0  0  0  0
   36.6070   28.3710   41.6100 C   0  0  0  0  0  0  0  0  0  0  0  0
   37.1350   29.2020   42.5530 N   0  0  0  0  0  0  0  0  0  0  0  0
   37.9790   28.7730   43.4780 C   0  0  0  0  0  0  0  0  0  0  0  0
   38.3420   27.4880   43.5120 N   0  0  0  0  0  0  0  0  0  0  0  0
   38.2030   25.5990   42.7100 H   0  0  0  0  0  0  0  0  0  0  0  0
   36.6820   26.2310   40.9660 H   0  0  0  0  0  0  0  0  0  0  0  0
   38.3540   29.4960   44.1920 H   0  0  0  0  0  0  0  0  0  0  0  0
  1  4  1  1  0  0  0
  1 18  1  0  0  0  0
  2  3  1  0  0  0  0
  2  1  1  0  0  0  0
  3  1  1  0  0  0  0
  3  7  1  1  0  0  0
  3  8  1  0  0  0  0
  5  2  1  0  0  0  0
  6  2  1  0  0  0  0
  8  9  1  0  0  0  0
  8 16  1  0  0  0  0
  9 11  1  0  0  0  0
  9 10  1  0  0  0  0
 11 12  1  0  0  0  0
 11 13  1  0  0  0  0
 14 13  1  0  0  0  0
 14 15  1  0  0  0  0
 16 14  1  0  0  0  0
 16 17  1  0  0  0  0
 18 21  1  0  0  0  0
 19 18  1  0  0  0  0
 20 18  1  0  0  0  0
 21 23  1  0  0  0  0
 21 22  1  0  0  0  0
 21 26  1  0  0  0  0
 24 30  1  0  0  0  0
 24 29  1  0  0  0  0
 25 26  1  0  0  0  0
 25 24  2  0  0  0  0
 26 27  2  0  0  0  0
 27 28  1  0  0  0  0
 28 29  2  0  0  0  0
 28 32  1  0  0  0  0
 31 25  1  0  0  0  0
M  END
>  <minimizedAffinity>
-4.76494884

$$$$

 OpenBabel03252502453D

 32 34  0  0  1  0  0  0  0  0999 V2000
   39.6570   27.5310   42.5840 C   0  0  1  0  0  0  0  0  0  0  0  0
   40.0680   26.6090   43.6800 C   0  0  0  0  0  0  0  0  0  0  0  0
   38.7660   26.4230   42.9740 C   0  0  2  0  0  0  0  0  0  0  0  0
   40.2040   27.5420   41.6020 H   0  0  0  0  0  0  0  0  0  0  0  0
   40.9600   26.0160   43.3960 H   0  0  0  0  0  0  0  0  0  0  0  0
   40.1630   26.9110   44.7310 H   0  0  0  0  0  0  0  0  0  0  0  0
   37.7720   26.4620   43.3780 H   0  0  0  0  0  0  0  0  0  0  0  0
   38.7880   25.2990   41.9590 C   0  0  0  0  0  3  0  0  0  0  0  0
   37.6160   24.3740   42.1060 C   0  0  0  0  0  3  0  0  0  0  0  0
   36.6310   24.8530   41.8930 H   0  0  0  0  0  0  0  0  0  0  0  0
   37.7090   23.3040   41.0150 C   0  0  0  0  0  3  0  0  0  0  0  0
   36.7810   22.7050   41.1250 H   0  0  0  0  0  0  0  0  0  0  0  0
   37.6170   23.9060   39.7660 O   0  0  0  0  0  0  0  0  0  0  0  0
   38.6610   24.7550   39.5190 C   0  0  0  0  0  3  0  0  0  0  0  0
   38.4090   25.3000   38.5620 H   0  0  0  0  0  0  0  0  0  0  0  0
   38.9640   25.7780   40.5330 C   0  0  0  0  0  3  0  0  0  0  0  0
   38.2740   26.6550   40.3990 H   0  0  0  0  0  0  0  0  0  0  0  0
   39.2300   28.9130   42.9680 C   0  0  0  0  0  0  0  0  0  0  0  0
   39.7840   29.1140   43.9390 H   0  0  0  0  0  0  0  0  0  0  0  0
   39.5180   29.6890   42.2670 H   0  0  0  0  0  0  0  0  0  0  0  0
   37.7470   28.8230   43.2650 C   0  0  0  0  0  0  0  0  0  0  0  0
   37.5110   29.7510   43.8770 H   0  0  0  0  0  0  0  0  0  0  0  0
   37.4070   27.8960   43.6960 H   0  0  0  0  0  0  0  0  0  0  0  0
   35.4870   28.9070   40.2710 C   0  0  0  0  0  0  0  0  0  0  0  0
   36.1290   28.4430   41.4390 C   0  0  0  0  0  0  0  0  0  0  0  0
   36.9990   29.2950   42.0660 C   0  0  0  0  0  0  0  0  0  0  0  0
   37.2050   30.5390   41.5490 N   0  0  0  0  0  0  0  0  0  0  0  0
   36.5940   30.9590   40.4530 C   0  0  0  0  0  0  0  0  0  0  0  0
   35.7400   30.1560   39.8110 N   0  0  0  0  0  0  0  0  0  0  0  0
   34.7880   28.3370   39.6910 H   0  0  0  0  0  0  0  0  0  0  0  0
   35.8070   27.4440   41.6710 H   0  0  0  0  0  0  0  0  0  0  0  0
   36.8120   31.9610   40.1070 H   0  0  0  0  0  0  0  0  0  0  0  0
  1  4  1  6  0  0  0
  1 18  1  0  0  0  0
  1  3  1  0  0  0  0
  1  2  1  0  0  0  0
  2  6  1  0  0  0  0
  3  7  1  1  0  0  0
  3  2  1  0  0  0  0
  5  2  1  0  0  0  0
  8  9  1  0  0  0  0
  8  3  1  0  0  0  0
 10  9  1  0  0  0  0
 11 12  1  0  0  0  0
 11  9  1  0  0  0  0
 13 11  1  0  0  0  0
 14 13  1  0  0  0  0
 14 16  1  0  0  0  0
 15 14  1  0  0  0  0
 16  8  1  0  0  0  0
 17 16  1  0  0  0  0
 18 21  1  0  0  0  0
 18 19  1  0  0  0  0
 20 18  1  0  0  0  0
 21 23  1  0  0  0  0
 21 22  1  0  0  0  0
 24 25  1  0  0  0  0
 25 31  1  0  0  0  0
 25 26  2  0  0  0  0
 26 21  1  0  0  0  0
 27 26  1  0  0  0  0
 28 27  2  0  0  0  0
 29 24  2  0  0  0  0
 29 28  1  0  0  0  0
 30 24  1  0  0  0  0
 32 28  1  0  0  0  0
M  END
>  <minimizedAffinity>
-4.43409681

$$$$

 OpenBabel03252502453D

 32 34  0  0  1  0  0  0  0  0999 V2000
   37.0650   28.9680   39.9210 C   0  0  1  0  0  0  0  0  0  0  0  0
   36.4980   29.4910   38.6460 C   0  0  0  0  0  0  0  0  0  0  0  0
   36.5060   30.3310   39.8800 C   0  0  2  0  0  0  0  0  0  0  0  0
   38.1660   28.7750   40.0270 H   0  0  0  0  0  0  0  0  0  0  0  0
   37.2830   29.6070   37.8720 H   0  0  0  0  0  0  0  0  0  0  0  0
   35.5890   29.0980   38.1720 H   0  0  0  0  0  0  0  0  0  0  0  0
   35.6720   30.7400   40.4190 H   0  0  0  0  0  0  0  0  0  0  0  0
   37.5940   31.3850   39.8820 C   0  0  0  0  0  3  0  0  0  0  0  0
   37.0400   32.7780   39.9560 C   0  0  0  0  0  3  0  0  0  0  0  0
   36.5040   33.0020   40.9090 H   0  0  0  0  0  0  0  0  0  0  0  0
   38.2140   33.7600   39.9940 C   0  0  0  0  0  3  0  0  0  0  0  0
   37.7440   34.7570   40.1290 H   0  0  0  0  0  0  0  0  0  0  0  0
   38.9630   33.5430   41.1440 O   0  0  0  0  0  0  0  0  0  0  0  0
   39.5400   32.3020   41.1620 C   0  0  0  0  0  3  0  0  0  0  0  0
   39.9860   32.1740   42.1920 H   0  0  0  0  0  0  0  0  0  0  0  0
   38.6690   31.1410   40.9200 C   0  0  0  0  0  3  0  0  0  0  0  0
   38.1400   30.8630   41.8730 H   0  0  0  0  0  0  0  0  0  0  0  0
   36.2720   27.9320   40.6540 C   0  0  0  0  0  0  0  0  0  0  0  0
   35.1910   28.2150   40.4510 H   0  0  0  0  0  0  0  0  0  0  0  0
   36.4110   26.9160   40.2980 H   0  0  0  0  0  0  0  0  0  0  0  0
   36.5620   28.1490   42.1250 C   0  0  0  0  0  0  0  0  0  0  0  0
   35.7370   27.5930   42.6750 H   0  0  0  0  0  0  0  0  0  0  0  0
   36.7030   29.1720   42.4320 H   0  0  0  0  0  0  0  0  0  0  0  0
   39.6650   26.7100   43.6670 C   0  0  0  0  0  0  0  0  0  0  0  0
   38.6430   27.6280   43.3490 C   0  0  0  0  0  0  0  0  0  0  0  0
   37.6280   27.1940   42.5390 C   0  0  0  0  0  0  0  0  0  0  0  0
   37.6410   25.9090   42.0830 N   0  0  0  0  0  0  0  0  0  0  0  0
   38.6070   25.0590   42.3930 C   0  0  0  0  0  0  0  0  0  0  0  0
   39.6160   25.4470   43.1780 N   0  0  0  0  0  0  0  0  0  0  0  0
   40.5120   26.9290   44.2880 H   0  0  0  0  0  0  0  0  0  0  0  0
   38.8260   28.5730   43.8280 H   0  0  0  0  0  0  0  0  0  0  0  0
   38.5450   24.0570   41.9900 H   0  0  0  0  0  0  0  0  0  0  0  0
  1  4  1  1  0  0  0
  1 18  1  0  0  0  0
  2  3  1  0  0  0  0
  2  1  1  0  0  0  0
  3  8  1  0  0  0  0
  3  1  1  0  0  0  0
  3  7  1  1  0  0  0
  5  2  1  0  0  0  0
  6  2  1  0  0  0  0
  8  9  1  0  0  0  0
  8 16  1  0  0  0  0
  9 11  1  0  0  0  0
  9 10  1  0  0  0  0
 11 12  1  0  0  0  0
 11 13  1  0  0  0  0
 13 14  1  0  0  0  0
 14 15  1  0  0  0  0
 16 14  1  0  0  0  0
 16 17  1  0  0  0  0
 18 21  1  0  0  0  0
 19 18  1  0  0  0  0
 20 18  1  0  0  0  0
 21 23  1  0  0  0  0
 21 26  1  0  0  0  0
 21 22  1  0  0  0  0
 24 30  1  0  0  0  0
 25 24  1  0  0  0  0
 25 31  1  0  0  0  0
 26 25  2  0  0  0  0
 27 28  2  0  0  0  0
 27 26  1  0  0  0  0
 28 29  1  0  0  0  0
 29 24  2  0  0  0  0
 32 28  1  0  0  0  0
M  END
>  <minimizedAffinity>
-4.40661573

$$$$

 OpenBabel03252502453D

 32 34  0  0  1  0  0  0  0  0999 V2000
   38.6750   28.1410   42.4500 C   0  0  1  0  0  0  0  0  0  0  0  0
   38.7070   27.2980   43.6790 C   0  0  0  0  0  0  0  0  0  0  0  0
   37.6560   27.0930   42.6390 C   0  0  2  0  0  0  0  0  0  0  0  0
   39.4810   28.0580   41.6730 H   0  0  0  0  0  0  0  0  0  0  0  0
   39.6130   26.6590   43.7080 H   0  0  0  0  0  0  0  0  0  0  0  0
   38.5100   27.6790   44.6890 H   0  0  0  0  0  0  0  0  0  0  0  0
   36.5910   27.1900   42.7320 H   0  0  0  0  0  0  0  0  0  0  0  0
   37.9140   25.8910   41.7530 C   0  0  0  0  0  3  0  0  0  0  0  0
   36.9870   24.7500   42.0540 C   0  0  0  0  0  3  0  0  0  0  0  0
   35.9150   24.9670   41.8360 H   0  0  0  0  0  0  0  0  0  0  0  0
   37.3010   23.6080   41.0840 C   0  0  0  0  0  3  0  0  0  0  0  0
   36.5360   22.8330   41.3020 H   0  0  0  0  0  0  0  0  0  0  0  0
   37.0470   24.0230   39.7820 O   0  0  0  0  0  0  0  0  0  0  0  0
   37.8650   25.0500   39.3960 C   0  0  0  0  0  3  0  0  0  0  0  0
   37.4760   25.4090   38.3980 H   0  0  0  0  0  0  0  0  0  0  0  0
   37.9470   26.2260   40.2760 C   0  0  0  0  0  3  0  0  0  0  0  0
   37.0720   26.9050   40.0800 H   0  0  0  0  0  0  0  0  0  0  0  0
   38.2250   29.5600   42.5990 C   0  0  0  0  0  0  0  0  0  0  0  0
   38.1230   29.7020   43.7210 H   0  0  0  0  0  0  0  0  0  0  0  0
   38.9330   30.3010   42.2440 H   0  0  0  0  0  0  0  0  0  0  0  0
   36.8460   29.6270   41.9750 C   0  0  0  0  0  0  0  0  0  0  0  0
   36.2940   30.4300   42.5610 H   0  0  0  0  0  0  0  0  0  0  0  0
   36.3230   28.6900   41.8850 H   0  0  0  0  0  0  0  0  0  0  0  0
   36.9590   30.6290   38.3610 C   0  0  0  0  0  0  0  0  0  0  0  0
   36.8080   29.8300   39.5140 C   0  0  0  0  0  0  0  0  0  0  0  0
   36.9330   30.4440   40.7320 C   0  0  0  0  0  0  0  0  0  0  0  0
   37.1880   31.7810   40.7830 N   0  0  0  0  0  0  0  0  0  0  0  0
   37.3240   32.5170   39.6910 C   0  0  0  0  0  0  0  0  0  0  0  0
   37.2130   31.9540   38.4840 N   0  0  0  0  0  0  0  0  0  0  0  0
   36.8850   30.2670   37.3530 H   0  0  0  0  0  0  0  0  0  0  0  0
   36.5970   28.8120   39.2400 H   0  0  0  0  0  0  0  0  0  0  0  0
   37.5270   33.5730   39.8160 H   0  0  0  0  0  0  0  0  0  0  0  0
  1  4  1  6  0  0  0
  1 18  1  0  0  0  0
  1  3  1  0  0  0  0
  1  2  1  0  0  0  0
  2  5  1  0  0  0  0
  2  6  1  0  0  0  0
  3  7  1  1  0  0  0
  3  2  1  0  0  0  0
  8  9  1  0  0  0  0
  8  3  1  0  0  0  0
 10  9  1  0  0  0  0
 11 12  1  0  0  0  0
 11  9  1  0  0  0  0
 13 11  1  0  0  0  0
 14 13  1  0  0  0  0
 14 16  1  0  0  0  0
 15 14  1  0  0  0  0
 16  8  1  0  0  0  0
 17 16  1  0  0  0  0
 18 19  1  0  0  0  0
 20 18  1  0  0  0  0
 21 22  1  0  0  0  0
 21 18  1  0  0  0  0
 23 21  1  0  0  0  0
 24 29  2  0  0  0  0
 24 25  1  0  0  0  0
 25 26  2  0  0  0  0
 26 27  1  0  0  0  0
 26 21  1  0  0  0  0
 28 32  1  0  0  0  0
 28 27  2  0  0  0  0
 29 28  1  0  0  0  0
 30 24  1  0  0  0  0
 31 25  1  0  0  0  0
M  END
>  <minimizedAffinity>
-4.39753008

$$$$

 OpenBabel03252502453D

 32 34  0  0  1  0  0  0  0  0999 V2000
   37.8030   28.7280   41.2820 C   0  0  1  0  0  0  0  0  0  0  0  0
   37.3210   29.1080   42.6400 C   0  0  0  0  0  0  0  0  0  0  0  0
   36.7700   27.9080   41.9420 C   0  0  2  0  0  0  0  0  0  0  0  0
   38.8510   28.3560   41.1240 H   0  0  0  0  0  0  0  0  0  0  0  0
   38.1240   29.0080   43.3970 H   0  0  0  0  0  0  0  0  0  0  0  0
   36.7440   30.0170   42.8530 H   0  0  0  0  0  0  0  0  0  0  0  0
   35.7600   27.7140   41.6370 H   0  0  0  0  0  0  0  0  0  0  0  0
   37.3350   26.6010   42.4590 C   0  0  0  0  0  3  0  0  0  0  0  0
   37.0150   25.4450   41.5580 C   0  0  0  0  0  3  0  0  0  0  0  0
   37.4860   25.5120   40.5480 H   0  0  0  0  0  0  0  0  0  0  0  0
   37.6610   24.1860   42.1440 C   0  0  0  0  0  3  0  0  0  0  0  0
   37.4590   23.3900   41.3960 H   0  0  0  0  0  0  0  0  0  0  0  0
   39.0420   24.3390   42.1590 O   0  0  0  0  0  0  0  0  0  0  0  0
   39.4440   25.3570   42.9790 C   0  0  0  0  0  3  0  0  0  0  0  0
   40.5510   25.4940   42.7980 H   0  0  0  0  0  0  0  0  0  0  0  0
   38.8100   26.6720   42.7960 C   0  0  0  0  0  3  0  0  0  0  0  0
   39.3090   27.2160   41.9470 H   0  0  0  0  0  0  0  0  0  0  0  0
   37.3620   29.5760   40.1310 C   0  0  0  0  0  0  0  0  0  0  0  0
   38.3010   29.7050   39.5060 H   0  0  0  0  0  0  0  0  0  0  0  0
   36.6110   29.1220   39.4930 H   0  0  0  0  0  0  0  0  0  0  0  0
   36.9850   30.9190   40.7230 C   0  0  0  0  0  0  0  0  0  0  0  0
   37.3590   30.8840   41.7960 H   0  0  0  0  0  0  0  0  0  0  0  0
   35.9550   31.2120   40.6110 H   0  0  0  0  0  0  0  0  0  0  0  0
   40.1220   32.4750   39.3780 C   0  0  0  0  0  0  0  0  0  0  0  0
   39.1650   31.4970   39.7170 C   0  0  0  0  0  0  0  0  0  0  0  0
   37.9970   31.9230   40.2910 C   0  0  0  0  0  0  0  0  0  0  0  0
   37.8050   33.2550   40.5050 N   0  0  0  0  0  0  0  0  0  0  0  0
   38.7140   34.1610   40.1790 C   0  0  0  0  0  0  0  0  0  0  0  0
   39.8670   33.7840   39.6200 N   0  0  0  0  0  0  0  0  0  0  0  0
   41.0730   32.2690   38.9260 H   0  0  0  0  0  0  0  0  0  0  0  0
   39.5170   30.5180   39.4450 H   0  0  0  0  0  0  0  0  0  0  0  0
   38.4860   35.1990   40.3830 H   0  0  0  0  0  0  0  0  0  0  0  0
  1  4  1  6  0  0  0
  1  3  1  0  0  0  0
  1  2  1  0  0  0  0
  2  6  1  0  0  0  0
  2  5  1  0  0  0  0
  3  7  1  6  0  0  0
  3  8  1  0  0  0  0
  3  2  1  0  0  0  0
  8 16  1  0  0  0  0
  9 11  1  0  0  0  0
  9  8  1  0  0  0  0
 10  9  1  0  0  0  0
 11 13  1  0  0  0  0
 12 11  1  0  0  0  0
 13 14  1  0  0  0  0
 15 14  1  0  0  0  0
 16 14  1  0  0  0  0
 17 16  1  0  0  0  0
 18 21  1  0  0  0  0
 18  1  1  0  0  0  0
 19 18  1  0  0  0  0
 20 18  1  0  0  0  0
 21 22  1  0  0  0  0
 23 21  1  0  0  0  0
 24 29  2  0  0  0  0
 24 25  1  0  0  0  0
 25 26  2  0  0  0  0
 26 27  1  0  0  0  0
 26 21  1  0  0  0  0
 28 32  1  0  0  0  0
 28 27  2  0  0  0  0
 29 28  1  0  0  0  0
 30 24  1  0  0  0  0
 31 25  1  0  0  0  0
M  END
>  <minimizedAffinity>
-4.37845993

$$$$

 OpenBabel03252502453D

 32 34  0  0  1  0  0  0  0  0999 V2000
   36.1840   30.3590   39.7740 C   0  0  1  0  0  0  0  0  0  0  0  0
   35.1810   29.3310   39.3760 C   0  0  0  0  0  0  0  0  0  0  0  0
   36.5410   28.9310   39.8440 C   0  0  2  0  0  0  0  0  0  0  0  0
   36.0350   30.9840   40.6960 H   0  0  0  0  0  0  0  0  0  0  0  0
   34.3150   29.3220   40.0670 H   0  0  0  0  0  0  0  0  0  0  0  0
   34.8170   29.1950   38.3490 H   0  0  0  0  0  0  0  0  0  0  0  0
   37.3040   28.3950   39.3120 H   0  0  0  0  0  0  0  0  0  0  0  0
   36.5610   28.4250   41.2720 C   0  0  0  0  0  3  0  0  0  0  0  0
   37.0180   26.9990   41.3670 C   0  0  0  0  0  3  0  0  0  0  0  0
   38.0780   26.8410   41.0550 H   0  0  0  0  0  0  0  0  0  0  0  0
   37.0410   26.5990   42.8440 C   0  0  0  0  0  3  0  0  0  0  0  0
   37.4610   25.5710   42.8530 H   0  0  0  0  0  0  0  0  0  0  0  0
   37.9660   27.3840   43.5220 O   0  0  0  0  0  0  0  0  0  0  0  0
   37.6250   28.7090   43.5200 C   0  0  0  0  0  3  0  0  0  0  0  0
   38.5080   29.2660   43.9520 H   0  0  0  0  0  0  0  0  0  0  0  0
   37.3140   29.3320   42.2230 C   0  0  0  0  0  3  0  0  0  0  0  0
   38.2690   29.6200   41.7050 H   0  0  0  0  0  0  0  0  0  0  0  0
   36.8170   31.1650   38.6830 C   0  0  0  0  0  0  0  0  0  0  0  0
   37.7220   30.5510   38.3750 H   0  0  0  0  0  0  0  0  0  0  0  0
   36.2010   31.2950   37.7990 H   0  0  0  0  0  0  0  0  0  0  0  0
   37.2970   32.4450   39.3360 C   0  0  0  0  0  0  0  0  0  0  0  0
   37.0200   32.3400   40.4330 H   0  0  0  0  0  0  0  0  0  0  0  0
   36.9740   33.3610   38.8710 H   0  0  0  0  0  0  0  0  0  0  0  0
   40.6200   32.2350   41.0640 C   0  0  0  0  0  0  0  0  0  0  0  0
   39.2240   32.2880   40.8720 C   0  0  0  0  0  0  0  0  0  0  0  0
   38.7610   32.3240   39.5840 C   0  0  0  0  0  0  0  0  0  0  0  0
   39.6530   32.3040   38.5530 N   0  0  0  0  0  0  0  0  0  0  0  0
   40.9600   32.2530   38.7500 C   0  0  0  0  0  0  0  0  0  0  0  0
   41.4500   32.2190   39.9930 N   0  0  0  0  0  0  0  0  0  0  0  0
   41.1050   32.2050   42.0210 H   0  0  0  0  0  0  0  0  0  0  0  0
   38.7150   32.2790   41.8190 H   0  0  0  0  0  0  0  0  0  0  0  0
   41.6010   32.2400   37.8790 H   0  0  0  0  0  0  0  0  0  0  0  0
  1  3  1  0  0  0  0
  1  4  1  1  0  0  0
  2  1  1  0  0  0  0
  2  3  1  0  0  0  0
  2  5  1  0  0  0  0
  3  7  1  6  0  0  0
  3  8  1  0  0  0  0
  6  2  1  0  0  0  0
  8  9  1  0  0  0  0
  8 16  1  0  0  0  0
  9 11  1  0  0  0  0
 10  9  1  0  0  0  0
 11 12  1  0  0  0  0
 11 13  1  0  0  0  0
 14 13  1  0  0  0  0
 14 15  1  0  0  0  0
 16 14  1  0  0  0  0
 17 16  1  0  0  0  0
 18 21  1  0  0  0  0
 18  1  1  0  0  0  0
 19 18  1  0  0  0  0
 20 18  1  0  0  0  0
 21 26  1  0  0  0  0
 21 22  1  0  0  0  0
 23 21  1  0  0  0  0
 24 30  1  0  0  0  0
 25 24  1  0  0  0  0
 25 31  1  0  0  0  0
 26 25  2  0  0  0  0
 27 28  2  0  0  0  0
 27 26  1  0  0  0  0
 28 29  1  0  0  0  0
 29 24  2  0  0  0  0
 32 28  1  0  0  0  0
M  END
>  <minimizedAffinity>
-4.344275

$$$$

 OpenBabel03252502453D

 32 34  0  0  1  0  0  0  0  0999 V2000
   36.0910   28.6590   40.9440 C   0  0  1  0  0  0  0  0  0  0  0  0
   35.8120   28.4660   39.4930 C   0  0  0  0  0  0  0  0  0  0  0  0
   37.0670   27.9390   40.1050 C   0  0  2  0  0  0  0  0  0  0  0  0
   35.4740   28.1390   41.7250 H   0  0  0  0  0  0  0  0  0  0  0  0
   34.9350   27.8070   39.3340 H   0  0  0  0  0  0  0  0  0  0  0  0
   35.7780   29.2840   38.7610 H   0  0  0  0  0  0  0  0  0  0  0  0
   38.0840   28.1940   39.8770 H   0  0  0  0  0  0  0  0  0  0  0  0
   37.0310   26.4450   40.3570 C   0  0  0  0  0  3  0  0  0  0  0  0
   38.1210   25.7160   39.6280 C   0  0  0  0  0  3  0  0  0  0  0  0
   39.1500   25.9800   39.9700 H   0  0  0  0  0  0  0  0  0  0  0  0
   38.0230   24.2300   39.9790 C   0  0  0  0  0  3  0  0  0  0  0  0
   38.8970   23.7620   39.4780 H   0  0  0  0  0  0  0  0  0  0  0  0
   38.2410   24.0600   41.3410 O   0  0  0  0  0  0  0  0  0  0  0  0
   37.2790   24.6670   42.1020 C   0  0  0  0  0  3  0  0  0  0  0  0
   37.6330   24.6030   43.1730 H   0  0  0  0  0  0  0  0  0  0  0  0
   36.9850   26.0830   41.8270 C   0  0  0  0  0  3  0  0  0  0  0  0
   37.7430   26.7320   42.3440 H   0  0  0  0  0  0  0  0  0  0  0  0
   36.4700   30.0340   41.3960 C   0  0  0  0  0  0  0  0  0  0  0  0
   35.5960   30.3640   42.0430 H   0  0  0  0  0  0  0  0  0  0  0  0
   37.3610   30.0800   42.0140 H   0  0  0  0  0  0  0  0  0  0  0  0
   36.5000   30.8900   40.1470 C   0  0  0  0  0  0  0  0  0  0  0  0
   35.6330   31.6150   40.2640 H   0  0  0  0  0  0  0  0  0  0  0  0
   36.5240   30.3580   39.2110 H   0  0  0  0  0  0  0  0  0  0  0  0
   38.3520   34.1480   39.9630 C   0  0  0  0  0  0  0  0  0  0  0  0
   37.3170   33.1990   39.8300 C   0  0  0  0  0  0  0  0  0  0  0  0
   37.5410   31.9420   40.3230 C   0  0  0  0  0  0  0  0  0  0  0  0
   38.7350   31.6600   40.9170 N   0  0  0  0  0  0  0  0  0  0  0  0
   39.6960   32.5630   41.0350 C   0  0  0  0  0  0  0  0  0  0  0  0
   39.5150   33.8000   40.5640 N   0  0  0  0  0  0  0  0  0  0  0  0
   38.2990   35.1630   39.6180 H   0  0  0  0  0  0  0  0  0  0  0  0
   36.4640   33.6410   39.3470 H   0  0  0  0  0  0  0  0  0  0  0  0
   40.6150   32.2600   41.5200 H   0  0  0  0  0  0  0  0  0  0  0  0
  1 18  1  0  0  0  0
  1  4  1  1  0  0  0
  2  3  1  0  0  0  0
  2  1  1  0  0  0  0
  3  7  1  6  0  0  0
  3  8  1  0  0  0  0
  3  1  1  0  0  0  0
  5  2  1  0  0  0  0
  6  2  1  0  0  0  0
  8 16  1  0  0  0  0
  9 10  1  0  0  0  0
  9 11  1  0  0  0  0
  9  8  1  0  0  0  0
 11 13  1  0  0  0  0
 12 11  1  0  0  0  0
 13 14  1  0  0  0  0
 14 15  1  0  0  0  0
 16 14  1  0  0  0  0
 16 17  1  0  0  0  0
 18 20  1  0  0  0  0
 18 19  1  0  0  0  0
 21 22  1  0  0  0  0
 21 26  1  0  0  0  0
 21 18  1  0  0  0  0
 23 21  1  0  0  0  0
 24 29  1  0  0  0  0
 25 24  2  0  0  0  0
 25 26  1  0  0  0  0
 26 27  2  0  0  0  0
 27 28  1  0  0  0  0
 28 32  1  0  0  0  0
 29 28  2  0  0  0  0
 30 24  1  0  0  0  0
 31 25  1  0  0  0  0
M  END
>  <minimizedAffinity>
-4.33077478

$$$$

 OpenBabel03252502453D

 32 34  0  0  1  0  0  0  0  0999 V2000
   38.0910   25.7960   41.7890 C   0  0  1  0  0  0  0  0  0  0  0  0
   38.2920   24.3630   42.1470 C   0  0  0  0  0  0  0  0  0  0  0  0
   36.9700   24.8480   41.6510 C   0  0  2  0  0  0  0  0  0  0  0  0
   38.6070   26.2460   40.8980 H   0  0  0  0  0  0  0  0  0  0  0  0
   39.0120   23.8720   41.4630 H   0  0  0  0  0  0  0  0  0  0  0  0
   38.4740   24.0070   43.1690 H   0  0  0  0  0  0  0  0  0  0  0  0
   36.0210   24.8420   42.1530 H   0  0  0  0  0  0  0  0  0  0  0  0
   36.7060   24.4960   40.2020 C   0  0  0  0  0  3  0  0  0  0  0  0
   35.5750   23.5220   40.0470 C   0  0  0  0  0  3  0  0  0  0  0  0
   34.5840   23.9240   40.3670 H   0  0  0  0  0  0  0  0  0  0  0  0
   35.3630   23.2650   38.5530 C   0  0  0  0  0  3  0  0  0  0  0  0
   34.4700   22.6080   38.5030 H   0  0  0  0  0  0  0  0  0  0  0  0
   34.9890   24.4480   37.9270 O   0  0  0  0  0  0  0  0  0  0  0  0
   35.9700   25.4010   37.9870 C   0  0  0  0  0  3  0  0  0  0  0  0
   35.5100   26.3560   37.5950 H   0  0  0  0  0  0  0  0  0  0  0  0
   36.5450   25.7070   39.3060 C   0  0  0  0  0  3  0  0  0  0  0  0
   35.8730   26.4250   39.8520 H   0  0  0  0  0  0  0  0  0  0  0  0
   38.0110   26.7830   42.9110 C   0  0  0  0  0  0  0  0  0  0  0  0
   38.0890   26.1440   43.8470 H   0  0  0  0  0  0  0  0  0  0  0  0
   38.8240   27.5010   42.9430 H   0  0  0  0  0  0  0  0  0  0  0  0
   36.6200   27.3780   42.8430 C   0  0  0  0  0  0  0  0  0  0  0  0
   36.5010   27.9610   43.8120 H   0  0  0  0  0  0  0  0  0  0  0  0
   35.8210   26.6890   42.6270 H   0  0  0  0  0  0  0  0  0  0  0  0
   35.8320   29.9300   40.2090 C   0  0  0  0  0  0  0  0  0  0  0  0
   35.7110   28.7940   41.0360 C   0  0  0  0  0  0  0  0  0  0  0  0
   36.6730   28.5990   41.9910 C   0  0  0  0  0  0  0  0  0  0  0  0
   37.6910   29.4970   42.1070 N   0  0  0  0  0  0  0  0  0  0  0  0
   37.7890   30.5600   41.3230 C   0  0  0  0  0  0  0  0  0  0  0  0
   36.8710   30.7830   40.3780 N   0  0  0  0  0  0  0  0  0  0  0  0
   35.1460   30.1920   39.4260 H   0  0  0  0  0  0  0  0  0  0  0  0
   34.8280   28.2370   40.7800 H   0  0  0  0  0  0  0  0  0  0  0  0
   38.6280   31.2250   41.4790 H   0  0  0  0  0  0  0  0  0  0  0  0
  1  4  1  6  0  0  0
  1  2  1  0  0  0  0
  1 18  1  0  0  0  0
  2  6  1  0  0  0  0
  3  1  1  0  0  0  0
  3  2  1  0  0  0  0
  3  7  1  1  0  0  0
  5  2  1  0  0  0  0
  8  3  1  0  0  0  0
  9  8  1  0  0  0  0
  9 10  1  0  0  0  0
 11  9  1  0  0  0  0
 12 11  1  0  0  0  0
 13 14  1  0  0  0  0
 13 11  1  0  0  0  0
 14 16  1  0  0  0  0
 15 14  1  0  0  0  0
 16 17  1  0  0  0  0
 16  8  1  0  0  0  0
 18 20  1  0  0  0  0
 18 19  1  0  0  0  0
 21 18  1  0  0  0  0
 21 22  1  0  0  0  0
 23 21  1  0  0  0  0
 24 29  2  0  0  0  0
 24 25  1  0  0  0  0
 25 26  2  0  0  0  0
 26 27  1  0  0  0  0
 26 21  1  0  0  0  0
 28 32  1  0  0  0  0
 28 27  2  0  0  0  0
 29 28  1  0  0  0  0
 30 24  1  0  0  0  0
 31 25  1  0  0  0  0
M  END
>  <minimizedAffinity>
-4.32809162

$$$$
