
 OpenBabel03242518403D

 40 43  0  0  1  0  0  0  0  0999 V2000
   47.2850   33.3400   41.4130 O   0  0  0  0  0  0  0  0  0  0  0  0
   47.4280   33.5910   40.0240 C   0  0  0  0  0  0  0  0  0  0  0  0
   48.3770   34.3260   39.3020 C   0  0  0  0  0  0  0  0  0  0  0  0
   48.0570   34.2550   37.9580 C   0  0  0  0  0  0  0  0  0  0  0  0
   46.9380   33.4860   37.9200 C   0  0  0  0  0  0  0  0  0  0  0  0
   46.5780   33.1030   39.1290 O   0  0  0  0  0  0  0  0  0  0  0  0
   49.1960   34.8350   39.8250 H   0  0  0  0  0  0  0  0  0  0  0  0
   48.6330   34.7380   37.1790 H   0  0  0  0  0  0  0  0  0  0  0  0
   46.2030   33.1160   36.6870 C   0  0  2  0  0  0  0  0  0  0  0  0
   45.7400   31.7440   36.4840 C   0  0  0  0  0  0  0  0  0  0  0  0
   46.9890   32.1340   35.7820 C   0  0  1  0  0  0  0  0  0  0  0  0
   45.7170   33.9610   36.1730 H   0  0  0  0  0  0  0  0  0  0  0  0
   44.7950   31.5450   35.9240 H   0  0  0  0  0  0  0  0  0  0  0  0
   45.8600   31.0290   37.3390 H   0  0  0  0  0  0  0  0  0  0  0  0
   47.9510   31.7850   36.1500 H   0  0  0  0  0  0  0  0  0  0  0  0
   48.0210   32.4730   33.5510 C   0  0  0  0  0  0  0  0  0  0  0  0
   49.1930   32.3210   34.0000 O   0  0  0  0  0  0  0  0  0  0  0  0
   46.8590   32.4620   34.3640 N   0  0  0  0  0  0  0  0  0  0  0  0
   47.8130   32.6260   32.4810 H   0  0  0  0  0  0  0  0  0  0  0  0
   45.9130   32.6790   33.9940 H   0  0  0  0  0  0  0  0  0  0  0  0
   47.2600   34.4510   42.2920 C   0  0  0  0  0  0  0  0  0  0  0  0
   47.8020   35.5150   41.8780 O   0  0  0  0  0  0  0  0  0  0  0  0
   46.6280   34.2440   43.5490 C   0  0  0  0  0  0  0  0  0  0  0  0
   45.5930   35.0760   43.8360 C   0  0  0  0  0  0  0  0  0  0  0  0
   44.9270   34.9310   45.0500 C   0  0  0  0  0  0  0  0  0  0  0  0
   45.3360   33.9680   45.8930 N   0  0  0  0  0  0  0  0  0  0  0  0
   46.3630   33.1550   45.5890 C   0  0  0  0  0  0  0  0  0  0  0  0
   46.9750   33.3250   44.4190 N   0  0  0  0  0  0  0  0  0  0  0  0
   45.1970   35.8780   43.2170 H   0  0  0  0  0  0  0  0  0  0  0  0
   44.0950   35.5670   45.3310 H   0  0  0  0  0  0  0  0  0  0  0  0
   46.9020   32.0610   46.4390 C   0  0  0  0  0  0  0  0  0  0  0  0
   47.1910   32.5240   47.8400 C   0  0  0  0  0  0  0  0  0  0  0  0
   47.4250   33.6020   47.8180 H   0  0  0  0  0  0  0  0  0  0  0  0
   46.0350   32.2730   48.7650 C   0  0  0  0  0  0  0  0  0  0  0  0
   46.2530   32.7270   49.7490 H   0  0  0  0  0  0  0  0  0  0  0  0
   45.8340   30.9060   48.9180 O   0  0  0  0  0  0  0  0  0  0  0  0
   46.1790   30.1660   47.8050 C   0  0  0  0  0  0  0  0  0  0  0  0
   45.6110   29.2070   47.8320 H   0  0  0  0  0  0  0  0  0  0  0  0
   45.9200   30.9260   46.5160 C   0  0  0  0  0  0  0  0  0  0  0  0
   44.8720   31.3120   46.5090 H   0  0  0  0  0  0  0  0  0  0  0  0
  1 21  1  0  0  0  0
  2  1  1  0  0  0  0
  3  7  1  0  0  0  0
  3  2  2  0  0  0  0
  4  3  1  0  0  0  0
  5  4  2  0  0  0  0
  5  6  1  0  0  0  0
  6  2  1  0  0  0  0
  8  4  1  0  0  0  0
  9 12  1  6  0  0  0
  9  5  1  0  0  0  0
 10  9  1  0  0  0  0
 10 14  1  0  0  0  0
 11 15  1  1  0  0  0
 11 10  1  0  0  0  0
 11  9  1  0  0  0  0
 13 10  1  0  0  0  0
 16 17  2  0  0  0  0
 16 18  1  0  0  0  0
 18 11  1  0  0  0  0
 19 16  1  0  0  0  0
 20 18  1  0  0  0  0
 21 23  1  0  0  0  0
 22 21  2  0  0  0  0
 23 24  2  0  0  0  0
 23 28  1  0  0  0  0
 24 25  1  0  0  0  0
 25 30  1  0  0  0  0
 25 26  2  0  0  0  0
 27 26  1  0  0  0  0
 27 31  1  0  0  0  0
 28 27  2  0  0  0  0
 29 24  1  0  0  0  0
 31 39  1  0  0  0  0
 31 32  1  0  0  0  0
 32 34  1  0  0  0  0
 33 32  1  0  0  0  0
 34 36  1  0  0  0  0
 34 35  1  0  0  0  0
 37 38  1  0  0  0  0
 37 36  1  0  0  0  0
 39 37  1  0  0  0  0
 40 39  1  0  0  0  0
M  END
>  <minimizedAffinity>
-5.83480358

>  <minimizedRMSD>
1.14382172

$$$$
