
 OpenBabel03252506463D

 43 46  0  0  1  0  0  0  0  0999 V2000
   49.3760   33.3920   41.3730 N   0  0  1  0  0  0  0  0  0  0  0  0
   50.6480   33.0940   42.0160 C   0  0  0  0  0  0  0  0  0  0  0  0
   51.2260   31.7750   41.5990 C   0  0  0  0  0  0  0  0  0  0  0  0
   50.3370   30.6720   42.1530 C   0  0  0  0  0  0  0  0  0  0  0  0
   48.8860   31.0810   42.0770 C   0  0  0  0  0  0  0  0  0  0  0  0
   48.7240   32.1690   41.0440 C   0  0  2  0  0  0  0  0  0  0  0  0
   50.5740   33.0850   43.1180 H   0  0  0  0  0  0  0  0  0  0  0  0
   51.3590   33.9050   41.7420 H   0  0  0  0  0  0  0  0  0  0  0  0
   52.2220   31.7050   42.0750 H   0  0  0  0  0  0  0  0  0  0  0  0
   51.3480   31.6860   40.4950 H   0  0  0  0  0  0  0  0  0  0  0  0
   50.6480   30.3570   43.1610 H   0  0  0  0  0  0  0  0  0  0  0  0
   50.4960   29.8000   41.4850 H   0  0  0  0  0  0  0  0  0  0  0  0
   48.2150   30.2550   41.8780 H   0  0  0  0  0  0  0  0  0  0  0  0
   48.6320   31.5300   43.0720 H   0  0  0  0  0  0  0  0  0  0  0  0
   47.6270   32.3990   41.0130 H   0  0  0  0  0  0  0  0  0  0  0  0
   47.2740   34.7400   41.9890 C   0  0  1  0  0  0  0  0  0  0  0  0
   48.4040   35.6350   41.7670 C   0  0  0  0  0  0  0  0  0  0  0  0
   48.6790   34.2580   42.2690 C   0  0  2  0  0  0  0  0  0  0  0  0
   46.8150   34.1740   41.1350 H   0  0  0  0  0  0  0  0  0  0  0  0
   48.6880   35.8860   40.7200 H   0  0  0  0  0  0  0  0  0  0  0  0
   48.5490   36.4930   42.4660 H   0  0  0  0  0  0  0  0  0  0  0  0
   48.9370   34.1670   43.3440 H   0  0  0  0  0  0  0  0  0  0  0  0
   45.5300   36.0940   43.1740 C   0  0  0  0  0  0  0  0  0  0  0  0
   46.3480   34.9410   43.1100 C   0  0  0  0  0  0  0  0  0  0  0  0
   46.2320   34.0170   44.1480 C   0  0  0  0  0  0  0  0  0  0  0  0
   45.3520   34.2760   45.1440 N   0  0  0  0  0  0  0  0  0  0  0  0
   44.5870   35.3740   45.1850 C   0  0  0  0  0  0  0  0  0  0  0  0
   44.6670   36.3010   44.1970 N   0  0  0  0  0  0  0  0  0  0  0  0
   45.5970   36.8420   42.3730 H   0  0  0  0  0  0  0  0  0  0  0  0
   46.8430   33.1130   44.1390 H   0  0  0  0  0  0  0  0  0  0  0  0
   43.8830   35.5860   45.9780 H   0  0  0  0  0  0  0  0  0  0  0  0
   49.0670   31.6780   39.7430 N   0  0  0  0  0  0  0  0  0  0  0  0
   50.0110   32.0290   39.4830 H   0  0  0  0  0  0  0  0  0  0  0  0
   48.0810   31.7330   38.7560 C   0  0  0  0  0  3  0  0  0  0  0  0
   48.7270   31.3490   37.4240 C   0  0  0  0  0  3  0  0  0  0  0  0
   47.9690   31.0150   36.7060 H   0  0  0  0  0  0  0  0  0  0  0  0
   49.4220   32.5620   36.8100 C   0  0  0  0  0  3  0  0  0  0  0  0
   49.7900   32.2490   35.8190 H   0  0  0  0  0  0  0  0  0  0  0  0
   48.5520   33.6350   36.6370 O   0  0  0  0  0  0  0  0  0  0  0  0
   48.2250   34.0990   37.9200 C   0  0  0  0  0  3  0  0  0  0  0  0
   49.1150   34.3300   38.5330 H   0  0  0  0  0  0  0  0  0  0  0  0
   47.3580   33.0130   38.5450 C   0  0  0  0  0  3  0  0  0  0  0  0
   46.5790   32.7960   37.7650 H   0  0  0  0  0  0  0  0  0  0  0  0
  1  2  1  1  0  0  0
  1 18  1  0  0  0  0
  2  7  1  0  0  0  0
  3  2  1  0  0  0  0
  3  9  1  0  0  0  0
  3  4  1  0  0  0  0
  4 11  1  0  0  0  0
  5  4  1  0  0  0  0
  5 14  1  0  0  0  0
  6 15  1  6  0  0  0
  6  1  1  0  0  0  0
  6  5  1  0  0  0  0
  8  2  1  0  0  0  0
 10  3  1  0  0  0  0
 12  4  1  0  0  0  0
 13  5  1  0  0  0  0
 16 19  1  6  0  0  0
 16 18  1  0  0  0  0
 16 24  1  0  0  0  0
 17 16  1  0  0  0  0
 17 18  1  0  0  0  0
 17 21  1  0  0  0  0
 18 22  1  1  0  0  0
 20 17  1  0  0  0  0
 23 28  1  0  0  0  0
 24 23  2  0  0  0  0
 24 25  1  0  0  0  0
 25 26  2  0  0  0  0
 26 27  1  0  0  0  0
 27 31  1  0  0  0  0
 28 27  2  0  0  0  0
 29 23  1  0  0  0  0
 30 25  1  0  0  0  0
 32  6  1  0  0  0  0
 33 32  1  0  0  0  0
 34 32  1  0  0  0  0
 35 34  1  0  0  0  0
 36 35  1  0  0  0  0
 37 35  1  0  0  0  0
 38 37  1  0  0  0  0
 39 37  1  0  0  0  0
 39 40  1  0  0  0  0
 40 41  1  0  0  0  0
 40 42  1  0  0  0  0
 42 34  1  0  0  0  0
 43 42  1  0  0  0  0
M  END
>  <minimizedAffinity>
-5.15869188

>  <minimizedRMSD>
1.92260325

$$$$
