
 OpenBabel03252506573D

 39 43  0  0  0  0  0  0  0  0999 V2000
   47.1760   31.3270   45.1270 C   0  0  0  0  0  0  0  0  0  0  0  0
   46.8720   32.6760   45.1180 C   0  0  0  0  0  0  0  0  0  0  0  0
   46.2940   33.3310   46.1990 C   0  0  0  0  0  0  0  0  0  0  0  0
   45.9970   32.6280   47.3570 C   0  0  0  0  0  0  0  0  0  0  0  0
   45.4530   32.9190   48.5640 N   0  0  0  0  0  0  0  0  0  0  0  0
   45.4190   31.7810   49.3060 C   0  0  0  0  0  0  0  0  0  0  0  0
   45.9460   30.7910   48.5460 N   0  0  0  0  0  0  0  0  0  0  0  0
   46.3100   31.2790   47.3430 C   0  0  0  0  0  0  0  0  0  0  0  0
   46.8810   30.6080   46.2890 C   0  0  0  0  0  0  0  0  0  0  0  0
   47.6250   30.8330   44.2780 H   0  0  0  0  0  0  0  0  0  0  0  0
   46.0550   34.3840   46.1950 H   0  0  0  0  0  0  0  0  0  0  0  0
   45.1220   33.8800   48.8440 H   0  0  0  0  0  0  0  0  0  0  0  0
   45.0410   31.6790   50.3190 H   0  0  0  0  0  0  0  0  0  0  0  0
   46.5910   35.1470   42.4020 C   0  0  0  0  0  0  0  0  0  0  0  0
   47.7540   34.9290   41.6720 C   0  0  0  0  0  0  0  0  0  0  0  0
   48.6390   33.9270   42.1140 C   0  0  0  0  0  0  0  0  0  0  0  0
   48.3130   33.2210   43.2370 N   0  0  0  0  0  0  0  0  0  0  0  0
   47.1640   33.4660   43.9240 C   0  0  0  0  0  0  0  0  0  0  0  0
   46.3150   34.4160   43.5130 N   0  0  0  0  0  0  0  0  0  0  0  0
   45.9290   35.9200   42.0440 H   0  0  0  0  0  0  0  0  0  0  0  0
   47.9480   35.5260   40.7920 H   0  0  0  0  0  0  0  0  0  0  0  0
   49.5420   33.7370   41.5720 H   0  0  0  0  0  0  0  0  0  0  0  0
   47.1690   29.1720   46.3890 C   0  0  0  0  0  0  0  0  0  0  0  0
   48.4570   28.6400   46.3320 C   0  0  0  0  0  0  0  0  0  0  0  0
   48.2320   27.2620   46.4680 C   0  0  0  0  0  0  0  0  0  0  0  0
   46.8610   27.0500   46.5960 C   0  0  0  0  0  0  0  0  0  0  0  0
   46.2780   28.2400   46.5400 O   0  0  0  0  0  0  0  0  0  0  0  0
   49.4170   29.1070   46.2150 H   0  0  0  0  0  0  0  0  0  0  0  0
   48.9650   26.4550   46.4780 H   0  0  0  0  0  0  0  0  0  0  0  0
   46.1160   25.7920   46.7630 C   0  0  0  0  0  3  0  0  0  0  0  0
   46.7570   24.8760   47.7550 C   0  0  0  0  0  3  0  0  0  0  0  0
   47.2850   25.4110   48.5690 H   0  0  0  0  0  0  0  0  0  0  0  0
   45.6400   23.9940   48.3220 C   0  0  0  0  0  3  0  0  0  0  0  0
   44.9900   24.5700   49.0180 H   0  0  0  0  0  0  0  0  0  0  0  0
   44.8380   23.6670   47.2260 O   0  0  0  0  0  0  0  0  0  0  0  0
   43.9500   24.7360   46.9800 C   0  0  0  0  0  3  0  0  0  0  0  0
   43.5740   24.6640   45.9350 H   0  0  0  0  0  0  0  0  0  0  0  0
   44.6860   26.0360   47.2240 C   0  0  0  0  0  3  0  0  0  0  0  0
   44.2540   26.7810   46.5020 H   0  0  0  0  0  0  0  0  0  0  0  0
  1  9  1  0  0  0  0
  2  1  2  0  0  0  0
  2  3  1  0  0  0  0
  3  4  2  0  0  0  0
  4  5  1  0  0  0  0
  5 12  1  0  0  0  0
  5  6  1  0  0  0  0
  6 13  1  0  0  0  0
  7  6  2  0  0  0  0
  8  4  1  0  0  0  0
  8  7  1  0  0  0  0
  9 23  1  0  0  0  0
  9  8  2  0  0  0  0
 10  1  1  0  0  0  0
 11  3  1  0  0  0  0
 14 19  1  0  0  0  0
 15 16  1  0  0  0  0
 15 14  2  0  0  0  0
 16 17  2  0  0  0  0
 17 18  1  0  0  0  0
 18  2  1  0  0  0  0
 19 18  2  0  0  0  0
 20 14  1  0  0  0  0
 21 15  1  0  0  0  0
 22 16  1  0  0  0  0
 23 27  1  0  0  0  0
 24 23  2  0  0  0  0
 24 25  1  0  0  0  0
 25 29  1  0  0  0  0
 25 26  2  0  0  0  0
 26 30  1  0  0  0  0
 27 26  1  0  0  0  0
 28 24  1  0  0  0  0
 30 38  1  0  0  0  0
 30 31  1  0  0  0  0
 31 33  1  0  0  0  0
 31 32  1  0  0  0  0
 33 34  1  0  0  0  0
 35 33  1  0  0  0  0
 36 38  1  0  0  0  0
 36 35  1  0  0  0  0
 37 36  1  0  0  0  0
 39 38  1  0  0  0  0
M  END
>  <minimizedAffinity>
-5.73783493

>  <minimizedRMSD>
0.481056333

$$$$
