
 OpenBabel03242519393D

 28 29  0  0  0  0  0  0  0  0999 V2000
   48.1630   32.8970   41.6940 O   0  0  0  0  0  0  0  0  0  0  0  0
   47.2070   34.0050   41.2360 P   0  0  2  0  0  0  0  0  0  0  0  0
   45.6690   33.6990   41.9190 O   0  0  0  0  0  0  0  0  0  0  0  0
   44.4130   35.8610   44.6020 C   0  0  0  0  0  0  0  0  0  0  0  0
   44.6990   35.4090   43.2880 C   0  0  0  0  0  0  0  0  0  0  0  0
   45.3680   34.1810   43.1890 C   0  0  0  0  0  0  0  0  0  0  0  0
   45.7030   33.5000   44.3110 N   0  0  0  0  0  0  0  0  0  0  0  0
   45.4030   33.9810   45.5460 C   0  0  0  0  0  0  0  0  0  0  0  0
   44.7600   35.1580   45.6920 N   0  0  0  0  0  0  0  0  0  0  0  0
   43.9060   36.7870   44.7460 H   0  0  0  0  0  0  0  0  0  0  0  0
   44.4100   35.9920   42.4400 H   0  0  0  0  0  0  0  0  0  0  0  0
   45.7310   33.3300   46.3460 H   0  0  0  0  0  0  0  0  0  0  0  0
   47.0990   34.0860   39.5830 O   0  0  0  0  0  0  0  0  0  0  0  0
   47.7550   33.0210   39.0210 C   0  0  0  0  0  0  0  0  0  0  0  0
   46.8580   31.8900   38.6190 C   0  0  0  0  0  0  0  0  0  0  0  0
   46.4350   31.4700   39.5760 H   0  0  0  0  0  0  0  0  0  0  0  0
   47.7120   30.8020   38.0110 C   0  0  0  0  0  0  0  0  0  0  0  0
   46.9980   30.1300   37.4650 H   0  0  0  0  0  0  0  0  0  0  0  0
   48.6100   31.2420   37.0680 O   0  0  0  0  0  0  0  0  0  0  0  0
   49.4850   32.2130   37.5440 C   0  0  0  0  0  0  0  0  0  0  0  0
   50.2490   32.3960   36.7870 H   0  0  0  0  0  0  0  0  0  0  0  0
   48.5990   33.4360   37.8150 C   0  0  0  0  0  0  0  0  0  0  0  0
   47.9220   33.6030   36.9410 H   0  0  0  0  0  0  0  0  0  0  0  0
   47.7830   35.4520   41.9000 O   0  0  0  0  0  0  0  0  0  0  0  0
   49.0340   35.7910   41.4210 C   0  0  0  0  0  0  0  0  0  0  0  0
   49.4610   37.0410   41.8630 F   0  0  0  0  0  0  0  0  0  0  0  0
   49.9280   34.7960   41.7180 F   0  0  0  0  0  0  0  0  0  0  0  0
   48.9220   35.8880   40.0360 F   0  0  0  0  0  0  0  0  0  0  0  0
  2  1  2  1  0  0  0
  2 24  1  0  0  0  0
  2  3  1  0  0  0  0
  3  6  1  0  0  0  0
  4 10  1  0  0  0  0
  4  9  1  0  0  0  0
  5  4  2  0  0  0  0
  6  5  1  0  0  0  0
  6  7  2  0  0  0  0
  7  8  1  0  0  0  0
  8  9  2  0  0  0  0
  8 12  1  0  0  0  0
 11  5  1  0  0  0  0
 13  2  1  0  0  0  0
 14 13  1  0  0  0  0
 15 14  1  0  0  0  0
 15 16  1  0  0  0  0
 17 15  1  0  0  0  0
 18 17  1  0  0  0  0
 19 20  1  0  0  0  0
 19 17  1  0  0  0  0
 20 22  1  0  0  0  0
 21 20  1  0  0  0  0
 22 14  1  0  0  0  0
 23 22  1  0  0  0  0
 25 27  1  0  0  0  0
 25 26  1  0  0  0  0
 25 24  1  0  0  0  0
 28 25  1  0  0  0  0
M  END
>  <minimizedAffinity>
-5.06027079

>  <minimizedRMSD>
2.53730631

$$$$
