
 OpenBabel03242518183D

 24 25  0  0  0  0  0  0  0  0999 V2000
   46.7160   32.7770   46.6070 C   0  0  0  0  0  0  0  0  0  0  0  0
   47.7850   32.5010   46.4100 H   0  0  0  0  0  0  0  0  0  0  0  0
   46.5900   33.1850   47.6220 H   0  0  0  0  0  0  0  0  0  0  0  0
   45.9360   31.5030   46.5160 C   0  0  0  0  0  3  0  0  0  0  0  0
   45.5540   31.0220   47.8910 C   0  0  0  0  0  3  0  0  0  0  0  0
   46.4300   31.1140   48.5410 H   0  0  0  0  0  0  0  0  0  0  0  0
   44.9620   29.6370   47.8690 C   0  0  0  0  0  3  0  0  0  0  0  0
   45.0400   29.2320   48.9060 H   0  0  0  0  0  0  0  0  0  0  0  0
   45.6470   28.7680   47.0420 O   0  0  0  0  0  0  0  0  0  0  0  0
   45.7560   29.2190   45.7410 C   0  0  0  0  0  3  0  0  0  0  0  0
   44.8130   29.6250   45.3150 H   0  0  0  0  0  0  0  0  0  0  0  0
   46.7080   30.4210   45.7760 C   0  0  0  0  0  3  0  0  0  0  0  0
   47.6070   30.2030   46.3980 H   0  0  0  0  0  0  0  0  0  0  0  0
   44.6010   35.3090   45.0350 C   0  0  0  0  0  0  0  0  0  0  0  0
   45.1020   35.4090   43.7300 C   0  0  0  0  0  0  0  0  0  0  0  0
   46.1670   34.6040   43.3930 C   0  0  0  0  0  0  0  0  0  0  0  0
   46.6840   33.7590   44.3190 N   0  0  0  0  0  0  0  0  0  0  0  0
   46.1830   33.6860   45.5600 C   0  0  0  0  0  0  0  0  0  0  0  0
   45.1420   34.4590   45.9220 N   0  0  0  0  0  0  0  0  0  0  0  0
   43.7700   35.9110   45.3610 H   0  0  0  0  0  0  0  0  0  0  0  0
   46.5260   34.7020   42.3930 H   0  0  0  0  0  0  0  0  0  0  0  0
   44.4480   36.3380   42.8920 N   0  0  0  0  0  0  0  0  0  0  0  0
   43.8630   35.9230   42.1140 H   0  0  0  0  0  0  0  0  0  0  0  0
   44.6120   37.3470   43.1310 H   0  0  0  0  0  0  0  0  0  0  0  0
  1  3  1  0  0  0  0
  2  1  1  0  0  0  0
  4  1  1  0  0  0  0
  4  5  1  0  0  0  0
  5  6  1  0  0  0  0
  7  5  1  0  0  0  0
  7  8  1  0  0  0  0
  9  7  1  0  0  0  0
 10 12  1  0  0  0  0
 10  9  1  0  0  0  0
 11 10  1  0  0  0  0
 12 13  1  0  0  0  0
 12  4  1  0  0  0  0
 14 20  1  0  0  0  0
 14 19  1  0  0  0  0
 15 14  2  0  0  0  0
 16 15  1  0  0  0  0
 16 17  2  0  0  0  0
 17 18  1  0  0  0  0
 18 19  2  0  0  0  0
 18  1  1  0  0  0  0
 21 16  1  0  0  0  0
 22 24  1  0  0  0  0
 22 15  1  0  0  0  0
 23 22  1  0  0  0  0
M  END
>  <minimizedAffinity>
-4.15416145

>  <minimizedRMSD>
1.39319849

$$$$
