
 OpenBabel03252500473D

 27 29  0  0  0  0  0  0  0  0999 V2000
   44.8350   35.0320   45.6940 C   0  0  0  0  0  0  0  0  0  0  0  0
   45.2120   35.5690   44.4390 C   0  0  0  0  0  0  0  0  0  0  0  0
   46.0400   34.8120   43.6220 C   0  0  0  0  0  0  0  0  0  0  0  0
   46.4400   33.5920   44.0820 N   0  0  0  0  0  0  0  0  0  0  0  0
   46.0670   33.1120   45.2720 C   0  0  0  0  0  0  0  0  0  0  0  0
   45.2710   33.8050   46.0930 N   0  0  0  0  0  0  0  0  0  0  0  0
   44.1950   35.5340   46.4110 H   0  0  0  0  0  0  0  0  0  0  0  0
   46.3120   35.2290   42.6880 H   0  0  0  0  0  0  0  0  0  0  0  0
   44.6720   36.9320   44.1030 C   0  0  0  0  0  3  0  0  0  0  0  0
   45.6210   37.6760   43.1940 C   0  0  0  0  0  3  0  0  0  0  0  0
   45.4100   37.2640   42.1610 H   0  0  0  0  0  0  0  0  0  0  0  0
   45.3090   39.1350   43.1000 C   0  0  0  0  0  3  0  0  0  0  0  0
   46.1670   39.6310   42.5990 H   0  0  0  0  0  0  0  0  0  0  0  0
   45.1780   39.7500   44.3400 O   0  0  0  0  0  0  0  0  0  0  0  0
   45.4920   38.8370   45.3750 C   0  0  0  0  0  3  0  0  0  0  0  0
   45.4240   39.3700   46.3460 H   0  0  0  0  0  0  0  0  0  0  0  0
   44.4420   37.7620   45.3230 C   0  0  0  0  0  3  0  0  0  0  0  0
   44.3870   37.1700   46.2590 H   0  0  0  0  0  0  0  0  0  0  0  0
   46.5290   31.7970   45.7080 C   0  0  0  0  0  0  0  0  0  0  0  0
   47.3980   31.0520   44.9590 C   0  0  0  0  0  0  0  0  0  0  0  0
   47.8620   29.8090   45.3280 C   0  0  0  0  0  0  0  0  0  0  0  0
   47.4040   29.3310   46.5130 N   0  0  0  0  0  0  0  0  0  0  0  0
   46.5460   30.0610   47.2590 C   0  0  0  0  0  0  0  0  0  0  0  0
   46.0760   31.2970   46.9060 N   0  0  0  0  0  0  0  0  0  0  0  0
   47.7530   31.4490   44.0170 H   0  0  0  0  0  0  0  0  0  0  0  0
   48.5420   29.2450   44.7260 H   0  0  0  0  0  0  0  0  0  0  0  0
   46.2290   29.6100   48.1900 H   0  0  0  0  0  0  0  0  0  0  0  0
  1  6  1  0  0  0  0
  1  7  1  0  0  0  0
  2  1  2  0  0  0  0
  3  4  2  0  0  0  0
  3  2  1  0  0  0  0
  4  5  1  0  0  0  0
  5 19  1  0  0  0  0
  5  6  2  0  0  0  0
  8  3  1  0  0  0  0
  9  2  1  0  0  0  0
  9 17  1  0  0  0  0
 10  9  1  0  0  0  0
 11 10  1  0  0  0  0
 12 10  1  0  0  0  0
 12 14  1  0  0  0  0
 13 12  1  0  0  0  0
 14 15  1  0  0  0  0
 15 16  1  0  0  0  0
 17 15  1  0  0  0  0
 17 18  1  0  0  0  0
 19 24  1  0  0  0  0
 20 21  1  0  0  0  0
 20 19  2  0  0  0  0
 21 22  2  0  0  0  0
 22 23  1  0  0  0  0
 23 27  1  0  0  0  0
 24 23  2  0  0  0  0
 25 20  1  0  0  0  0
 26 21  1  0  0  0  0
M  END
>  <minimizedAffinity>
-0.253430218

>  <minimizedRMSD>
1.90866804

$$$$
