
 OpenBabel03242511583D

 42 45  0  0  1  0  0  0  0  0999 V2000
   47.0160   34.0310   42.5330 C   0  0  2  0  0  0  0  0  0  0  0  0
   48.4300   34.4660   42.6970 C   0  0  0  0  0  0  0  0  0  0  0  0
   48.8580   35.4680   41.6920 C   0  0  0  0  0  0  0  0  0  0  0  0
   48.6120   35.0350   40.2650 C   0  0  0  0  0  0  0  0  0  0  0  0
   47.3060   34.3050   40.0730 C   0  0  0  0  0  0  0  0  0  0  0  0
   46.3780   34.4620   41.2440 C   0  0  1  0  0  0  0  0  0  0  0  0
   47.0380   32.9030   42.6000 H   0  0  0  0  0  0  0  0  0  0  0  0
   49.1790   33.6400   42.7000 H   0  0  0  0  0  0  0  0  0  0  0  0
   48.5220   34.9420   43.6970 H   0  0  0  0  0  0  0  0  0  0  0  0
   48.4130   36.4830   41.8560 H   0  0  0  0  0  0  0  0  0  0  0  0
   49.9540   35.6190   41.7830 H   0  0  0  0  0  0  0  0  0  0  0  0
   48.5660   35.9630   39.6590 H   0  0  0  0  0  0  0  0  0  0  0  0
   49.4620   34.4360   39.8460 H   0  0  0  0  0  0  0  0  0  0  0  0
   47.5450   33.2250   39.9910 H   0  0  0  0  0  0  0  0  0  0  0  0
   46.7380   34.6410   39.1740 H   0  0  0  0  0  0  0  0  0  0  0  0
   45.9670   35.4750   41.2280 H   0  0  0  0  0  0  0  0  0  0  0  0
   46.1600   34.4600   43.6580 C   0  0  0  0  0  0  0  0  0  0  0  0
   45.4920   35.6680   43.4500 C   0  0  0  0  0  0  0  0  0  0  0  0
   44.6460   36.1800   44.4450 C   0  0  0  0  0  0  0  0  0  0  0  0
   44.5380   35.4130   45.5980 N   0  0  0  0  0  0  0  0  0  0  0  0
   45.2010   34.2480   45.7630 C   0  0  0  0  0  0  0  0  0  0  0  0
   46.0030   33.7900   44.7870 N   0  0  0  0  0  0  0  0  0  0  0  0
   45.4740   36.3780   42.6400 H   0  0  0  0  0  0  0  0  0  0  0  0
   44.0700   37.0890   44.4280 H   0  0  0  0  0  0  0  0  0  0  0  0
   45.0460   33.7290   46.7000 H   0  0  0  0  0  0  0  0  0  0  0  0
   45.2000   33.5380   41.0080 C   0  0  2  0  0  0  0  0  0  0  0  0
   44.6760   33.4250   39.5910 C   0  0  0  0  0  0  0  0  0  0  0  0
   43.8640   34.0660   40.6500 C   0  0  1  0  0  0  0  0  0  0  0  0
   45.1970   32.6460   41.6700 H   0  0  0  0  0  0  0  0  0  0  0  0
   44.4820   32.3710   39.2910 H   0  0  0  0  0  0  0  0  0  0  0  0
   45.1980   34.0470   38.8350 H   0  0  0  0  0  0  0  0  0  0  0  0
   43.7280   35.1750   40.5230 H   0  0  0  0  0  0  0  0  0  0  0  0
   42.6300   33.3170   41.0530 C   0  0  0  0  0  0  0  0  0  0  0  0
   41.4260   34.2020   41.2790 C   0  0  0  0  0  0  0  0  0  0  0  0
   41.6540   35.2040   41.6400 H   0  0  0  0  0  0  0  0  0  0  0  0
   40.5630   34.1690   40.0390 C   0  0  0  0  0  0  0  0  0  0  0  0
   41.1000   34.4710   39.1190 H   0  0  0  0  0  0  0  0  0  0  0  0
   39.9610   32.9220   39.9470 O   0  0  0  0  0  0  0  0  0  0  0  0
   40.8390   31.8700   40.0830 C   0  0  0  0  0  0  0  0  0  0  0  0
   40.8130   31.3730   41.0810 H   0  0  0  0  0  0  0  0  0  0  0  0
   42.2670   32.3700   39.9020 C   0  0  0  0  0  0  0  0  0  0  0  0
   42.9240   31.4840   39.8680 H   0  0  0  0  0  0  0  0  0  0  0  0
  1  7  1  1  0  0  0
  1  2  1  0  0  0  0
  1 17  1  0  0  0  0
  2  8  1  0  0  0  0
  2  9  1  0  0  0  0
  3 11  1  0  0  0  0
  3 10  1  0  0  0  0
  3  2  1  0  0  0  0
  4  3  1  0  0  0  0
  5  4  1  0  0  0  0
  5  6  1  0  0  0  0
  6 16  1  1  0  0  0
  6  1  1  0  0  0  0
 12  4  1  0  0  0  0
 13  4  1  0  0  0  0
 14  5  1  0  0  0  0
 15  5  1  0  0  0  0
 17 22  1  0  0  0  0
 18 17  2  0  0  0  0
 18 19  1  0  0  0  0
 19 20  2  0  0  0  0
 20 21  1  0  0  0  0
 21 25  1  0  0  0  0
 22 21  2  0  0  0  0
 23 18  1  0  0  0  0
 24 19  1  0  0  0  0
 26  6  1  0  0  0  0
 26 29  1  1  0  0  0
 27 28  1  0  0  0  0
 27 26  1  0  0  0  0
 28 32  1  6  0  0  0
 28 26  1  0  0  0  0
 28 33  1  0  0  0  0
 30 27  1  0  0  0  0
 31 27  1  0  0  0  0
 33 34  1  0  0  0  0
 34 35  1  0  0  0  0
 36 34  1  0  0  0  0
 37 36  1  0  0  0  0
 38 36  1  0  0  0  0
 38 39  1  0  0  0  0
 39 40  1  0  0  0  0
 41 39  1  0  0  0  0
 41 33  1  0  0  0  0
 42 41  1  0  0  0  0
M  END
>  <minimizedAffinity>
-6.02593708

>  <minimizedRMSD>
1.04718041

$$$$
