
 OpenBabel03252507203D

 45 48  0  0  1  0  0  0  0  0999 V2000
   47.1630   32.6610   43.5920 C   0  0  0  0  0  0  0  0  0  0  0  0
   46.7730   32.7850   44.8080 O   0  0  0  0  0  0  0  0  0  0  0  0
   46.9940   31.4440   42.8680 N   0  0  0  0  0  0  0  0  0  0  0  0
   46.5140   31.2320   41.4950 C   0  0  0  0  0  0  0  0  0  0  0  0
   47.5210   30.3770   40.7310 C   0  0  0  0  0  0  0  0  0  0  0  0
   47.5660   28.9950   41.3610 C   0  0  0  0  0  0  0  0  0  0  0  0
   46.9170   29.0320   42.6940 C   0  0  0  0  0  0  0  0  0  0  0  0
   47.3190   30.2190   43.5320 C   0  0  1  0  0  0  0  0  0  0  0  0
   46.6240   32.2470   41.0140 H   0  0  0  0  0  0  0  0  0  0  0  0
   45.4930   30.8750   41.4480 H   0  0  0  0  0  0  0  0  0  0  0  0
   48.4990   30.9010   40.8480 H   0  0  0  0  0  0  0  0  0  0  0  0
   47.1900   30.3740   39.6800 H   0  0  0  0  0  0  0  0  0  0  0  0
   48.5410   28.5270   41.2840 H   0  0  0  0  0  0  0  0  0  0  0  0
   46.8960   28.3810   40.6900 H   0  0  0  0  0  0  0  0  0  0  0  0
   46.9780   28.1160   43.2770 H   0  0  0  0  0  0  0  0  0  0  0  0
   45.8100   29.1800   42.5080 H   0  0  0  0  0  0  0  0  0  0  0  0
   46.6440   30.1740   44.4150 H   0  0  0  0  0  0  0  0  0  0  0  0
   48.7120   30.0880   44.0580 C   0  0  0  0  0  3  0  0  0  0  0  0
   49.8260   30.4760   43.1310 C   0  0  0  0  0  3  0  0  0  0  0  0
   49.5380   31.4790   42.7160 H   0  0  0  0  0  0  0  0  0  0  0  0
   51.1020   30.7930   43.9270 C   0  0  0  0  0  3  0  0  0  0  0  0
   51.0580   31.8060   44.3260 H   0  0  0  0  0  0  0  0  0  0  0  0
   51.2110   29.8560   44.9300 O   0  0  0  0  0  0  0  0  0  0  0  0
   50.2670   30.0530   45.9340 C   0  0  0  0  0  3  0  0  0  0  0  0
   49.9550   29.0260   46.2670 H   0  0  0  0  0  0  0  0  0  0  0  0
   48.9810   30.6990   45.3880 C   0  0  0  0  0  3  0  0  0  0  0  0
   49.2040   31.7840   45.3610 H   0  0  0  0  0  0  0  0  0  0  0  0
   49.1340   33.6770   42.5950 C   0  0  0  0  0  0  0  0  0  0  0  0
   47.7850   33.7800   42.9460 C   0  0  0  0  0  0  0  0  0  0  0  0
   47.1000   34.9400   42.6720 C   0  0  0  0  0  0  0  0  0  0  0  0
   47.7570   35.9460   42.0690 N   0  0  0  0  0  0  0  0  0  0  0  0
   49.0710   35.8560   41.7240 C   0  0  0  0  0  0  0  0  0  0  0  0
   49.7280   34.7260   41.9930 N   0  0  0  0  0  0  0  0  0  0  0  0
   49.7560   32.8110   42.7650 H   0  0  0  0  0  0  0  0  0  0  0  0
   49.5850   36.6940   41.2320 H   0  0  0  0  0  0  0  0  0  0  0  0
   45.7020   35.0320   43.0390 C   0  0  0  0  0  0  0  0  0  0  0  0
   44.7540   34.3330   42.3340 C   0  0  0  0  0  0  0  0  0  0  0  0
   43.4320   34.4360   42.7050 C   0  0  0  0  0  0  0  0  0  0  0  0
   43.0010   35.2140   43.7620 C   0  0  0  0  0  0  0  0  0  0  0  0
   43.9980   35.8930   44.4310 C   0  0  0  0  0  0  0  0  0  0  0  0
   45.2730   35.7830   44.0600 N   0  0  0  0  0  0  0  0  0  0  0  0
   44.9330   33.7020   41.5040 H   0  0  0  0  0  0  0  0  0  0  0  0
   42.6370   33.8960   42.1730 H   0  0  0  0  0  0  0  0  0  0  0  0
   41.9710   35.3120   44.0740 H   0  0  0  0  0  0  0  0  0  0  0  0
   43.7590   36.5380   45.2850 H   0  0  0  0  0  0  0  0  0  0  0  0
  1  2  2  0  0  0  0
  3  8  1  0  0  0  0
  3  1  1  0  0  0  0
  4  3  1  0  0  0  0
  5 11  1  0  0  0  0
  5  6  1  0  0  0  0
  5  4  1  0  0  0  0
  6  7  1  0  0  0  0
  7 15  1  0  0  0  0
  7  8  1  0  0  0  0
  8 18  1  0  0  0  0
  8 17  1  1  0  0  0
  9  4  1  0  0  0  0
 10  4  1  0  0  0  0
 12  5  1  0  0  0  0
 13  6  1  0  0  0  0
 14  6  1  0  0  0  0
 16  7  1  0  0  0  0
 18 26  1  0  0  0  0
 19 21  1  0  0  0  0
 19 18  1  0  0  0  0
 20 19  1  0  0  0  0
 21 22  1  0  0  0  0
 21 23  1  0  0  0  0
 23 24  1  0  0  0  0
 24 25  1  0  0  0  0
 26 24  1  0  0  0  0
 27 26  1  0  0  0  0
 28 34  1  0  0  0  0
 28 29  1  0  0  0  0
 29  1  1  0  0  0  0
 30 29  2  0  0  0  0
 30 36  1  0  0  0  0
 31 30  1  0  0  0  0
 32 33  1  0  0  0  0
 32 31  2  0  0  0  0
 33 28  2  0  0  0  0
 35 32  1  0  0  0  0
 36 41  1  0  0  0  0
 37 38  1  0  0  0  0
 37 36  2  0  0  0  0
 38 39  2  0  0  0  0
 39 44  1  0  0  0  0
 39 40  1  0  0  0  0
 40 45  1  0  0  0  0
 41 40  2  0  0  0  0
 42 37  1  0  0  0  0
 43 38  1  0  0  0  0
M  END
>  <minimizedAffinity>
0.260423809

>  <minimizedRMSD>
5.14430904

$$$$
