
 OpenBabel03242513353D

 22 23  0  0  0  0  0  0  0  0999 V2000
   44.8740   34.8430   45.2170 C   0  0  0  0  0  0  0  0  0  0  0  0
   45.4950   34.7800   43.9630 C   0  0  0  0  0  0  0  0  0  0  0  0
   46.5450   33.8760   43.8130 C   0  0  0  0  0  0  0  0  0  0  0  0
   46.9200   33.1080   44.8630 N   0  0  0  0  0  0  0  0  0  0  0  0
   46.2900   33.2050   46.0560 C   0  0  0  0  0  0  0  0  0  0  0  0
   45.2770   34.0600   46.2420 N   0  0  0  0  0  0  0  0  0  0  0  0
   44.0490   35.5320   45.3890 H   0  0  0  0  0  0  0  0  0  0  0  0
   47.0070   33.8430   42.8470 H   0  0  0  0  0  0  0  0  0  0  0  0
   46.6840   32.3690   47.2310 C   0  0  0  0  0  0  0  0  0  0  0  0
   46.9820   30.9880   46.7670 C   0  0  0  0  0  0  0  0  0  0  0  0
   46.4740   30.8210   45.7720 H   0  0  0  0  0  0  0  0  0  0  0  0
   46.4040   29.9090   47.6650 C   0  0  0  0  0  0  0  0  0  0  0  0
   46.5110   28.9530   47.1140 H   0  0  0  0  0  0  0  0  0  0  0  0
   45.0490   30.2040   47.8020 O   0  0  0  0  0  0  0  0  0  0  0  0
   44.9370   31.2540   48.6920 C   0  0  0  0  0  0  0  0  0  0  0  0
   45.3050   30.8750   49.6860 H   0  0  0  0  0  0  0  0  0  0  0  0
   45.6440   32.5040   48.2890 C   0  0  0  0  0  0  0  0  0  0  0  0
   46.1040   32.9300   49.2120 H   0  0  0  0  0  0  0  0  0  0  0  0
   44.9720   35.6860   42.9110 C   0  0  0  0  0  0  0  0  0  0  0  0
   45.3220   36.9750   43.2900 F   0  0  0  0  0  0  0  0  0  0  0  0
   43.6100   35.5470   42.8470 F   0  0  0  0  0  0  0  0  0  0  0  0
   45.5810   35.3190   41.6990 F   0  0  0  0  0  0  0  0  0  0  0  0
  1  7  1  0  0  0  0
  1  6  1  0  0  0  0
  2  1  2  0  0  0  0
  3  2  1  0  0  0  0
  3  4  2  0  0  0  0
  4  5  1  0  0  0  0
  5  6  2  0  0  0  0
  5  9  1  0  0  0  0
  8  3  1  0  0  0  0
  9 17  1  0  0  0  0
 10  9  1  0  0  0  0
 10 12  1  0  0  0  0
 11 10  1  0  0  0  0
 12 14  1  0  0  0  0
 13 12  1  0  0  0  0
 14 15  1  0  0  0  0
 15 16  1  0  0  0  0
 17 15  1  0  0  0  0
 17 18  1  0  0  0  0
 19 20  1  0  0  0  0
 19  2  1  0  0  0  0
 21 19  1  0  0  0  0
 22 19  1  0  0  0  0
M  END
>  <minimizedAffinity>
-5.20512152

>  <minimizedRMSD>
1.21232224

$$$$
