
 OpenBabel03252505403D

 29 31  0  0  1  0  0  0  0  0999 V2000
   44.5310   34.7270   43.2590 C   0  0  1  0  0  0  0  0  0  0  0  0
   45.0510   36.1540   42.9640 C   0  0  0  0  0  0  0  0  0  0  0  0
   44.7110   35.1700   41.8770 C   0  0  2  0  0  0  0  0  0  0  0  0
   43.5470   34.7880   43.7660 H   0  0  0  0  0  0  0  0  0  0  0  0
   44.3540   36.9990   43.0490 H   0  0  0  0  0  0  0  0  0  0  0  0
   46.1200   36.3680   43.1840 H   0  0  0  0  0  0  0  0  0  0  0  0
   45.6030   34.8150   41.2850 H   0  0  0  0  0  0  0  0  0  0  0  0
   43.4950   35.4340   40.9960 C   0  0  0  0  0  0  0  0  0  0  0  0
   43.4460   34.3830   39.9500 C   0  0  0  0  0  0  0  0  0  0  0  0
   43.4390   34.7940   38.9090 H   0  0  0  0  0  0  0  0  0  0  0  0
   42.2500   33.4660   40.1050 C   0  0  0  0  0  0  0  0  0  0  0  0
   42.2470   32.7790   39.2130 H   0  0  0  0  0  0  0  0  0  0  0  0
   41.1490   34.3310   40.0950 O   0  0  0  0  0  0  0  0  0  0  0  0
   41.0460   34.8880   41.3610 C   0  0  0  0  0  0  0  0  0  0  0  0
   40.1870   35.5970   41.3260 H   0  0  0  0  0  0  0  0  0  0  0  0
   42.2950   35.5080   41.8820 C   0  0  0  0  0  0  0  0  0  0  0  0
   42.5070   35.0760   42.8970 H   0  0  0  0  0  0  0  0  0  0  0  0
   45.5380   33.8630   43.9380 C   0  0  0  0  0  0  0  0  0  0  0  0
   46.6200   33.3390   43.1850 C   0  0  0  0  0  0  0  0  0  0  0  0
   47.5510   32.5410   43.8460 C   0  0  0  0  0  0  0  0  0  0  0  0
   47.3730   32.3070   45.1750 N   0  0  0  0  0  0  0  0  0  0  0  0
   46.3220   32.8300   45.8540 C   0  0  0  0  0  0  0  0  0  0  0  0
   45.4060   33.6090   45.2260 N   0  0  0  0  0  0  0  0  0  0  0  0
   46.6970   33.5670   42.1330 H   0  0  0  0  0  0  0  0  0  0  0  0
   48.3870   32.1260   43.3040 H   0  0  0  0  0  0  0  0  0  0  0  0
   46.3130   32.4620   47.3110 C   0  0  0  0  0  0  0  0  0  0  0  0
   45.2560   33.0300   47.9740 F   0  0  0  0  0  0  0  0  0  0  0  0
   47.4990   32.9000   47.9080 F   0  0  0  0  0  0  0  0  0  0  0  0
   46.3300   31.0760   47.4190 F   0  0  0  0  0  0  0  0  0  0  0  0
  1  4  1  1  0  0  0
  1 18  1  0  0  0  0
  2  5  1  0  0  0  0
  2  6  1  0  0  0  0
  2  1  1  0  0  0  0
  3  7  1  6  0  0  0
  3  2  1  0  0  0  0
  3  1  1  0  0  0  0
  8  3  1  0  0  0  0
  8 16  1  0  0  0  0
  9 11  1  0  0  0  0
  9  8  1  0  0  0  0
 10  9  1  0  0  0  0
 12 11  1  0  0  0  0
 13 11  1  0  0  0  0
 13 14  1  0  0  0  0
 14 16  1  0  0  0  0
 15 14  1  0  0  0  0
 16 17  1  0  0  0  0
 18 23  1  0  0  0  0
 19 20  1  0  0  0  0
 19 18  2  0  0  0  0
 20 21  2  0  0  0  0
 21 22  1  0  0  0  0
 22 26  1  0  0  0  0
 23 22  2  0  0  0  0
 24 19  1  0  0  0  0
 25 20  1  0  0  0  0
 26 29  1  0  0  0  0
 26 28  1  0  0  0  0
 26 27  1  0  0  0  0
M  END
>  <minimizedAffinity>
-4.9601388

>  <minimizedRMSD>
1.61570048

$$$$
