
 OpenBabel03252508153D

 38 41  0  0  1  0  0  0  0  0999 V2000
   45.9730   33.0820   46.1000 C   0  0  0  0  0  3  0  0  0  0  0  0
   46.7100   32.1110   45.7280 C   0  0  0  0  0  3  0  0  0  0  0  0
   44.4910   36.0350   44.4700 C   0  0  0  0  0  0  0  0  0  0  0  0
   45.0820   36.0420   43.2140 C   0  0  0  0  0  0  0  0  0  0  0  0
   45.9880   35.0310   42.9510 C   0  0  0  0  0  0  0  0  0  0  0  0
   46.2220   34.1340   43.9160 N   0  0  0  0  0  0  0  0  0  0  0  0
   45.6590   34.1230   45.1210 C   0  0  0  0  0  0  0  0  0  0  0  0
   44.7890   35.1010   45.3650 N   0  0  0  0  0  0  0  0  0  0  0  0
   43.7800   36.8150   44.6970 H   0  0  0  0  0  0  0  0  0  0  0  0
   44.8850   36.7640   42.4490 H   0  0  0  0  0  0  0  0  0  0  0  0
   46.7060   34.8810   41.6820 C   0  0  0  0  0  3  0  0  0  0  0  0
   46.9090   33.4030   41.3160 C   0  0  0  0  0  3  0  0  0  0  0  0
   47.6780   32.9480   41.9450 H   0  0  0  0  0  0  0  0  0  0  0  0
   47.3790   33.4250   39.8740 C   0  0  0  0  0  3  0  0  0  0  0  0
   47.9690   32.5210   39.6670 H   0  0  0  0  0  0  0  0  0  0  0  0
   47.9710   34.6140   39.5260 O   0  0  0  0  0  0  0  0  0  0  0  0
   48.7920   35.1700   40.4940 C   0  0  0  0  0  3  0  0  0  0  0  0
   49.0900   36.1750   40.0840 H   0  0  0  0  0  0  0  0  0  0  0  0
   48.1130   35.4350   41.8060 C   0  0  0  0  0  3  0  0  0  0  0  0
   48.6330   34.8090   42.5800 H   0  0  0  0  0  0  0  0  0  0  0  0
   46.9920   31.0630   46.7980 C   0  0  0  0  0  0  0  0  0  0  0  0
   48.0210   30.6940   46.7120 H   0  0  0  0  0  0  0  0  0  0  0  0
   46.2970   30.2310   46.5800 H   0  0  0  0  0  0  0  0  0  0  0  0
   46.6450   31.6200   48.1590 C   0  0  1  0  0  0  0  0  0  0  0  0
   46.1420   30.6410   49.1610 C   0  0  0  0  0  0  0  0  0  0  0  0
   47.4590   31.2230   49.3320 C   0  0  1  0  0  0  0  0  0  0  0  0
   46.2230   32.6420   48.1690 H   0  0  0  0  0  0  0  0  0  0  0  0
   46.0560   29.5720   48.8650 H   0  0  0  0  0  0  0  0  0  0  0  0
   45.3110   30.9350   49.8490 H   0  0  0  0  0  0  0  0  0  0  0  0
   47.5490   32.0040   50.1480 H   0  0  0  0  0  0  0  0  0  0  0  0
   48.7400   30.5180   49.0880 C   0  0  0  0  0  0  0  0  0  0  0  0
   49.5970   30.2780   50.3640 C   0  0  0  0  0  0  0  0  0  0  0  0
   50.0220   31.3270   49.4210 C   0  0  0  0  0  0  0  0  0  0  0  0
   48.8380   29.7680   48.2810 H   0  0  0  0  0  0  0  0  0  0  0  0
   49.1700   30.6190   51.3290 H   0  0  0  0  0  0  0  0  0  0  0  0
   50.1770   29.3290   50.3480 H   0  0  0  0  0  0  0  0  0  0  0  0
   49.8600   32.3910   49.6750 H   0  0  0  0  0  0  0  0  0  0  0  0
   50.8720   31.1770   48.7100 H   0  0  0  0  0  0  0  0  0  0  0  0
  2  1  2  0  0  0  0
  2 21  1  0  0  0  0
  3  9  1  0  0  0  0
  3  8  1  0  0  0  0
  4  3  2  0  0  0  0
  5  4  1  0  0  0  0
  5  6  2  0  0  0  0
  6  7  1  0  0  0  0
  7  8  2  0  0  0  0
  7  1  1  0  0  0  0
 10  4  1  0  0  0  0
 11 19  1  0  0  0  0
 11  5  1  0  0  0  0
 12 11  1  0  0  0  0
 12 13  1  0  0  0  0
 14 12  1  0  0  0  0
 15 14  1  0  0  0  0
 16 14  1  0  0  0  0
 16 17  1  0  0  0  0
 17 19  1  0  0  0  0
 18 17  1  0  0  0  0
 19 20  1  0  0  0  0
 21 24  1  0  0  0  0
 22 21  1  0  0  0  0
 23 21  1  0  0  0  0
 24 27  1  1  0  0  0
 24 25  1  0  0  0  0
 24 26  1  0  0  0  0
 25 26  1  0  0  0  0
 25 29  1  0  0  0  0
 26 30  1  1  0  0  0
 28 25  1  0  0  0  0
 31 26  1  0  0  0  0
 31 33  1  0  0  0  0
 31 32  1  0  0  0  0
 32 35  1  0  0  0  0
 33 37  1  0  0  0  0
 33 32  1  0  0  0  0
 34 31  1  0  0  0  0
 36 32  1  0  0  0  0
 38 33  1  0  0  0  0
M  END
>  <minimizedAffinity>
-5.81921339

>  <minimizedRMSD>
1.0281316

$$$$
