
 OpenBabel03252509043D

 49 51  0  0  1  0  0  0  0  0999 V2000
   46.9120   34.3220   43.5120 N   0  0  0  0  0  0  0  0  0  0  0  0
   46.5460   35.0380   42.3520 C   0  0  0  0  0  0  0  0  0  0  0  0
   45.0620   35.0450   42.0410 C   0  0  0  0  0  0  0  0  0  0  0  0
   44.1820   35.0260   43.2600 C   0  0  0  0  0  0  0  0  0  0  0  0
   44.9870   35.1060   44.5370 C   0  0  0  0  0  0  0  0  0  0  0  0
   45.9730   33.8800   44.4230 C   0  0  2  0  0  0  0  0  0  0  0  0
   47.0460   34.7590   41.4170 H   0  0  0  0  0  0  0  0  0  0  0  0
   46.8270   36.1140   42.5220 H   0  0  0  0  0  0  0  0  0  0  0  0
   44.8530   34.2040   41.3510 H   0  0  0  0  0  0  0  0  0  0  0  0
   44.8270   35.9790   41.4830 H   0  0  0  0  0  0  0  0  0  0  0  0
   43.4430   35.8630   43.2630 H   0  0  0  0  0  0  0  0  0  0  0  0
   43.5930   34.1020   43.3040 H   0  0  0  0  0  0  0  0  0  0  0  0
   44.3290   34.8900   45.3840 H   0  0  0  0  0  0  0  0  0  0  0  0
   45.5790   36.0380   44.6310 H   0  0  0  0  0  0  0  0  0  0  0  0
   45.3050   33.0450   44.1300 H   0  0  0  0  0  0  0  0  0  0  0  0
   48.1340   33.5760   43.3770 C   0  0  0  0  0  0  0  0  0  0  0  0
   48.5440   33.3960   44.3940 H   0  0  0  0  0  0  0  0  0  0  0  0
   48.8260   34.1900   42.7730 H   0  0  0  0  0  0  0  0  0  0  0  0
   47.8470   32.2700   42.7390 C   0  0  0  0  0  0  0  0  0  0  0  0
   47.9720   31.3940   43.4010 H   0  0  0  0  0  0  0  0  0  0  0  0
   46.7800   32.2130   42.3910 H   0  0  0  0  0  0  0  0  0  0  0  0
   50.7210   31.4670   40.4600 C   0  0  0  0  0  0  0  0  0  0  0  0
   49.9310   31.6250   41.6130 C   0  0  0  0  0  0  0  0  0  0  0  0
   48.6600   32.1130   41.5090 C   0  0  0  0  0  0  0  0  0  0  0  0
   48.2180   32.4240   40.2870 N   0  0  0  0  0  0  0  0  0  0  0  0
   48.9510   32.2800   39.1800 C   0  0  0  0  0  0  0  0  0  0  0  0
   50.2070   31.8030   39.2440 N   0  0  0  0  0  0  0  0  0  0  0  0
   51.7410   31.0780   40.5320 H   0  0  0  0  0  0  0  0  0  0  0  0
   50.3800   31.3450   42.5640 H   0  0  0  0  0  0  0  0  0  0  0  0
   48.4370   32.5810   38.2630 H   0  0  0  0  0  0  0  0  0  0  0  0
   46.4790   33.7990   45.7010 O   0  0  0  0  0  0  0  0  0  0  0  0
   45.7370   31.2730   45.3910 O   0  0  0  0  0  0  0  0  0  0  0  0
   46.1930   32.3000   46.4260 P   0  0  2  0  0  0  0  0  0  0  0  0
   44.8740   32.5330   47.4720 O   0  0  0  0  0  0  0  0  0  0  0  0
   45.0380   32.1800   48.3790 H   0  0  0  0  0  0  0  0  0  0  0  0
   47.5000   31.7740   47.3270 O   0  0  0  0  0  0  0  0  0  0  0  0
   47.5880   30.3880   47.1770 C   0  0  0  0  0  0  0  0  0  0  0  0
   46.5730   29.9670   47.4000 H   0  0  0  0  0  0  0  0  0  0  0  0
   47.9230   30.0990   46.1800 H   0  0  0  0  0  0  0  0  0  0  0  0
   48.5270   29.9080   48.2640 C   0  0  0  0  0  3  0  0  0  0  0  0
   48.7940   30.9590   49.3160 C   0  0  0  0  0  3  0  0  0  0  0  0
   49.4070   31.7710   48.8750 H   0  0  0  0  0  0  0  0  0  0  0  0
   49.6800   30.2680   50.3560 C   0  0  0  0  0  3  0  0  0  0  0  0
   49.9740   30.9620   51.1710 H   0  0  0  0  0  0  0  0  0  0  0  0
   50.8400   29.8320   49.7620 O   0  0  0  0  0  0  0  0  0  0  0  0
   50.6740   28.8910   48.7710 C   0  0  0  0  0  3  0  0  0  0  0  0
   51.6820   28.6440   48.3880 H   0  0  0  0  0  0  0  0  0  0  0  0
   49.8280   29.4630   47.6410 C   0  0  0  0  0  3  0  0  0  0  0  0
   50.3320   30.3600   47.2390 H   0  0  0  0  0  0  0  0  0  0  0  0
  1  6  1  0  0  0  0
  2  8  1  0  0  0  0
  2  1  1  0  0  0  0
  3  2  1  0  0  0  0
  3  4  1  0  0  0  0
  4 11  1  0  0  0  0
  4 12  1  0  0  0  0
  4  5  1  0  0  0  0
  5 14  1  0  0  0  0
  5 13  1  0  0  0  0
  6 15  1  6  0  0  0
  6  5  1  0  0  0  0
  6 31  1  0  0  0  0
  7  2  1  0  0  0  0
  9  3  1  0  0  0  0
 10  3  1  0  0  0  0
 16  1  1  0  0  0  0
 16 17  1  0  0  0  0
 18 16  1  0  0  0  0
 19 16  1  0  0  0  0
 19 20  1  0  0  0  0
 21 19  1  0  0  0  0
 22 28  1  0  0  0  0
 22 23  1  0  0  0  0
 23 29  1  0  0  0  0
 24 23  2  0  0  0  0
 24 19  1  0  0  0  0
 25 24  1  0  0  0  0
 26 27  1  0  0  0  0
 26 25  2  0  0  0  0
 27 22  2  0  0  0  0
 30 26  1  0  0  0  0
 31 33  1  0  0  0  0
 33 32  2  6  0  0  0
 33 36  1  0  0  0  0
 33 34  1  0  0  0  0
 34 35  1  0  0  0  0
 37 36  1  0  0  0  0
 37 38  1  0  0  0  0
 37 40  1  0  0  0  0
 39 37  1  0  0  0  0
 40 41  1  0  0  0  0
 41 43  1  0  0  0  0
 42 41  1  0  0  0  0
 43 44  1  0  0  0  0
 45 43  1  0  0  0  0
 46 45  1  0  0  0  0
 47 46  1  0  0  0  0
 48 40  1  0  0  0  0
 48 46  1  0  0  0  0
 49 48  1  0  0  0  0
M  END
>  <minimizedAffinity>
-4.77112675

>  <minimizedRMSD>
2.36661363

$$$$
