
 OpenBabel03252508403D

 42 45  0  0  0  0  0  0  0  0999 V2000
   39.1020   28.0770   41.5290 C   0  0  0  0  0  0  0  0  0  0  0  0
   39.4150   27.6700   42.7990 C   0  0  0  0  0  0  0  0  0  0  0  0
   38.3820   27.5120   43.6760 C   0  0  0  0  0  0  0  0  0  0  0  0
   37.0580   27.7370   43.3560 C   0  0  0  0  0  0  0  0  0  0  0  0
   36.7870   28.1440   42.0720 C   0  0  0  0  0  0  0  0  0  0  0  0
   37.7830   28.3200   41.1490 C   0  0  0  0  0  0  0  0  0  0  0  0
   38.6120   27.1910   44.6830 H   0  0  0  0  0  0  0  0  0  0  0  0
   36.2860   27.5900   44.1080 H   0  0  0  0  0  0  0  0  0  0  0  0
   35.7370   28.3160   41.8390 H   0  0  0  0  0  0  0  0  0  0  0  0
   42.7140   25.9590   43.4490 C   0  0  0  0  0  0  0  0  0  0  0  0
   41.3530   26.1460   43.1520 C   0  0  0  0  0  0  0  0  0  0  0  0
   40.8120   27.4450   43.1010 C   0  0  0  0  0  0  0  0  0  0  0  0
   41.6810   28.4440   43.3510 N   0  0  0  0  0  0  0  0  0  0  0  0
   42.9700   28.2550   43.6310 C   0  0  0  0  0  0  0  0  0  0  0  0
   43.4850   27.0140   43.6800 N   0  0  0  0  0  0  0  0  0  0  0  0
   43.2120   24.6500   43.4900 N   0  0  0  0  0  0  0  0  0  0  0  0
   40.6980   25.2900   42.9580 H   0  0  0  0  0  0  0  0  0  0  0  0
   43.6510   29.0790   43.8290 H   0  0  0  0  0  0  0  0  0  0  0  0
   43.8750   24.2580   42.7780 H   0  0  0  0  0  0  0  0  0  0  0  0
   42.7690   24.2470   44.3450 H   0  0  0  0  0  0  0  0  0  0  0  0
   37.3880   28.7540   39.8140 C   0  0  0  0  0  0  0  0  0  0  0  0
   36.9170   27.7460   38.9880 C   0  0  0  0  0  0  0  0  0  0  0  0
   36.4930   27.9650   37.6780 C   0  0  0  0  0  0  0  0  0  0  0  0
   36.5510   29.2490   37.1960 C   0  0  0  0  0  0  0  0  0  0  0  0
   37.0220   30.2630   38.0180 C   0  0  0  0  0  0  0  0  0  0  0  0
   37.4380   30.0370   39.3110 C   0  0  0  0  0  0  0  0  0  0  0  0
   36.8450   26.7060   39.3060 H   0  0  0  0  0  0  0  0  0  0  0  0
   36.1300   27.1610   37.0540 H   0  0  0  0  0  0  0  0  0  0  0  0
   36.2240   29.4420   36.1730 H   0  0  0  0  0  0  0  0  0  0  0  0
   37.0600   31.2490   37.6300 H   0  0  0  0  0  0  0  0  0  0  0  0
   37.9460   31.0760   40.2240 C   0  0  0  0  0  3  0  0  0  0  0  0
   39.2640   31.6840   39.7820 C   0  0  0  0  0  3  0  0  0  0  0  0
   39.2250   32.0180   38.7210 H   0  0  0  0  0  0  0  0  0  0  0  0
   39.4010   32.9560   40.6290 C   0  0  0  0  0  3  0  0  0  0  0  0
   38.9340   32.8300   41.6290 H   0  0  0  0  0  0  0  0  0  0  0  0
   38.6320   33.9340   39.9730 O   0  0  0  0  0  0  0  0  0  0  0  0
   37.4040   33.4550   39.5900 C   0  0  0  0  0  3  0  0  0  0  0  0
   37.3300   33.3860   38.4900 H   0  0  0  0  0  0  0  0  0  0  0  0
   36.9630   32.2270   40.3320 C   0  0  0  0  0  3  0  0  0  0  0  0
   35.9740   31.9280   39.9320 H   0  0  0  0  0  0  0  0  0  0  0  0
   40.9680   28.4200   39.7340 N   0  0  0  0  0  0  0  0  0  0  0  0
   40.1280   28.2690   40.5450 C   0  0  0  0  0  0  0  0  0  0  0  0
  1  2  1  0  0  0  0
  2 12  1  0  0  0  0
  2  3  2  0  0  0  0
  3  7  1  0  0  0  0
  4  3  1  0  0  0  0
  4  8  1  0  0  0  0
  5  4  2  0  0  0  0
  6  1  2  0  0  0  0
  6  5  1  0  0  0  0
  9  5  1  0  0  0  0
 10 16  1  0  0  0  0
 10 15  1  0  0  0  0
 11 10  2  0  0  0  0
 12 11  1  0  0  0  0
 12 13  2  0  0  0  0
 13 14  1  0  0  0  0
 14 15  2  0  0  0  0
 14 18  1  0  0  0  0
 16 20  1  0  0  0  0
 17 11  1  0  0  0  0
 19 16  1  0  0  0  0
 21  6  1  0  0  0  0
 22 27  1  0  0  0  0
 22 21  2  0  0  0  0
 23 22  1  0  0  0  0
 24 23  2  0  0  0  0
 24 25  1  0  0  0  0
 25 26  2  0  0  0  0
 26 21  1  0  0  0  0
 26 31  1  0  0  0  0
 28 23  1  0  0  0  0
 29 24  1  0  0  0  0
 30 25  1  0  0  0  0
 31 39  1  0  0  0  0
 32 31  1  0  0  0  0
 32 34  1  0  0  0  0
 33 32  1  0  0  0  0
 34 35  1  0  0  0  0
 36 34  1  0  0  0  0
 37 36  1  0  0  0  0
 37 39  1  0  0  0  0
 38 37  1  0  0  0  0
 40 39  1  0  0  0  0
 41 42  3  0  0  0  0
 42  1  1  0  0  0  0
M  END
>  <minimizedAffinity>
-6.31829214

$$$$

 OpenBabel03252508403D

 42 45  0  0  0  0  0  0  0  0999 V2000
   39.0440   29.8080   39.3440 C   0  0  0  0  0  0  0  0  0  0  0  0
   39.0730   30.5290   38.1800 C   0  0  0  0  0  0  0  0  0  0  0  0
   37.8740   30.8270   37.5990 C   0  0  0  0  0  0  0  0  0  0  0  0
   36.6520   30.4450   38.1170 C   0  0  0  0  0  0  0  0  0  0  0  0
   36.6670   29.7230   39.2850 C   0  0  0  0  0  0  0  0  0  0  0  0
   37.8390   29.3960   39.9120 C   0  0  0  0  0  0  0  0  0  0  0  0
   37.8800   31.3950   36.6790 H   0  0  0  0  0  0  0  0  0  0  0  0
   35.7360   30.7180   37.5990 H   0  0  0  0  0  0  0  0  0  0  0  0
   35.6940   29.4320   39.6770 H   0  0  0  0  0  0  0  0  0  0  0  0
   42.0170   32.6030   37.0550 C   0  0  0  0  0  0  0  0  0  0  0  0
   40.7490   32.2640   37.5590 C   0  0  0  0  0  0  0  0  0  0  0  0
   40.3710   30.9120   37.6660 C   0  0  0  0  0  0  0  0  0  0  0  0
   41.2930   30.0180   37.2590 N   0  0  0  0  0  0  0  0  0  0  0  0
   42.4920   30.3520   36.7840 C   0  0  0  0  0  0  0  0  0  0  0  0
   42.8520   31.6430   36.6820 N   0  0  0  0  0  0  0  0  0  0  0  0
   42.3540   33.9600   36.9650 N   0  0  0  0  0  0  0  0  0  0  0  0
   40.0440   33.0390   37.8730 H   0  0  0  0  0  0  0  0  0  0  0  0
   43.2190   29.6110   36.4610 H   0  0  0  0  0  0  0  0  0  0  0  0
   43.0750   34.4220   37.5720 H   0  0  0  0  0  0  0  0  0  0  0  0
   41.7390   34.3150   36.2000 H   0  0  0  0  0  0  0  0  0  0  0  0
   37.7440   28.6270   41.1480 C   0  0  0  0  0  0  0  0  0  0  0  0
   37.6290   29.3870   42.3010 C   0  0  0  0  0  0  0  0  0  0  0  0
   37.5270   28.8330   43.5760 C   0  0  0  0  0  0  0  0  0  0  0  0
   37.5430   27.4650   43.6800 C   0  0  0  0  0  0  0  0  0  0  0  0
   37.6580   26.6980   42.5280 C   0  0  0  0  0  0  0  0  0  0  0  0
   37.7580   27.2540   41.2730 C   0  0  0  0  0  0  0  0  0  0  0  0
   37.6100   30.4770   42.2910 H   0  0  0  0  0  0  0  0  0  0  0  0
   37.4380   29.4490   44.4590 H   0  0  0  0  0  0  0  0  0  0  0  0
   37.4630   27.0110   44.6680 H   0  0  0  0  0  0  0  0  0  0  0  0
   37.6680   25.6420   42.6260 H   0  0  0  0  0  0  0  0  0  0  0  0
   37.8830   26.4860   40.0220 C   0  0  0  0  0  3  0  0  0  0  0  0
   38.8790   25.3440   40.1050 C   0  0  0  0  0  3  0  0  0  0  0  0
   38.6910   24.7010   40.9930 H   0  0  0  0  0  0  0  0  0  0  0  0
   38.5720   24.4800   38.8740 C   0  0  0  0  0  3  0  0  0  0  0  0
   38.2120   25.0980   38.0240 H   0  0  0  0  0  0  0  0  0  0  0  0
   37.4830   23.6700   39.2410 O   0  0  0  0  0  0  0  0  0  0  0  0
   36.5000   24.3830   39.8810 C   0  0  0  0  0  3  0  0  0  0  0  0
   36.4240   24.0900   40.9430 H   0  0  0  0  0  0  0  0  0  0  0  0
   36.5540   25.8630   39.6360 C   0  0  0  0  0  3  0  0  0  0  0  0
   35.7290   26.3300   40.2090 H   0  0  0  0  0  0  0  0  0  0  0  0
   41.2590   29.1610   40.5670 N   0  0  0  0  0  0  0  0  0  0  0  0
   40.2590   29.4520   40.0190 C   0  0  0  0  0  0  0  0  0  0  0  0
  1  6  1  0  0  0  0
  1 42  1  0  0  0  0
  2  1  2  0  0  0  0
  3  4  2  0  0  0  0
  3  2  1  0  0  0  0
  4  5  1  0  0  0  0
  5  9  1  0  0  0  0
  5  6  2  0  0  0  0
  6 21  1  0  0  0  0
  7  3  1  0  0  0  0
  8  4  1  0  0  0  0
 10 11  1  0  0  0  0
 11 12  2  0  0  0  0
 11 17  1  0  0  0  0
 12  2  1  0  0  0  0
 13 12  1  0  0  0  0
 14 13  2  0  0  0  0
 15 14  1  0  0  0  0
 15 10  2  0  0  0  0
 16 10  1  0  0  0  0
 16 19  1  0  0  0  0
 18 14  1  0  0  0  0
 20 16  1  0  0  0  0
 21 26  2  0  0  0  0
 21 22  1  0  0  0  0
 22 23  2  0  0  0  0
 23 24  1  0  0  0  0
 23 28  1  0  0  0  0
 24 29  1  0  0  0  0
 25 30  1  0  0  0  0
 25 24  2  0  0  0  0
 26 25  1  0  0  0  0
 27 22  1  0  0  0  0
 31 32  1  0  0  0  0
 31 26  1  0  0  0  0
 32 33  1  0  0  0  0
 34 36  1  0  0  0  0
 34 32  1  0  0  0  0
 35 34  1  0  0  0  0
 36 37  1  0  0  0  0
 37 38  1  0  0  0  0
 39 37  1  0  0  0  0
 39 31  1  0  0  0  0
 39 40  1  0  0  0  0
 42 41  3  0  0  0  0
M  END
>  <minimizedAffinity>
-6.18733263

$$$$

 OpenBabel03252508403D

 42 45  0  0  0  0  0  0  0  0999 V2000
   38.8380   30.9800   38.9540 C   0  0  0  0  0  0  0  0  0  0  0  0
   39.4520   32.1460   39.3290 C   0  0  0  0  0  0  0  0  0  0  0  0
   38.6950   33.0640   39.9960 C   0  0  0  0  0  0  0  0  0  0  0  0
   37.3620   32.8810   40.3090 C   0  0  0  0  0  0  0  0  0  0  0  0
   36.7840   31.7000   39.9150 C   0  0  0  0  0  0  0  0  0  0  0  0
   37.4960   30.7420   39.2430 C   0  0  0  0  0  0  0  0  0  0  0  0
   39.1650   33.9900   40.2990 H   0  0  0  0  0  0  0  0  0  0  0  0
   36.8200   33.6580   40.8440 H   0  0  0  0  0  0  0  0  0  0  0  0
   35.7340   31.5740   40.1710 H   0  0  0  0  0  0  0  0  0  0  0  0
   42.6220   33.2950   37.6360 C   0  0  0  0  0  0  0  0  0  0  0  0
   41.2570   33.1630   37.9460 C   0  0  0  0  0  0  0  0  0  0  0  0
   40.8490   32.3040   38.9840 C   0  0  0  0  0  0  0  0  0  0  0  0
   41.8420   31.6510   39.6200 N   0  0  0  0  0  0  0  0  0  0  0  0
   43.1320   31.7840   39.3170 C   0  0  0  0  0  0  0  0  0  0  0  0
   43.5210   32.6050   38.3260 N   0  0  0  0  0  0  0  0  0  0  0  0
   42.9860   34.1600   36.5960 N   0  0  0  0  0  0  0  0  0  0  0  0
   40.4990   33.7220   37.3910 H   0  0  0  0  0  0  0  0  0  0  0  0
   43.9150   31.2460   39.8460 H   0  0  0  0  0  0  0  0  0  0  0  0
   43.4930   35.0670   36.7440 H   0  0  0  0  0  0  0  0  0  0  0  0
   42.6370   33.6750   35.7400 H   0  0  0  0  0  0  0  0  0  0  0  0
   36.7880   29.5220   38.8710 C   0  0  0  0  0  0  0  0  0  0  0  0
   36.1350   29.5750   37.6500 C   0  0  0  0  0  0  0  0  0  0  0  0
   35.4060   28.5100   37.1250 C   0  0  0  0  0  0  0  0  0  0  0  0
   35.3390   27.3560   37.8650 C   0  0  0  0  0  0  0  0  0  0  0  0
   35.9910   27.2960   39.0900 C   0  0  0  0  0  0  0  0  0  0  0  0
   36.7090   28.3540   39.6000 C   0  0  0  0  0  0  0  0  0  0  0  0
   36.1460   30.4590   37.0110 H   0  0  0  0  0  0  0  0  0  0  0  0
   34.9060   28.5770   36.1700 H   0  0  0  0  0  0  0  0  0  0  0  0
   34.7740   26.5100   37.4720 H   0  0  0  0  0  0  0  0  0  0  0  0
   35.9300   26.3980   39.6490 H   0  0  0  0  0  0  0  0  0  0  0  0
   37.4180   28.3430   40.8920 C   0  0  0  0  0  3  0  0  0  0  0  0
   36.5690   27.8470   42.0480 C   0  0  0  0  0  3  0  0  0  0  0  0
   36.0810   26.8760   41.8100 H   0  0  0  0  0  0  0  0  0  0  0  0
   37.5780   27.5610   43.1680 C   0  0  0  0  0  3  0  0  0  0  0  0
   38.4450   28.2540   43.1200 H   0  0  0  0  0  0  0  0  0  0  0  0
   38.0980   26.2840   42.8920 O   0  0  0  0  0  0  0  0  0  0  0  0
   38.4330   26.1370   41.5690 C   0  0  0  0  0  3  0  0  0  0  0  0
   37.7630   25.4150   41.0680 H   0  0  0  0  0  0  0  0  0  0  0  0
   38.6300   27.4310   40.8350 C   0  0  0  0  0  3  0  0  0  0  0  0
   38.8800   27.1890   39.7830 H   0  0  0  0  0  0  0  0  0  0  0  0
   40.1520   29.1290   37.6630 N   0  0  0  0  0  0  0  0  0  0  0  0
   39.5620   29.9620   38.2480 C   0  0  0  0  0  0  0  0  0  0  0  0
  1  6  2  0  0  0  0
  1  2  1  0  0  0  0
  2  3  2  0  0  0  0
  3  7  1  0  0  0  0
  3  4  1  0  0  0  0
  4  8  1  0  0  0  0
  5  9  1  0  0  0  0
  5  4  2  0  0  0  0
  6  5  1  0  0  0  0
 10 11  2  0  0  0  0
 10 15  1  0  0  0  0
 11 12  1  0  0  0  0
 12  2  1  0  0  0  0
 12 13  2  0  0  0  0
 14 13  1  0  0  0  0
 14 18  1  0  0  0  0
 15 14  2  0  0  0  0
 16 19  1  0  0  0  0
 16 10  1  0  0  0  0
 17 11  1  0  0  0  0
 20 16  1  0  0  0  0
 21  6  1  0  0  0  0
 21 26  1  0  0  0  0
 22 21  2  0  0  0  0
 23 22  1  0  0  0  0
 23 24  2  0  0  0  0
 24 25  1  0  0  0  0
 25 26  2  0  0  0  0
 25 30  1  0  0  0  0
 26 31  1  0  0  0  0
 27 22  1  0  0  0  0
 28 23  1  0  0  0  0
 29 24  1  0  0  0  0
 31 32  1  0  0  0  0
 32 34  1  0  0  0  0
 33 32  1  0  0  0  0
 35 34  1  0  0  0  0
 36 34  1  0  0  0  0
 37 36  1  0  0  0  0
 38 37  1  0  0  0  0
 39 31  1  0  0  0  0
 39 37  1  0  0  0  0
 40 39  1  0  0  0  0
 41 42  3  0  0  0  0
 42  1  1  0  0  0  0
M  END
>  <minimizedAffinity>
-6.14600754

$$$$

 OpenBabel03252508403D

 42 45  0  0  0  0  0  0  0  0999 V2000
   38.9290   26.3350   41.6590 C   0  0  0  0  0  0  0  0  0  0  0  0
   39.5600   26.9370   42.7150 C   0  0  0  0  0  0  0  0  0  0  0  0
   38.7700   27.5210   43.6630 C   0  0  0  0  0  0  0  0  0  0  0  0
   37.3900   27.5360   43.6130 C   0  0  0  0  0  0  0  0  0  0  0  0
   36.7970   26.9210   42.5380 C   0  0  0  0  0  0  0  0  0  0  0  0
   37.5390   26.3180   41.5570 C   0  0  0  0  0  0  0  0  0  0  0  0
   39.2520   28.0020   44.5030 H   0  0  0  0  0  0  0  0  0  0  0  0
   36.8240   28.0210   44.4060 H   0  0  0  0  0  0  0  0  0  0  0  0
   35.7090   26.9430   42.5170 H   0  0  0  0  0  0  0  0  0  0  0  0
   43.1150   25.7720   43.1990 C   0  0  0  0  0  0  0  0  0  0  0  0
   41.7090   25.7730   43.1920 C   0  0  0  0  0  0  0  0  0  0  0  0
   41.0060   26.9040   42.7350 C   0  0  0  0  0  0  0  0  0  0  0  0
   41.7710   27.9360   42.3260 N   0  0  0  0  0  0  0  0  0  0  0  0
   43.1030   27.9230   42.3380 C   0  0  0  0  0  0  0  0  0  0  0  0
   43.7730   26.8430   42.7740 N   0  0  0  0  0  0  0  0  0  0  0  0
   43.7760   24.6260   43.6610 N   0  0  0  0  0  0  0  0  0  0  0  0
   41.1460   24.9010   43.5380 H   0  0  0  0  0  0  0  0  0  0  0  0
   43.6980   28.7690   42.0020 H   0  0  0  0  0  0  0  0  0  0  0  0
   44.3230   23.9810   43.0410 H   0  0  0  0  0  0  0  0  0  0  0  0
   43.5760   24.6250   44.6860 H   0  0  0  0  0  0  0  0  0  0  0  0
   36.8120   25.6930   40.4580 C   0  0  0  0  0  0  0  0  0  0  0  0
   36.4470   24.3740   40.6750 C   0  0  0  0  0  0  0  0  0  0  0  0
   35.7480   23.6100   39.7420 C   0  0  0  0  0  0  0  0  0  0  0  0
   35.4110   24.2070   38.5530 C   0  0  0  0  0  0  0  0  0  0  0  0
   35.7740   25.5280   38.3290 C   0  0  0  0  0  0  0  0  0  0  0  0
   36.4640   26.2750   39.2570 C   0  0  0  0  0  0  0  0  0  0  0  0
   36.6820   23.8400   41.5950 H   0  0  0  0  0  0  0  0  0  0  0  0
   35.4750   22.5830   39.9360 H   0  0  0  0  0  0  0  0  0  0  0  0
   34.8630   23.6270   37.8090 H   0  0  0  0  0  0  0  0  0  0  0  0
   35.5050   25.9740   37.4060 H   0  0  0  0  0  0  0  0  0  0  0  0
   36.8730   27.6780   39.0690 C   0  0  0  0  0  3  0  0  0  0  0  0
   37.5170   27.9500   37.7220 C   0  0  0  0  0  3  0  0  0  0  0  0
   36.8940   27.5620   36.8860 H   0  0  0  0  0  0  0  0  0  0  0  0
   37.5070   29.4790   37.5950 C   0  0  0  0  0  3  0  0  0  0  0  0
   37.6120   29.9690   38.5870 H   0  0  0  0  0  0  0  0  0  0  0  0
   36.2180   29.8130   37.1430 O   0  0  0  0  0  0  0  0  0  0  0  0
   35.2380   29.1430   37.8310 C   0  0  0  0  0  3  0  0  0  0  0  0
   34.7240   28.4120   37.1810 H   0  0  0  0  0  0  0  0  0  0  0  0
   35.6770   28.6070   39.1620 C   0  0  0  0  0  3  0  0  0  0  0  0
   34.8140   28.0790   39.6150 H   0  0  0  0  0  0  0  0  0  0  0  0
   40.2990   25.1770   39.7610 N   0  0  0  0  0  0  0  0  0  0  0  0
   39.6850   25.6980   40.6190 C   0  0  0  0  0  0  0  0  0  0  0  0
  1  2  1  0  0  0  0
  2 12  1  0  0  0  0
  2  3  2  0  0  0  0
  3  7  1  0  0  0  0
  4  3  1  0  0  0  0
  4  8  1  0  0  0  0
  5  4  2  0  0  0  0
  6  1  2  0  0  0  0
  6  5  1  0  0  0  0
  9  5  1  0  0  0  0
 10 16  1  0  0  0  0
 11 10  1  0  0  0  0
 11 17  1  0  0  0  0
 12 11  2  0  0  0  0
 13 14  2  0  0  0  0
 13 12  1  0  0  0  0
 14 15  1  0  0  0  0
 15 10  2  0  0  0  0
 16 20  1  0  0  0  0
 18 14  1  0  0  0  0
 19 16  1  0  0  0  0
 21 22  1  0  0  0  0
 21  6  1  0  0  0  0
 22 27  1  0  0  0  0
 23 28  1  0  0  0  0
 23 22  2  0  0  0  0
 24 23  1  0  0  0  0
 25 24  2  0  0  0  0
 25 26  1  0  0  0  0
 26 21  2  0  0  0  0
 29 24  1  0  0  0  0
 30 25  1  0  0  0  0
 31 39  1  0  0  0  0
 31 26  1  0  0  0  0
 32 31  1  0  0  0  0
 33 32  1  0  0  0  0
 34 32  1  0  0  0  0
 34 35  1  0  0  0  0
 36 34  1  0  0  0  0
 36 37  1  0  0  0  0
 37 39  1  0  0  0  0
 38 37  1  0  0  0  0
 39 40  1  0  0  0  0
 41 42  3  0  0  0  0
 42  1  1  0  0  0  0
M  END
>  <minimizedAffinity>
-6.14569616

$$$$

 OpenBabel03252508403D

 42 45  0  0  0  0  0  0  0  0999 V2000
   39.0620   31.2080   40.5840 C   0  0  0  0  0  0  0  0  0  0  0  0
   39.0760   32.4450   39.9970 C   0  0  0  0  0  0  0  0  0  0  0  0
   37.8690   33.0210   39.7250 C   0  0  0  0  0  0  0  0  0  0  0  0
   36.6530   32.4300   40.0070 C   0  0  0  0  0  0  0  0  0  0  0  0
   36.6830   31.1900   40.5950 C   0  0  0  0  0  0  0  0  0  0  0  0
   37.8640   30.5640   40.8910 C   0  0  0  0  0  0  0  0  0  0  0  0
   37.8620   33.9980   39.2600 H   0  0  0  0  0  0  0  0  0  0  0  0
   35.7290   32.9490   39.7610 H   0  0  0  0  0  0  0  0  0  0  0  0
   35.7140   30.7410   40.8100 H   0  0  0  0  0  0  0  0  0  0  0  0
   42.0680   33.8150   38.1530 C   0  0  0  0  0  0  0  0  0  0  0  0
   40.8080   33.2400   38.3930 C   0  0  0  0  0  0  0  0  0  0  0  0
   40.3670   33.0350   39.7140 C   0  0  0  0  0  0  0  0  0  0  0  0
   41.2250   33.4210   40.6790 N   0  0  0  0  0  0  0  0  0  0  0  0
   42.4170   33.9650   40.4380 C   0  0  0  0  0  0  0  0  0  0  0  0
   42.8370   34.1610   39.1760 N   0  0  0  0  0  0  0  0  0  0  0  0
   42.4700   34.0020   36.8230 N   0  0  0  0  0  0  0  0  0  0  0  0
   40.1580   32.9470   37.5650 H   0  0  0  0  0  0  0  0  0  0  0  0
   43.0920   34.2690   41.2340 H   0  0  0  0  0  0  0  0  0  0  0  0
   42.5600   34.9440   36.3700 H   0  0  0  0  0  0  0  0  0  0  0  0
   42.6290   33.0300   36.4760 H   0  0  0  0  0  0  0  0  0  0  0  0
   37.7860   29.2490   41.5170 C   0  0  0  0  0  0  0  0  0  0  0  0
   37.8160   29.2570   42.9020 C   0  0  0  0  0  0  0  0  0  0  0  0
   37.7510   28.1000   43.6760 C   0  0  0  0  0  0  0  0  0  0  0  0
   37.6540   26.8990   43.0210 C   0  0  0  0  0  0  0  0  0  0  0  0
   37.6240   26.8830   41.6330 C   0  0  0  0  0  0  0  0  0  0  0  0
   37.6880   28.0310   40.8760 C   0  0  0  0  0  0  0  0  0  0  0  0
   37.8920   30.1750   43.4850 H   0  0  0  0  0  0  0  0  0  0  0  0
   37.7760   28.1350   44.7560 H   0  0  0  0  0  0  0  0  0  0  0  0
   37.6020   25.9810   43.6080 H   0  0  0  0  0  0  0  0  0  0  0  0
   37.5480   25.9460   41.1420 H   0  0  0  0  0  0  0  0  0  0  0  0
   37.6600   28.0690   39.4030 C   0  0  0  0  0  3  0  0  0  0  0  0
   38.5650   27.0410   38.7510 C   0  0  0  0  0  3  0  0  0  0  0  0
   38.3910   26.0230   39.1630 H   0  0  0  0  0  0  0  0  0  0  0  0
   38.1030   26.9980   37.2880 C   0  0  0  0  0  3  0  0  0  0  0  0
   37.7320   27.9900   36.9510 H   0  0  0  0  0  0  0  0  0  0  0  0
   36.9820   26.1490   37.2690 O   0  0  0  0  0  0  0  0  0  0  0  0
   36.1080   26.4240   38.2910 C   0  0  0  0  0  3  0  0  0  0  0  0
   36.0850   25.5990   39.0260 H   0  0  0  0  0  0  0  0  0  0  0  0
   36.2620   27.7940   38.8820 C   0  0  0  0  0  3  0  0  0  0  0  0
   35.5200   27.8950   39.6990 H   0  0  0  0  0  0  0  0  0  0  0  0
   41.2880   29.9740   41.1700 N   0  0  0  0  0  0  0  0  0  0  0  0
   40.2870   30.5320   40.9030 C   0  0  0  0  0  0  0  0  0  0  0  0
  1  6  1  0  0  0  0
  1 42  1  0  0  0  0
  2  1  2  0  0  0  0
  3  2  1  0  0  0  0
  3  4  2  0  0  0  0
  4  5  1  0  0  0  0
  5  9  1  0  0  0  0
  5  6  2  0  0  0  0
  6 21  1  0  0  0  0
  7  3  1  0  0  0  0
  8  4  1  0  0  0  0
 10 11  2  0  0  0  0
 10 15  1  0  0  0  0
 11 12  1  0  0  0  0
 12  2  1  0  0  0  0
 12 13  2  0  0  0  0
 14 13  1  0  0  0  0
 14 18  1  0  0  0  0
 15 14  2  0  0  0  0
 16 10  1  0  0  0  0
 17 11  1  0  0  0  0
 19 16  1  0  0  0  0
 20 16  1  0  0  0  0
 21 22  1  0  0  0  0
 22 27  1  0  0  0  0
 22 23  2  0  0  0  0
 23 28  1  0  0  0  0
 24 29  1  0  0  0  0
 24 23  1  0  0  0  0
 25 24  2  0  0  0  0
 26 21  2  0  0  0  0
 26 25  1  0  0  0  0
 30 25  1  0  0  0  0
 31 26  1  0  0  0  0
 32 33  1  0  0  0  0
 32 31  1  0  0  0  0
 34 32  1  0  0  0  0
 35 34  1  0  0  0  0
 36 34  1  0  0  0  0
 36 37  1  0  0  0  0
 37 39  1  0  0  0  0
 37 38  1  0  0  0  0
 39 31  1  0  0  0  0
 39 40  1  0  0  0  0
 42 41  3  0  0  0  0
M  END
>  <minimizedAffinity>
-6.1288619

$$$$

 OpenBabel03252508403D

 42 45  0  0  0  0  0  0  0  0999 V2000
   38.5390   28.9660   40.9190 C   0  0  0  0  0  0  0  0  0  0  0  0
   37.8850   30.1030   40.5280 C   0  0  0  0  0  0  0  0  0  0  0  0
   36.5260   30.1180   40.6570 C   0  0  0  0  0  0  0  0  0  0  0  0
   35.7880   29.0610   41.1530 C   0  0  0  0  0  0  0  0  0  0  0  0
   36.4820   27.9390   41.5330 C   0  0  0  0  0  0  0  0  0  0  0  0
   37.8460   27.8680   41.4270 C   0  0  0  0  0  0  0  0  0  0  0  0
   35.9940   31.0090   40.3520 H   0  0  0  0  0  0  0  0  0  0  0  0
   34.7060   29.1440   41.2270 H   0  0  0  0  0  0  0  0  0  0  0  0
   35.8830   27.1180   41.9220 H   0  0  0  0  0  0  0  0  0  0  0  0
   39.8270   32.3290   38.1810 C   0  0  0  0  0  0  0  0  0  0  0  0
   39.0450   31.2600   38.6520 C   0  0  0  0  0  0  0  0  0  0  0  0
   38.6880   31.1910   40.0120 C   0  0  0  0  0  0  0  0  0  0  0  0
   39.1460   32.1970   40.7820 N   0  0  0  0  0  0  0  0  0  0  0  0
   39.8860   33.2050   40.3250 C   0  0  0  0  0  0  0  0  0  0  0  0
   40.2270   33.2700   39.0260 N   0  0  0  0  0  0  0  0  0  0  0  0
   40.1610   32.3590   36.8210 N   0  0  0  0  0  0  0  0  0  0  0  0
   38.7050   30.4720   37.9730 H   0  0  0  0  0  0  0  0  0  0  0  0
   40.2430   34.0060   40.9680 H   0  0  0  0  0  0  0  0  0  0  0  0
   39.7730   33.0600   36.1430 H   0  0  0  0  0  0  0  0  0  0  0  0
   40.8310   31.5660   36.7150 H   0  0  0  0  0  0  0  0  0  0  0  0
   38.4860   26.6310   41.8590 C   0  0  0  0  0  0  0  0  0  0  0  0
   39.1070   26.6960   43.0960 C   0  0  0  0  0  0  0  0  0  0  0  0
   39.7710   25.6170   43.6770 C   0  0  0  0  0  0  0  0  0  0  0  0
   39.8050   24.4370   42.9770 C   0  0  0  0  0  0  0  0  0  0  0  0
   39.1850   24.3660   41.7370 C   0  0  0  0  0  0  0  0  0  0  0  0
   38.5310   25.4370   41.1710 C   0  0  0  0  0  0  0  0  0  0  0  0
   39.1180   27.6000   43.7050 H   0  0  0  0  0  0  0  0  0  0  0  0
   40.2470   25.6940   44.6440 H   0  0  0  0  0  0  0  0  0  0  0  0
   40.3200   23.5800   43.4140 H   0  0  0  0  0  0  0  0  0  0  0  0
   39.2210   23.4470   41.2090 H   0  0  0  0  0  0  0  0  0  0  0  0
   37.8590   25.4130   39.8600 C   0  0  0  0  0  3  0  0  0  0  0  0
   38.6910   24.7800   38.7600 C   0  0  0  0  0  3  0  0  0  0  0  0
   39.0830   23.7850   39.0660 H   0  0  0  0  0  0  0  0  0  0  0  0
   37.6910   24.5190   37.6260 C   0  0  0  0  0  3  0  0  0  0  0  0
   36.8880   25.2880   37.6090 H   0  0  0  0  0  0  0  0  0  0  0  0
   37.0510   23.3110   37.9550 O   0  0  0  0  0  0  0  0  0  0  0  0
   36.6700   23.2700   39.2730 C   0  0  0  0  0  3  0  0  0  0  0  0
   37.2590   22.5220   39.8340 H   0  0  0  0  0  0  0  0  0  0  0  0
   36.5700   24.6160   39.9280 C   0  0  0  0  0  3  0  0  0  0  0  0
   36.2710   24.4580   40.9830 H   0  0  0  0  0  0  0  0  0  0  0  0
   41.1370   28.7890   40.7260 N   0  0  0  0  0  0  0  0  0  0  0  0
   39.9670   28.8670   40.8160 C   0  0  0  0  0  0  0  0  0  0  0  0
  1  6  1  0  0  0  0
  2  3  1  0  0  0  0
  2  1  2  0  0  0  0
  3  4  2  0  0  0  0
  4  8  1  0  0  0  0
  4  5  1  0  0  0  0
  5  9  1  0  0  0  0
  6  5  2  0  0  0  0
  6 21  1  0  0  0  0
  7  3  1  0  0  0  0
 10 11  2  0  0  0  0
 10 15  1  0  0  0  0
 11 12  1  0  0  0  0
 12  2  1  0  0  0  0
 12 13  2  0  0  0  0
 14 13  1  0  0  0  0
 14 18  1  0  0  0  0
 15 14  2  0  0  0  0
 16 10  1  0  0  0  0
 17 11  1  0  0  0  0
 19 16  1  0  0  0  0
 20 16  1  0  0  0  0
 21 22  1  0  0  0  0
 22 23  2  0  0  0  0
 22 27  1  0  0  0  0
 23 28  1  0  0  0  0
 24 29  1  0  0  0  0
 24 23  1  0  0  0  0
 25 24  2  0  0  0  0
 26 25  1  0  0  0  0
 26 21  2  0  0  0  0
 30 25  1  0  0  0  0
 31 39  1  0  0  0  0
 31 26  1  0  0  0  0
 32 33  1  0  0  0  0
 32 31  1  0  0  0  0
 34 36  1  0  0  0  0
 34 32  1  0  0  0  0
 35 34  1  0  0  0  0
 36 37  1  0  0  0  0
 37 38  1  0  0  0  0
 37 39  1  0  0  0  0
 39 40  1  0  0  0  0
 41 42  3  0  0  0  0
 42  1  1  0  0  0  0
M  END
>  <minimizedAffinity>
-6.06276226

$$$$

 OpenBabel03252508403D

 42 45  0  0  0  0  0  0  0  0999 V2000
   39.3590   29.9300   38.2740 C   0  0  0  0  0  0  0  0  0  0  0  0
   40.6730   29.8420   37.8980 C   0  0  0  0  0  0  0  0  0  0  0  0
   41.0720   28.6850   37.2920 C   0  0  0  0  0  0  0  0  0  0  0  0
   40.2330   27.6170   37.0430 C   0  0  0  0  0  0  0  0  0  0  0  0
   38.9240   27.7460   37.4370 C   0  0  0  0  0  0  0  0  0  0  0  0
   38.4670   28.8830   38.0480 C   0  0  0  0  0  0  0  0  0  0  0  0
   42.1070   28.5990   36.9890 H   0  0  0  0  0  0  0  0  0  0  0  0
   40.6210   26.7260   36.5550 H   0  0  0  0  0  0  0  0  0  0  0  0
   38.2780   26.8940   37.2310 H   0  0  0  0  0  0  0  0  0  0  0  0
   42.4930   33.1280   37.5540 C   0  0  0  0  0  0  0  0  0  0  0  0
   41.6580   32.0370   37.2560 C   0  0  0  0  0  0  0  0  0  0  0  0
   41.5240   30.9790   38.1740 C   0  0  0  0  0  0  0  0  0  0  0  0
   42.2370   31.1040   39.3110 N   0  0  0  0  0  0  0  0  0  0  0  0
   43.0250   32.1430   39.5830 C   0  0  0  0  0  0  0  0  0  0  0  0
   43.1520   33.1530   38.7050 N   0  0  0  0  0  0  0  0  0  0  0  0
   42.5990   34.1600   36.6130 N   0  0  0  0  0  0  0  0  0  0  0  0
   41.1050   31.9960   36.3130 H   0  0  0  0  0  0  0  0  0  0  0  0
   43.5900   32.2210   40.5080 H   0  0  0  0  0  0  0  0  0  0  0  0
   42.2060   35.1230   36.7580 H   0  0  0  0  0  0  0  0  0  0  0  0
   43.1260   33.7210   35.8260 H   0  0  0  0  0  0  0  0  0  0  0  0
   37.0590   28.9190   38.4260 C   0  0  0  0  0  0  0  0  0  0  0  0
   36.1820   29.1840   37.3860 C   0  0  0  0  0  0  0  0  0  0  0  0
   34.7990   29.2580   37.5510 C   0  0  0  0  0  0  0  0  0  0  0  0
   34.2960   29.0580   38.8120 C   0  0  0  0  0  0  0  0  0  0  0  0
   35.1690   28.7930   39.8580 C   0  0  0  0  0  0  0  0  0  0  0  0
   36.5330   28.7210   39.6850 C   0  0  0  0  0  0  0  0  0  0  0  0
   36.5140   29.3520   36.3620 H   0  0  0  0  0  0  0  0  0  0  0  0
   34.1370   29.4660   36.7230 H   0  0  0  0  0  0  0  0  0  0  0  0
   33.2170   29.1110   38.9620 H   0  0  0  0  0  0  0  0  0  0  0  0
   34.7630   28.6400   40.8250 H   0  0  0  0  0  0  0  0  0  0  0  0
   37.5020   28.4430   40.7610 C   0  0  0  0  0  3  0  0  0  0  0  0
   37.5250   29.5020   41.8470 C   0  0  0  0  0  3  0  0  0  0  0  0
   36.5030   29.7190   42.2280 H   0  0  0  0  0  0  0  0  0  0  0  0
   38.2860   28.8430   43.0060 C   0  0  0  0  0  3  0  0  0  0  0  0
   39.0580   28.1360   42.6340 H   0  0  0  0  0  0  0  0  0  0  0  0
   37.3390   28.0510   43.6790 O   0  0  0  0  0  0  0  0  0  0  0  0
   36.5720   27.3140   42.8130 C   0  0  0  0  0  3  0  0  0  0  0  0
   35.5240   27.6660   42.8110 H   0  0  0  0  0  0  0  0  0  0  0  0
   37.1800   27.1320   41.4530 C   0  0  0  0  0  3  0  0  0  0  0  0
   36.4700   26.5390   40.8420 H   0  0  0  0  0  0  0  0  0  0  0  0
   38.4390   32.0770   39.4420 N   0  0  0  0  0  0  0  0  0  0  0  0
   38.8570   31.1110   38.9180 C   0  0  0  0  0  0  0  0  0  0  0  0
  1 42  1  0  0  0  0
  2 12  1  0  0  0  0
  2  1  2  0  0  0  0
  3  2  1  0  0  0  0
  4  3  2  0  0  0  0
  4  5  1  0  0  0  0
  5  6  2  0  0  0  0
  6  1  1  0  0  0  0
  6 21  1  0  0  0  0
  7  3  1  0  0  0  0
  8  4  1  0  0  0  0
  9  5  1  0  0  0  0
 10 15  1  0  0  0  0
 11 10  2  0  0  0  0
 11 12  1  0  0  0  0
 12 13  2  0  0  0  0
 13 14  1  0  0  0  0
 14 18  1  0  0  0  0
 15 14  2  0  0  0  0
 16 19  1  0  0  0  0
 16 10  1  0  0  0  0
 17 11  1  0  0  0  0
 20 16  1  0  0  0  0
 21 26  1  0  0  0  0
 22 23  1  0  0  0  0
 22 21  2  0  0  0  0
 23 24  2  0  0  0  0
 24 29  1  0  0  0  0
 24 25  1  0  0  0  0
 25 30  1  0  0  0  0
 26 25  2  0  0  0  0
 26 31  1  0  0  0  0
 27 22  1  0  0  0  0
 28 23  1  0  0  0  0
 31 39  1  0  0  0  0
 31 32  1  0  0  0  0
 32 33  1  0  0  0  0
 32 34  1  0  0  0  0
 34 36  1  0  0  0  0
 35 34  1  0  0  0  0
 37 36  1  0  0  0  0
 38 37  1  0  0  0  0
 39 37  1  0  0  0  0
 40 39  1  0  0  0  0
 42 41  3  0  0  0  0
M  END
>  <minimizedAffinity>
-6.05970287

$$$$

 OpenBabel03252508403D

 42 45  0  0  0  0  0  0  0  0999 V2000
   38.4450   27.3340   41.6010 C   0  0  0  0  0  0  0  0  0  0  0  0
   37.3880   26.4890   41.8180 C   0  0  0  0  0  0  0  0  0  0  0  0
   36.5510   26.7900   42.8530 C   0  0  0  0  0  0  0  0  0  0  0  0
   36.7100   27.8840   43.6800 C   0  0  0  0  0  0  0  0  0  0  0  0
   37.7820   28.7060   43.4290 C   0  0  0  0  0  0  0  0  0  0  0  0
   38.6550   28.4540   42.4040 C   0  0  0  0  0  0  0  0  0  0  0  0
   35.7120   26.1320   43.0370 H   0  0  0  0  0  0  0  0  0  0  0  0
   36.0020   28.0620   44.4860 H   0  0  0  0  0  0  0  0  0  0  0  0
   37.8900   29.5630   44.0910 H   0  0  0  0  0  0  0  0  0  0  0  0
   37.6620   23.0160   40.3720 C   0  0  0  0  0  0  0  0  0  0  0  0
   37.8120   24.1010   41.2530 C   0  0  0  0  0  0  0  0  0  0  0  0
   37.2520   25.3520   40.9330 C   0  0  0  0  0  0  0  0  0  0  0  0
   36.5910   25.4090   39.7600 N   0  0  0  0  0  0  0  0  0  0  0  0
   36.4560   24.3730   38.9340 C   0  0  0  0  0  0  0  0  0  0  0  0
   36.9910   23.1780   39.2400 N   0  0  0  0  0  0  0  0  0  0  0  0
   38.2350   21.7880   40.7280 N   0  0  0  0  0  0  0  0  0  0  0  0
   38.3620   23.9890   42.1930 H   0  0  0  0  0  0  0  0  0  0  0  0
   35.9180   24.4440   37.9920 H   0  0  0  0  0  0  0  0  0  0  0  0
   37.6760   20.9410   40.9980 H   0  0  0  0  0  0  0  0  0  0  0  0
   39.2610   21.9630   40.6480 H   0  0  0  0  0  0  0  0  0  0  0  0
   39.7590   29.3890   42.2230 C   0  0  0  0  0  0  0  0  0  0  0  0
   40.9230   29.0570   42.8990 C   0  0  0  0  0  0  0  0  0  0  0  0
   42.0840   29.8260   42.8480 C   0  0  0  0  0  0  0  0  0  0  0  0
   42.0590   30.9690   42.0880 C   0  0  0  0  0  0  0  0  0  0  0  0
   40.8970   31.3070   41.4080 C   0  0  0  0  0  0  0  0  0  0  0  0
   39.7550   30.5400   41.4640 C   0  0  0  0  0  0  0  0  0  0  0  0
   41.0110   28.1650   43.5200 H   0  0  0  0  0  0  0  0  0  0  0  0
   42.9780   29.5450   43.3850 H   0  0  0  0  0  0  0  0  0  0  0  0
   42.9570   31.5850   42.0340 H   0  0  0  0  0  0  0  0  0  0  0  0
   40.8950   32.1930   40.8250 H   0  0  0  0  0  0  0  0  0  0  0  0
   38.4970   30.8550   40.7640 C   0  0  0  0  0  3  0  0  0  0  0  0
   38.2310   32.3430   40.6290 C   0  0  0  0  0  3  0  0  0  0  0  0
   39.1090   32.8790   40.2070 H   0  0  0  0  0  0  0  0  0  0  0  0
   37.1200   32.4380   39.5740 C   0  0  0  0  0  3  0  0  0  0  0  0
   36.4440   31.5580   39.6170 H   0  0  0  0  0  0  0  0  0  0  0  0
   37.7710   32.3550   38.3300 O   0  0  0  0  0  0  0  0  0  0  0  0
   38.7050   31.3500   38.3010 C   0  0  0  0  0  3  0  0  0  0  0  0
   39.7290   31.7600   38.2370 H   0  0  0  0  0  0  0  0  0  0  0  0
   38.5100   30.2970   39.3530 C   0  0  0  0  0  3  0  0  0  0  0  0
   39.3240   29.5530   39.2410 H   0  0  0  0  0  0  0  0  0  0  0  0
   40.1350   26.8850   39.6620 N   0  0  0  0  0  0  0  0  0  0  0  0
   39.3740   27.0910   40.5350 C   0  0  0  0  0  0  0  0  0  0  0  0
  1  2  2  0  0  0  0
  1  6  1  0  0  0  0
  2  3  1  0  0  0  0
  3  7  1  0  0  0  0
  3  4  2  0  0  0  0
  4  8  1  0  0  0  0
  5  4  1  0  0  0  0
  5  9  1  0  0  0  0
  6  5  2  0  0  0  0
 10 16  1  0  0  0  0
 10 11  1  0  0  0  0
 11 17  1  0  0  0  0
 12 11  2  0  0  0  0
 12  2  1  0  0  0  0
 13 12  1  0  0  0  0
 14 15  1  0  0  0  0
 14 13  2  0  0  0  0
 15 10  2  0  0  0  0
 16 19  1  0  0  0  0
 18 14  1  0  0  0  0
 20 16  1  0  0  0  0
 21  6  1  0  0  0  0
 21 22  1  0  0  0  0
 22 27  1  0  0  0  0
 23 22  2  0  0  0  0
 23 28  1  0  0  0  0
 24 23  1  0  0  0  0
 25 26  1  0  0  0  0
 25 24  2  0  0  0  0
 26 21  2  0  0  0  0
 29 24  1  0  0  0  0
 30 25  1  0  0  0  0
 31 26  1  0  0  0  0
 32 31  1  0  0  0  0
 33 32  1  0  0  0  0
 34 35  1  0  0  0  0
 34 32  1  0  0  0  0
 36 34  1  0  0  0  0
 37 36  1  0  0  0  0
 37 39  1  0  0  0  0
 38 37  1  0  0  0  0
 39 31  1  0  0  0  0
 40 39  1  0  0  0  0
 41 42  3  0  0  0  0
 42  1  1  0  0  0  0
M  END
>  <minimizedAffinity>
-6.02077246

$$$$

 OpenBabel03252508403D

 42 45  0  0  0  0  0  0  0  0999 V2000
   37.8780   28.9230   40.1620 C   0  0  0  0  0  0  0  0  0  0  0  0
   37.7630   30.2850   40.0830 C   0  0  0  0  0  0  0  0  0  0  0  0
   36.5310   30.8220   40.3190 C   0  0  0  0  0  0  0  0  0  0  0  0
   35.4120   30.0750   40.6280 C   0  0  0  0  0  0  0  0  0  0  0  0
   35.5700   28.7130   40.6970 C   0  0  0  0  0  0  0  0  0  0  0  0
   36.7820   28.1180   40.4700 C   0  0  0  0  0  0  0  0  0  0  0  0
   36.4230   31.8970   40.2610 H   0  0  0  0  0  0  0  0  0  0  0  0
   34.4600   30.5720   40.8040 H   0  0  0  0  0  0  0  0  0  0  0  0
   34.6760   28.1410   40.9420 H   0  0  0  0  0  0  0  0  0  0  0  0
   40.3940   32.1790   38.1530 C   0  0  0  0  0  0  0  0  0  0  0  0
   39.2260   31.4500   38.4380 C   0  0  0  0  0  0  0  0  0  0  0  0
   38.9560   31.0370   39.7570 C   0  0  0  0  0  0  0  0  0  0  0  0
   39.8780   31.3890   40.6750 N   0  0  0  0  0  0  0  0  0  0  0  0
   40.9810   32.0800   40.3920 C   0  0  0  0  0  0  0  0  0  0  0  0
   41.2380   32.4740   39.1330 N   0  0  0  0  0  0  0  0  0  0  0  0
   40.6250   32.5710   36.8280 N   0  0  0  0  0  0  0  0  0  0  0  0
   38.5160   31.1960   37.6460 H   0  0  0  0  0  0  0  0  0  0  0  0
   41.7100   32.3520   41.1520 H   0  0  0  0  0  0  0  0  0  0  0  0
   40.5780   33.5670   36.5000 H   0  0  0  0  0  0  0  0  0  0  0  0
   40.8320   31.6720   36.3400 H   0  0  0  0  0  0  0  0  0  0  0  0
   36.8430   26.6650   40.5690 C   0  0  0  0  0  0  0  0  0  0  0  0
   37.0540   26.1740   41.8470 C   0  0  0  0  0  0  0  0  0  0  0  0
   37.1410   24.8140   42.1400 C   0  0  0  0  0  0  0  0  0  0  0  0
   37.0110   23.9280   41.1010 C   0  0  0  0  0  0  0  0  0  0  0  0
   36.7990   24.4130   39.8170 C   0  0  0  0  0  0  0  0  0  0  0  0
   36.7140   25.7580   39.5370 C   0  0  0  0  0  0  0  0  0  0  0  0
   37.1660   26.8210   42.7170 H   0  0  0  0  0  0  0  0  0  0  0  0
   37.3060   24.4570   43.1470 H   0  0  0  0  0  0  0  0  0  0  0  0
   37.0750   22.8590   41.3080 H   0  0  0  0  0  0  0  0  0  0  0  0
   36.7000   23.7150   39.0250 H   0  0  0  0  0  0  0  0  0  0  0  0
   36.4920   26.3240   38.1950 C   0  0  0  0  0  3  0  0  0  0  0  0
   37.5830   25.9770   37.1990 C   0  0  0  0  0  3  0  0  0  0  0  0
   37.7880   24.8840   37.1820 H   0  0  0  0  0  0  0  0  0  0  0  0
   36.9770   26.3230   35.8330 C   0  0  0  0  0  3  0  0  0  0  0  0
   36.2770   27.1830   35.9060 H   0  0  0  0  0  0  0  0  0  0  0  0
   36.1840   25.2180   35.4780 O   0  0  0  0  0  0  0  0  0  0  0  0
   35.4030   24.7860   36.5210 C   0  0  0  0  0  3  0  0  0  0  0  0
   35.7300   23.7930   36.8770 H   0  0  0  0  0  0  0  0  0  0  0  0
   35.1950   25.8090   37.5990 C   0  0  0  0  0  3  0  0  0  0  0  0
   34.5670   25.3460   38.3870 H   0  0  0  0  0  0  0  0  0  0  0  0
   40.1690   27.7410   39.7390 N   0  0  0  0  0  0  0  0  0  0  0  0
   39.1380   28.2770   39.9280 C   0  0  0  0  0  0  0  0  0  0  0  0
  1  6  1  0  0  0  0
  2  1  2  0  0  0  0
  2  3  1  0  0  0  0
  3  4  2  0  0  0  0
  4  5  1  0  0  0  0
  4  8  1  0  0  0  0
  5  9  1  0  0  0  0
  6 21  1  0  0  0  0
  6  5  2  0  0  0  0
  7  3  1  0  0  0  0
 10 11  2  0  0  0  0
 10 15  1  0  0  0  0
 11 12  1  0  0  0  0
 12  2  1  0  0  0  0
 12 13  2  0  0  0  0
 14 13  1  0  0  0  0
 14 18  1  0  0  0  0
 15 14  2  0  0  0  0
 16 10  1  0  0  0  0
 17 11  1  0  0  0  0
 19 16  1  0  0  0  0
 20 16  1  0  0  0  0
 21 22  1  0  0  0  0
 22 23  2  0  0  0  0
 22 27  1  0  0  0  0
 23 28  1  0  0  0  0
 24 29  1  0  0  0  0
 24 23  1  0  0  0  0
 25 24  2  0  0  0  0
 26 25  1  0  0  0  0
 26 21  2  0  0  0  0
 30 25  1  0  0  0  0
 31 26  1  0  0  0  0
 32 31  1  0  0  0  0
 33 32  1  0  0  0  0
 34 35  1  0  0  0  0
 34 32  1  0  0  0  0
 36 34  1  0  0  0  0
 36 37  1  0  0  0  0
 37 38  1  0  0  0  0
 37 39  1  0  0  0  0
 39 31  1  0  0  0  0
 39 40  1  0  0  0  0
 41 42  3  0  0  0  0
 42  1  1  0  0  0  0
M  END
>  <minimizedAffinity>
-5.84117222

$$$$
