
 OpenBabel03242511053D

 26 28  0  0  1  0  0  0  0  0999 V2000
   37.9570   28.8150   43.2890 C   0  0  1  0  0  0  0  0  0  0  0  0
   36.9770   27.7770   43.6790 C   0  0  0  0  0  0  0  0  0  0  0  0
   38.2610   27.4020   42.9450 C   0  0  2  0  0  0  0  0  0  0  0  0
   38.3910   29.3440   44.1620 H   0  0  0  0  0  0  0  0  0  0  0  0
   36.8600   27.4950   44.7210 H   0  0  0  0  0  0  0  0  0  0  0  0
   36.0320   27.7150   43.0820 H   0  0  0  0  0  0  0  0  0  0  0  0
   38.1360   27.1340   41.8820 H   0  0  0  0  0  0  0  0  0  0  0  0
   39.4180   26.8080   43.6800 C   0  0  0  0  0  3  0  0  0  0  0  0
   40.6270   27.6760   43.3070 C   0  0  0  0  0  3  0  0  0  0  0  0
   40.2730   28.7260   43.1900 H   0  0  0  0  0  0  0  0  0  0  0  0
   41.1040   27.2440   41.9200 C   0  0  0  0  0  3  0  0  0  0  0  0
   40.2670   27.1580   41.2030 H   0  0  0  0  0  0  0  0  0  0  0  0
   41.7100   26.0040   41.9760 O   0  0  0  0  0  0  0  0  0  0  0  0
   41.1450   25.1570   42.9070 C   0  0  0  0  0  3  0  0  0  0  0  0
   41.7690   25.1620   43.8100 H   0  0  0  0  0  0  0  0  0  0  0  0
   39.6800   25.4280   43.1700 C   0  0  0  0  0  3  0  0  0  0  0  0
   39.1430   25.1980   42.2220 H   0  0  0  0  0  0  0  0  0  0  0  0
   36.2060   30.6510   40.5870 C   0  0  0  0  0  0  0  0  0  0  0  0
   37.2160   31.5480   40.1390 C   0  0  0  0  0  0  0  0  0  0  0  0
   38.4760   31.5020   40.7840 C   0  0  0  0  0  0  0  0  0  0  0  0
   38.6610   30.6210   41.7810 N   0  0  0  0  0  0  0  0  0  0  0  0
   37.6590   29.7780   42.1790 C   0  0  0  0  0  0  0  0  0  0  0  0
   36.4470   29.8020   41.5800 N   0  0  0  0  0  0  0  0  0  0  0  0
   35.2580   30.7070   40.0780 H   0  0  0  0  0  0  0  0  0  0  0  0
   37.0880   32.2530   39.3480 H   0  0  0  0  0  0  0  0  0  0  0  0
   39.2720   32.1660   40.4740 H   0  0  0  0  0  0  0  0  0  0  0  0
  1  2  1  0  0  0  0
  1  4  1  1  0  0  0
  2  5  1  0  0  0  0
  3  7  1  6  0  0  0
  3  1  1  0  0  0  0
  3  2  1  0  0  0  0
  3  8  1  0  0  0  0
  6  2  1  0  0  0  0
  9  8  1  0  0  0  0
 10  9  1  0  0  0  0
 11 13  1  0  0  0  0
 11  9  1  0  0  0  0
 12 11  1  0  0  0  0
 13 14  1  0  0  0  0
 14 16  1  0  0  0  0
 14 15  1  0  0  0  0
 16  8  1  0  0  0  0
 17 16  1  0  0  0  0
 18 23  1  0  0  0  0
 19 18  2  0  0  0  0
 19 20  1  0  0  0  0
 20 21  2  0  0  0  0
 21 22  1  0  0  0  0
 22  1  1  0  0  0  0
 23 22  2  0  0  0  0
 24 18  1  0  0  0  0
 25 19  1  0  0  0  0
 26 20  1  0  0  0  0
M  END
>  <minimizedAffinity>
-4.69071054

$$$$

 OpenBabel03242511053D

 26 28  0  0  1  0  0  0  0  0999 V2000
   37.7240   28.1880   42.8370 C   0  0  1  0  0  0  0  0  0  0  0  0
   36.6020   27.7170   43.6790 C   0  0  0  0  0  0  0  0  0  0  0  0
   36.9920   26.9690   42.4070 C   0  0  2  0  0  0  0  0  0  0  0  0
   38.6970   28.1680   43.3690 H   0  0  0  0  0  0  0  0  0  0  0  0
   36.7940   27.2590   44.6440 H   0  0  0  0  0  0  0  0  0  0  0  0
   35.6490   28.3020   43.6340 H   0  0  0  0  0  0  0  0  0  0  0  0
   36.3070   27.1020   41.5530 H   0  0  0  0  0  0  0  0  0  0  0  0
   37.7810   25.7020   42.4760 C   0  0  0  0  0  3  0  0  0  0  0  0
   38.9640   25.9050   41.5200 C   0  0  0  0  0  3  0  0  0  0  0  0
   39.2620   26.9790   41.5670 H   0  0  0  0  0  0  0  0  0  0  0  0
   38.4570   25.6810   40.0950 C   0  0  0  0  0  3  0  0  0  0  0  0
   37.5140   26.2230   39.9000 H   0  0  0  0  0  0  0  0  0  0  0  0
   38.2000   24.3410   39.8730 O   0  0  0  0  0  0  0  0  0  0  0  0
   37.7210   23.6820   40.9860 C   0  0  0  0  0  3  0  0  0  0  0  0
   38.5490   23.1310   41.4510 H   0  0  0  0  0  0  0  0  0  0  0  0
   36.9600   24.5730   41.9430 C   0  0  0  0  0  3  0  0  0  0  0  0
   36.0460   24.9070   41.4020 H   0  0  0  0  0  0  0  0  0  0  0  0
   38.5180   31.3660   41.1020 C   0  0  0  0  0  0  0  0  0  0  0  0
   37.2660   31.6990   40.5120 C   0  0  0  0  0  0  0  0  0  0  0  0
   36.1790   30.8160   40.7210 C   0  0  0  0  0  0  0  0  0  0  0  0
   36.3750   29.7120   41.4620 N   0  0  0  0  0  0  0  0  0  0  0  0
   37.5980   29.4320   42.0100 C   0  0  0  0  0  0  0  0  0  0  0  0
   38.6520   30.2590   41.8240 N   0  0  0  0  0  0  0  0  0  0  0  0
   39.3260   32.0550   40.9270 H   0  0  0  0  0  0  0  0  0  0  0  0
   37.0920   32.5710   39.9220 H   0  0  0  0  0  0  0  0  0  0  0  0
   35.2100   31.0310   40.2910 H   0  0  0  0  0  0  0  0  0  0  0  0
  1  4  1  1  0  0  0
  1  2  1  0  0  0  0
  2  5  1  0  0  0  0
  3  7  1  6  0  0  0
  3  8  1  0  0  0  0
  3  1  1  0  0  0  0
  3  2  1  0  0  0  0
  6  2  1  0  0  0  0
  9 10  1  0  0  0  0
  9  8  1  0  0  0  0
 11  9  1  0  0  0  0
 12 11  1  0  0  0  0
 13 11  1  0  0  0  0
 13 14  1  0  0  0  0
 14 15  1  0  0  0  0
 14 16  1  0  0  0  0
 16  8  1  0  0  0  0
 17 16  1  0  0  0  0
 18 23  1  0  0  0  0
 19 20  1  0  0  0  0
 19 18  2  0  0  0  0
 20 21  2  0  0  0  0
 21 22  1  0  0  0  0
 22  1  1  0  0  0  0
 23 22  2  0  0  0  0
 24 18  1  0  0  0  0
 25 19  1  0  0  0  0
 26 20  1  0  0  0  0
M  END
>  <minimizedAffinity>
-4.66844463

$$$$

 OpenBabel03242511053D

 26 28  0  0  1  0  0  0  0  0999 V2000
   37.7000   28.5670   43.2090 C   0  0  1  0  0  0  0  0  0  0  0  0
   36.7710   27.4990   43.6420 C   0  0  0  0  0  0  0  0  0  0  0  0
   38.0730   27.1570   42.9220 C   0  0  2  0  0  0  0  0  0  0  0  0
   38.1080   29.1510   44.0600 H   0  0  0  0  0  0  0  0  0  0  0  0
   36.6680   27.2550   44.6950 H   0  0  0  0  0  0  0  0  0  0  0  0
   35.8310   27.3680   43.0500 H   0  0  0  0  0  0  0  0  0  0  0  0
   37.9610   26.8420   41.8710 H   0  0  0  0  0  0  0  0  0  0  0  0
   39.2570   26.6510   43.6790 C   0  0  0  0  0  3  0  0  0  0  0  0
   40.4030   27.6100   43.3340 C   0  0  0  0  0  3  0  0  0  0  0  0
   39.9720   28.6310   43.2120 H   0  0  0  0  0  0  0  0  0  0  0  0
   40.9390   27.2220   41.9550 C   0  0  0  0  0  3  0  0  0  0  0  0
   40.1260   27.0760   41.2210 H   0  0  0  0  0  0  0  0  0  0  0  0
   41.6370   26.0320   42.0200 O   0  0  0  0  0  0  0  0  0  0  0  0
   41.1200   25.1400   42.9360 C   0  0  0  0  0  3  0  0  0  0  0  0
   41.7230   25.1890   43.8520 H   0  0  0  0  0  0  0  0  0  0  0  0
   39.6340   25.2970   43.1700 C   0  0  0  0  0  3  0  0  0  0  0  0
   39.1350   25.0310   42.2100 H   0  0  0  0  0  0  0  0  0  0  0  0
   37.8370   31.2960   40.7050 C   0  0  0  0  0  0  0  0  0  0  0  0
   36.6330   31.0850   39.9750 C   0  0  0  0  0  0  0  0  0  0  0  0
   35.8060   30.0020   40.3590 C   0  0  0  0  0  0  0  0  0  0  0  0
   36.1900   29.2280   41.3890 N   0  0  0  0  0  0  0  0  0  0  0  0
   37.3570   29.4690   42.0620 C   0  0  0  0  0  0  0  0  0  0  0  0
   38.1650   30.4960   41.7140 N   0  0  0  0  0  0  0  0  0  0  0  0
   38.4460   32.1260   40.3910 H   0  0  0  0  0  0  0  0  0  0  0  0
   36.3120   31.6890   39.1560 H   0  0  0  0  0  0  0  0  0  0  0  0
   34.8820   29.8060   39.8320 H   0  0  0  0  0  0  0  0  0  0  0  0
  1  2  1  0  0  0  0
  1  4  1  1  0  0  0
  2  5  1  0  0  0  0
  3  7  1  6  0  0  0
  3  1  1  0  0  0  0
  3  2  1  0  0  0  0
  3  8  1  0  0  0  0
  6  2  1  0  0  0  0
  9  8  1  0  0  0  0
 10  9  1  0  0  0  0
 11 13  1  0  0  0  0
 11  9  1  0  0  0  0
 12 11  1  0  0  0  0
 13 14  1  0  0  0  0
 14 16  1  0  0  0  0
 14 15  1  0  0  0  0
 16  8  1  0  0  0  0
 17 16  1  0  0  0  0
 18 23  1  0  0  0  0
 19 20  1  0  0  0  0
 19 18  2  0  0  0  0
 20 21  2  0  0  0  0
 21 22  1  0  0  0  0
 22  1  1  0  0  0  0
 23 22  2  0  0  0  0
 24 18  1  0  0  0  0
 25 19  1  0  0  0  0
 26 20  1  0  0  0  0
M  END
>  <minimizedAffinity>
-4.64243078

$$$$

 OpenBabel03242511053D

 26 28  0  0  1  0  0  0  0  0999 V2000
   38.0310   27.1190   43.3570 C   0  0  1  0  0  0  0  0  0  0  0  0
   36.5800   27.3710   43.2200 C   0  0  0  0  0  0  0  0  0  0  0  0
   37.3130   26.4680   42.2320 C   0  0  2  0  0  0  0  0  0  0  0  0
   38.2890   26.6030   44.3050 H   0  0  0  0  0  0  0  0  0  0  0  0
   35.8770   26.9310   43.9200 H   0  0  0  0  0  0  0  0  0  0  0  0
   36.2700   28.3740   42.8340 H   0  0  0  0  0  0  0  0  0  0  0  0
   37.4930   26.9070   41.2360 H   0  0  0  0  0  0  0  0  0  0  0  0
   37.2040   24.9810   42.3280 C   0  0  0  0  0  3  0  0  0  0  0  0
   38.6420   24.4770   42.5050 C   0  0  0  0  0  3  0  0  0  0  0  0
   39.1970   25.2290   43.1130 H   0  0  0  0  0  0  0  0  0  0  0  0
   39.3130   24.4820   41.1310 C   0  0  0  0  0  3  0  0  0  0  0  0
   39.1420   25.4310   40.5900 H   0  0  0  0  0  0  0  0  0  0  0  0
   38.8040   23.4740   40.3360 O   0  0  0  0  0  0  0  0  0  0  0  0
   37.4640   23.2270   40.5500 C   0  0  0  0  0  3  0  0  0  0  0  0
   37.3690   22.3450   41.1980 H   0  0  0  0  0  0  0  0  0  0  0  0
   36.6910   24.4330   41.0360 C   0  0  0  0  0  3  0  0  0  0  0  0
   36.7080   25.1720   40.2040 H   0  0  0  0  0  0  0  0  0  0  0  0
   41.2280   28.8760   42.7030 C   0  0  0  0  0  0  0  0  0  0  0  0
   40.7930   30.2170   42.5120 C   0  0  0  0  0  0  0  0  0  0  0  0
   39.4050   30.4830   42.6070 C   0  0  0  0  0  0  0  0  0  0  0  0
   38.5680   29.4660   42.8720 N   0  0  0  0  0  0  0  0  0  0  0  0
   39.0330   28.1900   43.0480 C   0  0  0  0  0  0  0  0  0  0  0  0
   40.3530   27.9100   42.9620 N   0  0  0  0  0  0  0  0  0  0  0  0
   42.2890   28.7030   42.6260 H   0  0  0  0  0  0  0  0  0  0  0  0
   41.4430   31.0380   42.3020 H   0  0  0  0  0  0  0  0  0  0  0  0
   39.0310   31.4880   42.4690 H   0  0  0  0  0  0  0  0  0  0  0  0
  1  4  1  1  0  0  0
  2  1  1  0  0  0  0
  2  5  1  0  0  0  0
  3  7  1  6  0  0  0
  3  8  1  0  0  0  0
  3  2  1  0  0  0  0
  3  1  1  0  0  0  0
  6  2  1  0  0  0  0
  8  9  1  0  0  0  0
  9 10  1  0  0  0  0
 11  9  1  0  0  0  0
 12 11  1  0  0  0  0
 13 14  1  0  0  0  0
 13 11  1  0  0  0  0
 14 16  1  0  0  0  0
 14 15  1  0  0  0  0
 16  8  1  0  0  0  0
 17 16  1  0  0  0  0
 18 23  1  0  0  0  0
 19 20  1  0  0  0  0
 19 18  2  0  0  0  0
 20 21  2  0  0  0  0
 21 22  1  0  0  0  0
 22  1  1  0  0  0  0
 23 22  2  0  0  0  0
 24 18  1  0  0  0  0
 25 19  1  0  0  0  0
 26 20  1  0  0  0  0
M  END
>  <minimizedAffinity>
-4.61694622

$$$$

 OpenBabel03242511053D

 26 28  0  0  1  0  0  0  0  0999 V2000
   36.4230   30.3710   41.2050 C   0  0  1  0  0  0  0  0  0  0  0  0
   35.5730   29.6970   40.1990 C   0  0  0  0  0  0  0  0  0  0  0  0
   36.7590   28.9730   40.8300 C   0  0  2  0  0  0  0  0  0  0  0  0
   35.8650   30.6460   42.1240 H   0  0  0  0  0  0  0  0  0  0  0  0
   34.5640   29.3850   40.4530 H   0  0  0  0  0  0  0  0  0  0  0  0
   35.6970   30.0110   39.1320 H   0  0  0  0  0  0  0  0  0  0  0  0
   37.6400   28.8550   40.1770 H   0  0  0  0  0  0  0  0  0  0  0  0
   36.5530   27.9630   41.9100 C   0  0  0  0  0  3  0  0  0  0  0  0
   37.3920   28.4550   43.0960 C   0  0  0  0  0  3  0  0  0  0  0  0
   37.3650   29.5700   43.0960 H   0  0  0  0  0  0  0  0  0  0  0  0
   38.8500   28.0790   42.8260 C   0  0  0  0  0  3  0  0  0  0  0  0
   39.1640   28.3480   41.8010 H   0  0  0  0  0  0  0  0  0  0  0  0
   39.0340   26.7160   42.9540 O   0  0  0  0  0  0  0  0  0  0  0  0
   37.9460   25.9730   42.5450 C   0  0  0  0  0  3  0  0  0  0  0  0
   37.3750   25.6690   43.4320 H   0  0  0  0  0  0  0  0  0  0  0  0
   37.1130   26.6460   41.4770 C   0  0  0  0  0  3  0  0  0  0  0  0
   37.7580   26.7170   40.5730 H   0  0  0  0  0  0  0  0  0  0  0  0
   39.4730   32.4480   40.8580 C   0  0  0  0  0  0  0  0  0  0  0  0
   39.0010   33.5320   40.0650 C   0  0  0  0  0  0  0  0  0  0  0  0
   37.6430   33.5180   39.6630 C   0  0  0  0  0  0  0  0  0  0  0  0
   36.8660   32.4900   40.0460 N   0  0  0  0  0  0  0  0  0  0  0  0
   37.3640   31.4680   40.8090 C   0  0  0  0  0  0  0  0  0  0  0  0
   38.6570   31.4580   41.2050 N   0  0  0  0  0  0  0  0  0  0  0  0
   40.5090   32.4860   41.1500 H   0  0  0  0  0  0  0  0  0  0  0  0
   39.6030   34.3570   39.7530 H   0  0  0  0  0  0  0  0  0  0  0  0
   37.2440   34.3220   39.0610 H   0  0  0  0  0  0  0  0  0  0  0  0
  1  4  1  1  0  0  0
  2  5  1  0  0  0  0
  2  3  1  0  0  0  0
  2  1  1  0  0  0  0
  3  7  1  6  0  0  0
  3  1  1  0  0  0  0
  3  8  1  0  0  0  0
  6  2  1  0  0  0  0
  8  9  1  0  0  0  0
 10  9  1  0  0  0  0
 11 13  1  0  0  0  0
 11  9  1  0  0  0  0
 12 11  1  0  0  0  0
 14 13  1  0  0  0  0
 14 15  1  0  0  0  0
 16  8  1  0  0  0  0
 16 14  1  0  0  0  0
 17 16  1  0  0  0  0
 18 24  1  0  0  0  0
 18 23  1  0  0  0  0
 19 18  2  0  0  0  0
 20 21  2  0  0  0  0
 20 19  1  0  0  0  0
 21 22  1  0  0  0  0
 22  1  1  0  0  0  0
 22 23  2  0  0  0  0
 25 19  1  0  0  0  0
 26 20  1  0  0  0  0
M  END
>  <minimizedAffinity>
-4.53233147

$$$$

 OpenBabel03242511053D

 26 28  0  0  1  0  0  0  0  0999 V2000
   36.3890   30.0870   41.3320 C   0  0  1  0  0  0  0  0  0  0  0  0
   35.4470   29.3410   40.4680 C   0  0  0  0  0  0  0  0  0  0  0  0
   36.7340   28.6890   40.9650 C   0  0  2  0  0  0  0  0  0  0  0  0
   35.9410   30.3770   42.3050 H   0  0  0  0  0  0  0  0  0  0  0  0
   34.4940   29.0010   40.8600 H   0  0  0  0  0  0  0  0  0  0  0  0
   35.4200   29.6160   39.3840 H   0  0  0  0  0  0  0  0  0  0  0  0
   37.5290   28.5790   40.2090 H   0  0  0  0  0  0  0  0  0  0  0  0
   36.7110   27.7150   42.0980 C   0  0  0  0  0  3  0  0  0  0  0  0
   37.6310   28.3140   43.1700 C   0  0  0  0  0  3  0  0  0  0  0  0
   37.5250   29.4230   43.1320 H   0  0  0  0  0  0  0  0  0  0  0  0
   39.0760   28.0230   42.7610 C   0  0  0  0  0  3  0  0  0  0  0  0
   39.2630   28.2670   41.7000 H   0  0  0  0  0  0  0  0  0  0  0  0
   39.3670   26.6820   42.9200 O   0  0  0  0  0  0  0  0  0  0  0  0
   38.2990   25.8520   42.6550 C   0  0  0  0  0  3  0  0  0  0  0  0
   37.8440   25.5500   43.6080 H   0  0  0  0  0  0  0  0  0  0  0  0
   37.3150   26.4210   41.6570 C   0  0  0  0  0  3  0  0  0  0  0  0
   37.8580   26.4950   40.6880 H   0  0  0  0  0  0  0  0  0  0  0  0
   37.5080   32.9900   39.3190 C   0  0  0  0  0  0  0  0  0  0  0  0
   38.8300   33.1940   39.8060 C   0  0  0  0  0  0  0  0  0  0  0  0
   39.3020   32.3280   40.8230 C   0  0  0  0  0  0  0  0  0  0  0  0
   38.4880   31.3600   41.2780 N   0  0  0  0  0  0  0  0  0  0  0  0
   37.2230   31.2030   40.7790 C   0  0  0  0  0  0  0  0  0  0  0  0
   36.7490   32.0170   39.8090 N   0  0  0  0  0  0  0  0  0  0  0  0
   37.1760   33.6630   38.5460 H   0  0  0  0  0  0  0  0  0  0  0  0
   39.4910   33.9560   39.4560 H   0  0  0  0  0  0  0  0  0  0  0  0
   40.3000   32.4470   41.2210 H   0  0  0  0  0  0  0  0  0  0  0  0
  1  4  1  1  0  0  0
  2  5  1  0  0  0  0
  2  3  1  0  0  0  0
  2  1  1  0  0  0  0
  3  7  1  6  0  0  0
  3  1  1  0  0  0  0
  3  8  1  0  0  0  0
  6  2  1  0  0  0  0
  8  9  1  0  0  0  0
 10  9  1  0  0  0  0
 11 13  1  0  0  0  0
 11  9  1  0  0  0  0
 12 11  1  0  0  0  0
 14 13  1  0  0  0  0
 14 15  1  0  0  0  0
 16  8  1  0  0  0  0
 16 14  1  0  0  0  0
 17 16  1  0  0  0  0
 18 19  2  0  0  0  0
 18 23  1  0  0  0  0
 19 20  1  0  0  0  0
 20 26  1  0  0  0  0
 20 21  2  0  0  0  0
 22 21  1  0  0  0  0
 22  1  1  0  0  0  0
 23 22  2  0  0  0  0
 24 18  1  0  0  0  0
 25 19  1  0  0  0  0
M  END
>  <minimizedAffinity>
-4.48663425

$$$$

 OpenBabel03242511053D

 26 28  0  0  1  0  0  0  0  0999 V2000
   37.1750   29.5230   39.9360 C   0  0  1  0  0  0  0  0  0  0  0  0
   35.8980   29.8910   39.2860 C   0  0  0  0  0  0  0  0  0  0  0  0
   36.7460   30.9450   39.9930 C   0  0  2  0  0  0  0  0  0  0  0  0
   37.9260   29.1340   39.2170 H   0  0  0  0  0  0  0  0  0  0  0  0
   35.8180   29.9130   38.2040 H   0  0  0  0  0  0  0  0  0  0  0  0
   34.9540   29.5890   39.8050 H   0  0  0  0  0  0  0  0  0  0  0  0
   36.3590   31.2850   40.9680 H   0  0  0  0  0  0  0  0  0  0  0  0
   37.5970   31.8930   39.2130 C   0  0  0  0  0  3  0  0  0  0  0  0
   39.0350   31.6260   39.6740 C   0  0  0  0  0  3  0  0  0  0  0  0
   39.1300   30.5360   39.8890 H   0  0  0  0  0  0  0  0  0  0  0  0
   39.2330   32.3290   41.0180 C   0  0  0  0  0  3  0  0  0  0  0  0
   38.4020   32.1280   41.7180 H   0  0  0  0  0  0  0  0  0  0  0  0
   39.2890   33.6990   40.8480 O   0  0  0  0  0  0  0  0  0  0  0  0
   38.4730   34.1610   39.8360 C   0  0  0  0  0  3  0  0  0  0  0  0
   39.0860   34.3340   38.9420 H   0  0  0  0  0  0  0  0  0  0  0  0
   37.2560   33.2980   39.5900 C   0  0  0  0  0  3  0  0  0  0  0  0
   36.6300   33.3690   40.5080 H   0  0  0  0  0  0  0  0  0  0  0  0
   37.4130   28.5970   43.5170 C   0  0  0  0  0  0  0  0  0  0  0  0
   37.2430   27.1840   43.4670 C   0  0  0  0  0  0  0  0  0  0  0  0
   37.0440   26.5850   42.1990 C   0  0  0  0  0  0  0  0  0  0  0  0
   37.0250   27.3710   41.1080 N   0  0  0  0  0  0  0  0  0  0  0  0
   37.1930   28.7260   41.2050 C   0  0  0  0  0  0  0  0  0  0  0  0
   37.3840   29.3220   42.4040 N   0  0  0  0  0  0  0  0  0  0  0  0
   37.5640   29.0250   44.4930 H   0  0  0  0  0  0  0  0  0  0  0  0
   37.2560   26.5450   44.3220 H   0  0  0  0  0  0  0  0  0  0  0  0
   36.9110   25.5160   42.1150 H   0  0  0  0  0  0  0  0  0  0  0  0
  1  4  1  6  0  0  0
  1  3  1  0  0  0  0
  1 22  1  0  0  0  0
  2  6  1  0  0  0  0
  2  1  1  0  0  0  0
  2  3  1  0  0  0  0
  3  7  1  1  0  0  0
  5  2  1  0  0  0  0
  8 16  1  0  0  0  0
  8  9  1  0  0  0  0
  8  3  1  0  0  0  0
  9 10  1  0  0  0  0
  9 11  1  0  0  0  0
 11 12  1  0  0  0  0
 13 11  1  0  0  0  0
 14 13  1  0  0  0  0
 15 14  1  0  0  0  0
 16 14  1  0  0  0  0
 16 17  1  0  0  0  0
 18 24  1  0  0  0  0
 19 18  1  0  0  0  0
 19 25  1  0  0  0  0
 20 19  2  0  0  0  0
 21 22  2  0  0  0  0
 21 20  1  0  0  0  0
 22 23  1  0  0  0  0
 23 18  2  0  0  0  0
 26 20  1  0  0  0  0
M  END
>  <minimizedAffinity>
-4.41640902

$$$$

 OpenBabel03242511053D

 26 28  0  0  1  0  0  0  0  0999 V2000
   38.0990   24.5050   42.4910 C   0  0  1  0  0  0  0  0  0  0  0  0
   39.5560   24.5830   42.7420 C   0  0  0  0  0  0  0  0  0  0  0  0
   38.7740   25.8130   42.2880 C   0  0  2  0  0  0  0  0  0  0  0  0
   37.5210   24.2440   43.4010 H   0  0  0  0  0  0  0  0  0  0  0  0
   39.9410   24.5440   43.7560 H   0  0  0  0  0  0  0  0  0  0  0  0
   40.2310   24.1190   41.9800 H   0  0  0  0  0  0  0  0  0  0  0  0
   38.9290   26.1080   41.2370 H   0  0  0  0  0  0  0  0  0  0  0  0
   38.3900   26.8790   43.2610 C   0  0  0  0  0  3  0  0  0  0  0  0
   36.8830   27.0880   43.0650 C   0  0  0  0  0  3  0  0  0  0  0  0
   36.4290   26.1010   42.8160 H   0  0  0  0  0  0  0  0  0  0  0  0
   36.6900   27.9560   41.8200 C   0  0  0  0  0  3  0  0  0  0  0  0
   37.2950   27.5980   40.9670 H   0  0  0  0  0  0  0  0  0  0  0  0
   37.0810   29.2580   42.0670 O   0  0  0  0  0  0  0  0  0  0  0  0
   38.1530   29.3560   42.9300 C   0  0  0  0  0  3  0  0  0  0  0  0
   37.7760   29.6040   43.9310 H   0  0  0  0  0  0  0  0  0  0  0  0
   39.0740   28.1570   42.8980 C   0  0  0  0  0  3  0  0  0  0  0  0
   39.5330   28.1400   41.8840 H   0  0  0  0  0  0  0  0  0  0  0  0
   37.8120   22.2230   39.5840 C   0  0  0  0  0  0  0  0  0  0  0  0
   36.5090   22.5280   39.0990 C   0  0  0  0  0  0  0  0  0  0  0  0
   35.7570   23.5090   39.7910 C   0  0  0  0  0  0  0  0  0  0  0  0
   36.3030   24.1040   40.8650 N   0  0  0  0  0  0  0  0  0  0  0  0
   37.5610   23.7790   41.2950 C   0  0  0  0  0  0  0  0  0  0  0  0
   38.2990   22.8450   40.6530 N   0  0  0  0  0  0  0  0  0  0  0  0
   38.3610   21.4740   39.0390 H   0  0  0  0  0  0  0  0  0  0  0  0
   36.0590   22.0660   38.2480 H   0  0  0  0  0  0  0  0  0  0  0  0
   34.7630   23.7710   39.4560 H   0  0  0  0  0  0  0  0  0  0  0  0
  1  2  1  0  0  0  0
  1  4  1  1  0  0  0
  2  5  1  0  0  0  0
  3  7  1  6  0  0  0
  3  1  1  0  0  0  0
  3  2  1  0  0  0  0
  3  8  1  0  0  0  0
  6  2  1  0  0  0  0
  9  8  1  0  0  0  0
 10  9  1  0  0  0  0
 11 13  1  0  0  0  0
 11  9  1  0  0  0  0
 12 11  1  0  0  0  0
 13 14  1  0  0  0  0
 14 15  1  0  0  0  0
 16 14  1  0  0  0  0
 16  8  1  0  0  0  0
 17 16  1  0  0  0  0
 18 23  1  0  0  0  0
 19 18  2  0  0  0  0
 19 20  1  0  0  0  0
 20 21  2  0  0  0  0
 21 22  1  0  0  0  0
 22  1  1  0  0  0  0
 23 22  2  0  0  0  0
 24 18  1  0  0  0  0
 25 19  1  0  0  0  0
 26 20  1  0  0  0  0
M  END
>  <minimizedAffinity>
-4.397964

$$$$

 OpenBabel03242511053D

 26 28  0  0  1  0  0  0  0  0999 V2000
   36.6510   28.1210   42.1360 C   0  0  1  0  0  0  0  0  0  0  0  0
   37.5600   28.7940   43.0910 C   0  0  0  0  0  0  0  0  0  0  0  0
   37.4640   29.2620   41.6420 C   0  0  2  0  0  0  0  0  0  0  0  0
   35.5840   28.2050   42.4280 H   0  0  0  0  0  0  0  0  0  0  0  0
   37.1600   29.4240   43.8790 H   0  0  0  0  0  0  0  0  0  0  0  0
   38.4970   28.2520   43.3740 H   0  0  0  0  0  0  0  0  0  0  0  0
   38.3210   28.9920   41.0020 H   0  0  0  0  0  0  0  0  0  0  0  0
   36.6850   30.4840   41.2810 C   0  0  0  0  0  3  0  0  0  0  0  0
   35.7070   30.0360   40.1870 C   0  0  0  0  0  3  0  0  0  0  0  0
   35.3990   28.9880   40.4090 H   0  0  0  0  0  0  0  0  0  0  0  0
   36.4800   29.9670   38.8690 C   0  0  0  0  0  3  0  0  0  0  0  0
   37.4400   29.4300   38.9790 H   0  0  0  0  0  0  0  0  0  0  0  0
   36.7830   31.2360   38.4130 O   0  0  0  0  0  0  0  0  0  0  0  0
   37.0430   32.1360   39.4250 C   0  0  0  0  0  3  0  0  0  0  0  0
   36.1440   32.7440   39.5930 H   0  0  0  0  0  0  0  0  0  0  0  0
   37.5990   31.5010   40.6800 C   0  0  0  0  0  3  0  0  0  0  0  0
   38.5980   31.0920   40.4080 H   0  0  0  0  0  0  0  0  0  0  0  0
   37.0040   25.1920   39.8930 C   0  0  0  0  0  0  0  0  0  0  0  0
   37.5020   24.1990   40.7820 C   0  0  0  0  0  0  0  0  0  0  0  0
   37.7110   24.5650   42.1340 C   0  0  0  0  0  0  0  0  0  0  0  0
   37.4300   25.8230   42.5150 N   0  0  0  0  0  0  0  0  0  0  0  0
   36.9530   26.7460   41.6230 C   0  0  0  0  0  0  0  0  0  0  0  0
   36.7460   26.4210   40.3260 N   0  0  0  0  0  0  0  0  0  0  0  0
   36.8540   24.8860   38.8710 H   0  0  0  0  0  0  0  0  0  0  0  0
   37.7290   23.1950   40.4980 H   0  0  0  0  0  0  0  0  0  0  0  0
   38.0870   23.8410   42.8440 H   0  0  0  0  0  0  0  0  0  0  0  0
  1  4  1  1  0  0  0
  1  2  1  0  0  0  0
  2  6  1  0  0  0  0
  2  5  1  0  0  0  0
  3  7  1  6  0  0  0
  3  1  1  0  0  0  0
  3  2  1  0  0  0  0
  8  3  1  0  0  0  0
  9 10  1  0  0  0  0
  9  8  1  0  0  0  0
 11 12  1  0  0  0  0
 11  9  1  0  0  0  0
 13 11  1  0  0  0  0
 13 14  1  0  0  0  0
 14 15  1  0  0  0  0
 14 16  1  0  0  0  0
 16  8  1  0  0  0  0
 17 16  1  0  0  0  0
 18 23  2  0  0  0  0
 18 19  1  0  0  0  0
 19 20  2  0  0  0  0
 20 21  1  0  0  0  0
 20 26  1  0  0  0  0
 22  1  1  0  0  0  0
 22 21  2  0  0  0  0
 23 22  1  0  0  0  0
 24 18  1  0  0  0  0
 25 19  1  0  0  0  0
M  END
>  <minimizedAffinity>
-4.3266263

$$$$
