
 OpenBabel03252505543D

 34 36  0  0  0  0  0  0  0  0999 V2000
   47.0970   31.4650   48.6770 C   0  0  0  0  0  0  0  0  0  0  0  0
   45.9350   31.9630   49.2480 C   0  0  0  0  0  0  0  0  0  0  0  0
   44.7940   31.2200   49.1660 C   0  0  0  0  0  0  0  0  0  0  0  0
   44.7480   30.0290   48.5550 N   0  0  0  0  0  0  0  0  0  0  0  0
   45.8830   29.5580   48.0040 C   0  0  0  0  0  0  0  0  0  0  0  0
   47.0510   30.2520   48.0530 N   0  0  0  0  0  0  0  0  0  0  0  0
   46.0880   32.9140   49.7060 H   0  0  0  0  0  0  0  0  0  0  0  0
   43.9270   31.6740   49.6360 H   0  0  0  0  0  0  0  0  0  0  0  0
   45.7810   28.2210   47.3310 C   0  0  0  0  0  3  0  0  0  0  0  0
   44.7860   27.3120   47.9620 C   0  0  0  0  0  3  0  0  0  0  0  0
   45.3350   26.6270   48.6650 H   0  0  0  0  0  0  0  0  0  0  0  0
   44.1940   26.4570   46.8550 C   0  0  0  0  0  3  0  0  0  0  0  0
   45.0330   26.1390   46.1970 H   0  0  0  0  0  0  0  0  0  0  0  0
   43.3000   27.2770   46.1720 O   0  0  0  0  0  0  0  0  0  0  0  0
   43.8970   28.4270   45.6840 C   0  0  0  0  0  3  0  0  0  0  0  0
   43.4910   29.3550   46.1230 H   0  0  0  0  0  0  0  0  0  0  0  0
   45.3900   28.4420   45.8700 C   0  0  0  0  0  3  0  0  0  0  0  0
   45.7170   29.4870   45.5920 H   0  0  0  0  0  0  0  0  0  0  0  0
   48.4460   32.0320   48.6110 C   0  0  0  0  0  0  0  0  0  0  0  0
   48.8390   31.9470   47.5660 H   0  0  0  0  0  0  0  0  0  0  0  0
   48.4470   33.1040   48.8540 H   0  0  0  0  0  0  0  0  0  0  0  0
   49.2510   31.3190   49.5210 O   0  0  0  0  0  0  0  0  0  0  0  0
   52.1260   33.2610   50.3430 C   0  0  0  0  0  0  0  0  0  0  0  0
   53.1910   32.4040   50.1070 C   0  0  0  0  0  0  0  0  0  0  0  0
   52.8810   31.1180   49.6500 C   0  0  0  0  0  0  0  0  0  0  0  0
   51.6050   30.7660   49.4590 N   0  0  0  0  0  0  0  0  0  0  0  0
   50.5970   31.6450   49.7070 C   0  0  0  0  0  0  0  0  0  0  0  0
   50.8430   32.8890   50.1460 N   0  0  0  0  0  0  0  0  0  0  0  0
   52.3450   34.2520   50.6950 H   0  0  0  0  0  0  0  0  0  0  0  0
   53.7170   30.4540   49.4680 H   0  0  0  0  0  0  0  0  0  0  0  0
   54.5760   32.9070   50.3540 C   0  0  0  0  0  0  0  0  0  0  0  0
   54.8010   32.6990   51.6920 F   0  0  0  0  0  0  0  0  0  0  0  0
   54.5360   34.2840   50.0830 F   0  0  0  0  0  0  0  0  0  0  0  0
   55.4390   32.2480   49.5390 F   0  0  0  0  0  0  0  0  0  0  0  0
  1  2  1  0  0  0  0
  2  7  1  0  0  0  0
  3  2  2  0  0  0  0
  3  8  1  0  0  0  0
  4  3  1  0  0  0  0
  5  6  1  0  0  0  0
  5  4  2  0  0  0  0
  6  1  2  0  0  0  0
  9 10  1  0  0  0  0
  9  5  1  0  0  0  0
 10 11  1  0  0  0  0
 12 10  1  0  0  0  0
 13 12  1  0  0  0  0
 14 12  1  0  0  0  0
 15 17  1  0  0  0  0
 15 16  1  0  0  0  0
 15 14  1  0  0  0  0
 17  9  1  0  0  0  0
 18 17  1  0  0  0  0
 19  1  1  0  0  0  0
 19 21  1  0  0  0  0
 19 22  1  0  0  0  0
 20 19  1  0  0  0  0
 22 27  1  0  0  0  0
 23 29  1  0  0  0  0
 24 23  2  0  0  0  0
 24 31  1  0  0  0  0
 25 24  1  0  0  0  0
 26 25  2  0  0  0  0
 26 27  1  0  0  0  0
 27 28  2  0  0  0  0
 28 23  1  0  0  0  0
 30 25  1  0  0  0  0
 31 32  1  0  0  0  0
 33 31  1  0  0  0  0
 34 31  1  0  0  0  0
M  END
>  <minimizedAffinity>
-4.16541052

>  <minimizedRMSD>
8.05954075

$$$$
