
 OpenBabel03252508103D

 48 51  0  0  0  0  0  0  0  0999 V2000
   45.0310   35.5150   43.3840 C   0  0  0  0  0  0  0  0  0  0  0  0
   45.4750   34.2100   43.4170 C   0  0  0  0  0  0  0  0  0  0  0  0
   45.4780   33.4920   44.5780 C   0  0  0  0  0  0  0  0  0  0  0  0
   45.0060   34.1580   45.7050 N   0  0  0  0  0  0  0  0  0  0  0  0
   44.5800   35.4080   45.6790 C   0  0  0  0  0  0  0  0  0  0  0  0
   44.5980   36.0810   44.5050 N   0  0  0  0  0  0  0  0  0  0  0  0
   45.0120   36.1240   42.4830 H   0  0  0  0  0  0  0  0  0  0  0  0
   44.2220   35.8730   46.6060 H   0  0  0  0  0  0  0  0  0  0  0  0
   45.8980   32.1660   44.7920 C   0  0  0  0  0  0  0  0  0  0  0  0
   45.6150   31.1260   43.8860 C   0  0  0  0  0  0  0  0  0  0  0  0
   45.9610   29.8160   44.0890 C   0  0  0  0  0  0  0  0  0  0  0  0
   46.6300   29.4600   45.2460 C   0  0  0  0  0  0  0  0  0  0  0  0
   46.9280   30.5050   46.1790 C   0  0  0  0  0  0  0  0  0  0  0  0
   47.5840   30.1620   47.3250 C   0  0  0  0  0  0  0  0  0  0  0  0
   47.8980   31.1230   48.2580 C   0  0  0  0  0  0  0  0  0  0  0  0
   47.5360   32.4610   48.0200 C   0  0  0  0  0  0  0  0  0  0  0  0
   46.8580   32.7520   46.8160 C   0  0  0  0  0  0  0  0  0  0  0  0
   46.5590   31.7810   45.9170 C   0  0  0  0  0  0  0  0  0  0  0  0
   45.0930   31.3840   42.9760 H   0  0  0  0  0  0  0  0  0  0  0  0
   45.7010   29.0890   43.3340 H   0  0  0  0  0  0  0  0  0  0  0  0
   46.9040   28.4470   45.4180 H   0  0  0  0  0  0  0  0  0  0  0  0
   47.8500   29.1120   47.4740 H   0  0  0  0  0  0  0  0  0  0  0  0
   48.4120   30.7640   49.1260 H   0  0  0  0  0  0  0  0  0  0  0  0
   47.8320   33.1120   48.8090 H   0  0  0  0  0  0  0  0  0  0  0  0
   46.7060   33.8120   46.8320 H   0  0  0  0  0  0  0  0  0  0  0  0
   45.9070   33.6700   42.2370 O   0  0  0  0  0  0  0  0  0  0  0  0
   48.2370   32.5460   41.8060 O   0  0  0  0  0  0  0  0  0  0  0  0
   47.4510   33.8070   41.6070 P   0  0  1  0  0  0  0  0  0  0  0  0
   47.4410   34.1290   39.9520 O   0  0  0  0  0  0  0  0  0  0  0  0
   48.3180   33.1910   39.3810 C   0  0  0  0  0  0  0  0  0  0  0  0
   48.0120   32.1550   39.5160 H   0  0  0  0  0  0  0  0  0  0  0  0
   49.2660   33.3000   39.9830 H   0  0  0  0  0  0  0  0  0  0  0  0
   48.6830   33.5620   37.9750 C   0  0  0  0  0  3  0  0  0  0  0  0
   47.4920   33.9630   37.1440 C   0  0  0  0  0  3  0  0  0  0  0  0
   47.9140   34.3230   36.1590 H   0  0  0  0  0  0  0  0  0  0  0  0
   46.6180   32.7990   36.8020 C   0  0  0  0  0  3  0  0  0  0  0  0
   45.5910   33.0510   37.2010 H   0  0  0  0  0  0  0  0  0  0  0  0
   46.9570   31.6080   37.3950 O   0  0  0  0  0  0  0  0  0  0  0  0
   48.2670   31.2350   37.3210 C   0  0  0  0  0  3  0  0  0  0  0  0
   48.4760   30.5290   36.4690 H   0  0  0  0  0  0  0  0  0  0  0  0
   49.2730   32.3340   37.3160 C   0  0  0  0  0  3  0  0  0  0  0  0
   49.6450   32.5720   36.2800 H   0  0  0  0  0  0  0  0  0  0  0  0
   48.2340   35.0720   42.4070 O   0  0  0  0  0  0  0  0  0  0  0  0
   49.5190   35.5290   42.2040 C   0  0  0  0  0  0  0  0  0  0  0  0
   49.4240   36.5120   41.4810 O   0  0  0  0  0  0  0  0  0  0  0  0
   50.4730   34.7180   42.8910 N   0  0  0  0  0  0  0  0  0  0  0  0
   50.6390   34.6470   43.9420 H   0  0  0  0  0  0  0  0  0  0  0  0
   51.2550   34.0260   42.8300 H   0  0  0  0  0  0  0  0  0  0  0  0
  1  2  2  0  0  0  0
  1  6  1  0  0  0  0
  2  3  1  0  0  0  0
  3  9  1  0  0  0  0
  3  4  2  0  0  0  0
  5  4  1  0  0  0  0
  5  8  1  0  0  0  0
  6  5  2  0  0  0  0
  7  1  1  0  0  0  0
  9 18  1  0  0  0  0
 10 11  1  0  0  0  0
 10  9  2  0  0  0  0
 11 12  2  0  0  0  0
 12 21  1  0  0  0  0
 12 13  1  0  0  0  0
 13 14  1  0  0  0  0
 14 22  1  0  0  0  0
 14 15  2  0  0  0  0
 15 23  1  0  0  0  0
 16 15  1  0  0  0  0
 16 24  1  0  0  0  0
 17 25  1  0  0  0  0
 17 16  2  0  0  0  0
 18 13  2  0  0  0  0
 18 17  1  0  0  0  0
 19 10  1  0  0  0  0
 20 11  1  0  0  0  0
 26  2  1  0  0  0  0
 28 27  2  1  0  0  0
 28 26  1  0  0  0  0
 28 43  1  0  0  0  0
 29 28  1  0  0  0  0
 30 31  1  0  0  0  0
 30 29  1  0  0  0  0
 30 32  1  0  0  0  0
 33 30  1  0  0  0  0
 34 33  1  0  0  0  0
 35 34  1  0  0  0  0
 36 34  1  0  0  0  0
 36 37  1  0  0  0  0
 36 38  1  0  0  0  0
 39 38  1  0  0  0  0
 40 39  1  0  0  0  0
 41 39  1  0  0  0  0
 41 33  1  0  0  0  0
 42 41  1  0  0  0  0
 44 43  1  0  0  0  0
 44 46  1  0  0  0  0
 45 44  2  0  0  0  0
 46 47  1  0  0  0  0
 48 46  1  0  0  0  0
M  END
>  <minimizedAffinity>
-6.17371035

>  <minimizedRMSD>
1.42341936

$$$$
