
 OpenBabel03252509043D

 49 51  0  0  1  0  0  0  0  0999 V2000
   46.5810   34.5500   43.5990 N   0  0  0  0  0  0  0  0  0  0  0  0
   46.0740   35.5140   42.7020 C   0  0  0  0  0  0  0  0  0  0  0  0
   44.5660   35.6650   42.7050 C   0  0  0  0  0  0  0  0  0  0  0  0
   43.9300   35.4340   44.0480 C   0  0  0  0  0  0  0  0  0  0  0  0
   44.9630   35.1970   45.1260 C   0  0  0  0  0  0  0  0  0  0  0  0
   45.7920   33.9740   44.5740 C   0  0  2  0  0  0  0  0  0  0  0  0
   46.3630   35.4150   41.6490 H   0  0  0  0  0  0  0  0  0  0  0  0
   46.4800   36.5130   43.0220 H   0  0  0  0  0  0  0  0  0  0  0  0
   44.1540   35.0030   41.9190 H   0  0  0  0  0  0  0  0  0  0  0  0
   44.3180   36.7080   42.4020 H   0  0  0  0  0  0  0  0  0  0  0  0
   43.2860   36.2880   44.3660 H   0  0  0  0  0  0  0  0  0  0  0  0
   43.2760   34.5530   44.0250 H   0  0  0  0  0  0  0  0  0  0  0  0
   44.4570   34.8410   46.0280 H   0  0  0  0  0  0  0  0  0  0  0  0
   45.6460   36.0550   45.2820 H   0  0  0  0  0  0  0  0  0  0  0  0
   45.0060   33.2560   44.2630 H   0  0  0  0  0  0  0  0  0  0  0  0
   47.6820   33.7870   43.0750 C   0  0  0  0  0  0  0  0  0  0  0  0
   48.2150   33.3170   43.9300 H   0  0  0  0  0  0  0  0  0  0  0  0
   48.3390   34.4910   42.5350 H   0  0  0  0  0  0  0  0  0  0  0  0
   47.1640   32.7170   42.1900 C   0  0  0  0  0  0  0  0  0  0  0  0
   47.3120   31.6900   42.5680 H   0  0  0  0  0  0  0  0  0  0  0  0
   46.0530   32.8100   42.0460 H   0  0  0  0  0  0  0  0  0  0  0  0
   49.0870   31.9710   39.0520 C   0  0  0  0  0  0  0  0  0  0  0  0
   48.5310   31.8610   40.3400 C   0  0  0  0  0  0  0  0  0  0  0  0
   47.7380   32.8580   40.8300 C   0  0  0  0  0  0  0  0  0  0  0  0
   47.5230   33.9170   40.0430 N   0  0  0  0  0  0  0  0  0  0  0  0
   48.0400   34.0410   38.8180 C   0  0  0  0  0  0  0  0  0  0  0  0
   48.8260   33.0780   38.3020 N   0  0  0  0  0  0  0  0  0  0  0  0
   49.7240   31.1790   38.6490 H   0  0  0  0  0  0  0  0  0  0  0  0
   48.7650   30.9600   40.9040 H   0  0  0  0  0  0  0  0  0  0  0  0
   47.7640   34.9690   38.3100 H   0  0  0  0  0  0  0  0  0  0  0  0
   46.5170   33.5950   45.6820 O   0  0  0  0  0  0  0  0  0  0  0  0
   45.6770   31.1770   44.9970 O   0  0  0  0  0  0  0  0  0  0  0  0
   46.1950   32.0100   46.1670 P   0  0  2  0  0  0  0  0  0  0  0  0
   44.9110   32.1150   47.2770 O   0  0  0  0  0  0  0  0  0  0  0  0
   45.0840   31.6160   48.1110 H   0  0  0  0  0  0  0  0  0  0  0  0
   47.5030   31.3050   46.9340 O   0  0  0  0  0  0  0  0  0  0  0  0
   47.8180   30.1320   46.2440 C   0  0  0  0  0  0  0  0  0  0  0  0
   46.9460   29.4370   46.3620 H   0  0  0  0  0  0  0  0  0  0  0  0
   48.0350   30.3160   45.1910 H   0  0  0  0  0  0  0  0  0  0  0  0
   48.9910   29.5160   46.9770 C   0  0  0  0  0  3  0  0  0  0  0  0
   50.0920   29.0620   46.0480 C   0  0  0  0  0  3  0  0  0  0  0  0
   49.7440   28.1840   45.4690 H   0  0  0  0  0  0  0  0  0  0  0  0
   51.2080   28.5570   46.9660 C   0  0  0  0  0  3  0  0  0  0  0  0
   52.0680   28.1590   46.3880 H   0  0  0  0  0  0  0  0  0  0  0  0
   50.7370   27.5250   47.7450 O   0  0  0  0  0  0  0  0  0  0  0  0
   49.7100   27.8580   48.6000 C   0  0  0  0  0  3  0  0  0  0  0  0
   49.4380   26.9370   49.1490 H   0  0  0  0  0  0  0  0  0  0  0  0
   48.5070   28.3520   47.8080 C   0  0  0  0  0  3  0  0  0  0  0  0
   48.1880   27.5540   47.1130 H   0  0  0  0  0  0  0  0  0  0  0  0
  1  6  1  0  0  0  0
  2  3  1  0  0  0  0
  2  8  1  0  0  0  0
  2  1  1  0  0  0  0
  3  4  1  0  0  0  0
  4 11  1  0  0  0  0
  4  5  1  0  0  0  0
  5 14  1  0  0  0  0
  5 13  1  0  0  0  0
  6 15  1  6  0  0  0
  6  5  1  0  0  0  0
  6 31  1  0  0  0  0
  7  2  1  0  0  0  0
  9  3  1  0  0  0  0
 10  3  1  0  0  0  0
 12  4  1  0  0  0  0
 16  1  1  0  0  0  0
 16 17  1  0  0  0  0
 18 16  1  0  0  0  0
 19 20  1  0  0  0  0
 19 16  1  0  0  0  0
 21 19  1  0  0  0  0
 22 23  1  0  0  0  0
 23 24  2  0  0  0  0
 23 29  1  0  0  0  0
 24 19  1  0  0  0  0
 25 24  1  0  0  0  0
 26 25  2  0  0  0  0
 27 26  1  0  0  0  0
 27 22  2  0  0  0  0
 28 22  1  0  0  0  0
 30 26  1  0  0  0  0
 31 33  1  0  0  0  0
 33 32  2  6  0  0  0
 33 36  1  0  0  0  0
 33 34  1  0  0  0  0
 34 35  1  0  0  0  0
 37 38  1  0  0  0  0
 37 36  1  0  0  0  0
 37 40  1  0  0  0  0
 39 37  1  0  0  0  0
 40 48  1  0  0  0  0
 41 43  1  0  0  0  0
 41 40  1  0  0  0  0
 42 41  1  0  0  0  0
 43 45  1  0  0  0  0
 44 43  1  0  0  0  0
 45 46  1  0  0  0  0
 46 47  1  0  0  0  0
 48 46  1  0  0  0  0
 49 48  1  0  0  0  0
M  END
>  <minimizedAffinity>
-4.22812748

>  <minimizedRMSD>
1.40560532

$$$$
