
 OpenBabel03252508563D

 25 26  0  0  0  0  0  0  0  0999 V2000
   47.4400   33.5890   41.5090 C   0  0  0  0  0  0  0  0  0  0  0  0
   47.4050   32.5740   41.0620 H   0  0  0  0  0  0  0  0  0  0  0  0
   48.1950   33.5890   42.3120 H   0  0  0  0  0  0  0  0  0  0  0  0
   46.1000   33.8970   42.1190 C   0  0  0  0  0  3  0  0  0  0  0  0
   44.9690   33.7810   41.1580 C   0  0  0  0  0  3  0  0  0  0  0  0
   44.3510   32.8610   41.3100 H   0  0  0  0  0  0  0  0  0  0  0  0
   44.0990   34.9850   41.0620 C   0  0  0  0  0  3  0  0  0  0  0  0
   43.0690   34.6370   40.7640 H   0  0  0  0  0  0  0  0  0  0  0  0
   43.9410   35.7560   42.1620 O   0  0  0  0  0  0  0  0  0  0  0  0
   44.8310   35.6400   43.1830 C   0  0  0  0  0  3  0  0  0  0  0  0
   44.9400   36.6460   43.6840 H   0  0  0  0  0  0  0  0  0  0  0  0
   46.2050   35.3270   42.6500 C   0  0  0  0  0  3  0  0  0  0  0  0
   47.0110   35.3890   43.3900 H   0  0  0  0  0  0  0  0  0  0  0  0
   47.8230   34.5990   40.4310 C   0  0  0  0  0  0  0  0  0  0  0  0
   46.9510   35.1760   40.1100 H   0  0  0  0  0  0  0  0  0  0  0  0
   48.5640   35.3100   40.8440 H   0  0  0  0  0  0  0  0  0  0  0  0
   48.7070   33.6660   36.8780 C   0  0  0  0  0  0  0  0  0  0  0  0
   48.2270   34.3900   37.9820 C   0  0  0  0  0  0  0  0  0  0  0  0
   48.3280   33.8400   39.2620 C   0  0  0  0  0  0  0  0  0  0  0  0
   48.9050   32.5960   39.3610 N   0  0  0  0  0  0  0  0  0  0  0  0
   49.3470   31.9420   38.2860 C   0  0  0  0  0  0  0  0  0  0  0  0
   49.2610   32.4490   37.0530 N   0  0  0  0  0  0  0  0  0  0  0  0
   48.5840   34.1740   35.9340 H   0  0  0  0  0  0  0  0  0  0  0  0
   47.7820   35.3600   37.8700 H   0  0  0  0  0  0  0  0  0  0  0  0
   49.7820   30.9660   38.5050 H   0  0  0  0  0  0  0  0  0  0  0  0
  1  4  1  0  0  0  0
  1  3  1  0  0  0  0
  2  1  1  0  0  0  0
  4 12  1  0  0  0  0
  5  6  1  0  0  0  0
  5  4  1  0  0  0  0
  7  5  1  0  0  0  0
  7  9  1  0  0  0  0
  8  7  1  0  0  0  0
  9 10  1  0  0  0  0
 10 11  1  0  0  0  0
 12 10  1  0  0  0  0
 12 13  1  0  0  0  0
 14 16  1  0  0  0  0
 14  1  1  0  0  0  0
 15 14  1  0  0  0  0
 17 22  2  0  0  0  0
 17 18  1  0  0  0  0
 18 19  2  0  0  0  0
 19 20  1  0  0  0  0
 19 14  1  0  0  0  0
 21 25  1  0  0  0  0
 21 20  2  0  0  0  0
 22 21  1  0  0  0  0
 23 17  1  0  0  0  0
 24 18  1  0  0  0  0
M  END
>  <minimizedAffinity>
-3.62949443

>  <minimizedRMSD>
6.04026365

$$$$
