
 OpenBabel03242513353D

 22 23  0  0  0  0  0  0  0  0999 V2000
   38.7400   31.3680   40.9530 C   0  0  0  0  0  0  0  0  0  0  0  0
   37.5650   31.7420   40.2860 C   0  0  0  0  0  0  0  0  0  0  0  0
   36.4010   31.0430   40.5990 C   0  0  0  0  0  0  0  0  0  0  0  0
   36.4460   30.0490   41.5170 N   0  0  0  0  0  0  0  0  0  0  0  0
   37.6040   29.7230   42.1350 C   0  0  0  0  0  0  0  0  0  0  0  0
   38.7450   30.3700   41.8630 N   0  0  0  0  0  0  0  0  0  0  0  0
   39.6770   31.8810   40.7460 H   0  0  0  0  0  0  0  0  0  0  0  0
   35.5150   31.3440   40.0790 H   0  0  0  0  0  0  0  0  0  0  0  0
   37.6810   28.6300   43.1520 C   0  0  0  0  0  3  0  0  0  0  0  0
   39.0820   28.1420   43.2360 C   0  0  0  0  0  3  0  0  0  0  0  0
   39.6210   28.4170   42.2820 H   0  0  0  0  0  0  0  0  0  0  0  0
   39.1940   26.6290   43.3030 C   0  0  0  0  0  3  0  0  0  0  0  0
   40.2660   26.3880   43.1540 H   0  0  0  0  0  0  0  0  0  0  0  0
   38.4640   26.1390   42.2220 O   0  0  0  0  0  0  0  0  0  0  0  0
   37.1250   26.2320   42.5450 C   0  0  0  0  0  3  0  0  0  0  0  0
   36.9530   25.5380   43.4140 H   0  0  0  0  0  0  0  0  0  0  0  0
   36.6390   27.6110   42.8430 C   0  0  0  0  0  3  0  0  0  0  0  0
   35.9320   27.5280   43.7020 H   0  0  0  0  0  0  0  0  0  0  0  0
   37.6760   32.8510   39.3070 C   0  0  0  0  0  0  0  0  0  0  0  0
   39.0240   33.1740   39.2280 F   0  0  0  0  0  0  0  0  0  0  0  0
   36.9430   33.9160   39.7620 F   0  0  0  0  0  0  0  0  0  0  0  0
   37.1840   32.3780   38.0790 F   0  0  0  0  0  0  0  0  0  0  0  0
  1  6  1  0  0  0  0
  2  3  1  0  0  0  0
  2  1  2  0  0  0  0
  3  4  2  0  0  0  0
  4  5  1  0  0  0  0
  5  9  1  0  0  0  0
  6  5  2  0  0  0  0
  7  1  1  0  0  0  0
  8  3  1  0  0  0  0
  9 10  1  0  0  0  0
 10 12  1  0  0  0  0
 11 10  1  0  0  0  0
 13 12  1  0  0  0  0
 14 15  1  0  0  0  0
 14 12  1  0  0  0  0
 15 17  1  0  0  0  0
 15 16  1  0  0  0  0
 17  9  1  0  0  0  0
 17 18  1  0  0  0  0
 19 21  1  0  0  0  0
 19  2  1  0  0  0  0
 20 19  1  0  0  0  0
 22 19  1  0  0  0  0
M  END
>  <minimizedAffinity>
-5.11282539

$$$$

 OpenBabel03242513353D

 22 23  0  0  0  0  0  0  0  0999 V2000
   36.7420   30.9880   40.6300 C   0  0  0  0  0  0  0  0  0  0  0  0
   37.8780   31.7860   40.4370 C   0  0  0  0  0  0  0  0  0  0  0  0
   39.0050   31.4930   41.2010 C   0  0  0  0  0  0  0  0  0  0  0  0
   38.9640   30.4680   42.0850 N   0  0  0  0  0  0  0  0  0  0  0  0
   37.8450   29.7250   42.2370 C   0  0  0  0  0  0  0  0  0  0  0  0
   36.7400   29.9730   41.5230 N   0  0  0  0  0  0  0  0  0  0  0  0
   35.8350   31.1740   40.0600 H   0  0  0  0  0  0  0  0  0  0  0  0
   39.8620   32.1150   41.0380 H   0  0  0  0  0  0  0  0  0  0  0  0
   37.7730   28.5880   43.2060 C   0  0  0  0  0  3  0  0  0  0  0  0
   39.1270   27.9910   43.3550 C   0  0  0  0  0  3  0  0  0  0  0  0
   39.7470   28.2640   42.4510 H   0  0  0  0  0  0  0  0  0  0  0  0
   39.1220   26.4730   43.3600 C   0  0  0  0  0  3  0  0  0  0  0  0
   40.1810   26.1570   43.2670 H   0  0  0  0  0  0  0  0  0  0  0  0
   38.4310   26.0850   42.2130 O   0  0  0  0  0  0  0  0  0  0  0  0
   37.0840   26.2670   42.4550 C   0  0  0  0  0  3  0  0  0  0  0  0
   36.8050   25.5520   43.2790 H   0  0  0  0  0  0  0  0  0  0  0  0
   36.6830   27.6650   42.7850 C   0  0  0  0  0  3  0  0  0  0  0  0
   35.9160   27.6010   43.5930 H   0  0  0  0  0  0  0  0  0  0  0  0
   37.7670   32.8720   39.4320 C   0  0  0  0  0  0  0  0  0  0  0  0
   39.0600   33.1560   39.0130 F   0  0  0  0  0  0  0  0  0  0  0  0
   37.1940   33.9660   40.0250 F   0  0  0  0  0  0  0  0  0  0  0  0
   36.9750   32.3890   38.3760 F   0  0  0  0  0  0  0  0  0  0  0  0
  1  6  1  0  0  0  0
  2  1  2  0  0  0  0
  2  3  1  0  0  0  0
  3  4  2  0  0  0  0
  4  5  1  0  0  0  0
  5  9  1  0  0  0  0
  6  5  2  0  0  0  0
  7  1  1  0  0  0  0
  8  3  1  0  0  0  0
  9 10  1  0  0  0  0
 10 12  1  0  0  0  0
 11 10  1  0  0  0  0
 13 12  1  0  0  0  0
 14 15  1  0  0  0  0
 14 12  1  0  0  0  0
 15 17  1  0  0  0  0
 15 16  1  0  0  0  0
 17  9  1  0  0  0  0
 17 18  1  0  0  0  0
 19 21  1  0  0  0  0
 19  2  1  0  0  0  0
 20 19  1  0  0  0  0
 22 19  1  0  0  0  0
M  END
>  <minimizedAffinity>
-4.99069166

$$$$

 OpenBabel03242513353D

 22 23  0  0  0  0  0  0  0  0999 V2000
   37.1360   28.2260   40.7000 C   0  0  0  0  0  0  0  0  0  0  0  0
   37.4040   28.3130   42.0730 C   0  0  0  0  0  0  0  0  0  0  0  0
   37.9330   29.5110   42.5470 C   0  0  0  0  0  0  0  0  0  0  0  0
   38.1650   30.5270   41.6830 N   0  0  0  0  0  0  0  0  0  0  0  0
   37.8910   30.3960   40.3650 C   0  0  0  0  0  0  0  0  0  0  0  0
   37.3820   29.2620   39.8680 N   0  0  0  0  0  0  0  0  0  0  0  0
   36.7230   27.3130   40.2760 H   0  0  0  0  0  0  0  0  0  0  0  0
   38.1300   29.5580   43.5990 H   0  0  0  0  0  0  0  0  0  0  0  0
   38.1370   31.5030   39.3900 C   0  0  0  0  0  3  0  0  0  0  0  0
   39.5990   31.6220   39.1490 C   0  0  0  0  0  3  0  0  0  0  0  0
   40.1500   31.1520   40.0170 H   0  0  0  0  0  0  0  0  0  0  0  0
   40.0940   33.0570   39.1280 C   0  0  0  0  0  3  0  0  0  0  0  0
   41.2010   33.0060   39.1510 H   0  0  0  0  0  0  0  0  0  0  0  0
   39.6430   33.6400   40.3100 O   0  0  0  0  0  0  0  0  0  0  0  0
   38.2980   33.9140   40.1550 C   0  0  0  0  0  3  0  0  0  0  0  0
   38.2190   34.6880   39.3410 H   0  0  0  0  0  0  0  0  0  0  0  0
   37.4390   32.7290   39.8670 C   0  0  0  0  0  3  0  0  0  0  0  0
   36.6870   33.0500   39.1070 H   0  0  0  0  0  0  0  0  0  0  0  0
   37.0960   27.1150   42.8910 C   0  0  0  0  0  0  0  0  0  0  0  0
   35.9940   27.4410   43.6700 F   0  0  0  0  0  0  0  0  0  0  0  0
   38.1810   26.8250   43.6750 F   0  0  0  0  0  0  0  0  0  0  0  0
   36.8100   26.0620   42.0040 F   0  0  0  0  0  0  0  0  0  0  0  0
  1  2  1  0  0  0  0
  2  3  2  0  0  0  0
  2 19  1  0  0  0  0
  3  8  1  0  0  0  0
  4  3  1  0  0  0  0
  5  4  2  0  0  0  0
  6  5  1  0  0  0  0
  6  1  2  0  0  0  0
  7  1  1  0  0  0  0
  9 17  1  0  0  0  0
  9  5  1  0  0  0  0
 10  9  1  0  0  0  0
 10 11  1  0  0  0  0
 12 10  1  0  0  0  0
 12 13  1  0  0  0  0
 12 14  1  0  0  0  0
 15 14  1  0  0  0  0
 16 15  1  0  0  0  0
 17 15  1  0  0  0  0
 18 17  1  0  0  0  0
 19 20  1  0  0  0  0
 19 21  1  0  0  0  0
 22 19  1  0  0  0  0
M  END
>  <minimizedAffinity>
-4.66481829

$$$$

 OpenBabel03242513353D

 22 23  0  0  0  0  0  0  0  0999 V2000
   36.9420   26.5700   40.1500 C   0  0  0  0  0  0  0  0  0  0  0  0
   37.1320   26.3750   41.5250 C   0  0  0  0  0  0  0  0  0  0  0  0
   36.9510   27.4770   42.3590 C   0  0  0  0  0  0  0  0  0  0  0  0
   36.6050   28.6710   41.8220 N   0  0  0  0  0  0  0  0  0  0  0  0
   36.4330   28.8110   40.4880 C   0  0  0  0  0  0  0  0  0  0  0  0
   36.5970   27.7780   39.6520 N   0  0  0  0  0  0  0  0  0  0  0  0
   37.0720   25.7440   39.4540 H   0  0  0  0  0  0  0  0  0  0  0  0
   37.1010   27.3070   43.4050 H   0  0  0  0  0  0  0  0  0  0  0  0
   36.0510   30.1170   39.8700 C   0  0  0  0  0  3  0  0  0  0  0  0
   36.6420   30.2020   38.5080 C   0  0  0  0  0  3  0  0  0  0  0  0
   37.5130   29.4850   38.4440 H   0  0  0  0  0  0  0  0  0  0  0  0
   37.2510   31.5570   38.1960 C   0  0  0  0  0  3  0  0  0  0  0  0
   37.8300   31.4310   37.2580 H   0  0  0  0  0  0  0  0  0  0  0  0
   38.1340   31.8340   39.2380 O   0  0  0  0  0  0  0  0  0  0  0  0
   37.3830   32.2250   40.3290 C   0  0  0  0  0  3  0  0  0  0  0  0
   36.8780   33.1900   40.0440 H   0  0  0  0  0  0  0  0  0  0  0  0
   36.3970   31.2160   40.8140 C   0  0  0  0  0  3  0  0  0  0  0  0
   35.4710   31.7740   41.0920 H   0  0  0  0  0  0  0  0  0  0  0  0
   37.5100   25.0090   41.9600 C   0  0  0  0  0  0  0  0  0  0  0  0
   36.3800   24.4540   42.5460 F   0  0  0  0  0  0  0  0  0  0  0  0
   38.5350   25.1010   42.8650 F   0  0  0  0  0  0  0  0  0  0  0  0
   37.9020   24.2950   40.8140 F   0  0  0  0  0  0  0  0  0  0  0  0
  1  2  1  0  0  0  0
  2 19  1  0  0  0  0
  2  3  2  0  0  0  0
  3  8  1  0  0  0  0
  4  3  1  0  0  0  0
  5  4  2  0  0  0  0
  6  1  2  0  0  0  0
  6  5  1  0  0  0  0
  7  1  1  0  0  0  0
  9  5  1  0  0  0  0
  9 17  1  0  0  0  0
 10  9  1  0  0  0  0
 11 10  1  0  0  0  0
 12 10  1  0  0  0  0
 12 14  1  0  0  0  0
 13 12  1  0  0  0  0
 14 15  1  0  0  0  0
 15 17  1  0  0  0  0
 16 15  1  0  0  0  0
 17 18  1  0  0  0  0
 19 20  1  0  0  0  0
 19 21  1  0  0  0  0
 22 19  1  0  0  0  0
M  END
>  <minimizedAffinity>
-4.57757902

$$$$

 OpenBabel03242513353D

 22 23  0  0  0  0  0  0  0  0999 V2000
   38.0000   28.7340   39.7210 C   0  0  0  0  0  0  0  0  0  0  0  0
   36.8090   29.4620   39.6020 C   0  0  0  0  0  0  0  0  0  0  0  0
   35.8330   29.2560   40.5740 C   0  0  0  0  0  0  0  0  0  0  0  0
   36.0650   28.3780   41.5780 N   0  0  0  0  0  0  0  0  0  0  0  0
   37.2310   27.6960   41.6510 C   0  0  0  0  0  0  0  0  0  0  0  0
   38.1950   27.8650   40.7370 N   0  0  0  0  0  0  0  0  0  0  0  0
   38.7960   28.8560   38.9880 H   0  0  0  0  0  0  0  0  0  0  0  0
   34.9310   29.8230   40.4650 H   0  0  0  0  0  0  0  0  0  0  0  0
   37.5130   26.7210   42.7480 C   0  0  0  0  0  3  0  0  0  0  0  0
   38.8400   27.0280   43.3430 C   0  0  0  0  0  3  0  0  0  0  0  0
   39.4440   27.6230   42.5960 H   0  0  0  0  0  0  0  0  0  0  0  0
   39.6850   25.7950   43.6070 C   0  0  0  0  0  3  0  0  0  0  0  0
   40.7050   26.1600   43.8460 H   0  0  0  0  0  0  0  0  0  0  0  0
   39.7280   25.0900   42.4050 O   0  0  0  0  0  0  0  0  0  0  0  0
   38.5160   24.4450   42.2560 C   0  0  0  0  0  3  0  0  0  0  0  0
   38.4460   23.6930   43.0900 H   0  0  0  0  0  0  0  0  0  0  0  0
   37.3220   25.3400   42.2260 C   0  0  0  0  0  3  0  0  0  0  0  0
   36.5180   24.8280   42.8080 H   0  0  0  0  0  0  0  0  0  0  0  0
   36.7040   30.3870   38.4460 C   0  0  0  0  0  0  0  0  0  0  0  0
   37.8700   30.2320   37.7090 F   0  0  0  0  0  0  0  0  0  0  0  0
   36.5880   31.6680   38.9160 F   0  0  0  0  0  0  0  0  0  0  0  0
   35.5700   30.0080   37.7070 F   0  0  0  0  0  0  0  0  0  0  0  0
  1  6  1  0  0  0  0
  2  1  2  0  0  0  0
  2  3  1  0  0  0  0
  3  4  2  0  0  0  0
  4  5  1  0  0  0  0
  5  9  1  0  0  0  0
  6  5  2  0  0  0  0
  7  1  1  0  0  0  0
  8  3  1  0  0  0  0
  9 10  1  0  0  0  0
 10 12  1  0  0  0  0
 11 10  1  0  0  0  0
 12 13  1  0  0  0  0
 14 12  1  0  0  0  0
 15 14  1  0  0  0  0
 15 16  1  0  0  0  0
 17 15  1  0  0  0  0
 17  9  1  0  0  0  0
 17 18  1  0  0  0  0
 19 21  1  0  0  0  0
 19  2  1  0  0  0  0
 20 19  1  0  0  0  0
 22 19  1  0  0  0  0
M  END
>  <minimizedAffinity>
-4.43625975

$$$$

 OpenBabel03242513353D

 22 23  0  0  0  0  0  0  0  0999 V2000
   36.3800   27.2640   39.0740 C   0  0  0  0  0  0  0  0  0  0  0  0
   35.7130   28.4960   39.0810 C   0  0  0  0  0  0  0  0  0  0  0  0
   35.5210   29.1130   40.3160 C   0  0  0  0  0  0  0  0  0  0  0  0
   35.9770   28.5120   41.4400 N   0  0  0  0  0  0  0  0  0  0  0  0
   36.6150   27.3220   41.3830 C   0  0  0  0  0  0  0  0  0  0  0  0
   36.8200   26.6950   40.2180 N   0  0  0  0  0  0  0  0  0  0  0  0
   36.5560   26.7390   38.1370 H   0  0  0  0  0  0  0  0  0  0  0  0
   35.0090   30.0540   40.3000 H   0  0  0  0  0  0  0  0  0  0  0  0
   37.1290   26.6370   42.6100 C   0  0  0  0  0  3  0  0  0  0  0  0
   38.2160   27.4580   43.2050 C   0  0  0  0  0  3  0  0  0  0  0  0
   38.6340   28.1410   42.4080 H   0  0  0  0  0  0  0  0  0  0  0  0
   39.4120   26.6410   43.6600 C   0  0  0  0  0  3  0  0  0  0  0  0
   40.2190   27.3670   43.8850 H   0  0  0  0  0  0  0  0  0  0  0  0
   39.7910   25.8670   42.5640 O   0  0  0  0  0  0  0  0  0  0  0  0
   38.8930   24.8230   42.4580 C   0  0  0  0  0  3  0  0  0  0  0  0
   39.0220   24.1920   43.3820 H   0  0  0  0  0  0  0  0  0  0  0  0
   37.4700   25.2290   42.2680 C   0  0  0  0  0  3  0  0  0  0  0  0
   36.8490   24.5340   42.8830 H   0  0  0  0  0  0  0  0  0  0  0  0
   35.2730   29.0260   37.7670 C   0  0  0  0  0  0  0  0  0  0  0  0
   33.9280   29.3450   37.9000 F   0  0  0  0  0  0  0  0  0  0  0  0
   35.4560   28.0560   36.8170 F   0  0  0  0  0  0  0  0  0  0  0  0
   36.0500   30.1650   37.4920 F   0  0  0  0  0  0  0  0  0  0  0  0
  1  2  2  0  0  0  0
  1  6  1  0  0  0  0
  2  3  1  0  0  0  0
  3  4  2  0  0  0  0
  5  4  1  0  0  0  0
  5  9  1  0  0  0  0
  6  5  2  0  0  0  0
  7  1  1  0  0  0  0
  8  3  1  0  0  0  0
  9 10  1  0  0  0  0
 10 12  1  0  0  0  0
 11 10  1  0  0  0  0
 12 13  1  0  0  0  0
 14 12  1  0  0  0  0
 15 14  1  0  0  0  0
 15 16  1  0  0  0  0
 17 15  1  0  0  0  0
 17  9  1  0  0  0  0
 17 18  1  0  0  0  0
 19 20  1  0  0  0  0
 19  2  1  0  0  0  0
 21 19  1  0  0  0  0
 22 19  1  0  0  0  0
M  END
>  <minimizedAffinity>
-4.34384012

$$$$

 OpenBabel03242513353D

 22 23  0  0  0  0  0  0  0  0999 V2000
   40.1310   30.1910   42.0010 C   0  0  0  0  0  0  0  0  0  0  0  0
   39.0680   30.9410   41.4800 C   0  0  0  0  0  0  0  0  0  0  0  0
   37.7850   30.4200   41.6260 C   0  0  0  0  0  0  0  0  0  0  0  0
   37.6140   29.2320   42.2520 N   0  0  0  0  0  0  0  0  0  0  0  0
   38.6710   28.5430   42.7380 C   0  0  0  0  0  0  0  0  0  0  0  0
   39.9210   29.0080   42.6200 N   0  0  0  0  0  0  0  0  0  0  0  0
   41.1540   30.5520   41.9150 H   0  0  0  0  0  0  0  0  0  0  0  0
   36.9870   31.0080   41.2210 H   0  0  0  0  0  0  0  0  0  0  0  0
   38.5100   27.2290   43.4340 C   0  0  0  0  0  3  0  0  0  0  0  0
   39.8530   26.6390   43.6770 C   0  0  0  0  0  3  0  0  0  0  0  0
   40.5900   27.1040   42.9570 H   0  0  0  0  0  0  0  0  0  0  0  0
   39.9250   25.1530   43.3750 C   0  0  0  0  0  3  0  0  0  0  0  0
   41.0000   24.8830   43.3920 H   0  0  0  0  0  0  0  0  0  0  0  0
   39.4400   24.9980   42.0780 O   0  0  0  0  0  0  0  0  0  0  0  0
   38.0640   25.1000   42.1310 C   0  0  0  0  0  3  0  0  0  0  0  0
   37.6980   24.2260   42.7390 H   0  0  0  0  0  0  0  0  0  0  0  0
   37.5450   26.3930   42.6660 C   0  0  0  0  0  3  0  0  0  0  0  0
   36.6670   26.1490   43.3110 H   0  0  0  0  0  0  0  0  0  0  0  0
   39.4160   32.2240   40.8210 C   0  0  0  0  0  0  0  0  0  0  0  0
   40.7580   32.4550   41.0890 F   0  0  0  0  0  0  0  0  0  0  0  0
   38.6340   33.2170   41.3490 F   0  0  0  0  0  0  0  0  0  0  0  0
   39.1820   32.0660   39.4440 F   0  0  0  0  0  0  0  0  0  0  0  0
  1  6  1  0  0  0  0
  2  3  1  0  0  0  0
  2  1  2  0  0  0  0
  3  4  2  0  0  0  0
  4  5  1  0  0  0  0
  5  9  1  0  0  0  0
  6  5  2  0  0  0  0
  7  1  1  0  0  0  0
  8  3  1  0  0  0  0
  9 10  1  0  0  0  0
 11 10  1  0  0  0  0
 12 13  1  0  0  0  0
 12 10  1  0  0  0  0
 14 15  1  0  0  0  0
 14 12  1  0  0  0  0
 15 17  1  0  0  0  0
 15 16  1  0  0  0  0
 17 18  1  0  0  0  0
 17  9  1  0  0  0  0
 19 20  1  0  0  0  0
 19 21  1  0  0  0  0
 19  2  1  0  0  0  0
 22 19  1  0  0  0  0
M  END
>  <minimizedAffinity>
-4.3276782

$$$$

 OpenBabel03242513353D

 22 23  0  0  0  0  0  0  0  0999 V2000
   37.8400   26.7940   40.6510 C   0  0  0  0  0  0  0  0  0  0  0  0
   37.3610   26.0640   41.7470 C   0  0  0  0  0  0  0  0  0  0  0  0
   36.8820   26.7870   42.8380 C   0  0  0  0  0  0  0  0  0  0  0  0
   36.8970   28.1400   42.8000 N   0  0  0  0  0  0  0  0  0  0  0  0
   37.3700   28.8020   41.7200 C   0  0  0  0  0  0  0  0  0  0  0  0
   37.8390   28.1460   40.6510 N   0  0  0  0  0  0  0  0  0  0  0  0
   38.2260   26.2800   39.7730 H   0  0  0  0  0  0  0  0  0  0  0  0
   36.5210   26.2110   43.6650 H   0  0  0  0  0  0  0  0  0  0  0  0
   37.3970   30.2950   41.6530 C   0  0  0  0  0  3  0  0  0  0  0  0
   36.4380   30.7520   40.6130 C   0  0  0  0  0  3  0  0  0  0  0  0
   36.2440   29.9000   39.8970 H   0  0  0  0  0  0  0  0  0  0  0  0
   36.9830   31.8620   39.7320 C   0  0  0  0  0  3  0  0  0  0  0  0
   36.2740   31.9660   38.8860 H   0  0  0  0  0  0  0  0  0  0  0  0
   38.2050   31.4030   39.2440 O   0  0  0  0  0  0  0  0  0  0  0  0
   39.1310   31.5150   40.2630 C   0  0  0  0  0  3  0  0  0  0  0  0
   39.2410   32.6140   40.4790 H   0  0  0  0  0  0  0  0  0  0  0  0
   38.8080   30.7450   41.4990 C   0  0  0  0  0  3  0  0  0  0  0  0
   39.0910   31.3880   42.3660 H   0  0  0  0  0  0  0  0  0  0  0  0
   37.4110   24.5860   41.6380 C   0  0  0  0  0  0  0  0  0  0  0  0
   38.2060   24.1390   42.6860 F   0  0  0  0  0  0  0  0  0  0  0  0
   37.9610   24.2500   40.4290 F   0  0  0  0  0  0  0  0  0  0  0  0
   36.0930   24.1110   41.7500 F   0  0  0  0  0  0  0  0  0  0  0  0
  1  6  2  0  0  0  0
  1  2  1  0  0  0  0
  2  3  2  0  0  0  0
  3  8  1  0  0  0  0
  4  3  1  0  0  0  0
  5  4  2  0  0  0  0
  6  5  1  0  0  0  0
  7  1  1  0  0  0  0
  9  5  1  0  0  0  0
 10  9  1  0  0  0  0
 11 10  1  0  0  0  0
 12 10  1  0  0  0  0
 13 12  1  0  0  0  0
 14 12  1  0  0  0  0
 14 15  1  0  0  0  0
 15 16  1  0  0  0  0
 15 17  1  0  0  0  0
 17  9  1  0  0  0  0
 17 18  1  0  0  0  0
 19  2  1  0  0  0  0
 19 22  1  0  0  0  0
 19 20  1  0  0  0  0
 21 19  1  0  0  0  0
M  END
>  <minimizedAffinity>
-4.31350136

$$$$

 OpenBabel03242513353D

 22 23  0  0  0  0  0  0  0  0999 V2000
   37.1980   29.1540   41.8380 C   0  0  0  0  0  0  0  0  0  0  0  0
   37.8990   28.0880   42.4170 C   0  0  0  0  0  0  0  0  0  0  0  0
   39.2330   28.3060   42.7520 C   0  0  0  0  0  0  0  0  0  0  0  0
   39.7940   29.5140   42.5100 N   0  0  0  0  0  0  0  0  0  0  0  0
   39.0770   30.5140   41.9480 C   0  0  0  0  0  0  0  0  0  0  0  0
   37.7920   30.3460   41.6120 N   0  0  0  0  0  0  0  0  0  0  0  0
   36.1530   29.0380   41.5570 H   0  0  0  0  0  0  0  0  0  0  0  0
   39.7510   27.4790   43.1940 H   0  0  0  0  0  0  0  0  0  0  0  0
   39.6710   31.8580   41.6710 C   0  0  0  0  0  3  0  0  0  0  0  0
   38.7170   32.6520   40.8540 C   0  0  0  0  0  3  0  0  0  0  0  0
   38.0050   31.9440   40.3340 H   0  0  0  0  0  0  0  0  0  0  0  0
   39.3790   33.4130   39.7190 C   0  0  0  0  0  3  0  0  0  0  0  0
   38.5580   33.7870   39.0730 H   0  0  0  0  0  0  0  0  0  0  0  0
   40.1240   32.4760   39.0080 O   0  0  0  0  0  0  0  0  0  0  0  0
   41.2680   32.2120   39.7350 C   0  0  0  0  0  3  0  0  0  0  0  0
   41.8610   33.1690   39.7620 H   0  0  0  0  0  0  0  0  0  0  0  0
   41.0370   31.6730   41.1060 C   0  0  0  0  0  3  0  0  0  0  0  0
   41.7860   32.1580   41.7770 H   0  0  0  0  0  0  0  0  0  0  0  0
   37.1470   26.8250   42.6190 C   0  0  0  0  0  0  0  0  0  0  0  0
   36.5680   26.5110   41.3970 F   0  0  0  0  0  0  0  0  0  0  0  0
   36.1900   27.0290   43.5770 F   0  0  0  0  0  0  0  0  0  0  0  0
   38.0720   25.8450   43.0200 F   0  0  0  0  0  0  0  0  0  0  0  0
  1  2  1  0  0  0  0
  2 19  1  0  0  0  0
  2  3  2  0  0  0  0
  3  8  1  0  0  0  0
  4  3  1  0  0  0  0
  5  4  2  0  0  0  0
  6  1  2  0  0  0  0
  6  5  1  0  0  0  0
  7  1  1  0  0  0  0
  9  5  1  0  0  0  0
 10  9  1  0  0  0  0
 11 10  1  0  0  0  0
 12 10  1  0  0  0  0
 13 12  1  0  0  0  0
 14 12  1  0  0  0  0
 14 15  1  0  0  0  0
 15 16  1  0  0  0  0
 15 17  1  0  0  0  0
 17  9  1  0  0  0  0
 17 18  1  0  0  0  0
 19 22  1  0  0  0  0
 19 21  1  0  0  0  0
 20 19  1  0  0  0  0
M  END
>  <minimizedAffinity>
-4.30935621

$$$$
