
 OpenBabel03242523143D

 26 28  0  0  0  0  0  0  0  0999 V2000
   45.9270   34.4450   42.7380 C   0  0  0  0  0  0  0  0  0  0  0  0
   47.2800   34.0310   42.8810 C   0  0  0  0  0  0  0  0  0  0  0  0
   47.6790   33.3960   44.0740 C   0  0  0  0  0  0  0  0  0  0  0  0
   46.7240   33.2130   45.0530 N   0  0  0  0  0  0  0  0  0  0  0  0
   45.4660   33.6230   44.8690 C   0  0  0  0  0  0  0  0  0  0  0  0
   45.0580   34.2360   43.7220 N   0  0  0  0  0  0  0  0  0  0  0  0
   48.6960   33.1090   44.1220 H   0  0  0  0  0  0  0  0  0  0  0  0
   44.8810   33.3860   45.7500 H   0  0  0  0  0  0  0  0  0  0  0  0
   45.2230   35.0600   41.5950 C   0  0  0  0  0  0  0  0  0  0  0  0
   43.9370   35.7220   41.9330 C   0  0  0  0  0  0  0  0  0  0  0  0
   43.8920   36.7790   41.5330 H   0  0  0  0  0  0  0  0  0  0  0  0
   42.6850   35.0470   41.5330 C   0  0  0  0  0  0  0  0  0  0  0  0
   42.2930   34.3360   42.3070 H   0  0  0  0  0  0  0  0  0  0  0  0
   42.7750   34.3170   40.3530 O   0  0  0  0  0  0  0  0  0  0  0  0
   43.7150   33.3080   40.6430 C   0  0  0  0  0  0  0  0  0  0  0  0
   43.5160   32.8820   41.6330 H   0  0  0  0  0  0  0  0  0  0  0  0
   45.0460   33.9670   40.5310 C   0  0  0  0  0  0  0  0  0  0  0  0
   45.1240   34.3930   39.5110 H   0  0  0  0  0  0  0  0  0  0  0  0
   48.3030   34.3290   41.8430 C   0  0  0  0  0  0  0  0  0  0  0  0
   48.7250   35.6430   41.5320 C   0  0  0  0  0  0  0  0  0  0  0  0
   49.6930   34.8260   42.3350 C   0  0  0  0  0  0  0  0  0  0  0  0
   48.5180   33.3910   41.2270 H   0  0  0  0  0  0  0  0  0  0  0  0
   49.0420   35.9270   40.4790 H   0  0  0  0  0  0  0  0  0  0  0  0
   48.4300   36.5580   42.0670 H   0  0  0  0  0  0  0  0  0  0  0  0
   50.5290   34.4080   41.7630 H   0  0  0  0  0  0  0  0  0  0  0  0
   49.8330   34.9620   43.4030 H   0  0  0  0  0  0  0  0  0  0  0  0
  1  2  2  0  0  0  0
  1  6  1  0  0  0  0
  2  3  1  0  0  0  0
  3  7  1  0  0  0  0
  3  4  2  0  0  0  0
  5  4  1  0  0  0  0
  5  8  1  0  0  0  0
  6  5  2  0  0  0  0
  9 10  1  0  0  0  0
  9  1  1  0  0  0  0
 11 10  1  0  0  0  0
 12 10  1  0  0  0  0
 12 13  1  0  0  0  0
 14 15  1  0  0  0  0
 14 12  1  0  0  0  0
 15 16  1  0  0  0  0
 17 15  1  0  0  0  0
 17  9  1  0  0  0  0
 18 17  1  0  0  0  0
 19 21  1  0  0  0  0
 19  2  1  0  0  0  0
 20 19  1  0  0  0  0
 20 24  1  0  0  0  0
 20 21  1  0  0  0  0
 21 26  1  0  0  0  0
 22 19  1  0  0  0  0
 23 20  1  0  0  0  0
 25 21  1  0  0  0  0
M  END
>  <minimizedAffinity>
-4.46832371

>  <minimizedRMSD>
1.47679424

$$$$
