
 OpenBabel03252503033D

 35 36  0  0  0  0  0  0  0  0999 V2000
   41.6980   31.5770   41.6630 C   0  0  0  0  0  0  0  0  0  0  0  0
   42.9760   31.9650   41.3120 C   0  0  0  0  0  0  0  0  0  0  0  0
   43.5580   31.5330   40.1240 C   0  0  0  0  0  0  0  0  0  0  0  0
   42.8200   30.7180   39.3310 N   0  0  0  0  0  0  0  0  0  0  0  0
   41.5690   30.3530   39.6990 C   0  0  0  0  0  0  0  0  0  0  0  0
   40.9960   30.7620   40.8410 N   0  0  0  0  0  0  0  0  0  0  0  0
   41.2290   31.9020   42.5800 H   0  0  0  0  0  0  0  0  0  0  0  0
   44.5440   31.8540   39.8900 H   0  0  0  0  0  0  0  0  0  0  0  0
   43.9270   33.0480   42.3930 S   0  0  0  0  0  0  0  0  0  0  0  0
   43.7610   34.7400   41.8450 C   0  0  0  0  0  0  0  0  0  0  0  0
   44.6560   35.1210   41.3100 H   0  0  0  0  0  0  0  0  0  0  0  0
   42.9230   34.8330   41.1190 H   0  0  0  0  0  0  0  0  0  0  0  0
   43.4390   35.5590   43.0060 N   0  0  0  0  0  0  0  0  0  0  0  0
   42.8040   35.0700   43.6690 H   0  0  0  0  0  0  0  0  0  0  0  0
   44.8450   35.9480   43.9190 S   0  0  0  0  0  0  0  0  0  0  0  0
   46.1050   35.5570   43.2320 O   0  0  0  0  0  0  0  0  0  0  0  0
   46.1820   35.0590   42.3690 H   0  0  0  0  0  0  0  0  0  0  0  0
   44.8290   37.4570   44.1030 O   0  0  0  0  0  0  0  0  0  0  0  0
   44.1660   37.9250   44.6760 H   0  0  0  0  0  0  0  0  0  0  0  0
   44.7270   35.2590   45.4310 O   0  0  0  0  0  0  0  0  0  0  0  0
   45.4430   34.0770   45.5230 C   0  0  0  0  0  0  0  0  0  0  0  0
   44.8610   33.4240   46.2050 H   0  0  0  0  0  0  0  0  0  0  0  0
   45.6360   33.6310   44.5480 H   0  0  0  0  0  0  0  0  0  0  0  0
   46.4260   34.3500   45.9860 H   0  0  0  0  0  0  0  0  0  0  0  0
   40.7840   29.5180   38.9070 O   0  0  0  0  0  0  0  0  0  0  0  0
   40.8340   29.5560   37.4890 C   0  0  0  0  0  3  0  0  0  0  0  0
   40.1700   28.3570   36.9120 C   0  0  0  0  0  3  0  0  0  0  0  0
   40.7810   28.0630   36.0100 H   0  0  0  0  0  0  0  0  0  0  0  0
   38.7610   28.5220   36.4720 C   0  0  0  0  0  3  0  0  0  0  0  0
   38.5870   27.9610   35.5070 H   0  0  0  0  0  0  0  0  0  0  0  0
   38.3210   29.7950   36.2530 O   0  0  0  0  0  0  0  0  0  0  0  0
   38.7050   30.7230   37.1830 C   0  0  0  0  0  3  0  0  0  0  0  0
   38.2960   31.7080   36.8230 H   0  0  0  0  0  0  0  0  0  0  0  0
   40.2060   30.8650   37.0860 C   0  0  0  0  0  3  0  0  0  0  0  0
   40.5070   31.6810   37.7760 H   0  0  0  0  0  0  0  0  0  0  0  0
  1  7  1  0  0  0  0
  2  1  1  0  0  0  0
  2  9  1  0  0  0  0
  3  2  2  0  0  0  0
  4  5  2  0  0  0  0
  4  3  1  0  0  0  0
  5  6  1  0  0  0  0
  6  1  2  0  0  0  0
  8  3  1  0  0  0  0
 10  9  1  0  0  0  0
 10 13  1  0  0  0  0
 11 10  1  0  0  0  0
 12 10  1  0  0  0  0
 13 14  1  0  0  0  0
 13 15  1  0  0  0  0
 15 18  1  0  0  0  0
 15 20  1  0  0  0  0
 16 15  1  0  0  0  0
 17 16  1  0  0  0  0
 18 19  1  0  0  0  0
 20 21  1  0  0  0  0
 21 24  1  0  0  0  0
 21 22  1  0  0  0  0
 23 21  1  0  0  0  0
 25  5  1  0  0  0  0
 26 25  1  0  0  0  0
 27 26  1  0  0  0  0
 28 27  1  0  0  0  0
 29 27  1  0  0  0  0
 30 29  1  0  0  0  0
 31 29  1  0  0  0  0
 31 32  1  0  0  0  0
 33 32  1  0  0  0  0
 34 32  1  0  0  0  0
 34 26  1  0  0  0  0
 34 35  1  0  0  0  0
M  END
>  <minimizedAffinity>
-3.51802158

>  <minimizedRMSD>
4.57067633

$$$$
