
 OpenBabel03252508103D

 48 51  0  0  0  0  0  0  0  0999 V2000
   45.1600   35.5960   43.1510 C   0  0  0  0  0  0  0  0  0  0  0  0
   45.5250   34.2680   43.2190 C   0  0  0  0  0  0  0  0  0  0  0  0
   45.4420   33.5720   44.3910 C   0  0  0  0  0  0  0  0  0  0  0  0
   44.9690   34.2830   45.4890 N   0  0  0  0  0  0  0  0  0  0  0  0
   44.6190   35.5560   45.4280 C   0  0  0  0  0  0  0  0  0  0  0  0
   44.7200   36.2060   44.2460 N   0  0  0  0  0  0  0  0  0  0  0  0
   45.2100   36.1900   42.2400 H   0  0  0  0  0  0  0  0  0  0  0  0
   44.2560   36.0570   46.3330 H   0  0  0  0  0  0  0  0  0  0  0  0
   45.7740   32.2270   44.6400 C   0  0  0  0  0  0  0  0  0  0  0  0
   45.4220   31.1840   43.7620 C   0  0  0  0  0  0  0  0  0  0  0  0
   45.6810   29.8600   44.0000 C   0  0  0  0  0  0  0  0  0  0  0  0
   46.3270   29.4920   45.1660 C   0  0  0  0  0  0  0  0  0  0  0  0
   46.6950   30.5390   46.0720 C   0  0  0  0  0  0  0  0  0  0  0  0
   47.3290   30.1850   47.2260 C   0  0  0  0  0  0  0  0  0  0  0  0
   47.7080   31.1480   48.1330 C   0  0  0  0  0  0  0  0  0  0  0  0
   47.4340   32.5000   47.8590 C   0  0  0  0  0  0  0  0  0  0  0  0
   46.7740   32.8030   46.6480 C   0  0  0  0  0  0  0  0  0  0  0  0
   46.4100   31.8300   45.7750 C   0  0  0  0  0  0  0  0  0  0  0  0
   44.9160   31.4510   42.8460 H   0  0  0  0  0  0  0  0  0  0  0  0
   45.3720   29.1320   43.2660 H   0  0  0  0  0  0  0  0  0  0  0  0
   46.5340   28.4680   45.3660 H   0  0  0  0  0  0  0  0  0  0  0  0
   47.5260   29.1240   47.4030 H   0  0  0  0  0  0  0  0  0  0  0  0
   48.1990   30.7790   49.0100 H   0  0  0  0  0  0  0  0  0  0  0  0
   47.7740   33.1510   48.6300 H   0  0  0  0  0  0  0  0  0  0  0  0
   46.6920   33.8710   46.6350 H   0  0  0  0  0  0  0  0  0  0  0  0
   45.9660   33.6830   42.0650 O   0  0  0  0  0  0  0  0  0  0  0  0
   48.1500   32.3860   41.4130 O   0  0  0  0  0  0  0  0  0  0  0  0
   47.5300   33.7490   41.4740 P   0  0  1  0  0  0  0  0  0  0  0  0
   47.5980   34.3950   39.9170 O   0  0  0  0  0  0  0  0  0  0  0  0
   47.2450   33.3410   39.0570 C   0  0  0  0  0  0  0  0  0  0  0  0
   46.3450   32.8060   39.3540 H   0  0  0  0  0  0  0  0  0  0  0  0
   48.0840   32.5960   39.1760 H   0  0  0  0  0  0  0  0  0  0  0  0
   47.2790   33.7670   37.6200 C   0  0  0  0  0  3  0  0  0  0  0  0
   46.7060   32.7330   36.6850 C   0  0  0  0  0  3  0  0  0  0  0  0
   46.6860   33.2200   35.6670 H   0  0  0  0  0  0  0  0  0  0  0  0
   47.5950   31.5400   36.5410 C   0  0  0  0  0  3  0  0  0  0  0  0
   46.9740   30.6480   36.8480 H   0  0  0  0  0  0  0  0  0  0  0  0
   48.6960   31.5180   37.3630 O   0  0  0  0  0  0  0  0  0  0  0  0
   49.4530   32.6520   37.4070 C   0  0  0  0  0  3  0  0  0  0  0  0
   50.3400   32.6170   36.7130 H   0  0  0  0  0  0  0  0  0  0  0  0
   48.7310   33.9420   37.2280 C   0  0  0  0  0  3  0  0  0  0  0  0
   48.8190   34.3440   36.1800 H   0  0  0  0  0  0  0  0  0  0  0  0
   48.4440   34.7210   42.5100 O   0  0  0  0  0  0  0  0  0  0  0  0
   49.6480   35.3360   42.2440 C   0  0  0  0  0  0  0  0  0  0  0  0
   49.3790   36.3850   41.6730 O   0  0  0  0  0  0  0  0  0  0  0  0
   50.7460   34.5540   42.7160 N   0  0  0  0  0  0  0  0  0  0  0  0
   51.0360   34.3720   43.7260 H   0  0  0  0  0  0  0  0  0  0  0  0
   51.5780   33.9640   42.4840 H   0  0  0  0  0  0  0  0  0  0  0  0
  1  2  2  0  0  0  0
  1  6  1  0  0  0  0
  2  3  1  0  0  0  0
  3  9  1  0  0  0  0
  3  4  2  0  0  0  0
  5  4  1  0  0  0  0
  5  8  1  0  0  0  0
  6  5  2  0  0  0  0
  7  1  1  0  0  0  0
  9 18  1  0  0  0  0
 10 11  1  0  0  0  0
 10  9  2  0  0  0  0
 11 12  2  0  0  0  0
 12 21  1  0  0  0  0
 12 13  1  0  0  0  0
 13 14  1  0  0  0  0
 14 22  1  0  0  0  0
 14 15  2  0  0  0  0
 15 23  1  0  0  0  0
 16 15  1  0  0  0  0
 16 24  1  0  0  0  0
 17 16  2  0  0  0  0
 18 13  2  0  0  0  0
 18 17  1  0  0  0  0
 19 10  1  0  0  0  0
 20 11  1  0  0  0  0
 25 17  1  0  0  0  0
 26  2  1  0  0  0  0
 28 27  2  6  0  0  0
 28 26  1  0  0  0  0
 28 43  1  0  0  0  0
 29 28  1  0  0  0  0
 30 32  1  0  0  0  0
 30 31  1  0  0  0  0
 30 29  1  0  0  0  0
 33 30  1  0  0  0  0
 34 33  1  0  0  0  0
 35 34  1  0  0  0  0
 36 34  1  0  0  0  0
 36 37  1  0  0  0  0
 36 38  1  0  0  0  0
 38 39  1  0  0  0  0
 40 39  1  0  0  0  0
 41 39  1  0  0  0  0
 41 33  1  0  0  0  0
 42 41  1  0  0  0  0
 44 43  1  0  0  0  0
 44 46  1  0  0  0  0
 45 44  2  0  0  0  0
 46 47  1  0  0  0  0
 48 46  1  0  0  0  0
M  END
>  <minimizedAffinity>
-6.25436687

>  <minimizedRMSD>
0.362334102

$$$$
