
 OpenBabel03252507123D

 29 30  0  0  0  0  0  0  0  0999 V2000
   50.2240   34.9010   42.6970 O   0  0  0  0  0  0  0  0  0  0  0  0
   49.0540   34.6080   41.8160 P   0  0  1  0  0  0  0  0  0  0  0  0
   48.9700   35.8820   40.7040 O   0  0  0  0  0  0  0  0  0  0  0  0
   49.7250   35.7600   40.0750 H   0  0  0  0  0  0  0  0  0  0  0  0
   49.3060   33.1520   40.9550 O   0  0  0  0  0  0  0  0  0  0  0  0
   49.5360   31.4420   42.5480 C   0  0  0  0  0  0  0  0  0  0  0  0
   50.0610   32.1280   41.4630 C   0  0  0  0  0  0  0  0  0  0  0  0
   51.3170   31.7210   40.9730 C   0  0  0  0  0  0  0  0  0  0  0  0
   51.9350   30.6860   41.5920 N   0  0  0  0  0  0  0  0  0  0  0  0
   51.4000   30.0550   42.6290 C   0  0  0  0  0  0  0  0  0  0  0  0
   50.1810   30.4380   43.1150 N   0  0  0  0  0  0  0  0  0  0  0  0
   51.7030   32.2770   40.1230 H   0  0  0  0  0  0  0  0  0  0  0  0
   51.9560   29.2300   43.0770 H   0  0  0  0  0  0  0  0  0  0  0  0
   47.0940   31.0350   42.8230 C   0  0  0  0  0  0  0  0  0  0  0  0
   46.9200   30.7010   41.6020 O   0  0  0  0  0  0  0  0  0  0  0  0
   48.3840   31.4260   43.3970 N   0  0  0  0  0  0  0  0  0  0  0  0
   46.2330   31.0290   43.4830 H   0  0  0  0  0  0  0  0  0  0  0  0
   48.3910   31.6750   44.4070 H   0  0  0  0  0  0  0  0  0  0  0  0
   47.6350   34.5740   42.6760 O   0  0  0  0  0  0  0  0  0  0  0  0
   46.5320   35.1000   42.1210 C   0  0  0  0  0  0  0  0  0  0  0  0
   45.4730   35.6000   43.0520 C   0  0  0  0  0  0  0  0  0  0  0  0
   45.2320   34.7890   43.7820 H   0  0  0  0  0  0  0  0  0  0  0  0
   44.1940   35.7620   42.2440 C   0  0  0  0  0  0  0  0  0  0  0  0
   44.3480   36.3220   41.3160 H   0  0  0  0  0  0  0  0  0  0  0  0
   43.6500   34.5110   41.9600 O   0  0  0  0  0  0  0  0  0  0  0  0
   44.6550   33.5770   41.7200 C   0  0  0  0  0  0  0  0  0  0  0  0
   44.9430   33.0530   42.6580 H   0  0  0  0  0  0  0  0  0  0  0  0
   45.8670   34.2460   41.0620 C   0  0  0  0  0  0  0  0  0  0  0  0
   45.4350   34.8730   40.2460 H   0  0  0  0  0  0  0  0  0  0  0  0
  2 19  1  0  0  0  0
  2  1  2  1  0  0  0
  3  2  1  0  0  0  0
  4  3  1  0  0  0  0
  5  7  1  0  0  0  0
  5  2  1  0  0  0  0
  6 11  1  0  0  0  0
  6 16  1  0  0  0  0
  7  6  2  0  0  0  0
  8  7  1  0  0  0  0
  8  9  2  0  0  0  0
  9 10  1  0  0  0  0
 10 13  1  0  0  0  0
 10 11  2  0  0  0  0
 12  8  1  0  0  0  0
 14 16  1  0  0  0  0
 14 17  1  0  0  0  0
 15 14  2  0  0  0  0
 16 18  1  0  0  0  0
 20 19  1  0  0  0  0
 20 21  1  0  0  0  0
 21 22  1  0  0  0  0
 23 21  1  0  0  0  0
 24 23  1  0  0  0  0
 25 23  1  0  0  0  0
 26 25  1  0  0  0  0
 26 27  1  0  0  0  0
 28 26  1  0  0  0  0
 28 20  1  0  0  0  0
 29 28  1  0  0  0  0
M  END
>  <minimizedAffinity>
-4.03815889

>  <minimizedRMSD>
5.10291433

$$$$
