
 OpenBabel03252506473D

 43 46  0  0  1  0  0  0  0  0999 V2000
   49.3770   33.3890   41.3720 N   0  0  1  0  0  0  0  0  0  0  0  0
   50.6510   33.0930   42.0130 C   0  0  0  0  0  0  0  0  0  0  0  0
   51.2290   31.7740   41.5950 C   0  0  0  0  0  0  0  0  0  0  0  0
   50.3420   30.6700   42.1500 C   0  0  0  0  0  0  0  0  0  0  0  0
   48.8900   31.0770   42.0770 C   0  0  0  0  0  0  0  0  0  0  0  0
   48.7250   32.1660   41.0450 C   0  0  2  0  0  0  0  0  0  0  0  0
   50.5780   33.0830   43.1160 H   0  0  0  0  0  0  0  0  0  0  0  0
   51.3600   33.9050   41.7380 H   0  0  0  0  0  0  0  0  0  0  0  0
   52.2260   31.7050   42.0680 H   0  0  0  0  0  0  0  0  0  0  0  0
   51.3490   31.6850   40.4900 H   0  0  0  0  0  0  0  0  0  0  0  0
   50.6550   30.3550   43.1580 H   0  0  0  0  0  0  0  0  0  0  0  0
   50.5010   29.7980   41.4810 H   0  0  0  0  0  0  0  0  0  0  0  0
   48.2190   30.2510   41.8790 H   0  0  0  0  0  0  0  0  0  0  0  0
   48.6380   31.5260   43.0720 H   0  0  0  0  0  0  0  0  0  0  0  0
   47.6280   32.3950   41.0160 H   0  0  0  0  0  0  0  0  0  0  0  0
   47.2780   34.7410   41.9890 C   0  0  1  0  0  0  0  0  0  0  0  0
   48.4110   35.6340   41.7730 C   0  0  0  0  0  0  0  0  0  0  0  0
   48.6800   34.2540   42.2710 C   0  0  2  0  0  0  0  0  0  0  0  0
   46.8180   34.1800   41.1320 H   0  0  0  0  0  0  0  0  0  0  0  0
   48.6970   35.8880   40.7270 H   0  0  0  0  0  0  0  0  0  0  0  0
   48.5570   36.4900   42.4750 H   0  0  0  0  0  0  0  0  0  0  0  0
   48.9360   34.1590   43.3450 H   0  0  0  0  0  0  0  0  0  0  0  0
   45.5300   36.0930   43.1720 C   0  0  0  0  0  0  0  0  0  0  0  0
   46.3500   34.9410   43.1100 C   0  0  0  0  0  0  0  0  0  0  0  0
   46.2350   34.0180   44.1480 C   0  0  0  0  0  0  0  0  0  0  0  0
   45.3530   34.2760   45.1430 N   0  0  0  0  0  0  0  0  0  0  0  0
   44.5860   35.3720   45.1820 C   0  0  0  0  0  0  0  0  0  0  0  0
   44.6650   36.2990   44.1940 N   0  0  0  0  0  0  0  0  0  0  0  0
   45.5960   36.8410   42.3710 H   0  0  0  0  0  0  0  0  0  0  0  0
   46.8470   33.1150   44.1400 H   0  0  0  0  0  0  0  0  0  0  0  0
   43.8810   35.5840   45.9750 H   0  0  0  0  0  0  0  0  0  0  0  0
   49.0660   31.6750   39.7430 N   0  0  0  0  0  0  0  0  0  0  0  0
   50.0100   32.0250   39.4820 H   0  0  0  0  0  0  0  0  0  0  0  0
   48.0790   31.7330   38.7570 C   0  0  0  0  0  3  0  0  0  0  0  0
   48.7240   31.3490   37.4230 C   0  0  0  0  0  3  0  0  0  0  0  0
   47.9640   31.0170   36.7060 H   0  0  0  0  0  0  0  0  0  0  0  0
   49.4190   32.5630   36.8110 C   0  0  0  0  0  3  0  0  0  0  0  0
   49.7850   32.2510   35.8190 H   0  0  0  0  0  0  0  0  0  0  0  0
   48.5480   33.6370   36.6390 O   0  0  0  0  0  0  0  0  0  0  0  0
   48.2240   34.0990   37.9230 C   0  0  0  0  0  3  0  0  0  0  0  0
   49.1150   34.3280   38.5350 H   0  0  0  0  0  0  0  0  0  0  0  0
   47.3570   33.0150   38.5480 C   0  0  0  0  0  3  0  0  0  0  0  0
   46.5770   32.7990   37.7690 H   0  0  0  0  0  0  0  0  0  0  0  0
  1  2  1  1  0  0  0
  1 18  1  0  0  0  0
  2  7  1  0  0  0  0
  3  2  1  0  0  0  0
  3  9  1  0  0  0  0
  3  4  1  0  0  0  0
  4 11  1  0  0  0  0
  5  4  1  0  0  0  0
  5 14  1  0  0  0  0
  6 15  1  6  0  0  0
  6  1  1  0  0  0  0
  6  5  1  0  0  0  0
  8  2  1  0  0  0  0
 10  3  1  0  0  0  0
 12  4  1  0  0  0  0
 13  5  1  0  0  0  0
 16 19  1  6  0  0  0
 16 18  1  0  0  0  0
 16 24  1  0  0  0  0
 17 16  1  0  0  0  0
 17 18  1  0  0  0  0
 17 21  1  0  0  0  0
 18 22  1  1  0  0  0
 20 17  1  0  0  0  0
 23 28  1  0  0  0  0
 24 23  2  0  0  0  0
 24 25  1  0  0  0  0
 25 26  2  0  0  0  0
 26 27  1  0  0  0  0
 27 31  1  0  0  0  0
 28 27  2  0  0  0  0
 29 23  1  0  0  0  0
 30 25  1  0  0  0  0
 32  6  1  0  0  0  0
 33 32  1  0  0  0  0
 34 32  1  0  0  0  0
 35 34  1  0  0  0  0
 36 35  1  0  0  0  0
 37 35  1  0  0  0  0
 38 37  1  0  0  0  0
 39 37  1  0  0  0  0
 39 40  1  0  0  0  0
 40 41  1  0  0  0  0
 40 42  1  0  0  0  0
 42 34  1  0  0  0  0
 43 42  1  0  0  0  0
M  END
>  <minimizedAffinity>
-5.1597414

>  <minimizedRMSD>
2.08639455

$$$$
