
 OpenBabel03242518183D

 24 25  0  0  0  0  0  0  0  0999 V2000
   46.6650   33.0190   46.3190 C   0  0  0  0  0  0  0  0  0  0  0  0
   47.4510   32.3490   45.8820 H   0  0  0  0  0  0  0  0  0  0  0  0
   47.0990   33.7130   47.0560 H   0  0  0  0  0  0  0  0  0  0  0  0
   45.7060   32.1190   47.0340 C   0  0  0  0  0  3  0  0  0  0  0  0
   45.8140   32.3130   48.5240 C   0  0  0  0  0  3  0  0  0  0  0  0
   46.8760   32.3470   48.7870 H   0  0  0  0  0  0  0  0  0  0  0  0
   45.0340   31.2820   49.2930 C   0  0  0  0  0  3  0  0  0  0  0  0
   45.4390   31.2740   50.3340 H   0  0  0  0  0  0  0  0  0  0  0  0
   45.1830   30.0030   48.7920 O   0  0  0  0  0  0  0  0  0  0  0  0
   44.8500   29.8960   47.4550 C   0  0  0  0  0  3  0  0  0  0  0  0
   43.9010   30.4000   47.1750 H   0  0  0  0  0  0  0  0  0  0  0  0
   45.9310   30.6570   46.6760 C   0  0  0  0  0  3  0  0  0  0  0  0
   46.9490   30.4020   47.0510 H   0  0  0  0  0  0  0  0  0  0  0  0
   44.4530   35.4810   44.7710 C   0  0  0  0  0  0  0  0  0  0  0  0
   44.4240   35.1110   43.4190 C   0  0  0  0  0  0  0  0  0  0  0  0
   45.1660   34.0140   43.0440 C   0  0  0  0  0  0  0  0  0  0  0  0
   45.8860   33.3420   43.9780 N   0  0  0  0  0  0  0  0  0  0  0  0
   45.8930   33.7210   45.2630 C   0  0  0  0  0  0  0  0  0  0  0  0
   45.1780   34.7890   45.6640 N   0  0  0  0  0  0  0  0  0  0  0  0
   43.8940   36.3300   45.1280 H   0  0  0  0  0  0  0  0  0  0  0  0
   45.1240   33.7550   42.0090 H   0  0  0  0  0  0  0  0  0  0  0  0
   43.6240   35.9160   42.5800 N   0  0  0  0  0  0  0  0  0  0  0  0
   42.7370   35.4650   42.2190 H   0  0  0  0  0  0  0  0  0  0  0  0
   43.9950   36.8810   42.4030 H   0  0  0  0  0  0  0  0  0  0  0  0
  1  4  1  0  0  0  0
  1  3  1  0  0  0  0
  2  1  1  0  0  0  0
  4  5  1  0  0  0  0
  5  6  1  0  0  0  0
  5  7  1  0  0  0  0
  7  8  1  0  0  0  0
  9  7  1  0  0  0  0
 10  9  1  0  0  0  0
 11 10  1  0  0  0  0
 12  4  1  0  0  0  0
 12 13  1  0  0  0  0
 12 10  1  0  0  0  0
 14 20  1  0  0  0  0
 14 19  1  0  0  0  0
 15 14  2  0  0  0  0
 16 15  1  0  0  0  0
 16 17  2  0  0  0  0
 17 18  1  0  0  0  0
 18 19  2  0  0  0  0
 18  1  1  0  0  0  0
 21 16  1  0  0  0  0
 22 15  1  0  0  0  0
 23 22  1  0  0  0  0
 24 22  1  0  0  0  0
M  END
>  <minimizedAffinity>
-4.47346306

>  <minimizedRMSD>
1.28973627

$$$$
