
 OpenBabel03252508213D

 35 37  0  0  0  0  0  0  0  0999 V2000
   46.3220   33.9720   40.8940 C   0  0  0  0  0  0  0  0  0  0  0  0
   46.8620   33.7820   39.6280 C   0  0  0  0  0  0  0  0  0  0  0  0
   48.0590   34.3090   39.2110 C   0  0  0  0  0  0  0  0  0  0  0  0
   48.7490   35.0780   40.1400 C   0  0  0  0  0  0  0  0  0  0  0  0
   48.2300   35.2790   41.3980 C   0  0  0  0  0  0  0  0  0  0  0  0
   47.0330   34.7550   41.8250 C   0  0  0  0  0  0  0  0  0  0  0  0
   46.2790   33.1670   38.9320 H   0  0  0  0  0  0  0  0  0  0  0  0
   48.4190   34.1260   38.2260 H   0  0  0  0  0  0  0  0  0  0  0  0
   49.6930   35.4850   39.7840 H   0  0  0  0  0  0  0  0  0  0  0  0
   48.8660   35.8900   41.9980 H   0  0  0  0  0  0  0  0  0  0  0  0
   46.5240   35.0140   43.1930 C   0  0  0  0  0  0  0  0  0  0  0  0
   46.2240   33.7650   43.9820 C   0  0  0  0  0  0  0  0  0  0  0  0
   45.4010   33.1610   43.5350 H   0  0  0  0  0  0  0  0  0  0  0  0
   45.6440   34.2620   45.3140 C   0  0  0  0  0  0  0  0  0  0  0  0
   45.5280   33.4450   46.0380 H   0  0  0  0  0  0  0  0  0  0  0  0
   44.4150   34.8460   45.0150 O   0  0  0  0  0  0  0  0  0  0  0  0
   44.6530   36.0940   44.4470 C   0  0  0  0  0  0  0  0  0  0  0  0
   43.6650   36.5530   44.2280 H   0  0  0  0  0  0  0  0  0  0  0  0
   45.3860   35.9730   43.1250 C   0  0  0  0  0  0  0  0  0  0  0  0
   44.6590   35.7420   42.3350 H   0  0  0  0  0  0  0  0  0  0  0  0
   45.0380   33.3960   41.3270 C   0  0  0  0  0  0  0  0  0  0  0  0
   44.5920   34.0750   42.0800 H   0  0  0  0  0  0  0  0  0  0  0  0
   45.1500   32.4130   41.8250 H   0  0  0  0  0  0  0  0  0  0  0  0
   44.0440   33.3250   40.1920 C   0  0  0  0  0  0  0  0  0  0  0  0
   44.4130   33.9130   39.3480 H   0  0  0  0  0  0  0  0  0  0  0  0
   43.8780   32.2940   39.8300 H   0  0  0  0  0  0  0  0  0  0  0  0
   41.3140   35.6380   41.4240 C   0  0  0  0  0  0  0  0  0  0  0  0
   42.5820   35.2170   40.9430 C   0  0  0  0  0  0  0  0  0  0  0  0
   42.7410   33.8430   40.6980 C   0  0  0  0  0  0  0  0  0  0  0  0
   41.6670   33.0140   40.9400 N   0  0  0  0  0  0  0  0  0  0  0  0
   40.4950   33.4670   41.3930 C   0  0  0  0  0  0  0  0  0  0  0  0
   40.3200   34.7840   41.6360 N   0  0  0  0  0  0  0  0  0  0  0  0
   41.1640   36.6910   41.6210 H   0  0  0  0  0  0  0  0  0  0  0  0
   43.3910   35.8910   40.7670 H   0  0  0  0  0  0  0  0  0  0  0  0
   39.7920   32.6670   41.5160 H   0  0  0  0  0  0  0  0  0  0  0  0
  1 21  1  0  0  0  0
  1  6  1  0  0  0  0
  2  1  2  0  0  0  0
  3  2  1  0  0  0  0
  3  4  2  0  0  0  0
  4  5  1  0  0  0  0
  5  6  2  0  0  0  0
  5 10  1  0  0  0  0
  6 11  1  0  0  0  0
  7  2  1  0  0  0  0
  8  3  1  0  0  0  0
  9  4  1  0  0  0  0
 11 12  1  0  0  0  0
 12 14  1  0  0  0  0
 13 12  1  0  0  0  0
 14 15  1  0  0  0  0
 16 14  1  0  0  0  0
 17 16  1  0  0  0  0
 18 17  1  0  0  0  0
 19 11  1  0  0  0  0
 19 17  1  0  0  0  0
 20 19  1  0  0  0  0
 21 23  1  0  0  0  0
 21 22  1  0  0  0  0
 24 29  1  0  0  0  0
 24 21  1  0  0  0  0
 25 24  1  0  0  0  0
 26 24  1  0  0  0  0
 27 33  1  0  0  0  0
 27 32  1  0  0  0  0
 28 27  2  0  0  0  0
 29 30  2  0  0  0  0
 29 28  1  0  0  0  0
 30 31  1  0  0  0  0
 31 35  1  0  0  0  0
 31 32  2  0  0  0  0
 34 28  1  0  0  0  0
M  END
>  <minimizedAffinity>
-5.46352482

>  <minimizedRMSD>
0.83529526

$$$$
