
 OpenBabel03252503033D

 35 36  0  0  0  0  0  0  0  0999 V2000
   42.8730   31.3720   40.3840 C   0  0  0  0  0  0  0  0  0  0  0  0
   42.0190   32.4010   40.0400 C   0  0  0  0  0  0  0  0  0  0  0  0
   42.4780   33.5120   39.3390 C   0  0  0  0  0  0  0  0  0  0  0  0
   43.7920   33.5400   39.0110 N   0  0  0  0  0  0  0  0  0  0  0  0
   44.6080   32.5180   39.3600 C   0  0  0  0  0  0  0  0  0  0  0  0
   44.1790   31.4410   40.0360 N   0  0  0  0  0  0  0  0  0  0  0  0
   42.5360   30.5010   40.9280 H   0  0  0  0  0  0  0  0  0  0  0  0
   41.7890   34.2830   39.0940 H   0  0  0  0  0  0  0  0  0  0  0  0
   40.2780   32.3280   40.4960 S   0  0  0  0  0  0  0  0  0  0  0  0
   39.4050   31.2580   39.3620 C   0  0  0  0  0  0  0  0  0  0  0  0
   38.3320   31.5200   39.2450 H   0  0  0  0  0  0  0  0  0  0  0  0
   39.8390   31.3370   38.3410 H   0  0  0  0  0  0  0  0  0  0  0  0
   39.5760   29.8850   39.8160 N   0  0  0  0  0  0  0  0  0  0  0  0
   40.4500   29.7600   40.3690 H   0  0  0  0  0  0  0  0  0  0  0  0
   38.2990   29.3960   40.8600 S   0  0  0  0  0  0  0  0  0  0  0  0
   37.4010   30.5200   41.2380 O   0  0  0  0  0  0  0  0  0  0  0  0
   37.5190   31.4830   40.9980 H   0  0  0  0  0  0  0  0  0  0  0  0
   37.4970   28.3580   40.0920 O   0  0  0  0  0  0  0  0  0  0  0  0
   37.8460   27.4530   39.8790 H   0  0  0  0  0  0  0  0  0  0  0  0
   38.9400   28.6410   42.1990 O   0  0  0  0  0  0  0  0  0  0  0  0
   39.1000   29.5140   43.2630 C   0  0  0  0  0  0  0  0  0  0  0  0
   40.0150   29.1790   43.7940 H   0  0  0  0  0  0  0  0  0  0  0  0
   39.1340   30.5560   42.9450 H   0  0  0  0  0  0  0  0  0  0  0  0
   38.1970   29.3730   43.9120 H   0  0  0  0  0  0  0  0  0  0  0  0
   45.9630   32.5150   39.0380 O   0  0  0  0  0  0  0  0  0  0  0  0
   46.8940   33.3780   39.6750 C   0  0  0  0  0  3  0  0  0  0  0  0
   46.2590   34.0690   40.8270 C   0  0  0  0  0  3  0  0  0  0  0  0
   46.6780   35.1170   40.8340 H   0  0  0  0  0  0  0  0  0  0  0  0
   46.4890   33.4780   42.1700 C   0  0  0  0  0  3  0  0  0  0  0  0
   46.6470   34.2960   42.9330 H   0  0  0  0  0  0  0  0  0  0  0  0
   47.5490   32.6280   42.3040 O   0  0  0  0  0  0  0  0  0  0  0  0
   47.7190   31.7290   41.2850 C   0  0  0  0  0  3  0  0  0  0  0  0
   48.6490   31.1500   41.5390 H   0  0  0  0  0  0  0  0  0  0  0  0
   48.0740   32.5150   40.0440 C   0  0  0  0  0  3  0  0  0  0  0  0
   48.2990   31.7840   39.2410 H   0  0  0  0  0  0  0  0  0  0  0  0
  1  7  1  0  0  0  0
  2  1  1  0  0  0  0
  2  9  1  0  0  0  0
  3  2  2  0  0  0  0
  4  3  1  0  0  0  0
  4  5  2  0  0  0  0
  5  6  1  0  0  0  0
  6  1  2  0  0  0  0
  8  3  1  0  0  0  0
 10 13  1  0  0  0  0
 10  9  1  0  0  0  0
 11 10  1  0  0  0  0
 12 10  1  0  0  0  0
 13 14  1  0  0  0  0
 13 15  1  0  0  0  0
 15 16  1  0  0  0  0
 15 20  1  0  0  0  0
 17 16  1  0  0  0  0
 18 15  1  0  0  0  0
 19 18  1  0  0  0  0
 20 21  1  0  0  0  0
 21 22  1  0  0  0  0
 21 24  1  0  0  0  0
 23 21  1  0  0  0  0
 25  5  1  0  0  0  0
 25 26  1  0  0  0  0
 26 34  1  0  0  0  0
 26 27  1  0  0  0  0
 27 28  1  0  0  0  0
 27 29  1  0  0  0  0
 29 31  1  0  0  0  0
 29 30  1  0  0  0  0
 32 33  1  0  0  0  0
 32 31  1  0  0  0  0
 34 32  1  0  0  0  0
 35 34  1  0  0  0  0
M  END
>  <minimizedAffinity>
-2.42738008

>  <minimizedRMSD>
8.28567886

$$$$
