
 OpenBabel03252509213D

 26 28  0  0  0  0  0  0  0  0999 V2000
   39.9860   30.0360   42.1870 C   0  0  0  0  0  0  0  0  0  0  0  0
   38.6870   30.3610   41.7670 C   0  0  0  0  0  0  0  0  0  0  0  0
   38.5590   31.5360   41.0450 C   0  0  0  0  0  0  0  0  0  0  0  0
   39.6860   32.2910   40.7880 N   0  0  0  0  0  0  0  0  0  0  0  0
   40.9100   31.9470   41.2040 C   0  0  0  0  0  0  0  0  0  0  0  0
   41.0320   30.8090   41.9060 N   0  0  0  0  0  0  0  0  0  0  0  0
   40.2670   29.1840   42.7450 H   0  0  0  0  0  0  0  0  0  0  0  0
   41.6800   32.6410   40.9220 H   0  0  0  0  0  0  0  0  0  0  0  0
   37.5720   29.4310   42.1160 C   0  0  0  0  0  3  0  0  0  0  0  0
   37.6990   28.9070   43.5080 C   0  0  0  0  0  3  0  0  0  0  0  0
   36.8710   29.3200   44.1590 H   0  0  0  0  0  0  0  0  0  0  0  0
   37.7250   27.4370   43.6800 C   0  0  0  0  0  3  0  0  0  0  0  0
   38.7420   26.9980   43.7330 H   0  0  0  0  0  0  0  0  0  0  0  0
   37.0800   26.7280   42.6690 O   0  0  0  0  0  0  0  0  0  0  0  0
   37.8450   27.0050   41.5150 C   0  0  0  0  0  3  0  0  0  0  0  0
   37.6440   26.2870   40.7200 H   0  0  0  0  0  0  0  0  0  0  0  0
   37.4110   28.3560   41.0580 C   0  0  0  0  0  3  0  0  0  0  0  0
   36.3420   28.2600   40.7570 H   0  0  0  0  0  0  0  0  0  0  0  0
   37.2040   31.9110   40.4960 C   0  0  0  0  0  0  0  0  0  0  0  0
   37.3240   33.0940   39.5240 C   0  0  0  0  0  0  0  0  0  0  0  0
   36.9670   31.6420   39.0900 C   0  0  0  0  0  0  0  0  0  0  0  0
   36.4330   32.2510   41.2460 H   0  0  0  0  0  0  0  0  0  0  0  0
   36.4960   33.7840   39.3700 H   0  0  0  0  0  0  0  0  0  0  0  0
   38.3010   33.4100   39.1630 H   0  0  0  0  0  0  0  0  0  0  0  0
   35.9170   31.4530   38.7810 H   0  0  0  0  0  0  0  0  0  0  0  0
   37.7150   31.0830   38.5170 H   0  0  0  0  0  0  0  0  0  0  0  0
  1  7  1  0  0  0  0
  2  9  1  0  0  0  0
  2  1  2  0  0  0  0
  3  2  1  0  0  0  0
  4  3  2  0  0  0  0
  4  5  1  0  0  0  0
  5  6  2  0  0  0  0
  6  1  1  0  0  0  0
  8  5  1  0  0  0  0
  9 10  1  0  0  0  0
 10 12  1  0  0  0  0
 10 11  1  0  0  0  0
 12 13  1  0  0  0  0
 14 12  1  0  0  0  0
 15 14  1  0  0  0  0
 16 15  1  0  0  0  0
 17 15  1  0  0  0  0
 17  9  1  0  0  0  0
 18 17  1  0  0  0  0
 19  3  1  0  0  0  0
 19 22  1  0  0  0  0
 20 19  1  0  0  0  0
 21 20  1  0  0  0  0
 21 19  1  0  0  0  0
 23 20  1  0  0  0  0
 24 20  1  0  0  0  0
 25 21  1  0  0  0  0
 26 21  1  0  0  0  0
M  END
>  <minimizedAffinity>
-4.25395298

$$$$

 OpenBabel03252509213D

 26 28  0  0  0  0  0  0  0  0999 V2000
   37.2950   29.1600   39.1980 C   0  0  0  0  0  0  0  0  0  0  0  0
   37.3830   29.4330   40.5720 C   0  0  0  0  0  0  0  0  0  0  0  0
   37.1620   28.3600   41.4190 C   0  0  0  0  0  0  0  0  0  0  0  0
   36.8780   27.1230   40.8740 N   0  0  0  0  0  0  0  0  0  0  0  0
   36.8040   26.9010   39.5570 C   0  0  0  0  0  0  0  0  0  0  0  0
   37.0170   27.9430   38.7370 N   0  0  0  0  0  0  0  0  0  0  0  0
   37.4310   29.8540   38.4130 H   0  0  0  0  0  0  0  0  0  0  0  0
   36.5750   25.8840   39.2960 H   0  0  0  0  0  0  0  0  0  0  0  0
   37.7120   30.8250   41.0010 C   0  0  0  0  0  3  0  0  0  0  0  0
   36.8210   31.8320   40.3530 C   0  0  0  0  0  3  0  0  0  0  0  0
   36.1400   32.3060   41.1230 H   0  0  0  0  0  0  0  0  0  0  0  0
   37.4710   32.9200   39.5880 C   0  0  0  0  0  3  0  0  0  0  0  0
   37.5590   32.7280   38.4990 H   0  0  0  0  0  0  0  0  0  0  0  0
   38.7660   33.2230   40.0050 O   0  0  0  0  0  0  0  0  0  0  0  0
   39.4980   32.0490   39.7240 C   0  0  0  0  0  3  0  0  0  0  0  0
   40.5710   32.2400   39.7150 H   0  0  0  0  0  0  0  0  0  0  0  0
   39.1930   31.1070   40.8390 C   0  0  0  0  0  3  0  0  0  0  0  0
   39.6070   31.5680   41.7650 H   0  0  0  0  0  0  0  0  0  0  0  0
   37.3150   28.5620   42.9060 C   0  0  0  0  0  0  0  0  0  0  0  0
   36.5570   27.4720   43.6800 C   0  0  0  0  0  0  0  0  0  0  0  0
   38.1100   27.5810   43.6240 C   0  0  0  0  0  0  0  0  0  0  0  0
   36.9120   29.5270   43.3280 H   0  0  0  0  0  0  0  0  0  0  0  0
   36.1680   27.6570   44.6800 H   0  0  0  0  0  0  0  0  0  0  0  0
   36.1810   26.5920   43.1600 H   0  0  0  0  0  0  0  0  0  0  0  0
   38.6230   27.9250   44.5480 H   0  0  0  0  0  0  0  0  0  0  0  0
   38.6540   26.8160   43.0610 H   0  0  0  0  0  0  0  0  0  0  0  0
  1  2  1  0  0  0  0
  2  9  1  0  0  0  0
  2  3  2  0  0  0  0
  3 19  1  0  0  0  0
  4  3  1  0  0  0  0
  5  4  2  0  0  0  0
  6  1  2  0  0  0  0
  6  5  1  0  0  0  0
  7  1  1  0  0  0  0
  8  5  1  0  0  0  0
 10  9  1  0  0  0  0
 10 11  1  0  0  0  0
 12 14  1  0  0  0  0
 12 10  1  0  0  0  0
 13 12  1  0  0  0  0
 15 14  1  0  0  0  0
 15 17  1  0  0  0  0
 16 15  1  0  0  0  0
 17  9  1  0  0  0  0
 17 18  1  0  0  0  0
 19 22  1  0  0  0  0
 19 21  1  0  0  0  0
 19 20  1  0  0  0  0
 20 23  1  0  0  0  0
 21 20  1  0  0  0  0
 21 25  1  0  0  0  0
 24 20  1  0  0  0  0
 26 21  1  0  0  0  0
M  END
>  <minimizedAffinity>
-4.19292784

$$$$

 OpenBabel03252509213D

 26 28  0  0  0  0  0  0  0  0999 V2000
   37.4620   28.4160   39.3800 C   0  0  0  0  0  0  0  0  0  0  0  0
   37.3430   29.5630   40.1800 C   0  0  0  0  0  0  0  0  0  0  0  0
   37.2850   30.7700   39.5040 C   0  0  0  0  0  0  0  0  0  0  0  0
   37.3440   30.7700   38.1240 N   0  0  0  0  0  0  0  0  0  0  0  0
   37.4560   29.6540   37.3950 C   0  0  0  0  0  0  0  0  0  0  0  0
   37.5150   28.4840   38.0520 N   0  0  0  0  0  0  0  0  0  0  0  0
   37.5220   27.4180   39.7230 H   0  0  0  0  0  0  0  0  0  0  0  0
   37.4890   29.8250   36.3350 H   0  0  0  0  0  0  0  0  0  0  0  0
   37.2790   29.3930   41.6620 C   0  0  0  0  0  3  0  0  0  0  0  0
   38.6350   29.4200   42.2840 C   0  0  0  0  0  3  0  0  0  0  0  0
   38.7590   30.3530   42.9140 H   0  0  0  0  0  0  0  0  0  0  0  0
   39.0250   28.2570   43.1120 C   0  0  0  0  0  3  0  0  0  0  0  0
   39.6080   27.4830   42.5720 H   0  0  0  0  0  0  0  0  0  0  0  0
   37.9540   27.5690   43.6800 O   0  0  0  0  0  0  0  0  0  0  0  0
   37.2550   27.0480   42.5680 C   0  0  0  0  0  3  0  0  0  0  0  0
   36.5790   26.2460   42.8620 H   0  0  0  0  0  0  0  0  0  0  0  0
   36.4470   28.1810   42.0330 C   0  0  0  0  0  3  0  0  0  0  0  0
   35.7060   28.4420   42.8250 H   0  0  0  0  0  0  0  0  0  0  0  0
   37.0800   32.0390   40.2950 C   0  0  0  0  0  0  0  0  0  0  0  0
   38.4220   32.7460   40.5380 C   0  0  0  0  0  0  0  0  0  0  0  0
   37.3070   33.2920   39.5980 C   0  0  0  0  0  0  0  0  0  0  0  0
   36.6400   31.9240   41.3270 H   0  0  0  0  0  0  0  0  0  0  0  0
   38.5730   33.3840   41.4080 H   0  0  0  0  0  0  0  0  0  0  0  0
   39.3120   32.4340   39.9960 H   0  0  0  0  0  0  0  0  0  0  0  0
   36.7400   34.1790   39.9520 H   0  0  0  0  0  0  0  0  0  0  0  0
   37.5000   33.2790   38.5190 H   0  0  0  0  0  0  0  0  0  0  0  0
  1  7  1  0  0  0  0
  1  2  1  0  0  0  0
  2  9  1  0  0  0  0
  3  2  2  0  0  0  0
  3 19  1  0  0  0  0
  4  3  1  0  0  0  0
  5  6  1  0  0  0  0
  5  4  2  0  0  0  0
  6  1  2  0  0  0  0
  8  5  1  0  0  0  0
  9 17  1  0  0  0  0
  9 10  1  0  0  0  0
 10 11  1  0  0  0  0
 10 12  1  0  0  0  0
 12 14  1  0  0  0  0
 13 12  1  0  0  0  0
 15 16  1  0  0  0  0
 15 14  1  0  0  0  0
 17 15  1  0  0  0  0
 17 18  1  0  0  0  0
 19 20  1  0  0  0  0
 19 22  1  0  0  0  0
 20 23  1  0  0  0  0
 21 25  1  0  0  0  0
 21 19  1  0  0  0  0
 21 20  1  0  0  0  0
 24 20  1  0  0  0  0
 26 21  1  0  0  0  0
M  END
>  <minimizedAffinity>
-4.18578196

$$$$

 OpenBabel03252509213D

 26 28  0  0  0  0  0  0  0  0999 V2000
   39.5550   29.0930   40.5130 C   0  0  0  0  0  0  0  0  0  0  0  0
   38.6360   30.0900   40.8750 C   0  0  0  0  0  0  0  0  0  0  0  0
   38.7440   31.2900   40.1920 C   0  0  0  0  0  0  0  0  0  0  0  0
   39.7190   31.4250   39.2230 N   0  0  0  0  0  0  0  0  0  0  0  0
   40.5770   30.4500   38.9050 C   0  0  0  0  0  0  0  0  0  0  0  0
   40.4730   29.2870   39.5690 N   0  0  0  0  0  0  0  0  0  0  0  0
   39.6200   28.1230   40.9280 H   0  0  0  0  0  0  0  0  0  0  0  0
   41.2730   30.7140   38.1310 H   0  0  0  0  0  0  0  0  0  0  0  0
   37.6320   29.7820   41.9370 C   0  0  0  0  0  3  0  0  0  0  0  0
   38.2770   29.2600   43.1770 C   0  0  0  0  0  3  0  0  0  0  0  0
   38.1720   30.0100   44.0190 H   0  0  0  0  0  0  0  0  0  0  0  0
   37.8160   27.9450   43.6790 C   0  0  0  0  0  3  0  0  0  0  0  0
   38.4330   27.0850   43.3470 H   0  0  0  0  0  0  0  0  0  0  0  0
   36.5120   27.6150   43.3160 O   0  0  0  0  0  0  0  0  0  0  0  0
   36.5670   27.5050   41.9090 C   0  0  0  0  0  3  0  0  0  0  0  0
   35.7070   26.9620   41.5170 H   0  0  0  0  0  0  0  0  0  0  0  0
   36.5220   28.9030   41.3940 C   0  0  0  0  0  3  0  0  0  0  0  0
   35.5250   29.3130   41.6770 H   0  0  0  0  0  0  0  0  0  0  0  0
   37.7410   32.3820   40.4740 C   0  0  0  0  0  0  0  0  0  0  0  0
   38.3480   33.7620   40.1750 C   0  0  0  0  0  0  0  0  0  0  0  0
   37.2160   33.1050   39.3300 C   0  0  0  0  0  0  0  0  0  0  0  0
   37.3770   32.4690   41.5380 H   0  0  0  0  0  0  0  0  0  0  0  0
   38.0040   34.6540   40.6970 H   0  0  0  0  0  0  0  0  0  0  0  0
   39.2860   33.8420   39.6290 H   0  0  0  0  0  0  0  0  0  0  0  0
   36.1990   33.5380   39.4290 H   0  0  0  0  0  0  0  0  0  0  0  0
   37.4680   32.7650   38.3190 H   0  0  0  0  0  0  0  0  0  0  0  0
  1  2  1  0  0  0  0
  1  7  1  0  0  0  0
  2  9  1  0  0  0  0
  3 19  1  0  0  0  0
  3  2  2  0  0  0  0
  4  3  1  0  0  0  0
  5  4  2  0  0  0  0
  5  6  1  0  0  0  0
  6  1  2  0  0  0  0
  8  5  1  0  0  0  0
  9 10  1  0  0  0  0
 10 12  1  0  0  0  0
 10 11  1  0  0  0  0
 13 12  1  0  0  0  0
 14 12  1  0  0  0  0
 15 14  1  0  0  0  0
 16 15  1  0  0  0  0
 17 18  1  0  0  0  0
 17 15  1  0  0  0  0
 17  9  1  0  0  0  0
 19 22  1  0  0  0  0
 20 19  1  0  0  0  0
 20 23  1  0  0  0  0
 21 25  1  0  0  0  0
 21 20  1  0  0  0  0
 21 19  1  0  0  0  0
 24 20  1  0  0  0  0
 26 21  1  0  0  0  0
M  END
>  <minimizedAffinity>
-4.16939878

$$$$

 OpenBabel03252509213D

 26 28  0  0  0  0  0  0  0  0999 V2000
   36.4940   26.5820   39.4630 C   0  0  0  0  0  0  0  0  0  0  0  0
   36.9680   26.4720   40.7790 C   0  0  0  0  0  0  0  0  0  0  0  0
   36.8160   27.5950   41.5740 C   0  0  0  0  0  0  0  0  0  0  0  0
   36.2200   28.7200   41.0380 N   0  0  0  0  0  0  0  0  0  0  0  0
   35.7780   28.7860   39.7780 C   0  0  0  0  0  0  0  0  0  0  0  0
   35.9290   27.6970   39.0070 N   0  0  0  0  0  0  0  0  0  0  0  0
   36.5290   25.8290   38.7210 H   0  0  0  0  0  0  0  0  0  0  0  0
   35.3400   29.7310   39.5160 H   0  0  0  0  0  0  0  0  0  0  0  0
   37.5780   25.1780   41.2100 C   0  0  0  0  0  3  0  0  0  0  0  0
   38.8890   24.9310   40.5430 C   0  0  0  0  0  3  0  0  0  0  0  0
   39.7300   24.9860   41.2990 H   0  0  0  0  0  0  0  0  0  0  0  0
   39.0390   23.6670   39.7870 C   0  0  0  0  0  3  0  0  0  0  0  0
   38.8340   23.7540   38.7000 H   0  0  0  0  0  0  0  0  0  0  0  0
   38.2150   22.6320   40.2260 O   0  0  0  0  0  0  0  0  0  0  0  0
   36.9090   23.1000   39.9620 C   0  0  0  0  0  3  0  0  0  0  0  0
   36.1840   22.2860   39.9710 H   0  0  0  0  0  0  0  0  0  0  0  0
   36.5850   24.0400   41.0740 C   0  0  0  0  0  3  0  0  0  0  0  0
   36.5600   23.4290   42.0060 H   0  0  0  0  0  0  0  0  0  0  0  0
   37.2340   27.5250   43.0220 C   0  0  0  0  0  0  0  0  0  0  0  0
   38.7230   27.8750   43.1720 C   0  0  0  0  0  0  0  0  0  0  0  0
   37.5600   28.7810   43.6740 C   0  0  0  0  0  0  0  0  0  0  0  0
   37.1370   26.5210   43.5270 H   0  0  0  0  0  0  0  0  0  0  0  0
   39.3150   27.4750   43.9930 H   0  0  0  0  0  0  0  0  0  0  0  0
   39.2680   28.3160   42.3400 H   0  0  0  0  0  0  0  0  0  0  0  0
   37.4030   28.8360   44.7720 H   0  0  0  0  0  0  0  0  0  0  0  0
   37.3820   29.7220   43.1430 H   0  0  0  0  0  0  0  0  0  0  0  0
  1  2  1  0  0  0  0
  2  9  1  0  0  0  0
  2  3  2  0  0  0  0
  3 19  1  0  0  0  0
  4  3  1  0  0  0  0
  5  4  2  0  0  0  0
  6  1  2  0  0  0  0
  6  5  1  0  0  0  0
  7  1  1  0  0  0  0
  8  5  1  0  0  0  0
 10  9  1  0  0  0  0
 10 11  1  0  0  0  0
 12 14  1  0  0  0  0
 12 10  1  0  0  0  0
 13 12  1  0  0  0  0
 15 16  1  0  0  0  0
 15 14  1  0  0  0  0
 15 17  1  0  0  0  0
 17  9  1  0  0  0  0
 17 18  1  0  0  0  0
 19 20  1  0  0  0  0
 19 22  1  0  0  0  0
 19 21  1  0  0  0  0
 20 21  1  0  0  0  0
 20 23  1  0  0  0  0
 21 25  1  0  0  0  0
 24 20  1  0  0  0  0
 26 21  1  0  0  0  0
M  END
>  <minimizedAffinity>
-4.13448048

$$$$

 OpenBabel03252509213D

 26 28  0  0  0  0  0  0  0  0999 V2000
   39.8420   30.1360   41.1200 C   0  0  0  0  0  0  0  0  0  0  0  0
   38.5430   29.6060   41.1310 C   0  0  0  0  0  0  0  0  0  0  0  0
   38.3070   28.5980   42.0510 C   0  0  0  0  0  0  0  0  0  0  0  0
   39.3370   28.1900   42.8770 N   0  0  0  0  0  0  0  0  0  0  0  0
   40.5640   28.7210   42.8370 C   0  0  0  0  0  0  0  0  0  0  0  0
   40.7910   29.6980   41.9440 N   0  0  0  0  0  0  0  0  0  0  0  0
   40.1970   30.9050   40.4870 H   0  0  0  0  0  0  0  0  0  0  0  0
   41.2490   28.2930   43.5440 H   0  0  0  0  0  0  0  0  0  0  0  0
   37.5370   30.1660   40.1800 C   0  0  0  0  0  3  0  0  0  0  0  0
   38.0660   30.2340   38.7870 C   0  0  0  0  0  3  0  0  0  0  0  0
   37.5200   29.4970   38.1240 H   0  0  0  0  0  0  0  0  0  0  0  0
   38.0440   31.5530   38.1160 C   0  0  0  0  0  3  0  0  0  0  0  0
   38.9920   32.1240   38.1920 H   0  0  0  0  0  0  0  0  0  0  0  0
   37.0610   32.4230   38.5870 O   0  0  0  0  0  0  0  0  0  0  0  0
   37.4350   32.6660   39.9270 C   0  0  0  0  0  3  0  0  0  0  0  0
   36.9410   33.5520   40.3250 H   0  0  0  0  0  0  0  0  0  0  0  0
   36.9720   31.4760   40.6970 C   0  0  0  0  0  3  0  0  0  0  0  0
   35.8590   31.4730   40.6360 H   0  0  0  0  0  0  0  0  0  0  0  0
   36.9130   28.0320   42.1730 C   0  0  0  0  0  0  0  0  0  0  0  0
   36.9560   26.4980   42.2250 C   0  0  0  0  0  0  0  0  0  0  0  0
   36.5680   27.4010   43.4330 C   0  0  0  0  0  0  0  0  0  0  0  0
   36.2030   28.2580   41.3260 H   0  0  0  0  0  0  0  0  0  0  0  0
   36.1170   25.8980   41.8750 H   0  0  0  0  0  0  0  0  0  0  0  0
   37.9020   25.9800   42.3760 H   0  0  0  0  0  0  0  0  0  0  0  0
   35.4970   27.4130   43.7290 H   0  0  0  0  0  0  0  0  0  0  0  0
   37.2700   27.4580   44.2720 H   0  0  0  0  0  0  0  0  0  0  0  0
  1  2  2  0  0  0  0
  1  6  1  0  0  0  0
  2  3  1  0  0  0  0
  3 19  1  0  0  0  0
  3  4  2  0  0  0  0
  5  4  1  0  0  0  0
  5  8  1  0  0  0  0
  6  5  2  0  0  0  0
  7  1  1  0  0  0  0
  9 17  1  0  0  0  0
  9  2  1  0  0  0  0
 10  9  1  0  0  0  0
 11 10  1  0  0  0  0
 12 13  1  0  0  0  0
 12 14  1  0  0  0  0
 12 10  1  0  0  0  0
 14 15  1  0  0  0  0
 15 16  1  0  0  0  0
 15 17  1  0  0  0  0
 18 17  1  0  0  0  0
 19 20  1  0  0  0  0
 19 21  1  0  0  0  0
 20 24  1  0  0  0  0
 20 21  1  0  0  0  0
 21 25  1  0  0  0  0
 21 26  1  0  0  0  0
 22 19  1  0  0  0  0
 23 20  1  0  0  0  0
M  END
>  <minimizedAffinity>
-4.1124649

$$$$

 OpenBabel03252509213D

 26 28  0  0  0  0  0  0  0  0999 V2000
   36.8770   30.2770   41.2090 C   0  0  0  0  0  0  0  0  0  0  0  0
   38.1990   29.8960   41.4850 C   0  0  0  0  0  0  0  0  0  0  0  0
   39.1730   30.8370   41.2000 C   0  0  0  0  0  0  0  0  0  0  0  0
   38.7940   32.0590   40.6790 N   0  0  0  0  0  0  0  0  0  0  0  0
   37.5210   32.3860   40.4300 C   0  0  0  0  0  0  0  0  0  0  0  0
   36.5770   31.4720   40.7060 N   0  0  0  0  0  0  0  0  0  0  0  0
   36.0120   29.6880   41.3610 H   0  0  0  0  0  0  0  0  0  0  0  0
   37.3940   33.3730   40.0260 H   0  0  0  0  0  0  0  0  0  0  0  0
   38.4430   28.5390   42.0610 C   0  0  0  0  0  3  0  0  0  0  0  0
   38.1760   27.4570   41.0690 C   0  0  0  0  0  3  0  0  0  0  0  0
   39.1420   26.9430   40.7800 H   0  0  0  0  0  0  0  0  0  0  0  0
   37.2000   26.4120   41.4520 C   0  0  0  0  0  3  0  0  0  0  0  0
   36.1660   26.5940   41.0940 H   0  0  0  0  0  0  0  0  0  0  0  0
   37.0750   26.2160   42.8260 O   0  0  0  0  0  0  0  0  0  0  0  0
   36.5520   27.4390   43.2990 C   0  0  0  0  0  3  0  0  0  0  0  0
   36.1220   27.3320   44.2950 H   0  0  0  0  0  0  0  0  0  0  0  0
   37.7130   28.3710   43.3800 C   0  0  0  0  0  3  0  0  0  0  0  0
   38.3980   27.9570   44.1550 H   0  0  0  0  0  0  0  0  0  0  0  0
   40.6100   30.5260   41.5420 C   0  0  0  0  0  0  0  0  0  0  0  0
   41.4680   31.7990   41.4760 C   0  0  0  0  0  0  0  0  0  0  0  0
   41.1160   31.0520   42.7970 C   0  0  0  0  0  0  0  0  0  0  0  0
   41.1440   29.8010   40.8620 H   0  0  0  0  0  0  0  0  0  0  0  0
   42.5320   31.7500   41.2480 H   0  0  0  0  0  0  0  0  0  0  0  0
   40.9950   32.7760   41.4090 H   0  0  0  0  0  0  0  0  0  0  0  0
   41.9360   30.4860   43.2880 H   0  0  0  0  0  0  0  0  0  0  0  0
   40.4250   31.5420   43.4900 H   0  0  0  0  0  0  0  0  0  0  0  0
  1  7  1  0  0  0  0
  1  2  1  0  0  0  0
  2  9  1  0  0  0  0
  3  2  2  0  0  0  0
  3 19  1  0  0  0  0
  4  3  1  0  0  0  0
  5  4  2  0  0  0  0
  5  6  1  0  0  0  0
  6  1  2  0  0  0  0
  8  5  1  0  0  0  0
  9 17  1  0  0  0  0
 10 12  1  0  0  0  0
 10  9  1  0  0  0  0
 11 10  1  0  0  0  0
 12 14  1  0  0  0  0
 13 12  1  0  0  0  0
 14 15  1  0  0  0  0
 15 17  1  0  0  0  0
 15 16  1  0  0  0  0
 17 18  1  0  0  0  0
 19 21  1  0  0  0  0
 20 19  1  0  0  0  0
 20 21  1  0  0  0  0
 21 25  1  0  0  0  0
 21 26  1  0  0  0  0
 22 19  1  0  0  0  0
 23 20  1  0  0  0  0
 24 20  1  0  0  0  0
M  END
>  <minimizedAffinity>
-4.02281046

$$$$

 OpenBabel03252509213D

 26 28  0  0  0  0  0  0  0  0999 V2000
   39.6340   30.9650   41.7820 C   0  0  0  0  0  0  0  0  0  0  0  0
   38.5960   31.2090   40.8710 C   0  0  0  0  0  0  0  0  0  0  0  0
   37.4460   30.4570   41.0450 C   0  0  0  0  0  0  0  0  0  0  0  0
   37.3950   29.5410   42.0780 N   0  0  0  0  0  0  0  0  0  0  0  0
   38.4070   29.3370   42.9280 C   0  0  0  0  0  0  0  0  0  0  0  0
   39.5210   30.0650   42.7570 N   0  0  0  0  0  0  0  0  0  0  0  0
   40.5770   31.4420   41.7980 H   0  0  0  0  0  0  0  0  0  0  0  0
   38.2080   28.5900   43.6740 H   0  0  0  0  0  0  0  0  0  0  0  0
   38.8040   32.2460   39.8150 C   0  0  0  0  0  3  0  0  0  0  0  0
   39.8700   31.8490   38.8500 C   0  0  0  0  0  3  0  0  0  0  0  0
   39.4200   31.6440   37.8320 H   0  0  0  0  0  0  0  0  0  0  0  0
   41.0010   32.7860   38.6660 C   0  0  0  0  0  3  0  0  0  0  0  0
   41.8910   32.5610   39.2900 H   0  0  0  0  0  0  0  0  0  0  0  0
   40.6970   34.1180   38.9410 O   0  0  0  0  0  0  0  0  0  0  0  0
   40.3990   34.1220   40.3210 C   0  0  0  0  0  3  0  0  0  0  0  0
   40.4390   35.1290   40.7350 H   0  0  0  0  0  0  0  0  0  0  0  0
   39.0000   33.6160   40.4340 C   0  0  0  0  0  3  0  0  0  0  0  0
   38.3510   34.3690   39.9300 H   0  0  0  0  0  0  0  0  0  0  0  0
   36.2600   30.7190   40.1500 C   0  0  0  0  0  0  0  0  0  0  0  0
   36.3270   29.8390   38.8930 C   0  0  0  0  0  0  0  0  0  0  0  0
   35.2790   29.6560   40.0300 C   0  0  0  0  0  0  0  0  0  0  0  0
   36.1570   31.7670   39.7450 H   0  0  0  0  0  0  0  0  0  0  0  0
   35.8670   30.1560   37.9580 H   0  0  0  0  0  0  0  0  0  0  0  0
   37.0350   29.0140   38.8390 H   0  0  0  0  0  0  0  0  0  0  0  0
   34.2340   29.9550   39.8030 H   0  0  0  0  0  0  0  0  0  0  0  0
   35.3680   28.7690   40.6670 H   0  0  0  0  0  0  0  0  0  0  0  0
  1  7  1  0  0  0  0
  1  6  1  0  0  0  0
  2  3  1  0  0  0  0
  2  1  2  0  0  0  0
  3  4  2  0  0  0  0
  4  5  1  0  0  0  0
  5  8  1  0  0  0  0
  6  5  2  0  0  0  0
  9 17  1  0  0  0  0
  9  2  1  0  0  0  0
 10  9  1  0  0  0  0
 11 10  1  0  0  0  0
 12 10  1  0  0  0  0
 12 14  1  0  0  0  0
 12 13  1  0  0  0  0
 14 15  1  0  0  0  0
 15 17  1  0  0  0  0
 15 16  1  0  0  0  0
 18 17  1  0  0  0  0
 19  3  1  0  0  0  0
 20 21  1  0  0  0  0
 20 19  1  0  0  0  0
 21 19  1  0  0  0  0
 21 26  1  0  0  0  0
 22 19  1  0  0  0  0
 23 20  1  0  0  0  0
 24 20  1  0  0  0  0
 25 21  1  0  0  0  0
M  END
>  <minimizedAffinity>
-4.01076651

$$$$

 OpenBabel03252509213D

 26 28  0  0  0  0  0  0  0  0999 V2000
   37.5680   27.9120   42.0570 C   0  0  0  0  0  0  0  0  0  0  0  0
   36.9140   27.4370   40.9090 C   0  0  0  0  0  0  0  0  0  0  0  0
   36.2310   28.3840   40.1650 C   0  0  0  0  0  0  0  0  0  0  0  0
   36.2370   29.7000   40.5850 N   0  0  0  0  0  0  0  0  0  0  0  0
   36.8740   30.1150   41.6850 C   0  0  0  0  0  0  0  0  0  0  0  0
   37.5350   29.1950   42.4070 N   0  0  0  0  0  0  0  0  0  0  0  0
   38.1320   27.3340   42.7390 H   0  0  0  0  0  0  0  0  0  0  0  0
   36.7820   31.1680   41.8730 H   0  0  0  0  0  0  0  0  0  0  0  0
   37.0140   25.9830   40.5840 C   0  0  0  0  0  3  0  0  0  0  0  0
   36.8700   25.1300   41.8000 C   0  0  0  0  0  3  0  0  0  0  0  0
   35.9020   24.5450   41.7560 H   0  0  0  0  0  0  0  0  0  0  0  0
   37.9640   24.1760   42.0930 C   0  0  0  0  0  3  0  0  0  0  0  0
   38.7250   24.5550   42.8060 H   0  0  0  0  0  0  0  0  0  0  0  0
   38.6900   23.7700   40.9750 O   0  0  0  0  0  0  0  0  0  0  0  0
   39.3080   24.9560   40.5210 C   0  0  0  0  0  3  0  0  0  0  0  0
   40.1360   24.7410   39.8460 H   0  0  0  0  0  0  0  0  0  0  0  0
   38.2570   25.6950   39.7640 C   0  0  0  0  0  3  0  0  0  0  0  0
   38.0040   25.0670   38.8790 H   0  0  0  0  0  0  0  0  0  0  0  0
   35.5680   27.9590   38.8770 C   0  0  0  0  0  0  0  0  0  0  0  0
   34.3260   28.8200   38.6010 C   0  0  0  0  0  0  0  0  0  0  0  0
   35.6380   28.8890   37.7640 C   0  0  0  0  0  0  0  0  0  0  0  0
   35.1830   26.9000   38.8340 H   0  0  0  0  0  0  0  0  0  0  0  0
   33.4900   28.4320   38.0200 H   0  0  0  0  0  0  0  0  0  0  0  0
   34.1480   29.7260   39.1760 H   0  0  0  0  0  0  0  0  0  0  0  0
   35.6060   28.4570   36.7410 H   0  0  0  0  0  0  0  0  0  0  0  0
   36.2530   29.7910   37.8560 H   0  0  0  0  0  0  0  0  0  0  0  0
  1  6  1  0  0  0  0
  1  7  1  0  0  0  0
  2  1  2  0  0  0  0
  3  4  2  0  0  0  0
  3  2  1  0  0  0  0
  4  5  1  0  0  0  0
  5  8  1  0  0  0  0
  5  6  2  0  0  0  0
  9  2  1  0  0  0  0
  9 10  1  0  0  0  0
 10 12  1  0  0  0  0
 11 10  1  0  0  0  0
 12 13  1  0  0  0  0
 14 12  1  0  0  0  0
 15 14  1  0  0  0  0
 16 15  1  0  0  0  0
 17 15  1  0  0  0  0
 17  9  1  0  0  0  0
 18 17  1  0  0  0  0
 19  3  1  0  0  0  0
 20 19  1  0  0  0  0
 20 24  1  0  0  0  0
 21 26  1  0  0  0  0
 21 20  1  0  0  0  0
 21 19  1  0  0  0  0
 22 19  1  0  0  0  0
 23 20  1  0  0  0  0
 25 21  1  0  0  0  0
M  END
>  <minimizedAffinity>
-3.98320198

$$$$
