
 OpenBabel03252501163D

 33 36  0  0  1  0  0  0  0  0999 V2000
   46.5640   32.2750   44.2200 C   0  0  1  0  0  0  0  0  0  0  0  0
   46.8100   33.7330   44.1730 C   0  0  0  0  0  0  0  0  0  0  0  0
   47.9300   32.6610   43.8760 C   0  0  2  0  0  0  0  0  0  0  0  0
   45.9250   31.8660   43.3810 H   0  0  0  0  0  0  0  0  0  0  0  0
   46.9840   34.3110   45.0950 H   0  0  0  0  0  0  0  0  0  0  0  0
   46.4830   34.3390   43.3210 H   0  0  0  0  0  0  0  0  0  0  0  0
   48.7100   32.6150   44.6350 H   0  0  0  0  0  0  0  0  0  0  0  0
   45.5080   31.9040   47.8070 C   0  0  0  0  0  0  0  0  0  0  0  0
   45.7310   32.5110   46.5830 C   0  0  0  0  0  0  0  0  0  0  0  0
   46.2740   31.7250   45.5810 C   0  0  0  0  0  0  0  0  0  0  0  0
   46.5610   30.4270   45.8270 N   0  0  0  0  0  0  0  0  0  0  0  0
   46.3270   29.8710   47.0450 C   0  0  0  0  0  0  0  0  0  0  0  0
   45.7970   30.6230   48.0350 N   0  0  0  0  0  0  0  0  0  0  0  0
   45.5010   33.5370   46.3990 H   0  0  0  0  0  0  0  0  0  0  0  0
   46.5600   28.8330   47.2320 H   0  0  0  0  0  0  0  0  0  0  0  0
   44.9090   32.7350   48.9010 C   0  0  0  0  0  0  0  0  0  0  0  0
   45.8760   32.9030   49.8660 F   0  0  0  0  0  0  0  0  0  0  0  0
   43.8800   32.0010   49.4530 F   0  0  0  0  0  0  0  0  0  0  0  0
   44.5000   33.9510   48.4360 F   0  0  0  0  0  0  0  0  0  0  0  0
   48.2920   32.6070   42.4360 C   0  0  0  0  0  0  0  0  0  0  0  0
   47.4210   32.5500   41.3530 C   0  0  0  0  0  0  0  0  0  0  0  0
   48.2600   32.5210   40.2670 C   0  0  0  0  0  0  0  0  0  0  0  0
   49.6010   32.5630   40.7060 C   0  0  0  0  0  0  0  0  0  0  0  0
   49.5140   32.6110   42.0070 O   0  0  0  0  0  0  0  0  0  0  0  0
   46.3430   32.5310   41.3630 H   0  0  0  0  0  0  0  0  0  0  0  0
   47.9600   32.4750   39.2290 H   0  0  0  0  0  0  0  0  0  0  0  0
   50.7590   32.5480   39.8190 C   0  0  0  0  0  0  0  0  0  0  0  0
   51.9170   33.0340   40.3450 N   0  0  0  0  0  0  0  0  0  0  0  0
   52.8750   32.9410   39.3800 C   0  0  0  0  0  0  0  0  0  0  0  0
   53.9220   33.2160   39.3920 H   0  0  0  0  0  0  0  0  0  0  0  0
   52.2820   32.4000   38.2910 N   0  0  0  0  0  0  0  0  0  0  0  0
   52.7290   32.1840   37.3530 H   0  0  0  0  0  0  0  0  0  0  0  0
   50.9860   32.1520   38.5350 N   0  0  0  0  0  0  0  0  0  0  0  0
  1  4  1  6  0  0  0
  1 10  1  0  0  0  0
  2  1  1  0  0  0  0
  2  5  1  0  0  0  0
  3  2  1  0  0  0  0
  3  1  1  0  0  0  0
  3  7  1  1  0  0  0
  6  2  1  0  0  0  0
  8 13  1  0  0  0  0
  8 16  1  0  0  0  0
  9  8  2  0  0  0  0
 10 11  2  0  0  0  0
 10  9  1  0  0  0  0
 11 12  1  0  0  0  0
 12 15  1  0  0  0  0
 12 13  2  0  0  0  0
 14  9  1  0  0  0  0
 16 18  1  0  0  0  0
 16 17  1  0  0  0  0
 19 16  1  0  0  0  0
 20  3  1  0  0  0  0
 21 25  1  0  0  0  0
 21 20  2  0  0  0  0
 22 23  2  0  0  0  0
 22 21  1  0  0  0  0
 23 24  1  0  0  0  0
 24 20  1  0  0  0  0
 26 22  1  0  0  0  0
 27 28  1  0  0  0  0
 27 23  1  0  0  0  0
 29 30  1  0  0  0  0
 29 28  2  0  0  0  0
 31 33  1  0  0  0  0
 31 29  1  0  0  0  0
 32 31  1  0  0  0  0
 33 27  2  0  0  0  0
M  END
>  <minimizedAffinity>
4.01244736

>  <minimizedRMSD>
2.89323854

$$$$
