
 OpenBabel03242516283D

 44 48  0  0  0  0  0  0  0  0999 V2000
   49.8000   30.2590   49.5920 C   0  0  0  0  0  0  0  0  0  0  0  0
   50.0150   31.5030   50.1150 N   0  0  0  0  0  0  0  0  0  0  0  0
   50.7360   31.7300   51.2080 C   0  0  0  0  0  0  0  0  0  0  0  0
   51.2750   30.6740   51.8210 N   0  0  0  0  0  0  0  0  0  0  0  0
   51.1160   29.4250   51.3780 C   0  0  0  0  0  0  0  0  0  0  0  0
   51.6830   28.3200   52.0000 C   0  0  0  0  0  0  0  0  0  0  0  0
   51.5150   27.0610   51.5260 C   0  0  0  0  0  0  0  0  0  0  0  0
   50.7720   26.8500   50.4090 C   0  0  0  0  0  0  0  0  0  0  0  0
   50.1750   27.9230   49.7390 C   0  0  0  0  0  0  0  0  0  0  0  0
   50.3550   29.1850   50.2260 C   0  0  0  0  0  0  0  0  0  0  0  0
   50.8590   32.7430   51.5600 H   0  0  0  0  0  0  0  0  0  0  0  0
   52.2590   28.5550   52.8810 H   0  0  0  0  0  0  0  0  0  0  0  0
   51.9860   26.2320   52.0570 H   0  0  0  0  0  0  0  0  0  0  0  0
   50.6730   25.8200   50.0770 H   0  0  0  0  0  0  0  0  0  0  0  0
   49.3570   27.5710   48.5560 C   0  0  0  0  0  0  0  0  0  0  0  0
   48.3170   27.9010   48.5860 H   0  0  0  0  0  0  0  0  0  0  0  0
   49.8920   27.6440   47.5890 H   0  0  0  0  0  0  0  0  0  0  0  0
   49.0940   26.0700   48.5440 C   0  0  0  0  0  0  0  0  0  0  0  0
   48.0690   25.3740   49.1220 N   0  0  0  0  0  0  0  0  0  0  0  0
   48.2000   24.0630   48.8850 C   0  0  0  0  0  0  0  0  0  0  0  0
   47.4930   23.3330   49.2540 H   0  0  0  0  0  0  0  0  0  0  0  0
   49.3130   23.9050   48.1530 N   0  0  0  0  0  0  0  0  0  0  0  0
   49.6920   22.9980   47.8050 H   0  0  0  0  0  0  0  0  0  0  0  0
   49.8310   25.0830   47.9580 N   0  0  0  0  0  0  0  0  0  0  0  0
   48.8970   30.0290   48.1430 S   0  0  0  0  0  0  0  0  0  0  0  0
   46.1150   32.6430   46.9460 C   0  0  0  0  0  0  0  0  0  0  0  0
   47.2460   31.8400   47.0180 C   0  0  0  0  0  0  0  0  0  0  0  0
   47.4420   31.0030   48.0860 C   0  0  0  0  0  0  0  0  0  0  0  0
   46.5190   30.9430   49.1030 C   0  0  0  0  0  0  0  0  0  0  0  0
   45.3940   31.7110   49.0760 C   0  0  0  0  0  0  0  0  0  0  0  0
   45.2160   32.5490   47.9920 C   0  0  0  0  0  0  0  0  0  0  0  0
   47.9440   31.9170   46.2000 H   0  0  0  0  0  0  0  0  0  0  0  0
   46.7080   30.2730   49.9220 H   0  0  0  0  0  0  0  0  0  0  0  0
   44.6730   31.6580   49.8810 H   0  0  0  0  0  0  0  0  0  0  0  0
   44.3340   33.1540   47.9660 H   0  0  0  0  0  0  0  0  0  0  0  0
   44.7270   35.3340   44.9020 C   0  0  0  0  0  0  0  0  0  0  0  0
   45.4760   35.2560   43.7020 C   0  0  0  0  0  0  0  0  0  0  0  0
   46.4590   34.2760   43.5980 C   0  0  0  0  0  0  0  0  0  0  0  0
   46.6800   33.4170   44.6430 N   0  0  0  0  0  0  0  0  0  0  0  0
   45.9200   33.5360   45.7940 C   0  0  0  0  0  0  0  0  0  0  0  0
   44.9550   34.4820   45.9220 N   0  0  0  0  0  0  0  0  0  0  0  0
   43.9510   36.0710   45.0450 H   0  0  0  0  0  0  0  0  0  0  0  0
   45.2680   35.9540   42.9020 H   0  0  0  0  0  0  0  0  0  0  0  0
   47.0520   34.1840   42.7000 H   0  0  0  0  0  0  0  0  0  0  0  0
  1  2  2  0  0  0  0
  1 10  1  0  0  0  0
  2  3  1  0  0  0  0
  3 11  1  0  0  0  0
  3  4  2  0  0  0  0
  5  4  1  0  0  0  0
  5  6  1  0  0  0  0
  6 12  1  0  0  0  0
  7  6  2  0  0  0  0
  7 13  1  0  0  0  0
  8  7  1  0  0  0  0
  9 10  1  0  0  0  0
  9  8  2  0  0  0  0
 10  5  2  0  0  0  0
 14  8  1  0  0  0  0
 15 16  1  0  0  0  0
 15  9  1  0  0  0  0
 17 15  1  0  0  0  0
 18 15  1  0  0  0  0
 18 19  1  0  0  0  0
 20 19  2  0  0  0  0
 20 21  1  0  0  0  0
 22 20  1  0  0  0  0
 23 22  1  0  0  0  0
 24 22  1  0  0  0  0
 24 18  2  0  0  0  0
 25  1  1  0  0  0  0
 26 27  2  0  0  0  0
 26 31  1  0  0  0  0
 27 28  1  0  0  0  0
 28 25  1  0  0  0  0
 28 29  2  0  0  0  0
 29 33  1  0  0  0  0
 30 29  1  0  0  0  0
 30 34  1  0  0  0  0
 31 30  2  0  0  0  0
 32 27  1  0  0  0  0
 35 31  1  0  0  0  0
 36 42  1  0  0  0  0
 36 41  1  0  0  0  0
 37 36  2  0  0  0  0
 38 37  1  0  0  0  0
 38 39  2  0  0  0  0
 39 40  1  0  0  0  0
 40 41  2  0  0  0  0
 40 26  1  0  0  0  0
 43 37  1  0  0  0  0
 44 38  1  0  0  0  0
M  END
>  <minimizedAffinity>
-6.58657169

>  <minimizedRMSD>
0.418554693

$$$$
