
 OpenBabel03252501323D

 22 23  0  0  0  0  0  0  0  0999 V2000
   45.8670   30.8390   42.3590 C   0  0  0  0  0  0  0  0  0  0  0  0
   45.3270   30.2950   43.5090 C   0  0  0  0  0  0  0  0  0  0  0  0
   44.8090   29.0100   43.3980 C   0  0  0  0  0  0  0  0  0  0  0  0
   44.8700   28.4020   42.2070 N   0  0  0  0  0  0  0  0  0  0  0  0
   45.4040   28.9610   41.1040 C   0  0  0  0  0  0  0  0  0  0  0  0
   45.9210   30.2130   41.1660 N   0  0  0  0  0  0  0  0  0  0  0  0
   44.3920   28.6000   44.2990 H   0  0  0  0  0  0  0  0  0  0  0  0
   45.3810   28.3470   40.2210 H   0  0  0  0  0  0  0  0  0  0  0  0
   47.8280   32.0850   42.6940 C   0  0  0  0  0  0  0  0  0  0  0  0
   48.1470   30.9150   43.0610 O   0  0  0  0  0  0  0  0  0  0  0  0
   46.4580   32.1640   42.2590 N   0  0  0  0  0  0  0  0  0  0  0  0
   46.0460   33.0460   41.9450 H   0  0  0  0  0  0  0  0  0  0  0  0
   48.6940   33.2600   42.6840 C   0  0  0  0  0  0  0  0  0  0  0  0
   48.4760   34.5730   42.8600 N   0  0  0  0  0  0  0  0  0  0  0  0
   49.6580   35.2450   42.7440 C   0  0  0  0  0  0  0  0  0  0  0  0
   49.5020   36.3110   42.8840 H   0  0  0  0  0  0  0  0  0  0  0  0
   50.6030   34.3110   42.4930 N   0  0  0  0  0  0  0  0  0  0  0  0
   51.5610   34.7120   42.3840 H   0  0  0  0  0  0  0  0  0  0  0  0
   50.0130   33.1190   42.4580 N   0  0  0  0  0  0  0  0  0  0  0  0
   45.3560   31.1020   44.6750 N   0  0  0  0  0  0  0  0  0  0  0  0
   45.2040   32.1300   44.5790 H   0  0  0  0  0  0  0  0  0  0  0  0
   45.5130   30.8180   45.6590 H   0  0  0  0  0  0  0  0  0  0  0  0
  1  2  1  0  0  0  0
  2 20  1  0  0  0  0
  3  2  2  0  0  0  0
  3  7  1  0  0  0  0
  4  3  1  0  0  0  0
  5  6  1  0  0  0  0
  5  4  2  0  0  0  0
  6  1  2  0  0  0  0
  8  5  1  0  0  0  0
  9 10  2  0  0  0  0
 11  1  1  0  0  0  0
 11  9  1  0  0  0  0
 12 11  1  0  0  0  0
 13  9  1  0  0  0  0
 13 14  1  0  0  0  0
 15 14  2  0  0  0  0
 15 16  1  0  0  0  0
 17 15  1  0  0  0  0
 18 17  1  0  0  0  0
 19 17  1  0  0  0  0
 19 13  2  0  0  0  0
 20 22  1  0  0  0  0
 21 20  1  0  0  0  0
M  END
>  <minimizedAffinity>
-2.60559678

>  <minimizedRMSD>
6.16047049

$$$$
