
 OpenBabel03252505573D

 34 36  0  0  0  0  0  0  0  0999 V2000
   45.0330   34.8820   44.8160 C   0  0  0  0  0  0  0  0  0  0  0  0
   45.9770   34.5700   43.8310 C   0  0  0  0  0  0  0  0  0  0  0  0
   46.9110   33.5860   44.1590 C   0  0  0  0  0  0  0  0  0  0  0  0
   46.8940   32.9860   45.3470 N   0  0  0  0  0  0  0  0  0  0  0  0
   45.9600   33.3200   46.2730 C   0  0  0  0  0  0  0  0  0  0  0  0
   45.0390   34.2610   46.0080 N   0  0  0  0  0  0  0  0  0  0  0  0
   44.2850   35.6380   44.6180 H   0  0  0  0  0  0  0  0  0  0  0  0
   47.9110   33.2310   43.1570 C   0  0  0  0  0  0  0  0  0  0  0  0
   49.1280   33.6450   42.7330 N   0  0  0  0  0  0  0  0  0  0  0  0
   49.4810   32.8120   41.7130 C   0  0  0  0  0  0  0  0  0  0  0  0
   50.4140   32.8810   41.1540 H   0  0  0  0  0  0  0  0  0  0  0  0
   48.5070   31.8990   41.5070 N   0  0  0  0  0  0  0  0  0  0  0  0
   48.5640   31.1560   40.7720 H   0  0  0  0  0  0  0  0  0  0  0  0
   47.5510   32.1650   42.3970 N   0  0  0  0  0  0  0  0  0  0  0  0
   45.9430   35.2790   42.5190 C   0  0  0  0  0  0  0  0  0  0  0  0
   44.9820   36.2580   42.6960 F   0  0  0  0  0  0  0  0  0  0  0  0
   45.4720   34.3500   41.5920 F   0  0  0  0  0  0  0  0  0  0  0  0
   47.1640   35.7740   42.2300 F   0  0  0  0  0  0  0  0  0  0  0  0
   45.8930   32.7290   47.5270 O   0  0  0  0  0  0  0  0  0  0  0  0
   45.4380   31.4020   47.6790 C   0  0  0  0  0  0  0  0  0  0  0  0
   44.9050   31.1150   46.7490 H   0  0  0  0  0  0  0  0  0  0  0  0
   44.7640   31.2900   48.5490 H   0  0  0  0  0  0  0  0  0  0  0  0
   46.6120   30.5400   47.8240 C   0  0  0  0  0  0  0  0  0  0  0  0
   46.8470   29.2550   47.3420 C   0  0  0  0  0  0  0  0  0  0  0  0
   48.0480   28.6770   47.6320 C   0  0  0  0  0  0  0  0  0  0  0  0
   48.9870   29.2910   48.3490 N   0  0  0  0  0  0  0  0  0  0  0  0
   48.7510   30.5300   48.8080 C   0  0  0  0  0  0  0  0  0  0  0  0
   47.5680   31.1720   48.5580 N   0  0  0  0  0  0  0  0  0  0  0  0
   45.9970   28.9030   46.7880 H   0  0  0  0  0  0  0  0  0  0  0  0
   48.1520   27.6730   47.2190 H   0  0  0  0  0  0  0  0  0  0  0  0
   49.8550   31.1300   49.5940 C   0  0  0  0  0  0  0  0  0  0  0  0
   49.8340   32.5030   49.5160 F   0  0  0  0  0  0  0  0  0  0  0  0
   51.0990   30.6810   49.1190 F   0  0  0  0  0  0  0  0  0  0  0  0
   49.7830   30.7850   50.9290 F   0  0  0  0  0  0  0  0  0  0  0  0
  1  6  1  0  0  0  0
  2  3  1  0  0  0  0
  2  1  2  0  0  0  0
  3  4  2  0  0  0  0
  4  5  1  0  0  0  0
  5 19  1  0  0  0  0
  6  5  2  0  0  0  0
  7  1  1  0  0  0  0
  8  3  1  0  0  0  0
  9  8  1  0  0  0  0
 10  9  2  0  0  0  0
 11 10  1  0  0  0  0
 12 10  1  0  0  0  0
 12 14  1  0  0  0  0
 13 12  1  0  0  0  0
 14  8  2  0  0  0  0
 15 16  1  0  0  0  0
 15  2  1  0  0  0  0
 17 15  1  0  0  0  0
 18 15  1  0  0  0  0
 19 20  1  0  0  0  0
 20 23  1  0  0  0  0
 20 22  1  0  0  0  0
 21 20  1  0  0  0  0
 23 28  1  0  0  0  0
 24 25  1  0  0  0  0
 24 23  2  0  0  0  0
 25 26  2  0  0  0  0
 26 27  1  0  0  0  0
 27 31  1  0  0  0  0
 28 27  2  0  0  0  0
 29 24  1  0  0  0  0
 30 25  1  0  0  0  0
 31 34  1  0  0  0  0
 32 31  1  0  0  0  0
 33 31  1  0  0  0  0
M  END
>  <minimizedAffinity>
-5.84445333

>  <minimizedRMSD>
0.364729166

$$$$
