
 OpenBabel03242519233D

 32 34  0  0  0  0  0  0  0  0999 V2000
   37.2740   27.3250   42.5740 C   0  0  0  0  0  0  0  0  0  0  0  0
   38.2150   27.5870   43.6800 C   0  0  0  0  0  0  0  0  0  0  0  0
   39.5610   26.9600   43.4820 C   0  0  0  0  0  0  0  0  0  0  0  0
   39.4930   25.4730   43.1940 C   0  0  0  0  0  0  0  0  0  0  0  0
   38.3240   25.0770   42.3280 C   0  0  0  0  0  0  0  0  0  0  0  0
   37.7710   26.2760   41.5860 C   0  0  0  0  0  0  0  0  0  0  0  0
   36.2890   26.9310   42.9650 H   0  0  0  0  0  0  0  0  0  0  0  0
   38.3630   28.6330   43.9520 H   0  0  0  0  0  0  0  0  0  0  0  0
   37.8080   27.1100   44.6210 H   0  0  0  0  0  0  0  0  0  0  0  0
   40.2240   27.4270   42.7670 H   0  0  0  0  0  0  0  0  0  0  0  0
   40.0860   27.0280   44.4810 H   0  0  0  0  0  0  0  0  0  0  0  0
   40.4200   25.1760   42.6290 H   0  0  0  0  0  0  0  0  0  0  0  0
   39.4970   24.8470   44.0980 H   0  0  0  0  0  0  0  0  0  0  0  0
   37.4940   24.6990   42.9690 H   0  0  0  0  0  0  0  0  0  0  0  0
   38.5350   24.2810   41.6040 H   0  0  0  0  0  0  0  0  0  0  0  0
   36.9390   25.9740   40.9530 H   0  0  0  0  0  0  0  0  0  0  0  0
   38.5490   26.7800   40.9780 H   0  0  0  0  0  0  0  0  0  0  0  0
   36.9670   28.5370   41.7820 C   0  0  0  0  0  0  0  0  0  0  0  0
   35.7690   28.5000   41.0440 C   0  0  0  0  0  0  0  0  0  0  0  0
   35.3950   29.6050   40.2670 C   0  0  0  0  0  0  0  0  0  0  0  0
   36.2490   30.6780   40.2820 N   0  0  0  0  0  0  0  0  0  0  0  0
   37.4000   30.6870   41.0060 C   0  0  0  0  0  0  0  0  0  0  0  0
   37.7460   29.6280   41.7410 N   0  0  0  0  0  0  0  0  0  0  0  0
   35.0630   27.7140   40.9830 H   0  0  0  0  0  0  0  0  0  0  0  0
   34.4890   29.6430   39.6770 H   0  0  0  0  0  0  0  0  0  0  0  0
   38.2080   31.8980   40.9240 C   0  0  0  0  0  0  0  0  0  0  0  0
   37.6630   32.9410   40.2370 N   0  0  0  0  0  0  0  0  0  0  0  0
   38.5230   33.9780   40.2510 C   0  0  0  0  0  0  0  0  0  0  0  0
   38.3570   34.9520   39.7790 H   0  0  0  0  0  0  0  0  0  0  0  0
   39.6140   33.5660   40.9590 N   0  0  0  0  0  0  0  0  0  0  0  0
   40.4500   34.1440   41.1450 H   0  0  0  0  0  0  0  0  0  0  0  0
   39.4100   32.3080   41.3600 N   0  0  0  0  0  0  0  0  0  0  0  0
  1  7  1  0  0  0  0
  1  2  1  0  0  0  0
  2  8  1  0  0  0  0
  2  9  1  0  0  0  0
  3  2  1  0  0  0  0
  3 11  1  0  0  0  0
  4  3  1  0  0  0  0
  4 13  1  0  0  0  0
  5 14  1  0  0  0  0
  5  4  1  0  0  0  0
  6  5  1  0  0  0  0
  6  1  1  0  0  0  0
 10  3  1  0  0  0  0
 12  4  1  0  0  0  0
 15  5  1  0  0  0  0
 16  6  1  0  0  0  0
 17  6  1  0  0  0  0
 18  1  1  0  0  0  0
 19 18  2  0  0  0  0
 20 21  2  0  0  0  0
 20 19  1  0  0  0  0
 21 22  1  0  0  0  0
 22 23  2  0  0  0  0
 23 18  1  0  0  0  0
 24 19  1  0  0  0  0
 25 20  1  0  0  0  0
 26 22  1  0  0  0  0
 26 32  2  0  0  0  0
 27 28  2  0  0  0  0
 27 26  1  0  0  0  0
 28 30  1  0  0  0  0
 29 28  1  0  0  0  0
 30 31  1  0  0  0  0
 30 32  1  0  0  0  0
M  END
>  <minimizedAffinity>
-5.41425896

$$$$

 OpenBabel03242519233D

 32 34  0  0  0  0  0  0  0  0999 V2000
   36.9950   25.3410   41.7460 C   0  0  0  0  0  0  0  0  0  0  0  0
   37.8410   24.1980   42.1390 C   0  0  0  0  0  0  0  0  0  0  0  0
   38.3920   23.4320   40.9750 C   0  0  0  0  0  0  0  0  0  0  0  0
   37.3260   22.9820   39.9950 C   0  0  0  0  0  0  0  0  0  0  0  0
   36.2180   23.9860   39.8020 C   0  0  0  0  0  0  0  0  0  0  0  0
   36.6510   25.3630   40.2610 C   0  0  0  0  0  0  0  0  0  0  0  0
   36.0020   25.3150   42.2870 H   0  0  0  0  0  0  0  0  0  0  0  0
   38.6620   24.4170   42.8220 H   0  0  0  0  0  0  0  0  0  0  0  0
   37.2030   23.4520   42.7010 H   0  0  0  0  0  0  0  0  0  0  0  0
   39.2060   23.8860   40.4260 H   0  0  0  0  0  0  0  0  0  0  0  0
   38.8040   22.4710   41.4020 H   0  0  0  0  0  0  0  0  0  0  0  0
   37.8050   22.8410   38.9870 H   0  0  0  0  0  0  0  0  0  0  0  0
   36.8840   22.0050   40.2410 H   0  0  0  0  0  0  0  0  0  0  0  0
   35.3450   23.7080   40.4370 H   0  0  0  0  0  0  0  0  0  0  0  0
   35.8360   24.0590   38.7770 H   0  0  0  0  0  0  0  0  0  0  0  0
   35.8480   26.0800   40.1010 H   0  0  0  0  0  0  0  0  0  0  0  0
   37.5720   25.7000   39.7440 H   0  0  0  0  0  0  0  0  0  0  0  0
   37.6150   26.6490   42.0530 C   0  0  0  0  0  0  0  0  0  0  0  0
   38.7110   26.6170   42.9340 C   0  0  0  0  0  0  0  0  0  0  0  0
   39.3640   27.8080   43.2800 C   0  0  0  0  0  0  0  0  0  0  0  0
   38.8730   28.9580   42.7150 N   0  0  0  0  0  0  0  0  0  0  0  0
   37.8120   28.9590   41.8650 C   0  0  0  0  0  0  0  0  0  0  0  0
   37.1980   27.8180   41.5440 N   0  0  0  0  0  0  0  0  0  0  0  0
   39.1460   25.7750   43.4070 H   0  0  0  0  0  0  0  0  0  0  0  0
   40.2120   27.8550   43.9500 H   0  0  0  0  0  0  0  0  0  0  0  0
   37.4020   30.2580   41.3420 C   0  0  0  0  0  0  0  0  0  0  0  0
   38.4050   31.1170   41.0070 N   0  0  0  0  0  0  0  0  0  0  0  0
   37.8700   32.2630   40.5440 C   0  0  0  0  0  0  0  0  0  0  0  0
   38.4320   33.1380   40.1990 H   0  0  0  0  0  0  0  0  0  0  0  0
   36.5160   32.1060   40.5960 N   0  0  0  0  0  0  0  0  0  0  0  0
   35.8280   32.8190   40.3050 H   0  0  0  0  0  0  0  0  0  0  0  0
   36.2470   30.8900   41.0800 N   0  0  0  0  0  0  0  0  0  0  0  0
  1 18  1  0  0  0  0
  1  2  1  0  0  0  0
  1  7  1  0  0  0  0
  2  9  1  0  0  0  0
  2  8  1  0  0  0  0
  3 11  1  0  0  0  0
  3  2  1  0  0  0  0
  4 13  1  0  0  0  0
  4  3  1  0  0  0  0
  5  4  1  0  0  0  0
  5  6  1  0  0  0  0
  5 14  1  0  0  0  0
  6  1  1  0  0  0  0
 10  3  1  0  0  0  0
 12  4  1  0  0  0  0
 15  5  1  0  0  0  0
 16  6  1  0  0  0  0
 17  6  1  0  0  0  0
 18 19  1  0  0  0  0
 19 20  2  0  0  0  0
 19 24  1  0  0  0  0
 20 25  1  0  0  0  0
 21 20  1  0  0  0  0
 22 21  2  0  0  0  0
 23 22  1  0  0  0  0
 23 18  2  0  0  0  0
 26 22  1  0  0  0  0
 27 26  1  0  0  0  0
 28 30  1  0  0  0  0
 28 27  2  0  0  0  0
 29 28  1  0  0  0  0
 30 32  1  0  0  0  0
 31 30  1  0  0  0  0
 32 26  2  0  0  0  0
M  END
>  <minimizedAffinity>
-5.38744211

$$$$

 OpenBabel03242519233D

 32 34  0  0  0  0  0  0  0  0999 V2000
   38.5430   27.2770   43.0810 C   0  0  0  0  0  0  0  0  0  0  0  0
   39.5490   26.3300   43.5970 C   0  0  0  0  0  0  0  0  0  0  0  0
   39.7430   25.1270   42.7240 C   0  0  0  0  0  0  0  0  0  0  0  0
   38.4520   24.3990   42.4100 C   0  0  0  0  0  0  0  0  0  0  0  0
   37.2740   25.3170   42.2060 C   0  0  0  0  0  0  0  0  0  0  0  0
   37.7350   26.7300   41.9100 C   0  0  0  0  0  0  0  0  0  0  0  0
   37.7850   27.5370   43.8780 H   0  0  0  0  0  0  0  0  0  0  0  0
   40.5300   26.7450   43.8290 H   0  0  0  0  0  0  0  0  0  0  0  0
   39.1830   25.9150   44.5840 H   0  0  0  0  0  0  0  0  0  0  0  0
   40.3010   25.2670   41.8080 H   0  0  0  0  0  0  0  0  0  0  0  0
   40.3390   24.3890   43.3390 H   0  0  0  0  0  0  0  0  0  0  0  0
   38.5850   23.8360   41.4450 H   0  0  0  0  0  0  0  0  0  0  0  0
   38.1840   23.6340   43.1540 H   0  0  0  0  0  0  0  0  0  0  0  0
   36.6760   25.3760   43.1450 H   0  0  0  0  0  0  0  0  0  0  0  0
   36.5740   25.0030   41.4220 H   0  0  0  0  0  0  0  0  0  0  0  0
   36.8750   27.3780   41.7490 H   0  0  0  0  0  0  0  0  0  0  0  0
   38.4110   26.7680   41.0330 H   0  0  0  0  0  0  0  0  0  0  0  0
   39.1360   28.5530   42.6220 C   0  0  0  0  0  0  0  0  0  0  0  0
   40.5200   28.6950   42.8280 C   0  0  0  0  0  0  0  0  0  0  0  0
   41.1690   29.8700   42.4210 C   0  0  0  0  0  0  0  0  0  0  0  0
   40.3830   30.8270   41.8320 N   0  0  0  0  0  0  0  0  0  0  0  0
   39.0460   30.6620   41.6440 C   0  0  0  0  0  0  0  0  0  0  0  0
   38.4400   29.5390   42.0360 N   0  0  0  0  0  0  0  0  0  0  0  0
   41.1900   28.0060   43.2720 H   0  0  0  0  0  0  0  0  0  0  0  0
   42.2290   30.0440   42.5490 H   0  0  0  0  0  0  0  0  0  0  0  0
   38.3400   31.7660   41.0030 C   0  0  0  0  0  0  0  0  0  0  0  0
   39.0610   32.9030   40.7970 N   0  0  0  0  0  0  0  0  0  0  0  0
   38.2770   33.8220   40.2020 C   0  0  0  0  0  0  0  0  0  0  0  0
   38.5830   34.8340   39.9140 H   0  0  0  0  0  0  0  0  0  0  0  0
   37.0540   33.2400   40.0390 N   0  0  0  0  0  0  0  0  0  0  0  0
   36.2340   33.6970   39.6080 H   0  0  0  0  0  0  0  0  0  0  0  0
   37.1070   31.9970   40.5280 N   0  0  0  0  0  0  0  0  0  0  0  0
  1  2  1  0  0  0  0
  1  7  1  0  0  0  0
  2  8  1  0  0  0  0
  2  9  1  0  0  0  0
  3 11  1  0  0  0  0
  3  2  1  0  0  0  0
  4  3  1  0  0  0  0
  4 13  1  0  0  0  0
  5  4  1  0  0  0  0
  5 14  1  0  0  0  0
  6  5  1  0  0  0  0
  6  1  1  0  0  0  0
 10  3  1  0  0  0  0
 12  4  1  0  0  0  0
 15  5  1  0  0  0  0
 16  6  1  0  0  0  0
 17  6  1  0  0  0  0
 18 19  1  0  0  0  0
 18  1  1  0  0  0  0
 19 24  1  0  0  0  0
 20 25  1  0  0  0  0
 20 19  2  0  0  0  0
 21 20  1  0  0  0  0
 22 21  2  0  0  0  0
 22 23  1  0  0  0  0
 23 18  2  0  0  0  0
 26 22  1  0  0  0  0
 27 26  1  0  0  0  0
 28 27  2  0  0  0  0
 29 28  1  0  0  0  0
 30 28  1  0  0  0  0
 30 32  1  0  0  0  0
 31 30  1  0  0  0  0
 32 26  2  0  0  0  0
M  END
>  <minimizedAffinity>
-5.29641581

$$$$

 OpenBabel03242519233D

 32 34  0  0  0  0  0  0  0  0999 V2000
   37.1220   29.4090   41.9170 C   0  0  0  0  0  0  0  0  0  0  0  0
   38.3270   29.6240   42.7390 C   0  0  0  0  0  0  0  0  0  0  0  0
   39.0700   28.3620   43.0560 C   0  0  0  0  0  0  0  0  0  0  0  0
   38.1950   27.2930   43.6800 C   0  0  0  0  0  0  0  0  0  0  0  0
   36.8000   27.2440   43.1110 C   0  0  0  0  0  0  0  0  0  0  0  0
   36.7400   27.9410   41.7670 C   0  0  0  0  0  0  0  0  0  0  0  0
   36.2210   29.9110   42.3800 H   0  0  0  0  0  0  0  0  0  0  0  0
   39.0440   30.3570   42.3650 H   0  0  0  0  0  0  0  0  0  0  0  0
   38.0110   30.0350   43.7450 H   0  0  0  0  0  0  0  0  0  0  0  0
   39.6540   27.9200   42.2610 H   0  0  0  0  0  0  0  0  0  0  0  0
   39.8080   28.6300   43.8690 H   0  0  0  0  0  0  0  0  0  0  0  0
   38.6570   26.2880   43.4720 H   0  0  0  0  0  0  0  0  0  0  0  0
   38.1320   27.3570   44.7760 H   0  0  0  0  0  0  0  0  0  0  0  0
   36.1020   27.7990   43.7800 H   0  0  0  0  0  0  0  0  0  0  0  0
   36.3800   26.2360   43.0050 H   0  0  0  0  0  0  0  0  0  0  0  0
   35.7320   27.8840   41.3610 H   0  0  0  0  0  0  0  0  0  0  0  0
   37.4660   27.5130   41.0470 H   0  0  0  0  0  0  0  0  0  0  0  0
   37.2560   29.9500   40.5460 C   0  0  0  0  0  0  0  0  0  0  0  0
   36.2040   29.6520   39.6620 C   0  0  0  0  0  0  0  0  0  0  0  0
   36.2440   30.1260   38.3430 C   0  0  0  0  0  0  0  0  0  0  0  0
   37.3420   30.8730   37.9980 N   0  0  0  0  0  0  0  0  0  0  0  0
   38.3450   31.1470   38.8740 C   0  0  0  0  0  0  0  0  0  0  0  0
   38.2950   30.6890   40.1270 N   0  0  0  0  0  0  0  0  0  0  0  0
   35.3290   29.0860   39.8540 H   0  0  0  0  0  0  0  0  0  0  0  0
   35.4690   29.9340   37.6140 H   0  0  0  0  0  0  0  0  0  0  0  0
   39.4480   31.9540   38.3640 C   0  0  0  0  0  0  0  0  0  0  0  0
   40.0360   32.8020   39.2540 N   0  0  0  0  0  0  0  0  0  0  0  0
   41.0290   33.4710   38.6370 C   0  0  0  0  0  0  0  0  0  0  0  0
   41.6780   34.2220   39.1010 H   0  0  0  0  0  0  0  0  0  0  0  0
   41.0520   33.0260   37.3480 N   0  0  0  0  0  0  0  0  0  0  0  0
   41.7100   33.3540   36.6220 H   0  0  0  0  0  0  0  0  0  0  0  0
   40.0920   32.1090   37.1970 N   0  0  0  0  0  0  0  0  0  0  0  0
  1  7  1  0  0  0  0
  1  2  1  0  0  0  0
  2  3  1  0  0  0  0
  2  9  1  0  0  0  0
  3  4  1  0  0  0  0
  3 11  1  0  0  0  0
  4 13  1  0  0  0  0
  5  4  1  0  0  0  0
  5 14  1  0  0  0  0
  6  1  1  0  0  0  0
  6  5  1  0  0  0  0
  8  2  1  0  0  0  0
 10  3  1  0  0  0  0
 12  4  1  0  0  0  0
 15  5  1  0  0  0  0
 16  6  1  0  0  0  0
 17  6  1  0  0  0  0
 18  1  1  0  0  0  0
 19 24  1  0  0  0  0
 19 18  2  0  0  0  0
 20 19  1  0  0  0  0
 21 20  2  0  0  0  0
 21 22  1  0  0  0  0
 22 23  2  0  0  0  0
 23 18  1  0  0  0  0
 25 20  1  0  0  0  0
 26 22  1  0  0  0  0
 26 27  1  0  0  0  0
 28 29  1  0  0  0  0
 28 27  2  0  0  0  0
 30 28  1  0  0  0  0
 31 30  1  0  0  0  0
 32 30  1  0  0  0  0
 32 26  2  0  0  0  0
M  END
>  <minimizedAffinity>
-5.23160744

$$$$

 OpenBabel03242519233D

 32 34  0  0  0  0  0  0  0  0999 V2000
   37.1250   29.6590   42.0640 C   0  0  0  0  0  0  0  0  0  0  0  0
   38.4370   29.6980   42.7380 C   0  0  0  0  0  0  0  0  0  0  0  0
   39.0570   28.3460   42.9190 C   0  0  0  0  0  0  0  0  0  0  0  0
   38.1430   27.3550   43.6100 C   0  0  0  0  0  0  0  0  0  0  0  0
   36.6950   27.4910   43.2170 C   0  0  0  0  0  0  0  0  0  0  0  0
   36.5580   28.2520   41.9140 C   0  0  0  0  0  0  0  0  0  0  0  0
   36.3510   30.2380   42.6510 H   0  0  0  0  0  0  0  0  0  0  0  0
   39.1850   30.3620   42.3020 H   0  0  0  0  0  0  0  0  0  0  0  0
   38.2930   30.0940   43.7880 H   0  0  0  0  0  0  0  0  0  0  0  0
   39.4870   27.8790   42.0430 H   0  0  0  0  0  0  0  0  0  0  0  0
   39.9130   28.4910   43.6430 H   0  0  0  0  0  0  0  0  0  0  0  0
   38.4560   26.3150   43.3140 H   0  0  0  0  0  0  0  0  0  0  0  0
   38.2190   27.3750   44.7080 H   0  0  0  0  0  0  0  0  0  0  0  0
   36.1510   28.0890   43.9850 H   0  0  0  0  0  0  0  0  0  0  0  0
   36.1490   26.5430   43.1300 H   0  0  0  0  0  0  0  0  0  0  0  0
   35.5090   28.3290   41.6340 H   0  0  0  0  0  0  0  0  0  0  0  0
   37.1370   27.7800   41.0970 H   0  0  0  0  0  0  0  0  0  0  0  0
   37.1580   30.2460   40.7060 C   0  0  0  0  0  0  0  0  0  0  0  0
   37.0570   31.6470   40.6390 C   0  0  0  0  0  0  0  0  0  0  0  0
   37.0830   32.2910   39.3940 C   0  0  0  0  0  0  0  0  0  0  0  0
   37.2110   31.4820   38.2930 N   0  0  0  0  0  0  0  0  0  0  0  0
   37.3080   30.1290   38.3870 C   0  0  0  0  0  0  0  0  0  0  0  0
   37.2810   29.5280   39.5790 N   0  0  0  0  0  0  0  0  0  0  0  0
   36.9580   32.3350   41.4390 H   0  0  0  0  0  0  0  0  0  0  0  0
   37.0100   33.3630   39.2720 H   0  0  0  0  0  0  0  0  0  0  0  0
   37.4400   29.4000   37.1310 C   0  0  0  0  0  0  0  0  0  0  0  0
   38.1840   28.2590   37.1700 N   0  0  0  0  0  0  0  0  0  0  0  0
   38.2100   27.7050   35.9430 C   0  0  0  0  0  0  0  0  0  0  0  0
   38.7310   26.7810   35.6700 H   0  0  0  0  0  0  0  0  0  0  0  0
   37.4700   28.5180   35.1360 N   0  0  0  0  0  0  0  0  0  0  0  0
   37.3030   28.3570   34.1290 H   0  0  0  0  0  0  0  0  0  0  0  0
   37.0100   29.5380   35.8670 N   0  0  0  0  0  0  0  0  0  0  0  0
  1  7  1  0  0  0  0
  1  2  1  0  0  0  0
  2  3  1  0  0  0  0
  2  9  1  0  0  0  0
  3  4  1  0  0  0  0
  3 11  1  0  0  0  0
  4 13  1  0  0  0  0
  5  4  1  0  0  0  0
  5 14  1  0  0  0  0
  6  1  1  0  0  0  0
  6  5  1  0  0  0  0
  8  2  1  0  0  0  0
 10  3  1  0  0  0  0
 12  4  1  0  0  0  0
 15  5  1  0  0  0  0
 16  6  1  0  0  0  0
 17  6  1  0  0  0  0
 18  1  1  0  0  0  0
 19 18  1  0  0  0  0
 19 24  1  0  0  0  0
 20 19  2  0  0  0  0
 21 22  2  0  0  0  0
 21 20  1  0  0  0  0
 22 23  1  0  0  0  0
 23 18  2  0  0  0  0
 25 20  1  0  0  0  0
 26 27  1  0  0  0  0
 26 22  1  0  0  0  0
 28 27  2  0  0  0  0
 29 28  1  0  0  0  0
 30 32  1  0  0  0  0
 30 28  1  0  0  0  0
 31 30  1  0  0  0  0
 32 26  2  0  0  0  0
M  END
>  <minimizedAffinity>
-5.19777346

$$$$

 OpenBabel03242519233D

 32 34  0  0  0  0  0  0  0  0999 V2000
   38.0930   25.7930   40.6780 C   0  0  0  0  0  0  0  0  0  0  0  0
   37.1110   25.5860   39.5970 C   0  0  0  0  0  0  0  0  0  0  0  0
   36.2060   24.4140   39.8260 C   0  0  0  0  0  0  0  0  0  0  0  0
   36.9530   23.1260   40.1070 C   0  0  0  0  0  0  0  0  0  0  0  0
   38.1940   23.3160   40.9420 C   0  0  0  0  0  0  0  0  0  0  0  0
   38.1550   24.6410   41.6740 C   0  0  0  0  0  0  0  0  0  0  0  0
   39.1400   25.8900   40.2600 H   0  0  0  0  0  0  0  0  0  0  0  0
   36.4940   26.4460   39.3320 H   0  0  0  0  0  0  0  0  0  0  0  0
   37.6670   25.3400   38.6440 H   0  0  0  0  0  0  0  0  0  0  0  0
   35.4200   24.5330   40.5600 H   0  0  0  0  0  0  0  0  0  0  0  0
   35.6840   24.2260   38.8420 H   0  0  0  0  0  0  0  0  0  0  0  0
   36.2790   22.4430   40.6940 H   0  0  0  0  0  0  0  0  0  0  0  0
   37.2150   22.5600   39.2010 H   0  0  0  0  0  0  0  0  0  0  0  0
   39.0900   23.3540   40.2790 H   0  0  0  0  0  0  0  0  0  0  0  0
   38.3890   22.5170   41.6680 H   0  0  0  0  0  0  0  0  0  0  0  0
   39.0480   24.7580   42.2850 H   0  0  0  0  0  0  0  0  0  0  0  0
   37.2480   24.7380   42.3030 H   0  0  0  0  0  0  0  0  0  0  0  0
   37.8310   27.0170   41.4670 C   0  0  0  0  0  0  0  0  0  0  0  0
   37.6750   26.8330   42.8520 C   0  0  0  0  0  0  0  0  0  0  0  0
   37.4280   27.9380   43.6800 C   0  0  0  0  0  0  0  0  0  0  0  0
   37.3550   29.1590   43.0590 N   0  0  0  0  0  0  0  0  0  0  0  0
   37.5110   29.3080   41.7160 C   0  0  0  0  0  0  0  0  0  0  0  0
   37.7450   28.2480   40.9400 N   0  0  0  0  0  0  0  0  0  0  0  0
   37.7190   25.9290   43.4010 H   0  0  0  0  0  0  0  0  0  0  0  0
   37.2990   27.8670   44.7510 H   0  0  0  0  0  0  0  0  0  0  0  0
   37.4070   30.6680   41.1990 C   0  0  0  0  0  0  0  0  0  0  0  0
   38.5670   31.3790   41.1360 N   0  0  0  0  0  0  0  0  0  0  0  0
   38.3080   32.6040   40.6410 C   0  0  0  0  0  0  0  0  0  0  0  0
   39.0470   33.3970   40.4770 H   0  0  0  0  0  0  0  0  0  0  0  0
   36.9670   32.6470   40.3950 N   0  0  0  0  0  0  0  0  0  0  0  0
   36.4630   33.4620   40.0090 H   0  0  0  0  0  0  0  0  0  0  0  0
   36.4350   31.4700   40.7360 N   0  0  0  0  0  0  0  0  0  0  0  0
  1 18  1  0  0  0  0
  1  6  1  0  0  0  0
  2  3  1  0  0  0  0
  2  1  1  0  0  0  0
  3  4  1  0  0  0  0
  3 10  1  0  0  0  0
  4 12  1  0  0  0  0
  4  5  1  0  0  0  0
  5 15  1  0  0  0  0
  5  6  1  0  0  0  0
  6 16  1  0  0  0  0
  6 17  1  0  0  0  0
  7  1  1  0  0  0  0
  8  2  1  0  0  0  0
  9  2  1  0  0  0  0
 11  3  1  0  0  0  0
 13  4  1  0  0  0  0
 14  5  1  0  0  0  0
 18 19  1  0  0  0  0
 19 24  1  0  0  0  0
 19 20  2  0  0  0  0
 20 25  1  0  0  0  0
 21 20  1  0  0  0  0
 22 21  2  0  0  0  0
 23 18  2  0  0  0  0
 23 22  1  0  0  0  0
 26 22  1  0  0  0  0
 27 26  1  0  0  0  0
 28 27  2  0  0  0  0
 29 28  1  0  0  0  0
 30 28  1  0  0  0  0
 30 32  1  0  0  0  0
 31 30  1  0  0  0  0
 32 26  2  0  0  0  0
M  END
>  <minimizedAffinity>
-5.10795641

$$$$

 OpenBabel03242519233D

 32 34  0  0  0  0  0  0  0  0999 V2000
   38.5890   29.0560   41.7850 C   0  0  0  0  0  0  0  0  0  0  0  0
   38.5510   27.7830   41.0410 C   0  0  0  0  0  0  0  0  0  0  0  0
   37.3330   26.9580   41.3270 C   0  0  0  0  0  0  0  0  0  0  0  0
   37.1140   26.7070   42.8060 C   0  0  0  0  0  0  0  0  0  0  0  0
   37.4710   27.8820   43.6790 C   0  0  0  0  0  0  0  0  0  0  0  0
   37.5220   29.1610   42.8690 C   0  0  0  0  0  0  0  0  0  0  0  0
   39.5780   29.1840   42.3180 H   0  0  0  0  0  0  0  0  0  0  0  0
   38.6690   27.8510   39.9590 H   0  0  0  0  0  0  0  0  0  0  0  0
   39.4210   27.1420   41.3750 H   0  0  0  0  0  0  0  0  0  0  0  0
   36.4020   27.2810   40.8830 H   0  0  0  0  0  0  0  0  0  0  0  0
   37.5430   25.9340   40.8970 H   0  0  0  0  0  0  0  0  0  0  0  0
   36.0200   26.5070   42.9760 H   0  0  0  0  0  0  0  0  0  0  0  0
   37.6300   25.8110   43.1830 H   0  0  0  0  0  0  0  0  0  0  0  0
   38.4930   27.7400   44.1010 H   0  0  0  0  0  0  0  0  0  0  0  0
   36.8080   28.0360   44.5400 H   0  0  0  0  0  0  0  0  0  0  0  0
   37.7650   30.0030   43.5140 H   0  0  0  0  0  0  0  0  0  0  0  0
   36.5690   29.3510   42.3360 H   0  0  0  0  0  0  0  0  0  0  0  0
   38.4180   30.2380   40.9110 C   0  0  0  0  0  0  0  0  0  0  0  0
   37.1360   30.8170   40.9050 C   0  0  0  0  0  0  0  0  0  0  0  0
   36.8820   31.9440   40.1100 C   0  0  0  0  0  0  0  0  0  0  0  0
   37.9360   32.4170   39.3710 N   0  0  0  0  0  0  0  0  0  0  0  0
   39.1660   31.8380   39.3970 C   0  0  0  0  0  0  0  0  0  0  0  0
   39.3950   30.7660   40.1580 N   0  0  0  0  0  0  0  0  0  0  0  0
   36.2770   30.5110   41.4450 H   0  0  0  0  0  0  0  0  0  0  0  0
   35.9210   32.4370   40.0590 H   0  0  0  0  0  0  0  0  0  0  0  0
   40.1900   32.4530   38.5590 C   0  0  0  0  0  0  0  0  0  0  0  0
   40.9060   33.4640   39.1260 N   0  0  0  0  0  0  0  0  0  0  0  0
   41.8040   33.9240   38.2350 C   0  0  0  0  0  0  0  0  0  0  0  0
   42.5190   34.7360   38.4070 H   0  0  0  0  0  0  0  0  0  0  0  0
   41.6370   33.1840   37.1010 N   0  0  0  0  0  0  0  0  0  0  0  0
   42.1850   33.3010   36.2330 H   0  0  0  0  0  0  0  0  0  0  0  0
   40.6590   32.2980   37.3110 N   0  0  0  0  0  0  0  0  0  0  0  0
  1  7  1  0  0  0  0
  1  6  1  0  0  0  0
  2  3  1  0  0  0  0
  2  9  1  0  0  0  0
  2  1  1  0  0  0  0
  3  4  1  0  0  0  0
  4 12  1  0  0  0  0
  4 13  1  0  0  0  0
  4  5  1  0  0  0  0
  5 14  1  0  0  0  0
  5 15  1  0  0  0  0
  6 16  1  0  0  0  0
  6  5  1  0  0  0  0
  8  2  1  0  0  0  0
 10  3  1  0  0  0  0
 11  3  1  0  0  0  0
 17  6  1  0  0  0  0
 18  1  1  0  0  0  0
 19 18  1  0  0  0  0
 19 24  1  0  0  0  0
 20 19  2  0  0  0  0
 21 22  2  0  0  0  0
 21 20  1  0  0  0  0
 22 23  1  0  0  0  0
 23 18  2  0  0  0  0
 25 20  1  0  0  0  0
 26 27  1  0  0  0  0
 26 22  1  0  0  0  0
 28 29  1  0  0  0  0
 28 27  2  0  0  0  0
 30 32  1  0  0  0  0
 30 28  1  0  0  0  0
 31 30  1  0  0  0  0
 32 26  2  0  0  0  0
M  END
>  <minimizedAffinity>
-5.00182915

$$$$

 OpenBabel03242519233D

 32 34  0  0  0  0  0  0  0  0999 V2000
   37.8000   26.7270   40.7540 C   0  0  0  0  0  0  0  0  0  0  0  0
   37.6450   25.8250   39.5980 C   0  0  0  0  0  0  0  0  0  0  0  0
   36.5150   24.8510   39.7440 C   0  0  0  0  0  0  0  0  0  0  0  0
   36.5790   24.0490   41.0290 C   0  0  0  0  0  0  0  0  0  0  0  0
   37.0720   24.8400   42.2130 C   0  0  0  0  0  0  0  0  0  0  0  0
   36.9510   26.3280   41.9570 C   0  0  0  0  0  0  0  0  0  0  0  0
   38.8680   26.7310   41.1250 H   0  0  0  0  0  0  0  0  0  0  0  0
   37.5590   26.3010   38.6200 H   0  0  0  0  0  0  0  0  0  0  0  0
   38.5720   25.1830   39.5130 H   0  0  0  0  0  0  0  0  0  0  0  0
   35.5120   25.2350   39.6180 H   0  0  0  0  0  0  0  0  0  0  0  0
   36.6580   24.0830   38.9270 H   0  0  0  0  0  0  0  0  0  0  0  0
   35.5390   23.7070   41.2880 H   0  0  0  0  0  0  0  0  0  0  0  0
   37.1710   23.1250   40.9440 H   0  0  0  0  0  0  0  0  0  0  0  0
   38.1580   24.6400   42.3730 H   0  0  0  0  0  0  0  0  0  0  0  0
   36.5790   24.6040   43.1640 H   0  0  0  0  0  0  0  0  0  0  0  0
   37.2960   26.8870   42.8250 H   0  0  0  0  0  0  0  0  0  0  0  0
   35.9130   26.6200   41.7020 H   0  0  0  0  0  0  0  0  0  0  0  0
   37.4500   28.1300   40.4400 C   0  0  0  0  0  0  0  0  0  0  0  0
   36.3930   28.6820   41.1870 C   0  0  0  0  0  0  0  0  0  0  0  0
   35.9950   30.0070   40.9600 C   0  0  0  0  0  0  0  0  0  0  0  0
   36.6880   30.6940   39.9960 N   0  0  0  0  0  0  0  0  0  0  0  0
   37.7070   30.1360   39.2890 C   0  0  0  0  0  0  0  0  0  0  0  0
   38.0760   28.8730   39.5140 N   0  0  0  0  0  0  0  0  0  0  0  0
   35.8150   28.2180   41.9430 H   0  0  0  0  0  0  0  0  0  0  0  0
   35.1920   30.4910   41.4980 H   0  0  0  0  0  0  0  0  0  0  0  0
   38.3500   30.9890   38.2970 C   0  0  0  0  0  0  0  0  0  0  0  0
   39.6600   31.2910   38.5200 N   0  0  0  0  0  0  0  0  0  0  0  0
   40.1080   32.0790   37.5240 C   0  0  0  0  0  0  0  0  0  0  0  0
   41.1230   32.4810   37.4340 H   0  0  0  0  0  0  0  0  0  0  0  0
   39.0570   32.2640   36.6750 N   0  0  0  0  0  0  0  0  0  0  0  0
   39.0890   32.8280   35.8090 H   0  0  0  0  0  0  0  0  0  0  0  0
   38.0010   31.5990   37.1540 N   0  0  0  0  0  0  0  0  0  0  0  0
  1  7  1  0  0  0  0
  1  6  1  0  0  0  0
  2  3  1  0  0  0  0
  2  1  1  0  0  0  0
  3  4  1  0  0  0  0
  4 12  1  0  0  0  0
  4  5  1  0  0  0  0
  5 14  1  0  0  0  0
  5 15  1  0  0  0  0
  6  5  1  0  0  0  0
  6 16  1  0  0  0  0
  8  2  1  0  0  0  0
  9  2  1  0  0  0  0
 10  3  1  0  0  0  0
 11  3  1  0  0  0  0
 13  4  1  0  0  0  0
 17  6  1  0  0  0  0
 18  1  1  0  0  0  0
 18 19  1  0  0  0  0
 19 24  1  0  0  0  0
 20 19  2  0  0  0  0
 20 25  1  0  0  0  0
 21 20  1  0  0  0  0
 22 23  1  0  0  0  0
 22 21  2  0  0  0  0
 23 18  2  0  0  0  0
 26 27  1  0  0  0  0
 26 22  1  0  0  0  0
 28 27  2  0  0  0  0
 29 28  1  0  0  0  0
 30 32  1  0  0  0  0
 30 28  1  0  0  0  0
 31 30  1  0  0  0  0
 32 26  2  0  0  0  0
M  END
>  <minimizedAffinity>
-4.99218178

$$$$

 OpenBabel03242519233D

 32 34  0  0  0  0  0  0  0  0999 V2000
   37.1240   28.2510   41.3230 C   0  0  0  0  0  0  0  0  0  0  0  0
   37.0060   27.7180   42.6940 C   0  0  0  0  0  0  0  0  0  0  0  0
   37.5740   26.3410   42.8520 C   0  0  0  0  0  0  0  0  0  0  0  0
   37.0170   25.3450   41.8540 C   0  0  0  0  0  0  0  0  0  0  0  0
   36.7820   25.9280   40.4840 C   0  0  0  0  0  0  0  0  0  0  0  0
   37.5670   27.2100   40.3010 C   0  0  0  0  0  0  0  0  0  0  0  0
   36.1290   28.6370   40.9520 H   0  0  0  0  0  0  0  0  0  0  0  0
   37.4040   28.3450   43.4920 H   0  0  0  0  0  0  0  0  0  0  0  0
   35.9090   27.6110   42.9470 H   0  0  0  0  0  0  0  0  0  0  0  0
   38.6510   26.2500   42.8770 H   0  0  0  0  0  0  0  0  0  0  0  0
   37.2090   25.9670   43.8550 H   0  0  0  0  0  0  0  0  0  0  0  0
   37.7670   24.5170   41.7210 H   0  0  0  0  0  0  0  0  0  0  0  0
   36.0970   24.8460   42.1940 H   0  0  0  0  0  0  0  0  0  0  0  0
   35.7070   26.2030   40.3730 H   0  0  0  0  0  0  0  0  0  0  0  0
   37.0080   25.2530   39.6500 H   0  0  0  0  0  0  0  0  0  0  0  0
   37.4000   27.6110   39.3030 H   0  0  0  0  0  0  0  0  0  0  0  0
   38.6510   27.0590   40.4750 H   0  0  0  0  0  0  0  0  0  0  0  0
   38.0840   29.3730   41.2230 C   0  0  0  0  0  0  0  0  0  0  0  0
   38.6210   29.8330   42.4390 C   0  0  0  0  0  0  0  0  0  0  0  0
   39.5410   30.8910   42.4400 C   0  0  0  0  0  0  0  0  0  0  0  0
   39.8630   31.4190   41.2150 N   0  0  0  0  0  0  0  0  0  0  0  0
   39.3290   30.9540   40.0550 C   0  0  0  0  0  0  0  0  0  0  0  0
   38.4530   29.9460   40.0670 N   0  0  0  0  0  0  0  0  0  0  0  0
   38.4230   29.4790   43.4170 H   0  0  0  0  0  0  0  0  0  0  0  0
   39.9910   31.2920   43.3370 H   0  0  0  0  0  0  0  0  0  0  0  0
   39.7660   31.6130   38.8300 C   0  0  0  0  0  0  0  0  0  0  0  0
   40.9260   32.3240   38.9090 N   0  0  0  0  0  0  0  0  0  0  0  0
   41.1940   32.8690   37.7070 C   0  0  0  0  0  0  0  0  0  0  0  0
   42.0610   33.4950   37.4670 H   0  0  0  0  0  0  0  0  0  0  0  0
   40.1830   32.4870   36.8750 N   0  0  0  0  0  0  0  0  0  0  0  0
   40.1070   32.7490   35.8790 H   0  0  0  0  0  0  0  0  0  0  0  0
   39.3280   31.7280   37.5660 N   0  0  0  0  0  0  0  0  0  0  0  0
  1  2  1  0  0  0  0
  2  3  1  0  0  0  0
  2  9  1  0  0  0  0
  2  8  1  0  0  0  0
  3 10  1  0  0  0  0
  3 11  1  0  0  0  0
  4 13  1  0  0  0  0
  4  3  1  0  0  0  0
  5  4  1  0  0  0  0
  6 17  1  0  0  0  0
  6  5  1  0  0  0  0
  6  1  1  0  0  0  0
  7  1  1  0  0  0  0
 12  4  1  0  0  0  0
 14  5  1  0  0  0  0
 15  5  1  0  0  0  0
 16  6  1  0  0  0  0
 18  1  1  0  0  0  0
 18 19  1  0  0  0  0
 19 20  2  0  0  0  0
 19 24  1  0  0  0  0
 20 25  1  0  0  0  0
 21 20  1  0  0  0  0
 22 23  1  0  0  0  0
 22 21  2  0  0  0  0
 23 18  2  0  0  0  0
 26 27  1  0  0  0  0
 26 22  1  0  0  0  0
 28 27  2  0  0  0  0
 29 28  1  0  0  0  0
 30 32  1  0  0  0  0
 30 28  1  0  0  0  0
 31 30  1  0  0  0  0
 32 26  2  0  0  0  0
M  END
>  <minimizedAffinity>
-4.96834469

$$$$
