
 OpenBabel03242512413D

 21 22  0  0  0  0  0  0  0  0999 V2000
   45.5430   33.9790   45.5200 C   0  0  0  0  0  0  0  0  0  0  0  0
   45.9060   33.6310   44.2090 C   0  0  0  0  0  0  0  0  0  0  0  0
   46.7780   32.5480   44.1010 C   0  0  0  0  0  0  0  0  0  0  0  0
   47.2160   31.9110   45.2140 N   0  0  0  0  0  0  0  0  0  0  0  0
   46.8250   32.2990   46.4490 C   0  0  0  0  0  0  0  0  0  0  0  0
   45.9850   33.3370   46.6130 N   0  0  0  0  0  0  0  0  0  0  0  0
   45.5180   34.1840   43.3690 H   0  0  0  0  0  0  0  0  0  0  0  0
   47.0790   32.2520   43.1220 H   0  0  0  0  0  0  0  0  0  0  0  0
   47.3950   31.4990   47.5260 C   0  0  0  0  0  0  0  0  0  0  0  0
   48.3030   30.5180   47.5050 N   0  0  0  0  0  0  0  0  0  0  0  0
   48.5020   30.0890   48.7700 C   0  0  0  0  0  0  0  0  0  0  0  0
   49.1550   29.3110   49.1800 H   0  0  0  0  0  0  0  0  0  0  0  0
   47.7120   30.8050   49.5950 N   0  0  0  0  0  0  0  0  0  0  0  0
   47.5590   30.7950   50.6340 H   0  0  0  0  0  0  0  0  0  0  0  0
   47.0580   31.6450   48.8260 N   0  0  0  0  0  0  0  0  0  0  0  0
   44.6860   35.0400   45.6650 O   0  0  0  0  0  0  0  0  0  0  0  0
   44.3790   35.9230   44.6250 C   0  0  0  0  0  0  0  0  0  0  0  0
   45.0230   36.9700   44.3060 O   0  0  0  0  0  0  0  0  0  0  0  0
   43.2690   35.7590   43.7600 N   0  0  0  0  0  0  0  0  0  0  0  0
   42.2540   35.8120   44.0110 H   0  0  0  0  0  0  0  0  0  0  0  0
   43.1290   35.5570   42.7250 H   0  0  0  0  0  0  0  0  0  0  0  0
  1 16  1  0  0  0  0
  1  6  1  0  0  0  0
  2  1  2  0  0  0  0
  3  2  1  0  0  0  0
  3  4  2  0  0  0  0
  4  5  1  0  0  0  0
  5  6  2  0  0  0  0
  5  9  1  0  0  0  0
  7  2  1  0  0  0  0
  8  3  1  0  0  0  0
  9 15  2  0  0  0  0
 10  9  1  0  0  0  0
 10 11  2  0  0  0  0
 11 12  1  0  0  0  0
 11 13  1  0  0  0  0
 13 14  1  0  0  0  0
 15 13  1  0  0  0  0
 17 16  1  0  0  0  0
 18 17  2  0  0  0  0
 19 20  1  0  0  0  0
 19 17  1  0  0  0  0
 21 19  1  0  0  0  0
M  END
>  <minimizedAffinity>
-4.9018054

>  <minimizedRMSD>
0.900649428

$$$$
