
 OpenBabel03242519213D

 32 34  0  0  0  0  0  0  0  0999 V2000
   46.4410   33.8510   43.2470 C   0  0  0  0  0  0  0  0  0  0  0  0
   45.7480   34.8630   42.4280 C   0  0  0  0  0  0  0  0  0  0  0  0
   45.3480   36.0850   43.1970 C   0  0  0  0  0  0  0  0  0  0  0  0
   44.5380   35.7730   44.4390 C   0  0  0  0  0  0  0  0  0  0  0  0
   44.9840   34.5240   45.1550 C   0  0  0  0  0  0  0  0  0  0  0  0
   46.3900   34.1380   44.7440 C   0  0  0  0  0  0  0  0  0  0  0  0
   45.9680   32.8320   43.1180 H   0  0  0  0  0  0  0  0  0  0  0  0
   46.2600   35.1840   41.5200 H   0  0  0  0  0  0  0  0  0  0  0  0
   44.7740   34.4230   42.0560 H   0  0  0  0  0  0  0  0  0  0  0  0
   46.1320   36.7850   43.4540 H   0  0  0  0  0  0  0  0  0  0  0  0
   44.6330   36.6520   42.5310 H   0  0  0  0  0  0  0  0  0  0  0  0
   44.6640   36.6190   45.1700 H   0  0  0  0  0  0  0  0  0  0  0  0
   43.4540   35.7130   44.2560 H   0  0  0  0  0  0  0  0  0  0  0  0
   44.3290   33.6700   44.8640 H   0  0  0  0  0  0  0  0  0  0  0  0
   44.9390   34.5790   46.2500 H   0  0  0  0  0  0  0  0  0  0  0  0
   46.7050   33.2450   45.2800 H   0  0  0  0  0  0  0  0  0  0  0  0
   47.1110   34.9610   44.9170 H   0  0  0  0  0  0  0  0  0  0  0  0
   47.8710   33.7070   42.8960 C   0  0  0  0  0  0  0  0  0  0  0  0
   48.5820   34.9070   42.7100 C   0  0  0  0  0  0  0  0  0  0  0  0
   49.9430   34.8670   42.3780 C   0  0  0  0  0  0  0  0  0  0  0  0
   50.5050   33.6220   42.2560 N   0  0  0  0  0  0  0  0  0  0  0  0
   49.7930   32.4780   42.4430 C   0  0  0  0  0  0  0  0  0  0  0  0
   48.4980   32.5280   42.7580 N   0  0  0  0  0  0  0  0  0  0  0  0
   48.2210   35.8990   42.7870 H   0  0  0  0  0  0  0  0  0  0  0  0
   50.5480   35.7500   42.2220 H   0  0  0  0  0  0  0  0  0  0  0  0
   50.5250   31.2260   42.2790 C   0  0  0  0  0  0  0  0  0  0  0  0
   51.5700   31.2480   41.4050 N   0  0  0  0  0  0  0  0  0  0  0  0
   52.1400   30.0290   41.3660 C   0  0  0  0  0  0  0  0  0  0  0  0
   53.0010   29.7450   40.7510 H   0  0  0  0  0  0  0  0  0  0  0  0
   51.4330   29.2440   42.2290 N   0  0  0  0  0  0  0  0  0  0  0  0
   51.6310   28.2480   42.4180 H   0  0  0  0  0  0  0  0  0  0  0  0
   50.4610   29.9800   42.7750 N   0  0  0  0  0  0  0  0  0  0  0  0
  1  6  1  0  0  0  0
  2  3  1  0  0  0  0
  2  1  1  0  0  0  0
  3 10  1  0  0  0  0
  3  4  1  0  0  0  0
  4  5  1  0  0  0  0
  4 12  1  0  0  0  0
  5 15  1  0  0  0  0
  6 17  1  0  0  0  0
  6  5  1  0  0  0  0
  6 16  1  0  0  0  0
  7  1  1  0  0  0  0
  8  2  1  0  0  0  0
  9  2  1  0  0  0  0
 11  3  1  0  0  0  0
 13  4  1  0  0  0  0
 14  5  1  0  0  0  0
 18  1  1  0  0  0  0
 19 24  1  0  0  0  0
 19 18  2  0  0  0  0
 20 19  1  0  0  0  0
 21 20  2  0  0  0  0
 21 22  1  0  0  0  0
 22 23  2  0  0  0  0
 23 18  1  0  0  0  0
 25 20  1  0  0  0  0
 26 22  1  0  0  0  0
 26 32  2  0  0  0  0
 27 26  1  0  0  0  0
 28 27  2  0  0  0  0
 28 30  1  0  0  0  0
 29 28  1  0  0  0  0
 30 31  1  0  0  0  0
 30 32  1  0  0  0  0
M  END
>  <minimizedAffinity>
-4.26146984

>  <minimizedRMSD>
2.35176182

$$$$
