
 OpenBabel03242519163D

 40 43  0  0  1  0  0  0  0  0999 V2000
   48.3320   34.2210   40.9180 C   0  0  0  0  0  0  0  0  0  0  0  0
   47.8860   34.3580   39.6230 C   0  0  0  0  0  0  0  0  0  0  0  0
   48.2600   33.4890   38.5870 C   0  0  0  0  0  0  0  0  0  0  0  0
   49.1080   32.4850   38.9500 N   0  0  0  0  0  0  0  0  0  0  0  0
   49.5370   32.3620   40.2140 C   0  0  0  0  0  0  0  0  0  0  0  0
   49.1570   33.2120   41.1740 N   0  0  0  0  0  0  0  0  0  0  0  0
   47.2130   35.1800   39.4170 H   0  0  0  0  0  0  0  0  0  0  0  0
   47.8890   33.6270   37.5840 H   0  0  0  0  0  0  0  0  0  0  0  0
   50.4480   31.2430   40.6230 C   0  0  2  0  0  0  0  0  0  0  0  0
   51.1870   31.3590   41.9190 C   0  0  0  0  0  0  0  0  0  0  0  0
   51.9090   31.5240   40.5690 C   0  0  1  0  0  0  0  0  0  0  0  0
   50.1270   30.2710   40.1960 H   0  0  0  0  0  0  0  0  0  0  0  0
   50.9940   32.2840   42.5090 H   0  0  0  0  0  0  0  0  0  0  0  0
   51.3280   30.4340   42.4910 H   0  0  0  0  0  0  0  0  0  0  0  0
   52.2780   32.5450   40.3840 H   0  0  0  0  0  0  0  0  0  0  0  0
   52.8690   30.4190   40.3040 C   0  0  0  0  0  0  0  0  0  0  0  0
   54.1120   30.2810   40.7650 N   0  0  0  0  0  0  0  0  0  0  0  0
   54.6790   29.1320   40.2990 C   0  0  0  0  0  0  0  0  0  0  0  0
   55.6920   28.9630   40.6390 H   0  0  0  0  0  0  0  0  0  0  0  0
   53.7290   28.5620   39.5260 N   0  0  0  0  0  0  0  0  0  0  0  0
   53.9930   27.6530   39.0770 H   0  0  0  0  0  0  0  0  0  0  0  0
   52.6500   29.3380   39.5350 N   0  0  0  0  0  0  0  0  0  0  0  0
   47.9230   35.1210   41.9650 C   0  0  0  0  0  0  0  0  0  0  0  0
   48.0500   36.1770   41.5830 H   0  0  0  0  0  0  0  0  0  0  0  0
   48.5720   35.0730   42.8620 H   0  0  0  0  0  0  0  0  0  0  0  0
   46.4960   34.9510   42.2940 C   0  0  0  0  0  0  0  0  0  0  0  0
   45.9960   34.2380   41.5800 H   0  0  0  0  0  0  0  0  0  0  0  0
   45.8780   35.8820   42.2110 H   0  0  0  0  0  0  0  0  0  0  0  0
   44.5750   36.4220   44.0260 Cl  0  0  0  0  0  0  0  0  0  0  0  0
   45.3950   34.9720   44.5440 C   0  0  0  0  0  0  0  0  0  0  0  0
   46.2580   34.3830   43.6580 C   0  0  0  0  0  0  0  0  0  0  0  0
   46.9070   33.2370   44.0640 C   0  0  0  0  0  0  0  0  0  0  0  0
   46.6960   32.7030   45.3190 C   0  0  0  0  0  0  0  0  0  0  0  0
   45.8100   33.3190   46.2090 C   0  0  0  0  0  0  0  0  0  0  0  0
   45.1620   34.4710   45.7900 C   0  0  0  0  0  0  0  0  0  0  0  0
   47.6030   32.7210   43.4150 H   0  0  0  0  0  0  0  0  0  0  0  0
   47.1590   31.8260   45.6980 H   0  0  0  0  0  0  0  0  0  0  0  0
   45.6280   32.9200   47.1960 H   0  0  0  0  0  0  0  0  0  0  0  0
   44.2580   35.1590   46.6100 O   0  0  0  0  0  0  0  0  0  0  0  0
   43.4560   34.6470   46.9640 H   0  0  0  0  0  0  0  0  0  0  0  0
  1  6  1  0  0  0  0
  1 23  1  0  0  0  0
  2  1  2  0  0  0  0
  3  4  2  0  0  0  0
  3  2  1  0  0  0  0
  4  5  1  0  0  0  0
  5  9  1  0  0  0  0
  5  6  2  0  0  0  0
  7  2  1  0  0  0  0
  8  3  1  0  0  0  0
  9 12  1  6  0  0  0
  9 10  1  0  0  0  0
 10 14  1  0  0  0  0
 10 13  1  0  0  0  0
 11 15  1  6  0  0  0
 11  9  1  0  0  0  0
 11 10  1  0  0  0  0
 16 11  1  0  0  0  0
 16 17  1  0  0  0  0
 18 19  1  0  0  0  0
 18 17  2  0  0  0  0
 20 22  1  0  0  0  0
 20 18  1  0  0  0  0
 21 20  1  0  0  0  0
 22 16  2  0  0  0  0
 23 26  1  0  0  0  0
 23 25  1  0  0  0  0
 24 23  1  0  0  0  0
 26 31  1  0  0  0  0
 27 26  1  0  0  0  0
 28 26  1  0  0  0  0
 29 30  1  0  0  0  0
 30 35  1  0  0  0  0
 31 32  1  0  0  0  0
 31 30  2  0  0  0  0
 32 33  2  0  0  0  0
 33 37  1  0  0  0  0
 33 34  1  0  0  0  0
 34 38  1  0  0  0  0
 35 34  2  0  0  0  0
 35 39  1  0  0  0  0
 36 32  1  0  0  0  0
 39 40  1  0  0  0  0
M  END
>  <minimizedAffinity>
-5.72571278

>  <minimizedRMSD>
0.215519384

$$$$
