
 OpenBabel03252508073D

 42 45  0  0  0  0  0  0  0  0999 V2000
   45.2590   35.9110   42.8760 C   0  0  0  0  0  0  0  0  0  0  0  0
   45.5080   34.5480   42.9010 C   0  0  0  0  0  0  0  0  0  0  0  0
   45.3000   33.8300   44.0530 C   0  0  0  0  0  0  0  0  0  0  0  0
   44.8370   34.5320   45.1490 N   0  0  0  0  0  0  0  0  0  0  0  0
   44.5990   35.8420   45.1200 C   0  0  0  0  0  0  0  0  0  0  0  0
   44.8150   36.5190   43.9730 N   0  0  0  0  0  0  0  0  0  0  0  0
   45.4120   36.5200   41.9830 H   0  0  0  0  0  0  0  0  0  0  0  0
   44.2410   36.3710   45.9790 H   0  0  0  0  0  0  0  0  0  0  0  0
   45.5050   32.4450   44.2420 C   0  0  0  0  0  0  0  0  0  0  0  0
   45.0460   31.4580   43.3640 C   0  0  0  0  0  0  0  0  0  0  0  0
   45.1880   30.1110   43.5760 C   0  0  0  0  0  0  0  0  0  0  0  0
   45.8190   29.6620   44.7170 C   0  0  0  0  0  0  0  0  0  0  0  0
   46.2960   30.6540   45.6250 C   0  0  0  0  0  0  0  0  0  0  0  0
   46.9210   30.2170   46.7610 C   0  0  0  0  0  0  0  0  0  0  0  0
   47.4090   31.1210   47.6820 C   0  0  0  0  0  0  0  0  0  0  0  0
   47.2580   32.4950   47.4420 C   0  0  0  0  0  0  0  0  0  0  0  0
   46.6080   32.8930   46.2600 C   0  0  0  0  0  0  0  0  0  0  0  0
   46.1310   31.9730   45.3670 C   0  0  0  0  0  0  0  0  0  0  0  0
   44.5480   31.7820   42.4600 H   0  0  0  0  0  0  0  0  0  0  0  0
   44.8200   29.3800   42.8720 H   0  0  0  0  0  0  0  0  0  0  0  0
   45.9590   28.6160   44.9410 H   0  0  0  0  0  0  0  0  0  0  0  0
   47.0430   29.1620   46.9550 H   0  0  0  0  0  0  0  0  0  0  0  0
   47.8950   30.7240   48.5660 H   0  0  0  0  0  0  0  0  0  0  0  0
   47.6690   33.1110   48.2120 H   0  0  0  0  0  0  0  0  0  0  0  0
   46.6120   33.9620   46.2500 H   0  0  0  0  0  0  0  0  0  0  0  0
   45.9590   33.9740   41.7440 O   0  0  0  0  0  0  0  0  0  0  0  0
   47.9620   32.3760   41.1990 O   0  0  0  0  0  0  0  0  0  0  0  0
   47.5900   33.8120   41.3230 P   0  0  1  0  0  0  0  0  0  0  0  0
   47.9020   34.5330   39.8220 O   0  0  0  0  0  0  0  0  0  0  0  0
   47.6770   33.7770   38.6780 C   0  0  0  0  0  0  0  0  0  0  0  0
   48.6500   33.4550   37.7880 N   0  0  0  0  0  0  0  0  0  0  0  0
   48.1250   32.7190   36.7890 C   0  0  0  0  0  0  0  0  0  0  0  0
   48.6370   32.3050   35.9240 H   0  0  0  0  0  0  0  0  0  0  0  0
   46.8130   32.5770   37.0520 N   0  0  0  0  0  0  0  0  0  0  0  0
   46.0870   32.0530   36.4760 H   0  0  0  0  0  0  0  0  0  0  0  0
   46.5640   33.2140   38.1820 N   0  0  0  0  0  0  0  0  0  0  0  0
   48.5160   34.5820   42.4930 O   0  0  0  0  0  0  0  0  0  0  0  0
   49.7170   35.2430   42.2960 C   0  0  0  0  0  0  0  0  0  0  0  0
   49.3970   36.3460   41.8150 O   0  0  0  0  0  0  0  0  0  0  0  0
   50.8300   34.4250   42.7130 N   0  0  0  0  0  0  0  0  0  0  0  0
   50.8980   34.1960   43.7410 H   0  0  0  0  0  0  0  0  0  0  0  0
   51.6000   34.0150   42.1380 H   0  0  0  0  0  0  0  0  0  0  0  0
  1  2  2  0  0  0  0
  1  6  1  0  0  0  0
  2  3  1  0  0  0  0
  3  9  1  0  0  0  0
  3  4  2  0  0  0  0
  5  4  1  0  0  0  0
  5  8  1  0  0  0  0
  6  5  2  0  0  0  0
  7  1  1  0  0  0  0
  9 18  1  0  0  0  0
 10 11  1  0  0  0  0
 10  9  2  0  0  0  0
 11 12  2  0  0  0  0
 12 21  1  0  0  0  0
 12 13  1  0  0  0  0
 13 14  1  0  0  0  0
 14 22  1  0  0  0  0
 14 15  2  0  0  0  0
 15 23  1  0  0  0  0
 16 15  1  0  0  0  0
 16 24  1  0  0  0  0
 17 16  2  0  0  0  0
 18 13  2  0  0  0  0
 18 17  1  0  0  0  0
 19 10  1  0  0  0  0
 20 11  1  0  0  0  0
 25 17  1  0  0  0  0
 26  2  1  0  0  0  0
 28 27  2  6  0  0  0
 28 26  1  0  0  0  0
 28 37  1  0  0  0  0
 29 28  1  0  0  0  0
 30 29  1  0  0  0  0
 31 30  1  0  0  0  0
 32 34  1  0  0  0  0
 32 31  2  0  0  0  0
 33 32  1  0  0  0  0
 34 36  1  0  0  0  0
 35 34  1  0  0  0  0
 36 30  2  0  0  0  0
 38 37  1  0  0  0  0
 38 40  1  0  0  0  0
 39 38  2  0  0  0  0
 40 41  1  0  0  0  0
 42 40  1  0  0  0  0
M  END
>  <minimizedAffinity>
-5.96853256

>  <minimizedRMSD>
0.799161911

$$$$
