
 OpenBabel03242519013D

 37 40  0  0  1  0  0  0  0  0999 V2000
   37.6950   27.9250   43.6800 C   0  0  1  0  0  0  0  0  0  0  0  0
   36.2350   27.7250   43.3860 C   0  0  0  0  0  0  0  0  0  0  0  0
   37.0780   26.6440   43.1720 C   0  0  1  0  0  0  0  0  0  0  0  0
   38.0750   27.9190   44.7350 H   0  0  0  0  0  0  0  0  0  0  0  0
   35.6030   27.7600   44.3250 H   0  0  0  0  0  0  0  0  0  0  0  0
   35.7890   28.4110   42.6320 H   0  0  0  0  0  0  0  0  0  0  0  0
   37.2700   25.8330   43.9110 H   0  0  0  0  0  0  0  0  0  0  0  0
   37.2900   26.1270   41.7940 C   0  0  0  0  0  0  0  0  0  0  0  0
   36.8620   26.7950   40.6720 C   0  0  0  0  0  0  0  0  0  0  0  0
   36.9950   26.3400   39.3890 C   0  0  0  0  0  0  0  0  0  0  0  0
   37.6030   25.1210   39.2080 C   0  0  0  0  0  0  0  0  0  0  0  0
   38.0510   24.4110   40.3170 C   0  0  0  0  0  0  0  0  0  0  0  0
   37.8840   24.9260   41.5720 C   0  0  0  0  0  0  0  0  0  0  0  0
   36.3760   27.7640   40.7920 H   0  0  0  0  0  0  0  0  0  0  0  0
   36.6280   26.9300   38.5570 H   0  0  0  0  0  0  0  0  0  0  0  0
   37.6870   24.7970   38.1560 H   0  0  0  0  0  0  0  0  0  0  0  0
   38.5020   23.4810   39.9910 H   0  0  0  0  0  0  0  0  0  0  0  0
   39.8220   24.1990   42.7850 C   0  0  0  0  0  0  0  0  0  0  0  0
   40.1670   25.2160   42.1810 O   0  0  0  0  0  0  0  0  0  0  0  0
   38.4300   23.9640   42.4940 N   0  0  0  0  0  0  0  0  0  0  0  0
   40.2720   23.4680   43.4470 H   0  0  0  0  0  0  0  0  0  0  0  0
   37.8030   23.2130   42.8570 H   0  0  0  0  0  0  0  0  0  0  0  0
   38.4830   28.8100   42.8250 C   0  0  0  0  0  0  0  0  0  0  0  0
   39.8410   28.4890   42.6750 C   0  0  0  0  0  0  0  0  0  0  0  0
   40.5980   29.3390   41.8490 C   0  0  0  0  0  0  0  0  0  0  0  0
   39.9550   30.4050   41.2640 N   0  0  0  0  0  0  0  0  0  0  0  0
   38.6250   30.6610   41.4570 C   0  0  0  0  0  0  0  0  0  0  0  0
   37.8670   29.8580   42.2470 N   0  0  0  0  0  0  0  0  0  0  0  0
   40.4020   27.7230   43.1040 H   0  0  0  0  0  0  0  0  0  0  0  0
   41.6430   29.1920   41.6590 H   0  0  0  0  0  0  0  0  0  0  0  0
   38.0390   31.8180   40.7920 C   0  0  0  0  0  0  0  0  0  0  0  0
   38.7920   32.9410   40.8050 N   0  0  0  0  0  0  0  0  0  0  0  0
   38.1670   33.9370   40.1720 C   0  0  0  0  0  0  0  0  0  0  0  0
   38.4170   34.9600   39.9660 H   0  0  0  0  0  0  0  0  0  0  0  0
   37.0120   33.4120   39.7680 N   0  0  0  0  0  0  0  0  0  0  0  0
   36.1680   33.7540   39.2380 H   0  0  0  0  0  0  0  0  0  0  0  0
   36.9020   32.1280   40.1280 N   0  0  0  0  0  0  0  0  0  0  0  0
  1  4  1  1  0  0  0
  2  1  1  0  0  0  0
  2  5  1  0  0  0  0
  3  2  1  0  0  0  0
  3  1  1  0  0  0  0
  3  7  1  1  0  0  0
  6  2  1  0  0  0  0
  8  3  1  0  0  0  0
  9 14  1  0  0  0  0
  9  8  2  0  0  0  0
 10  9  1  0  0  0  0
 11 10  2  0  0  0  0
 11 12  1  0  0  0  0
 12 13  2  0  0  0  0
 13  8  1  0  0  0  0
 13 20  1  0  0  0  0
 15 10  1  0  0  0  0
 16 11  1  0  0  0  0
 17 12  1  0  0  0  0
 18 21  1  0  0  0  0
 19 18  2  0  0  0  0
 20 18  1  0  0  0  0
 20 22  1  0  0  0  0
 23  1  1  0  0  0  0
 24 23  1  0  0  0  0
 24 29  1  0  0  0  0
 25 24  2  0  0  0  0
 26 27  2  0  0  0  0
 26 25  1  0  0  0  0
 27 28  1  0  0  0  0
 28 23  2  0  0  0  0
 30 25  1  0  0  0  0
 31 32  1  0  0  0  0
 31 27  1  0  0  0  0
 33 32  2  0  0  0  0
 34 33  1  0  0  0  0
 35 37  1  0  0  0  0
 35 33  1  0  0  0  0
 36 35  1  0  0  0  0
 37 31  2  0  0  0  0
M  END
>  <minimizedAffinity>
-6.22119665

$$$$

 OpenBabel03242519013D

 37 40  0  0  1  0  0  0  0  0999 V2000
   37.6340   28.8070   42.7850 C   0  0  1  0  0  0  0  0  0  0  0  0
   36.8470   27.8890   43.6770 C   0  0  0  0  0  0  0  0  0  0  0  0
   38.0390   27.4020   43.1600 C   0  0  1  0  0  0  0  0  0  0  0  0
   38.2470   29.6420   43.2170 H   0  0  0  0  0  0  0  0  0  0  0  0
   36.8140   28.2590   44.7460 H   0  0  0  0  0  0  0  0  0  0  0  0
   35.8090   27.6590   43.3490 H   0  0  0  0  0  0  0  0  0  0  0  0
   39.0200   27.4360   43.6860 H   0  0  0  0  0  0  0  0  0  0  0  0
   38.0250   26.2660   42.2000 C   0  0  0  0  0  0  0  0  0  0  0  0
   36.9900   25.3660   42.1250 C   0  0  0  0  0  0  0  0  0  0  0  0
   36.9510   24.2820   41.2900 C   0  0  0  0  0  0  0  0  0  0  0  0
   38.0300   24.0790   40.4640 C   0  0  0  0  0  0  0  0  0  0  0  0
   39.1000   24.9660   40.5090 C   0  0  0  0  0  0  0  0  0  0  0  0
   39.0720   26.0290   41.3690 C   0  0  0  0  0  0  0  0  0  0  0  0
   36.1230   25.5080   42.7710 H   0  0  0  0  0  0  0  0  0  0  0  0
   36.0950   23.6180   41.2930 H   0  0  0  0  0  0  0  0  0  0  0  0
   37.9530   23.1930   39.8110 H   0  0  0  0  0  0  0  0  0  0  0  0
   39.8560   24.6560   39.7960 H   0  0  0  0  0  0  0  0  0  0  0  0
   41.3550   26.2730   42.0680 C   0  0  0  0  0  0  0  0  0  0  0  0
   40.9030   25.3320   42.7230 O   0  0  0  0  0  0  0  0  0  0  0  0
   40.3110   26.7410   41.1910 N   0  0  0  0  0  0  0  0  0  0  0  0
   42.2890   26.8160   41.9830 H   0  0  0  0  0  0  0  0  0  0  0  0
   40.3480   27.5010   40.4760 H   0  0  0  0  0  0  0  0  0  0  0  0
   37.1090   29.1490   41.4650 C   0  0  0  0  0  0  0  0  0  0  0  0
   35.8160   28.6920   41.1680 C   0  0  0  0  0  0  0  0  0  0  0  0
   35.3100   29.0250   39.8990 C   0  0  0  0  0  0  0  0  0  0  0  0
   36.1150   29.7600   39.0600 N   0  0  0  0  0  0  0  0  0  0  0  0
   37.3710   30.1710   39.4150 C   0  0  0  0  0  0  0  0  0  0  0  0
   37.8860   29.8680   40.6320 N   0  0  0  0  0  0  0  0  0  0  0  0
   35.1620   28.1110   41.7340 H   0  0  0  0  0  0  0  0  0  0  0  0
   34.3350   28.7320   39.5630 H   0  0  0  0  0  0  0  0  0  0  0  0
   38.1430   30.9460   38.4520 C   0  0  0  0  0  0  0  0  0  0  0  0
   39.4400   31.1510   38.7760 N   0  0  0  0  0  0  0  0  0  0  0  0
   40.0560   31.8680   37.8320 C   0  0  0  0  0  0  0  0  0  0  0  0
   41.0570   32.2350   37.7110 H   0  0  0  0  0  0  0  0  0  0  0  0
   39.1170   32.1040   36.9170 N   0  0  0  0  0  0  0  0  0  0  0  0
   39.0690   32.6100   35.9940 H   0  0  0  0  0  0  0  0  0  0  0  0
   37.9450   31.5580   37.2620 N   0  0  0  0  0  0  0  0  0  0  0  0
  1  3  1  0  0  0  0
  1  4  1  1  0  0  0
  1  2  1  0  0  0  0
  2  5  1  0  0  0  0
  3  2  1  0  0  0  0
  3  7  1  1  0  0  0
  6  2  1  0  0  0  0
  8  3  1  0  0  0  0
  9  8  1  0  0  0  0
  9 14  1  0  0  0  0
 10 15  1  0  0  0  0
 10  9  2  0  0  0  0
 11 12  2  0  0  0  0
 11 10  1  0  0  0  0
 12 13  1  0  0  0  0
 13  8  2  0  0  0  0
 16 11  1  0  0  0  0
 17 12  1  0  0  0  0
 18 19  2  0  0  0  0
 20 13  1  0  0  0  0
 20 18  1  0  0  0  0
 21 18  1  0  0  0  0
 22 20  1  0  0  0  0
 23  1  1  0  0  0  0
 24 23  1  0  0  0  0
 24 29  1  0  0  0  0
 25 24  2  0  0  0  0
 26 27  2  0  0  0  0
 26 25  1  0  0  0  0
 27 28  1  0  0  0  0
 28 23  2  0  0  0  0
 30 25  1  0  0  0  0
 31 32  1  0  0  0  0
 31 27  1  0  0  0  0
 33 32  2  0  0  0  0
 34 33  1  0  0  0  0
 35 37  1  0  0  0  0
 35 33  1  0  0  0  0
 36 35  1  0  0  0  0
 37 31  2  0  0  0  0
M  END
>  <minimizedAffinity>
-5.86330509

$$$$

 OpenBabel03242519013D

 37 40  0  0  1  0  0  0  0  0999 V2000
   36.2020   29.5060   37.2560 C   0  0  1  0  0  0  0  0  0  0  0  0
   35.6080   28.1440   37.0270 C   0  0  0  0  0  0  0  0  0  0  0  0
   35.3810   28.7350   38.2610 C   0  0  1  0  0  0  0  0  0  0  0  0
   35.7280   30.4210   36.8130 H   0  0  0  0  0  0  0  0  0  0  0  0
   34.7920   28.1620   36.2420 H   0  0  0  0  0  0  0  0  0  0  0  0
   36.3270   27.3340   36.7730 H   0  0  0  0  0  0  0  0  0  0  0  0
   34.4770   29.3310   38.5230 H   0  0  0  0  0  0  0  0  0  0  0  0
   35.9560   28.1310   39.4930 C   0  0  0  0  0  0  0  0  0  0  0  0
   36.4830   26.8620   39.5250 C   0  0  0  0  0  0  0  0  0  0  0  0
   36.9830   26.2490   40.6410 C   0  0  0  0  0  0  0  0  0  0  0  0
   36.9560   26.9550   41.8200 C   0  0  0  0  0  0  0  0  0  0  0  0
   36.4290   28.2420   41.8310 C   0  0  0  0  0  0  0  0  0  0  0  0
   35.9460   28.7940   40.6770 C   0  0  0  0  0  0  0  0  0  0  0  0
   36.5150   26.2830   38.6020 H   0  0  0  0  0  0  0  0  0  0  0  0
   37.3810   25.2420   40.5820 H   0  0  0  0  0  0  0  0  0  0  0  0
   37.3690   26.4180   42.6910 H   0  0  0  0  0  0  0  0  0  0  0  0
   36.4880   28.6470   42.8350 H   0  0  0  0  0  0  0  0  0  0  0  0
   36.5230   31.0860   41.0910 C   0  0  0  0  0  0  0  0  0  0  0  0
   37.5780   30.5230   40.7970 O   0  0  0  0  0  0  0  0  0  0  0  0
   35.4650   30.1090   41.0140 N   0  0  0  0  0  0  0  0  0  0  0  0
   36.1960   32.0780   41.3790 H   0  0  0  0  0  0  0  0  0  0  0  0
   34.4410   30.2400   41.1660 H   0  0  0  0  0  0  0  0  0  0  0  0
   37.6520   29.6470   37.3680 C   0  0  0  0  0  0  0  0  0  0  0  0
   38.4150   28.5020   37.0920 C   0  0  0  0  0  0  0  0  0  0  0  0
   39.8110   28.6400   37.1960 C   0  0  0  0  0  0  0  0  0  0  0  0
   40.3090   29.8700   37.5570 N   0  0  0  0  0  0  0  0  0  0  0  0
   39.5040   30.9450   37.8140 C   0  0  0  0  0  0  0  0  0  0  0  0
   38.1540   30.8450   37.7210 N   0  0  0  0  0  0  0  0  0  0  0  0
   38.1130   27.5360   36.8440 H   0  0  0  0  0  0  0  0  0  0  0  0
   40.4940   27.8340   37.0080 H   0  0  0  0  0  0  0  0  0  0  0  0
   40.1320   32.2050   38.1910 C   0  0  0  0  0  0  0  0  0  0  0  0
   39.6630   32.7740   39.3250 N   0  0  0  0  0  0  0  0  0  0  0  0
   40.3030   33.9190   39.5790 C   0  0  0  0  0  0  0  0  0  0  0  0
   40.2320   34.6530   40.3590 H   0  0  0  0  0  0  0  0  0  0  0  0
   41.1750   34.0500   38.5820 N   0  0  0  0  0  0  0  0  0  0  0  0
   41.9070   34.7550   38.3040 H   0  0  0  0  0  0  0  0  0  0  0  0
   41.0980   33.0280   37.7220 N   0  0  0  0  0  0  0  0  0  0  0  0
  1  4  1  6  0  0  0
  1 23  1  0  0  0  0
  1  3  1  0  0  0  0
  2  1  1  0  0  0  0
  2  3  1  0  0  0  0
  3  7  1  1  0  0  0
  3  8  1  0  0  0  0
  5  2  1  0  0  0  0
  6  2  1  0  0  0  0
  8  9  2  0  0  0  0
  8 13  1  0  0  0  0
  9 10  1  0  0  0  0
 10 11  2  0  0  0  0
 11 12  1  0  0  0  0
 11 16  1  0  0  0  0
 12 17  1  0  0  0  0
 13 20  1  0  0  0  0
 13 12  2  0  0  0  0
 14  9  1  0  0  0  0
 15 10  1  0  0  0  0
 18 21  1  0  0  0  0
 19 18  2  0  0  0  0
 20 18  1  0  0  0  0
 20 22  1  0  0  0  0
 23 28  1  0  0  0  0
 24 25  1  0  0  0  0
 24 23  2  0  0  0  0
 25 26  2  0  0  0  0
 26 27  1  0  0  0  0
 27 31  1  0  0  0  0
 28 27  2  0  0  0  0
 29 24  1  0  0  0  0
 30 25  1  0  0  0  0
 31 32  1  0  0  0  0
 32 33  2  0  0  0  0
 33 34  1  0  0  0  0
 35 33  1  0  0  0  0
 36 35  1  0  0  0  0
 37 31  2  0  0  0  0
 37 35  1  0  0  0  0
M  END
>  <minimizedAffinity>
-5.64148569

$$$$

 OpenBabel03242519013D

 37 40  0  0  1  0  0  0  0  0999 V2000
   36.1530   27.8480   39.3180 C   0  0  1  0  0  0  0  0  0  0  0  0
   37.2010   26.8690   38.8700 C   0  0  0  0  0  0  0  0  0  0  0  0
   36.6270   26.6570   40.1140 C   0  0  1  0  0  0  0  0  0  0  0  0
   35.1090   27.7990   38.9090 H   0  0  0  0  0  0  0  0  0  0  0  0
   36.8560   26.2510   37.9850 H   0  0  0  0  0  0  0  0  0  0  0  0
   38.2010   27.2960   38.6350 H   0  0  0  0  0  0  0  0  0  0  0  0
   35.7610   25.9840   40.3080 H   0  0  0  0  0  0  0  0  0  0  0  0
   37.4540   26.7760   41.3450 C   0  0  0  0  0  0  0  0  0  0  0  0
   36.9570   27.2490   42.5350 C   0  0  0  0  0  0  0  0  0  0  0  0
   37.6870   27.4170   43.6790 C   0  0  0  0  0  0  0  0  0  0  0  0
   39.0200   27.0860   43.6360 C   0  0  0  0  0  0  0  0  0  0  0  0
   39.5640   26.6030   42.4500 C   0  0  0  0  0  0  0  0  0  0  0  0
   38.7750   26.4620   41.3430 C   0  0  0  0  0  0  0  0  0  0  0  0
   35.9010   27.5180   42.5930 H   0  0  0  0  0  0  0  0  0  0  0  0
   37.2170   27.7980   44.5790 H   0  0  0  0  0  0  0  0  0  0  0  0
   39.5660   27.2380   44.5830 H   0  0  0  0  0  0  0  0  0  0  0  0
   40.6180   26.3950   42.5970 H   0  0  0  0  0  0  0  0  0  0  0  0
   39.6620   24.5220   40.2450 C   0  0  0  0  0  0  0  0  0  0  0  0
   38.9060   24.0960   41.1180 O   0  0  0  0  0  0  0  0  0  0  0  0
   39.6210   25.9620   40.2900 N   0  0  0  0  0  0  0  0  0  0  0  0
   40.3200   24.1160   39.4850 H   0  0  0  0  0  0  0  0  0  0  0  0
   40.1090   26.6510   39.6760 H   0  0  0  0  0  0  0  0  0  0  0  0
   36.5430   29.2180   39.6430 C   0  0  0  0  0  0  0  0  0  0  0  0
   35.8240   29.8470   40.6710 C   0  0  0  0  0  0  0  0  0  0  0  0
   36.2030   31.1640   40.9860 C   0  0  0  0  0  0  0  0  0  0  0  0
   37.2360   31.7230   40.2690 N   0  0  0  0  0  0  0  0  0  0  0  0
   37.8940   31.0510   39.2760 C   0  0  0  0  0  0  0  0  0  0  0  0
   37.5520   29.7790   38.9490 N   0  0  0  0  0  0  0  0  0  0  0  0
   35.0180   29.5030   41.2340 H   0  0  0  0  0  0  0  0  0  0  0  0
   35.7260   31.7420   41.7530 H   0  0  0  0  0  0  0  0  0  0  0  0
   38.9740   31.7340   38.5760 C   0  0  0  0  0  0  0  0  0  0  0  0
   39.8410   32.4110   39.3630 N   0  0  0  0  0  0  0  0  0  0  0  0
   40.7880   32.9990   38.6250 C   0  0  0  0  0  0  0  0  0  0  0  0
   41.6390   33.6100   38.8580 H   0  0  0  0  0  0  0  0  0  0  0  0
   40.4910   32.6740   37.3690 N   0  0  0  0  0  0  0  0  0  0  0  0
   40.9020   32.8700   36.4190 H   0  0  0  0  0  0  0  0  0  0  0  0
   39.3960   31.9080   37.3030 N   0  0  0  0  0  0  0  0  0  0  0  0
  1  4  1  6  0  0  0
  1 23  1  0  0  0  0
  1  3  1  0  0  0  0
  2  1  1  0  0  0  0
  2  3  1  0  0  0  0
  3  7  1  1  0  0  0
  3  8  1  0  0  0  0
  5  2  1  0  0  0  0
  6  2  1  0  0  0  0
  8  9  1  0  0  0  0
  9 14  1  0  0  0  0
  9 10  2  0  0  0  0
 10 15  1  0  0  0  0
 11 10  1  0  0  0  0
 11 16  1  0  0  0  0
 12 17  1  0  0  0  0
 12 11  2  0  0  0  0
 13  8  2  0  0  0  0
 13 12  1  0  0  0  0
 18 20  1  0  0  0  0
 18 19  2  0  0  0  0
 20 13  1  0  0  0  0
 21 18  1  0  0  0  0
 22 20  1  0  0  0  0
 23 24  1  0  0  0  0
 24 25  2  0  0  0  0
 24 29  1  0  0  0  0
 25 30  1  0  0  0  0
 26 25  1  0  0  0  0
 27 26  2  0  0  0  0
 28 27  1  0  0  0  0
 28 23  2  0  0  0  0
 31 27  1  0  0  0  0
 31 32  1  0  0  0  0
 33 34  1  0  0  0  0
 33 32  2  0  0  0  0
 35 33  1  0  0  0  0
 36 35  1  0  0  0  0
 37 35  1  0  0  0  0
 37 31  2  0  0  0  0
M  END
>  <minimizedAffinity>
-5.61187315

$$$$

 OpenBabel03242519013D

 37 40  0  0  1  0  0  0  0  0999 V2000
   36.4150   27.9560   42.1320 C   0  0  1  0  0  0  0  0  0  0  0  0
   36.5020   27.3640   43.5100 C   0  0  0  0  0  0  0  0  0  0  0  0
   37.3500   28.4210   43.2210 C   0  0  1  0  0  0  0  0  0  0  0  0
   35.5770   28.6480   41.8550 H   0  0  0  0  0  0  0  0  0  0  0  0
   35.5620   27.5520   44.1140 H   0  0  0  0  0  0  0  0  0  0  0  0
   36.7450   26.2790   43.5630 H   0  0  0  0  0  0  0  0  0  0  0  0
   37.1350   29.4900   43.4500 H   0  0  0  0  0  0  0  0  0  0  0  0
   38.8220   28.2060   43.1810 C   0  0  0  0  0  0  0  0  0  0  0  0
   39.4190   27.0540   43.6320 C   0  0  0  0  0  0  0  0  0  0  0  0
   40.7680   26.8270   43.6550 C   0  0  0  0  0  0  0  0  0  0  0  0
   41.5880   27.8280   43.1920 C   0  0  0  0  0  0  0  0  0  0  0  0
   41.0240   29.0110   42.7270 C   0  0  0  0  0  0  0  0  0  0  0  0
   39.6660   29.1700   42.7330 C   0  0  0  0  0  0  0  0  0  0  0  0
   38.7880   26.2460   44.0040 H   0  0  0  0  0  0  0  0  0  0  0  0
   41.1600   25.8880   44.0290 H   0  0  0  0  0  0  0  0  0  0  0  0
   42.6670   27.5980   43.2310 H   0  0  0  0  0  0  0  0  0  0  0  0
   41.8110   29.6820   42.4020 H   0  0  0  0  0  0  0  0  0  0  0  0
   39.4100   30.5270   40.7710 C   0  0  0  0  0  0  0  0  0  0  0  0
   39.6080   29.3820   40.3630 O   0  0  0  0  0  0  0  0  0  0  0  0
   39.3990   30.4860   42.2120 N   0  0  0  0  0  0  0  0  0  0  0  0
   39.2480   31.5120   40.3500 H   0  0  0  0  0  0  0  0  0  0  0  0
   39.2270   31.2630   42.8880 H   0  0  0  0  0  0  0  0  0  0  0  0
   36.8720   27.1730   40.9850 C   0  0  0  0  0  0  0  0  0  0  0  0
   37.1540   25.8190   41.2240 C   0  0  0  0  0  0  0  0  0  0  0  0
   37.5890   25.0660   40.1190 C   0  0  0  0  0  0  0  0  0  0  0  0
   37.7040   25.7090   38.9090 N   0  0  0  0  0  0  0  0  0  0  0  0
   37.4130   27.0360   38.7480 C   0  0  0  0  0  0  0  0  0  0  0  0
   36.9890   27.7890   39.7940 N   0  0  0  0  0  0  0  0  0  0  0  0
   37.1200   25.2710   42.1100 H   0  0  0  0  0  0  0  0  0  0  0  0
   37.8320   24.0230   40.1820 H   0  0  0  0  0  0  0  0  0  0  0  0
   37.5680   27.6230   37.4230 C   0  0  0  0  0  0  0  0  0  0  0  0
   36.5180   28.3540   36.9830 N   0  0  0  0  0  0  0  0  0  0  0  0
   36.7620   28.8440   35.7650 C   0  0  0  0  0  0  0  0  0  0  0  0
   36.2020   29.4580   35.0850 H   0  0  0  0  0  0  0  0  0  0  0  0
   37.9800   28.4040   35.4570 N   0  0  0  0  0  0  0  0  0  0  0  0
   38.6340   28.4960   34.6370 H   0  0  0  0  0  0  0  0  0  0  0  0
   38.4970   27.6600   36.4420 N   0  0  0  0  0  0  0  0  0  0  0  0
  1  4  1  6  0  0  0
  1  3  1  0  0  0  0
  1  2  1  0  0  0  0
  2  6  1  0  0  0  0
  2  5  1  0  0  0  0
  3  7  1  1  0  0  0
  3  2  1  0  0  0  0
  8  3  1  0  0  0  0
  8  9  1  0  0  0  0
  9 10  2  0  0  0  0
  9 14  1  0  0  0  0
 10 15  1  0  0  0  0
 11 16  1  0  0  0  0
 11 10  1  0  0  0  0
 12 13  1  0  0  0  0
 12 11  2  0  0  0  0
 13  8  2  0  0  0  0
 17 12  1  0  0  0  0
 18 20  1  0  0  0  0
 19 18  2  0  0  0  0
 20 13  1  0  0  0  0
 20 22  1  0  0  0  0
 21 18  1  0  0  0  0
 23 24  1  0  0  0  0
 23  1  1  0  0  0  0
 24 29  1  0  0  0  0
 25 30  1  0  0  0  0
 25 24  2  0  0  0  0
 26 25  1  0  0  0  0
 27 26  2  0  0  0  0
 27 28  1  0  0  0  0
 28 23  2  0  0  0  0
 31 27  1  0  0  0  0
 32 31  1  0  0  0  0
 33 32  2  0  0  0  0
 34 33  1  0  0  0  0
 35 33  1  0  0  0  0
 35 37  1  0  0  0  0
 36 35  1  0  0  0  0
 37 31  2  0  0  0  0
M  END
>  <minimizedAffinity>
-5.55106211

$$$$

 OpenBabel03242519013D

 37 40  0  0  1  0  0  0  0  0999 V2000
   35.5600   30.1280   40.2750 C   0  0  1  0  0  0  0  0  0  0  0  0
   34.7290   29.0390   39.6570 C   0  0  0  0  0  0  0  0  0  0  0  0
   35.5010   28.7000   40.7590 C   0  0  1  0  0  0  0  0  0  0  0  0
   35.0910   30.9050   40.9350 H   0  0  0  0  0  0  0  0  0  0  0  0
   33.6200   29.2230   39.7900 H   0  0  0  0  0  0  0  0  0  0  0  0
   34.9270   28.8220   38.5840 H   0  0  0  0  0  0  0  0  0  0  0  0
   35.1350   28.6890   41.8110 H   0  0  0  0  0  0  0  0  0  0  0  0
   36.6280   27.7410   40.6110 C   0  0  0  0  0  0  0  0  0  0  0  0
   36.5910   26.6730   39.7480 C   0  0  0  0  0  0  0  0  0  0  0  0
   37.5830   25.7420   39.6080 C   0  0  0  0  0  0  0  0  0  0  0  0
   38.7030   25.8850   40.3920 C   0  0  0  0  0  0  0  0  0  0  0  0
   38.7810   26.9520   41.2800 C   0  0  0  0  0  0  0  0  0  0  0  0
   37.7500   27.8460   41.3680 C   0  0  0  0  0  0  0  0  0  0  0  0
   35.7120   26.5400   39.1160 H   0  0  0  0  0  0  0  0  0  0  0  0
   37.4740   24.9260   38.9020 H   0  0  0  0  0  0  0  0  0  0  0  0
   39.4740   25.1100   40.2430 H   0  0  0  0  0  0  0  0  0  0  0  0
   39.7250   26.9100   41.8110 H   0  0  0  0  0  0  0  0  0  0  0  0
   37.6000   28.4880   43.6750 C   0  0  0  0  0  0  0  0  0  0  0  0
   36.9970   27.4180   43.5860 O   0  0  0  0  0  0  0  0  0  0  0  0
   38.1210   28.8110   42.3710 N   0  0  0  0  0  0  0  0  0  0  0  0
   37.8320   29.2170   44.4440 H   0  0  0  0  0  0  0  0  0  0  0  0
   38.7080   29.6260   42.0830 H   0  0  0  0  0  0  0  0  0  0  0  0
   36.7040   30.6630   39.5390 C   0  0  0  0  0  0  0  0  0  0  0  0
   36.6880   30.4900   38.1470 C   0  0  0  0  0  0  0  0  0  0  0  0
   37.7880   31.0090   37.4390 C   0  0  0  0  0  0  0  0  0  0  0  0
   38.7790   31.6330   38.1610 N   0  0  0  0  0  0  0  0  0  0  0  0
   38.7300   31.7630   39.5220 C   0  0  0  0  0  0  0  0  0  0  0  0
   37.6820   31.2750   40.2330 N   0  0  0  0  0  0  0  0  0  0  0  0
   35.9960   30.0080   37.5370 H   0  0  0  0  0  0  0  0  0  0  0  0
   37.8840   30.9370   36.3740 H   0  0  0  0  0  0  0  0  0  0  0  0
   39.8330   32.4410   40.1920 C   0  0  0  0  0  0  0  0  0  0  0  0
   40.2060   33.6220   39.6490 N   0  0  0  0  0  0  0  0  0  0  0  0
   41.2200   34.1580   40.3360 C   0  0  0  0  0  0  0  0  0  0  0  0
   41.7890   35.0620   40.2360 H   0  0  0  0  0  0  0  0  0  0  0  0
   41.4680   33.2880   41.3120 N   0  0  0  0  0  0  0  0  0  0  0  0
   42.1470   33.2230   42.1140 H   0  0  0  0  0  0  0  0  0  0  0  0
   40.6450   32.2350   41.2530 N   0  0  0  0  0  0  0  0  0  0  0  0
  1  3  1  0  0  0  0
  1  4  1  1  0  0  0
  2  5  1  0  0  0  0
  2  1  1  0  0  0  0
  2  3  1  0  0  0  0
  3  7  1  1  0  0  0
  6  2  1  0  0  0  0
  8  3  1  0  0  0  0
  8 13  1  0  0  0  0
  9  8  2  0  0  0  0
 10  9  1  0  0  0  0
 10 11  2  0  0  0  0
 11 12  1  0  0  0  0
 12 13  2  0  0  0  0
 12 17  1  0  0  0  0
 13 20  1  0  0  0  0
 14  9  1  0  0  0  0
 15 10  1  0  0  0  0
 16 11  1  0  0  0  0
 18 21  1  0  0  0  0
 19 18  2  0  0  0  0
 20 18  1  0  0  0  0
 22 20  1  0  0  0  0
 23 28  1  0  0  0  0
 23  1  1  0  0  0  0
 24 23  2  0  0  0  0
 25 24  1  0  0  0  0
 25 26  2  0  0  0  0
 26 27  1  0  0  0  0
 27 31  1  0  0  0  0
 27 28  2  0  0  0  0
 29 24  1  0  0  0  0
 30 25  1  0  0  0  0
 31 37  2  0  0  0  0
 32 31  1  0  0  0  0
 32 33  2  0  0  0  0
 33 35  1  0  0  0  0
 34 33  1  0  0  0  0
 35 36  1  0  0  0  0
 37 35  1  0  0  0  0
M  END
>  <minimizedAffinity>
-5.52748585

$$$$

 OpenBabel03242519013D

 37 40  0  0  1  0  0  0  0  0999 V2000
   36.7180   30.5590   39.7250 C   0  0  1  0  0  0  0  0  0  0  0  0
   35.8140   29.7400   38.8480 C   0  0  0  0  0  0  0  0  0  0  0  0
   35.8170   29.4470   40.2030 C   0  0  1  0  0  0  0  0  0  0  0  0
   36.4360   31.6020   40.0260 H   0  0  0  0  0  0  0  0  0  0  0  0
   34.9690   30.3570   38.4130 H   0  0  0  0  0  0  0  0  0  0  0  0
   36.3080   29.1830   38.0210 H   0  0  0  0  0  0  0  0  0  0  0  0
   35.0940   29.8590   40.9440 H   0  0  0  0  0  0  0  0  0  0  0  0
   36.3260   28.1320   40.6790 C   0  0  0  0  0  0  0  0  0  0  0  0
   36.4220   27.0300   39.8640 C   0  0  0  0  0  0  0  0  0  0  0  0
   36.8420   25.7920   40.2650 C   0  0  0  0  0  0  0  0  0  0  0  0
   37.1950   25.6380   41.5840 C   0  0  0  0  0  0  0  0  0  0  0  0
   37.1110   26.7280   42.4440 C   0  0  0  0  0  0  0  0  0  0  0  0
   36.6810   27.9380   41.9740 C   0  0  0  0  0  0  0  0  0  0  0  0
   36.1480   27.1290   38.8120 H   0  0  0  0  0  0  0  0  0  0  0  0
   36.8890   24.9730   39.5560 H   0  0  0  0  0  0  0  0  0  0  0  0
   37.5260   24.6220   41.8590 H   0  0  0  0  0  0  0  0  0  0  0  0
   37.4250   26.4280   43.4370 H   0  0  0  0  0  0  0  0  0  0  0  0
   38.0240   29.2090   43.5030 C   0  0  0  0  0  0  0  0  0  0  0  0
   38.8180   28.6610   42.7360 O   0  0  0  0  0  0  0  0  0  0  0  0
   36.6910   28.8460   43.0930 N   0  0  0  0  0  0  0  0  0  0  0  0
   38.0650   29.8630   44.3670 H   0  0  0  0  0  0  0  0  0  0  0  0
   35.7770   29.1510   43.4930 H   0  0  0  0  0  0  0  0  0  0  0  0
   38.1660   30.4020   39.6080 C   0  0  0  0  0  0  0  0  0  0  0  0
   38.6270   29.6380   38.5250 C   0  0  0  0  0  0  0  0  0  0  0  0
   40.0210   29.4910   38.4110 C   0  0  0  0  0  0  0  0  0  0  0  0
   40.8110   30.1000   39.3580 N   0  0  0  0  0  0  0  0  0  0  0  0
   40.2920   30.8320   40.3910 C   0  0  0  0  0  0  0  0  0  0  0  0
   38.9510   30.9930   40.5280 N   0  0  0  0  0  0  0  0  0  0  0  0
   38.0960   29.1250   37.7900 H   0  0  0  0  0  0  0  0  0  0  0  0
   40.4880   28.9300   37.6240 H   0  0  0  0  0  0  0  0  0  0  0  0
   41.2150   31.4360   41.3430 C   0  0  0  0  0  0  0  0  0  0  0  0
   41.4970   30.6890   42.4350 N   0  0  0  0  0  0  0  0  0  0  0  0
   42.3480   31.3320   43.2400 C   0  0  0  0  0  0  0  0  0  0  0  0
   42.8090   31.0910   44.1790 H   0  0  0  0  0  0  0  0  0  0  0  0
   42.5880   32.4900   42.6280 N   0  0  0  0  0  0  0  0  0  0  0  0
   43.1710   33.3440   42.8250 H   0  0  0  0  0  0  0  0  0  0  0  0
   41.9150   32.5850   41.4750 N   0  0  0  0  0  0  0  0  0  0  0  0
  1  4  1  1  0  0  0
  1  3  1  0  0  0  0
  2  1  1  0  0  0  0
  2  3  1  0  0  0  0
  3  8  1  0  0  0  0
  3  7  1  1  0  0  0
  5  2  1  0  0  0  0
  6  2  1  0  0  0  0
  8 13  1  0  0  0  0
  9 10  1  0  0  0  0
  9  8  2  0  0  0  0
 10 11  2  0  0  0  0
 11 16  1  0  0  0  0
 11 12  1  0  0  0  0
 12 17  1  0  0  0  0
 13 12  2  0  0  0  0
 13 20  1  0  0  0  0
 14  9  1  0  0  0  0
 15 10  1  0  0  0  0
 18 21  1  0  0  0  0
 19 18  2  0  0  0  0
 20 22  1  0  0  0  0
 20 18  1  0  0  0  0
 23  1  1  0  0  0  0
 23 28  1  0  0  0  0
 24 23  2  0  0  0  0
 25 24  1  0  0  0  0
 25 26  2  0  0  0  0
 26 27  1  0  0  0  0
 27 28  2  0  0  0  0
 27 31  1  0  0  0  0
 29 24  1  0  0  0  0
 30 25  1  0  0  0  0
 31 37  2  0  0  0  0
 31 32  1  0  0  0  0
 32 33  2  0  0  0  0
 33 34  1  0  0  0  0
 35 36  1  0  0  0  0
 35 33  1  0  0  0  0
 37 35  1  0  0  0  0
M  END
>  <minimizedAffinity>
-5.50512743

$$$$

 OpenBabel03242519013D

 37 40  0  0  1  0  0  0  0  0999 V2000
   36.7610   27.8230   41.7260 C   0  0  1  0  0  0  0  0  0  0  0  0
   36.6100   26.3330   41.5980 C   0  0  0  0  0  0  0  0  0  0  0  0
   37.1990   26.8130   42.7580 C   0  0  1  0  0  0  0  0  0  0  0  0
   35.8840   28.4690   41.9910 H   0  0  0  0  0  0  0  0  0  0  0  0
   35.5240   26.0130   41.6160 H   0  0  0  0  0  0  0  0  0  0  0  0
   37.1030   25.8650   40.7170 H   0  0  0  0  0  0  0  0  0  0  0  0
   36.6560   27.0110   43.7110 H   0  0  0  0  0  0  0  0  0  0  0  0
   38.6250   26.5090   43.0490 C   0  0  0  0  0  0  0  0  0  0  0  0
   39.5270   27.4680   43.4430 C   0  0  0  0  0  0  0  0  0  0  0  0
   40.8560   27.2460   43.6800 C   0  0  0  0  0  0  0  0  0  0  0  0
   41.3250   25.9650   43.5120 C   0  0  0  0  0  0  0  0  0  0  0  0
   40.4460   24.9640   43.1140 C   0  0  0  0  0  0  0  0  0  0  0  0
   39.1290   25.2580   42.8930 C   0  0  0  0  0  0  0  0  0  0  0  0
   39.1770   28.4920   43.5820 H   0  0  0  0  0  0  0  0  0  0  0  0
   41.5020   28.0600   43.9870 H   0  0  0  0  0  0  0  0  0  0  0  0
   42.4020   25.8360   43.7150 H   0  0  0  0  0  0  0  0  0  0  0  0
   40.9820   24.0250   43.0330 H   0  0  0  0  0  0  0  0  0  0  0  0
   38.7460   23.7040   41.1050 C   0  0  0  0  0  0  0  0  0  0  0  0
   39.4980   24.5640   40.6460 O   0  0  0  0  0  0  0  0  0  0  0  0
   38.4910   24.0320   42.4860 N   0  0  0  0  0  0  0  0  0  0  0  0
   38.2480   22.8060   40.7590 H   0  0  0  0  0  0  0  0  0  0  0  0
   37.9250   23.5090   43.1900 H   0  0  0  0  0  0  0  0  0  0  0  0
   37.7090   28.5240   40.8610 C   0  0  0  0  0  0  0  0  0  0  0  0
   38.2190   27.7990   39.7740 C   0  0  0  0  0  0  0  0  0  0  0  0
   39.1270   28.4760   38.9400 C   0  0  0  0  0  0  0  0  0  0  0  0
   39.4390   29.7780   39.2560 N   0  0  0  0  0  0  0  0  0  0  0  0
   38.9040   30.4240   40.3360 C   0  0  0  0  0  0  0  0  0  0  0  0
   38.0240   29.7990   41.1580 N   0  0  0  0  0  0  0  0  0  0  0  0
   38.0550   26.8110   39.4880 H   0  0  0  0  0  0  0  0  0  0  0  0
   39.5800   28.0240   38.0800 H   0  0  0  0  0  0  0  0  0  0  0  0
   39.3020   31.8050   40.5840 C   0  0  0  0  0  0  0  0  0  0  0  0
   40.5920   32.0990   40.3020 N   0  0  0  0  0  0  0  0  0  0  0  0
   40.8510   33.3830   40.5630 C   0  0  0  0  0  0  0  0  0  0  0  0
   41.7280   33.9960   40.4780 H   0  0  0  0  0  0  0  0  0  0  0  0
   39.7000   33.8790   41.0120 N   0  0  0  0  0  0  0  0  0  0  0  0
   39.3600   34.8170   41.3500 H   0  0  0  0  0  0  0  0  0  0  0  0
   38.7400   32.9480   41.0370 N   0  0  0  0  0  0  0  0  0  0  0  0
  1  4  1  1  0  0  0
  1  3  1  0  0  0  0
  2  5  1  0  0  0  0
  2  1  1  0  0  0  0
  2  3  1  0  0  0  0
  3  8  1  0  0  0  0
  3  7  1  1  0  0  0
  6  2  1  0  0  0  0
  8  9  1  0  0  0  0
  9 14  1  0  0  0  0
  9 10  2  0  0  0  0
 10 15  1  0  0  0  0
 11 10  1  0  0  0  0
 11 16  1  0  0  0  0
 12 11  2  0  0  0  0
 13  8  2  0  0  0  0
 13 12  1  0  0  0  0
 17 12  1  0  0  0  0
 18 20  1  0  0  0  0
 19 18  2  0  0  0  0
 20 13  1  0  0  0  0
 20 22  1  0  0  0  0
 21 18  1  0  0  0  0
 23 28  1  0  0  0  0
 23  1  1  0  0  0  0
 24 23  2  0  0  0  0
 25 26  2  0  0  0  0
 25 24  1  0  0  0  0
 26 27  1  0  0  0  0
 27 31  1  0  0  0  0
 27 28  2  0  0  0  0
 29 24  1  0  0  0  0
 30 25  1  0  0  0  0
 31 37  2  0  0  0  0
 32 33  2  0  0  0  0
 32 31  1  0  0  0  0
 33 35  1  0  0  0  0
 34 33  1  0  0  0  0
 35 37  1  0  0  0  0
 35 36  1  0  0  0  0
M  END
>  <minimizedAffinity>
-5.46521997

$$$$

 OpenBabel03242519013D

 37 40  0  0  1  0  0  0  0  0999 V2000
   36.5600   30.7000   40.0200 C   0  0  1  0  0  0  0  0  0  0  0  0
   35.4430   29.7180   40.2370 C   0  0  0  0  0  0  0  0  0  0  0  0
   36.2750   29.9810   41.3150 C   0  0  1  0  0  0  0  0  0  0  0  0
   36.3590   31.8030   39.9990 H   0  0  0  0  0  0  0  0  0  0  0  0
   34.4250   30.2120   40.1850 H   0  0  0  0  0  0  0  0  0  0  0  0
   35.4390   28.8270   39.5710 H   0  0  0  0  0  0  0  0  0  0  0  0
   36.0660   30.7340   42.1090 H   0  0  0  0  0  0  0  0  0  0  0  0
   37.1470   28.9070   41.8620 C   0  0  0  0  0  0  0  0  0  0  0  0
   36.8740   27.5700   41.7010 C   0  0  0  0  0  0  0  0  0  0  0  0
   37.6210   26.5490   42.2200 C   0  0  0  0  0  0  0  0  0  0  0  0
   38.7290   26.8850   42.9600 C   0  0  0  0  0  0  0  0  0  0  0  0
   39.0410   28.2270   43.1480 C   0  0  0  0  0  0  0  0  0  0  0  0
   38.2480   29.1970   42.6000 C   0  0  0  0  0  0  0  0  0  0  0  0
   36.0000   27.2800   41.1170 H   0  0  0  0  0  0  0  0  0  0  0  0
   37.3360   25.5170   42.0460 H   0  0  0  0  0  0  0  0  0  0  0  0
   39.2990   26.0270   43.3570 H   0  0  0  0  0  0  0  0  0  0  0  0
   39.9390   28.3070   43.7500 H   0  0  0  0  0  0  0  0  0  0  0  0
   39.9980   30.7950   42.2210 C   0  0  0  0  0  0  0  0  0  0  0  0
   40.1810   29.8970   41.3980 O   0  0  0  0  0  0  0  0  0  0  0  0
   38.8180   30.4640   42.9800 N   0  0  0  0  0  0  0  0  0  0  0  0
   40.4710   31.7260   42.5100 H   0  0  0  0  0  0  0  0  0  0  0  0
   38.3510   31.0120   43.7370 H   0  0  0  0  0  0  0  0  0  0  0  0
   37.6750   30.3360   39.1480 C   0  0  0  0  0  0  0  0  0  0  0  0
   37.6900   29.0170   38.6690 C   0  0  0  0  0  0  0  0  0  0  0  0
   38.7620   28.6700   37.8270 C   0  0  0  0  0  0  0  0  0  0  0  0
   39.6970   29.6380   37.5450 N   0  0  0  0  0  0  0  0  0  0  0  0
   39.6200   30.9070   38.0490 C   0  0  0  0  0  0  0  0  0  0  0  0
   38.5980   31.2740   38.8640 N   0  0  0  0  0  0  0  0  0  0  0  0
   37.0410   28.2250   38.8590 H   0  0  0  0  0  0  0  0  0  0  0  0
   38.8770   27.6920   37.4010 H   0  0  0  0  0  0  0  0  0  0  0  0
   40.6640   31.8590   37.6900 C   0  0  0  0  0  0  0  0  0  0  0  0
   40.7050   32.9870   38.4360 N   0  0  0  0  0  0  0  0  0  0  0  0
   41.6930   33.7880   38.0270 C   0  0  0  0  0  0  0  0  0  0  0  0
   42.0520   34.7470   38.3460 H   0  0  0  0  0  0  0  0  0  0  0  0
   42.2610   33.1370   37.0140 N   0  0  0  0  0  0  0  0  0  0  0  0
   43.0620   33.3160   36.3530 H   0  0  0  0  0  0  0  0  0  0  0  0
   41.6610   31.9640   36.7830 N   0  0  0  0  0  0  0  0  0  0  0  0
  1  4  1  6  0  0  0
  1  2  1  0  0  0  0
  1  3  1  0  0  0  0
  2  3  1  0  0  0  0
  3  8  1  0  0  0  0
  3  7  1  1  0  0  0
  5  2  1  0  0  0  0
  6  2  1  0  0  0  0
  8 13  1  0  0  0  0
  9  8  2  0  0  0  0
  9 10  1  0  0  0  0
 10 11  2  0  0  0  0
 11 12  1  0  0  0  0
 11 16  1  0  0  0  0
 12 17  1  0  0  0  0
 13 20  1  0  0  0  0
 13 12  2  0  0  0  0
 14  9  1  0  0  0  0
 15 10  1  0  0  0  0
 18 21  1  0  0  0  0
 18 20  1  0  0  0  0
 19 18  2  0  0  0  0
 20 22  1  0  0  0  0
 23  1  1  0  0  0  0
 24 29  1  0  0  0  0
 24 23  2  0  0  0  0
 25 24  1  0  0  0  0
 26 25  2  0  0  0  0
 26 27  1  0  0  0  0
 27 28  2  0  0  0  0
 28 23  1  0  0  0  0
 30 25  1  0  0  0  0
 31 27  1  0  0  0  0
 31 32  1  0  0  0  0
 33 34  1  0  0  0  0
 33 32  2  0  0  0  0
 35 33  1  0  0  0  0
 36 35  1  0  0  0  0
 37 35  1  0  0  0  0
 37 31  2  0  0  0  0
M  END
>  <minimizedAffinity>
-5.45609331

$$$$
