
 OpenBabel03252500303D

 26 28  0  0  1  0  0  0  0  0999 V2000
   36.2130   30.4980   40.9230 C   0  0  1  0  0  0  0  0  0  0  0  0
   36.8400   31.7360   40.5200 C   0  0  0  0  0  0  0  0  0  0  0  0
   36.6140   30.7210   39.4640 C   0  0  1  0  0  0  0  0  0  0  0  0
   35.1090   30.3980   41.0680 H   0  0  0  0  0  0  0  0  0  0  0  0
   36.1730   32.6430   40.5060 H   0  0  0  0  0  0  0  0  0  0  0  0
   37.8680   32.0090   40.8120 H   0  0  0  0  0  0  0  0  0  0  0  0
   35.7610   30.9180   38.7640 H   0  0  0  0  0  0  0  0  0  0  0  0
   36.4320   28.1170   41.7290 C   0  0  0  0  0  0  0  0  0  0  0  0
   36.9450   29.4490   41.6850 C   0  0  0  0  0  0  0  0  0  0  0  0
   38.1160   29.7330   42.3610 C   0  0  0  0  0  0  0  0  0  0  0  0
   38.7180   28.7120   43.0380 N   0  0  0  0  0  0  0  0  0  0  0  0
   38.2170   27.4510   43.0680 C   0  0  0  0  0  0  0  0  0  0  0  0
   37.0610   27.1330   42.4120 N   0  0  0  0  0  0  0  0  0  0  0  0
   35.5160   27.9120   41.1950 H   0  0  0  0  0  0  0  0  0  0  0  0
   38.5160   30.7270   42.3400 H   0  0  0  0  0  0  0  0  0  0  0  0
   38.8070   26.7530   43.6450 H   0  0  0  0  0  0  0  0  0  0  0  0
   37.7340   29.9430   38.8980 C   0  0  0  0  0  0  0  0  0  0  0  0
   37.3940   29.1280   38.1950 H   0  0  0  0  0  0  0  0  0  0  0  0
   38.2960   29.3760   39.6930 H   0  0  0  0  0  0  0  0  0  0  0  0
   38.6790   30.8220   38.1640 C   0  0  0  0  0  0  0  0  0  0  0  0
   40.0020   30.8610   38.3480 N   0  0  0  0  0  0  0  0  0  0  0  0
   40.5990   31.7460   37.5500 C   0  0  0  0  0  0  0  0  0  0  0  0
   41.6680   31.8790   37.5960 H   0  0  0  0  0  0  0  0  0  0  0  0
   39.5860   32.2930   36.8230 N   0  0  0  0  0  0  0  0  0  0  0  0
   39.7970   33.0310   36.1070 H   0  0  0  0  0  0  0  0  0  0  0  0
   38.4330   31.7260   37.2030 N   0  0  0  0  0  0  0  0  0  0  0  0
  1  4  1  1  0  0  0
  1  9  1  0  0  0  0
  2  6  1  0  0  0  0
  2  1  1  0  0  0  0
  3  7  1  6  0  0  0
  3  2  1  0  0  0  0
  3  1  1  0  0  0  0
  5  2  1  0  0  0  0
  8 13  1  0  0  0  0
  9  8  2  0  0  0  0
  9 10  1  0  0  0  0
 10 11  2  0  0  0  0
 11 12  1  0  0  0  0
 12 16  1  0  0  0  0
 13 12  2  0  0  0  0
 14  8  1  0  0  0  0
 15 10  1  0  0  0  0
 17  3  1  0  0  0  0
 17 19  1  0  0  0  0
 18 17  1  0  0  0  0
 20 21  1  0  0  0  0
 20 17  1  0  0  0  0
 22 23  1  0  0  0  0
 22 21  2  0  0  0  0
 24 26  1  0  0  0  0
 24 22  1  0  0  0  0
 25 24  1  0  0  0  0
 26 20  2  0  0  0  0
M  END
>  <minimizedAffinity>
-4.5541153

$$$$

 OpenBabel03252500303D

 26 28  0  0  1  0  0  0  0  0999 V2000
   36.8200   26.9930   43.1800 C   0  0  1  0  0  0  0  0  0  0  0  0
   37.4100   28.2140   43.6780 C   0  0  0  0  0  0  0  0  0  0  0  0
   36.5620   28.3230   42.4690 C   0  0  1  0  0  0  0  0  0  0  0  0
   35.8980   26.5420   43.6220 H   0  0  0  0  0  0  0  0  0  0  0  0
   36.9790   28.6110   44.6400 H   0  0  0  0  0  0  0  0  0  0  0  0
   38.4910   28.4260   43.6160 H   0  0  0  0  0  0  0  0  0  0  0  0
   35.5360   28.7490   42.6200 H   0  0  0  0  0  0  0  0  0  0  0  0
   36.9490   24.9790   41.6650 C   0  0  0  0  0  0  0  0  0  0  0  0
   37.6160   25.9660   42.4520 C   0  0  0  0  0  0  0  0  0  0  0  0
   38.9960   25.9410   42.5210 C   0  0  0  0  0  0  0  0  0  0  0  0
   39.6450   24.9620   41.8260 N   0  0  0  0  0  0  0  0  0  0  0  0
   38.9950   24.0310   41.0830 C   0  0  0  0  0  0  0  0  0  0  0  0
   37.6310   24.0250   40.9910 N   0  0  0  0  0  0  0  0  0  0  0  0
   35.8700   25.0130   41.6220 H   0  0  0  0  0  0  0  0  0  0  0  0
   39.5140   26.6740   43.1070 H   0  0  0  0  0  0  0  0  0  0  0  0
   39.6460   23.3230   40.5900 H   0  0  0  0  0  0  0  0  0  0  0  0
   37.1550   28.5540   41.1360 C   0  0  0  0  0  0  0  0  0  0  0  0
   36.6350   27.9770   40.3160 H   0  0  0  0  0  0  0  0  0  0  0  0
   38.2160   28.1800   41.0780 H   0  0  0  0  0  0  0  0  0  0  0  0
   37.1230   29.9940   40.7790 C   0  0  0  0  0  0  0  0  0  0  0  0
   38.0270   30.6250   40.0240 N   0  0  0  0  0  0  0  0  0  0  0  0
   37.7460   31.9180   39.8690 C   0  0  0  0  0  0  0  0  0  0  0  0
   38.3960   32.5450   39.2810 H   0  0  0  0  0  0  0  0  0  0  0  0
   36.5950   32.1070   40.5700 N   0  0  0  0  0  0  0  0  0  0  0  0
   36.1550   33.0590   40.6070 H   0  0  0  0  0  0  0  0  0  0  0  0
   36.2300   30.9380   41.1150 N   0  0  0  0  0  0  0  0  0  0  0  0
  1  4  1  1  0  0  0
  1  2  1  0  0  0  0
  2  5  1  0  0  0  0
  3  7  1  1  0  0  0
  3  1  1  0  0  0  0
  3  2  1  0  0  0  0
  6  2  1  0  0  0  0
  8  9  1  0  0  0  0
  9 10  2  0  0  0  0
  9  1  1  0  0  0  0
 10 15  1  0  0  0  0
 11 10  1  0  0  0  0
 12 11  2  0  0  0  0
 13 12  1  0  0  0  0
 13  8  2  0  0  0  0
 14  8  1  0  0  0  0
 16 12  1  0  0  0  0
 17  3  1  0  0  0  0
 18 17  1  0  0  0  0
 19 17  1  0  0  0  0
 20 26  2  0  0  0  0
 20 17  1  0  0  0  0
 21 20  1  0  0  0  0
 22 21  2  0  0  0  0
 22 24  1  0  0  0  0
 23 22  1  0  0  0  0
 24 25  1  0  0  0  0
 24 26  1  0  0  0  0
M  END
>  <minimizedAffinity>
-4.54178476

$$$$

 OpenBabel03252500303D

 26 28  0  0  1  0  0  0  0  0999 V2000
   37.1020   26.9020   43.0500 C   0  0  1  0  0  0  0  0  0  0  0  0
   36.9500   28.1960   43.6760 C   0  0  0  0  0  0  0  0  0  0  0  0
   36.7520   28.1310   42.2090 C   0  0  1  0  0  0  0  0  0  0  0  0
   36.2960   26.1280   43.0580 H   0  0  0  0  0  0  0  0  0  0  0  0
   36.0290   28.3300   44.3090 H   0  0  0  0  0  0  0  0  0  0  0  0
   37.8000   28.7610   44.0940 H   0  0  0  0  0  0  0  0  0  0  0  0
   35.6910   28.1730   41.8510 H   0  0  0  0  0  0  0  0  0  0  0  0
   39.5450   26.6760   43.6380 C   0  0  0  0  0  0  0  0  0  0  0  0
   38.4360   26.2760   42.8340 C   0  0  0  0  0  0  0  0  0  0  0  0
   38.6310   25.3130   41.8620 C   0  0  0  0  0  0  0  0  0  0  0  0
   39.8880   24.7970   41.7290 N   0  0  0  0  0  0  0  0  0  0  0  0
   40.9320   25.1890   42.5030 C   0  0  0  0  0  0  0  0  0  0  0  0
   40.7750   26.1390   43.4730 N   0  0  0  0  0  0  0  0  0  0  0  0
   39.3750   27.4300   44.3930 H   0  0  0  0  0  0  0  0  0  0  0  0
   37.8110   25.0000   41.2480 H   0  0  0  0  0  0  0  0  0  0  0  0
   41.8630   24.6880   42.2780 H   0  0  0  0  0  0  0  0  0  0  0  0
   37.7590   28.6750   41.2760 C   0  0  0  0  0  0  0  0  0  0  0  0
   37.8040   28.1130   40.2980 H   0  0  0  0  0  0  0  0  0  0  0  0
   38.8060   28.5690   41.6790 H   0  0  0  0  0  0  0  0  0  0  0  0
   37.4930   30.1040   40.9760 C   0  0  0  0  0  0  0  0  0  0  0  0
   38.4260   31.0410   40.7820 N   0  0  0  0  0  0  0  0  0  0  0  0
   37.8980   32.2380   40.5300 C   0  0  0  0  0  0  0  0  0  0  0  0
   38.5400   33.0860   40.3550 H   0  0  0  0  0  0  0  0  0  0  0  0
   36.5520   32.0370   40.5690 N   0  0  0  0  0  0  0  0  0  0  0  0
   35.8980   32.8400   40.4000 H   0  0  0  0  0  0  0  0  0  0  0  0
   36.3220   30.7440   40.8400 N   0  0  0  0  0  0  0  0  0  0  0  0
  1  4  1  1  0  0  0
  1  2  1  0  0  0  0
  2  6  1  0  0  0  0
  2  5  1  0  0  0  0
  3  7  1  6  0  0  0
  3  1  1  0  0  0  0
  3  2  1  0  0  0  0
  8 14  1  0  0  0  0
  9  1  1  0  0  0  0
  9  8  2  0  0  0  0
 10  9  1  0  0  0  0
 11 10  2  0  0  0  0
 11 12  1  0  0  0  0
 12 13  2  0  0  0  0
 13  8  1  0  0  0  0
 15 10  1  0  0  0  0
 16 12  1  0  0  0  0
 17 19  1  0  0  0  0
 17  3  1  0  0  0  0
 18 17  1  0  0  0  0
 20 17  1  0  0  0  0
 21 20  1  0  0  0  0
 22 24  1  0  0  0  0
 22 21  2  0  0  0  0
 23 22  1  0  0  0  0
 24 26  1  0  0  0  0
 25 24  1  0  0  0  0
 26 20  2  0  0  0  0
M  END
>  <minimizedAffinity>
-4.50417185

$$$$

 OpenBabel03252500303D

 26 28  0  0  1  0  0  0  0  0999 V2000
   37.5470   28.5140   43.6800 C   0  0  1  0  0  0  0  0  0  0  0  0
   36.5390   27.4960   43.4870 C   0  0  0  0  0  0  0  0  0  0  0  0
   37.9540   27.0610   43.4240 C   0  0  1  0  0  0  0  0  0  0  0  0
   37.8470   28.8850   44.6900 H   0  0  0  0  0  0  0  0  0  0  0  0
   35.9570   27.2010   44.4050 H   0  0  0  0  0  0  0  0  0  0  0  0
   35.9050   27.4450   42.5870 H   0  0  0  0  0  0  0  0  0  0  0  0
   38.3440   26.5140   44.3200 H   0  0  0  0  0  0  0  0  0  0  0  0
   36.9080   29.8320   41.6260 C   0  0  0  0  0  0  0  0  0  0  0  0
   37.8750   29.5160   42.6280 C   0  0  0  0  0  0  0  0  0  0  0  0
   39.1020   30.1500   42.5930 C   0  0  0  0  0  0  0  0  0  0  0  0
   39.3180   31.0510   41.5910 N   0  0  0  0  0  0  0  0  0  0  0  0
   38.3880   31.3400   40.6460 C   0  0  0  0  0  0  0  0  0  0  0  0
   37.1640   30.7320   40.6490 N   0  0  0  0  0  0  0  0  0  0  0  0
   35.9550   29.3270   41.6670 H   0  0  0  0  0  0  0  0  0  0  0  0
   39.8400   29.9250   43.3370 H   0  0  0  0  0  0  0  0  0  0  0  0
   38.7070   32.0740   39.9190 H   0  0  0  0  0  0  0  0  0  0  0  0
   38.5890   26.7070   42.1380 C   0  0  0  0  0  0  0  0  0  0  0  0
   39.7150   26.7810   42.1670 H   0  0  0  0  0  0  0  0  0  0  0  0
   38.3070   27.4270   41.3180 H   0  0  0  0  0  0  0  0  0  0  0  0
   38.2260   25.3280   41.7240 C   0  0  0  0  0  0  0  0  0  0  0  0
   37.2350   25.0060   40.8890 N   0  0  0  0  0  0  0  0  0  0  0  0
   37.1390   23.6910   40.6980 C   0  0  0  0  0  0  0  0  0  0  0  0
   36.3790   23.2930   40.0460 H   0  0  0  0  0  0  0  0  0  0  0  0
   38.1330   23.1590   41.4620 N   0  0  0  0  0  0  0  0  0  0  0  0
   38.2730   22.1190   41.4870 H   0  0  0  0  0  0  0  0  0  0  0  0
   38.7810   24.1580   42.0760 N   0  0  0  0  0  0  0  0  0  0  0  0
  1  4  1  1  0  0  0
  2  1  1  0  0  0  0
  2  5  1  0  0  0  0
  3  2  1  0  0  0  0
  3  1  1  0  0  0  0
  3  7  1  1  0  0  0
  6  2  1  0  0  0  0
  8 14  1  0  0  0  0
  8  9  1  0  0  0  0
  9  1  1  0  0  0  0
 10  9  2  0  0  0  0
 10 15  1  0  0  0  0
 11 10  1  0  0  0  0
 12 13  1  0  0  0  0
 12 11  2  0  0  0  0
 13  8  2  0  0  0  0
 16 12  1  0  0  0  0
 17 18  1  0  0  0  0
 17  3  1  0  0  0  0
 19 17  1  0  0  0  0
 20 26  2  0  0  0  0
 20 17  1  0  0  0  0
 21 20  1  0  0  0  0
 22 21  2  0  0  0  0
 22 24  1  0  0  0  0
 23 22  1  0  0  0  0
 24 25  1  0  0  0  0
 24 26  1  0  0  0  0
M  END
>  <minimizedAffinity>
-4.46040535

$$$$

 OpenBabel03252500303D

 26 28  0  0  1  0  0  0  0  0999 V2000
   36.4070   28.6710   40.0090 C   0  0  1  0  0  0  0  0  0  0  0  0
   35.0260   29.0950   40.0480 C   0  0  0  0  0  0  0  0  0  0  0  0
   36.0470   30.1490   39.8440 C   0  0  1  0  0  0  0  0  0  0  0  0
   36.8780   28.2270   39.0980 H   0  0  0  0  0  0  0  0  0  0  0  0
   34.4000   28.8130   39.1550 H   0  0  0  0  0  0  0  0  0  0  0  0
   34.4220   29.0830   40.9700 H   0  0  0  0  0  0  0  0  0  0  0  0
   36.1460   30.5460   38.8010 H   0  0  0  0  0  0  0  0  0  0  0  0
   38.5770   28.3430   41.2540 C   0  0  0  0  0  0  0  0  0  0  0  0
   37.1510   28.2780   41.2370 C   0  0  0  0  0  0  0  0  0  0  0  0
   36.4920   27.8420   42.3710 C   0  0  0  0  0  0  0  0  0  0  0  0
   37.2540   27.4970   43.4500 N   0  0  0  0  0  0  0  0  0  0  0  0
   38.6090   27.5660   43.4480 C   0  0  0  0  0  0  0  0  0  0  0  0
   39.2950   27.9910   42.3450 N   0  0  0  0  0  0  0  0  0  0  0  0
   39.0770   28.6850   40.3590 H   0  0  0  0  0  0  0  0  0  0  0  0
   35.4220   27.7860   42.3780 H   0  0  0  0  0  0  0  0  0  0  0  0
   39.0710   27.2600   44.3770 H   0  0  0  0  0  0  0  0  0  0  0  0
   36.3920   31.0990   40.9200 C   0  0  0  0  0  0  0  0  0  0  0  0
   36.8300   30.5940   41.8300 H   0  0  0  0  0  0  0  0  0  0  0  0
   35.4800   31.6180   41.3310 H   0  0  0  0  0  0  0  0  0  0  0  0
   37.3610   32.1180   40.4440 C   0  0  0  0  0  0  0  0  0  0  0  0
   38.6290   32.2290   40.8520 N   0  0  0  0  0  0  0  0  0  0  0  0
   39.2670   33.2360   40.2560 C   0  0  0  0  0  0  0  0  0  0  0  0
   40.2980   33.4380   40.4930 H   0  0  0  0  0  0  0  0  0  0  0  0
   38.3400   33.7860   39.4240 N   0  0  0  0  0  0  0  0  0  0  0  0
   38.5970   34.6120   38.8290 H   0  0  0  0  0  0  0  0  0  0  0  0
   37.1950   33.1020   39.5480 N   0  0  0  0  0  0  0  0  0  0  0  0
  1  4  1  6  0  0  0
  1  2  1  0  0  0  0
  1  9  1  0  0  0  0
  2  6  1  0  0  0  0
  3  7  1  6  0  0  0
  3  1  1  0  0  0  0
  3  2  1  0  0  0  0
  3 17  1  0  0  0  0
  5  2  1  0  0  0  0
  8 13  1  0  0  0  0
  9  8  2  0  0  0  0
  9 10  1  0  0  0  0
 10 15  1  0  0  0  0
 10 11  2  0  0  0  0
 12 11  1  0  0  0  0
 12 16  1  0  0  0  0
 13 12  2  0  0  0  0
 14  8  1  0  0  0  0
 17 19  1  0  0  0  0
 17 18  1  0  0  0  0
 20 21  1  0  0  0  0
 20 17  1  0  0  0  0
 22 23  1  0  0  0  0
 22 21  2  0  0  0  0
 24 26  1  0  0  0  0
 24 22  1  0  0  0  0
 25 24  1  0  0  0  0
 26 20  2  0  0  0  0
M  END
>  <minimizedAffinity>
-4.43852758

$$$$

 OpenBabel03252500303D

 26 28  0  0  1  0  0  0  0  0999 V2000
   38.0940   25.1950   41.2930 C   0  0  1  0  0  0  0  0  0  0  0  0
   37.0010   24.8260   42.1630 C   0  0  0  0  0  0  0  0  0  0  0  0
   36.9560   26.1810   41.5660 C   0  0  1  0  0  0  0  0  0  0  0  0
   38.1520   24.8720   40.2250 H   0  0  0  0  0  0  0  0  0  0  0  0
   36.2810   24.0640   41.7520 H   0  0  0  0  0  0  0  0  0  0  0  0
   37.1180   24.7070   43.2540 H   0  0  0  0  0  0  0  0  0  0  0  0
   36.2400   26.3240   40.7160 H   0  0  0  0  0  0  0  0  0  0  0  0
   39.8380   25.0900   43.1130 C   0  0  0  0  0  0  0  0  0  0  0  0
   39.4440   25.5400   41.8170 C   0  0  0  0  0  0  0  0  0  0  0  0
   40.3340   26.2960   41.0760 C   0  0  0  0  0  0  0  0  0  0  0  0
   41.5480   26.5690   41.6360 N   0  0  0  0  0  0  0  0  0  0  0  0
   41.9060   26.1330   42.8700 C   0  0  0  0  0  0  0  0  0  0  0  0
   41.0520   25.3840   43.6310 N   0  0  0  0  0  0  0  0  0  0  0  0
   39.1310   24.5010   43.6790 H   0  0  0  0  0  0  0  0  0  0  0  0
   40.0560   26.6430   40.1010 H   0  0  0  0  0  0  0  0  0  0  0  0
   42.9000   26.4300   43.1750 H   0  0  0  0  0  0  0  0  0  0  0  0
   37.2260   27.3850   42.3780 C   0  0  0  0  0  0  0  0  0  0  0  0
   38.3280   27.5790   42.5260 H   0  0  0  0  0  0  0  0  0  0  0  0
   36.8420   27.2750   43.4310 H   0  0  0  0  0  0  0  0  0  0  0  0
   36.6230   28.5930   41.7600 C   0  0  0  0  0  0  0  0  0  0  0  0
   37.1310   29.8270   41.8190 N   0  0  0  0  0  0  0  0  0  0  0  0
   36.3770   30.7170   41.1740 C   0  0  0  0  0  0  0  0  0  0  0  0
   36.6720   31.7530   41.1440 H   0  0  0  0  0  0  0  0  0  0  0  0
   35.3340   29.9930   40.6820 N   0  0  0  0  0  0  0  0  0  0  0  0
   34.5840   30.4700   40.1240 H   0  0  0  0  0  0  0  0  0  0  0  0
   35.4950   28.7120   41.0430 N   0  0  0  0  0  0  0  0  0  0  0  0
  1  4  1  6  0  0  0
  1  3  1  0  0  0  0
  1  9  1  0  0  0  0
  1  2  1  0  0  0  0
  2  6  1  0  0  0  0
  3  7  1  6  0  0  0
  3  2  1  0  0  0  0
  3 17  1  0  0  0  0
  5  2  1  0  0  0  0
  8 13  1  0  0  0  0
  8 14  1  0  0  0  0
  9  8  2  0  0  0  0
 10 11  2  0  0  0  0
 10  9  1  0  0  0  0
 11 12  1  0  0  0  0
 12 16  1  0  0  0  0
 12 13  2  0  0  0  0
 15 10  1  0  0  0  0
 17 18  1  0  0  0  0
 17 19  1  0  0  0  0
 20 21  1  0  0  0  0
 20 17  1  0  0  0  0
 22 21  2  0  0  0  0
 23 22  1  0  0  0  0
 24 26  1  0  0  0  0
 24 22  1  0  0  0  0
 25 24  1  0  0  0  0
 26 20  2  0  0  0  0
M  END
>  <minimizedAffinity>
-4.18607664

$$$$

 OpenBabel03252500303D

 26 28  0  0  1  0  0  0  0  0999 V2000
   36.9180   30.7330   38.6950 C   0  0  1  0  0  0  0  0  0  0  0  0
   37.1770   29.3410   38.9860 C   0  0  0  0  0  0  0  0  0  0  0  0
   36.0650   29.9860   39.7220 C   0  0  1  0  0  0  0  0  0  0  0  0
   36.3390   31.0650   37.7980 H   0  0  0  0  0  0  0  0  0  0  0  0
   36.8960   28.6090   38.1780 H   0  0  0  0  0  0  0  0  0  0  0  0
   38.0750   29.0000   39.5290 H   0  0  0  0  0  0  0  0  0  0  0  0
   35.0300   29.7270   39.3790 H   0  0  0  0  0  0  0  0  0  0  0  0
   37.2500   33.1230   39.4290 C   0  0  0  0  0  0  0  0  0  0  0  0
   37.7970   31.8250   39.1950 C   0  0  0  0  0  0  0  0  0  0  0  0
   39.1410   31.6160   39.4370 C   0  0  0  0  0  0  0  0  0  0  0  0
   39.8730   32.6750   39.8900 N   0  0  0  0  0  0  0  0  0  0  0  0
   39.3380   33.9030   40.1070 C   0  0  0  0  0  0  0  0  0  0  0  0
   38.0120   34.1470   39.8780 N   0  0  0  0  0  0  0  0  0  0  0  0
   36.1980   33.2700   39.2340 H   0  0  0  0  0  0  0  0  0  0  0  0
   39.5700   30.6480   39.2670 H   0  0  0  0  0  0  0  0  0  0  0  0
   40.0440   34.6380   40.4660 H   0  0  0  0  0  0  0  0  0  0  0  0
   36.1920   30.3310   41.1520 C   0  0  0  0  0  0  0  0  0  0  0  0
   35.1960   30.5190   41.6500 H   0  0  0  0  0  0  0  0  0  0  0  0
   36.7400   31.3040   41.3010 H   0  0  0  0  0  0  0  0  0  0  0  0
   36.8890   29.2570   41.9020 C   0  0  0  0  0  0  0  0  0  0  0  0
   36.4160   28.0240   42.1080 N   0  0  0  0  0  0  0  0  0  0  0  0
   37.2560   27.2700   42.8150 C   0  0  0  0  0  0  0  0  0  0  0  0
   36.9970   26.2510   43.0540 H   0  0  0  0  0  0  0  0  0  0  0  0
   38.3200   28.0820   43.0660 N   0  0  0  0  0  0  0  0  0  0  0  0
   39.1360   27.7190   43.6180 H   0  0  0  0  0  0  0  0  0  0  0  0
   38.0850   29.2780   42.5100 N   0  0  0  0  0  0  0  0  0  0  0  0
  1  4  1  6  0  0  0
  1  2  1  0  0  0  0
  1  9  1  0  0  0  0
  1  3  1  0  0  0  0
  2  6  1  0  0  0  0
  2  3  1  0  0  0  0
  3  7  1  6  0  0  0
  3 17  1  0  0  0  0
  5  2  1  0  0  0  0
  8 13  1  0  0  0  0
  9  8  2  0  0  0  0
  9 10  1  0  0  0  0
 10 11  2  0  0  0  0
 11 12  1  0  0  0  0
 12 16  1  0  0  0  0
 13 12  2  0  0  0  0
 14  8  1  0  0  0  0
 15 10  1  0  0  0  0
 17 19  1  0  0  0  0
 17 18  1  0  0  0  0
 17 20  1  0  0  0  0
 20 21  1  0  0  0  0
 20 26  2  0  0  0  0
 21 22  2  0  0  0  0
 22 23  1  0  0  0  0
 22 24  1  0  0  0  0
 24 25  1  0  0  0  0
 26 24  1  0  0  0  0
M  END
>  <minimizedAffinity>
-4.14439011

$$$$

 OpenBabel03252500303D

 26 28  0  0  1  0  0  0  0  0999 V2000
   37.1150   24.8250   42.1210 C   0  0  1  0  0  0  0  0  0  0  0  0
   38.2140   25.6470   42.5710 C   0  0  0  0  0  0  0  0  0  0  0  0
   37.0160   26.3500   42.0580 C   0  0  1  0  0  0  0  0  0  0  0  0
   36.3780   24.3620   42.8230 H   0  0  0  0  0  0  0  0  0  0  0  0
   38.3840   25.6750   43.6840 H   0  0  0  0  0  0  0  0  0  0  0  0
   39.1710   25.7180   42.0270 H   0  0  0  0  0  0  0  0  0  0  0  0
   36.3460   26.8130   42.8290 H   0  0  0  0  0  0  0  0  0  0  0  0
   38.4120   23.7290   40.2550 C   0  0  0  0  0  0  0  0  0  0  0  0
   37.1550   24.0840   40.8300 C   0  0  0  0  0  0  0  0  0  0  0  0
   35.9950   23.7320   40.1650 C   0  0  0  0  0  0  0  0  0  0  0  0
   36.1250   23.0580   38.9840 N   0  0  0  0  0  0  0  0  0  0  0  0
   37.3290   22.7290   38.4520 C   0  0  0  0  0  0  0  0  0  0  0  0
   38.4970   23.0610   39.0820 N   0  0  0  0  0  0  0  0  0  0  0  0
   39.3080   24.0120   40.7880 H   0  0  0  0  0  0  0  0  0  0  0  0
   35.0420   23.9900   40.5800 H   0  0  0  0  0  0  0  0  0  0  0  0
   37.2690   22.1960   37.5130 H   0  0  0  0  0  0  0  0  0  0  0  0
   37.0250   27.0190   40.7420 C   0  0  0  0  0  0  0  0  0  0  0  0
   36.3770   26.4980   39.9780 H   0  0  0  0  0  0  0  0  0  0  0  0
   38.0470   26.9970   40.2670 H   0  0  0  0  0  0  0  0  0  0  0  0
   36.5680   28.4270   40.8530 C   0  0  0  0  0  0  0  0  0  0  0  0
   37.3610   29.4860   41.0370 N   0  0  0  0  0  0  0  0  0  0  0  0
   36.6770   30.6270   41.1010 C   0  0  0  0  0  0  0  0  0  0  0  0
   37.1950   31.5610   41.2470 H   0  0  0  0  0  0  0  0  0  0  0  0
   35.3750   30.2580   40.9460 N   0  0  0  0  0  0  0  0  0  0  0  0
   34.6200   30.9860   40.9590 H   0  0  0  0  0  0  0  0  0  0  0  0
   35.3240   28.9270   40.7990 N   0  0  0  0  0  0  0  0  0  0  0  0
  1  2  1  0  0  0  0
  1  4  1  1  0  0  0
  2  5  1  0  0  0  0
  3  1  1  0  0  0  0
  3  2  1  0  0  0  0
  3  7  1  1  0  0  0
  6  2  1  0  0  0  0
  8 14  1  0  0  0  0
  8  9  1  0  0  0  0
  9  1  1  0  0  0  0
 10 15  1  0  0  0  0
 10  9  2  0  0  0  0
 11 10  1  0  0  0  0
 12 11  2  0  0  0  0
 12 13  1  0  0  0  0
 13  8  2  0  0  0  0
 16 12  1  0  0  0  0
 17 20  1  0  0  0  0
 17  3  1  0  0  0  0
 18 17  1  0  0  0  0
 19 17  1  0  0  0  0
 20 21  1  0  0  0  0
 21 22  2  0  0  0  0
 22 23  1  0  0  0  0
 24 25  1  0  0  0  0
 24 22  1  0  0  0  0
 26 20  2  0  0  0  0
 26 24  1  0  0  0  0
M  END
>  <minimizedAffinity>
-4.14240503

$$$$

 OpenBabel03252500303D

 26 28  0  0  1  0  0  0  0  0999 V2000
   36.5820   27.7610   42.4090 C   0  0  1  0  0  0  0  0  0  0  0  0
   37.2190   28.0260   43.6790 C   0  0  0  0  0  0  0  0  0  0  0  0
   37.3770   29.0510   42.6210 C   0  0  1  0  0  0  0  0  0  0  0  0
   35.4930   27.9380   42.2300 H   0  0  0  0  0  0  0  0  0  0  0  0
   36.5280   28.2770   44.5320 H   0  0  0  0  0  0  0  0  0  0  0  0
   38.0960   27.4620   44.0380 H   0  0  0  0  0  0  0  0  0  0  0  0
   36.7560   29.9770   42.7320 H   0  0  0  0  0  0  0  0  0  0  0  0
   36.7640   26.8540   40.0620 C   0  0  0  0  0  0  0  0  0  0  0  0
   37.1250   26.7690   41.4400 C   0  0  0  0  0  0  0  0  0  0  0  0
   37.9740   25.7560   41.8450 C   0  0  0  0  0  0  0  0  0  0  0  0
   38.4210   24.8880   40.8910 N   0  0  0  0  0  0  0  0  0  0  0  0
   38.0670   24.9840   39.5840 C   0  0  0  0  0  0  0  0  0  0  0  0
   37.2290   25.9720   39.1480 N   0  0  0  0  0  0  0  0  0  0  0  0
   36.0990   27.6510   39.7630 H   0  0  0  0  0  0  0  0  0  0  0  0
   38.2560   25.6760   42.8760 H   0  0  0  0  0  0  0  0  0  0  0  0
   38.5020   24.2240   38.9500 H   0  0  0  0  0  0  0  0  0  0  0  0
   38.6620   29.2290   41.9150 C   0  0  0  0  0  0  0  0  0  0  0  0
   38.7190   28.6460   40.9500 H   0  0  0  0  0  0  0  0  0  0  0  0
   39.5280   28.8230   42.5100 H   0  0  0  0  0  0  0  0  0  0  0  0
   38.9080   30.6600   41.6060 C   0  0  0  0  0  0  0  0  0  0  0  0
   38.0920   31.4520   40.9040 N   0  0  0  0  0  0  0  0  0  0  0  0
   38.5680   32.6900   40.7820 C   0  0  0  0  0  0  0  0  0  0  0  0
   38.0080   33.4330   40.2380 H   0  0  0  0  0  0  0  0  0  0  0  0
   39.7540   32.6710   41.4500 N   0  0  0  0  0  0  0  0  0  0  0  0
   40.3380   33.5410   41.5030 H   0  0  0  0  0  0  0  0  0  0  0  0
   39.9470   31.4390   41.9410 N   0  0  0  0  0  0  0  0  0  0  0  0
  1  4  1  6  0  0  0
  1  3  1  0  0  0  0
  1  2  1  0  0  0  0
  2  6  1  0  0  0  0
  2  5  1  0  0  0  0
  3  7  1  1  0  0  0
  3  2  1  0  0  0  0
  8  9  1  0  0  0  0
  9 10  2  0  0  0  0
  9  1  1  0  0  0  0
 10 15  1  0  0  0  0
 11 10  1  0  0  0  0
 12 11  2  0  0  0  0
 13 12  1  0  0  0  0
 13  8  2  0  0  0  0
 14  8  1  0  0  0  0
 16 12  1  0  0  0  0
 17 19  1  0  0  0  0
 17  3  1  0  0  0  0
 18 17  1  0  0  0  0
 20 17  1  0  0  0  0
 20 26  2  0  0  0  0
 21 20  1  0  0  0  0
 22 21  2  0  0  0  0
 22 24  1  0  0  0  0
 23 22  1  0  0  0  0
 24 25  1  0  0  0  0
 24 26  1  0  0  0  0
M  END
>  <minimizedAffinity>
-4.07802105

$$$$
