
 OpenBabel03252509043D

 46 48  0  0  1  0  0  0  0  0999 V2000
   46.9850   34.3460   43.4620 N   0  0  0  0  0  0  0  0  0  0  0  0
   46.5510   35.5130   42.7860 C   0  0  0  0  0  0  0  0  0  0  0  0
   45.0640   35.7470   42.8230 C   0  0  0  0  0  0  0  0  0  0  0  0
   44.3830   35.2780   44.0890 C   0  0  0  0  0  0  0  0  0  0  0  0
   45.3880   34.7530   45.0890 C   0  0  0  0  0  0  0  0  0  0  0  0
   46.1360   33.6300   44.2840 C   0  0  2  0  0  0  0  0  0  0  0  0
   46.9920   36.3910   43.3380 H   0  0  0  0  0  0  0  0  0  0  0  0
   46.8770   35.6290   41.7510 H   0  0  0  0  0  0  0  0  0  0  0  0
   44.8540   36.8200   42.6130 H   0  0  0  0  0  0  0  0  0  0  0  0
   44.6390   35.1800   41.9580 H   0  0  0  0  0  0  0  0  0  0  0  0
   43.8570   36.1680   44.5380 H   0  0  0  0  0  0  0  0  0  0  0  0
   43.6270   34.5180   43.9020 H   0  0  0  0  0  0  0  0  0  0  0  0
   46.1310   35.4980   45.3830 H   0  0  0  0  0  0  0  0  0  0  0  0
   44.8370   34.2710   45.9160 H   0  0  0  0  0  0  0  0  0  0  0  0
   45.3230   33.0340   43.8210 H   0  0  0  0  0  0  0  0  0  0  0  0
   48.0510   33.6420   42.7950 C   0  0  0  0  0  0  0  0  0  0  0  0
   48.7500   34.3560   42.3240 H   0  0  0  0  0  0  0  0  0  0  0  0
   48.6200   33.1210   43.6170 H   0  0  0  0  0  0  0  0  0  0  0  0
   47.4710   32.6330   41.8770 C   0  0  0  0  0  0  0  0  0  0  0  0
   47.6940   31.6060   42.1950 H   0  0  0  0  0  0  0  0  0  0  0  0
   46.3460   32.6820   41.8400 H   0  0  0  0  0  0  0  0  0  0  0  0
   49.2530   32.1430   38.6060 C   0  0  0  0  0  0  0  0  0  0  0  0
   48.7790   31.9360   39.9150 C   0  0  0  0  0  0  0  0  0  0  0  0
   47.9630   32.8640   40.4970 C   0  0  0  0  0  0  0  0  0  0  0  0
   47.6470   33.9480   39.7760 N   0  0  0  0  0  0  0  0  0  0  0  0
   48.0970   34.1490   38.5270 C   0  0  0  0  0  0  0  0  0  0  0  0
   48.8990   33.2570   37.9280 N   0  0  0  0  0  0  0  0  0  0  0  0
   49.8990   31.3290   38.2470 H   0  0  0  0  0  0  0  0  0  0  0  0
   49.0480   31.0500   40.4810 H   0  0  0  0  0  0  0  0  0  0  0  0
   47.8460   35.0300   37.9290 H   0  0  0  0  0  0  0  0  0  0  0  0
   46.8110   32.9740   45.3010 O   0  0  0  0  0  0  0  0  0  0  0  0
   45.4720   30.8880   44.3510 O   0  0  0  0  0  0  0  0  0  0  0  0
   46.2310   31.4100   45.5670 P   0  0  2  0  0  0  0  0  0  0  0  0
   45.0890   31.5250   46.8220 O   0  0  0  0  0  0  0  0  0  0  0  0
   44.2690   31.9820   46.5360 H   0  0  0  0  0  0  0  0  0  0  0  0
   47.4370   30.3570   46.0440 O   0  0  0  0  0  0  0  0  0  0  0  0
   47.2120   29.1080   45.5060 C   0  0  0  0  0  0  0  0  0  0  0  0
   48.1680   28.5880   45.3950 H   0  0  0  0  0  0  0  0  0  0  0  0
   46.8580   29.2870   44.4480 H   0  0  0  0  0  0  0  0  0  0  0  0
   46.1880   28.3090   46.2110 C   0  0  0  0  0  0  0  0  0  0  0  0
   45.9770   28.4830   47.5370 N   0  0  0  0  0  0  0  0  0  0  0  0
   45.0000   27.6490   47.9610 C   0  0  0  0  0  0  0  0  0  0  0  0
   44.6720   27.6280   49.0080 H   0  0  0  0  0  0  0  0  0  0  0  0
   44.6040   26.9460   46.8700 N   0  0  0  0  0  0  0  0  0  0  0  0
   43.8530   26.2230   46.9110 H   0  0  0  0  0  0  0  0  0  0  0  0
   45.3200   27.3540   45.8500 N   0  0  0  0  0  0  0  0  0  0  0  0
  1  6  1  0  0  0  0
  2  3  1  0  0  0  0
  2  7  1  0  0  0  0
  2  1  1  0  0  0  0
  3  4  1  0  0  0  0
  4 11  1  0  0  0  0
  4  5  1  0  0  0  0
  5 13  1  0  0  0  0
  5 14  1  0  0  0  0
  6 15  1  6  0  0  0
  6  5  1  0  0  0  0
  6 31  1  0  0  0  0
  8  2  1  0  0  0  0
  9  3  1  0  0  0  0
 10  3  1  0  0  0  0
 12  4  1  0  0  0  0
 16  1  1  0  0  0  0
 16 18  1  0  0  0  0
 17 16  1  0  0  0  0
 19 20  1  0  0  0  0
 19 16  1  0  0  0  0
 21 19  1  0  0  0  0
 22 23  1  0  0  0  0
 23 29  1  0  0  0  0
 23 24  2  0  0  0  0
 24 19  1  0  0  0  0
 25 24  1  0  0  0  0
 26 25  2  0  0  0  0
 27 26  1  0  0  0  0
 27 22  2  0  0  0  0
 28 22  1  0  0  0  0
 30 26  1  0  0  0  0
 31 33  1  0  0  0  0
 33 32  2  6  0  0  0
 33 36  1  0  0  0  0
 33 34  1  0  0  0  0
 35 34  1  0  0  0  0
 37 36  1  0  0  0  0
 37 40  1  0  0  0  0
 38 37  1  0  0  0  0
 39 37  1  0  0  0  0
 40 41  1  0  0  0  0
 41 42  2  0  0  0  0
 42 43  1  0  0  0  0
 44 45  1  0  0  0  0
 44 42  1  0  0  0  0
 46 40  2  0  0  0  0
 46 44  1  0  0  0  0
M  END
>  <minimizedAffinity>
-3.99360347

>  <minimizedRMSD>
0.832352817

$$$$
