
 OpenBabel03252503363D

 20 21  0  0  0  0  0  0  0  0999 V2000
   37.7980   29.0210   42.0430 C   0  0  0  0  0  0  0  0  0  0  0  0
   37.3320   28.6640   43.1560 O   0  0  0  0  0  0  0  0  0  0  0  0
   38.6230   28.0620   41.4010 N   0  0  0  0  0  0  0  0  0  0  0  0
   39.0510   28.2430   40.4460 H   0  0  0  0  0  0  0  0  0  0  0  0
   38.5280   24.4620   42.3720 C   0  0  0  0  0  0  0  0  0  0  0  0
   38.1720   25.6510   41.7220 C   0  0  0  0  0  0  0  0  0  0  0  0
   38.9150   26.8080   42.0150 C   0  0  0  0  0  0  0  0  0  0  0  0
   39.9410   26.7370   42.9080 N   0  0  0  0  0  0  0  0  0  0  0  0
   40.2480   25.5560   43.5140 C   0  0  0  0  0  0  0  0  0  0  0  0
   39.5480   24.4370   43.2450 N   0  0  0  0  0  0  0  0  0  0  0  0
   37.9210   23.6260   42.1000 H   0  0  0  0  0  0  0  0  0  0  0  0
   37.3560   25.7100   41.0110 H   0  0  0  0  0  0  0  0  0  0  0  0
   41.0560   25.4790   44.2240 H   0  0  0  0  0  0  0  0  0  0  0  0
   37.5320   30.3140   41.4300 C   0  0  0  0  0  0  0  0  0  0  0  0
   38.4320   31.2140   40.9990 N   0  0  0  0  0  0  0  0  0  0  0  0
   37.7710   32.2940   40.4880 C   0  0  0  0  0  0  0  0  0  0  0  0
   38.2160   33.1850   40.0640 H   0  0  0  0  0  0  0  0  0  0  0  0
   36.4600   32.0280   40.6190 N   0  0  0  0  0  0  0  0  0  0  0  0
   35.6540   32.6450   40.3280 H   0  0  0  0  0  0  0  0  0  0  0  0
   36.3250   30.8210   41.1920 N   0  0  0  0  0  0  0  0  0  0  0  0
  1  2  2  0  0  0  0
  3  7  1  0  0  0  0
  3  1  1  0  0  0  0
  4  3  1  0  0  0  0
  5 10  1  0  0  0  0
  6  7  1  0  0  0  0
  6  5  2  0  0  0  0
  7  8  2  0  0  0  0
  8  9  1  0  0  0  0
  9 13  1  0  0  0  0
 10  9  2  0  0  0  0
 11  5  1  0  0  0  0
 12  6  1  0  0  0  0
 14  1  1  0  0  0  0
 15 14  1  0  0  0  0
 16 18  1  0  0  0  0
 16 15  2  0  0  0  0
 17 16  1  0  0  0  0
 18 20  1  0  0  0  0
 19 18  1  0  0  0  0
 20 14  2  0  0  0  0
M  END
>  <minimizedAffinity>
-4.22928476

$$$$

 OpenBabel03252503363D

 20 21  0  0  0  0  0  0  0  0999 V2000
   38.4370   30.5550   40.9190 C   0  0  0  0  0  0  0  0  0  0  0  0
   39.2850   29.8400   40.3230 O   0  0  0  0  0  0  0  0  0  0  0  0
   37.7530   29.9150   41.9840 N   0  0  0  0  0  0  0  0  0  0  0  0
   37.0340   30.4280   42.5740 H   0  0  0  0  0  0  0  0  0  0  0  0
   37.5290   26.1960   42.1640 C   0  0  0  0  0  0  0  0  0  0  0  0
   37.2120   27.5090   41.7920 C   0  0  0  0  0  0  0  0  0  0  0  0
   38.0040   28.5490   42.3080 C   0  0  0  0  0  0  0  0  0  0  0  0
   39.0400   28.2510   43.1410 N   0  0  0  0  0  0  0  0  0  0  0  0
   39.3090   26.9580   43.4730 C   0  0  0  0  0  0  0  0  0  0  0  0
   38.5610   25.9480   42.9870 N   0  0  0  0  0  0  0  0  0  0  0  0
   36.8860   25.4610   41.7340 H   0  0  0  0  0  0  0  0  0  0  0  0
   36.3880   27.7490   41.1300 H   0  0  0  0  0  0  0  0  0  0  0  0
   40.1240   26.7010   44.1310 H   0  0  0  0  0  0  0  0  0  0  0  0
   38.1530   31.9390   40.5670 C   0  0  0  0  0  0  0  0  0  0  0  0
   38.9610   33.0020   40.7190 N   0  0  0  0  0  0  0  0  0  0  0  0
   38.3190   34.1180   40.2640 C   0  0  0  0  0  0  0  0  0  0  0  0
   38.7050   35.1290   40.2520 H   0  0  0  0  0  0  0  0  0  0  0  0
   37.1120   33.7080   39.8370 N   0  0  0  0  0  0  0  0  0  0  0  0
   36.3480   34.3050   39.4210 H   0  0  0  0  0  0  0  0  0  0  0  0
   37.0220   32.3810   40.0260 N   0  0  0  0  0  0  0  0  0  0  0  0
  1  3  1  0  0  0  0
  2  1  2  0  0  0  0
  3  7  1  0  0  0  0
  3  4  1  0  0  0  0
  5 10  1  0  0  0  0
  6  5  2  0  0  0  0
  6  7  1  0  0  0  0
  7  8  2  0  0  0  0
  8  9  1  0  0  0  0
  9 13  1  0  0  0  0
 10  9  2  0  0  0  0
 11  5  1  0  0  0  0
 12  6  1  0  0  0  0
 14 15  1  0  0  0  0
 14  1  1  0  0  0  0
 16 15  2  0  0  0  0
 17 16  1  0  0  0  0
 18 20  1  0  0  0  0
 18 16  1  0  0  0  0
 19 18  1  0  0  0  0
 20 14  2  0  0  0  0
M  END
>  <minimizedAffinity>
-4.21577787

$$$$

 OpenBabel03252503363D

 20 21  0  0  0  0  0  0  0  0999 V2000
   37.6690   29.2810   41.7580 C   0  0  0  0  0  0  0  0  0  0  0  0
   37.4150   28.9810   42.9540 O   0  0  0  0  0  0  0  0  0  0  0  0
   38.0330   28.1890   40.9290 N   0  0  0  0  0  0  0  0  0  0  0  0
   38.2450   28.3190   39.8960 H   0  0  0  0  0  0  0  0  0  0  0  0
   39.3370   25.0590   42.4840 C   0  0  0  0  0  0  0  0  0  0  0  0
   39.3310   26.3720   41.9940 C   0  0  0  0  0  0  0  0  0  0  0  0
   38.1320   26.8650   41.4510 C   0  0  0  0  0  0  0  0  0  0  0  0
   37.0320   26.0630   41.4190 N   0  0  0  0  0  0  0  0  0  0  0  0
   37.0880   24.7930   41.9080 C   0  0  0  0  0  0  0  0  0  0  0  0
   38.2290   24.3030   42.4330 N   0  0  0  0  0  0  0  0  0  0  0  0
   40.2810   24.7540   42.8810 H   0  0  0  0  0  0  0  0  0  0  0  0
   40.2050   27.0130   42.0190 H   0  0  0  0  0  0  0  0  0  0  0  0
   36.2290   24.1420   41.8910 H   0  0  0  0  0  0  0  0  0  0  0  0
   37.6040   30.6360   41.2310 C   0  0  0  0  0  0  0  0  0  0  0  0
   38.6290   31.4770   41.0120 N   0  0  0  0  0  0  0  0  0  0  0  0
   38.1430   32.6510   40.5110 C   0  0  0  0  0  0  0  0  0  0  0  0
   38.7180   33.5250   40.2340 H   0  0  0  0  0  0  0  0  0  0  0  0
   36.8100   32.5010   40.4340 N   0  0  0  0  0  0  0  0  0  0  0  0
   36.1090   33.2120   40.0900 H   0  0  0  0  0  0  0  0  0  0  0  0
   36.4920   31.2730   40.8740 N   0  0  0  0  0  0  0  0  0  0  0  0
  1  2  2  0  0  0  0
  3  7  1  0  0  0  0
  3  1  1  0  0  0  0
  4  3  1  0  0  0  0
  5 11  1  0  0  0  0
  6 12  1  0  0  0  0
  6  5  2  0  0  0  0
  7  6  1  0  0  0  0
  8  7  2  0  0  0  0
  8  9  1  0  0  0  0
  9 10  2  0  0  0  0
 10  5  1  0  0  0  0
 13  9  1  0  0  0  0
 14  1  1  0  0  0  0
 15 14  1  0  0  0  0
 16 15  2  0  0  0  0
 17 16  1  0  0  0  0
 18 16  1  0  0  0  0
 18 20  1  0  0  0  0
 19 18  1  0  0  0  0
 20 14  2  0  0  0  0
M  END
>  <minimizedAffinity>
-4.10861444

$$$$

 OpenBabel03252503363D

 20 21  0  0  0  0  0  0  0  0999 V2000
   38.6670   30.8200   39.8080 C   0  0  0  0  0  0  0  0  0  0  0  0
   37.6150   31.2800   40.3260 O   0  0  0  0  0  0  0  0  0  0  0  0
   39.0870   29.5640   40.3160 N   0  0  0  0  0  0  0  0  0  0  0  0
   39.9460   29.0680   39.9360 H   0  0  0  0  0  0  0  0  0  0  0  0
   37.8850   28.4840   43.6780 C   0  0  0  0  0  0  0  0  0  0  0  0
   38.6380   29.1720   42.7160 C   0  0  0  0  0  0  0  0  0  0  0  0
   38.3690   28.9110   41.3620 C   0  0  0  0  0  0  0  0  0  0  0  0
   37.3990   28.0140   41.0320 N   0  0  0  0  0  0  0  0  0  0  0  0
   36.6930   27.3710   42.0040 C   0  0  0  0  0  0  0  0  0  0  0  0
   36.9370   27.6080   43.3080 N   0  0  0  0  0  0  0  0  0  0  0  0
   38.1440   28.7330   44.6840 H   0  0  0  0  0  0  0  0  0  0  0  0
   39.4110   29.8860   42.9760 H   0  0  0  0  0  0  0  0  0  0  0  0
   35.9230   26.6570   41.7640 H   0  0  0  0  0  0  0  0  0  0  0  0
   39.4210   31.5000   38.7660 C   0  0  0  0  0  0  0  0  0  0  0  0
   40.6450   32.0450   38.8680 N   0  0  0  0  0  0  0  0  0  0  0  0
   40.9940   32.5840   37.6620 C   0  0  0  0  0  0  0  0  0  0  0  0
   41.9180   33.0940   37.4230 H   0  0  0  0  0  0  0  0  0  0  0  0
   39.9590   32.3540   36.8360 N   0  0  0  0  0  0  0  0  0  0  0  0
   39.8820   32.6340   35.8200 H   0  0  0  0  0  0  0  0  0  0  0  0
   39.0080   31.6940   37.5170 N   0  0  0  0  0  0  0  0  0  0  0  0
  1  3  1  0  0  0  0
  1  2  2  0  0  0  0
  3  7  1  0  0  0  0
  4  3  1  0  0  0  0
  5 11  1  0  0  0  0
  6 12  1  0  0  0  0
  6  5  2  0  0  0  0
  7  6  1  0  0  0  0
  8  7  2  0  0  0  0
  8  9  1  0  0  0  0
  9 10  2  0  0  0  0
 10  5  1  0  0  0  0
 13  9  1  0  0  0  0
 14 15  1  0  0  0  0
 14  1  1  0  0  0  0
 16 15  2  0  0  0  0
 17 16  1  0  0  0  0
 18 20  1  0  0  0  0
 18 16  1  0  0  0  0
 19 18  1  0  0  0  0
 20 14  2  0  0  0  0
M  END
>  <minimizedAffinity>
-3.96208906

$$$$

 OpenBabel03252503363D

 20 21  0  0  0  0  0  0  0  0999 V2000
   40.6730   31.7540   39.2720 C   0  0  0  0  0  0  0  0  0  0  0  0
   40.5560   30.5330   38.9870 O   0  0  0  0  0  0  0  0  0  0  0  0
   39.9290   32.1810   40.4010 N   0  0  0  0  0  0  0  0  0  0  0  0
   39.9700   33.1840   40.7510 H   0  0  0  0  0  0  0  0  0  0  0  0
   38.6760   29.6590   42.8470 C   0  0  0  0  0  0  0  0  0  0  0  0
   39.5710   30.5220   42.2010 C   0  0  0  0  0  0  0  0  0  0  0  0
   39.0890   31.2780   41.1190 C   0  0  0  0  0  0  0  0  0  0  0  0
   37.7870   31.1500   40.7390 N   0  0  0  0  0  0  0  0  0  0  0  0
   36.9560   30.2980   41.4010 C   0  0  0  0  0  0  0  0  0  0  0  0
   37.4000   29.5650   42.4410 N   0  0  0  0  0  0  0  0  0  0  0  0
   39.1120   29.1180   43.6590 H   0  0  0  0  0  0  0  0  0  0  0  0
   40.6080   30.6250   42.5000 H   0  0  0  0  0  0  0  0  0  0  0  0
   35.9230   30.1810   41.1160 H   0  0  0  0  0  0  0  0  0  0  0  0
   41.5010   32.6860   38.5210 C   0  0  0  0  0  0  0  0  0  0  0  0
   42.5430   33.4020   38.9760 N   0  0  0  0  0  0  0  0  0  0  0  0
   43.0470   34.1530   37.9530 C   0  0  0  0  0  0  0  0  0  0  0  0
   43.8870   34.8350   38.0010 H   0  0  0  0  0  0  0  0  0  0  0  0
   42.2910   33.8760   36.8770 N   0  0  0  0  0  0  0  0  0  0  0  0
   42.3950   34.2780   35.9060 H   0  0  0  0  0  0  0  0  0  0  0  0
   41.3540   32.9820   37.2320 N   0  0  0  0  0  0  0  0  0  0  0  0
  1  3  1  0  0  0  0
  2  1  2  0  0  0  0
  3  4  1  0  0  0  0
  3  7  1  0  0  0  0
  5 11  1  0  0  0  0
  6 12  1  0  0  0  0
  6  5  2  0  0  0  0
  7  6  1  0  0  0  0
  8  7  2  0  0  0  0
  8  9  1  0  0  0  0
  9 10  2  0  0  0  0
 10  5  1  0  0  0  0
 13  9  1  0  0  0  0
 14 15  1  0  0  0  0
 14  1  1  0  0  0  0
 16 17  1  0  0  0  0
 16 15  2  0  0  0  0
 18 20  1  0  0  0  0
 18 16  1  0  0  0  0
 19 18  1  0  0  0  0
 20 14  2  0  0  0  0
M  END
>  <minimizedAffinity>
-3.89074683

$$$$

 OpenBabel03252503363D

 20 21  0  0  0  0  0  0  0  0999 V2000
   36.3830   28.3090   40.1410 C   0  0  0  0  0  0  0  0  0  0  0  0
   36.5150   27.2580   39.4620 O   0  0  0  0  0  0  0  0  0  0  0  0
   35.8750   29.4260   39.4280 N   0  0  0  0  0  0  0  0  0  0  0  0
   35.6990   30.3590   39.9040 H   0  0  0  0  0  0  0  0  0  0  0  0
   34.1140   28.8840   36.1850 C   0  0  0  0  0  0  0  0  0  0  0  0
   34.3160   28.9390   37.5710 C   0  0  0  0  0  0  0  0  0  0  0  0
   35.5800   29.3410   38.0350 C   0  0  0  0  0  0  0  0  0  0  0  0
   36.5530   29.6610   37.1370 N   0  0  0  0  0  0  0  0  0  0  0  0
   36.3070   29.5920   35.7990 C   0  0  0  0  0  0  0  0  0  0  0  0
   35.1010   29.2090   35.3360 N   0  0  0  0  0  0  0  0  0  0  0  0
   33.1310   28.5720   35.9070 H   0  0  0  0  0  0  0  0  0  0  0  0
   33.5430   28.6860   38.2880 H   0  0  0  0  0  0  0  0  0  0  0  0
   37.0630   29.8390   35.0720 H   0  0  0  0  0  0  0  0  0  0  0  0
   36.7180   28.4090   41.5540 C   0  0  0  0  0  0  0  0  0  0  0  0
   36.6960   27.4250   42.4690 N   0  0  0  0  0  0  0  0  0  0  0  0
   37.0790   27.9320   43.6780 C   0  0  0  0  0  0  0  0  0  0  0  0
   37.1620   27.3920   44.6120 H   0  0  0  0  0  0  0  0  0  0  0  0
   37.3320   29.2360   43.4730 N   0  0  0  0  0  0  0  0  0  0  0  0
   37.6520   29.9430   44.1900 H   0  0  0  0  0  0  0  0  0  0  0  0
   37.1100   29.5160   42.1780 N   0  0  0  0  0  0  0  0  0  0  0  0
  1 14  1  0  0  0  0
  2  1  2  0  0  0  0
  3  4  1  0  0  0  0
  3  1  1  0  0  0  0
  5  6  1  0  0  0  0
  6  7  2  0  0  0  0
  6 12  1  0  0  0  0
  7  3  1  0  0  0  0
  8  7  1  0  0  0  0
  9  8  2  0  0  0  0
 10  9  1  0  0  0  0
 10  5  2  0  0  0  0
 11  5  1  0  0  0  0
 13  9  1  0  0  0  0
 14 20  2  0  0  0  0
 14 15  1  0  0  0  0
 15 16  2  0  0  0  0
 16 17  1  0  0  0  0
 18 16  1  0  0  0  0
 18 19  1  0  0  0  0
 20 18  1  0  0  0  0
M  END
>  <minimizedAffinity>
-3.82965326

$$$$

 OpenBabel03252503363D

 20 21  0  0  0  0  0  0  0  0999 V2000
   37.5870   28.8490   40.2700 C   0  0  0  0  0  0  0  0  0  0  0  0
   37.4880   28.0190   39.3290 O   0  0  0  0  0  0  0  0  0  0  0  0
   37.9710   28.2990   41.5200 N   0  0  0  0  0  0  0  0  0  0  0  0
   38.1100   28.9080   42.3790 H   0  0  0  0  0  0  0  0  0  0  0  0
   37.4490   24.6630   42.1690 C   0  0  0  0  0  0  0  0  0  0  0  0
   37.1470   26.0250   42.0380 C   0  0  0  0  0  0  0  0  0  0  0  0
   38.1870   26.8970   41.6750 C   0  0  0  0  0  0  0  0  0  0  0  0
   39.4370   26.3990   41.4650 N   0  0  0  0  0  0  0  0  0  0  0  0
   39.6810   25.0660   41.6040 C   0  0  0  0  0  0  0  0  0  0  0  0
   38.6960   24.2140   41.9510 N   0  0  0  0  0  0  0  0  0  0  0  0
   36.6110   24.0620   42.4460 H   0  0  0  0  0  0  0  0  0  0  0  0
   36.1530   26.4240   42.2050 H   0  0  0  0  0  0  0  0  0  0  0  0
   40.6630   24.6510   41.4430 H   0  0  0  0  0  0  0  0  0  0  0  0
   37.3320   30.2750   40.1230 C   0  0  0  0  0  0  0  0  0  0  0  0
   37.7240   31.0750   39.1170 N   0  0  0  0  0  0  0  0  0  0  0  0
   37.2810   32.3440   39.3590 C   0  0  0  0  0  0  0  0  0  0  0  0
   37.4360   33.2150   38.7350 H   0  0  0  0  0  0  0  0  0  0  0  0
   36.6150   32.2920   40.5250 N   0  0  0  0  0  0  0  0  0  0  0  0
   36.1360   33.0930   41.0200 H   0  0  0  0  0  0  0  0  0  0  0  0
   36.6520   31.0300   40.9820 N   0  0  0  0  0  0  0  0  0  0  0  0
  1  3  1  0  0  0  0
  2  1  2  0  0  0  0
  3  7  1  0  0  0  0
  3  4  1  0  0  0  0
  5 11  1  0  0  0  0
  6  5  1  0  0  0  0
  6 12  1  0  0  0  0
  7  6  2  0  0  0  0
  8  9  2  0  0  0  0
  8  7  1  0  0  0  0
  9 10  1  0  0  0  0
 10  5  2  0  0  0  0
 13  9  1  0  0  0  0
 14  1  1  0  0  0  0
 14 20  2  0  0  0  0
 15 16  2  0  0  0  0
 15 14  1  0  0  0  0
 16 18  1  0  0  0  0
 17 16  1  0  0  0  0
 18 20  1  0  0  0  0
 18 19  1  0  0  0  0
M  END
>  <minimizedAffinity>
-3.79404879

$$$$

 OpenBabel03252503363D

 20 21  0  0  0  0  0  0  0  0999 V2000
   39.9490   30.6840   40.1350 C   0  0  0  0  0  0  0  0  0  0  0  0
   40.4320   30.9930   41.2560 O   0  0  0  0  0  0  0  0  0  0  0  0
   39.0710   29.5700   40.1460 N   0  0  0  0  0  0  0  0  0  0  0  0
   38.5850   29.2340   39.2630 H   0  0  0  0  0  0  0  0  0  0  0  0
   39.2500   27.1070   42.9410 C   0  0  0  0  0  0  0  0  0  0  0  0
   39.5870   27.7550   41.7450 C   0  0  0  0  0  0  0  0  0  0  0  0
   38.8020   28.8510   41.3480 C   0  0  0  0  0  0  0  0  0  0  0  0
   37.7560   29.2440   42.1280 N   0  0  0  0  0  0  0  0  0  0  0  0
   37.4700   28.5820   43.2830 C   0  0  0  0  0  0  0  0  0  0  0  0
   38.2110   27.5280   43.6800 N   0  0  0  0  0  0  0  0  0  0  0  0
   39.8900   26.2850   43.1780 H   0  0  0  0  0  0  0  0  0  0  0  0
   40.4190   27.4450   41.1230 H   0  0  0  0  0  0  0  0  0  0  0  0
   36.6470   28.8750   43.9140 H   0  0  0  0  0  0  0  0  0  0  0  0
   40.2490   31.3920   38.9000 C   0  0  0  0  0  0  0  0  0  0  0  0
   41.4170   31.9550   38.5440 N   0  0  0  0  0  0  0  0  0  0  0  0
   41.2810   32.5190   37.3080 C   0  0  0  0  0  0  0  0  0  0  0  0
   42.0420   33.0480   36.7490 H   0  0  0  0  0  0  0  0  0  0  0  0
   40.0140   32.2860   36.9270 N   0  0  0  0  0  0  0  0  0  0  0  0
   39.5570   32.5810   36.0220 H   0  0  0  0  0  0  0  0  0  0  0  0
   39.3950   31.6000   37.9020 N   0  0  0  0  0  0  0  0  0  0  0  0
  1  3  1  0  0  0  0
  1  2  2  0  0  0  0
  3  7  1  0  0  0  0
  4  3  1  0  0  0  0
  5 11  1  0  0  0  0
  5 10  1  0  0  0  0
  6  5  2  0  0  0  0
  7  6  1  0  0  0  0
  7  8  2  0  0  0  0
  8  9  1  0  0  0  0
  9 10  2  0  0  0  0
  9 13  1  0  0  0  0
 12  6  1  0  0  0  0
 14  1  1  0  0  0  0
 15 14  1  0  0  0  0
 16 15  2  0  0  0  0
 17 16  1  0  0  0  0
 18 16  1  0  0  0  0
 18 20  1  0  0  0  0
 19 18  1  0  0  0  0
 20 14  2  0  0  0  0
M  END
>  <minimizedAffinity>
-3.71510887

$$$$

 OpenBabel03252503363D

 20 21  0  0  0  0  0  0  0  0999 V2000
   38.3530   27.5730   42.3990 C   0  0  0  0  0  0  0  0  0  0  0  0
   37.8590   28.3050   43.2960 O   0  0  0  0  0  0  0  0  0  0  0  0
   38.5520   28.2100   41.1470 N   0  0  0  0  0  0  0  0  0  0  0  0
   38.9860   27.6980   40.3230 H   0  0  0  0  0  0  0  0  0  0  0  0
   36.5970   31.2850   40.3510 C   0  0  0  0  0  0  0  0  0  0  0  0
   36.8790   29.9240   40.5300 C   0  0  0  0  0  0  0  0  0  0  0  0
   38.1760   29.5700   40.9400 C   0  0  0  0  0  0  0  0  0  0  0  0
   39.1030   30.5460   41.1480 N   0  0  0  0  0  0  0  0  0  0  0  0
   38.7800   31.8560   40.9610 C   0  0  0  0  0  0  0  0  0  0  0  0
   37.5410   32.2150   40.5680 N   0  0  0  0  0  0  0  0  0  0  0  0
   35.5940   31.4780   40.0400 H   0  0  0  0  0  0  0  0  0  0  0  0
   36.1430   29.1450   40.3660 H   0  0  0  0  0  0  0  0  0  0  0  0
   39.4980   32.6440   41.1190 H   0  0  0  0  0  0  0  0  0  0  0  0
   38.7050   26.1750   42.5960 C   0  0  0  0  0  0  0  0  0  0  0  0
   39.8390   25.6850   43.1260 N   0  0  0  0  0  0  0  0  0  0  0  0
   39.7740   24.3210   43.1330 C   0  0  0  0  0  0  0  0  0  0  0  0
   40.5300   23.6370   43.4950 H   0  0  0  0  0  0  0  0  0  0  0  0
   38.5830   24.0000   42.5980 N   0  0  0  0  0  0  0  0  0  0  0  0
   38.1940   23.0300   42.4470 H   0  0  0  0  0  0  0  0  0  0  0  0
   37.9400   25.1350   42.2760 N   0  0  0  0  0  0  0  0  0  0  0  0
  1 14  1  0  0  0  0
  1  2  2  0  0  0  0
  3  1  1  0  0  0  0
  4  3  1  0  0  0  0
  5  6  2  0  0  0  0
  5 10  1  0  0  0  0
  6  7  1  0  0  0  0
  7  3  1  0  0  0  0
  7  8  2  0  0  0  0
  9 13  1  0  0  0  0
  9  8  1  0  0  0  0
 10  9  2  0  0  0  0
 11  5  1  0  0  0  0
 12  6  1  0  0  0  0
 14 15  1  0  0  0  0
 15 16  2  0  0  0  0
 16 17  1  0  0  0  0
 18 16  1  0  0  0  0
 19 18  1  0  0  0  0
 20 14  2  0  0  0  0
 20 18  1  0  0  0  0
M  END
>  <minimizedAffinity>
-3.70293832

$$$$
