
 OpenBabel03252509313D

 25 26  0  0  0  0  0  0  0  0999 V2000
   48.2900   33.3400   43.4390 O   0  0  0  0  0  0  0  0  0  0  0  0
   46.9790   33.3770   42.9920 C   0  0  0  0  0  0  0  0  0  0  0  0
   46.6720   32.3350   42.7840 H   0  0  0  0  0  0  0  0  0  0  0  0
   46.8660   33.9000   42.0090 H   0  0  0  0  0  0  0  0  0  0  0  0
   45.0900   34.2980   46.0670 C   0  0  0  0  0  0  0  0  0  0  0  0
   45.9310   33.5830   45.1910 C   0  0  0  0  0  0  0  0  0  0  0  0
   46.1110   34.1020   43.9180 C   0  0  0  0  0  0  0  0  0  0  0  0
   45.4720   35.2660   43.5860 N   0  0  0  0  0  0  0  0  0  0  0  0
   44.6740   35.9220   44.4560 C   0  0  0  0  0  0  0  0  0  0  0  0
   44.4920   35.4340   45.6810 N   0  0  0  0  0  0  0  0  0  0  0  0
   44.8880   33.9770   47.0720 H   0  0  0  0  0  0  0  0  0  0  0  0
   46.3920   32.6820   45.5300 H   0  0  0  0  0  0  0  0  0  0  0  0
   44.2620   36.8210   44.0010 H   0  0  0  0  0  0  0  0  0  0  0  0
   50.0640   33.0450   41.5430 O   0  0  0  0  0  0  0  0  0  0  0  0
   49.2440   34.0860   42.2440 P   0  0  2  0  0  0  0  0  0  0  0  0
   50.1670   35.2680   43.0170 O   0  0  0  0  0  0  0  0  0  0  0  0
   50.1350   36.1480   42.5820 H   0  0  0  0  0  0  0  0  0  0  0  0
   48.2110   34.8030   41.1310 O   0  0  0  0  0  0  0  0  0  0  0  0
   48.0520   34.4420   39.8020 C   0  0  0  0  0  0  0  0  0  0  0  0
   48.6140   34.8570   38.6520 N   0  0  0  0  0  0  0  0  0  0  0  0
   48.1080   34.1750   37.6120 C   0  0  0  0  0  0  0  0  0  0  0  0
   48.3400   34.2610   36.5600 H   0  0  0  0  0  0  0  0  0  0  0  0
   47.2210   33.3360   38.1770 N   0  0  0  0  0  0  0  0  0  0  0  0
   46.6440   32.6530   37.6200 H   0  0  0  0  0  0  0  0  0  0  0  0
   47.1550   33.4620   39.4930 N   0  0  0  0  0  0  0  0  0  0  0  0
  2  1  1  0  0  0  0
  2  7  1  0  0  0  0
  3  2  1  0  0  0  0
  4  2  1  0  0  0  0
  5 11  1  0  0  0  0
  6 12  1  0  0  0  0
  6  5  2  0  0  0  0
  7  6  1  0  0  0  0
  8  7  2  0  0  0  0
  8  9  1  0  0  0  0
  9 10  2  0  0  0  0
 10  5  1  0  0  0  0
 13  9  1  0  0  0  0
 15 14  2  6  0  0  0
 15 16  1  0  0  0  0
 15  1  1  0  0  0  0
 17 16  1  0  0  0  0
 18 15  1  0  0  0  0
 19 18  1  0  0  0  0
 20 19  1  0  0  0  0
 21 23  1  0  0  0  0
 21 20  2  0  0  0  0
 22 21  1  0  0  0  0
 23 25  1  0  0  0  0
 24 23  1  0  0  0  0
 25 19  2  0  0  0  0
M  END
>  <minimizedAffinity>
-4.77455378

>  <minimizedRMSD>
1.07510805

$$$$
