
 OpenBabel03242516283D

 44 48  0  0  0  0  0  0  0  0999 V2000
   49.8010   30.2570   49.5910 C   0  0  0  0  0  0  0  0  0  0  0  0
   50.0170   31.5000   50.1160 N   0  0  0  0  0  0  0  0  0  0  0  0
   50.7370   31.7240   51.2100 C   0  0  0  0  0  0  0  0  0  0  0  0
   51.2740   30.6670   51.8220 N   0  0  0  0  0  0  0  0  0  0  0  0
   51.1130   29.4190   51.3770 C   0  0  0  0  0  0  0  0  0  0  0  0
   51.6770   28.3110   51.9990 C   0  0  0  0  0  0  0  0  0  0  0  0
   51.5080   27.0540   51.5230 C   0  0  0  0  0  0  0  0  0  0  0  0
   50.7660   26.8450   50.4050 C   0  0  0  0  0  0  0  0  0  0  0  0
   50.1710   27.9210   49.7350 C   0  0  0  0  0  0  0  0  0  0  0  0
   50.3530   29.1810   50.2240 C   0  0  0  0  0  0  0  0  0  0  0  0
   50.8620   32.7370   51.5630 H   0  0  0  0  0  0  0  0  0  0  0  0
   52.2530   28.5440   52.8810 H   0  0  0  0  0  0  0  0  0  0  0  0
   51.9770   26.2230   52.0540 H   0  0  0  0  0  0  0  0  0  0  0  0
   50.6660   25.8160   50.0720 H   0  0  0  0  0  0  0  0  0  0  0  0
   49.3550   27.5710   48.5510 C   0  0  0  0  0  0  0  0  0  0  0  0
   48.3140   27.9000   48.5810 H   0  0  0  0  0  0  0  0  0  0  0  0
   49.8900   27.6480   47.5840 H   0  0  0  0  0  0  0  0  0  0  0  0
   49.0940   26.0700   48.5340 C   0  0  0  0  0  0  0  0  0  0  0  0
   49.8260   25.0790   47.9400 N   0  0  0  0  0  0  0  0  0  0  0  0
   49.2590   23.8860   48.1530 C   0  0  0  0  0  0  0  0  0  0  0  0
   49.6790   22.9660   47.7670 H   0  0  0  0  0  0  0  0  0  0  0  0
   48.1560   24.0980   48.8850 N   0  0  0  0  0  0  0  0  0  0  0  0
   47.4920   23.3660   49.2180 H   0  0  0  0  0  0  0  0  0  0  0  0
   48.0660   25.3790   49.1050 N   0  0  0  0  0  0  0  0  0  0  0  0
   48.9000   30.0300   48.1400 S   0  0  0  0  0  0  0  0  0  0  0  0
   46.1150   32.6430   46.9460 C   0  0  0  0  0  0  0  0  0  0  0  0
   47.2460   31.8410   47.0180 C   0  0  0  0  0  0  0  0  0  0  0  0
   47.4440   31.0030   48.0850 C   0  0  0  0  0  0  0  0  0  0  0  0
   46.5210   30.9420   49.1030 C   0  0  0  0  0  0  0  0  0  0  0  0
   45.3960   31.7100   49.0760 C   0  0  0  0  0  0  0  0  0  0  0  0
   45.2160   32.5480   47.9930 C   0  0  0  0  0  0  0  0  0  0  0  0
   47.9440   31.9190   46.1990 H   0  0  0  0  0  0  0  0  0  0  0  0
   46.7110   30.2720   49.9210 H   0  0  0  0  0  0  0  0  0  0  0  0
   44.6750   31.6560   49.8810 H   0  0  0  0  0  0  0  0  0  0  0  0
   44.3340   33.1520   47.9680 H   0  0  0  0  0  0  0  0  0  0  0  0
   44.7250   35.3350   44.9060 C   0  0  0  0  0  0  0  0  0  0  0  0
   45.4730   35.2580   43.7040 C   0  0  0  0  0  0  0  0  0  0  0  0
   46.4550   34.2780   43.5990 C   0  0  0  0  0  0  0  0  0  0  0  0
   46.6780   33.4180   44.6430 N   0  0  0  0  0  0  0  0  0  0  0  0
   45.9190   33.5370   45.7950 C   0  0  0  0  0  0  0  0  0  0  0  0
   44.9540   34.4830   45.9240 N   0  0  0  0  0  0  0  0  0  0  0  0
   43.9500   36.0720   45.0490 H   0  0  0  0  0  0  0  0  0  0  0  0
   45.2650   35.9560   42.9050 H   0  0  0  0  0  0  0  0  0  0  0  0
   47.0480   34.1860   42.7000 H   0  0  0  0  0  0  0  0  0  0  0  0
  1  2  2  0  0  0  0
  1 10  1  0  0  0  0
  2  3  1  0  0  0  0
  3 11  1  0  0  0  0
  3  4  2  0  0  0  0
  5  4  1  0  0  0  0
  5  6  1  0  0  0  0
  6 12  1  0  0  0  0
  7  6  2  0  0  0  0
  7 13  1  0  0  0  0
  8  7  1  0  0  0  0
  9 10  1  0  0  0  0
  9  8  2  0  0  0  0
 10  5  2  0  0  0  0
 14  8  1  0  0  0  0
 15 16  1  0  0  0  0
 15  9  1  0  0  0  0
 17 15  1  0  0  0  0
 18 15  1  0  0  0  0
 18 24  2  0  0  0  0
 19 20  2  0  0  0  0
 19 18  1  0  0  0  0
 20 22  1  0  0  0  0
 21 20  1  0  0  0  0
 22 24  1  0  0  0  0
 22 23  1  0  0  0  0
 25  1  1  0  0  0  0
 26 27  2  0  0  0  0
 26 31  1  0  0  0  0
 27 28  1  0  0  0  0
 28 25  1  0  0  0  0
 28 29  2  0  0  0  0
 29 33  1  0  0  0  0
 30 29  1  0  0  0  0
 30 34  1  0  0  0  0
 31 30  2  0  0  0  0
 32 27  1  0  0  0  0
 35 31  1  0  0  0  0
 36 42  1  0  0  0  0
 36 41  1  0  0  0  0
 37 36  2  0  0  0  0
 38 37  1  0  0  0  0
 38 39  2  0  0  0  0
 39 40  1  0  0  0  0
 40 41  2  0  0  0  0
 40 26  1  0  0  0  0
 43 37  1  0  0  0  0
 44 38  1  0  0  0  0
M  END
>  <minimizedAffinity>
-6.58819723

>  <minimizedRMSD>
0.423113912

$$$$
