
 OpenBabel03252509313D

 25 26  0  0  0  0  0  0  0  0999 V2000
   48.2890   33.3250   43.4160 O   0  0  0  0  0  0  0  0  0  0  0  0
   46.9900   33.4180   42.9410 C   0  0  0  0  0  0  0  0  0  0  0  0
   46.6600   32.3960   42.6820 H   0  0  0  0  0  0  0  0  0  0  0  0
   46.9160   33.9850   41.9790 H   0  0  0  0  0  0  0  0  0  0  0  0
   45.1020   34.2950   46.0290 C   0  0  0  0  0  0  0  0  0  0  0  0
   45.9450   33.5950   45.1440 C   0  0  0  0  0  0  0  0  0  0  0  0
   46.1200   34.1280   43.8770 C   0  0  0  0  0  0  0  0  0  0  0  0
   45.4750   35.2930   43.5590 N   0  0  0  0  0  0  0  0  0  0  0  0
   44.6750   35.9350   44.4370 C   0  0  0  0  0  0  0  0  0  0  0  0
   44.4970   35.4320   45.6580 N   0  0  0  0  0  0  0  0  0  0  0  0
   44.9040   33.9620   47.0310 H   0  0  0  0  0  0  0  0  0  0  0  0
   46.4110   32.6920   45.4720 H   0  0  0  0  0  0  0  0  0  0  0  0
   44.2580   36.8370   43.9940 H   0  0  0  0  0  0  0  0  0  0  0  0
   50.1250   33.0670   41.5750 O   0  0  0  0  0  0  0  0  0  0  0  0
   49.2910   34.0960   42.2790 P   0  0  2  0  0  0  0  0  0  0  0  0
   50.1980   35.2440   43.1190 O   0  0  0  0  0  0  0  0  0  0  0  0
   50.1900   36.1380   42.7100 H   0  0  0  0  0  0  0  0  0  0  0  0
   48.3050   34.8580   41.1530 O   0  0  0  0  0  0  0  0  0  0  0  0
   48.1700   34.5220   39.8140 C   0  0  0  0  0  0  0  0  0  0  0  0
   47.4160   33.6230   39.1540 N   0  0  0  0  0  0  0  0  0  0  0  0
   47.6570   33.6910   37.8360 C   0  0  0  0  0  0  0  0  0  0  0  0
   47.2230   33.1140   37.0300 H   0  0  0  0  0  0  0  0  0  0  0  0
   48.5810   34.6630   37.7260 N   0  0  0  0  0  0  0  0  0  0  0  0
   48.9880   34.9630   36.8010 H   0  0  0  0  0  0  0  0  0  0  0  0
   48.9190   35.1890   38.8910 N   0  0  0  0  0  0  0  0  0  0  0  0
  2  1  1  0  0  0  0
  2  7  1  0  0  0  0
  3  2  1  0  0  0  0
  4  2  1  0  0  0  0
  5 11  1  0  0  0  0
  6 12  1  0  0  0  0
  6  5  2  0  0  0  0
  7  6  1  0  0  0  0
  8  7  2  0  0  0  0
  8  9  1  0  0  0  0
  9 10  2  0  0  0  0
 10  5  1  0  0  0  0
 13  9  1  0  0  0  0
 15 14  2  6  0  0  0
 15 16  1  0  0  0  0
 15  1  1  0  0  0  0
 17 16  1  0  0  0  0
 18 15  1  0  0  0  0
 19 18  1  0  0  0  0
 20 19  1  0  0  0  0
 21 20  2  0  0  0  0
 22 21  1  0  0  0  0
 23 21  1  0  0  0  0
 23 25  1  0  0  0  0
 24 23  1  0  0  0  0
 25 19  2  0  0  0  0
M  END
>  <minimizedAffinity>
-4.76437569

>  <minimizedRMSD>
1.10410023

$$$$
