
 OpenBabel03252509313D

 25 26  0  0  0  0  0  0  0  0999 V2000
   48.3020   33.3370   43.4360 O   0  0  0  0  0  0  0  0  0  0  0  0
   47.0000   33.4080   42.9660 C   0  0  0  0  0  0  0  0  0  0  0  0
   46.6800   32.3790   42.7220 H   0  0  0  0  0  0  0  0  0  0  0  0
   46.9140   33.9620   41.9960 H   0  0  0  0  0  0  0  0  0  0  0  0
   45.1000   34.2940   46.0440 C   0  0  0  0  0  0  0  0  0  0  0  0
   45.9470   33.5910   45.1650 C   0  0  0  0  0  0  0  0  0  0  0  0
   46.1260   34.1210   43.8960 C   0  0  0  0  0  0  0  0  0  0  0  0
   45.4810   35.2840   43.5720 N   0  0  0  0  0  0  0  0  0  0  0  0
   44.6770   35.9280   44.4460 C   0  0  0  0  0  0  0  0  0  0  0  0
   44.4960   35.4290   45.6670 N   0  0  0  0  0  0  0  0  0  0  0  0
   44.8990   33.9640   47.0470 H   0  0  0  0  0  0  0  0  0  0  0  0
   46.4130   32.6900   45.4970 H   0  0  0  0  0  0  0  0  0  0  0  0
   44.2610   36.8290   43.9980 H   0  0  0  0  0  0  0  0  0  0  0  0
   50.0850   33.0410   41.5490 O   0  0  0  0  0  0  0  0  0  0  0  0
   49.2920   34.0870   42.2740 P   0  0  2  0  0  0  0  0  0  0  0  0
   50.2450   35.2130   43.0920 O   0  0  0  0  0  0  0  0  0  0  0  0
   50.2460   36.1080   42.6840 H   0  0  0  0  0  0  0  0  0  0  0  0
   48.2950   34.8720   41.1730 O   0  0  0  0  0  0  0  0  0  0  0  0
   47.9990   34.4540   39.8850 C   0  0  0  0  0  0  0  0  0  0  0  0
   47.1690   33.5230   39.3780 N   0  0  0  0  0  0  0  0  0  0  0  0
   47.2510   33.5050   38.0390 C   0  0  0  0  0  0  0  0  0  0  0  0
   46.7230   32.8830   37.3290 H   0  0  0  0  0  0  0  0  0  0  0  0
   48.1600   34.4570   37.7580 N   0  0  0  0  0  0  0  0  0  0  0  0
   48.4540   34.6960   36.7730 H   0  0  0  0  0  0  0  0  0  0  0  0
   48.6360   35.0520   38.8380 N   0  0  0  0  0  0  0  0  0  0  0  0
  2  1  1  0  0  0  0
  2  7  1  0  0  0  0
  3  2  1  0  0  0  0
  4  2  1  0  0  0  0
  5 11  1  0  0  0  0
  6 12  1  0  0  0  0
  6  5  2  0  0  0  0
  7  6  1  0  0  0  0
  8  7  2  0  0  0  0
  8  9  1  0  0  0  0
  9 10  2  0  0  0  0
 10  5  1  0  0  0  0
 13  9  1  0  0  0  0
 15 14  2  6  0  0  0
 15 16  1  0  0  0  0
 15  1  1  0  0  0  0
 17 16  1  0  0  0  0
 18 15  1  0  0  0  0
 19 18  1  0  0  0  0
 20 19  1  0  0  0  0
 21 20  2  0  0  0  0
 22 21  1  0  0  0  0
 23 21  1  0  0  0  0
 23 25  1  0  0  0  0
 24 23  1  0  0  0  0
 25 19  2  0  0  0  0
M  END
>  <minimizedAffinity>
-4.82532215

>  <minimizedRMSD>
1.10354912

$$$$
