
 OpenBabel03242511503D

 23 25  0  0  1  0  0  0  0  0999 V2000
   37.8600   24.4600   42.1730 C   0  0  1  0  0  0  0  0  0  0  0  0
   36.8250   25.4510   42.4350 C   0  0  2  0  0  0  0  0  0  0  0  0
   36.9550   24.9320   41.0600 C   0  0  0  0  0  0  0  0  0  0  0  0
   37.6940   23.3800   42.4480 H   0  0  0  0  0  0  0  0  0  0  0  0
   35.9360   25.0620   43.0170 H   0  0  0  0  0  0  0  0  0  0  0  0
   36.1640   24.2620   40.6590 H   0  0  0  0  0  0  0  0  0  0  0  0
   37.4800   25.5010   40.2710 H   0  0  0  0  0  0  0  0  0  0  0  0
   39.9990   25.0210   43.3120 C   0  0  0  0  0  0  0  0  0  0  0  0
   39.2950   24.8000   42.1050 C   0  0  0  0  0  0  0  0  0  0  0  0
   40.0120   24.9350   40.9110 C   0  0  0  0  0  0  0  0  0  0  0  0
   41.3270   25.2680   40.9860 N   0  0  0  0  0  0  0  0  0  0  0  0
   41.9700   25.4730   42.1520 C   0  0  0  0  0  0  0  0  0  0  0  0
   41.2950   25.3470   43.3300 N   0  0  0  0  0  0  0  0  0  0  0  0
   39.5810   24.9410   44.2820 H   0  0  0  0  0  0  0  0  0  0  0  0
   39.4800   24.7680   39.9930 H   0  0  0  0  0  0  0  0  0  0  0  0
   43.0190   25.7360   42.1330 H   0  0  0  0  0  0  0  0  0  0  0  0
   37.0310   26.9060   42.5620 C   0  0  0  0  0  0  0  0  0  0  0  0
   37.4770   27.8140   41.6410 N   0  0  0  0  0  0  0  0  0  0  0  0
   37.5190   29.0450   42.1710 C   0  0  0  0  0  0  0  0  0  0  0  0
   37.8460   29.9000   41.5960 H   0  0  0  0  0  0  0  0  0  0  0  0
   37.0970   28.9130   43.4330 N   0  0  0  0  0  0  0  0  0  0  0  0
   37.0400   29.7450   44.0590 H   0  0  0  0  0  0  0  0  0  0  0  0
   36.8060   27.6600   43.6790 N   0  0  0  0  0  0  0  0  0  0  0  0
  1  2  1  0  0  0  0
  1  4  1  1  0  0  0
  2 17  1  0  0  0  0
  2  5  1  1  0  0  0
  3  1  1  0  0  0  0
  3  2  1  0  0  0  0
  6  3  1  0  0  0  0
  7  3  1  0  0  0  0
  8 13  1  0  0  0  0
  8 14  1  0  0  0  0
  9  1  1  0  0  0  0
  9  8  2  0  0  0  0
 10 11  2  0  0  0  0
 10  9  1  0  0  0  0
 11 12  1  0  0  0  0
 12 13  2  0  0  0  0
 15 10  1  0  0  0  0
 16 12  1  0  0  0  0
 17 23  2  0  0  0  0
 18 19  2  0  0  0  0
 18 17  1  0  0  0  0
 19 21  1  0  0  0  0
 20 19  1  0  0  0  0
 21 23  1  0  0  0  0
 21 22  1  0  0  0  0
M  END
>  <minimizedAffinity>
-4.28133154

$$$$

 OpenBabel03242511503D

 23 25  0  0  1  0  0  0  0  0999 V2000
   36.1860   27.8190   40.3500 C   0  0  1  0  0  0  0  0  0  0  0  0
   35.6370   28.9980   39.6940 C   0  0  2  0  0  0  0  0  0  0  0  0
   36.4190   28.0520   38.8760 C   0  0  0  0  0  0  0  0  0  0  0  0
   35.5290   26.9270   40.5560 H   0  0  0  0  0  0  0  0  0  0  0  0
   34.5180   28.9690   39.5310 H   0  0  0  0  0  0  0  0  0  0  0  0
   35.8930   27.4300   38.1210 H   0  0  0  0  0  0  0  0  0  0  0  0
   37.4770   28.2430   38.6180 H   0  0  0  0  0  0  0  0  0  0  0  0
   37.1180   28.1550   42.6320 C   0  0  0  0  0  0  0  0  0  0  0  0
   37.3450   27.8770   41.2630 C   0  0  0  0  0  0  0  0  0  0  0  0
   38.6710   27.6870   40.8580 C   0  0  0  0  0  0  0  0  0  0  0  0
   39.6480   27.7830   41.7980 N   0  0  0  0  0  0  0  0  0  0  0  0
   39.4010   28.0500   43.0950 C   0  0  0  0  0  0  0  0  0  0  0  0
   38.1180   28.2380   43.5150 N   0  0  0  0  0  0  0  0  0  0  0  0
   36.1660   28.3080   43.0700 H   0  0  0  0  0  0  0  0  0  0  0  0
   38.8460   27.4760   39.8210 H   0  0  0  0  0  0  0  0  0  0  0  0
   40.2320   28.1110   43.7850 H   0  0  0  0  0  0  0  0  0  0  0  0
   36.1970   30.3620   39.7550 C   0  0  0  0  0  0  0  0  0  0  0  0
   36.8040   31.1070   38.7820 N   0  0  0  0  0  0  0  0  0  0  0  0
   37.1690   32.3050   39.2620 C   0  0  0  0  0  0  0  0  0  0  0  0
   37.6660   33.0380   38.6400 H   0  0  0  0  0  0  0  0  0  0  0  0
   36.7900   32.3160   40.5430 N   0  0  0  0  0  0  0  0  0  0  0  0
   36.9670   33.1550   41.1380 H   0  0  0  0  0  0  0  0  0  0  0  0
   36.2160   31.1800   40.8500 N   0  0  0  0  0  0  0  0  0  0  0  0
  1  4  1  1  0  0  0
  1  9  1  0  0  0  0
  2  5  1  6  0  0  0
  2 17  1  0  0  0  0
  2  1  1  0  0  0  0
  3  2  1  0  0  0  0
  3  1  1  0  0  0  0
  6  3  1  0  0  0  0
  7  3  1  0  0  0  0
  8 14  1  0  0  0  0
  8 13  1  0  0  0  0
  9  8  2  0  0  0  0
 10  9  1  0  0  0  0
 10 11  2  0  0  0  0
 11 12  1  0  0  0  0
 12 13  2  0  0  0  0
 12 16  1  0  0  0  0
 15 10  1  0  0  0  0
 17 23  2  0  0  0  0
 18 19  2  0  0  0  0
 18 17  1  0  0  0  0
 19 21  1  0  0  0  0
 20 19  1  0  0  0  0
 21 23  1  0  0  0  0
 21 22  1  0  0  0  0
M  END
>  <minimizedAffinity>
-4.22941065

$$$$

 OpenBabel03242511503D

 23 25  0  0  1  0  0  0  0  0999 V2000
   36.2010   29.1170   39.0930 C   0  0  1  0  0  0  0  0  0  0  0  0
   35.9440   28.2600   40.2430 C   0  0  2  0  0  0  0  0  0  0  0  0
   34.9560   29.3070   39.9240 C   0  0  0  0  0  0  0  0  0  0  0  0
   35.9840   28.7480   38.0510 H   0  0  0  0  0  0  0  0  0  0  0  0
   35.6310   27.2040   39.9830 H   0  0  0  0  0  0  0  0  0  0  0  0
   33.9630   29.0080   39.5230 H   0  0  0  0  0  0  0  0  0  0  0  0
   34.9280   30.2670   40.4720 H   0  0  0  0  0  0  0  0  0  0  0  0
   38.5870   29.8180   39.0150 C   0  0  0  0  0  0  0  0  0  0  0  0
   37.2220   30.1830   39.1010 C   0  0  0  0  0  0  0  0  0  0  0  0
   36.9290   31.5470   39.2050 C   0  0  0  0  0  0  0  0  0  0  0  0
   37.9650   32.4270   39.2180 N   0  0  0  0  0  0  0  0  0  0  0  0
   39.2550   32.0490   39.1350 C   0  0  0  0  0  0  0  0  0  0  0  0
   39.5680   30.7260   39.0320 N   0  0  0  0  0  0  0  0  0  0  0  0
   38.9440   28.8250   38.9220 H   0  0  0  0  0  0  0  0  0  0  0  0
   35.8950   31.8270   39.2700 H   0  0  0  0  0  0  0  0  0  0  0  0
   40.0260   32.8070   39.1520 H   0  0  0  0  0  0  0  0  0  0  0  0
   36.5650   28.3880   41.5750 C   0  0  0  0  0  0  0  0  0  0  0  0
   36.9950   27.4210   42.4410 N   0  0  0  0  0  0  0  0  0  0  0  0
   37.5000   27.9720   43.5530 C   0  0  0  0  0  0  0  0  0  0  0  0
   37.8930   27.3670   44.3590 H   0  0  0  0  0  0  0  0  0  0  0  0
   37.3900   29.2940   43.3890 N   0  0  0  0  0  0  0  0  0  0  0  0
   37.7210   29.9480   44.1310 H   0  0  0  0  0  0  0  0  0  0  0  0
   36.8400   29.5560   42.2290 N   0  0  0  0  0  0  0  0  0  0  0  0
  1  4  1  6  0  0  0
  1  9  1  0  0  0  0
  1  3  1  0  0  0  0
  1  2  1  0  0  0  0
  2  5  1  6  0  0  0
  2 17  1  0  0  0  0
  3  2  1  0  0  0  0
  3  7  1  0  0  0  0
  6  3  1  0  0  0  0
  8 13  2  0  0  0  0
  8  9  1  0  0  0  0
  9 10  2  0  0  0  0
 10 11  1  0  0  0  0
 10 15  1  0  0  0  0
 12 16  1  0  0  0  0
 12 11  2  0  0  0  0
 13 12  1  0  0  0  0
 14  8  1  0  0  0  0
 17 23  2  0  0  0  0
 17 18  1  0  0  0  0
 18 19  2  0  0  0  0
 19 20  1  0  0  0  0
 21 19  1  0  0  0  0
 21 22  1  0  0  0  0
 23 21  1  0  0  0  0
M  END
>  <minimizedAffinity>
-4.12864447

$$$$

 OpenBabel03242511503D

 23 25  0  0  1  0  0  0  0  0999 V2000
   36.1270   30.3240   40.8950 C   0  0  1  0  0  0  0  0  0  0  0  0
   36.8400   31.5230   40.4740 C   0  0  2  0  0  0  0  0  0  0  0  0
   36.4380   30.5560   39.4360 C   0  0  0  0  0  0  0  0  0  0  0  0
   35.0250   30.3710   41.1230 H   0  0  0  0  0  0  0  0  0  0  0  0
   36.2290   32.4740   40.5140 H   0  0  0  0  0  0  0  0  0  0  0  0
   35.6270   30.8320   38.7270 H   0  0  0  0  0  0  0  0  0  0  0  0
   37.1520   29.8260   39.0110 H   0  0  0  0  0  0  0  0  0  0  0  0
   36.6110   27.8910   41.0760 C   0  0  0  0  0  0  0  0  0  0  0  0
   36.7880   29.2000   41.5850 C   0  0  0  0  0  0  0  0  0  0  0  0
   37.5770   29.3390   42.7330 C   0  0  0  0  0  0  0  0  0  0  0  0
   38.1160   28.2190   43.2810 N   0  0  0  0  0  0  0  0  0  0  0  0
   37.9280   26.9850   42.7730 C   0  0  0  0  0  0  0  0  0  0  0  0
   37.1650   26.8210   41.6550 N   0  0  0  0  0  0  0  0  0  0  0  0
   36.0490   27.6480   40.2120 H   0  0  0  0  0  0  0  0  0  0  0  0
   37.7130   30.3300   43.1210 H   0  0  0  0  0  0  0  0  0  0  0  0
   38.3900   26.1400   43.2660 H   0  0  0  0  0  0  0  0  0  0  0  0
   38.2960   31.7440   40.5730 C   0  0  0  0  0  0  0  0  0  0  0  0
   39.3310   31.0460   40.0120 N   0  0  0  0  0  0  0  0  0  0  0  0
   40.5080   31.5850   40.3600 C   0  0  0  0  0  0  0  0  0  0  0  0
   41.4460   31.1730   40.0140 H   0  0  0  0  0  0  0  0  0  0  0  0
   40.2150   32.6280   41.1440 N   0  0  0  0  0  0  0  0  0  0  0  0
   40.9770   33.2160   41.5460 H   0  0  0  0  0  0  0  0  0  0  0  0
   38.9170   32.7350   41.2800 N   0  0  0  0  0  0  0  0  0  0  0  0
  1  4  1  1  0  0  0
  1  9  1  0  0  0  0
  2  5  1  1  0  0  0
  2 17  1  0  0  0  0
  2  1  1  0  0  0  0
  3  2  1  0  0  0  0
  3  1  1  0  0  0  0
  6  3  1  0  0  0  0
  7  3  1  0  0  0  0
  8  9  2  0  0  0  0
  8 13  1  0  0  0  0
  9 10  1  0  0  0  0
 10 15  1  0  0  0  0
 10 11  2  0  0  0  0
 12 16  1  0  0  0  0
 12 11  1  0  0  0  0
 13 12  2  0  0  0  0
 14  8  1  0  0  0  0
 17 23  2  0  0  0  0
 18 19  2  0  0  0  0
 18 17  1  0  0  0  0
 19 21  1  0  0  0  0
 20 19  1  0  0  0  0
 21 23  1  0  0  0  0
 21 22  1  0  0  0  0
M  END
>  <minimizedAffinity>
-4.07959461

$$$$

 OpenBabel03242511503D

 23 25  0  0  1  0  0  0  0  0999 V2000
   37.7770   30.5380   38.5720 C   0  0  1  0  0  0  0  0  0  0  0  0
   37.5540   29.3400   39.3710 C   0  0  2  0  0  0  0  0  0  0  0  0
   36.3740   30.0430   38.8320 C   0  0  0  0  0  0  0  0  0  0  0  0
   38.0810   30.4500   37.4910 H   0  0  0  0  0  0  0  0  0  0  0  0
   37.8190   28.3710   38.8510 H   0  0  0  0  0  0  0  0  0  0  0  0
   35.7880   29.5670   38.0170 H   0  0  0  0  0  0  0  0  0  0  0  0
   35.7690   30.7270   39.4560 H   0  0  0  0  0  0  0  0  0  0  0  0
   39.5290   31.9850   39.5850 C   0  0  0  0  0  0  0  0  0  0  0  0
   38.1880   31.8270   39.1600 C   0  0  0  0  0  0  0  0  0  0  0  0
   37.3260   32.9150   39.3430 C   0  0  0  0  0  0  0  0  0  0  0  0
   37.8280   34.0420   39.9130 N   0  0  0  0  0  0  0  0  0  0  0  0
   39.1100   34.1610   40.3080 C   0  0  0  0  0  0  0  0  0  0  0  0
   39.9710   33.1170   40.1400 N   0  0  0  0  0  0  0  0  0  0  0  0
   40.2830   31.2470   39.4950 H   0  0  0  0  0  0  0  0  0  0  0  0
   36.3090   32.7990   39.0220 H   0  0  0  0  0  0  0  0  0  0  0  0
   39.4370   35.0910   40.7540 H   0  0  0  0  0  0  0  0  0  0  0  0
   37.5990   29.2600   40.8430 C   0  0  0  0  0  0  0  0  0  0  0  0
   38.6450   28.9650   41.6750 N   0  0  0  0  0  0  0  0  0  0  0  0
   38.2540   29.0000   42.9570 C   0  0  0  0  0  0  0  0  0  0  0  0
   38.9410   28.7940   43.7660 H   0  0  0  0  0  0  0  0  0  0  0  0
   36.9550   29.3190   42.9340 N   0  0  0  0  0  0  0  0  0  0  0  0
   36.4190   29.4080   43.8240 H   0  0  0  0  0  0  0  0  0  0  0  0
   36.5550   29.4750   41.6970 N   0  0  0  0  0  0  0  0  0  0  0  0
  1  4  1  6  0  0  0
  1  3  1  0  0  0  0
  1  9  1  0  0  0  0
  1  2  1  0  0  0  0
  2  5  1  6  0  0  0
  2 17  1  0  0  0  0
  3  2  1  0  0  0  0
  3  7  1  0  0  0  0
  6  3  1  0  0  0  0
  8 13  1  0  0  0  0
  9 10  1  0  0  0  0
  9  8  2  0  0  0  0
 10 11  2  0  0  0  0
 11 12  1  0  0  0  0
 12 16  1  0  0  0  0
 13 12  2  0  0  0  0
 14  8  1  0  0  0  0
 15 10  1  0  0  0  0
 17 18  1  0  0  0  0
 17 23  2  0  0  0  0
 18 19  2  0  0  0  0
 19 20  1  0  0  0  0
 21 19  1  0  0  0  0
 21 22  1  0  0  0  0
 23 21  1  0  0  0  0
M  END
>  <minimizedAffinity>
-4.05122042

$$$$

 OpenBabel03242511503D

 23 25  0  0  1  0  0  0  0  0999 V2000
   38.2570   28.2470   43.3380 C   0  0  1  0  0  0  0  0  0  0  0  0
   38.6030   26.8330   43.3280 C   0  0  2  0  0  0  0  0  0  0  0  0
   39.6480   27.8040   42.9530 C   0  0  0  0  0  0  0  0  0  0  0  0
   38.2300   28.8170   44.3100 H   0  0  0  0  0  0  0  0  0  0  0  0
   38.7190   26.3680   44.3530 H   0  0  0  0  0  0  0  0  0  0  0  0
   40.5010   27.9720   43.6450 H   0  0  0  0  0  0  0  0  0  0  0  0
   39.9030   28.0060   41.8970 H   0  0  0  0  0  0  0  0  0  0  0  0
   37.7660   30.1470   41.8090 C   0  0  0  0  0  0  0  0  0  0  0  0
   37.4070   28.8720   42.3060 C   0  0  0  0  0  0  0  0  0  0  0  0
   36.2440   28.2870   41.7910 C   0  0  0  0  0  0  0  0  0  0  0  0
   35.5410   28.9760   40.8540 N   0  0  0  0  0  0  0  0  0  0  0  0
   35.9090   30.1900   40.4000 C   0  0  0  0  0  0  0  0  0  0  0  0
   37.0370   30.7810   40.8850 N   0  0  0  0  0  0  0  0  0  0  0  0
   38.6240   30.6930   42.1050 H   0  0  0  0  0  0  0  0  0  0  0  0
   35.9690   27.3200   42.1660 H   0  0  0  0  0  0  0  0  0  0  0  0
   35.2970   30.6770   39.6530 H   0  0  0  0  0  0  0  0  0  0  0  0
   38.2590   25.8650   42.2690 C   0  0  0  0  0  0  0  0  0  0  0  0
   37.3170   24.8720   42.2580 N   0  0  0  0  0  0  0  0  0  0  0  0
   37.3340   24.2170   41.0880 C   0  0  0  0  0  0  0  0  0  0  0  0
   36.6590   23.3960   40.8880 H   0  0  0  0  0  0  0  0  0  0  0  0
   38.2900   24.7990   40.3570 N   0  0  0  0  0  0  0  0  0  0  0  0
   38.4960   24.4600   39.3920 H   0  0  0  0  0  0  0  0  0  0  0  0
   38.8450   25.7710   41.0380 N   0  0  0  0  0  0  0  0  0  0  0  0
  1  4  1  1  0  0  0
  2  1  1  0  0  0  0
  2  5  1  1  0  0  0
  3  2  1  0  0  0  0
  3  1  1  0  0  0  0
  3  6  1  0  0  0  0
  7  3  1  0  0  0  0
  8 14  1  0  0  0  0
  8  9  1  0  0  0  0
  9  1  1  0  0  0  0
 10 15  1  0  0  0  0
 10  9  2  0  0  0  0
 11 10  1  0  0  0  0
 12 11  2  0  0  0  0
 12 13  1  0  0  0  0
 13  8  2  0  0  0  0
 16 12  1  0  0  0  0
 17  2  1  0  0  0  0
 18 17  1  0  0  0  0
 19 18  2  0  0  0  0
 20 19  1  0  0  0  0
 21 23  1  0  0  0  0
 21 19  1  0  0  0  0
 22 21  1  0  0  0  0
 23 17  2  0  0  0  0
M  END
>  <minimizedAffinity>
-4.01412392

$$$$

 OpenBabel03242511503D

 23 25  0  0  1  0  0  0  0  0999 V2000
   39.9210   25.8910   42.2020 C   0  0  1  0  0  0  0  0  0  0  0  0
   39.9310   27.2640   42.6900 C   0  0  2  0  0  0  0  0  0  0  0  0
   39.8000   26.1780   43.6800 C   0  0  0  0  0  0  0  0  0  0  0  0
   40.8880   25.3790   41.9310 H   0  0  0  0  0  0  0  0  0  0  0  0
   40.9420   27.7690   42.6560 H   0  0  0  0  0  0  0  0  0  0  0  0
   40.6510   25.9660   44.3630 H   0  0  0  0  0  0  0  0  0  0  0  0
   38.8210   25.8970   44.1090 H   0  0  0  0  0  0  0  0  0  0  0  0
   38.5960   25.5600   40.1230 C   0  0  0  0  0  0  0  0  0  0  0  0
   38.7650   25.2970   41.5040 C   0  0  0  0  0  0  0  0  0  0  0  0
   37.8020   24.4940   42.1260 C   0  0  0  0  0  0  0  0  0  0  0  0
   36.7750   24.0220   41.3710 N   0  0  0  0  0  0  0  0  0  0  0  0
   36.6410   24.2910   40.0580 C   0  0  0  0  0  0  0  0  0  0  0  0
   37.5650   25.0700   39.4270 N   0  0  0  0  0  0  0  0  0  0  0  0
   39.2540   26.1410   39.5320 H   0  0  0  0  0  0  0  0  0  0  0  0
   37.9280   24.2930   43.1730 H   0  0  0  0  0  0  0  0  0  0  0  0
   35.7960   23.8790   39.5230 H   0  0  0  0  0  0  0  0  0  0  0  0
   38.7930   28.2020   42.6570 C   0  0  0  0  0  0  0  0  0  0  0  0
   38.4110   29.0870   41.6860 N   0  0  0  0  0  0  0  0  0  0  0  0
   37.3110   29.7550   42.0600 C   0  0  0  0  0  0  0  0  0  0  0  0
   36.8550   30.5010   41.4230 H   0  0  0  0  0  0  0  0  0  0  0  0
   36.9960   29.2900   43.2730 N   0  0  0  0  0  0  0  0  0  0  0  0
   36.1640   29.6620   43.7810 H   0  0  0  0  0  0  0  0  0  0  0  0
   37.8590   28.3750   43.6400 N   0  0  0  0  0  0  0  0  0  0  0  0
  1  4  1  6  0  0  0
  1  2  1  0  0  0  0
  1  3  1  0  0  0  0
  2  5  1  6  0  0  0
  2  3  1  0  0  0  0
  3  7  1  0  0  0  0
  3  6  1  0  0  0  0
  8  9  1  0  0  0  0
  9 10  2  0  0  0  0
  9  1  1  0  0  0  0
 10 15  1  0  0  0  0
 11 10  1  0  0  0  0
 12 11  2  0  0  0  0
 13 12  1  0  0  0  0
 13  8  2  0  0  0  0
 14  8  1  0  0  0  0
 16 12  1  0  0  0  0
 17  2  1  0  0  0  0
 17 23  2  0  0  0  0
 18 19  2  0  0  0  0
 18 17  1  0  0  0  0
 19 21  1  0  0  0  0
 20 19  1  0  0  0  0
 21 23  1  0  0  0  0
 21 22  1  0  0  0  0
M  END
>  <minimizedAffinity>
-3.9960959

$$$$

 OpenBabel03242511503D

 23 25  0  0  1  0  0  0  0  0999 V2000
   38.7580   27.9860   42.7380 C   0  0  1  0  0  0  0  0  0  0  0  0
   38.4950   29.4170   42.8080 C   0  0  2  0  0  0  0  0  0  0  0  0
   37.7020   28.5240   43.6730 C   0  0  0  0  0  0  0  0  0  0  0  0
   39.6430   27.5450   43.2790 H   0  0  0  0  0  0  0  0  0  0  0  0
   39.2940   30.0190   43.3350 H   0  0  0  0  0  0  0  0  0  0  0  0
   37.8810   28.5380   44.7700 H   0  0  0  0  0  0  0  0  0  0  0  0
   36.6740   28.2170   43.4080 H   0  0  0  0  0  0  0  0  0  0  0  0
   39.0760   27.1970   40.4000 C   0  0  0  0  0  0  0  0  0  0  0  0
   38.3300   27.1470   41.6010 C   0  0  0  0  0  0  0  0  0  0  0  0
   37.2120   26.3060   41.6270 C   0  0  0  0  0  0  0  0  0  0  0  0
   36.9160   25.5980   40.5050 N   0  0  0  0  0  0  0  0  0  0  0  0
   37.6460   25.6680   39.3750 C   0  0  0  0  0  0  0  0  0  0  0  0
   38.7400   26.4790   39.3240 N   0  0  0  0  0  0  0  0  0  0  0  0
   39.9460   27.7820   40.2510 H   0  0  0  0  0  0  0  0  0  0  0  0
   36.6440   26.2650   42.5370 H   0  0  0  0  0  0  0  0  0  0  0  0
   37.3480   25.0730   38.5210 H   0  0  0  0  0  0  0  0  0  0  0  0
   37.6980   30.1990   41.8430 C   0  0  0  0  0  0  0  0  0  0  0  0
   38.1060   31.0490   40.8510 N   0  0  0  0  0  0  0  0  0  0  0  0
   37.0500   31.5580   40.2010 C   0  0  0  0  0  0  0  0  0  0  0  0
   37.1700   32.2530   39.3810 H   0  0  0  0  0  0  0  0  0  0  0  0
   35.9710   31.0270   40.7840 N   0  0  0  0  0  0  0  0  0  0  0  0
   35.0150   31.2740   40.4480 H   0  0  0  0  0  0  0  0  0  0  0  0
   36.3350   30.2240   41.7530 N   0  0  0  0  0  0  0  0  0  0  0  0
  1  2  1  0  0  0  0
  1  4  1  1  0  0  0
  1  3  1  0  0  0  0
  2  5  1  1  0  0  0
  2  3  1  0  0  0  0
  3  6  1  0  0  0  0
  7  3  1  0  0  0  0
  8  9  1  0  0  0  0
  9 10  2  0  0  0  0
  9  1  1  0  0  0  0
 10 15  1  0  0  0  0
 11 10  1  0  0  0  0
 12 11  2  0  0  0  0
 13 12  1  0  0  0  0
 13  8  2  0  0  0  0
 14  8  1  0  0  0  0
 16 12  1  0  0  0  0
 17  2  1  0  0  0  0
 18 17  1  0  0  0  0
 19 21  1  0  0  0  0
 19 18  2  0  0  0  0
 20 19  1  0  0  0  0
 21 23  1  0  0  0  0
 22 21  1  0  0  0  0
 23 17  2  0  0  0  0
M  END
>  <minimizedAffinity>
-3.96568871

$$$$

 OpenBabel03242511503D

 23 25  0  0  1  0  0  0  0  0999 V2000
   37.8990   27.1410   43.1670 C   0  0  1  0  0  0  0  0  0  0  0  0
   37.3930   28.4960   42.9960 C   0  0  2  0  0  0  0  0  0  0  0  0
   36.5290   27.5150   43.6800 C   0  0  0  0  0  0  0  0  0  0  0  0
   38.6300   26.9080   43.9930 H   0  0  0  0  0  0  0  0  0  0  0  0
   37.8750   29.2680   43.6680 H   0  0  0  0  0  0  0  0  0  0  0  0
   36.3490   27.6230   44.7710 H   0  0  0  0  0  0  0  0  0  0  0  0
   35.7020   27.0030   43.1550 H   0  0  0  0  0  0  0  0  0  0  0  0
   37.2270   24.9870   42.1180 C   0  0  0  0  0  0  0  0  0  0  0  0
   37.9950   26.1750   42.0560 C   0  0  0  0  0  0  0  0  0  0  0  0
   38.8150   26.3490   40.9350 C   0  0  0  0  0  0  0  0  0  0  0  0
   38.8240   25.3740   39.9880 N   0  0  0  0  0  0  0  0  0  0  0  0
   38.0820   24.2530   40.0770 C   0  0  0  0  0  0  0  0  0  0  0  0
   37.2730   24.0590   41.1570 N   0  0  0  0  0  0  0  0  0  0  0  0
   36.5610   24.7370   42.9020 H   0  0  0  0  0  0  0  0  0  0  0  0
   39.3980   27.2490   40.8840 H   0  0  0  0  0  0  0  0  0  0  0  0
   38.1410   23.5210   39.2830 H   0  0  0  0  0  0  0  0  0  0  0  0
   36.8220   29.0570   41.7570 C   0  0  0  0  0  0  0  0  0  0  0  0
   35.6650   28.7380   41.1000 N   0  0  0  0  0  0  0  0  0  0  0  0
   35.5200   29.4940   40.0020 C   0  0  0  0  0  0  0  0  0  0  0  0
   34.6650   29.3880   39.3500 H   0  0  0  0  0  0  0  0  0  0  0  0
   36.5910   30.2940   39.9660 N   0  0  0  0  0  0  0  0  0  0  0  0
   36.7070   30.9840   39.1930 H   0  0  0  0  0  0  0  0  0  0  0  0
   37.3670   30.0490   40.9920 N   0  0  0  0  0  0  0  0  0  0  0  0
  1  3  1  0  0  0  0
  1  4  1  1  0  0  0
  2  1  1  0  0  0  0
  2  5  1  1  0  0  0
  2  3  1  0  0  0  0
  3  6  1  0  0  0  0
  7  3  1  0  0  0  0
  8 14  1  0  0  0  0
  9  8  1  0  0  0  0
  9  1  1  0  0  0  0
 10  9  2  0  0  0  0
 11 12  2  0  0  0  0
 11 10  1  0  0  0  0
 12 13  1  0  0  0  0
 13  8  2  0  0  0  0
 15 10  1  0  0  0  0
 16 12  1  0  0  0  0
 17  2  1  0  0  0  0
 18 17  1  0  0  0  0
 19 18  2  0  0  0  0
 20 19  1  0  0  0  0
 21 19  1  0  0  0  0
 21 23  1  0  0  0  0
 22 21  1  0  0  0  0
 23 17  2  0  0  0  0
M  END
>  <minimizedAffinity>
-3.95590878

$$$$
