
 OpenBabel03242516283D

 44 48  0  0  0  0  0  0  0  0999 V2000
   49.7930   30.1720   49.5610 C   0  0  0  0  0  0  0  0  0  0  0  0
   50.0200   31.3960   50.1240 N   0  0  0  0  0  0  0  0  0  0  0  0
   50.7320   31.5790   51.2310 C   0  0  0  0  0  0  0  0  0  0  0  0
   51.2490   30.4970   51.8180 N   0  0  0  0  0  0  0  0  0  0  0  0
   51.0760   29.2650   51.3360 C   0  0  0  0  0  0  0  0  0  0  0  0
   51.6190   28.1330   51.9310 C   0  0  0  0  0  0  0  0  0  0  0  0
   51.4380   26.8920   51.4170 C   0  0  0  0  0  0  0  0  0  0  0  0
   50.7050   26.7250   50.2860 C   0  0  0  0  0  0  0  0  0  0  0  0
   50.1320   27.8270   49.6420 C   0  0  0  0  0  0  0  0  0  0  0  0
   50.3240   29.0710   50.1690 C   0  0  0  0  0  0  0  0  0  0  0  0
   50.8660   32.5800   51.6150 H   0  0  0  0  0  0  0  0  0  0  0  0
   52.1890   28.3330   52.8240 H   0  0  0  0  0  0  0  0  0  0  0  0
   51.8910   26.0400   51.9280 H   0  0  0  0  0  0  0  0  0  0  0  0
   50.5950   25.7070   49.9220 H   0  0  0  0  0  0  0  0  0  0  0  0
   49.3230   27.5230   48.4400 C   0  0  0  0  0  0  0  0  0  0  0  0
   48.3180   27.9500   48.4260 H   0  0  0  0  0  0  0  0  0  0  0  0
   49.8930   27.5200   47.4900 H   0  0  0  0  0  0  0  0  0  0  0  0
   48.9190   26.0530   48.4530 C   0  0  0  0  0  0  0  0  0  0  0  0
   47.8430   25.4650   49.0590 N   0  0  0  0  0  0  0  0  0  0  0  0
   47.8440   24.1460   48.8380 C   0  0  0  0  0  0  0  0  0  0  0  0
   47.0790   23.4900   49.2300 H   0  0  0  0  0  0  0  0  0  0  0  0
   48.9240   23.8730   48.0890 N   0  0  0  0  0  0  0  0  0  0  0  0
   49.2080   22.9290   47.7470 H   0  0  0  0  0  0  0  0  0  0  0  0
   49.5470   24.9950   47.8680 N   0  0  0  0  0  0  0  0  0  0  0  0
   48.9040   29.9990   48.0960 S   0  0  0  0  0  0  0  0  0  0  0  0
   46.1180   32.6310   46.9480 C   0  0  0  0  0  0  0  0  0  0  0  0
   47.2470   31.8240   47.0020 C   0  0  0  0  0  0  0  0  0  0  0  0
   47.4520   30.9780   48.0620 C   0  0  0  0  0  0  0  0  0  0  0  0
   46.5390   30.9140   49.0890 C   0  0  0  0  0  0  0  0  0  0  0  0
   45.4170   31.6870   49.0790 C   0  0  0  0  0  0  0  0  0  0  0  0
   45.2300   32.5330   48.0030 C   0  0  0  0  0  0  0  0  0  0  0  0
   47.9360   31.9040   46.1770 H   0  0  0  0  0  0  0  0  0  0  0  0
   46.7350   30.2380   49.9010 H   0  0  0  0  0  0  0  0  0  0  0  0
   44.7040   31.6310   49.8910 H   0  0  0  0  0  0  0  0  0  0  0  0
   44.3500   33.1400   47.9910 H   0  0  0  0  0  0  0  0  0  0  0  0
   44.7130   35.3370   44.9360 C   0  0  0  0  0  0  0  0  0  0  0  0
   45.4520   35.2680   43.7290 C   0  0  0  0  0  0  0  0  0  0  0  0
   46.4340   34.2890   43.6100 C   0  0  0  0  0  0  0  0  0  0  0  0
   46.6640   33.4220   44.6470 N   0  0  0  0  0  0  0  0  0  0  0  0
   45.9140   33.5320   45.8040 C   0  0  0  0  0  0  0  0  0  0  0  0
   44.9500   34.4770   45.9470 N   0  0  0  0  0  0  0  0  0  0  0  0
   43.9390   36.0730   45.0910 H   0  0  0  0  0  0  0  0  0  0  0  0
   45.2380   35.9720   42.9360 H   0  0  0  0  0  0  0  0  0  0  0  0
   47.0200   34.2040   42.7060 H   0  0  0  0  0  0  0  0  0  0  0  0
  1  2  2  0  0  0  0
  1 10  1  0  0  0  0
  2  3  1  0  0  0  0
  3 11  1  0  0  0  0
  3  4  2  0  0  0  0
  5  4  1  0  0  0  0
  5  6  1  0  0  0  0
  6 12  1  0  0  0  0
  7 13  1  0  0  0  0
  7  6  2  0  0  0  0
  8  7  1  0  0  0  0
  9 10  1  0  0  0  0
  9  8  2  0  0  0  0
 10  5  2  0  0  0  0
 14  8  1  0  0  0  0
 15 18  1  0  0  0  0
 15  9  1  0  0  0  0
 16 15  1  0  0  0  0
 17 15  1  0  0  0  0
 18 19  1  0  0  0  0
 20 19  2  0  0  0  0
 20 21  1  0  0  0  0
 22 20  1  0  0  0  0
 23 22  1  0  0  0  0
 24 22  1  0  0  0  0
 24 18  2  0  0  0  0
 25  1  1  0  0  0  0
 26 27  2  0  0  0  0
 26 31  1  0  0  0  0
 27 28  1  0  0  0  0
 28 25  1  0  0  0  0
 28 29  2  0  0  0  0
 29 33  1  0  0  0  0
 30 29  1  0  0  0  0
 30 34  1  0  0  0  0
 31 30  2  0  0  0  0
 32 27  1  0  0  0  0
 35 31  1  0  0  0  0
 36 42  1  0  0  0  0
 36 41  1  0  0  0  0
 37 36  2  0  0  0  0
 38 37  1  0  0  0  0
 38 39  2  0  0  0  0
 39 40  1  0  0  0  0
 40 41  2  0  0  0  0
 40 26  1  0  0  0  0
 43 37  1  0  0  0  0
 44 38  1  0  0  0  0
M  END
>  <minimizedAffinity>
-6.56838322

>  <minimizedRMSD>
0.628892004

$$$$
