
 OpenBabel03252505203D

 32 35  0  0  0  0  0  0  0  0999 V2000
   40.1330   27.1120   43.4590 C   0  0  0  0  0  0  0  0  0  0  0  0
   39.5720   25.8220   43.3340 C   0  0  0  0  0  0  0  0  0  0  0  0
   38.4680   25.7330   42.5180 C   0  0  0  0  0  0  0  0  0  0  0  0
   37.9590   26.8390   41.8750 N   0  0  0  0  0  0  0  0  0  0  0  0
   38.5480   28.0670   42.0350 C   0  0  0  0  0  0  0  0  0  0  0  0
   39.6230   28.1860   42.8230 N   0  0  0  0  0  0  0  0  0  0  0  0
   41.0110   27.2450   44.0950 H   0  0  0  0  0  0  0  0  0  0  0  0
   39.9870   24.9670   43.8490 H   0  0  0  0  0  0  0  0  0  0  0  0
   37.9910   29.2170   41.3270 C   0  0  0  0  0  0  0  0  0  0  0  0
   36.7530   29.6930   41.7030 C   0  0  0  0  0  0  0  0  0  0  0  0
   36.1990   30.7760   41.0560 C   0  0  0  0  0  0  0  0  0  0  0  0
   36.9320   31.3540   40.0280 C   0  0  0  0  0  0  0  0  0  0  0  0
   38.1760   30.8320   39.6920 C   0  0  0  0  0  0  0  0  0  0  0  0
   38.7070   29.7680   40.3360 N   0  0  0  0  0  0  0  0  0  0  0  0
   36.1570   29.2600   42.5040 H   0  0  0  0  0  0  0  0  0  0  0  0
   35.2250   31.1730   41.3320 H   0  0  0  0  0  0  0  0  0  0  0  0
   36.5560   32.2110   39.4740 H   0  0  0  0  0  0  0  0  0  0  0  0
   38.9700   31.4270   38.6060 C   0  0  0  0  0  0  0  0  0  0  0  0
   40.2470   31.6940   38.9840 N   0  0  0  0  0  0  0  0  0  0  0  0
   40.8910   32.2380   37.9160 C   0  0  0  0  0  0  0  0  0  0  0  0
   41.9230   32.5690   37.8620 H   0  0  0  0  0  0  0  0  0  0  0  0
   39.9840   32.2860   36.9210 N   0  0  0  0  0  0  0  0  0  0  0  0
   40.2200   32.6620   35.9860 H   0  0  0  0  0  0  0  0  0  0  0  0
   38.8180   31.7930   37.3430 N   0  0  0  0  0  0  0  0  0  0  0  0
   37.8040   24.4090   42.2770 C   0  0  0  0  0  0  0  0  0  0  0  0
   36.7400   24.4810   41.1780 C   0  0  0  0  0  0  0  0  0  0  0  0
   38.0860   23.6900   41.0620 C   0  0  0  0  0  0  0  0  0  0  0  0
   37.4830   23.8320   43.1880 H   0  0  0  0  0  0  0  0  0  0  0  0
   36.6670   25.3940   40.5740 H   0  0  0  0  0  0  0  0  0  0  0  0
   35.8490   23.8570   41.3240 H   0  0  0  0  0  0  0  0  0  0  0  0
   38.0210   22.6070   40.9370 H   0  0  0  0  0  0  0  0  0  0  0  0
   38.8100   24.1530   40.3480 H   0  0  0  0  0  0  0  0  0  0  0  0
  1  7  1  0  0  0  0
  2  1  1  0  0  0  0
  2  8  1  0  0  0  0
  3  2  2  0  0  0  0
  4  5  2  0  0  0  0
  4  3  1  0  0  0  0
  5  6  1  0  0  0  0
  6  1  2  0  0  0  0
  9 10  1  0  0  0  0
  9  5  1  0  0  0  0
 10 15  1  0  0  0  0
 11 16  1  0  0  0  0
 11 10  2  0  0  0  0
 12 11  1  0  0  0  0
 13 12  2  0  0  0  0
 13 14  1  0  0  0  0
 14  9  2  0  0  0  0
 17 12  1  0  0  0  0
 18 19  1  0  0  0  0
 18 13  1  0  0  0  0
 20 19  2  0  0  0  0
 21 20  1  0  0  0  0
 22 24  1  0  0  0  0
 22 20  1  0  0  0  0
 23 22  1  0  0  0  0
 24 18  2  0  0  0  0
 25  3  1  0  0  0  0
 25 28  1  0  0  0  0
 26 30  1  0  0  0  0
 26 25  1  0  0  0  0
 27 26  1  0  0  0  0
 27 25  1  0  0  0  0
 29 26  1  0  0  0  0
 31 27  1  0  0  0  0
 32 27  1  0  0  0  0
M  END
>  <minimizedAffinity>
-5.6665225

$$$$

 OpenBabel03252505203D

 32 35  0  0  0  0  0  0  0  0999 V2000
   39.6170   26.3250   43.5140 C   0  0  0  0  0  0  0  0  0  0  0  0
   39.2880   25.0280   43.0600 C   0  0  0  0  0  0  0  0  0  0  0  0
   38.3170   24.9680   42.0880 C   0  0  0  0  0  0  0  0  0  0  0  0
   37.7170   26.1090   41.6020 N   0  0  0  0  0  0  0  0  0  0  0  0
   38.0780   27.3420   42.0820 C   0  0  0  0  0  0  0  0  0  0  0  0
   39.0200   27.4320   43.0290 N   0  0  0  0  0  0  0  0  0  0  0  0
   40.3800   26.4350   44.2860 H   0  0  0  0  0  0  0  0  0  0  0  0
   39.7720   24.1460   43.4560 H   0  0  0  0  0  0  0  0  0  0  0  0
   37.4310   28.5320   41.5340 C   0  0  0  0  0  0  0  0  0  0  0  0
   36.1250   28.4380   41.1020 C   0  0  0  0  0  0  0  0  0  0  0  0
   35.4850   29.5420   40.5810 C   0  0  0  0  0  0  0  0  0  0  0  0
   36.2040   30.7280   40.5120 C   0  0  0  0  0  0  0  0  0  0  0  0
   37.5180   30.7640   40.9620 C   0  0  0  0  0  0  0  0  0  0  0  0
   38.1340   29.6720   41.4720 N   0  0  0  0  0  0  0  0  0  0  0  0
   35.5380   27.5230   41.1450 H   0  0  0  0  0  0  0  0  0  0  0  0
   34.4560   29.4980   40.2340 H   0  0  0  0  0  0  0  0  0  0  0  0
   35.7620   31.6380   40.1120 H   0  0  0  0  0  0  0  0  0  0  0  0
   38.2990   32.0090   40.8990 C   0  0  0  0  0  0  0  0  0  0  0  0
   37.6630   32.9860   40.2040 N   0  0  0  0  0  0  0  0  0  0  0  0
   38.4630   34.0860   40.2060 C   0  0  0  0  0  0  0  0  0  0  0  0
   38.2680   35.0490   39.7450 H   0  0  0  0  0  0  0  0  0  0  0  0
   39.5630   33.7430   40.9030 N   0  0  0  0  0  0  0  0  0  0  0  0
   40.3420   34.4070   41.0560 H   0  0  0  0  0  0  0  0  0  0  0  0
   39.4610   32.4800   41.3230 N   0  0  0  0  0  0  0  0  0  0  0  0
   37.9070   23.6500   41.5010 C   0  0  0  0  0  0  0  0  0  0  0  0
   36.6840   23.7730   40.5880 C   0  0  0  0  0  0  0  0  0  0  0  0
   38.1250   23.4050   40.0990 C   0  0  0  0  0  0  0  0  0  0  0  0
   37.8670   22.7740   42.2060 H   0  0  0  0  0  0  0  0  0  0  0  0
   36.3270   24.7740   40.3160 H   0  0  0  0  0  0  0  0  0  0  0  0
   35.9760   22.9340   40.6100 H   0  0  0  0  0  0  0  0  0  0  0  0
   38.2620   22.4240   39.6410 H   0  0  0  0  0  0  0  0  0  0  0  0
   38.6110   24.2180   39.5050 H   0  0  0  0  0  0  0  0  0  0  0  0
  1  7  1  0  0  0  0
  2  8  1  0  0  0  0
  2  1  1  0  0  0  0
  3  2  2  0  0  0  0
  4  5  2  0  0  0  0
  4  3  1  0  0  0  0
  5  6  1  0  0  0  0
  6  1  2  0  0  0  0
  9  5  1  0  0  0  0
 10 15  1  0  0  0  0
 10  9  2  0  0  0  0
 11 10  1  0  0  0  0
 12 11  2  0  0  0  0
 12 13  1  0  0  0  0
 13 14  2  0  0  0  0
 14  9  1  0  0  0  0
 16 11  1  0  0  0  0
 17 12  1  0  0  0  0
 18 13  1  0  0  0  0
 18 24  2  0  0  0  0
 19 20  2  0  0  0  0
 19 18  1  0  0  0  0
 20 22  1  0  0  0  0
 21 20  1  0  0  0  0
 22 23  1  0  0  0  0
 22 24  1  0  0  0  0
 25  3  1  0  0  0  0
 25 28  1  0  0  0  0
 26 30  1  0  0  0  0
 26 25  1  0  0  0  0
 27 26  1  0  0  0  0
 27 25  1  0  0  0  0
 29 26  1  0  0  0  0
 31 27  1  0  0  0  0
 32 27  1  0  0  0  0
M  END
>  <minimizedAffinity>
-5.54852581

$$$$

 OpenBabel03252505203D

 32 35  0  0  0  0  0  0  0  0999 V2000
   37.6420   28.7870   43.6160 C   0  0  0  0  0  0  0  0  0  0  0  0
   37.4190   27.3930   43.5850 C   0  0  0  0  0  0  0  0  0  0  0  0
   37.1440   26.8640   42.3460 C   0  0  0  0  0  0  0  0  0  0  0  0
   37.0930   27.6580   41.2210 N   0  0  0  0  0  0  0  0  0  0  0  0
   37.3190   29.0080   41.3140 C   0  0  0  0  0  0  0  0  0  0  0  0
   37.5890   29.5520   42.5060 N   0  0  0  0  0  0  0  0  0  0  0  0
   37.8650   29.2650   44.5730 H   0  0  0  0  0  0  0  0  0  0  0  0
   37.4640   26.7890   44.4810 H   0  0  0  0  0  0  0  0  0  0  0  0
   37.2710   29.8180   40.0990 C   0  0  0  0  0  0  0  0  0  0  0  0
   37.2780   31.1920   40.2160 C   0  0  0  0  0  0  0  0  0  0  0  0
   37.2340   31.9840   39.0900 C   0  0  0  0  0  0  0  0  0  0  0  0
   37.1820   31.3470   37.8580 C   0  0  0  0  0  0  0  0  0  0  0  0
   37.1770   29.9580   37.8000 C   0  0  0  0  0  0  0  0  0  0  0  0
   37.2210   29.1920   38.9140 N   0  0  0  0  0  0  0  0  0  0  0  0
   37.3180   31.7170   41.1680 H   0  0  0  0  0  0  0  0  0  0  0  0
   37.2390   33.0700   39.1520 H   0  0  0  0  0  0  0  0  0  0  0  0
   37.1450   31.9100   36.9280 H   0  0  0  0  0  0  0  0  0  0  0  0
   37.1230   29.2620   36.5060 C   0  0  0  0  0  0  0  0  0  0  0  0
   36.4860   29.9880   35.5510 N   0  0  0  0  0  0  0  0  0  0  0  0
   36.4920   29.2590   34.4020 C   0  0  0  0  0  0  0  0  0  0  0  0
   36.0700   29.5340   33.4410 H   0  0  0  0  0  0  0  0  0  0  0  0
   37.1310   28.1110   34.6940 N   0  0  0  0  0  0  0  0  0  0  0  0
   37.2740   27.3710   33.9850 H   0  0  0  0  0  0  0  0  0  0  0  0
   37.5140   28.1150   35.9730 N   0  0  0  0  0  0  0  0  0  0  0  0
   36.9240   25.3890   42.1790 C   0  0  0  0  0  0  0  0  0  0  0  0
   36.9050   24.9650   40.7080 C   0  0  0  0  0  0  0  0  0  0  0  0
   38.0140   24.5610   41.7360 C   0  0  0  0  0  0  0  0  0  0  0  0
   36.1070   24.9280   42.8000 H   0  0  0  0  0  0  0  0  0  0  0  0
   37.2030   25.6950   39.9450 H   0  0  0  0  0  0  0  0  0  0  0  0
   36.2050   24.1610   40.4440 H   0  0  0  0  0  0  0  0  0  0  0  0
   38.1300   23.4970   41.9540 H   0  0  0  0  0  0  0  0  0  0  0  0
   38.9960   25.0600   41.5470 H   0  0  0  0  0  0  0  0  0  0  0  0
  1  7  1  0  0  0  0
  2  1  1  0  0  0  0
  2  8  1  0  0  0  0
  3  2  2  0  0  0  0
  4  5  2  0  0  0  0
  4  3  1  0  0  0  0
  5  6  1  0  0  0  0
  6  1  2  0  0  0  0
  9 10  1  0  0  0  0
  9  5  1  0  0  0  0
 10 15  1  0  0  0  0
 11 16  1  0  0  0  0
 11 10  2  0  0  0  0
 12 11  1  0  0  0  0
 13 12  2  0  0  0  0
 13 14  1  0  0  0  0
 14  9  2  0  0  0  0
 17 12  1  0  0  0  0
 18 13  1  0  0  0  0
 19 18  1  0  0  0  0
 20 22  1  0  0  0  0
 20 19  2  0  0  0  0
 21 20  1  0  0  0  0
 22 24  1  0  0  0  0
 23 22  1  0  0  0  0
 24 18  2  0  0  0  0
 25  3  1  0  0  0  0
 25 28  1  0  0  0  0
 26 27  1  0  0  0  0
 26 25  1  0  0  0  0
 27 31  1  0  0  0  0
 27 25  1  0  0  0  0
 29 26  1  0  0  0  0
 30 26  1  0  0  0  0
 32 27  1  0  0  0  0
M  END
>  <minimizedAffinity>
-5.34176302

$$$$

 OpenBabel03252505203D

 32 35  0  0  0  0  0  0  0  0999 V2000
   36.5430   27.4070   38.9030 C   0  0  0  0  0  0  0  0  0  0  0  0
   36.5820   26.7090   40.1300 C   0  0  0  0  0  0  0  0  0  0  0  0
   37.1120   27.4050   41.1910 C   0  0  0  0  0  0  0  0  0  0  0  0
   37.5690   28.6960   41.0470 N   0  0  0  0  0  0  0  0  0  0  0  0
   37.5040   29.3230   39.8280 C   0  0  0  0  0  0  0  0  0  0  0  0
   36.9940   28.6710   38.7770 N   0  0  0  0  0  0  0  0  0  0  0  0
   36.1330   26.9050   38.0240 H   0  0  0  0  0  0  0  0  0  0  0  0
   36.2180   25.6940   40.2210 H   0  0  0  0  0  0  0  0  0  0  0  0
   37.9850   30.6980   39.7140 C   0  0  0  0  0  0  0  0  0  0  0  0
   37.2970   31.6990   40.3660 C   0  0  0  0  0  0  0  0  0  0  0  0
   37.7250   33.0060   40.2790 C   0  0  0  0  0  0  0  0  0  0  0  0
   38.8570   33.2610   39.5170 C   0  0  0  0  0  0  0  0  0  0  0  0
   39.5110   32.2120   38.8810 C   0  0  0  0  0  0  0  0  0  0  0  0
   39.0790   30.9340   38.9760 N   0  0  0  0  0  0  0  0  0  0  0  0
   36.4080   31.5280   40.9690 H   0  0  0  0  0  0  0  0  0  0  0  0
   37.2020   33.8150   40.7830 H   0  0  0  0  0  0  0  0  0  0  0  0
   39.2500   34.2690   39.4040 H   0  0  0  0  0  0  0  0  0  0  0  0
   40.7120   32.4590   38.0690 C   0  0  0  0  0  0  0  0  0  0  0  0
   41.2710   31.3120   37.6070 N   0  0  0  0  0  0  0  0  0  0  0  0
   42.3660   31.6500   36.8740 C   0  0  0  0  0  0  0  0  0  0  0  0
   43.0500   30.9830   36.3570 H   0  0  0  0  0  0  0  0  0  0  0  0
   42.4410   32.9930   36.9150 N   0  0  0  0  0  0  0  0  0  0  0  0
   43.1930   33.5130   36.4310 H   0  0  0  0  0  0  0  0  0  0  0  0
   41.4340   33.4840   37.6420 N   0  0  0  0  0  0  0  0  0  0  0  0
   37.1750   26.7820   42.5550 C   0  0  0  0  0  0  0  0  0  0  0  0
   38.1210   27.5340   43.4960 C   0  0  0  0  0  0  0  0  0  0  0  0
   36.5670   27.4620   43.6680 C   0  0  0  0  0  0  0  0  0  0  0  0
   37.2840   25.6630   42.5950 H   0  0  0  0  0  0  0  0  0  0  0  0
   38.5230   28.5040   43.1760 H   0  0  0  0  0  0  0  0  0  0  0  0
   38.6930   26.9190   44.2030 H   0  0  0  0  0  0  0  0  0  0  0  0
   36.1850   26.9830   44.5720 H   0  0  0  0  0  0  0  0  0  0  0  0
   36.0530   28.4330   43.4590 H   0  0  0  0  0  0  0  0  0  0  0  0
  1  2  1  0  0  0  0
  2  8  1  0  0  0  0
  2  3  2  0  0  0  0
  3 25  1  0  0  0  0
  4  3  1  0  0  0  0
  5  4  2  0  0  0  0
  6  1  2  0  0  0  0
  6  5  1  0  0  0  0
  7  1  1  0  0  0  0
  9  5  1  0  0  0  0
  9 10  1  0  0  0  0
 10 15  1  0  0  0  0
 11 10  2  0  0  0  0
 11 16  1  0  0  0  0
 12 11  1  0  0  0  0
 13 14  1  0  0  0  0
 13 12  2  0  0  0  0
 14  9  2  0  0  0  0
 17 12  1  0  0  0  0
 18 13  1  0  0  0  0
 19 18  1  0  0  0  0
 20 22  1  0  0  0  0
 20 19  2  0  0  0  0
 21 20  1  0  0  0  0
 22 24  1  0  0  0  0
 23 22  1  0  0  0  0
 24 18  2  0  0  0  0
 25 28  1  0  0  0  0
 25 26  1  0  0  0  0
 25 27  1  0  0  0  0
 26 27  1  0  0  0  0
 26 30  1  0  0  0  0
 27 31  1  0  0  0  0
 29 26  1  0  0  0  0
 32 27  1  0  0  0  0
M  END
>  <minimizedAffinity>
-5.29228592

$$$$

 OpenBabel03252505203D

 32 35  0  0  0  0  0  0  0  0999 V2000
   36.6450   27.4990   43.4250 C   0  0  0  0  0  0  0  0  0  0  0  0
   36.6110   26.3340   42.6280 C   0  0  0  0  0  0  0  0  0  0  0  0
   37.4590   26.3310   41.5460 C   0  0  0  0  0  0  0  0  0  0  0  0
   38.2800   27.4030   41.2740 N   0  0  0  0  0  0  0  0  0  0  0  0
   38.2700   28.5080   42.0860 C   0  0  0  0  0  0  0  0  0  0  0  0
   37.4550   28.5410   43.1460 N   0  0  0  0  0  0  0  0  0  0  0  0
   35.9920   27.5600   44.2990 H   0  0  0  0  0  0  0  0  0  0  0  0
   35.9570   25.5040   42.8600 H   0  0  0  0  0  0  0  0  0  0  0  0
   39.1640   29.6220   41.7760 C   0  0  0  0  0  0  0  0  0  0  0  0
   39.9280   30.1610   42.7880 C   0  0  0  0  0  0  0  0  0  0  0  0
   40.7820   31.2120   42.5290 C   0  0  0  0  0  0  0  0  0  0  0  0
   40.8330   31.6910   41.2270 C   0  0  0  0  0  0  0  0  0  0  0  0
   40.0400   31.1080   40.2470 C   0  0  0  0  0  0  0  0  0  0  0  0
   39.2060   30.0770   40.5150 N   0  0  0  0  0  0  0  0  0  0  0  0
   39.9080   29.8060   43.8170 H   0  0  0  0  0  0  0  0  0  0  0  0
   41.3970   31.6570   43.3080 H   0  0  0  0  0  0  0  0  0  0  0  0
   41.4840   32.5180   40.9520 H   0  0  0  0  0  0  0  0  0  0  0  0
   40.0780   31.5990   38.8610 C   0  0  0  0  0  0  0  0  0  0  0  0
   41.3270   31.9670   38.4750 N   0  0  0  0  0  0  0  0  0  0  0  0
   41.2520   32.4020   37.1880 C   0  0  0  0  0  0  0  0  0  0  0  0
   42.0610   32.7700   36.5640 H   0  0  0  0  0  0  0  0  0  0  0  0
   39.9590   32.2870   36.8310 N   0  0  0  0  0  0  0  0  0  0  0  0
   39.6270   32.5540   35.8880 H   0  0  0  0  0  0  0  0  0  0  0  0
   39.2470   31.7980   37.8500 N   0  0  0  0  0  0  0  0  0  0  0  0
   37.5380   25.1340   40.6440 C   0  0  0  0  0  0  0  0  0  0  0  0
   37.8610   23.8480   41.4090 C   0  0  0  0  0  0  0  0  0  0  0  0
   36.4980   24.1410   40.6990 C   0  0  0  0  0  0  0  0  0  0  0  0
   38.1220   25.2590   39.6900 H   0  0  0  0  0  0  0  0  0  0  0  0
   37.8430   23.8670   42.5060 H   0  0  0  0  0  0  0  0  0  0  0  0
   38.5050   23.1240   40.8920 H   0  0  0  0  0  0  0  0  0  0  0  0
   36.2090   23.4800   39.8780 H   0  0  0  0  0  0  0  0  0  0  0  0
   35.6560   24.3180   41.4120 H   0  0  0  0  0  0  0  0  0  0  0  0
  1  7  1  0  0  0  0
  2  8  1  0  0  0  0
  2  1  2  0  0  0  0
  3  2  1  0  0  0  0
  4  3  2  0  0  0  0
  4  5  1  0  0  0  0
  5  6  2  0  0  0  0
  6  1  1  0  0  0  0
  9  5  1  0  0  0  0
  9 10  1  0  0  0  0
 10 15  1  0  0  0  0
 11 10  2  0  0  0  0
 11 16  1  0  0  0  0
 12 11  1  0  0  0  0
 13 14  1  0  0  0  0
 13 12  2  0  0  0  0
 14  9  2  0  0  0  0
 17 12  1  0  0  0  0
 18 13  1  0  0  0  0
 19 18  1  0  0  0  0
 20 19  2  0  0  0  0
 21 20  1  0  0  0  0
 22 20  1  0  0  0  0
 22 24  1  0  0  0  0
 23 22  1  0  0  0  0
 24 18  2  0  0  0  0
 25 27  1  0  0  0  0
 25 26  1  0  0  0  0
 25  3  1  0  0  0  0
 26 29  1  0  0  0  0
 27 26  1  0  0  0  0
 27 32  1  0  0  0  0
 28 25  1  0  0  0  0
 30 26  1  0  0  0  0
 31 27  1  0  0  0  0
M  END
>  <minimizedAffinity>
-5.28692865

$$$$

 OpenBabel03252505203D

 32 35  0  0  0  0  0  0  0  0999 V2000
   37.1470   30.3410   37.9460 C   0  0  0  0  0  0  0  0  0  0  0  0
   37.4300   31.7130   38.1290 C   0  0  0  0  0  0  0  0  0  0  0  0
   37.7390   32.0870   39.4160 C   0  0  0  0  0  0  0  0  0  0  0  0
   37.7650   31.1710   40.4440 N   0  0  0  0  0  0  0  0  0  0  0  0
   37.4810   29.8510   40.2050 C   0  0  0  0  0  0  0  0  0  0  0  0
   37.1760   29.4560   38.9630 N   0  0  0  0  0  0  0  0  0  0  0  0
   36.8930   29.9840   36.9460 H   0  0  0  0  0  0  0  0  0  0  0  0
   37.4030   32.4150   37.3070 H   0  0  0  0  0  0  0  0  0  0  0  0
   37.5310   28.9040   41.3160 C   0  0  0  0  0  0  0  0  0  0  0  0
   37.5020   29.3900   42.6060 C   0  0  0  0  0  0  0  0  0  0  0  0
   37.5480   28.5230   43.6760 C   0  0  0  0  0  0  0  0  0  0  0  0
   37.6230   27.1650   43.3990 C   0  0  0  0  0  0  0  0  0  0  0  0
   37.6490   26.7310   42.0790 C   0  0  0  0  0  0  0  0  0  0  0  0
   37.6040   27.5940   41.0380 N   0  0  0  0  0  0  0  0  0  0  0  0
   37.4430   30.4490   42.8520 H   0  0  0  0  0  0  0  0  0  0  0  0
   37.5260   28.8790   44.7030 H   0  0  0  0  0  0  0  0  0  0  0  0
   37.6620   26.4240   44.1950 H   0  0  0  0  0  0  0  0  0  0  0  0
   37.7280   25.2970   41.7620 C   0  0  0  0  0  0  0  0  0  0  0  0
   36.8190   24.9220   40.8260 N   0  0  0  0  0  0  0  0  0  0  0  0
   36.9760   23.5880   40.6070 C   0  0  0  0  0  0  0  0  0  0  0  0
   36.4170   22.9580   39.9220 H   0  0  0  0  0  0  0  0  0  0  0  0
   37.9750   23.1930   41.4180 N   0  0  0  0  0  0  0  0  0  0  0  0
   38.2990   22.2100   41.4480 H   0  0  0  0  0  0  0  0  0  0  0  0
   38.4320   24.2340   42.1190 N   0  0  0  0  0  0  0  0  0  0  0  0
   38.0940   33.5110   39.7300 C   0  0  0  0  0  0  0  0  0  0  0  0
   38.8590   33.6440   41.0500 C   0  0  0  0  0  0  0  0  0  0  0  0
   39.4670   33.9320   39.6360 C   0  0  0  0  0  0  0  0  0  0  0  0
   37.2800   34.2760   39.5930 H   0  0  0  0  0  0  0  0  0  0  0  0
   39.2150   32.7330   41.5480 H   0  0  0  0  0  0  0  0  0  0  0  0
   38.6410   34.5380   41.6490 H   0  0  0  0  0  0  0  0  0  0  0  0
   39.8060   34.9500   39.4350 H   0  0  0  0  0  0  0  0  0  0  0  0
   40.2170   33.1690   39.3140 H   0  0  0  0  0  0  0  0  0  0  0  0
  1  2  2  0  0  0  0
  1  6  1  0  0  0  0
  2  3  1  0  0  0  0
  3 25  1  0  0  0  0
  3  4  2  0  0  0  0
  5  4  1  0  0  0  0
  5  9  1  0  0  0  0
  6  5  2  0  0  0  0
  7  1  1  0  0  0  0
  8  2  1  0  0  0  0
  9 10  1  0  0  0  0
 10 15  1  0  0  0  0
 10 11  2  0  0  0  0
 11 16  1  0  0  0  0
 12 11  1  0  0  0  0
 12 17  1  0  0  0  0
 13 12  2  0  0  0  0
 14  9  2  0  0  0  0
 14 13  1  0  0  0  0
 18 13  1  0  0  0  0
 18 24  2  0  0  0  0
 19 18  1  0  0  0  0
 20 19  2  0  0  0  0
 20 22  1  0  0  0  0
 21 20  1  0  0  0  0
 22 23  1  0  0  0  0
 22 24  1  0  0  0  0
 25 26  1  0  0  0  0
 26 29  1  0  0  0  0
 26 30  1  0  0  0  0
 27 25  1  0  0  0  0
 27 26  1  0  0  0  0
 28 25  1  0  0  0  0
 31 27  1  0  0  0  0
 32 27  1  0  0  0  0
M  END
>  <minimizedAffinity>
-5.27610874

$$$$

 OpenBabel03252505203D

 32 35  0  0  0  0  0  0  0  0999 V2000
   36.6240   27.8510   38.8380 C   0  0  0  0  0  0  0  0  0  0  0  0
   36.6210   27.0610   40.0080 C   0  0  0  0  0  0  0  0  0  0  0  0
   37.0560   27.6910   41.1510 C   0  0  0  0  0  0  0  0  0  0  0  0
   37.4640   29.0070   41.1340 N   0  0  0  0  0  0  0  0  0  0  0  0
   37.4450   29.7250   39.9660 C   0  0  0  0  0  0  0  0  0  0  0  0
   37.0270   29.1390   38.8370 N   0  0  0  0  0  0  0  0  0  0  0  0
   36.2900   27.4050   37.8990 H   0  0  0  0  0  0  0  0  0  0  0  0
   36.2970   26.0290   39.9990 H   0  0  0  0  0  0  0  0  0  0  0  0
   37.8710   31.1220   39.9860 C   0  0  0  0  0  0  0  0  0  0  0  0
   36.9720   32.0970   39.6100 C   0  0  0  0  0  0  0  0  0  0  0  0
   37.3420   33.4240   39.6200 C   0  0  0  0  0  0  0  0  0  0  0  0
   38.6380   33.7260   40.0170 C   0  0  0  0  0  0  0  0  0  0  0  0
   39.5020   32.7020   40.3850 C   0  0  0  0  0  0  0  0  0  0  0  0
   39.1250   31.4030   40.3710 N   0  0  0  0  0  0  0  0  0  0  0  0
   35.9510   31.8890   39.2950 H   0  0  0  0  0  0  0  0  0  0  0  0
   36.6540   34.2140   39.3280 H   0  0  0  0  0  0  0  0  0  0  0  0
   38.9980   34.7520   40.0470 H   0  0  0  0  0  0  0  0  0  0  0  0
   40.8790   32.9990   40.8090 C   0  0  0  0  0  0  0  0  0  0  0  0
   41.4210   31.9970   41.5490 N   0  0  0  0  0  0  0  0  0  0  0  0
   42.6850   32.3690   41.8870 C   0  0  0  0  0  0  0  0  0  0  0  0
   43.4060   31.8100   42.4750 H   0  0  0  0  0  0  0  0  0  0  0  0
   42.8730   33.5870   41.3440 N   0  0  0  0  0  0  0  0  0  0  0  0
   43.7630   34.1020   41.4530 H   0  0  0  0  0  0  0  0  0  0  0  0
   41.7730   33.9670   40.6880 N   0  0  0  0  0  0  0  0  0  0  0  0
   37.0650   26.9660   42.4640 C   0  0  0  0  0  0  0  0  0  0  0  0
   38.3110   27.2830   43.2970 C   0  0  0  0  0  0  0  0  0  0  0  0
   36.8540   27.7080   43.6790 C   0  0  0  0  0  0  0  0  0  0  0  0
   36.7960   25.8740   42.4400 H   0  0  0  0  0  0  0  0  0  0  0  0
   38.9750   28.0920   42.9670 H   0  0  0  0  0  0  0  0  0  0  0  0
   38.7210   26.4550   43.8900 H   0  0  0  0  0  0  0  0  0  0  0  0
   36.4410   27.3020   44.6060 H   0  0  0  0  0  0  0  0  0  0  0  0
   36.6750   28.8070   43.5860 H   0  0  0  0  0  0  0  0  0  0  0  0
  1  2  1  0  0  0  0
  2  3  2  0  0  0  0
  3 25  1  0  0  0  0
  4  3  1  0  0  0  0
  5  9  1  0  0  0  0
  5  4  2  0  0  0  0
  6  1  2  0  0  0  0
  6  5  1  0  0  0  0
  7  1  1  0  0  0  0
  8  2  1  0  0  0  0
  9 14  1  0  0  0  0
 10 11  1  0  0  0  0
 10  9  2  0  0  0  0
 11 12  2  0  0  0  0
 12 17  1  0  0  0  0
 12 13  1  0  0  0  0
 13 18  1  0  0  0  0
 14 13  2  0  0  0  0
 15 10  1  0  0  0  0
 16 11  1  0  0  0  0
 18 19  1  0  0  0  0
 19 20  2  0  0  0  0
 20 21  1  0  0  0  0
 22 23  1  0  0  0  0
 22 20  1  0  0  0  0
 24 18  2  0  0  0  0
 24 22  1  0  0  0  0
 25 26  1  0  0  0  0
 25 27  1  0  0  0  0
 26 27  1  0  0  0  0
 26 30  1  0  0  0  0
 27 31  1  0  0  0  0
 28 25  1  0  0  0  0
 29 26  1  0  0  0  0
 32 27  1  0  0  0  0
M  END
>  <minimizedAffinity>
-5.23111153

$$$$

 OpenBabel03252505203D

 32 35  0  0  0  0  0  0  0  0999 V2000
   36.3080   24.9100   38.9100 C   0  0  0  0  0  0  0  0  0  0  0  0
   35.5910   25.5680   37.8870 C   0  0  0  0  0  0  0  0  0  0  0  0
   35.4040   26.9180   38.0680 C   0  0  0  0  0  0  0  0  0  0  0  0
   35.8900   27.5680   39.1810 N   0  0  0  0  0  0  0  0  0  0  0  0
   36.5800   26.8750   40.1430 C   0  0  0  0  0  0  0  0  0  0  0  0
   36.7780   25.5600   39.9950 N   0  0  0  0  0  0  0  0  0  0  0  0
   36.4880   23.8370   38.8220 H   0  0  0  0  0  0  0  0  0  0  0  0
   35.2180   25.0380   37.0210 H   0  0  0  0  0  0  0  0  0  0  0  0
   37.0940   27.5970   41.3040 C   0  0  0  0  0  0  0  0  0  0  0  0
   36.8400   27.0970   42.5630 C   0  0  0  0  0  0  0  0  0  0  0  0
   37.3120   27.7550   43.6790 C   0  0  0  0  0  0  0  0  0  0  0  0
   38.0380   28.9210   43.4790 C   0  0  0  0  0  0  0  0  0  0  0  0
   38.2630   29.3780   42.1860 C   0  0  0  0  0  0  0  0  0  0  0  0
   37.7940   28.7230   41.0990 N   0  0  0  0  0  0  0  0  0  0  0  0
   36.2750   26.1870   42.7500 H   0  0  0  0  0  0  0  0  0  0  0  0
   37.1270   27.3830   44.6840 H   0  0  0  0  0  0  0  0  0  0  0  0
   38.4390   29.4910   44.3140 H   0  0  0  0  0  0  0  0  0  0  0  0
   39.0300   30.6110   41.9490 C   0  0  0  0  0  0  0  0  0  0  0  0
   38.4070   31.4520   41.0860 N   0  0  0  0  0  0  0  0  0  0  0  0
   39.1930   32.5530   40.9370 C   0  0  0  0  0  0  0  0  0  0  0  0
   39.0030   33.4260   40.3210 H   0  0  0  0  0  0  0  0  0  0  0  0
   40.2720   32.3450   41.7160 N   0  0  0  0  0  0  0  0  0  0  0  0
   41.0360   33.0400   41.7860 H   0  0  0  0  0  0  0  0  0  0  0  0
   40.1710   31.1640   42.3300 N   0  0  0  0  0  0  0  0  0  0  0  0
   34.6880   27.7340   37.0310 C   0  0  0  0  0  0  0  0  0  0  0  0
   33.9340   28.9190   37.6410 C   0  0  0  0  0  0  0  0  0  0  0  0
   35.1810   29.0460   36.7040 C   0  0  0  0  0  0  0  0  0  0  0  0
   34.1000   27.1650   36.2600 H   0  0  0  0  0  0  0  0  0  0  0  0
   34.1020   29.1650   38.6970 H   0  0  0  0  0  0  0  0  0  0  0  0
   32.9760   29.1780   37.1710 H   0  0  0  0  0  0  0  0  0  0  0  0
   35.0400   29.5550   35.7480 H   0  0  0  0  0  0  0  0  0  0  0  0
   36.1000   29.3970   37.2350 H   0  0  0  0  0  0  0  0  0  0  0  0
  1  6  1  0  0  0  0
  2  3  1  0  0  0  0
  2  1  2  0  0  0  0
  3  4  2  0  0  0  0
  4  5  1  0  0  0  0
  5  9  1  0  0  0  0
  6  5  2  0  0  0  0
  7  1  1  0  0  0  0
  8  2  1  0  0  0  0
  9 10  1  0  0  0  0
 10 15  1  0  0  0  0
 10 11  2  0  0  0  0
 11 16  1  0  0  0  0
 12 11  1  0  0  0  0
 12 17  1  0  0  0  0
 13 12  2  0  0  0  0
 14  9  2  0  0  0  0
 14 13  1  0  0  0  0
 18 13  1  0  0  0  0
 18 24  2  0  0  0  0
 19 18  1  0  0  0  0
 20 19  2  0  0  0  0
 20 22  1  0  0  0  0
 21 20  1  0  0  0  0
 22 23  1  0  0  0  0
 22 24  1  0  0  0  0
 25 26  1  0  0  0  0
 25  3  1  0  0  0  0
 26 29  1  0  0  0  0
 27 25  1  0  0  0  0
 27 32  1  0  0  0  0
 27 26  1  0  0  0  0
 28 25  1  0  0  0  0
 30 26  1  0  0  0  0
 31 27  1  0  0  0  0
M  END
>  <minimizedAffinity>
-5.10176945

$$$$

 OpenBabel03252505203D

 32 35  0  0  0  0  0  0  0  0999 V2000
   37.2980   28.1900   43.6800 C   0  0  0  0  0  0  0  0  0  0  0  0
   37.3820   26.9220   43.0620 C   0  0  0  0  0  0  0  0  0  0  0  0
   37.6410   26.9370   41.7110 C   0  0  0  0  0  0  0  0  0  0  0  0
   37.8050   28.1200   41.0250 N   0  0  0  0  0  0  0  0  0  0  0  0
   37.7130   29.3220   41.6800 C   0  0  0  0  0  0  0  0  0  0  0  0
   37.4610   29.3400   42.9940 N   0  0  0  0  0  0  0  0  0  0  0  0
   37.0930   28.2420   44.7510 H   0  0  0  0  0  0  0  0  0  0  0  0
   37.2500   26.0060   43.6200 H   0  0  0  0  0  0  0  0  0  0  0  0
   37.9050   30.5560   40.9230 C   0  0  0  0  0  0  0  0  0  0  0  0
   36.8060   31.1660   40.3560 C   0  0  0  0  0  0  0  0  0  0  0  0
   36.9540   32.3330   39.6370 C   0  0  0  0  0  0  0  0  0  0  0  0
   38.2350   32.8530   39.5130 C   0  0  0  0  0  0  0  0  0  0  0  0
   39.3060   32.1950   40.1060 C   0  0  0  0  0  0  0  0  0  0  0  0
   39.1460   31.0510   40.8100 N   0  0  0  0  0  0  0  0  0  0  0  0
   35.7920   30.7810   40.4370 H   0  0  0  0  0  0  0  0  0  0  0  0
   36.1050   32.8350   39.1790 H   0  0  0  0  0  0  0  0  0  0  0  0
   38.4240   33.7700   38.9590 H   0  0  0  0  0  0  0  0  0  0  0  0
   40.6720   32.7280   39.9880 C   0  0  0  0  0  0  0  0  0  0  0  0
   40.7660   33.7120   39.0570 N   0  0  0  0  0  0  0  0  0  0  0  0
   42.0600   34.1330   39.0280 C   0  0  0  0  0  0  0  0  0  0  0  0
   42.4920   34.9070   38.4010 H   0  0  0  0  0  0  0  0  0  0  0  0
   42.7130   33.3910   39.9420 N   0  0  0  0  0  0  0  0  0  0  0  0
   43.7240   33.5120   40.1220 H   0  0  0  0  0  0  0  0  0  0  0  0
   41.8670   32.5380   40.5250 N   0  0  0  0  0  0  0  0  0  0  0  0
   37.7880   25.6530   40.9500 C   0  0  0  0  0  0  0  0  0  0  0  0
   37.0820   24.4820   41.6400 C   0  0  0  0  0  0  0  0  0  0  0  0
   36.6450   25.1020   40.2700 C   0  0  0  0  0  0  0  0  0  0  0  0
   38.8180   25.4070   40.5690 H   0  0  0  0  0  0  0  0  0  0  0  0
   36.4240   24.6910   42.4920 H   0  0  0  0  0  0  0  0  0  0  0  0
   37.5790   23.5050   41.5660 H   0  0  0  0  0  0  0  0  0  0  0  0
   36.6810   24.4530   39.3930 H   0  0  0  0  0  0  0  0  0  0  0  0
   35.6870   25.6750   40.3300 H   0  0  0  0  0  0  0  0  0  0  0  0
  1  7  1  0  0  0  0
  2  8  1  0  0  0  0
  2  1  1  0  0  0  0
  3  2  2  0  0  0  0
  4  5  2  0  0  0  0
  4  3  1  0  0  0  0
  5  6  1  0  0  0  0
  6  1  2  0  0  0  0
  9  5  1  0  0  0  0
 10 15  1  0  0  0  0
 10  9  2  0  0  0  0
 11 10  1  0  0  0  0
 12 11  2  0  0  0  0
 12 13  1  0  0  0  0
 13 14  2  0  0  0  0
 14  9  1  0  0  0  0
 16 11  1  0  0  0  0
 17 12  1  0  0  0  0
 18 13  1  0  0  0  0
 18 24  2  0  0  0  0
 19 18  1  0  0  0  0
 20 19  2  0  0  0  0
 20 22  1  0  0  0  0
 21 20  1  0  0  0  0
 22 23  1  0  0  0  0
 22 24  1  0  0  0  0
 25 26  1  0  0  0  0
 25  3  1  0  0  0  0
 26 29  1  0  0  0  0
 27 32  1  0  0  0  0
 27 25  1  0  0  0  0
 27 26  1  0  0  0  0
 28 25  1  0  0  0  0
 30 26  1  0  0  0  0
 31 27  1  0  0  0  0
M  END
>  <minimizedAffinity>
-5.08605623

$$$$
