
 OpenBabel03252501093D

 38 41  0  0  1  0  0  0  0  0999 V2000
   34.3350   29.2640   39.9050 O   0  0  0  0  0  0  0  0  0  0  0  0
   35.7310   29.5080   40.4750 P   0  0  2  0  0  0  0  0  0  0  0  0
   35.5930   30.9080   41.4190 O   0  0  0  0  0  0  0  0  0  0  0  0
   34.6760   31.1950   41.5740 H   0  0  0  0  0  0  0  0  0  0  0  0
   36.8780   29.5760   39.3130 O   0  0  0  0  0  0  0  0  0  0  0  0
   36.9510   31.1580   37.4800 C   0  0  1  0  0  0  0  0  0  0  0  0
   37.5450   29.9340   36.9250 C   0  0  0  0  0  0  0  0  0  0  0  0
   36.5080   29.8830   38.0590 C   0  0  1  0  0  0  0  0  0  0  0  0
   36.2120   31.7660   36.9220 H   0  0  0  0  0  0  0  0  0  0  0  0
   37.2480   29.6640   35.9040 H   0  0  0  0  0  0  0  0  0  0  0  0
   38.5350   29.5670   37.2390 H   0  0  0  0  0  0  0  0  0  0  0  0
   35.5890   29.3830   37.6980 H   0  0  0  0  0  0  0  0  0  0  0  0
   38.2020   33.7040   39.9930 C   0  0  0  0  0  0  0  0  0  0  0  0
   37.3350   32.9360   39.2220 C   0  0  0  0  0  0  0  0  0  0  0  0
   37.8730   31.9870   38.3310 C   0  0  0  0  0  0  0  0  0  0  0  0
   39.2180   31.8410   38.2430 N   0  0  0  0  0  0  0  0  0  0  0  0
   40.0440   32.6070   39.0100 C   0  0  0  0  0  0  0  0  0  0  0  0
   39.5360   33.5350   39.8820 N   0  0  0  0  0  0  0  0  0  0  0  0
   37.7640   34.4170   40.6600 H   0  0  0  0  0  0  0  0  0  0  0  0
   36.2800   33.0840   39.3230 H   0  0  0  0  0  0  0  0  0  0  0  0
   41.1000   32.4290   38.8800 H   0  0  0  0  0  0  0  0  0  0  0  0
   35.9950   28.2180   41.5170 O   0  0  0  0  0  0  0  0  0  0  0  0
   37.1980   27.9510   42.1420 C   0  0  0  0  0  0  0  0  0  0  0  0
   37.5810   26.7850   42.7910 C   0  0  0  0  0  0  0  0  0  0  0  0
   38.8240   26.6800   43.3660 C   0  0  0  0  0  0  0  0  0  0  0  0
   39.7160   27.7320   43.3080 C   0  0  0  0  0  0  0  0  0  0  0  0
   39.2820   28.8830   42.6430 C   0  0  0  0  0  0  0  0  0  0  0  0
   38.0510   28.9700   42.0820 N   0  0  0  0  0  0  0  0  0  0  0  0
   36.8120   26.0170   42.7830 H   0  0  0  0  0  0  0  0  0  0  0  0
   39.0390   25.7500   43.8450 H   0  0  0  0  0  0  0  0  0  0  0  0
   40.6920   27.6500   43.7580 H   0  0  0  0  0  0  0  0  0  0  0  0
   40.2580   29.9660   42.6080 C   0  0  0  0  0  0  0  0  0  0  0  0
   41.5930   29.8230   42.8290 N   0  0  0  0  0  0  0  0  0  0  0  0
   42.1840   31.0270   42.7170 C   0  0  0  0  0  0  0  0  0  0  0  0
   43.2430   31.2730   42.8310 H   0  0  0  0  0  0  0  0  0  0  0  0
   41.2200   31.9400   42.4240 N   0  0  0  0  0  0  0  0  0  0  0  0
   41.3460   32.9590   42.2730 H   0  0  0  0  0  0  0  0  0  0  0  0
   40.0780   31.2770   42.3650 N   0  0  0  0  0  0  0  0  0  0  0  0
  2  1  2  6  0  0  0
  2  3  1  0  0  0  0
  2 22  1  0  0  0  0
  3  4  1  0  0  0  0
  5  2  1  0  0  0  0
  6  9  1  6  0  0  0
  6  8  1  0  0  0  0
  6 15  1  0  0  0  0
  7 11  1  0  0  0  0
  7  6  1  0  0  0  0
  7  8  1  0  0  0  0
  8 12  1  6  0  0  0
  8  5  1  0  0  0  0
 10  7  1  0  0  0  0
 13 19  1  0  0  0  0
 14 20  1  0  0  0  0
 14 13  2  0  0  0  0
 15 14  1  0  0  0  0
 16 15  2  0  0  0  0
 16 17  1  0  0  0  0
 17 18  2  0  0  0  0
 18 13  1  0  0  0  0
 21 17  1  0  0  0  0
 22 23  1  0  0  0  0
 23 24  1  0  0  0  0
 24 25  2  0  0  0  0
 25 30  1  0  0  0  0
 26 25  1  0  0  0  0
 26 31  1  0  0  0  0
 27 26  2  0  0  0  0
 28 23  2  0  0  0  0
 28 27  1  0  0  0  0
 29 24  1  0  0  0  0
 32 27  1  0  0  0  0
 32 33  1  0  0  0  0
 34 33  2  0  0  0  0
 34 35  1  0  0  0  0
 36 34  1  0  0  0  0
 37 36  1  0  0  0  0
 38 36  1  0  0  0  0
 38 32  2  0  0  0  0
M  END
>  <minimizedAffinity>
-6.11723328

$$$$

 OpenBabel03252501093D

 38 41  0  0  1  0  0  0  0  0999 V2000
   34.9710   28.8690   40.4670 O   0  0  0  0  0  0  0  0  0  0  0  0
   36.2120   29.6220   40.9430 P   0  0  2  0  0  0  0  0  0  0  0  0
   35.6800   31.1920   41.2920 O   0  0  0  0  0  0  0  0  0  0  0  0
   34.7110   31.2910   41.3030 H   0  0  0  0  0  0  0  0  0  0  0  0
   37.4430   29.5390   39.8710 O   0  0  0  0  0  0  0  0  0  0  0  0
   37.3740   30.7960   37.8020 C   0  0  1  0  0  0  0  0  0  0  0  0
   38.2790   29.6750   37.5140 C   0  0  0  0  0  0  0  0  0  0  0  0
   37.1580   29.5560   38.5590 C   0  0  1  0  0  0  0  0  0  0  0  0
   36.5870   31.1210   37.0930 H   0  0  0  0  0  0  0  0  0  0  0  0
   38.1650   29.1910   36.5360 H   0  0  0  0  0  0  0  0  0  0  0  0
   39.2840   29.6030   37.9600 H   0  0  0  0  0  0  0  0  0  0  0  0
   36.4170   28.8050   38.2230 H   0  0  0  0  0  0  0  0  0  0  0  0
   39.9470   33.1070   39.3500 C   0  0  0  0  0  0  0  0  0  0  0  0
   39.3930   32.0530   38.6310 C   0  0  0  0  0  0  0  0  0  0  0  0
   37.9900   31.9370   38.5620 C   0  0  0  0  0  0  0  0  0  0  0  0
   37.2130   32.8490   39.1950 N   0  0  0  0  0  0  0  0  0  0  0  0
   37.7830   33.8720   39.8930 C   0  0  0  0  0  0  0  0  0  0  0  0
   39.1470   34.0000   39.9690 N   0  0  0  0  0  0  0  0  0  0  0  0
   41.0160   33.1680   39.3840 H   0  0  0  0  0  0  0  0  0  0  0  0
   40.0430   31.3550   38.1460 H   0  0  0  0  0  0  0  0  0  0  0  0
   37.0960   34.5550   40.3670 H   0  0  0  0  0  0  0  0  0  0  0  0
   36.6200   28.8890   42.3980 O   0  0  0  0  0  0  0  0  0  0  0  0
   37.6110   27.9380   42.5440 C   0  0  0  0  0  0  0  0  0  0  0  0
   38.8120   28.0560   43.2310 C   0  0  0  0  0  0  0  0  0  0  0  0
   39.6960   27.0060   43.2790 C   0  0  0  0  0  0  0  0  0  0  0  0
   39.4070   25.8140   42.6460 C   0  0  0  0  0  0  0  0  0  0  0  0
   38.1870   25.7470   41.9680 C   0  0  0  0  0  0  0  0  0  0  0  0
   37.3240   26.7930   41.9300 N   0  0  0  0  0  0  0  0  0  0  0  0
   38.9460   29.0290   43.6950 H   0  0  0  0  0  0  0  0  0  0  0  0
   40.5950   27.1790   43.8290 H   0  0  0  0  0  0  0  0  0  0  0  0
   40.1010   24.9890   42.6840 H   0  0  0  0  0  0  0  0  0  0  0  0
   37.9260   24.4690   41.3160 C   0  0  0  0  0  0  0  0  0  0  0  0
   36.8720   24.2110   40.4940 N   0  0  0  0  0  0  0  0  0  0  0  0
   36.9500   22.9340   40.0750 C   0  0  0  0  0  0  0  0  0  0  0  0
   36.2690   22.4000   39.4070 H   0  0  0  0  0  0  0  0  0  0  0  0
   38.0570   22.3770   40.6340 N   0  0  0  0  0  0  0  0  0  0  0  0
   38.4010   21.4060   40.5110 H   0  0  0  0  0  0  0  0  0  0  0  0
   38.6220   23.3180   41.3710 N   0  0  0  0  0  0  0  0  0  0  0  0
  2  1  2  6  0  0  0
  2  3  1  0  0  0  0
  2 22  1  0  0  0  0
  3  4  1  0  0  0  0
  5  2  1  0  0  0  0
  6  9  1  6  0  0  0
  6  8  1  0  0  0  0
  6 15  1  0  0  0  0
  7  6  1  0  0  0  0
  7 11  1  0  0  0  0
  7  8  1  0  0  0  0
  8 12  1  6  0  0  0
  8  5  1  0  0  0  0
 10  7  1  0  0  0  0
 13 19  1  0  0  0  0
 13 18  1  0  0  0  0
 14 13  2  0  0  0  0
 15 14  1  0  0  0  0
 15 16  2  0  0  0  0
 16 17  1  0  0  0  0
 17 18  2  0  0  0  0
 17 21  1  0  0  0  0
 20 14  1  0  0  0  0
 22 23  1  0  0  0  0
 23 24  1  0  0  0  0
 24 25  2  0  0  0  0
 24 29  1  0  0  0  0
 25 30  1  0  0  0  0
 26 31  1  0  0  0  0
 26 25  1  0  0  0  0
 27 26  2  0  0  0  0
 28 27  1  0  0  0  0
 28 23  2  0  0  0  0
 32 38  2  0  0  0  0
 32 27  1  0  0  0  0
 33 32  1  0  0  0  0
 34 33  2  0  0  0  0
 34 36  1  0  0  0  0
 35 34  1  0  0  0  0
 36 38  1  0  0  0  0
 37 36  1  0  0  0  0
M  END
>  <minimizedAffinity>
-5.88580513

$$$$

 OpenBabel03252501093D

 38 41  0  0  1  0  0  0  0  0999 V2000
   35.0040   28.8080   40.5950 O   0  0  0  0  0  0  0  0  0  0  0  0
   36.2690   29.5880   40.9480 P   0  0  2  0  0  0  0  0  0  0  0  0
   35.7370   31.1400   41.3730 O   0  0  0  0  0  0  0  0  0  0  0  0
   34.7730   31.2130   41.4870 H   0  0  0  0  0  0  0  0  0  0  0  0
   37.3820   29.5500   39.7510 O   0  0  0  0  0  0  0  0  0  0  0  0
   37.1780   30.9420   37.7790 C   0  0  1  0  0  0  0  0  0  0  0  0
   37.9790   29.7940   37.3310 C   0  0  0  0  0  0  0  0  0  0  0  0
   36.9650   29.6690   38.4800 C   0  0  1  0  0  0  0  0  0  0  0  0
   36.3450   31.3560   37.1790 H   0  0  0  0  0  0  0  0  0  0  0  0
   37.7360   29.3830   36.3440 H   0  0  0  0  0  0  0  0  0  0  0  0
   39.0180   29.6370   37.6630 H   0  0  0  0  0  0  0  0  0  0  0  0
   36.1480   28.9830   38.1800 H   0  0  0  0  0  0  0  0  0  0  0  0
   40.0350   32.9940   39.1900 C   0  0  0  0  0  0  0  0  0  0  0  0
   39.3460   32.0220   38.4720 C   0  0  0  0  0  0  0  0  0  0  0  0
   37.9390   31.9950   38.5370 C   0  0  0  0  0  0  0  0  0  0  0  0
   37.2870   32.9120   39.2940 N   0  0  0  0  0  0  0  0  0  0  0  0
   37.9880   33.8530   39.9870 C   0  0  0  0  0  0  0  0  0  0  0  0
   39.3580   33.8930   39.9340 N   0  0  0  0  0  0  0  0  0  0  0  0
   41.1040   32.9890   39.1210 H   0  0  0  0  0  0  0  0  0  0  0  0
   39.9000   31.3170   37.8880 H   0  0  0  0  0  0  0  0  0  0  0  0
   37.3960   34.5460   40.5640 H   0  0  0  0  0  0  0  0  0  0  0  0
   36.8470   28.8510   42.3420 O   0  0  0  0  0  0  0  0  0  0  0  0
   37.4590   27.6130   42.3750 C   0  0  0  0  0  0  0  0  0  0  0  0
   36.8930   26.3740   42.1070 C   0  0  0  0  0  0  0  0  0  0  0  0
   37.6470   25.2290   42.1860 C   0  0  0  0  0  0  0  0  0  0  0  0
   38.9820   25.2880   42.5330 C   0  0  0  0  0  0  0  0  0  0  0  0
   39.5030   26.5580   42.7930 C   0  0  0  0  0  0  0  0  0  0  0  0
   38.7450   27.6800   42.7110 N   0  0  0  0  0  0  0  0  0  0  0  0
   35.8410   26.4320   41.8430 H   0  0  0  0  0  0  0  0  0  0  0  0
   37.1350   24.3180   41.9640 H   0  0  0  0  0  0  0  0  0  0  0  0
   39.5740   24.3890   42.5950 H   0  0  0  0  0  0  0  0  0  0  0  0
   40.9160   26.5700   43.1560 C   0  0  0  0  0  0  0  0  0  0  0  0
   41.6800   25.4630   43.3580 N   0  0  0  0  0  0  0  0  0  0  0  0
   42.9290   25.8500   43.6760 C   0  0  0  0  0  0  0  0  0  0  0  0
   43.7950   25.2210   43.9020 H   0  0  0  0  0  0  0  0  0  0  0  0
   42.9590   27.2090   43.6770 N   0  0  0  0  0  0  0  0  0  0  0  0
   43.7740   27.8190   43.8820 H   0  0  0  0  0  0  0  0  0  0  0  0
   41.7410   27.6130   43.3620 N   0  0  0  0  0  0  0  0  0  0  0  0
  2  1  2  6  0  0  0
  2  3  1  0  0  0  0
  2 22  1  0  0  0  0
  3  4  1  0  0  0  0
  5  2  1  0  0  0  0
  6  9  1  6  0  0  0
  6  8  1  0  0  0  0
  6 15  1  0  0  0  0
  7 11  1  0  0  0  0
  7  6  1  0  0  0  0
  7  8  1  0  0  0  0
  8 12  1  6  0  0  0
  8  5  1  0  0  0  0
 10  7  1  0  0  0  0
 13 18  1  0  0  0  0
 14 15  1  0  0  0  0
 14 13  2  0  0  0  0
 15 16  2  0  0  0  0
 16 17  1  0  0  0  0
 17 21  1  0  0  0  0
 18 17  2  0  0  0  0
 19 13  1  0  0  0  0
 20 14  1  0  0  0  0
 22 23  1  0  0  0  0
 23 28  1  0  0  0  0
 24 25  1  0  0  0  0
 24 23  2  0  0  0  0
 25 26  2  0  0  0  0
 26 31  1  0  0  0  0
 26 27  1  0  0  0  0
 27 32  1  0  0  0  0
 28 27  2  0  0  0  0
 29 24  1  0  0  0  0
 30 25  1  0  0  0  0
 32 33  1  0  0  0  0
 32 38  2  0  0  0  0
 33 34  2  0  0  0  0
 34 36  1  0  0  0  0
 34 35  1  0  0  0  0
 36 37  1  0  0  0  0
 38 36  1  0  0  0  0
M  END
>  <minimizedAffinity>
-5.70954418

$$$$

 OpenBabel03252501093D

 38 41  0  0  1  0  0  0  0  0999 V2000
   35.4790   28.4750   37.9560 O   0  0  0  0  0  0  0  0  0  0  0  0
   35.8640   28.9060   39.3690 P   0  0  2  0  0  0  0  0  0  0  0  0
   34.4050   29.3030   40.1330 O   0  0  0  0  0  0  0  0  0  0  0  0
   33.6110   29.0350   39.6380 H   0  0  0  0  0  0  0  0  0  0  0  0
   36.9860   30.0950   39.3760 O   0  0  0  0  0  0  0  0  0  0  0  0
   37.5920   32.0840   40.6210 C   0  0  1  0  0  0  0  0  0  0  0  0
   37.3100   32.5770   39.2660 C   0  0  0  0  0  0  0  0  0  0  0  0
   36.6320   31.3130   39.8200 C   0  0  1  0  0  0  0  0  0  0  0  0
   37.2230   32.5980   41.5300 H   0  0  0  0  0  0  0  0  0  0  0  0
   36.7410   33.5110   39.1930 H   0  0  0  0  0  0  0  0  0  0  0  0
   37.9740   32.3630   38.4130 H   0  0  0  0  0  0  0  0  0  0  0  0
   35.5430   31.4870   39.9130 H   0  0  0  0  0  0  0  0  0  0  0  0
   40.4640   30.0990   42.0950 C   0  0  0  0  0  0  0  0  0  0  0  0
   39.1990   30.6540   41.9320 C   0  0  0  0  0  0  0  0  0  0  0  0
   38.9490   31.4630   40.8050 C   0  0  0  0  0  0  0  0  0  0  0  0
   39.9400   31.6820   39.9070 N   0  0  0  0  0  0  0  0  0  0  0  0
   41.1700   31.1240   40.0920 C   0  0  0  0  0  0  0  0  0  0  0  0
   41.4300   30.3350   41.1830 N   0  0  0  0  0  0  0  0  0  0  0  0
   40.6240   29.4900   42.9610 H   0  0  0  0  0  0  0  0  0  0  0  0
   38.4460   30.4560   42.6650 H   0  0  0  0  0  0  0  0  0  0  0  0
   41.9030   31.3460   39.3320 H   0  0  0  0  0  0  0  0  0  0  0  0
   36.4520   27.5100   40.0930 O   0  0  0  0  0  0  0  0  0  0  0  0
   37.0740   27.4700   41.3270 C   0  0  0  0  0  0  0  0  0  0  0  0
   36.6040   27.9680   42.5340 C   0  0  0  0  0  0  0  0  0  0  0  0
   37.3520   27.8470   43.6800 C   0  0  0  0  0  0  0  0  0  0  0  0
   38.5850   27.2260   43.6510 C   0  0  0  0  0  0  0  0  0  0  0  0
   39.0120   26.7420   42.4120 C   0  0  0  0  0  0  0  0  0  0  0  0
   38.2610   26.8710   41.2900 N   0  0  0  0  0  0  0  0  0  0  0  0
   35.6270   28.4370   42.4530 H   0  0  0  0  0  0  0  0  0  0  0  0
   36.9180   28.2570   44.5660 H   0  0  0  0  0  0  0  0  0  0  0  0
   39.1720   27.1300   44.5510 H   0  0  0  0  0  0  0  0  0  0  0  0
   40.3180   26.0950   42.4320 C   0  0  0  0  0  0  0  0  0  0  0  0
   41.3920   26.4780   41.6900 N   0  0  0  0  0  0  0  0  0  0  0  0
   42.4240   25.6590   41.9620 C   0  0  0  0  0  0  0  0  0  0  0  0
   43.4340   25.6810   41.5440 H   0  0  0  0  0  0  0  0  0  0  0  0
   42.0040   24.7490   42.8810 N   0  0  0  0  0  0  0  0  0  0  0  0
   42.5590   23.9790   43.3010 H   0  0  0  0  0  0  0  0  0  0  0  0
   40.7410   25.0340   43.1440 N   0  0  0  0  0  0  0  0  0  0  0  0
  2  1  2  6  0  0  0
  2  5  1  0  0  0  0
  2 22  1  0  0  0  0
  2  3  1  0  0  0  0
  4  3  1  0  0  0  0
  5  8  1  0  0  0  0
  6 15  1  0  0  0  0
  6  9  1  1  0  0  0
  7  8  1  0  0  0  0
  7  6  1  0  0  0  0
  8 12  1  1  0  0  0
  8  6  1  0  0  0  0
 10  7  1  0  0  0  0
 11  7  1  0  0  0  0
 13 19  1  0  0  0  0
 14 13  1  0  0  0  0
 14 20  1  0  0  0  0
 15 14  2  0  0  0  0
 16 17  2  0  0  0  0
 16 15  1  0  0  0  0
 17 18  1  0  0  0  0
 18 13  2  0  0  0  0
 21 17  1  0  0  0  0
 22 23  1  0  0  0  0
 23 24  1  0  0  0  0
 24 25  2  0  0  0  0
 25 30  1  0  0  0  0
 26 25  1  0  0  0  0
 26 31  1  0  0  0  0
 27 32  1  0  0  0  0
 27 26  2  0  0  0  0
 28 23  2  0  0  0  0
 28 27  1  0  0  0  0
 29 24  1  0  0  0  0
 32 38  2  0  0  0  0
 33 34  2  0  0  0  0
 33 32  1  0  0  0  0
 34 36  1  0  0  0  0
 35 34  1  0  0  0  0
 36 38  1  0  0  0  0
 36 37  1  0  0  0  0
M  END
>  <minimizedAffinity>
-5.49956512

$$$$

 OpenBabel03252501093D

 38 41  0  0  1  0  0  0  0  0999 V2000
   37.1680   31.1880   38.2690 O   0  0  0  0  0  0  0  0  0  0  0  0
   37.2090   31.0440   39.7890 P   0  0  2  0  0  0  0  0  0  0  0  0
   36.6750   32.5320   40.3970 O   0  0  0  0  0  0  0  0  0  0  0  0
   36.2880   33.1210   39.7260 H   0  0  0  0  0  0  0  0  0  0  0  0
   38.6750   30.5670   40.3330 O   0  0  0  0  0  0  0  0  0  0  0  0
   39.7160   31.0020   42.4760 C   0  0  1  0  0  0  0  0  0  0  0  0
   40.8240   31.0750   41.5150 C   0  0  0  0  0  0  0  0  0  0  0  0
   39.3800   31.4090   41.1060 C   0  0  1  0  0  0  0  0  0  0  0  0
   39.5850   31.7420   43.2900 H   0  0  0  0  0  0  0  0  0  0  0  0
   41.5490   31.8850   41.6620 H   0  0  0  0  0  0  0  0  0  0  0  0
   41.2150   30.1830   41.0000 H   0  0  0  0  0  0  0  0  0  0  0  0
   39.3110   32.4790   40.8300 H   0  0  0  0  0  0  0  0  0  0  0  0
   39.8300   27.2710   43.1340 C   0  0  0  0  0  0  0  0  0  0  0  0
   40.2310   28.5540   42.7750 C   0  0  0  0  0  0  0  0  0  0  0  0
   39.3040   29.6110   42.8730 C   0  0  0  0  0  0  0  0  0  0  0  0
   38.0470   29.3580   43.3120 N   0  0  0  0  0  0  0  0  0  0  0  0
   37.6810   28.0910   43.6560 C   0  0  0  0  0  0  0  0  0  0  0  0
   38.5720   27.0520   43.5670 N   0  0  0  0  0  0  0  0  0  0  0  0
   40.5570   26.4900   43.0480 H   0  0  0  0  0  0  0  0  0  0  0  0
   41.2330   28.7100   42.4340 H   0  0  0  0  0  0  0  0  0  0  0  0
   36.6640   27.9740   43.9960 H   0  0  0  0  0  0  0  0  0  0  0  0
   36.0290   29.9010   40.1380 O   0  0  0  0  0  0  0  0  0  0  0  0
   35.9750   28.6370   39.5810 C   0  0  0  0  0  0  0  0  0  0  0  0
   35.3350   28.2470   38.4120 C   0  0  0  0  0  0  0  0  0  0  0  0
   35.3770   26.9400   37.9940 C   0  0  0  0  0  0  0  0  0  0  0  0
   36.0580   25.9890   38.7280 C   0  0  0  0  0  0  0  0  0  0  0  0
   36.6840   26.4320   39.8950 C   0  0  0  0  0  0  0  0  0  0  0  0
   36.6320   27.7280   40.2950 N   0  0  0  0  0  0  0  0  0  0  0  0
   34.8290   29.0660   37.9070 H   0  0  0  0  0  0  0  0  0  0  0  0
   34.8590   26.7240   37.0840 H   0  0  0  0  0  0  0  0  0  0  0  0
   36.0910   24.9630   38.3990 H   0  0  0  0  0  0  0  0  0  0  0  0
   37.3900   25.3930   40.6360 C   0  0  0  0  0  0  0  0  0  0  0  0
   38.7060   25.0830   40.4870 N   0  0  0  0  0  0  0  0  0  0  0  0
   39.0150   24.0790   41.3270 C   0  0  0  0  0  0  0  0  0  0  0  0
   39.9810   23.5870   41.4670 H   0  0  0  0  0  0  0  0  0  0  0  0
   37.8890   23.7470   42.0140 N   0  0  0  0  0  0  0  0  0  0  0  0
   37.7900   23.0120   42.7400 H   0  0  0  0  0  0  0  0  0  0  0  0
   36.9330   24.5500   41.5810 N   0  0  0  0  0  0  0  0  0  0  0  0
  2  1  2  6  0  0  0
  2 22  1  0  0  0  0
  2  5  1  0  0  0  0
  2  3  1  0  0  0  0
  4  3  1  0  0  0  0
  5  8  1  0  0  0  0
  6 15  1  0  0  0  0
  6  9  1  1  0  0  0
  7 10  1  0  0  0  0
  7  6  1  0  0  0  0
  8 12  1  6  0  0  0
  8  7  1  0  0  0  0
  8  6  1  0  0  0  0
 11  7  1  0  0  0  0
 13 18  1  0  0  0  0
 14 15  1  0  0  0  0
 14 13  2  0  0  0  0
 15 16  2  0  0  0  0
 16 17  1  0  0  0  0
 17 21  1  0  0  0  0
 18 17  2  0  0  0  0
 19 13  1  0  0  0  0
 20 14  1  0  0  0  0
 23 22  1  0  0  0  0
 23 28  1  0  0  0  0
 24 23  2  0  0  0  0
 25 24  1  0  0  0  0
 25 26  2  0  0  0  0
 26 27  1  0  0  0  0
 27 28  2  0  0  0  0
 27 32  1  0  0  0  0
 29 24  1  0  0  0  0
 30 25  1  0  0  0  0
 31 26  1  0  0  0  0
 32 38  2  0  0  0  0
 33 32  1  0  0  0  0
 33 34  2  0  0  0  0
 34 35  1  0  0  0  0
 34 36  1  0  0  0  0
 36 37  1  0  0  0  0
 38 36  1  0  0  0  0
M  END
>  <minimizedAffinity>
-5.49890947

$$$$

 OpenBabel03252501093D

 38 41  0  0  1  0  0  0  0  0999 V2000
   42.2230   25.5060   40.6310 O   0  0  0  0  0  0  0  0  0  0  0  0
   41.0040   25.4930   41.5500 P   0  0  2  0  0  0  0  0  0  0  0  0
   41.4700   24.5880   42.9040 O   0  0  0  0  0  0  0  0  0  0  0  0
   42.4240   24.3970   42.9460 H   0  0  0  0  0  0  0  0  0  0  0  0
   39.6580   24.9530   40.7960 O   0  0  0  0  0  0  0  0  0  0  0  0
   37.3990   24.1830   41.2130 C   0  0  1  0  0  0  0  0  0  0  0  0
   38.0960   22.9960   40.7000 C   0  0  0  0  0  0  0  0  0  0  0  0
   38.8460   24.1080   41.4520 C   0  0  1  0  0  0  0  0  0  0  0  0
   36.7190   24.1430   42.0870 H   0  0  0  0  0  0  0  0  0  0  0  0
   37.8830   22.0460   41.2050 H   0  0  0  0  0  0  0  0  0  0  0  0
   38.4120   22.9090   39.6480 H   0  0  0  0  0  0  0  0  0  0  0  0
   39.2450   23.7070   42.4040 H   0  0  0  0  0  0  0  0  0  0  0  0
   36.2960   25.6390   37.8920 C   0  0  0  0  0  0  0  0  0  0  0  0
   36.6960   24.7160   38.8530 C   0  0  0  0  0  0  0  0  0  0  0  0
   36.9520   25.1640   40.1640 C   0  0  0  0  0  0  0  0  0  0  0  0
   36.8050   26.4790   40.4610 N   0  0  0  0  0  0  0  0  0  0  0  0
   36.4130   27.3610   39.4990 C   0  0  0  0  0  0  0  0  0  0  0  0
   36.1590   26.9410   38.2190 N   0  0  0  0  0  0  0  0  0  0  0  0
   36.1090   25.2680   36.9050 H   0  0  0  0  0  0  0  0  0  0  0  0
   36.7990   23.6880   38.5750 H   0  0  0  0  0  0  0  0  0  0  0  0
   36.3190   28.3880   39.8160 H   0  0  0  0  0  0  0  0  0  0  0  0
   40.8270   27.0890   42.0430 O   0  0  0  0  0  0  0  0  0  0  0  0
   39.6300   27.6590   42.4310 C   0  0  0  0  0  0  0  0  0  0  0  0
   38.7550   27.2180   43.4150 C   0  0  0  0  0  0  0  0  0  0  0  0
   37.5960   27.9070   43.6800 C   0  0  0  0  0  0  0  0  0  0  0  0
   37.2810   29.0500   42.9730 C   0  0  0  0  0  0  0  0  0  0  0  0
   38.1940   29.4510   41.9950 C   0  0  0  0  0  0  0  0  0  0  0  0
   39.3340   28.7600   41.7450 N   0  0  0  0  0  0  0  0  0  0  0  0
   39.0910   26.3130   43.9130 H   0  0  0  0  0  0  0  0  0  0  0  0
   36.9790   27.5000   44.4520 H   0  0  0  0  0  0  0  0  0  0  0  0
   36.3710   29.5900   43.1820 H   0  0  0  0  0  0  0  0  0  0  0  0
   37.8180   30.6630   41.2760 C   0  0  0  0  0  0  0  0  0  0  0  0
   38.6790   31.4680   40.5970 N   0  0  0  0  0  0  0  0  0  0  0  0
   37.9870   32.4900   40.0590 C   0  0  0  0  0  0  0  0  0  0  0  0
   38.3650   33.3170   39.4530 H   0  0  0  0  0  0  0  0  0  0  0  0
   36.6800   32.3340   40.3990 N   0  0  0  0  0  0  0  0  0  0  0  0
   35.8860   32.9510   40.1410 H   0  0  0  0  0  0  0  0  0  0  0  0
   36.6080   31.2330   41.1270 N   0  0  0  0  0  0  0  0  0  0  0  0
  2  1  2  6  0  0  0
  2 22  1  0  0  0  0
  2  3  1  0  0  0  0
  3  4  1  0  0  0  0
  5  8  1  0  0  0  0
  5  2  1  0  0  0  0
  6  8  1  0  0  0  0
  6  9  1  1  0  0  0
  7 10  1  0  0  0  0
  7  6  1  0  0  0  0
  7  8  1  0  0  0  0
  8 12  1  1  0  0  0
 11  7  1  0  0  0  0
 13 18  2  0  0  0  0
 13 14  1  0  0  0  0
 14 15  2  0  0  0  0
 15 16  1  0  0  0  0
 15  6  1  0  0  0  0
 17 21  1  0  0  0  0
 17 16  2  0  0  0  0
 18 17  1  0  0  0  0
 19 13  1  0  0  0  0
 20 14  1  0  0  0  0
 22 23  1  0  0  0  0
 23 24  1  0  0  0  0
 24 25  2  0  0  0  0
 24 29  1  0  0  0  0
 25 30  1  0  0  0  0
 26 31  1  0  0  0  0
 26 25  1  0  0  0  0
 27 26  2  0  0  0  0
 28 27  1  0  0  0  0
 28 23  2  0  0  0  0
 32 27  1  0  0  0  0
 33 32  1  0  0  0  0
 34 36  1  0  0  0  0
 34 33  2  0  0  0  0
 35 34  1  0  0  0  0
 36 38  1  0  0  0  0
 37 36  1  0  0  0  0
 38 32  2  0  0  0  0
M  END
>  <minimizedAffinity>
-5.45219517

$$$$

 OpenBabel03252501093D

 38 41  0  0  1  0  0  0  0  0999 V2000
   41.7130   31.1690   40.9290 O   0  0  0  0  0  0  0  0  0  0  0  0
   40.3780   30.4500   40.7490 P   0  0  2  0  0  0  0  0  0  0  0  0
   40.4900   29.6570   39.2560 O   0  0  0  0  0  0  0  0  0  0  0  0
   41.3870   29.6460   38.8780 H   0  0  0  0  0  0  0  0  0  0  0  0
   39.1000   31.4590   40.8950 O   0  0  0  0  0  0  0  0  0  0  0  0
   37.7320   31.7890   38.9230 C   0  0  1  0  0  0  0  0  0  0  0  0
   37.4020   32.9300   39.7880 C   0  0  0  0  0  0  0  0  0  0  0  0
   38.7750   32.2410   39.8530 C   0  0  1  0  0  0  0  0  0  0  0  0
   37.9140   31.8990   37.8360 H   0  0  0  0  0  0  0  0  0  0  0  0
   37.3050   33.9050   39.2960 H   0  0  0  0  0  0  0  0  0  0  0  0
   36.8240   32.8130   40.7190 H   0  0  0  0  0  0  0  0  0  0  0  0
   39.5600   32.9500   39.5260 H   0  0  0  0  0  0  0  0  0  0  0  0
   35.3640   29.3010   40.5270 C   0  0  0  0  0  0  0  0  0  0  0  0
   35.9800   30.5050   40.2010 C   0  0  0  0  0  0  0  0  0  0  0  0
   37.0450   30.4990   39.2770 C   0  0  0  0  0  0  0  0  0  0  0  0
   37.4450   29.3260   38.7280 N   0  0  0  0  0  0  0  0  0  0  0  0
   36.8230   28.1610   39.0670 C   0  0  0  0  0  0  0  0  0  0  0  0
   35.7850   28.1500   39.9630 N   0  0  0  0  0  0  0  0  0  0  0  0
   34.5590   29.3390   41.2320 H   0  0  0  0  0  0  0  0  0  0  0  0
   35.6320   31.4080   40.6570 H   0  0  0  0  0  0  0  0  0  0  0  0
   37.2010   27.2720   38.5870 H   0  0  0  0  0  0  0  0  0  0  0  0
   40.3650   29.2730   41.9480 O   0  0  0  0  0  0  0  0  0  0  0  0
   39.2290   28.6290   42.3990 C   0  0  0  0  0  0  0  0  0  0  0  0
   38.2560   29.1190   43.2600 C   0  0  0  0  0  0  0  0  0  0  0  0
   37.1800   28.3430   43.6140 C   0  0  0  0  0  0  0  0  0  0  0  0
   37.0440   27.0620   43.1180 C   0  0  0  0  0  0  0  0  0  0  0  0
   38.0500   26.6160   42.2560 C   0  0  0  0  0  0  0  0  0  0  0  0
   39.1070   27.3950   41.9180 N   0  0  0  0  0  0  0  0  0  0  0  0
   38.4520   30.1340   43.5940 H   0  0  0  0  0  0  0  0  0  0  0  0
   36.4780   28.7960   44.2800 H   0  0  0  0  0  0  0  0  0  0  0  0
   36.1990   26.4530   43.3950 H   0  0  0  0  0  0  0  0  0  0  0  0
   37.8630   25.2580   41.7590 C   0  0  0  0  0  0  0  0  0  0  0  0
   36.9290   24.8820   40.8440 N   0  0  0  0  0  0  0  0  0  0  0  0
   37.0450   23.5590   40.6230 C   0  0  0  0  0  0  0  0  0  0  0  0
   36.4550   22.9320   39.9490 H   0  0  0  0  0  0  0  0  0  0  0  0
   38.0570   23.0920   41.4010 N   0  0  0  0  0  0  0  0  0  0  0  0
   38.4010   22.1150   41.4640 H   0  0  0  0  0  0  0  0  0  0  0  0
   38.5280   24.1300   42.0700 N   0  0  0  0  0  0  0  0  0  0  0  0
  2  5  1  0  0  0  0
  2  1  2  1  0  0  0
  2 22  1  0  0  0  0
  3  2  1  0  0  0  0
  4  3  1  0  0  0  0
  6  9  1  6  0  0  0
  6 15  1  0  0  0  0
  6  7  1  0  0  0  0
  6  8  1  0  0  0  0
  7  8  1  0  0  0  0
  7 11  1  0  0  0  0
  8 12  1  6  0  0  0
  8  5  1  0  0  0  0
 10  7  1  0  0  0  0
 13 19  1  0  0  0  0
 14 13  1  0  0  0  0
 14 20  1  0  0  0  0
 15 14  2  0  0  0  0
 16 17  2  0  0  0  0
 16 15  1  0  0  0  0
 17 18  1  0  0  0  0
 18 13  2  0  0  0  0
 21 17  1  0  0  0  0
 22 23  1  0  0  0  0
 23 24  1  0  0  0  0
 24 29  1  0  0  0  0
 24 25  2  0  0  0  0
 25 30  1  0  0  0  0
 26 31  1  0  0  0  0
 26 25  1  0  0  0  0
 27 26  2  0  0  0  0
 28 27  1  0  0  0  0
 28 23  2  0  0  0  0
 32 38  2  0  0  0  0
 32 27  1  0  0  0  0
 33 32  1  0  0  0  0
 34 33  2  0  0  0  0
 34 36  1  0  0  0  0
 35 34  1  0  0  0  0
 36 37  1  0  0  0  0
 36 38  1  0  0  0  0
M  END
>  <minimizedAffinity>
-5.38874102

$$$$

 OpenBabel03252501093D

 38 41  0  0  1  0  0  0  0  0999 V2000
   35.6160   28.4320   37.7150 O   0  0  0  0  0  0  0  0  0  0  0  0
   36.8410   28.9760   38.4480 P   0  0  2  0  0  0  0  0  0  0  0  0
   38.1220   28.8410   37.3470 O   0  0  0  0  0  0  0  0  0  0  0  0
   37.8450   28.6260   36.4390 H   0  0  0  0  0  0  0  0  0  0  0  0
   37.0900   28.2330   39.8830 O   0  0  0  0  0  0  0  0  0  0  0  0
   36.5690   27.9570   42.2320 C   0  0  1  0  0  0  0  0  0  0  0  0
   37.2070   29.2780   42.1570 C   0  0  0  0  0  0  0  0  0  0  0  0
   36.4360   28.6870   40.9650 C   0  0  1  0  0  0  0  0  0  0  0  0
   35.6540   27.7710   42.8290 H   0  0  0  0  0  0  0  0  0  0  0  0
   36.7520   30.0760   42.7560 H   0  0  0  0  0  0  0  0  0  0  0  0
   38.2820   29.4000   41.9490 H   0  0  0  0  0  0  0  0  0  0  0  0
   35.5440   29.3080   40.7560 H   0  0  0  0  0  0  0  0  0  0  0  0
   37.8980   24.4100   42.0960 C   0  0  0  0  0  0  0  0  0  0  0  0
   37.0100   25.4800   42.0860 C   0  0  0  0  0  0  0  0  0  0  0  0
   37.5150   26.7880   42.2270 C   0  0  0  0  0  0  0  0  0  0  0  0
   38.8500   26.9760   42.3700 N   0  0  0  0  0  0  0  0  0  0  0  0
   39.6980   25.9090   42.3770 C   0  0  0  0  0  0  0  0  0  0  0  0
   39.2210   24.6300   42.2400 N   0  0  0  0  0  0  0  0  0  0  0  0
   37.4840   23.4290   41.9870 H   0  0  0  0  0  0  0  0  0  0  0  0
   35.9640   25.2870   41.9710 H   0  0  0  0  0  0  0  0  0  0  0  0
   40.7440   26.1430   42.4950 H   0  0  0  0  0  0  0  0  0  0  0  0
   36.5200   30.6110   38.6560 O   0  0  0  0  0  0  0  0  0  0  0  0
   37.4530   31.5450   39.0630 C   0  0  0  0  0  0  0  0  0  0  0  0
   37.3280   32.4920   40.0710 C   0  0  0  0  0  0  0  0  0  0  0  0
   38.3580   33.3550   40.3520 C   0  0  0  0  0  0  0  0  0  0  0  0
   39.5380   33.2970   39.6370 C   0  0  0  0  0  0  0  0  0  0  0  0
   39.6130   32.3280   38.6340 C   0  0  0  0  0  0  0  0  0  0  0  0
   38.5860   31.4830   38.3680 N   0  0  0  0  0  0  0  0  0  0  0  0
   36.3650   32.4570   40.5740 H   0  0  0  0  0  0  0  0  0  0  0  0
   38.1800   34.0510   41.1430 H   0  0  0  0  0  0  0  0  0  0  0  0
   40.3470   33.9750   39.8580 H   0  0  0  0  0  0  0  0  0  0  0  0
   40.8780   32.3060   37.9070 C   0  0  0  0  0  0  0  0  0  0  0  0
   41.4810   31.1860   37.4220 N   0  0  0  0  0  0  0  0  0  0  0  0
   42.6260   31.5400   36.8110 C   0  0  0  0  0  0  0  0  0  0  0  0
   43.3540   30.8940   36.3130 H   0  0  0  0  0  0  0  0  0  0  0  0
   42.7520   32.8910   36.9080 N   0  0  0  0  0  0  0  0  0  0  0  0
   43.5250   33.4770   36.5380 H   0  0  0  0  0  0  0  0  0  0  0  0
   41.6920   33.3220   37.5680 N   0  0  0  0  0  0  0  0  0  0  0  0
  2  1  2  6  0  0  0
  2 22  1  0  0  0  0
  2  5  1  0  0  0  0
  3  2  1  0  0  0  0
  4  3  1  0  0  0  0
  5  8  1  0  0  0  0
  6  9  1  1  0  0  0
  7  6  1  0  0  0  0
  7 10  1  0  0  0  0
  8 12  1  6  0  0  0
  8  7  1  0  0  0  0
  8  6  1  0  0  0  0
 11  7  1  0  0  0  0
 13 18  1  0  0  0  0
 14 13  2  0  0  0  0
 14 15  1  0  0  0  0
 15  6  1  0  0  0  0
 15 16  2  0  0  0  0
 16 17  1  0  0  0  0
 17 21  1  0  0  0  0
 18 17  2  0  0  0  0
 19 13  1  0  0  0  0
 20 14  1  0  0  0  0
 22 23  1  0  0  0  0
 23 24  1  0  0  0  0
 24 25  2  0  0  0  0
 24 29  1  0  0  0  0
 25 30  1  0  0  0  0
 26 31  1  0  0  0  0
 26 25  1  0  0  0  0
 27 26  2  0  0  0  0
 28 27  1  0  0  0  0
 28 23  2  0  0  0  0
 32 27  1  0  0  0  0
 33 32  1  0  0  0  0
 34 36  1  0  0  0  0
 34 33  2  0  0  0  0
 35 34  1  0  0  0  0
 36 38  1  0  0  0  0
 37 36  1  0  0  0  0
 38 32  2  0  0  0  0
M  END
>  <minimizedAffinity>
-5.36620378

$$$$

 OpenBabel03252501093D

 38 41  0  0  1  0  0  0  0  0999 V2000
   38.6750   25.4100   37.6930 O   0  0  0  0  0  0  0  0  0  0  0  0
   38.5920   26.2980   38.9330 P   0  0  2  0  0  0  0  0  0  0  0  0
   40.1940   26.5220   39.4350 O   0  0  0  0  0  0  0  0  0  0  0  0
   40.8590   26.2200   38.7910 H   0  0  0  0  0  0  0  0  0  0  0  0
   37.5960   25.6840   40.0750 O   0  0  0  0  0  0  0  0  0  0  0  0
   38.5920   25.1030   42.2050 C   0  0  1  0  0  0  0  0  0  0  0  0
   37.3210   24.3660   42.1870 C   0  0  0  0  0  0  0  0  0  0  0  0
   38.0630   24.7230   40.8890 C   0  0  1  0  0  0  0  0  0  0  0  0
   39.5420   24.6430   42.5420 H   0  0  0  0  0  0  0  0  0  0  0  0
   37.3470   23.3360   42.5620 H   0  0  0  0  0  0  0  0  0  0  0  0
   36.3470   24.8730   42.2720 H   0  0  0  0  0  0  0  0  0  0  0  0
   38.3990   23.7950   40.3870 H   0  0  0  0  0  0  0  0  0  0  0  0
   37.1810   28.4100   43.4060 C   0  0  0  0  0  0  0  0  0  0  0  0
   37.2710   27.0580   43.0880 C   0  0  0  0  0  0  0  0  0  0  0  0
   38.4810   26.5580   42.5680 C   0  0  0  0  0  0  0  0  0  0  0  0
   39.5290   27.4000   42.3880 N   0  0  0  0  0  0  0  0  0  0  0  0
   39.4130   28.7200   42.7080 C   0  0  0  0  0  0  0  0  0  0  0  0
   38.2420   29.2220   43.2160 N   0  0  0  0  0  0  0  0  0  0  0  0
   36.2490   28.7590   43.7990 H   0  0  0  0  0  0  0  0  0  0  0  0
   36.4200   26.4290   43.2460 H   0  0  0  0  0  0  0  0  0  0  0  0
   40.2910   29.3220   42.5350 H   0  0  0  0  0  0  0  0  0  0  0  0
   38.0280   27.7730   38.3630 O   0  0  0  0  0  0  0  0  0  0  0  0
   37.3020   28.6770   39.1140 C   0  0  0  0  0  0  0  0  0  0  0  0
   36.0030   28.5430   39.5860 C   0  0  0  0  0  0  0  0  0  0  0  0
   35.4210   29.5440   40.3260 C   0  0  0  0  0  0  0  0  0  0  0  0
   36.1180   30.7010   40.6140 C   0  0  0  0  0  0  0  0  0  0  0  0
   37.4210   30.7850   40.1160 C   0  0  0  0  0  0  0  0  0  0  0  0
   37.9800   29.7880   39.3870 N   0  0  0  0  0  0  0  0  0  0  0  0
   35.5410   27.6000   39.3080 H   0  0  0  0  0  0  0  0  0  0  0  0
   34.4200   29.3610   40.6510 H   0  0  0  0  0  0  0  0  0  0  0  0
   35.6610   31.4860   41.1950 H   0  0  0  0  0  0  0  0  0  0  0  0
   38.1160   32.0240   40.4460 C   0  0  0  0  0  0  0  0  0  0  0  0
   37.7990   33.2530   39.9540 N   0  0  0  0  0  0  0  0  0  0  0  0
   38.6470   34.1600   40.4720 C   0  0  0  0  0  0  0  0  0  0  0  0
   38.6770   35.2380   40.2910 H   0  0  0  0  0  0  0  0  0  0  0  0
   39.5080   33.5050   41.2970 N   0  0  0  0  0  0  0  0  0  0  0  0
   40.2830   33.9170   41.8500 H   0  0  0  0  0  0  0  0  0  0  0  0
   39.1660   32.2290   41.2620 N   0  0  0  0  0  0  0  0  0  0  0  0
  2  1  2  6  0  0  0
  2  3  1  0  0  0  0
  2  5  1  0  0  0  0
  4  3  1  0  0  0  0
  5  8  1  0  0  0  0
  6  9  1  1  0  0  0
  6 15  1  0  0  0  0
  7  6  1  0  0  0  0
  7 11  1  0  0  0  0
  7 10  1  0  0  0  0
  8 12  1  6  0  0  0
  8  7  1  0  0  0  0
  8  6  1  0  0  0  0
 13 19  1  0  0  0  0
 14 20  1  0  0  0  0
 14 13  2  0  0  0  0
 15 14  1  0  0  0  0
 16 15  2  0  0  0  0
 16 17  1  0  0  0  0
 17 18  2  0  0  0  0
 18 13  1  0  0  0  0
 21 17  1  0  0  0  0
 22  2  1  0  0  0  0
 22 23  1  0  0  0  0
 23 28  2  0  0  0  0
 23 24  1  0  0  0  0
 24 25  2  0  0  0  0
 25 26  1  0  0  0  0
 25 30  1  0  0  0  0
 26 31  1  0  0  0  0
 27 32  1  0  0  0  0
 27 26  2  0  0  0  0
 28 27  1  0  0  0  0
 29 24  1  0  0  0  0
 32 38  2  0  0  0  0
 33 32  1  0  0  0  0
 33 34  2  0  0  0  0
 34 36  1  0  0  0  0
 35 34  1  0  0  0  0
 36 37  1  0  0  0  0
 38 36  1  0  0  0  0
M  END
>  <minimizedAffinity>
-5.36061764

$$$$
