
 OpenBabel03242519173D

 40 43  0  0  1  0  0  0  0  0999 V2000
   48.4040   34.1280   40.9560 C   0  0  0  0  0  0  0  0  0  0  0  0
   47.8040   34.3390   39.7350 C   0  0  0  0  0  0  0  0  0  0  0  0
   48.0710   33.5540   38.6040 C   0  0  0  0  0  0  0  0  0  0  0  0
   48.9770   32.5530   38.7940 N   0  0  0  0  0  0  0  0  0  0  0  0
   49.5550   32.3560   39.9870 C   0  0  0  0  0  0  0  0  0  0  0  0
   49.2740   33.1280   41.0420 N   0  0  0  0  0  0  0  0  0  0  0  0
   47.0950   35.1540   39.6680 H   0  0  0  0  0  0  0  0  0  0  0  0
   47.5810   33.7490   37.6630 H   0  0  0  0  0  0  0  0  0  0  0  0
   50.5300   31.2390   40.2070 C   0  0  2  0  0  0  0  0  0  0  0  0
   50.9240   30.8980   41.6100 C   0  0  0  0  0  0  0  0  0  0  0  0
   51.8930   31.6290   40.6630 C   0  0  1  0  0  0  0  0  0  0  0  0
   50.4910   30.4880   39.3920 H   0  0  0  0  0  0  0  0  0  0  0  0
   50.4430   31.5030   42.4120 H   0  0  0  0  0  0  0  0  0  0  0  0
   51.0920   29.8370   41.8310 H   0  0  0  0  0  0  0  0  0  0  0  0
   52.1100   32.6660   40.9630 H   0  0  0  0  0  0  0  0  0  0  0  0
   53.0660   30.7900   40.2990 C   0  0  0  0  0  0  0  0  0  0  0  0
   53.5170   30.4900   39.0800 N   0  0  0  0  0  0  0  0  0  0  0  0
   54.6210   29.6930   39.1530 C   0  0  0  0  0  0  0  0  0  0  0  0
   55.0340   29.4150   38.1920 H   0  0  0  0  0  0  0  0  0  0  0  0
   54.8350   29.5110   40.4740 N   0  0  0  0  0  0  0  0  0  0  0  0
   55.6580   28.9130   40.7220 H   0  0  0  0  0  0  0  0  0  0  0  0
   53.9010   30.1700   41.1520 N   0  0  0  0  0  0  0  0  0  0  0  0
   48.1030   34.9430   42.1050 C   0  0  0  0  0  0  0  0  0  0  0  0
   48.3440   36.0150   41.8410 H   0  0  0  0  0  0  0  0  0  0  0  0
   48.7490   34.7230   42.9790 H   0  0  0  0  0  0  0  0  0  0  0  0
   46.6680   34.8950   42.4400 C   0  0  0  0  0  0  0  0  0  0  0  0
   46.1010   34.2570   41.7040 H   0  0  0  0  0  0  0  0  0  0  0  0
   46.1390   35.8810   42.3950 H   0  0  0  0  0  0  0  0  0  0  0  0
   44.6840   36.3300   44.1300 Cl  0  0  0  0  0  0  0  0  0  0  0  0
   45.4900   34.8720   44.6500 C   0  0  0  0  0  0  0  0  0  0  0  0
   46.3850   34.3010   43.7840 C   0  0  0  0  0  0  0  0  0  0  0  0
   47.0230   33.1490   44.1920 C   0  0  0  0  0  0  0  0  0  0  0  0
   46.7700   32.5920   45.4280 C   0  0  0  0  0  0  0  0  0  0  0  0
   45.8530   33.1900   46.2980 C   0  0  0  0  0  0  0  0  0  0  0  0
   45.2160   34.3480   45.8780 C   0  0  0  0  0  0  0  0  0  0  0  0
   47.7420   32.6470   43.5570 H   0  0  0  0  0  0  0  0  0  0  0  0
   47.2220   31.7090   45.8080 H   0  0  0  0  0  0  0  0  0  0  0  0
   45.6370   32.7730   47.2720 H   0  0  0  0  0  0  0  0  0  0  0  0
   44.2830   35.0190   46.6790 O   0  0  0  0  0  0  0  0  0  0  0  0
   43.4710   34.4990   46.9960 H   0  0  0  0  0  0  0  0  0  0  0  0
  1  6  1  0  0  0  0
  1 23  1  0  0  0  0
  2  1  2  0  0  0  0
  3  4  2  0  0  0  0
  3  2  1  0  0  0  0
  4  5  1  0  0  0  0
  5  9  1  0  0  0  0
  5  6  2  0  0  0  0
  7  2  1  0  0  0  0
  8  3  1  0  0  0  0
  9 12  1  6  0  0  0
  9 11  1  0  0  0  0
  9 10  1  0  0  0  0
 10 14  1  0  0  0  0
 10 13  1  0  0  0  0
 11 15  1  1  0  0  0
 11 10  1  0  0  0  0
 16 11  1  0  0  0  0
 16 22  2  0  0  0  0
 17 18  2  0  0  0  0
 17 16  1  0  0  0  0
 18 20  1  0  0  0  0
 19 18  1  0  0  0  0
 20 21  1  0  0  0  0
 20 22  1  0  0  0  0
 23 26  1  0  0  0  0
 23 25  1  0  0  0  0
 24 23  1  0  0  0  0
 26 31  1  0  0  0  0
 27 26  1  0  0  0  0
 28 26  1  0  0  0  0
 29 30  1  0  0  0  0
 30 35  1  0  0  0  0
 31 32  1  0  0  0  0
 31 30  2  0  0  0  0
 32 33  2  0  0  0  0
 33 37  1  0  0  0  0
 33 34  1  0  0  0  0
 34 38  1  0  0  0  0
 35 34  2  0  0  0  0
 35 39  1  0  0  0  0
 36 32  1  0  0  0  0
 39 40  1  0  0  0  0
M  END
>  <minimizedAffinity>
-5.7578249

>  <minimizedRMSD>
0.279039443

$$$$
