
 OpenBabel03252505063D

 41 44  0  0  1  0  0  0  0  0999 V2000
   44.5750   35.5880   44.6130 C   0  0  0  0  0  0  0  0  0  0  0  0
   45.2310   35.6040   43.3570 C   0  0  0  0  0  0  0  0  0  0  0  0
   46.3110   34.6970   43.1790 C   0  0  0  0  0  0  0  0  0  0  0  0
   46.6640   33.8670   44.2000 N   0  0  0  0  0  0  0  0  0  0  0  0
   46.0070   33.8920   45.3750 C   0  0  0  0  0  0  0  0  0  0  0  0
   44.9600   34.7500   45.5880 N   0  0  0  0  0  0  0  0  0  0  0  0
   43.7530   36.2750   44.7540 H   0  0  0  0  0  0  0  0  0  0  0  0
   44.9260   36.2770   42.5660 H   0  0  0  0  0  0  0  0  0  0  0  0
   46.4350   32.9670   46.4600 C   0  0  2  0  0  0  0  0  0  0  0  0
   46.9610   31.7430   45.7630 C   0  0  0  0  0  0  0  0  0  0  0  0
   46.0890   30.5550   45.7790 C   0  0  0  0  0  0  0  0  0  0  0  0
   45.8020   30.2960   47.2620 C   0  0  0  0  0  0  0  0  0  0  0  0
   45.0140   31.3720   47.8650 C   0  0  0  0  0  0  0  0  0  0  0  0
   45.3770   32.7410   47.4180 C   0  0  0  0  0  0  0  0  0  0  0  0
   47.2800   33.4940   46.9630 H   0  0  0  0  0  0  0  0  0  0  0  0
   47.9200   31.4610   46.2510 H   0  0  0  0  0  0  0  0  0  0  0  0
   47.2460   31.9440   44.7020 H   0  0  0  0  0  0  0  0  0  0  0  0
   46.6740   29.6930   45.4260 H   0  0  0  0  0  0  0  0  0  0  0  0
   45.1760   30.7150   45.2060 H   0  0  0  0  0  0  0  0  0  0  0  0
   45.1590   29.4110   47.2650 H   0  0  0  0  0  0  0  0  0  0  0  0
   46.7330   30.0680   47.7750 H   0  0  0  0  0  0  0  0  0  0  0  0
   44.2050   31.3460   48.5840 H   0  0  0  0  0  0  0  0  0  0  0  0
   44.6820   33.8740   47.9310 N   0  0  0  0  0  0  0  0  0  0  0  0
   45.3290   34.5340   48.4460 H   0  0  0  0  0  0  0  0  0  0  0  0
   43.6530   33.9390   47.7570 H   0  0  0  0  0  0  0  0  0  0  0  0
   47.0050   34.6820   41.9020 C   0  0  0  0  0  0  0  0  0  0  0  0
   48.1580   35.3880   41.7830 C   0  0  0  0  0  0  0  0  0  0  0  0
   48.7970   35.3490   40.5350 C   0  0  0  0  0  0  0  0  0  0  0  0
   48.1900   34.5950   39.5520 C   0  0  0  0  0  0  0  0  0  0  0  0
   47.0320   33.8840   39.6700 C   0  0  0  0  0  0  0  0  0  0  0  0
   46.4550   33.9610   40.9070 N   0  0  0  0  0  0  0  0  0  0  0  0
   48.6020   35.9660   42.5740 H   0  0  0  0  0  0  0  0  0  0  0  0
   49.7110   35.8840   40.3760 H   0  0  0  0  0  0  0  0  0  0  0  0
   48.7180   34.5940   38.6100 H   0  0  0  0  0  0  0  0  0  0  0  0
   46.4330   33.1090   38.6110 C   0  0  0  0  0  0  0  0  0  0  0  0
   46.6520   33.3870   37.2990 N   0  0  0  0  0  0  0  0  0  0  0  0
   45.9530   32.4840   36.5900 C   0  0  0  0  0  0  0  0  0  0  0  0
   45.8380   32.3320   35.5350 H   0  0  0  0  0  0  0  0  0  0  0  0
   45.3150   31.6660   37.4460 N   0  0  0  0  0  0  0  0  0  0  0  0
   44.6740   30.8390   37.2620 H   0  0  0  0  0  0  0  0  0  0  0  0
   45.6140   32.0550   38.6760 N   0  0  0  0  0  0  0  0  0  0  0  0
  1  7  1  0  0  0  0
  1  6  1  0  0  0  0
  2  1  2  0  0  0  0
  3  2  1  0  0  0  0
  3  4  2  0  0  0  0
  4  5  1  0  0  0  0
  5  6  2  0  0  0  0
  5  9  1  0  0  0  0
  8  2  1  0  0  0  0
  9 15  1  1  0  0  0
  9 14  1  0  0  0  0
 10 11  1  0  0  0  0
 10 16  1  0  0  0  0
 10  9  1  0  0  0  0
 11 12  1  0  0  0  0
 12 20  1  0  0  0  0
 12 21  1  0  0  0  0
 12 13  1  0  0  0  0
 13 22  1  0  0  0  0
 14 13  2  0  0  0  0
 14 23  1  0  0  0  0
 17 10  1  0  0  0  0
 18 11  1  0  0  0  0
 19 11  1  0  0  0  0
 23 24  1  0  0  0  0
 25 23  1  0  0  0  0
 26  3  1  0  0  0  0
 27 26  1  0  0  0  0
 27 32  1  0  0  0  0
 28 27  2  0  0  0  0
 29 30  2  0  0  0  0
 29 28  1  0  0  0  0
 30 31  1  0  0  0  0
 31 26  2  0  0  0  0
 33 28  1  0  0  0  0
 34 29  1  0  0  0  0
 35 41  2  0  0  0  0
 35 30  1  0  0  0  0
 36 35  1  0  0  0  0
 37 36  2  0  0  0  0
 37 39  1  0  0  0  0
 38 37  1  0  0  0  0
 39 41  1  0  0  0  0
 40 39  1  0  0  0  0
M  END
>  <minimizedAffinity>
-7.22605419

>  <minimizedRMSD>
0.298668802

$$$$
