
 OpenBabel03252502113D

 26 28  0  0  0  0  0  0  0  0999 V2000
   36.6420   25.5290   40.2720 Cl  0  0  0  0  0  0  0  0  0  0  0  0
   36.9420   26.8960   41.3040 C   0  0  0  0  0  0  0  0  0  0  0  0
   36.9920   28.1740   40.8160 C   0  0  0  0  0  0  0  0  0  0  0  0
   37.2360   29.1640   41.7250 C   0  0  0  0  0  0  0  0  0  0  0  0
   37.4220   28.9370   43.0450 C   0  0  0  0  0  0  0  0  0  0  0  0
   37.3730   27.6490   43.5400 C   0  0  0  0  0  0  0  0  0  0  0  0
   37.1300   26.6320   42.6480 C   0  0  0  0  0  0  0  0  0  0  0  0
   37.6120   29.7330   43.7410 H   0  0  0  0  0  0  0  0  0  0  0  0
   37.5200   27.4470   44.5930 H   0  0  0  0  0  0  0  0  0  0  0  0
   37.0950   25.6280   43.0530 H   0  0  0  0  0  0  0  0  0  0  0  0
   35.3770   28.7460   37.4380 C   0  0  0  0  0  0  0  0  0  0  0  0
   35.5330   28.5530   38.8200 C   0  0  0  0  0  0  0  0  0  0  0  0
   36.7850   28.3770   39.3870 C   0  0  0  0  0  0  0  0  0  0  0  0
   37.8310   28.4040   38.5210 N   0  0  0  0  0  0  0  0  0  0  0  0
   37.6810   28.5890   37.2020 C   0  0  0  0  0  0  0  0  0  0  0  0
   36.4510   28.7600   36.6560 N   0  0  0  0  0  0  0  0  0  0  0  0
   34.4150   28.8830   36.9910 H   0  0  0  0  0  0  0  0  0  0  0  0
   34.6660   28.5400   39.4590 H   0  0  0  0  0  0  0  0  0  0  0  0
   38.6470   28.5770   36.6910 H   0  0  0  0  0  0  0  0  0  0  0  0
   37.2960   30.5420   41.2390 C   0  0  0  0  0  0  0  0  0  0  0  0
   38.4380   31.2350   41.0840 N   0  0  0  0  0  0  0  0  0  0  0  0
   38.1890   32.4730   40.6220 C   0  0  0  0  0  0  0  0  0  0  0  0
   38.9270   33.2520   40.4030 H   0  0  0  0  0  0  0  0  0  0  0  0
   36.8440   32.5500   40.4860 N   0  0  0  0  0  0  0  0  0  0  0  0
   36.3070   33.3670   40.1520 H   0  0  0  0  0  0  0  0  0  0  0  0
   36.3320   31.3880   40.8590 N   0  0  0  0  0  0  0  0  0  0  0  0
  1  2  1  0  0  0  0
  2  7  1  0  0  0  0
  3  2  2  0  0  0  0
  3  4  1  0  0  0  0
  4  5  2  0  0  0  0
  5  6  1  0  0  0  0
  5  8  1  0  0  0  0
  6  9  1  0  0  0  0
  7 10  1  0  0  0  0
  7  6  2  0  0  0  0
 11 12  1  0  0  0  0
 12 13  2  0  0  0  0
 12 18  1  0  0  0  0
 13  3  1  0  0  0  0
 14 13  1  0  0  0  0
 15 14  2  0  0  0  0
 16 15  1  0  0  0  0
 16 11  2  0  0  0  0
 17 11  1  0  0  0  0
 19 15  1  0  0  0  0
 20  4  1  0  0  0  0
 21 20  1  0  0  0  0
 22 21  2  0  0  0  0
 23 22  1  0  0  0  0
 24 22  1  0  0  0  0
 24 26  1  0  0  0  0
 25 24  1  0  0  0  0
 26 20  2  0  0  0  0
M  END
>  <minimizedAffinity>
-5.27303743

$$$$

 OpenBabel03252502113D

 26 28  0  0  0  0  0  0  0  0999 V2000
   35.1320   28.8180   40.5010 Cl  0  0  0  0  0  0  0  0  0  0  0  0
   36.4840   28.6770   41.5870 C   0  0  0  0  0  0  0  0  0  0  0  0
   37.5930   29.4700   41.4680 C   0  0  0  0  0  0  0  0  0  0  0  0
   38.5890   29.2640   42.3800 C   0  0  0  0  0  0  0  0  0  0  0  0
   38.5230   28.3400   43.3640 C   0  0  0  0  0  0  0  0  0  0  0  0
   37.4050   27.5390   43.4860 C   0  0  0  0  0  0  0  0  0  0  0  0
   36.3870   27.7220   42.5810 C   0  0  0  0  0  0  0  0  0  0  0  0
   39.3190   28.1970   44.0710 H   0  0  0  0  0  0  0  0  0  0  0  0
   37.3320   26.7920   44.2660 H   0  0  0  0  0  0  0  0  0  0  0  0
   35.5170   27.0850   42.6910 H   0  0  0  0  0  0  0  0  0  0  0  0
   37.2050   32.6710   39.4800 C   0  0  0  0  0  0  0  0  0  0  0  0
   37.1540   31.7510   40.5390 C   0  0  0  0  0  0  0  0  0  0  0  0
   37.6270   30.4560   40.3950 C   0  0  0  0  0  0  0  0  0  0  0  0
   38.1330   30.1500   39.1720 N   0  0  0  0  0  0  0  0  0  0  0  0
   38.1810   31.0290   38.1610 C   0  0  0  0  0  0  0  0  0  0  0  0
   37.7160   32.2940   38.3130 N   0  0  0  0  0  0  0  0  0  0  0  0
   36.8430   33.6720   39.5820 H   0  0  0  0  0  0  0  0  0  0  0  0
   36.7410   32.0510   41.4880 H   0  0  0  0  0  0  0  0  0  0  0  0
   38.6240   30.5780   37.2700 H   0  0  0  0  0  0  0  0  0  0  0  0
   39.7890   30.0950   42.2830 C   0  0  0  0  0  0  0  0  0  0  0  0
   40.8780   29.7610   41.5670 N   0  0  0  0  0  0  0  0  0  0  0  0
   41.8240   30.7120   41.6610 C   0  0  0  0  0  0  0  0  0  0  0  0
   42.8100   30.7060   41.1840 H   0  0  0  0  0  0  0  0  0  0  0  0
   41.3040   31.6690   42.4660 N   0  0  0  0  0  0  0  0  0  0  0  0
   41.7650   32.5480   42.7520 H   0  0  0  0  0  0  0  0  0  0  0  0
   40.0910   31.2800   42.8240 N   0  0  0  0  0  0  0  0  0  0  0  0
  1  2  1  0  0  0  0
  2  7  1  0  0  0  0
  3  2  2  0  0  0  0
  3  4  1  0  0  0  0
  4  5  2  0  0  0  0
  5  6  1  0  0  0  0
  5  8  1  0  0  0  0
  6  9  1  0  0  0  0
  7 10  1  0  0  0  0
  7  6  2  0  0  0  0
 11 17  1  0  0  0  0
 11 12  1  0  0  0  0
 12 18  1  0  0  0  0
 13 12  2  0  0  0  0
 13  3  1  0  0  0  0
 14 13  1  0  0  0  0
 15 16  1  0  0  0  0
 15 14  2  0  0  0  0
 16 11  2  0  0  0  0
 19 15  1  0  0  0  0
 20  4  1  0  0  0  0
 20 26  2  0  0  0  0
 21 22  2  0  0  0  0
 21 20  1  0  0  0  0
 22 24  1  0  0  0  0
 23 22  1  0  0  0  0
 24 25  1  0  0  0  0
 24 26  1  0  0  0  0
M  END
>  <minimizedAffinity>
-5.02279902

$$$$

 OpenBabel03252502113D

 26 28  0  0  0  0  0  0  0  0999 V2000
   39.5690   30.7710   42.8680 Cl  0  0  0  0  0  0  0  0  0  0  0  0
   38.3110   29.5930   42.6370 C   0  0  0  0  0  0  0  0  0  0  0  0
   37.5810   29.5310   41.4800 C   0  0  0  0  0  0  0  0  0  0  0  0
   36.6200   28.5620   41.4190 C   0  0  0  0  0  0  0  0  0  0  0  0
   36.3720   27.6890   42.4210 C   0  0  0  0  0  0  0  0  0  0  0  0
   37.1080   27.7500   43.5880 C   0  0  0  0  0  0  0  0  0  0  0  0
   38.0810   28.7150   43.6800 C   0  0  0  0  0  0  0  0  0  0  0  0
   35.6110   26.9350   42.3490 H   0  0  0  0  0  0  0  0  0  0  0  0
   36.9250   27.0610   44.4030 H   0  0  0  0  0  0  0  0  0  0  0  0
   38.6480   28.7490   44.6020 H   0  0  0  0  0  0  0  0  0  0  0  0
   37.5620   32.6100   39.2750 C   0  0  0  0  0  0  0  0  0  0  0  0
   37.2460   31.7160   40.3100 C   0  0  0  0  0  0  0  0  0  0  0  0
   37.8790   30.4880   40.4220 C   0  0  0  0  0  0  0  0  0  0  0  0
   38.8100   30.2200   39.4710 N   0  0  0  0  0  0  0  0  0  0  0  0
   39.1120   31.0740   38.4830 C   0  0  0  0  0  0  0  0  0  0  0  0
   38.4870   32.2740   38.3830 N   0  0  0  0  0  0  0  0  0  0  0  0
   37.0800   33.5610   39.1810 H   0  0  0  0  0  0  0  0  0  0  0  0
   36.4970   31.9830   41.0380 H   0  0  0  0  0  0  0  0  0  0  0  0
   39.8850   30.6630   37.8300 H   0  0  0  0  0  0  0  0  0  0  0  0
   35.8210   28.4670   40.1980 C   0  0  0  0  0  0  0  0  0  0  0  0
   34.6680   29.1320   40.0000 N   0  0  0  0  0  0  0  0  0  0  0  0
   34.1540   28.8520   38.7890 C   0  0  0  0  0  0  0  0  0  0  0  0
   33.2270   29.2500   38.3630 H   0  0  0  0  0  0  0  0  0  0  0  0
   35.0190   27.9830   38.2160 N   0  0  0  0  0  0  0  0  0  0  0  0
   34.9320   27.5590   37.2770 H   0  0  0  0  0  0  0  0  0  0  0  0
   36.0040   27.7670   39.0720 N   0  0  0  0  0  0  0  0  0  0  0  0
  2  1  1  0  0  0  0
  2  7  1  0  0  0  0
  3  2  2  0  0  0  0
  4  3  1  0  0  0  0
  4  5  2  0  0  0  0
  5  6  1  0  0  0  0
  6  7  2  0  0  0  0
  6  9  1  0  0  0  0
  7 10  1  0  0  0  0
  8  5  1  0  0  0  0
 11 12  1  0  0  0  0
 12 13  2  0  0  0  0
 12 18  1  0  0  0  0
 13  3  1  0  0  0  0
 14 13  1  0  0  0  0
 15 14  2  0  0  0  0
 16 15  1  0  0  0  0
 16 11  2  0  0  0  0
 17 11  1  0  0  0  0
 19 15  1  0  0  0  0
 20  4  1  0  0  0  0
 21 20  1  0  0  0  0
 22 21  2  0  0  0  0
 23 22  1  0  0  0  0
 24 22  1  0  0  0  0
 24 26  1  0  0  0  0
 25 24  1  0  0  0  0
 26 20  2  0  0  0  0
M  END
>  <minimizedAffinity>
-4.97677469

$$$$

 OpenBabel03252502113D

 26 28  0  0  0  0  0  0  0  0999 V2000
   36.1490   25.2940   37.7600 Cl  0  0  0  0  0  0  0  0  0  0  0  0
   36.5680   25.2470   39.4470 C   0  0  0  0  0  0  0  0  0  0  0  0
   36.8130   26.3870   40.1640 C   0  0  0  0  0  0  0  0  0  0  0  0
   37.1340   26.2190   41.4820 C   0  0  0  0  0  0  0  0  0  0  0  0
   37.2140   25.0120   42.0850 C   0  0  0  0  0  0  0  0  0  0  0  0
   36.9670   23.8610   41.3630 C   0  0  0  0  0  0  0  0  0  0  0  0
   36.6430   23.9980   40.0350 C   0  0  0  0  0  0  0  0  0  0  0  0
   37.4670   24.9060   43.1230 H   0  0  0  0  0  0  0  0  0  0  0  0
   37.0270   22.8850   41.8270 H   0  0  0  0  0  0  0  0  0  0  0  0
   36.4530   23.0850   39.4840 H   0  0  0  0  0  0  0  0  0  0  0  0
   35.4940   29.6420   38.7480 C   0  0  0  0  0  0  0  0  0  0  0  0
   35.5460   28.4110   39.4190 C   0  0  0  0  0  0  0  0  0  0  0  0
   36.7160   27.6690   39.4790 C   0  0  0  0  0  0  0  0  0  0  0  0
   37.7880   28.2160   38.8510 N   0  0  0  0  0  0  0  0  0  0  0  0
   37.7380   29.3920   38.2100 C   0  0  0  0  0  0  0  0  0  0  0  0
   36.5890   30.1100   38.1580 N   0  0  0  0  0  0  0  0  0  0  0  0
   34.5960   30.2220   38.6970 H   0  0  0  0  0  0  0  0  0  0  0  0
   34.6620   28.0260   39.9000 H   0  0  0  0  0  0  0  0  0  0  0  0
   38.7090   29.6450   37.7770 H   0  0  0  0  0  0  0  0  0  0  0  0
   37.4020   27.4160   42.2790 C   0  0  0  0  0  0  0  0  0  0  0  0
   38.5860   28.0530   42.3030 N   0  0  0  0  0  0  0  0  0  0  0  0
   38.5410   29.1190   43.1220 C   0  0  0  0  0  0  0  0  0  0  0  0
   39.3570   29.8180   43.3340 H   0  0  0  0  0  0  0  0  0  0  0  0
   37.2840   29.1430   43.6240 N   0  0  0  0  0  0  0  0  0  0  0  0
   36.9020   29.8340   44.2900 H   0  0  0  0  0  0  0  0  0  0  0  0
   36.6230   28.1200   43.1080 N   0  0  0  0  0  0  0  0  0  0  0  0
  1  2  1  0  0  0  0
  2  7  2  0  0  0  0
  2  3  1  0  0  0  0
  3  4  2  0  0  0  0
  4  5  1  0  0  0  0
  4 20  1  0  0  0  0
  5  8  1  0  0  0  0
  6  9  1  0  0  0  0
  6  5  2  0  0  0  0
  7  6  1  0  0  0  0
 10  7  1  0  0  0  0
 11 12  1  0  0  0  0
 12 13  2  0  0  0  0
 12 18  1  0  0  0  0
 13  3  1  0  0  0  0
 14 13  1  0  0  0  0
 15 14  2  0  0  0  0
 16 15  1  0  0  0  0
 16 11  2  0  0  0  0
 17 11  1  0  0  0  0
 19 15  1  0  0  0  0
 20 21  1  0  0  0  0
 20 26  2  0  0  0  0
 21 22  2  0  0  0  0
 22 23  1  0  0  0  0
 22 24  1  0  0  0  0
 24 25  1  0  0  0  0
 26 24  1  0  0  0  0
M  END
>  <minimizedAffinity>
-4.9223609

$$$$

 OpenBabel03252502113D

 26 28  0  0  0  0  0  0  0  0999 V2000
   36.3920   25.3120   39.6750 Cl  0  0  0  0  0  0  0  0  0  0  0  0
   36.0620   26.8640   38.9630 C   0  0  0  0  0  0  0  0  0  0  0  0
   36.4970   28.0300   39.5340 C   0  0  0  0  0  0  0  0  0  0  0  0
   36.1740   29.1850   38.8800 C   0  0  0  0  0  0  0  0  0  0  0  0
   35.4660   29.2200   37.7290 C   0  0  0  0  0  0  0  0  0  0  0  0
   35.0250   28.0460   37.1520 C   0  0  0  0  0  0  0  0  0  0  0  0
   35.3350   26.8670   37.7880 C   0  0  0  0  0  0  0  0  0  0  0  0
   35.2240   30.1420   37.2330 H   0  0  0  0  0  0  0  0  0  0  0  0
   34.4560   28.0520   36.2310 H   0  0  0  0  0  0  0  0  0  0  0  0
   34.9810   25.9550   37.3210 H   0  0  0  0  0  0  0  0  0  0  0  0
   37.4390   27.8780   43.1990 C   0  0  0  0  0  0  0  0  0  0  0  0
   36.6690   27.9560   42.0280 C   0  0  0  0  0  0  0  0  0  0  0  0
   37.2590   27.9510   40.7740 C   0  0  0  0  0  0  0  0  0  0  0  0
   38.6140   27.8670   40.7650 N   0  0  0  0  0  0  0  0  0  0  0  0
   39.3490   27.7930   41.8830 C   0  0  0  0  0  0  0  0  0  0  0  0
   38.7620   27.7980   43.1060 N   0  0  0  0  0  0  0  0  0  0  0  0
   36.9920   27.8810   44.1710 H   0  0  0  0  0  0  0  0  0  0  0  0
   35.5950   28.0210   42.0970 H   0  0  0  0  0  0  0  0  0  0  0  0
   40.4150   27.7330   41.6500 H   0  0  0  0  0  0  0  0  0  0  0  0
   36.6230   30.4500   39.4610 C   0  0  0  0  0  0  0  0  0  0  0  0
   37.6940   31.1380   39.0250 N   0  0  0  0  0  0  0  0  0  0  0  0
   37.8670   32.2610   39.7450 C   0  0  0  0  0  0  0  0  0  0  0  0
   38.6560   33.0090   39.6120 H   0  0  0  0  0  0  0  0  0  0  0  0
   36.8700   32.2680   40.6600 N   0  0  0  0  0  0  0  0  0  0  0  0
   36.7010   32.9910   41.3790 H   0  0  0  0  0  0  0  0  0  0  0  0
   36.1410   31.1800   40.4720 N   0  0  0  0  0  0  0  0  0  0  0  0
  2  3  1  0  0  0  0
  2  1  1  0  0  0  0
  3 13  1  0  0  0  0
  4 20  1  0  0  0  0
  4  3  2  0  0  0  0
  5  4  1  0  0  0  0
  6  5  2  0  0  0  0
  6  7  1  0  0  0  0
  7  2  2  0  0  0  0
  8  5  1  0  0  0  0
  9  6  1  0  0  0  0
 10  7  1  0  0  0  0
 11 17  1  0  0  0  0
 12 18  1  0  0  0  0
 12 11  2  0  0  0  0
 13 12  1  0  0  0  0
 14 13  2  0  0  0  0
 14 15  1  0  0  0  0
 15 16  2  0  0  0  0
 16 11  1  0  0  0  0
 19 15  1  0  0  0  0
 20 26  2  0  0  0  0
 21 20  1  0  0  0  0
 21 22  2  0  0  0  0
 22 24  1  0  0  0  0
 23 22  1  0  0  0  0
 24 25  1  0  0  0  0
 26 24  1  0  0  0  0
M  END
>  <minimizedAffinity>
-4.76994562

$$$$

 OpenBabel03252502113D

 26 28  0  0  0  0  0  0  0  0999 V2000
   37.5910   31.7470   36.7550 Cl  0  0  0  0  0  0  0  0  0  0  0  0
   37.0170   30.4530   37.7640 C   0  0  0  0  0  0  0  0  0  0  0  0
   37.3870   30.3410   39.0770 C   0  0  0  0  0  0  0  0  0  0  0  0
   36.8700   29.2800   39.7660 C   0  0  0  0  0  0  0  0  0  0  0  0
   36.0340   28.3690   39.2200 C   0  0  0  0  0  0  0  0  0  0  0  0
   35.6600   28.4800   37.8960 C   0  0  0  0  0  0  0  0  0  0  0  0
   36.1650   29.5370   37.1770 C   0  0  0  0  0  0  0  0  0  0  0  0
   35.6400   27.5430   39.7830 H   0  0  0  0  0  0  0  0  0  0  0  0
   34.9930   27.7600   37.4390 H   0  0  0  0  0  0  0  0  0  0  0  0
   35.8610   29.6090   36.1390 H   0  0  0  0  0  0  0  0  0  0  0  0
   38.7490   33.4580   40.7410 C   0  0  0  0  0  0  0  0  0  0  0  0
   37.8470   32.5170   40.2210 C   0  0  0  0  0  0  0  0  0  0  0  0
   38.2880   31.3430   39.6310 C   0  0  0  0  0  0  0  0  0  0  0  0
   39.6360   31.1760   39.5950 N   0  0  0  0  0  0  0  0  0  0  0  0
   40.4970   32.0750   40.0920 C   0  0  0  0  0  0  0  0  0  0  0  0
   40.0550   33.2200   40.6680 N   0  0  0  0  0  0  0  0  0  0  0  0
   38.4190   34.3670   41.1990 H   0  0  0  0  0  0  0  0  0  0  0  0
   36.7880   32.7040   40.2770 H   0  0  0  0  0  0  0  0  0  0  0  0
   41.5300   31.7440   39.9610 H   0  0  0  0  0  0  0  0  0  0  0  0
   37.2430   29.1290   41.1730 C   0  0  0  0  0  0  0  0  0  0  0  0
   38.2400   28.3360   41.6040 N   0  0  0  0  0  0  0  0  0  0  0  0
   38.3560   28.3960   42.9430 C   0  0  0  0  0  0  0  0  0  0  0  0
   39.0790   27.8560   43.5630 H   0  0  0  0  0  0  0  0  0  0  0  0
   37.3950   29.2560   43.3560 N   0  0  0  0  0  0  0  0  0  0  0  0
   37.2000   29.5360   44.3310 H   0  0  0  0  0  0  0  0  0  0  0  0
   36.7450   29.6810   42.2840 N   0  0  0  0  0  0  0  0  0  0  0  0
  1  2  1  0  0  0  0
  2  3  1  0  0  0  0
  3 13  1  0  0  0  0
  3  4  2  0  0  0  0
  4 20  1  0  0  0  0
  5  4  1  0  0  0  0
  5  8  1  0  0  0  0
  6  5  2  0  0  0  0
  7  2  2  0  0  0  0
  7  6  1  0  0  0  0
  9  6  1  0  0  0  0
 10  7  1  0  0  0  0
 11 17  1  0  0  0  0
 12 18  1  0  0  0  0
 12 11  2  0  0  0  0
 13 12  1  0  0  0  0
 14 13  2  0  0  0  0
 14 15  1  0  0  0  0
 15 16  2  0  0  0  0
 16 11  1  0  0  0  0
 19 15  1  0  0  0  0
 20 21  1  0  0  0  0
 20 26  2  0  0  0  0
 21 22  2  0  0  0  0
 22 24  1  0  0  0  0
 22 23  1  0  0  0  0
 24 25  1  0  0  0  0
 26 24  1  0  0  0  0
M  END
>  <minimizedAffinity>
-4.71979284

$$$$

 OpenBabel03252502113D

 26 28  0  0  0  0  0  0  0  0999 V2000
   36.4560   29.6450   34.7070 Cl  0  0  0  0  0  0  0  0  0  0  0  0
   35.5160   29.3200   36.1340 C   0  0  0  0  0  0  0  0  0  0  0  0
   36.0350   29.4690   37.3920 C   0  0  0  0  0  0  0  0  0  0  0  0
   35.1980   29.1820   38.4330 C   0  0  0  0  0  0  0  0  0  0  0  0
   33.9200   28.7730   38.2740 C   0  0  0  0  0  0  0  0  0  0  0  0
   33.3940   28.6220   37.0070 C   0  0  0  0  0  0  0  0  0  0  0  0
   34.2130   28.9020   35.9390 C   0  0  0  0  0  0  0  0  0  0  0  0
   33.2810   28.5540   39.1090 H   0  0  0  0  0  0  0  0  0  0  0  0
   32.3730   28.2950   36.8580 H   0  0  0  0  0  0  0  0  0  0  0  0
   33.7850   28.7780   34.9520 H   0  0  0  0  0  0  0  0  0  0  0  0
   39.1250   31.6350   37.7180 C   0  0  0  0  0  0  0  0  0  0  0  0
   37.7810   31.2480   37.5930 C   0  0  0  0  0  0  0  0  0  0  0  0
   37.4170   29.9130   37.5220 C   0  0  0  0  0  0  0  0  0  0  0  0
   38.4410   29.0230   37.5800 N   0  0  0  0  0  0  0  0  0  0  0  0
   39.7240   29.3920   37.6990 C   0  0  0  0  0  0  0  0  0  0  0  0
   40.0700   30.7010   37.7690 N   0  0  0  0  0  0  0  0  0  0  0  0
   39.4160   32.6630   37.7740 H   0  0  0  0  0  0  0  0  0  0  0  0
   37.0100   32.0000   37.5520 H   0  0  0  0  0  0  0  0  0  0  0  0
   40.3830   28.5210   37.7280 H   0  0  0  0  0  0  0  0  0  0  0  0
   35.7190   29.3300   39.7920 C   0  0  0  0  0  0  0  0  0  0  0  0
   36.2460   28.3220   40.5080 N   0  0  0  0  0  0  0  0  0  0  0  0
   36.6430   28.7500   41.7200 C   0  0  0  0  0  0  0  0  0  0  0  0
   37.1050   28.1470   42.5100 H   0  0  0  0  0  0  0  0  0  0  0  0
   36.3510   30.0710   41.7560 N   0  0  0  0  0  0  0  0  0  0  0  0
   36.5240   30.7170   42.5430 H   0  0  0  0  0  0  0  0  0  0  0  0
   35.8020   30.3960   40.5960 N   0  0  0  0  0  0  0  0  0  0  0  0
  1  2  1  0  0  0  0
  2  3  1  0  0  0  0
  3 13  1  0  0  0  0
  3  4  2  0  0  0  0
  4 20  1  0  0  0  0
  5  4  1  0  0  0  0
  5  8  1  0  0  0  0
  6  5  2  0  0  0  0
  7  2  2  0  0  0  0
  7  6  1  0  0  0  0
  9  6  1  0  0  0  0
 10  7  1  0  0  0  0
 11 16  1  0  0  0  0
 11 17  1  0  0  0  0
 12 11  2  0  0  0  0
 13 14  2  0  0  0  0
 13 12  1  0  0  0  0
 14 15  1  0  0  0  0
 15 19  1  0  0  0  0
 15 16  2  0  0  0  0
 18 12  1  0  0  0  0
 20 21  1  0  0  0  0
 20 26  2  0  0  0  0
 21 22  2  0  0  0  0
 22 24  1  0  0  0  0
 22 23  1  0  0  0  0
 24 25  1  0  0  0  0
 26 24  1  0  0  0  0
M  END
>  <minimizedAffinity>
-4.68778801

$$$$

 OpenBabel03252502113D

 26 28  0  0  0  0  0  0  0  0999 V2000
   40.5820   27.5270   43.5780 Cl  0  0  0  0  0  0  0  0  0  0  0  0
   38.9970   27.8860   42.9580 C   0  0  0  0  0  0  0  0  0  0  0  0
   38.7770   28.9210   42.0890 C   0  0  0  0  0  0  0  0  0  0  0  0
   37.4880   29.1030   41.6740 C   0  0  0  0  0  0  0  0  0  0  0  0
   36.4560   28.3260   42.0740 C   0  0  0  0  0  0  0  0  0  0  0  0
   36.6760   27.2820   42.9500 C   0  0  0  0  0  0  0  0  0  0  0  0
   37.9630   27.0750   43.3860 C   0  0  0  0  0  0  0  0  0  0  0  0
   35.4510   28.4890   41.7330 H   0  0  0  0  0  0  0  0  0  0  0  0
   35.8640   26.6490   43.2830 H   0  0  0  0  0  0  0  0  0  0  0  0
   38.1170   26.2520   44.0740 H   0  0  0  0  0  0  0  0  0  0  0  0
   41.4370   31.6130   41.9530 C   0  0  0  0  0  0  0  0  0  0  0  0
   40.3360   30.8550   42.3810 C   0  0  0  0  0  0  0  0  0  0  0  0
   39.9150   29.7350   41.6810 C   0  0  0  0  0  0  0  0  0  0  0  0
   40.6350   29.4330   40.5700 N   0  0  0  0  0  0  0  0  0  0  0  0
   41.6870   30.1570   40.1620 C   0  0  0  0  0  0  0  0  0  0  0  0
   42.0910   31.2510   40.8550 N   0  0  0  0  0  0  0  0  0  0  0  0
   41.7710   32.4780   42.4870 H   0  0  0  0  0  0  0  0  0  0  0  0
   39.8020   31.1430   43.2710 H   0  0  0  0  0  0  0  0  0  0  0  0
   42.1200   29.7410   39.2500 H   0  0  0  0  0  0  0  0  0  0  0  0
   37.2160   30.1990   40.7450 C   0  0  0  0  0  0  0  0  0  0  0  0
   37.2910   30.0850   39.4060 N   0  0  0  0  0  0  0  0  0  0  0  0
   36.9880   31.2510   38.8080 C   0  0  0  0  0  0  0  0  0  0  0  0
   36.9680   31.4490   37.7310 H   0  0  0  0  0  0  0  0  0  0  0  0
   36.7180   32.1190   39.8110 N   0  0  0  0  0  0  0  0  0  0  0  0
   36.4480   33.1100   39.7080 H   0  0  0  0  0  0  0  0  0  0  0  0
   36.8590   31.4710   40.9560 N   0  0  0  0  0  0  0  0  0  0  0  0
  2  7  1  0  0  0  0
  2  1  1  0  0  0  0
  3  2  2  0  0  0  0
  4  5  2  0  0  0  0
  4  3  1  0  0  0  0
  5  6  1  0  0  0  0
  6  9  1  0  0  0  0
  6  7  2  0  0  0  0
  7 10  1  0  0  0  0
  8  5  1  0  0  0  0
 11 12  1  0  0  0  0
 11 17  1  0  0  0  0
 12 18  1  0  0  0  0
 13  3  1  0  0  0  0
 13 12  2  0  0  0  0
 14 13  1  0  0  0  0
 15 14  2  0  0  0  0
 15 16  1  0  0  0  0
 16 11  2  0  0  0  0
 19 15  1  0  0  0  0
 20 26  2  0  0  0  0
 20  4  1  0  0  0  0
 21 20  1  0  0  0  0
 22 21  2  0  0  0  0
 22 24  1  0  0  0  0
 23 22  1  0  0  0  0
 24 26  1  0  0  0  0
 25 24  1  0  0  0  0
M  END
>  <minimizedAffinity>
-4.68119669

$$$$

 OpenBabel03252502113D

 26 28  0  0  0  0  0  0  0  0999 V2000
   37.0130   24.2240   38.6610 Cl  0  0  0  0  0  0  0  0  0  0  0  0
   36.9620   25.2480   40.0650 C   0  0  0  0  0  0  0  0  0  0  0  0
   36.7600   26.5980   39.9690 C   0  0  0  0  0  0  0  0  0  0  0  0
   36.7410   27.2950   41.1440 C   0  0  0  0  0  0  0  0  0  0  0  0
   36.9040   26.7220   42.3570 C   0  0  0  0  0  0  0  0  0  0  0  0
   37.1080   25.3600   42.4560 C   0  0  0  0  0  0  0  0  0  0  0  0
   37.1330   24.6320   41.2910 C   0  0  0  0  0  0  0  0  0  0  0  0
   36.8840   27.2910   43.2670 H   0  0  0  0  0  0  0  0  0  0  0  0
   37.2420   24.8810   43.4180 H   0  0  0  0  0  0  0  0  0  0  0  0
   37.2940   23.5650   41.3870 H   0  0  0  0  0  0  0  0  0  0  0  0
   35.2290   27.8630   36.7440 C   0  0  0  0  0  0  0  0  0  0  0  0
   35.3530   27.2970   38.0230 C   0  0  0  0  0  0  0  0  0  0  0  0
   36.5870   27.1790   38.6440 C   0  0  0  0  0  0  0  0  0  0  0  0
   37.6470   27.6440   37.9340 N   0  0  0  0  0  0  0  0  0  0  0  0
   37.5280   28.1850   36.7130 C   0  0  0  0  0  0  0  0  0  0  0  0
   36.3160   28.2960   36.1140 N   0  0  0  0  0  0  0  0  0  0  0  0
   34.2820   27.9580   36.2570 H   0  0  0  0  0  0  0  0  0  0  0  0
   34.4760   26.9440   38.5390 H   0  0  0  0  0  0  0  0  0  0  0  0
   38.5010   28.4930   36.3230 H   0  0  0  0  0  0  0  0  0  0  0  0
   36.5270   28.7410   41.0790 C   0  0  0  0  0  0  0  0  0  0  0  0
   37.5170   29.6500   41.1450 N   0  0  0  0  0  0  0  0  0  0  0  0
   37.0270   30.8990   41.0590 C   0  0  0  0  0  0  0  0  0  0  0  0
   37.6010   31.8320   41.0850 H   0  0  0  0  0  0  0  0  0  0  0  0
   35.6860   30.7600   40.9370 N   0  0  0  0  0  0  0  0  0  0  0  0
   34.9950   31.5230   40.8480 H   0  0  0  0  0  0  0  0  0  0  0  0
   35.4110   29.4660   40.9510 N   0  0  0  0  0  0  0  0  0  0  0  0
  1  2  1  0  0  0  0
  2  7  1  0  0  0  0
  3  2  2  0  0  0  0
  3  4  1  0  0  0  0
  4  5  2  0  0  0  0
  5  6  1  0  0  0  0
  5  8  1  0  0  0  0
  6  9  1  0  0  0  0
  7 10  1  0  0  0  0
  7  6  2  0  0  0  0
 11 12  1  0  0  0  0
 12 18  1  0  0  0  0
 12 13  2  0  0  0  0
 13  3  1  0  0  0  0
 14 13  1  0  0  0  0
 15 14  2  0  0  0  0
 16 15  1  0  0  0  0
 16 11  2  0  0  0  0
 17 11  1  0  0  0  0
 19 15  1  0  0  0  0
 20  4  1  0  0  0  0
 20 21  1  0  0  0  0
 22 23  1  0  0  0  0
 22 21  2  0  0  0  0
 24 26  1  0  0  0  0
 24 22  1  0  0  0  0
 25 24  1  0  0  0  0
 26 20  2  0  0  0  0
M  END
>  <minimizedAffinity>
-4.67388391

$$$$
