
 OpenBabel03242511003D

 44 47  0  0  0  0  0  0  0  0999 V2000
   45.6300   31.5090   47.0680 C   0  0  0  0  0  0  0  0  0  0  0  0
   45.3830   31.9760   48.3700 C   0  0  0  0  0  0  0  0  0  0  0  0
   45.1530   31.1460   49.4430 C   0  0  0  0  0  0  0  0  0  0  0  0
   45.1700   29.7940   49.2090 C   0  0  0  0  0  0  0  0  0  0  0  0
   45.4150   29.3260   47.9210 C   0  0  0  0  0  0  0  0  0  0  0  0
   45.6310   30.1800   46.9250 N   0  0  0  0  0  0  0  0  0  0  0  0
   45.3750   33.0450   48.5270 H   0  0  0  0  0  0  0  0  0  0  0  0
   44.9660   31.5440   50.4310 H   0  0  0  0  0  0  0  0  0  0  0  0
   44.9870   29.1610   50.0660 H   0  0  0  0  0  0  0  0  0  0  0  0
   44.7760   36.5570   43.8690 C   0  0  0  0  0  0  0  0  0  0  0  0
   45.6700   36.2660   42.8160 C   0  0  0  0  0  0  0  0  0  0  0  0
   46.3150   35.0210   42.8350 C   0  0  0  0  0  0  0  0  0  0  0  0
   46.0700   34.1380   43.8490 N   0  0  0  0  0  0  0  0  0  0  0  0
   45.1940   34.4820   44.8400 C   0  0  0  0  0  0  0  0  0  0  0  0
   44.5560   35.6850   44.8410 N   0  0  0  0  0  0  0  0  0  0  0  0
   45.8630   32.4710   46.0000 C   0  0  0  0  0  0  0  0  0  0  0  0
   46.8570   32.2780   45.2460 O   0  0  0  0  0  0  0  0  0  0  0  0
   44.9470   33.5550   45.8890 N   0  0  0  0  0  0  0  0  0  0  0  0
   44.2830   37.5150   43.8510 H   0  0  0  0  0  0  0  0  0  0  0  0
   45.8420   36.9860   42.0290 H   0  0  0  0  0  0  0  0  0  0  0  0
   47.0080   34.7760   42.0320 H   0  0  0  0  0  0  0  0  0  0  0  0
   44.1430   33.6950   46.5130 H   0  0  0  0  0  0  0  0  0  0  0  0
   45.4300   27.8950   47.6900 C   0  0  0  0  0  0  0  0  0  0  0  0
   44.4430   27.3120   47.0650 C   0  0  0  0  0  0  0  0  0  0  0  0
   44.3080   25.8550   46.7490 C   0  0  0  0  0  0  0  0  0  0  0  0
   44.6960   25.2510   47.6030 H   0  0  0  0  0  0  0  0  0  0  0  0
   45.0010   25.6820   45.9290 H   0  0  0  0  0  0  0  0  0  0  0  0
   44.0810   23.1940   45.4630 Cl  0  0  0  0  0  0  0  0  0  0  0  0
   42.7260   24.2730   45.7820 C   0  0  0  0  0  0  0  0  0  0  0  0
   42.9100   25.5070   46.3900 C   0  0  0  0  0  0  0  0  0  0  0  0
   41.8500   26.3540   46.6410 C   0  0  0  0  0  0  0  0  0  0  0  0
   40.5540   25.9540   46.2710 C   0  0  0  0  0  0  0  0  0  0  0  0
   40.3840   24.7200   45.6650 C   0  0  0  0  0  0  0  0  0  0  0  0
   41.4570   23.8730   45.4160 C   0  0  0  0  0  0  0  0  0  0  0  0
   42.0300   27.2910   47.1070 H   0  0  0  0  0  0  0  0  0  0  0  0
   39.7100   26.5920   46.4530 H   0  0  0  0  0  0  0  0  0  0  0  0
   39.3900   24.4150   45.3820 H   0  0  0  0  0  0  0  0  0  0  0  0
   41.2350   22.5980   44.7840 C   0  0  0  0  0  0  0  0  0  0  0  0
   41.0200   21.4350   45.4000 N   0  0  0  0  0  0  0  0  0  0  0  0
   40.8530   20.4560   44.4920 C   0  0  0  0  0  0  0  0  0  0  0  0
   40.6610   19.3880   44.5900 H   0  0  0  0  0  0  0  0  0  0  0  0
   40.9750   21.0800   43.3060 N   0  0  0  0  0  0  0  0  0  0  0  0
   40.9190   20.7100   42.3200 H   0  0  0  0  0  0  0  0  0  0  0  0
   41.2050   22.3690   43.4520 N   0  0  0  0  0  0  0  0  0  0  0  0
  1  2  1  0  0  0  0
  2  7  1  0  0  0  0
  2  3  2  0  0  0  0
  3  8  1  0  0  0  0
  4  3  1  0  0  0  0
  4  9  1  0  0  0  0
  5  4  2  0  0  0  0
  6  1  2  0  0  0  0
  6  5  1  0  0  0  0
 10 15  1  0  0  0  0
 11 12  1  0  0  0  0
 11 10  2  0  0  0  0
 12 13  2  0  0  0  0
 13 14  1  0  0  0  0
 14 15  2  0  0  0  0
 14 18  1  0  0  0  0
 16  1  1  0  0  0  0
 17 16  2  0  0  0  0
 18 16  1  0  0  0  0
 18 22  1  0  0  0  0
 19 10  1  0  0  0  0
 20 11  1  0  0  0  0
 21 12  1  0  0  0  0
 23  5  1  0  0  0  0
 24 23  2  0  0  0  0
 25 24  1  0  0  0  0
 25 26  1  0  0  0  0
 27 25  1  0  0  0  0
 28 29  1  0  0  0  0
 29 30  1  0  0  0  0
 30 31  2  0  0  0  0
 30 25  1  0  0  0  0
 31 35  1  0  0  0  0
 32 36  1  0  0  0  0
 32 31  1  0  0  0  0
 33 32  2  0  0  0  0
 34 33  1  0  0  0  0
 34 29  2  0  0  0  0
 37 33  1  0  0  0  0
 38 39  1  0  0  0  0
 38 34  1  0  0  0  0
 40 41  1  0  0  0  0
 40 39  2  0  0  0  0
 42 44  1  0  0  0  0
 42 40  1  0  0  0  0
 43 42  1  0  0  0  0
 44 38  2  0  0  0  0
M  END
>  <minimizedAffinity>
-6.12395716

>  <minimizedRMSD>
1.28885972

$$$$
