
 OpenBabel03252506563D

 36 40  0  0  0  0  0  0  0  0999 V2000
   47.1890   31.2130   45.2050 C   0  0  0  0  0  0  0  0  0  0  0  0
   46.9150   32.5620   45.1510 C   0  0  0  0  0  0  0  0  0  0  0  0
   46.3630   33.2540   46.2060 C   0  0  0  0  0  0  0  0  0  0  0  0
   46.0540   32.5940   47.4010 C   0  0  0  0  0  0  0  0  0  0  0  0
   45.5230   32.9400   48.6000 N   0  0  0  0  0  0  0  0  0  0  0  0
   45.4710   31.8250   49.3790 C   0  0  0  0  0  0  0  0  0  0  0  0
   45.9720   30.8100   48.6400 N   0  0  0  0  0  0  0  0  0  0  0  0
   46.3390   31.2470   47.4260 C   0  0  0  0  0  0  0  0  0  0  0  0
   46.8820   30.5410   46.4020 C   0  0  0  0  0  0  0  0  0  0  0  0
   47.6230   30.6720   44.3760 H   0  0  0  0  0  0  0  0  0  0  0  0
   46.1330   34.3190   46.2000 H   0  0  0  0  0  0  0  0  0  0  0  0
   45.2340   33.9410   48.7830 H   0  0  0  0  0  0  0  0  0  0  0  0
   45.0860   31.8320   50.3850 H   0  0  0  0  0  0  0  0  0  0  0  0
   46.7200   35.0350   42.4330 C   0  0  0  0  0  0  0  0  0  0  0  0
   47.8080   34.6900   41.6310 C   0  0  0  0  0  0  0  0  0  0  0  0
   48.6080   33.6040   42.0280 C   0  0  0  0  0  0  0  0  0  0  0  0
   48.2840   32.9360   43.1810 N   0  0  0  0  0  0  0  0  0  0  0  0
   47.2160   33.3070   43.9320 C   0  0  0  0  0  0  0  0  0  0  0  0
   46.4530   34.3390   43.5570 N   0  0  0  0  0  0  0  0  0  0  0  0
   46.1200   35.8760   42.1030 H   0  0  0  0  0  0  0  0  0  0  0  0
   48.1040   35.1840   40.7150 H   0  0  0  0  0  0  0  0  0  0  0  0
   49.4570   33.2580   41.4940 H   0  0  0  0  0  0  0  0  0  0  0  0
   47.1490   29.1000   46.5300 C   0  0  0  0  0  0  0  0  0  0  0  0
   48.3170   28.4790   46.1270 C   0  0  0  0  0  0  0  0  0  0  0  0
   48.1090   27.1320   46.4440 C   0  0  0  0  0  0  0  0  0  0  0  0
   46.8410   27.0110   47.0160 C   0  0  0  0  0  0  0  0  0  0  0  0
   46.3060   28.2300   47.0430 O   0  0  0  0  0  0  0  0  0  0  0  0
   49.1800   28.9240   45.6770 H   0  0  0  0  0  0  0  0  0  0  0  0
   48.7970   26.3140   46.2830 H   0  0  0  0  0  0  0  0  0  0  0  0
   46.2780   25.7470   47.4740 C   0  0  0  0  0  0  0  0  0  0  0  0
   46.3210   24.4420   47.1350 N   0  0  0  0  0  0  0  0  0  0  0  0
   45.5490   23.7400   47.9870 C   0  0  0  0  0  0  0  0  0  0  0  0
   45.3720   22.6820   47.9860 H   0  0  0  0  0  0  0  0  0  0  0  0
   45.0150   24.6210   48.8730 N   0  0  0  0  0  0  0  0  0  0  0  0
   44.3610   24.3890   49.6740 H   0  0  0  0  0  0  0  0  0  0  0  0
   45.4660   25.8190   48.5470 N   0  0  0  0  0  0  0  0  0  0  0  0
  1  9  1  0  0  0  0
  2  1  2  0  0  0  0
  2  3  1  0  0  0  0
  3  4  2  0  0  0  0
  4  8  1  0  0  0  0
  4  5  1  0  0  0  0
  5 12  1  0  0  0  0
  5  6  1  0  0  0  0
  6 13  1  0  0  0  0
  7  6  2  0  0  0  0
  8  7  1  0  0  0  0
  9 23  1  0  0  0  0
  9  8  2  0  0  0  0
 10  1  1  0  0  0  0
 11  3  1  0  0  0  0
 14 19  1  0  0  0  0
 15 16  1  0  0  0  0
 15 14  2  0  0  0  0
 16 17  2  0  0  0  0
 17 18  1  0  0  0  0
 18  2  1  0  0  0  0
 19 18  2  0  0  0  0
 20 14  1  0  0  0  0
 21 15  1  0  0  0  0
 22 16  1  0  0  0  0
 23 27  1  0  0  0  0
 24 25  1  0  0  0  0
 24 23  2  0  0  0  0
 25 26  2  0  0  0  0
 26 27  1  0  0  0  0
 26 30  1  0  0  0  0
 28 24  1  0  0  0  0
 29 25  1  0  0  0  0
 30 36  2  0  0  0  0
 31 30  1  0  0  0  0
 31 32  2  0  0  0  0
 32 34  1  0  0  0  0
 33 32  1  0  0  0  0
 34 35  1  0  0  0  0
 36 34  1  0  0  0  0
M  END
>  <minimizedAffinity>
-5.75832605

>  <minimizedRMSD>
0.817332864

$$$$
