
 OpenBabel03252509063D

 46 48  0  0  1  0  0  0  0  0999 V2000
   37.8110   26.9310   42.6440 N   0  0  0  0  0  0  0  0  0  0  0  0
   39.0150   26.5490   43.2840 C   0  0  0  0  0  0  0  0  0  0  0  0
   40.2030   27.4180   42.9640 C   0  0  0  0  0  0  0  0  0  0  0  0
   39.8720   28.8740   42.7260 C   0  0  0  0  0  0  0  0  0  0  0  0
   38.4030   29.1470   42.9580 C   0  0  0  0  0  0  0  0  0  0  0  0
   37.6960   28.1380   41.9830 C   0  0  2  0  0  0  0  0  0  0  0  0
   38.8520   26.6840   44.3910 H   0  0  0  0  0  0  0  0  0  0  0  0
   39.3260   25.5100   43.1630 H   0  0  0  0  0  0  0  0  0  0  0  0
   40.9750   27.2940   43.7560 H   0  0  0  0  0  0  0  0  0  0  0  0
   40.6540   26.9980   42.0330 H   0  0  0  0  0  0  0  0  0  0  0  0
   40.4730   29.4810   43.4610 H   0  0  0  0  0  0  0  0  0  0  0  0
   40.1490   29.2090   41.7280 H   0  0  0  0  0  0  0  0  0  0  0  0
   38.0770   28.9070   43.9730 H   0  0  0  0  0  0  0  0  0  0  0  0
   38.1800   30.1710   42.6110 H   0  0  0  0  0  0  0  0  0  0  0  0
   38.2260   28.2700   41.0180 H   0  0  0  0  0  0  0  0  0  0  0  0
   37.0070   25.8220   42.1940 C   0  0  0  0  0  0  0  0  0  0  0  0
   36.0940   25.7320   42.8090 H   0  0  0  0  0  0  0  0  0  0  0  0
   36.6750   26.1010   41.1540 H   0  0  0  0  0  0  0  0  0  0  0  0
   37.8460   24.6020   42.1370 C   0  0  0  0  0  0  0  0  0  0  0  0
   38.9150   24.8370   42.0420 H   0  0  0  0  0  0  0  0  0  0  0  0
   37.7720   23.9850   43.0770 H   0  0  0  0  0  0  0  0  0  0  0  0
   37.8690   21.9900   39.4370 C   0  0  0  0  0  0  0  0  0  0  0  0
   38.2730   22.8150   40.5020 C   0  0  0  0  0  0  0  0  0  0  0  0
   37.4070   23.7380   41.0140 C   0  0  0  0  0  0  0  0  0  0  0  0
   36.1880   23.8140   40.4630 N   0  0  0  0  0  0  0  0  0  0  0  0
   35.7980   23.0280   39.4450 C   0  0  0  0  0  0  0  0  0  0  0  0
   36.6250   22.1120   38.9220 N   0  0  0  0  0  0  0  0  0  0  0  0
   38.6510   21.2870   39.1130 H   0  0  0  0  0  0  0  0  0  0  0  0
   39.2660   22.7370   40.9350 H   0  0  0  0  0  0  0  0  0  0  0  0
   34.8060   23.0810   38.9870 H   0  0  0  0  0  0  0  0  0  0  0  0
   36.3980   28.6230   41.9880 O   0  0  0  0  0  0  0  0  0  0  0  0
   36.1810   31.0700   40.9810 O   0  0  0  0  0  0  0  0  0  0  0  0
   36.0560   29.5870   40.6430 P   0  0  2  0  0  0  0  0  0  0  0  0
   34.4190   29.3250   40.2640 O   0  0  0  0  0  0  0  0  0  0  0  0
   33.8170   29.7170   40.9320 H   0  0  0  0  0  0  0  0  0  0  0  0
   36.9790   29.1740   39.3140 O   0  0  0  0  0  0  0  0  0  0  0  0
   36.6180   29.9470   38.2300 C   0  0  0  0  0  0  0  0  0  0  0  0
   35.6920   30.4800   38.4630 H   0  0  0  0  0  0  0  0  0  0  0  0
   36.3330   29.2190   37.4140 H   0  0  0  0  0  0  0  0  0  0  0  0
   37.6890   30.8270   37.7180 C   0  0  0  0  0  0  0  0  0  0  0  0
   38.9340   30.7680   38.2460 N   0  0  0  0  0  0  0  0  0  0  0  0
   39.7410   31.6580   37.6240 C   0  0  0  0  0  0  0  0  0  0  0  0
   40.7970   31.7720   37.9000 H   0  0  0  0  0  0  0  0  0  0  0  0
   38.9720   32.2770   36.6930 N   0  0  0  0  0  0  0  0  0  0  0  0
   39.3450   33.0200   36.0620 H   0  0  0  0  0  0  0  0  0  0  0  0
   37.7660   31.7700   36.7680 N   0  0  0  0  0  0  0  0  0  0  0  0
  1  2  1  0  0  0  0
  2  7  1  0  0  0  0
  3  2  1  0  0  0  0
  3  9  1  0  0  0  0
  4  5  1  0  0  0  0
  4  3  1  0  0  0  0
  4 11  1  0  0  0  0
  5 13  1  0  0  0  0
  6 15  1  6  0  0  0
  6 31  1  0  0  0  0
  6  1  1  0  0  0  0
  6  5  1  0  0  0  0
  8  2  1  0  0  0  0
 10  3  1  0  0  0  0
 12  4  1  0  0  0  0
 14  5  1  0  0  0  0
 16  1  1  0  0  0  0
 16 17  1  0  0  0  0
 18 16  1  0  0  0  0
 19 16  1  0  0  0  0
 19 21  1  0  0  0  0
 20 19  1  0  0  0  0
 22 23  1  0  0  0  0
 23 29  1  0  0  0  0
 23 24  2  0  0  0  0
 24 19  1  0  0  0  0
 25 24  1  0  0  0  0
 26 25  2  0  0  0  0
 27 22  2  0  0  0  0
 27 26  1  0  0  0  0
 28 22  1  0  0  0  0
 30 26  1  0  0  0  0
 33 32  2  1  0  0  0
 33 31  1  0  0  0  0
 34 33  1  0  0  0  0
 34 35  1  0  0  0  0
 36 33  1  0  0  0  0
 37 38  1  0  0  0  0
 37 36  1  0  0  0  0
 39 37  1  0  0  0  0
 40 37  1  0  0  0  0
 40 41  1  0  0  0  0
 42 43  1  0  0  0  0
 42 41  2  0  0  0  0
 44 46  1  0  0  0  0
 44 42  1  0  0  0  0
 45 44  1  0  0  0  0
 46 40  2  0  0  0  0
M  END
>  <minimizedAffinity>
-5.49508095

$$$$

 OpenBabel03252509063D

 46 48  0  0  1  0  0  0  0  0999 V2000
   40.7000   31.3230   41.5360 N   0  0  0  0  0  0  0  0  0  0  0  0
   41.6220   31.3630   42.6110 C   0  0  0  0  0  0  0  0  0  0  0  0
   43.0710   31.3200   42.2010 C   0  0  0  0  0  0  0  0  0  0  0  0
   43.3730   32.0010   40.8860 C   0  0  0  0  0  0  0  0  0  0  0  0
   42.1390   32.6630   40.3150 C   0  0  0  0  0  0  0  0  0  0  0  0
   41.1100   31.4800   40.2270 C   0  0  2  0  0  0  0  0  0  0  0  0
   41.4960   32.3650   43.1110 H   0  0  0  0  0  0  0  0  0  0  0  0
   41.4830   30.6250   43.4030 H   0  0  0  0  0  0  0  0  0  0  0  0
   43.7000   31.7190   43.0280 H   0  0  0  0  0  0  0  0  0  0  0  0
   43.3370   30.2380   42.1120 H   0  0  0  0  0  0  0  0  0  0  0  0
   44.1490   32.7930   41.0870 H   0  0  0  0  0  0  0  0  0  0  0  0
   43.7930   31.3200   40.1470 H   0  0  0  0  0  0  0  0  0  0  0  0
   41.7140   33.4220   40.9770 H   0  0  0  0  0  0  0  0  0  0  0  0
   42.3670   32.9960   39.2870 H   0  0  0  0  0  0  0  0  0  0  0  0
   41.6750   30.6570   39.7440 H   0  0  0  0  0  0  0  0  0  0  0  0
   39.5250   30.5300   41.7990 C   0  0  0  0  0  0  0  0  0  0  0  0
   38.7230   31.1560   42.2280 H   0  0  0  0  0  0  0  0  0  0  0  0
   39.1670   30.1890   40.7860 H   0  0  0  0  0  0  0  0  0  0  0  0
   39.9040   29.3510   42.6140 C   0  0  0  0  0  0  0  0  0  0  0  0
   40.8060   28.8550   42.2320 H   0  0  0  0  0  0  0  0  0  0  0  0
   40.1590   29.6280   43.6760 H   0  0  0  0  0  0  0  0  0  0  0  0
   36.7230   27.6600   43.6790 C   0  0  0  0  0  0  0  0  0  0  0  0
   37.8000   28.5630   43.6140 C   0  0  0  0  0  0  0  0  0  0  0  0
   38.7740   28.3920   42.6710 C   0  0  0  0  0  0  0  0  0  0  0  0
   38.6510   27.3500   41.8380 N   0  0  0  0  0  0  0  0  0  0  0  0
   37.6240   26.4870   41.8980 C   0  0  0  0  0  0  0  0  0  0  0  0
   36.6530   26.6270   42.8110 N   0  0  0  0  0  0  0  0  0  0  0  0
   36.0040   27.9020   44.4770 H   0  0  0  0  0  0  0  0  0  0  0  0
   37.8800   29.4020   44.2990 H   0  0  0  0  0  0  0  0  0  0  0  0
   37.5140   25.6330   41.2230 H   0  0  0  0  0  0  0  0  0  0  0  0
   40.1260   32.0380   39.4270 O   0  0  0  0  0  0  0  0  0  0  0  0
   41.1910   30.3690   37.6580 O   0  0  0  0  0  0  0  0  0  0  0  0
   39.9890   31.2690   37.9290 P   0  0  2  0  0  0  0  0  0  0  0  0
   40.0430   32.4950   36.7500 O   0  0  0  0  0  0  0  0  0  0  0  0
   40.9340   32.8960   36.6730 H   0  0  0  0  0  0  0  0  0  0  0  0
   38.5470   30.4430   37.7670 O   0  0  0  0  0  0  0  0  0  0  0  0
   37.4890   31.2770   38.0660 C   0  0  0  0  0  0  0  0  0  0  0  0
   36.8330   31.3490   37.1950 H   0  0  0  0  0  0  0  0  0  0  0  0
   37.9340   32.3090   38.1770 H   0  0  0  0  0  0  0  0  0  0  0  0
   36.7740   30.9400   39.3140 C   0  0  0  0  0  0  0  0  0  0  0  0
   36.2730   29.6950   39.5010 N   0  0  0  0  0  0  0  0  0  0  0  0
   35.6640   29.6200   40.7070 C   0  0  0  0  0  0  0  0  0  0  0  0
   35.1890   28.6950   41.0570 H   0  0  0  0  0  0  0  0  0  0  0  0
   35.7950   30.8460   41.2720 N   0  0  0  0  0  0  0  0  0  0  0  0
   35.4120   31.0720   42.2160 H   0  0  0  0  0  0  0  0  0  0  0  0
   36.4530   31.6070   40.4310 N   0  0  0  0  0  0  0  0  0  0  0  0
  1 16  1  0  0  0  0
  1  2  1  0  0  0  0
  2  7  1  0  0  0  0
  2  8  1  0  0  0  0
  3  2  1  0  0  0  0
  3  9  1  0  0  0  0
  4 11  1  0  0  0  0
  4  3  1  0  0  0  0
  5  4  1  0  0  0  0
  5 13  1  0  0  0  0
  6 15  1  6  0  0  0
  6  5  1  0  0  0  0
  6  1  1  0  0  0  0
 10  3  1  0  0  0  0
 12  4  1  0  0  0  0
 14  5  1  0  0  0  0
 16 17  1  0  0  0  0
 16 19  1  0  0  0  0
 18 16  1  0  0  0  0
 19 24  1  0  0  0  0
 19 21  1  0  0  0  0
 20 19  1  0  0  0  0
 22 28  1  0  0  0  0
 23 22  1  0  0  0  0
 23 29  1  0  0  0  0
 24 23  2  0  0  0  0
 25 26  2  0  0  0  0
 25 24  1  0  0  0  0
 26 27  1  0  0  0  0
 27 22  2  0  0  0  0
 30 26  1  0  0  0  0
 31  6  1  0  0  0  0
 33 32  2  6  0  0  0
 33 31  1  0  0  0  0
 34 33  1  0  0  0  0
 35 34  1  0  0  0  0
 36 33  1  0  0  0  0
 36 37  1  0  0  0  0
 37 39  1  0  0  0  0
 37 40  1  0  0  0  0
 38 37  1  0  0  0  0
 40 41  1  0  0  0  0
 40 46  2  0  0  0  0
 41 42  2  0  0  0  0
 42 43  1  0  0  0  0
 42 44  1  0  0  0  0
 44 45  1  0  0  0  0
 46 44  1  0  0  0  0
M  END
>  <minimizedAffinity>
-5.29287243

$$$$

 OpenBabel03252509063D

 46 48  0  0  1  0  0  0  0  0999 V2000
   36.2510   27.6470   39.0690 N   0  0  0  0  0  0  0  0  0  0  0  0
   35.4680   26.9080   38.1490 C   0  0  0  0  0  0  0  0  0  0  0  0
   34.3680   27.6950   37.4850 C   0  0  0  0  0  0  0  0  0  0  0  0
   34.6910   29.1520   37.2440 C   0  0  0  0  0  0  0  0  0  0  0  0
   36.1120   29.4710   37.6510 C   0  0  0  0  0  0  0  0  0  0  0  0
   36.1600   29.0220   39.1560 C   0  0  2  0  0  0  0  0  0  0  0  0
   36.1520   26.6080   37.3060 H   0  0  0  0  0  0  0  0  0  0  0  0
   35.0320   25.9770   38.5130 H   0  0  0  0  0  0  0  0  0  0  0  0
   34.0590   27.1790   36.5480 H   0  0  0  0  0  0  0  0  0  0  0  0
   33.4850   27.6330   38.1690 H   0  0  0  0  0  0  0  0  0  0  0  0
   34.5790   29.3440   36.1390 H   0  0  0  0  0  0  0  0  0  0  0  0
   34.0070   29.8240   37.7590 H   0  0  0  0  0  0  0  0  0  0  0  0
   36.8570   28.8850   37.1080 H   0  0  0  0  0  0  0  0  0  0  0  0
   36.2450   30.5670   37.6180 H   0  0  0  0  0  0  0  0  0  0  0  0
   35.2500   29.4680   39.6060 H   0  0  0  0  0  0  0  0  0  0  0  0
   36.6250   26.9070   40.2490 C   0  0  0  0  0  0  0  0  0  0  0  0
   36.4410   27.5080   41.1570 H   0  0  0  0  0  0  0  0  0  0  0  0
   35.9140   26.0320   40.2860 H   0  0  0  0  0  0  0  0  0  0  0  0
   38.0130   26.4110   40.0960 C   0  0  0  0  0  0  0  0  0  0  0  0
   38.0580   25.3160   40.0300 H   0  0  0  0  0  0  0  0  0  0  0  0
   38.4960   26.7740   39.1440 H   0  0  0  0  0  0  0  0  0  0  0  0
   40.7920   28.0610   42.0110 C   0  0  0  0  0  0  0  0  0  0  0  0
   39.9900   27.5970   40.9520 C   0  0  0  0  0  0  0  0  0  0  0  0
   38.8490   26.8950   41.2210 C   0  0  0  0  0  0  0  0  0  0  0  0
   38.5450   26.6790   42.5080 N   0  0  0  0  0  0  0  0  0  0  0  0
   39.3090   27.1200   43.5210 C   0  0  0  0  0  0  0  0  0  0  0  0
   40.4340   27.8120   43.2900 N   0  0  0  0  0  0  0  0  0  0  0  0
   41.6810   28.6130   41.6700 H   0  0  0  0  0  0  0  0  0  0  0  0
   40.2550   27.7840   39.9160 H   0  0  0  0  0  0  0  0  0  0  0  0
   39.0710   26.9500   44.5750 H   0  0  0  0  0  0  0  0  0  0  0  0
   37.3440   29.6070   39.5740 O   0  0  0  0  0  0  0  0  0  0  0  0
   37.7500   30.1060   42.1500 O   0  0  0  0  0  0  0  0  0  0  0  0
   37.1270   30.6640   40.8740 P   0  0  2  0  0  0  0  0  0  0  0  0
   35.4520   30.7400   41.1600 O   0  0  0  0  0  0  0  0  0  0  0  0
   35.1030   29.9060   41.5390 H   0  0  0  0  0  0  0  0  0  0  0  0
   37.6760   32.2050   40.5380 O   0  0  0  0  0  0  0  0  0  0  0  0
   39.0530   32.2090   40.4620 C   0  0  0  0  0  0  0  0  0  0  0  0
   39.4460   31.3610   41.0290 H   0  0  0  0  0  0  0  0  0  0  0  0
   39.3910   33.1210   41.0380 H   0  0  0  0  0  0  0  0  0  0  0  0
   39.5940   32.2990   39.0900 C   0  0  0  0  0  0  0  0  0  0  0  0
   40.8490   32.7590   38.8770 N   0  0  0  0  0  0  0  0  0  0  0  0
   41.1250   32.7520   37.5530 C   0  0  0  0  0  0  0  0  0  0  0  0
   42.0930   33.0880   37.1620 H   0  0  0  0  0  0  0  0  0  0  0  0
   40.0120   32.2760   36.9390 N   0  0  0  0  0  0  0  0  0  0  0  0
   39.9480   32.1630   35.9040 H   0  0  0  0  0  0  0  0  0  0  0  0
   39.1230   32.0150   37.8670 N   0  0  0  0  0  0  0  0  0  0  0  0
  1  6  1  0  0  0  0
  1 16  1  0  0  0  0
  2  8  1  0  0  0  0
  2  1  1  0  0  0  0
  3  2  1  0  0  0  0
  3 10  1  0  0  0  0
  4  3  1  0  0  0  0
  4  5  1  0  0  0  0
  4 12  1  0  0  0  0
  5  6  1  0  0  0  0
  6 31  1  0  0  0  0
  6 15  1  1  0  0  0
  7  2  1  0  0  0  0
  9  3  1  0  0  0  0
 11  4  1  0  0  0  0
 13  5  1  0  0  0  0
 14  5  1  0  0  0  0
 16 18  1  0  0  0  0
 16 17  1  0  0  0  0
 19 16  1  0  0  0  0
 19 24  1  0  0  0  0
 20 19  1  0  0  0  0
 21 19  1  0  0  0  0
 22 27  1  0  0  0  0
 23 24  1  0  0  0  0
 23 22  2  0  0  0  0
 24 25  2  0  0  0  0
 25 26  1  0  0  0  0
 26 30  1  0  0  0  0
 27 26  2  0  0  0  0
 28 22  1  0  0  0  0
 29 23  1  0  0  0  0
 31 33  1  0  0  0  0
 33 34  1  0  0  0  0
 33 32  2  1  0  0  0
 34 35  1  0  0  0  0
 36 33  1  0  0  0  0
 37 36  1  0  0  0  0
 37 38  1  0  0  0  0
 37 39  1  0  0  0  0
 40 37  1  0  0  0  0
 41 40  1  0  0  0  0
 42 41  2  0  0  0  0
 43 42  1  0  0  0  0
 44 42  1  0  0  0  0
 44 46  1  0  0  0  0
 45 44  1  0  0  0  0
 46 40  2  0  0  0  0
M  END
>  <minimizedAffinity>
-5.20225239

$$$$

 OpenBabel03252509063D

 46 48  0  0  1  0  0  0  0  0999 V2000
   36.6900   25.8610   40.1370 N   0  0  0  0  0  0  0  0  0  0  0  0
   36.6860   24.5960   39.4980 C   0  0  0  0  0  0  0  0  0  0  0  0
   37.6370   23.5890   40.0890 C   0  0  0  0  0  0  0  0  0  0  0  0
   37.8350   23.7090   41.5820 C   0  0  0  0  0  0  0  0  0  0  0  0
   36.9430   24.7790   42.1690 C   0  0  0  0  0  0  0  0  0  0  0  0
   37.3330   26.0580   41.3440 C   0  0  2  0  0  0  0  0  0  0  0  0
   35.6630   24.1520   39.6610 H   0  0  0  0  0  0  0  0  0  0  0  0
   36.8330   24.5930   38.4170 H   0  0  0  0  0  0  0  0  0  0  0  0
   37.3180   22.5630   39.7950 H   0  0  0  0  0  0  0  0  0  0  0  0
   38.6200   23.7560   39.5830 H   0  0  0  0  0  0  0  0  0  0  0  0
   37.5590   22.7170   42.0400 H   0  0  0  0  0  0  0  0  0  0  0  0
   38.8700   23.9110   41.8530 H   0  0  0  0  0  0  0  0  0  0  0  0
   35.8790   24.5910   42.0020 H   0  0  0  0  0  0  0  0  0  0  0  0
   37.2420   24.9460   43.2180 H   0  0  0  0  0  0  0  0  0  0  0  0
   38.4410   26.0700   41.3600 H   0  0  0  0  0  0  0  0  0  0  0  0
   36.5670   26.9760   39.2330 C   0  0  0  0  0  0  0  0  0  0  0  0
   35.7510   26.8000   38.5100 H   0  0  0  0  0  0  0  0  0  0  0  0
   36.2500   27.8450   39.8770 H   0  0  0  0  0  0  0  0  0  0  0  0
   37.8890   27.2640   38.6280 C   0  0  0  0  0  0  0  0  0  0  0  0
   38.7160   27.0420   39.3160 H   0  0  0  0  0  0  0  0  0  0  0  0
   38.0940   26.6270   37.7210 H   0  0  0  0  0  0  0  0  0  0  0  0
   36.8480   30.6360   37.3430 C   0  0  0  0  0  0  0  0  0  0  0  0
   36.8060   29.2940   37.7620 C   0  0  0  0  0  0  0  0  0  0  0  0
   37.9480   28.6790   38.1900 C   0  0  0  0  0  0  0  0  0  0  0  0
   39.0760   29.4020   38.1900 N   0  0  0  0  0  0  0  0  0  0  0  0
   39.1200   30.6840   37.7910 C   0  0  0  0  0  0  0  0  0  0  0  0
   38.0160   31.3150   37.3650 N   0  0  0  0  0  0  0  0  0  0  0  0
   35.8680   31.0200   37.0220 H   0  0  0  0  0  0  0  0  0  0  0  0
   35.8800   28.7260   37.7540 H   0  0  0  0  0  0  0  0  0  0  0  0
   40.0350   31.2830   37.7860 H   0  0  0  0  0  0  0  0  0  0  0  0
   36.7430   27.0580   42.1000 O   0  0  0  0  0  0  0  0  0  0  0  0
   38.8400   27.4540   43.6800 O   0  0  0  0  0  0  0  0  0  0  0  0
   37.8680   28.1490   42.7300 P   0  0  2  0  0  0  0  0  0  0  0  0
   36.9910   29.2540   43.6800 O   0  0  0  0  0  0  0  0  0  0  0  0
   36.6470   28.8450   44.5020 H   0  0  0  0  0  0  0  0  0  0  0  0
   38.6690   28.9970   41.5350 O   0  0  0  0  0  0  0  0  0  0  0  0
   38.9920   30.2590   41.9880 C   0  0  0  0  0  0  0  0  0  0  0  0
   40.0800   30.3650   42.0110 H   0  0  0  0  0  0  0  0  0  0  0  0
   38.6780   30.2860   43.0730 H   0  0  0  0  0  0  0  0  0  0  0  0
   38.3100   31.3610   41.2780 C   0  0  0  0  0  0  0  0  0  0  0  0
   38.9760   32.5040   40.9880 N   0  0  0  0  0  0  0  0  0  0  0  0
   38.1570   33.3640   40.3400 C   0  0  0  0  0  0  0  0  0  0  0  0
   38.4990   34.3530   40.0130 H   0  0  0  0  0  0  0  0  0  0  0  0
   36.9610   32.7320   40.2290 N   0  0  0  0  0  0  0  0  0  0  0  0
   36.1360   33.1710   39.7650 H   0  0  0  0  0  0  0  0  0  0  0  0
   37.0770   31.5530   40.7900 N   0  0  0  0  0  0  0  0  0  0  0  0
  1  6  1  0  0  0  0
  2  7  1  0  0  0  0
  2  3  1  0  0  0  0
  2  1  1  0  0  0  0
  3  4  1  0  0  0  0
  4 12  1  0  0  0  0
  4 11  1  0  0  0  0
  4  5  1  0  0  0  0
  5 14  1  0  0  0  0
  6 15  1  6  0  0  0
  6 31  1  0  0  0  0
  6  5  1  0  0  0  0
  8  2  1  0  0  0  0
  9  3  1  0  0  0  0
 10  3  1  0  0  0  0
 13  5  1  0  0  0  0
 16 18  1  0  0  0  0
 16  1  1  0  0  0  0
 17 16  1  0  0  0  0
 19 16  1  0  0  0  0
 19 20  1  0  0  0  0
 21 19  1  0  0  0  0
 22 27  2  0  0  0  0
 22 23  1  0  0  0  0
 23 24  2  0  0  0  0
 24 19  1  0  0  0  0
 25 24  1  0  0  0  0
 26 25  2  0  0  0  0
 27 26  1  0  0  0  0
 28 22  1  0  0  0  0
 29 23  1  0  0  0  0
 30 26  1  0  0  0  0
 31 33  1  0  0  0  0
 33 34  1  0  0  0  0
 33 32  2  1  0  0  0
 34 35  1  0  0  0  0
 36 37  1  0  0  0  0
 36 33  1  0  0  0  0
 37 38  1  0  0  0  0
 37 39  1  0  0  0  0
 40 37  1  0  0  0  0
 41 40  1  0  0  0  0
 42 41  2  0  0  0  0
 43 42  1  0  0  0  0
 44 42  1  0  0  0  0
 44 46  1  0  0  0  0
 45 44  1  0  0  0  0
 46 40  2  0  0  0  0
M  END
>  <minimizedAffinity>
-5.19963217

$$$$

 OpenBabel03252509063D

 46 48  0  0  1  0  0  0  0  0999 V2000
   37.6750   25.9520   41.8830 N   0  0  0  0  0  0  0  0  0  0  0  0
   38.4320   24.8710   42.3960 C   0  0  0  0  0  0  0  0  0  0  0  0
   39.7550   25.2590   43.0040 C   0  0  0  0  0  0  0  0  0  0  0  0
   39.7650   26.6110   43.6800 C   0  0  0  0  0  0  0  0  0  0  0  0
   38.3890   27.2380   43.6700 C   0  0  0  0  0  0  0  0  0  0  0  0
   38.0210   27.2640   42.1430 C   0  0  2  0  0  0  0  0  0  0  0  0
   37.8420   24.4370   43.2520 H   0  0  0  0  0  0  0  0  0  0  0  0
   38.6150   24.0350   41.7180 H   0  0  0  0  0  0  0  0  0  0  0  0
   40.0980   24.4520   43.6890 H   0  0  0  0  0  0  0  0  0  0  0  0
   40.4910   25.2750   42.1620 H   0  0  0  0  0  0  0  0  0  0  0  0
   40.0830   26.4510   44.7490 H   0  0  0  0  0  0  0  0  0  0  0  0
   40.4800   27.3000   43.2310 H   0  0  0  0  0  0  0  0  0  0  0  0
   37.6370   26.6310   44.1810 H   0  0  0  0  0  0  0  0  0  0  0  0
   38.4810   28.2830   44.0170 H   0  0  0  0  0  0  0  0  0  0  0  0
   38.9190   27.6860   41.6500 H   0  0  0  0  0  0  0  0  0  0  0  0
   36.9850   25.6540   40.6520 C   0  0  0  0  0  0  0  0  0  0  0  0
   36.4710   24.6800   40.7240 H   0  0  0  0  0  0  0  0  0  0  0  0
   36.1830   26.4420   40.5660 H   0  0  0  0  0  0  0  0  0  0  0  0
   37.9310   25.7820   39.5190 C   0  0  0  0  0  0  0  0  0  0  0  0
   38.8960   26.2040   39.8290 H   0  0  0  0  0  0  0  0  0  0  0  0
   38.1890   24.7850   39.0600 H   0  0  0  0  0  0  0  0  0  0  0  0
   37.5430   27.8120   36.3820 C   0  0  0  0  0  0  0  0  0  0  0  0
   38.1040   27.0250   37.4040 C   0  0  0  0  0  0  0  0  0  0  0  0
   37.3260   26.6110   38.4470 C   0  0  0  0  0  0  0  0  0  0  0  0
   36.0390   26.9830   38.4450 N   0  0  0  0  0  0  0  0  0  0  0  0
   35.5000   27.7340   37.4700 C   0  0  0  0  0  0  0  0  0  0  0  0
   36.2370   28.1560   36.4330 N   0  0  0  0  0  0  0  0  0  0  0  0
   38.2660   28.0830   35.5980 H   0  0  0  0  0  0  0  0  0  0  0  0
   39.1500   26.7350   37.3870 H   0  0  0  0  0  0  0  0  0  0  0  0
   34.4510   28.0440   37.4580 H   0  0  0  0  0  0  0  0  0  0  0  0
   36.9240   28.1100   42.1450 O   0  0  0  0  0  0  0  0  0  0  0  0
   38.3390   30.3510   42.2850 O   0  0  0  0  0  0  0  0  0  0  0  0
   37.2660   29.6240   41.4800 P   0  0  2  0  0  0  0  0  0  0  0  0
   35.8500   30.5530   41.6360 O   0  0  0  0  0  0  0  0  0  0  0  0
   35.6670   30.7960   42.5680 H   0  0  0  0  0  0  0  0  0  0  0  0
   37.6630   29.5330   39.8600 O   0  0  0  0  0  0  0  0  0  0  0  0
   37.1370   30.6130   39.1840 C   0  0  0  0  0  0  0  0  0  0  0  0
   36.6990   31.3090   39.9050 H   0  0  0  0  0  0  0  0  0  0  0  0
   36.2570   30.2120   38.6000 H   0  0  0  0  0  0  0  0  0  0  0  0
   38.0690   31.2600   38.2370 C   0  0  0  0  0  0  0  0  0  0  0  0
   39.3640   31.4600   38.5810 N   0  0  0  0  0  0  0  0  0  0  0  0
   40.0230   32.0630   37.5640 C   0  0  0  0  0  0  0  0  0  0  0  0
   41.0870   32.3160   37.6360 H   0  0  0  0  0  0  0  0  0  0  0  0
   39.1110   32.2360   36.5750 N   0  0  0  0  0  0  0  0  0  0  0  0
   39.3510   32.6830   35.6630 H   0  0  0  0  0  0  0  0  0  0  0  0
   37.9660   31.7540   36.9950 N   0  0  0  0  0  0  0  0  0  0  0  0
  1  6  1  0  0  0  0
  1  2  1  0  0  0  0
  2  3  1  0  0  0  0
  2  7  1  0  0  0  0
  3  4  1  0  0  0  0
  3  9  1  0  0  0  0
  4 11  1  0  0  0  0
  5  4  1  0  0  0  0
  5 14  1  0  0  0  0
  5 13  1  0  0  0  0
  6 15  1  6  0  0  0
  6 31  1  0  0  0  0
  6  5  1  0  0  0  0
  8  2  1  0  0  0  0
 10  3  1  0  0  0  0
 12  4  1  0  0  0  0
 16 17  1  0  0  0  0
 16  1  1  0  0  0  0
 18 16  1  0  0  0  0
 19 20  1  0  0  0  0
 19 16  1  0  0  0  0
 21 19  1  0  0  0  0
 22 27  2  0  0  0  0
 22 23  1  0  0  0  0
 23 24  2  0  0  0  0
 24 19  1  0  0  0  0
 25 24  1  0  0  0  0
 26 25  2  0  0  0  0
 27 26  1  0  0  0  0
 28 22  1  0  0  0  0
 29 23  1  0  0  0  0
 30 26  1  0  0  0  0
 33 34  1  0  0  0  0
 33 31  1  0  0  0  0
 33 32  2  1  0  0  0
 34 35  1  0  0  0  0
 36 33  1  0  0  0  0
 37 36  1  0  0  0  0
 37 38  1  0  0  0  0
 39 37  1  0  0  0  0
 40 41  1  0  0  0  0
 40 37  1  0  0  0  0
 42 43  1  0  0  0  0
 42 41  2  0  0  0  0
 44 46  1  0  0  0  0
 44 42  1  0  0  0  0
 45 44  1  0  0  0  0
 46 40  2  0  0  0  0
M  END
>  <minimizedAffinity>
-5.0831809

$$$$

 OpenBabel03252509063D

 46 48  0  0  1  0  0  0  0  0999 V2000
   37.4530   30.3770   41.8020 N   0  0  0  0  0  0  0  0  0  0  0  0
   37.3880   29.1960   42.5810 C   0  0  0  0  0  0  0  0  0  0  0  0
   38.6550   28.3810   42.5990 C   0  0  0  0  0  0  0  0  0  0  0  0
   39.9270   29.1930   42.5160 C   0  0  0  0  0  0  0  0  0  0  0  0
   39.6320   30.6760   42.5260 C   0  0  0  0  0  0  0  0  0  0  0  0
   38.6530   30.8520   41.3090 C   0  0  2  0  0  0  0  0  0  0  0  0
   37.2410   29.5190   43.6510 H   0  0  0  0  0  0  0  0  0  0  0  0
   36.5620   28.5140   42.3690 H   0  0  0  0  0  0  0  0  0  0  0  0
   38.6500   27.7100   43.4870 H   0  0  0  0  0  0  0  0  0  0  0  0
   38.6030   27.7060   41.7090 H   0  0  0  0  0  0  0  0  0  0  0  0
   40.5480   28.9410   43.4220 H   0  0  0  0  0  0  0  0  0  0  0  0
   40.5250   28.9490   41.6390 H   0  0  0  0  0  0  0  0  0  0  0  0
   39.1030   31.0020   43.4250 H   0  0  0  0  0  0  0  0  0  0  0  0
   40.5660   31.2180   42.2940 H   0  0  0  0  0  0  0  0  0  0  0  0
   39.1430   30.3030   40.4800 H   0  0  0  0  0  0  0  0  0  0  0  0
   36.2470   30.6640   41.0670 C   0  0  0  0  0  0  0  0  0  0  0  0
   35.5020   31.1510   41.7220 H   0  0  0  0  0  0  0  0  0  0  0  0
   36.5480   31.4250   40.2920 H   0  0  0  0  0  0  0  0  0  0  0  0
   35.7780   29.4290   40.3960 C   0  0  0  0  0  0  0  0  0  0  0  0
   35.9660   28.5310   41.0000 H   0  0  0  0  0  0  0  0  0  0  0  0
   34.6640   29.4290   40.2230 H   0  0  0  0  0  0  0  0  0  0  0  0
   37.7050   28.0120   37.4990 C   0  0  0  0  0  0  0  0  0  0  0  0
   37.0870   28.1470   38.7560 C   0  0  0  0  0  0  0  0  0  0  0  0
   36.4250   29.3000   39.0670 C   0  0  0  0  0  0  0  0  0  0  0  0
   36.3960   30.2660   38.1390 N   0  0  0  0  0  0  0  0  0  0  0  0
   36.9840   30.1400   36.9380 C   0  0  0  0  0  0  0  0  0  0  0  0
   37.6420   29.0210   36.6030 N   0  0  0  0  0  0  0  0  0  0  0  0
   38.2050   27.0410   37.3650 H   0  0  0  0  0  0  0  0  0  0  0  0
   37.1230   27.3510   39.4930 H   0  0  0  0  0  0  0  0  0  0  0  0
   36.9670   30.9220   36.1730 H   0  0  0  0  0  0  0  0  0  0  0  0
   38.6560   32.2290   41.1580 O   0  0  0  0  0  0  0  0  0  0  0  0
   39.9030   33.9980   39.6220 O   0  0  0  0  0  0  0  0  0  0  0  0
   39.0810   32.7130   39.5970 P   0  0  2  0  0  0  0  0  0  0  0  0
   37.6290   33.0970   38.7970 O   0  0  0  0  0  0  0  0  0  0  0  0
   37.2230   33.9200   39.1430 H   0  0  0  0  0  0  0  0  0  0  0  0
   39.8500   31.5010   38.7420 O   0  0  0  0  0  0  0  0  0  0  0  0
   40.1530   31.9400   37.4700 C   0  0  0  0  0  0  0  0  0  0  0  0
   39.6370   32.8860   37.2850 H   0  0  0  0  0  0  0  0  0  0  0  0
   39.6650   31.2030   36.7660 H   0  0  0  0  0  0  0  0  0  0  0  0
   41.5980   31.9910   37.1650 C   0  0  0  0  0  0  0  0  0  0  0  0
   42.2410   30.8880   36.7130 N   0  0  0  0  0  0  0  0  0  0  0  0
   43.5480   31.1700   36.5040 C   0  0  0  0  0  0  0  0  0  0  0  0
   44.2500   30.4120   36.1350 H   0  0  0  0  0  0  0  0  0  0  0  0
   43.7090   32.4760   36.8350 N   0  0  0  0  0  0  0  0  0  0  0  0
   44.6300   32.9620   36.7680 H   0  0  0  0  0  0  0  0  0  0  0  0
   42.5450   32.9380   37.2220 N   0  0  0  0  0  0  0  0  0  0  0  0
  1  2  1  0  0  0  0
  2  3  1  0  0  0  0
  2  7  1  0  0  0  0
  3  9  1  0  0  0  0
  4  5  1  0  0  0  0
  4  3  1  0  0  0  0
  4 11  1  0  0  0  0
  5 13  1  0  0  0  0
  6 15  1  6  0  0  0
  6  1  1  0  0  0  0
  6  5  1  0  0  0  0
  8  2  1  0  0  0  0
 10  3  1  0  0  0  0
 12  4  1  0  0  0  0
 14  5  1  0  0  0  0
 16 17  1  0  0  0  0
 16  1  1  0  0  0  0
 18 16  1  0  0  0  0
 19 20  1  0  0  0  0
 19 16  1  0  0  0  0
 21 19  1  0  0  0  0
 22 23  1  0  0  0  0
 23 24  2  0  0  0  0
 23 29  1  0  0  0  0
 24 19  1  0  0  0  0
 25 24  1  0  0  0  0
 26 25  2  0  0  0  0
 27 26  1  0  0  0  0
 27 22  2  0  0  0  0
 28 22  1  0  0  0  0
 30 26  1  0  0  0  0
 31  6  1  0  0  0  0
 33 32  2  1  0  0  0
 33 31  1  0  0  0  0
 34 35  1  0  0  0  0
 34 33  1  0  0  0  0
 36 33  1  0  0  0  0
 37 36  1  0  0  0  0
 38 37  1  0  0  0  0
 39 37  1  0  0  0  0
 40 46  2  0  0  0  0
 40 37  1  0  0  0  0
 41 40  1  0  0  0  0
 42 41  2  0  0  0  0
 42 44  1  0  0  0  0
 43 42  1  0  0  0  0
 44 46  1  0  0  0  0
 45 44  1  0  0  0  0
M  END
>  <minimizedAffinity>
-5.03817177

$$$$

 OpenBabel03252509063D

 46 48  0  0  1  0  0  0  0  0999 V2000
   37.1330   29.0290   41.8640 N   0  0  0  0  0  0  0  0  0  0  0  0
   36.5390   27.7550   42.0380 C   0  0  0  0  0  0  0  0  0  0  0  0
   37.5150   26.6110   42.1270 C   0  0  0  0  0  0  0  0  0  0  0  0
   38.8320   26.9560   42.7850 C   0  0  0  0  0  0  0  0  0  0  0  0
   38.8320   28.3790   43.2960 C   0  0  0  0  0  0  0  0  0  0  0  0
   38.4940   29.2180   42.0120 C   0  0  2  0  0  0  0  0  0  0  0  0
   36.0250   27.7690   43.0400 H   0  0  0  0  0  0  0  0  0  0  0  0
   35.7670   27.4730   41.3200 H   0  0  0  0  0  0  0  0  0  0  0  0
   37.0220   25.7430   42.6180 H   0  0  0  0  0  0  0  0  0  0  0  0
   37.7150   26.2900   41.0750 H   0  0  0  0  0  0  0  0  0  0  0  0
   38.9650   26.2570   43.6580 H   0  0  0  0  0  0  0  0  0  0  0  0
   39.6830   26.8090   42.1220 H   0  0  0  0  0  0  0  0  0  0  0  0
   38.0480   28.5710   44.0320 H   0  0  0  0  0  0  0  0  0  0  0  0
   39.8590   28.6350   43.6110 H   0  0  0  0  0  0  0  0  0  0  0  0
   39.1740   28.8180   41.2330 H   0  0  0  0  0  0  0  0  0  0  0  0
   36.4120   29.8960   40.9660 C   0  0  0  0  0  0  0  0  0  0  0  0
   35.3300   29.6840   41.0100 H   0  0  0  0  0  0  0  0  0  0  0  0
   36.5590   30.9350   41.3780 H   0  0  0  0  0  0  0  0  0  0  0  0
   37.0140   29.8090   39.6150 C   0  0  0  0  0  0  0  0  0  0  0  0
   37.5240   30.7390   39.3270 H   0  0  0  0  0  0  0  0  0  0  0  0
   37.8110   29.0150   39.5500 H   0  0  0  0  0  0  0  0  0  0  0  0
   33.7180   28.8120   38.1150 C   0  0  0  0  0  0  0  0  0  0  0  0
   34.7160   29.1420   39.0500 C   0  0  0  0  0  0  0  0  0  0  0  0
   35.9710   29.4630   38.6180 C   0  0  0  0  0  0  0  0  0  0  0  0
   36.1940   29.4480   37.2970 N   0  0  0  0  0  0  0  0  0  0  0  0
   35.2430   29.1330   36.4020 C   0  0  0  0  0  0  0  0  0  0  0  0
   34.0020   28.8130   36.7940 N   0  0  0  0  0  0  0  0  0  0  0  0
   32.7500   28.5730   38.5820 H   0  0  0  0  0  0  0  0  0  0  0  0
   34.5130   29.1490   40.1170 H   0  0  0  0  0  0  0  0  0  0  0  0
   35.4140   29.1170   35.3210 H   0  0  0  0  0  0  0  0  0  0  0  0
   38.8080   30.4990   42.4370 O   0  0  0  0  0  0  0  0  0  0  0  0
   40.9730   29.9890   40.9880 O   0  0  0  0  0  0  0  0  0  0  0  0
   40.2260   31.0900   41.7350 P   0  0  2  0  0  0  0  0  0  0  0  0
   41.2390   31.5620   43.0160 O   0  0  0  0  0  0  0  0  0  0  0  0
   41.5860   30.7940   43.5170 H   0  0  0  0  0  0  0  0  0  0  0  0
   39.9480   32.4200   40.7630 O   0  0  0  0  0  0  0  0  0  0  0  0
   39.7840   32.0210   39.4530 C   0  0  0  0  0  0  0  0  0  0  0  0
   38.7360   32.1490   39.1680 H   0  0  0  0  0  0  0  0  0  0  0  0
   39.9490   30.9040   39.4490 H   0  0  0  0  0  0  0  0  0  0  0  0
   40.7300   32.6370   38.5000 C   0  0  0  0  0  0  0  0  0  0  0  0
   41.3710   33.7870   38.8180 N   0  0  0  0  0  0  0  0  0  0  0  0
   42.1800   34.1600   37.7990 C   0  0  0  0  0  0  0  0  0  0  0  0
   42.7940   35.0680   37.8520 H   0  0  0  0  0  0  0  0  0  0  0  0
   42.0320   33.2160   36.8360 N   0  0  0  0  0  0  0  0  0  0  0  0
   42.5470   33.2560   35.9290 H   0  0  0  0  0  0  0  0  0  0  0  0
   41.1720   32.3290   37.2720 N   0  0  0  0  0  0  0  0  0  0  0  0
  1  6  1  0  0  0  0
  1  2  1  0  0  0  0
  2  3  1  0  0  0  0
  2  7  1  0  0  0  0
  3  9  1  0  0  0  0
  3  4  1  0  0  0  0
  4  5  1  0  0  0  0
  4 11  1  0  0  0  0
  5 14  1  0  0  0  0
  5 13  1  0  0  0  0
  6 15  1  6  0  0  0
  6 31  1  0  0  0  0
  6  5  1  0  0  0  0
  8  2  1  0  0  0  0
 10  3  1  0  0  0  0
 12  4  1  0  0  0  0
 16 17  1  0  0  0  0
 16 18  1  0  0  0  0
 16  1  1  0  0  0  0
 19 16  1  0  0  0  0
 20 19  1  0  0  0  0
 21 19  1  0  0  0  0
 22 28  1  0  0  0  0
 22 23  1  0  0  0  0
 23 29  1  0  0  0  0
 24 23  2  0  0  0  0
 24 19  1  0  0  0  0
 25 24  1  0  0  0  0
 26 27  1  0  0  0  0
 26 25  2  0  0  0  0
 27 22  2  0  0  0  0
 30 26  1  0  0  0  0
 33 32  2  6  0  0  0
 33 31  1  0  0  0  0
 33 34  1  0  0  0  0
 34 35  1  0  0  0  0
 36 33  1  0  0  0  0
 37 36  1  0  0  0  0
 38 37  1  0  0  0  0
 39 37  1  0  0  0  0
 40 41  1  0  0  0  0
 40 37  1  0  0  0  0
 42 43  1  0  0  0  0
 42 41  2  0  0  0  0
 44 46  1  0  0  0  0
 44 42  1  0  0  0  0
 45 44  1  0  0  0  0
 46 40  2  0  0  0  0
M  END
>  <minimizedAffinity>
-5.02011681

$$$$

 OpenBabel03252509063D

 46 48  0  0  1  0  0  0  0  0999 V2000
   38.0530   26.0070   42.7500 N   0  0  0  0  0  0  0  0  0  0  0  0
   36.9100   25.3440   42.2370 C   0  0  0  0  0  0  0  0  0  0  0  0
   37.1880   24.4050   41.0930 C   0  0  0  0  0  0  0  0  0  0  0  0
   38.5300   23.7130   41.1560 C   0  0  0  0  0  0  0  0  0  0  0  0
   39.2660   24.0610   42.4300 C   0  0  0  0  0  0  0  0  0  0  0  0
   39.3310   25.6300   42.3860 C   0  0  2  0  0  0  0  0  0  0  0  0
   36.5200   24.6820   43.0610 H   0  0  0  0  0  0  0  0  0  0  0  0
   36.0670   25.9740   41.9480 H   0  0  0  0  0  0  0  0  0  0  0  0
   36.3510   23.6760   41.0020 H   0  0  0  0  0  0  0  0  0  0  0  0
   37.1500   25.0260   40.1640 H   0  0  0  0  0  0  0  0  0  0  0  0
   38.3380   22.6030   41.1410 H   0  0  0  0  0  0  0  0  0  0  0  0
   39.1610   23.9420   40.2990 H   0  0  0  0  0  0  0  0  0  0  0  0
   38.7180   23.7790   43.3330 H   0  0  0  0  0  0  0  0  0  0  0  0
   40.2970   23.6740   42.3540 H   0  0  0  0  0  0  0  0  0  0  0  0
   39.6820   25.8630   41.3600 H   0  0  0  0  0  0  0  0  0  0  0  0
   37.8190   27.3820   43.1160 C   0  0  0  0  0  0  0  0  0  0  0  0
   37.6800   27.4720   44.2080 H   0  0  0  0  0  0  0  0  0  0  0  0
   38.7760   27.9210   42.8630 H   0  0  0  0  0  0  0  0  0  0  0  0
   36.7110   27.9240   42.2950 C   0  0  0  0  0  0  0  0  0  0  0  0
   36.4130   27.2360   41.4930 H   0  0  0  0  0  0  0  0  0  0  0  0
   35.7710   28.0860   42.8960 H   0  0  0  0  0  0  0  0  0  0  0  0
   36.5220   31.2260   40.5150 C   0  0  0  0  0  0  0  0  0  0  0  0
   36.1670   29.9780   41.0560 C   0  0  0  0  0  0  0  0  0  0  0  0
   37.0980   29.2400   41.7300 C   0  0  0  0  0  0  0  0  0  0  0  0
   38.3310   29.7540   41.8430 N   0  0  0  0  0  0  0  0  0  0  0  0
   38.6720   30.9460   41.3270 C   0  0  0  0  0  0  0  0  0  0  0  0
   37.7810   31.6940   40.6610 N   0  0  0  0  0  0  0  0  0  0  0  0
   35.6890   31.7260   39.9980 H   0  0  0  0  0  0  0  0  0  0  0  0
   35.1620   29.5800   40.9540 H   0  0  0  0  0  0  0  0  0  0  0  0
   39.6750   31.3750   41.4120 H   0  0  0  0  0  0  0  0  0  0  0  0
   40.2620   25.8900   43.3780 O   0  0  0  0  0  0  0  0  0  0  0  0
   41.8660   25.8360   41.2640 O   0  0  0  0  0  0  0  0  0  0  0  0
   41.8300   26.0580   42.7720 P   0  0  2  0  0  0  0  0  0  0  0  0
   42.7500   24.8010   43.4560 O   0  0  0  0  0  0  0  0  0  0  0  0
   42.5040   23.9230   43.0950 H   0  0  0  0  0  0  0  0  0  0  0  0
   42.5250   27.5150   43.2020 O   0  0  0  0  0  0  0  0  0  0  0  0
   41.6740   28.5540   42.8890 C   0  0  0  0  0  0  0  0  0  0  0  0
   40.7170   28.3990   43.3960 H   0  0  0  0  0  0  0  0  0  0  0  0
   41.4390   28.4390   41.7900 H   0  0  0  0  0  0  0  0  0  0  0  0
   42.2410   29.9010   43.1060 C   0  0  0  0  0  0  0  0  0  0  0  0
   43.5110   30.0440   43.5560 N   0  0  0  0  0  0  0  0  0  0  0  0
   43.8100   31.3580   43.6790 C   0  0  0  0  0  0  0  0  0  0  0  0
   44.7930   31.6960   44.0300 H   0  0  0  0  0  0  0  0  0  0  0  0
   42.6990   32.0350   43.2950 N   0  0  0  0  0  0  0  0  0  0  0  0
   42.6510   33.0780   43.2920 H   0  0  0  0  0  0  0  0  0  0  0  0
   41.7870   31.1540   42.9620 N   0  0  0  0  0  0  0  0  0  0  0  0
  1 16  1  0  0  0  0
  2  1  1  0  0  0  0
  2  7  1  0  0  0  0
  3  4  1  0  0  0  0
  3  2  1  0  0  0  0
  4  5  1  0  0  0  0
  5 13  1  0  0  0  0
  6 15  1  6  0  0  0
  6  5  1  0  0  0  0
  6  1  1  0  0  0  0
  6 31  1  0  0  0  0
  8  2  1  0  0  0  0
  9  3  1  0  0  0  0
 10  3  1  0  0  0  0
 11  4  1  0  0  0  0
 12  4  1  0  0  0  0
 14  5  1  0  0  0  0
 16 17  1  0  0  0  0
 18 16  1  0  0  0  0
 19 21  1  0  0  0  0
 19 16  1  0  0  0  0
 20 19  1  0  0  0  0
 22 27  2  0  0  0  0
 22 23  1  0  0  0  0
 23 24  2  0  0  0  0
 24 25  1  0  0  0  0
 24 19  1  0  0  0  0
 26 30  1  0  0  0  0
 26 25  2  0  0  0  0
 27 26  1  0  0  0  0
 28 22  1  0  0  0  0
 29 23  1  0  0  0  0
 33 32  2  6  0  0  0
 33 36  1  0  0  0  0
 33 31  1  0  0  0  0
 33 34  1  0  0  0  0
 35 34  1  0  0  0  0
 37 40  1  0  0  0  0
 37 36  1  0  0  0  0
 37 38  1  0  0  0  0
 39 37  1  0  0  0  0
 40 41  1  0  0  0  0
 41 42  2  0  0  0  0
 42 43  1  0  0  0  0
 44 42  1  0  0  0  0
 45 44  1  0  0  0  0
 46 40  2  0  0  0  0
 46 44  1  0  0  0  0
M  END
>  <minimizedAffinity>
-4.98739052

$$$$

 OpenBabel03252509063D

 46 48  0  0  1  0  0  0  0  0999 V2000
   37.2540   28.8090   41.9340 N   0  0  0  0  0  0  0  0  0  0  0  0
   36.5080   27.6260   42.1540 C   0  0  0  0  0  0  0  0  0  0  0  0
   37.3380   26.4000   42.4370 C   0  0  0  0  0  0  0  0  0  0  0  0
   38.6200   26.6680   43.1920 C   0  0  0  0  0  0  0  0  0  0  0  0
   38.7340   28.1260   43.5780 C   0  0  0  0  0  0  0  0  0  0  0  0
   38.6090   28.8690   42.2000 C   0  0  2  0  0  0  0  0  0  0  0  0
   35.9100   27.7880   43.0960 H   0  0  0  0  0  0  0  0  0  0  0  0
   35.7760   27.3580   41.3900 H   0  0  0  0  0  0  0  0  0  0  0  0
   36.7080   25.6380   42.9490 H   0  0  0  0  0  0  0  0  0  0  0  0
   37.5940   25.9620   41.4420 H   0  0  0  0  0  0  0  0  0  0  0  0
   38.5950   26.0460   44.1310 H   0  0  0  0  0  0  0  0  0  0  0  0
   39.5060   26.3710   42.6320 H   0  0  0  0  0  0  0  0  0  0  0  0
   37.9130   28.4670   44.2130 H   0  0  0  0  0  0  0  0  0  0  0  0
   39.7510   28.3030   43.9700 H   0  0  0  0  0  0  0  0  0  0  0  0
   39.3070   28.3290   41.5300 H   0  0  0  0  0  0  0  0  0  0  0  0
   36.7190   29.6570   40.8980 C   0  0  0  0  0  0  0  0  0  0  0  0
   35.6180   29.7090   40.9720 H   0  0  0  0  0  0  0  0  0  0  0  0
   37.1120   30.6880   41.1280 H   0  0  0  0  0  0  0  0  0  0  0  0
   37.2390   29.2100   39.5840 C   0  0  0  0  0  0  0  0  0  0  0  0
   38.0240   29.8750   39.2000 H   0  0  0  0  0  0  0  0  0  0  0  0
   37.7250   28.1950   39.6370 H   0  0  0  0  0  0  0  0  0  0  0  0
   33.7860   28.8520   38.1490 C   0  0  0  0  0  0  0  0  0  0  0  0
   34.8490   28.9490   39.0650 C   0  0  0  0  0  0  0  0  0  0  0  0
   36.1260   29.1100   38.6080 C   0  0  0  0  0  0  0  0  0  0  0  0
   36.3060   29.1690   37.2810 N   0  0  0  0  0  0  0  0  0  0  0  0
   35.2920   29.0770   36.4050 C   0  0  0  0  0  0  0  0  0  0  0  0
   34.0280   28.9190   36.8210 N   0  0  0  0  0  0  0  0  0  0  0  0
   32.8060   28.7260   38.6360 H   0  0  0  0  0  0  0  0  0  0  0  0
   34.6820   28.8990   40.1360 H   0  0  0  0  0  0  0  0  0  0  0  0
   35.4270   29.1230   35.3190 H   0  0  0  0  0  0  0  0  0  0  0  0
   39.0250   30.1450   42.5430 O   0  0  0  0  0  0  0  0  0  0  0  0
   41.4560   29.2470   41.9720 O   0  0  0  0  0  0  0  0  0  0  0  0
   40.5800   30.4960   41.9870 P   0  0  2  0  0  0  0  0  0  0  0  0
   41.2770   31.5480   43.1290 O   0  0  0  0  0  0  0  0  0  0  0  0
   41.4790   31.0940   43.9740 H   0  0  0  0  0  0  0  0  0  0  0  0
   40.5670   31.2620   40.5030 O   0  0  0  0  0  0  0  0  0  0  0  0
   40.3140   32.6080   40.6680 C   0  0  0  0  0  0  0  0  0  0  0  0
   41.1680   33.1810   40.2960 H   0  0  0  0  0  0  0  0  0  0  0  0
   40.3120   32.7850   41.7840 H   0  0  0  0  0  0  0  0  0  0  0  0
   39.0190   33.0620   40.1210 C   0  0  0  0  0  0  0  0  0  0  0  0
   38.3800   32.3290   39.1780 N   0  0  0  0  0  0  0  0  0  0  0  0
   37.2220   32.9360   38.8300 C   0  0  0  0  0  0  0  0  0  0  0  0
   36.5480   32.5070   38.0780 H   0  0  0  0  0  0  0  0  0  0  0  0
   37.1490   34.0660   39.5770 N   0  0  0  0  0  0  0  0  0  0  0  0
   36.3480   34.7320   39.5100 H   0  0  0  0  0  0  0  0  0  0  0  0
   38.2210   34.1180   40.3310 N   0  0  0  0  0  0  0  0  0  0  0  0
  1  2  1  0  0  0  0
  1  6  1  0  0  0  0
  2  3  1  0  0  0  0
  2  7  1  0  0  0  0
  3  9  1  0  0  0  0
  3  4  1  0  0  0  0
  4  5  1  0  0  0  0
  4 11  1  0  0  0  0
  5 14  1  0  0  0  0
  5 13  1  0  0  0  0
  6 15  1  6  0  0  0
  6 31  1  0  0  0  0
  6  5  1  0  0  0  0
  8  2  1  0  0  0  0
 10  3  1  0  0  0  0
 12  4  1  0  0  0  0
 16 17  1  0  0  0  0
 16 18  1  0  0  0  0
 16  1  1  0  0  0  0
 19 21  1  0  0  0  0
 19 16  1  0  0  0  0
 20 19  1  0  0  0  0
 22 28  1  0  0  0  0
 22 23  1  0  0  0  0
 23 29  1  0  0  0  0
 24 23  2  0  0  0  0
 24 19  1  0  0  0  0
 25 24  1  0  0  0  0
 26 27  1  0  0  0  0
 26 25  2  0  0  0  0
 27 22  2  0  0  0  0
 30 26  1  0  0  0  0
 33 32  2  6  0  0  0
 33 31  1  0  0  0  0
 33 34  1  0  0  0  0
 34 35  1  0  0  0  0
 36 37  1  0  0  0  0
 36 33  1  0  0  0  0
 37 39  1  0  0  0  0
 38 37  1  0  0  0  0
 40 46  2  0  0  0  0
 40 37  1  0  0  0  0
 41 40  1  0  0  0  0
 42 41  2  0  0  0  0
 42 44  1  0  0  0  0
 43 42  1  0  0  0  0
 44 46  1  0  0  0  0
 45 44  1  0  0  0  0
M  END
>  <minimizedAffinity>
-4.963346

$$$$
