
 OpenBabel03252508073D

 42 45  0  0  0  0  0  0  0  0999 V2000
   45.2740   35.9220   42.8570 C   0  0  0  0  0  0  0  0  0  0  0  0
   45.5190   34.5580   42.8790 C   0  0  0  0  0  0  0  0  0  0  0  0
   45.3010   33.8370   44.0280 C   0  0  0  0  0  0  0  0  0  0  0  0
   44.8340   34.5370   45.1230 N   0  0  0  0  0  0  0  0  0  0  0  0
   44.6000   35.8480   45.0960 C   0  0  0  0  0  0  0  0  0  0  0  0
   44.8260   36.5280   43.9520 N   0  0  0  0  0  0  0  0  0  0  0  0
   45.4340   36.5320   41.9670 H   0  0  0  0  0  0  0  0  0  0  0  0
   44.2380   36.3760   45.9540 H   0  0  0  0  0  0  0  0  0  0  0  0
   45.5010   32.4510   44.2140 C   0  0  0  0  0  0  0  0  0  0  0  0
   45.0400   31.4680   43.3330 C   0  0  0  0  0  0  0  0  0  0  0  0
   45.1770   30.1190   43.5430 C   0  0  0  0  0  0  0  0  0  0  0  0
   45.8040   29.6660   44.6830 C   0  0  0  0  0  0  0  0  0  0  0  0
   46.2840   30.6540   45.5940 C   0  0  0  0  0  0  0  0  0  0  0  0
   46.9060   30.2120   46.7300 C   0  0  0  0  0  0  0  0  0  0  0  0
   47.3960   31.1120   47.6540 C   0  0  0  0  0  0  0  0  0  0  0  0
   47.2500   32.4880   47.4160 C   0  0  0  0  0  0  0  0  0  0  0  0
   46.6030   32.8900   46.2340 C   0  0  0  0  0  0  0  0  0  0  0  0
   46.1240   31.9740   45.3380 C   0  0  0  0  0  0  0  0  0  0  0  0
   44.5450   31.7950   42.4290 H   0  0  0  0  0  0  0  0  0  0  0  0
   44.8070   29.3910   42.8370 H   0  0  0  0  0  0  0  0  0  0  0  0
   45.9400   28.6190   44.9050 H   0  0  0  0  0  0  0  0  0  0  0  0
   47.0240   29.1560   46.9220 H   0  0  0  0  0  0  0  0  0  0  0  0
   47.8800   30.7120   48.5380 H   0  0  0  0  0  0  0  0  0  0  0  0
   47.6630   33.1010   48.1880 H   0  0  0  0  0  0  0  0  0  0  0  0
   46.6120   33.9590   46.2270 H   0  0  0  0  0  0  0  0  0  0  0  0
   45.9760   33.9860   41.7230 O   0  0  0  0  0  0  0  0  0  0  0  0
   47.9720   32.3770   41.1890 O   0  0  0  0  0  0  0  0  0  0  0  0
   47.6090   33.8140   41.3150 P   0  0  1  0  0  0  0  0  0  0  0  0
   47.9380   34.5380   39.8190 O   0  0  0  0  0  0  0  0  0  0  0  0
   47.5820   33.8450   38.6690 C   0  0  0  0  0  0  0  0  0  0  0  0
   48.3990   33.7070   37.5930 N   0  0  0  0  0  0  0  0  0  0  0  0
   47.7770   32.9870   36.6400 C   0  0  0  0  0  0  0  0  0  0  0  0
   48.1560   32.7010   35.6640 H   0  0  0  0  0  0  0  0  0  0  0  0
   46.5590   32.6680   37.1190 N   0  0  0  0  0  0  0  0  0  0  0  0
   45.7980   32.1050   36.6360 H   0  0  0  0  0  0  0  0  0  0  0  0
   46.4610   33.1880   38.3290 N   0  0  0  0  0  0  0  0  0  0  0  0
   48.5310   34.5730   42.4950 O   0  0  0  0  0  0  0  0  0  0  0  0
   49.7300   35.2390   42.3080 C   0  0  0  0  0  0  0  0  0  0  0  0
   49.4100   36.3480   41.8430 O   0  0  0  0  0  0  0  0  0  0  0  0
   50.8450   34.4170   42.7140 N   0  0  0  0  0  0  0  0  0  0  0  0
   50.9120   34.1730   43.7380 H   0  0  0  0  0  0  0  0  0  0  0  0
   51.6150   34.0160   42.1330 H   0  0  0  0  0  0  0  0  0  0  0  0
  1  2  2  0  0  0  0
  1  6  1  0  0  0  0
  2  3  1  0  0  0  0
  3  9  1  0  0  0  0
  3  4  2  0  0  0  0
  5  4  1  0  0  0  0
  5  8  1  0  0  0  0
  6  5  2  0  0  0  0
  7  1  1  0  0  0  0
  9 18  1  0  0  0  0
 10 11  1  0  0  0  0
 10  9  2  0  0  0  0
 11 12  2  0  0  0  0
 12 21  1  0  0  0  0
 12 13  1  0  0  0  0
 13 14  1  0  0  0  0
 14 22  1  0  0  0  0
 14 15  2  0  0  0  0
 15 23  1  0  0  0  0
 16 15  1  0  0  0  0
 16 24  1  0  0  0  0
 17 16  2  0  0  0  0
 18 13  2  0  0  0  0
 18 17  1  0  0  0  0
 19 10  1  0  0  0  0
 20 11  1  0  0  0  0
 25 17  1  0  0  0  0
 26  2  1  0  0  0  0
 28 27  2  6  0  0  0
 28 26  1  0  0  0  0
 28 37  1  0  0  0  0
 29 28  1  0  0  0  0
 30 29  1  0  0  0  0
 31 30  1  0  0  0  0
 32 34  1  0  0  0  0
 32 31  2  0  0  0  0
 33 32  1  0  0  0  0
 34 36  1  0  0  0  0
 35 34  1  0  0  0  0
 36 30  2  0  0  0  0
 38 37  1  0  0  0  0
 38 40  1  0  0  0  0
 39 38  2  0  0  0  0
 40 41  1  0  0  0  0
 42 40  1  0  0  0  0
M  END
>  <minimizedAffinity>
-5.99423027

>  <minimizedRMSD>
0.818083823

$$$$
