
 OpenBabel03252508383D

 39 42  0  0  0  0  0  0  0  0999 V2000
   45.1710   33.9830   40.7370 C   0  0  0  0  0  0  0  0  0  0  0  0
   44.1140   33.6740   39.9270 C   0  0  0  0  0  0  0  0  0  0  0  0
   44.3950   33.1720   38.6940 C   0  0  0  0  0  0  0  0  0  0  0  0
   45.6730   32.9610   38.2230 C   0  0  0  0  0  0  0  0  0  0  0  0
   46.7120   33.2810   39.0600 C   0  0  0  0  0  0  0  0  0  0  0  0
   46.4790   33.7930   40.3170 C   0  0  0  0  0  0  0  0  0  0  0  0
   43.5630   32.9230   38.0440 H   0  0  0  0  0  0  0  0  0  0  0  0
   45.8810   32.5570   37.2290 H   0  0  0  0  0  0  0  0  0  0  0  0
   47.7140   33.1150   38.6870 H   0  0  0  0  0  0  0  0  0  0  0  0
   40.9310   35.3840   41.0310 C   0  0  0  0  0  0  0  0  0  0  0  0
   42.2220   35.1940   40.5090 C   0  0  0  0  0  0  0  0  0  0  0  0
   42.7870   33.9090   40.4570 C   0  0  0  0  0  0  0  0  0  0  0  0
   41.9940   32.9200   40.9410 N   0  0  0  0  0  0  0  0  0  0  0  0
   40.7700   33.1140   41.4340 C   0  0  0  0  0  0  0  0  0  0  0  0
   40.2430   34.3480   41.4760 N   0  0  0  0  0  0  0  0  0  0  0  0
   40.4150   36.6920   41.0570 N   0  0  0  0  0  0  0  0  0  0  0  0
   42.8540   35.9860   40.1230 H   0  0  0  0  0  0  0  0  0  0  0  0
   40.2730   32.2140   41.7780 H   0  0  0  0  0  0  0  0  0  0  0  0
   40.9870   37.3050   41.6770 H   0  0  0  0  0  0  0  0  0  0  0  0
   39.5620   36.9990   40.5160 H   0  0  0  0  0  0  0  0  0  0  0  0
   47.6570   34.1010   41.1300 C   0  0  0  0  0  0  0  0  0  0  0  0
   48.1710   35.3590   40.9710 C   0  0  0  0  0  0  0  0  0  0  0  0
   49.2880   35.8190   41.6650 C   0  0  0  0  0  0  0  0  0  0  0  0
   49.8920   34.9420   42.5570 C   0  0  0  0  0  0  0  0  0  0  0  0
   49.3880   33.6770   42.7280 C   0  0  0  0  0  0  0  0  0  0  0  0
   48.2770   33.2470   42.0240 C   0  0  0  0  0  0  0  0  0  0  0  0
   47.7610   36.1010   40.2990 H   0  0  0  0  0  0  0  0  0  0  0  0
   49.6950   36.7950   41.5480 H   0  0  0  0  0  0  0  0  0  0  0  0
   50.7640   35.2100   43.1410 H   0  0  0  0  0  0  0  0  0  0  0  0
   49.8170   32.9520   43.4080 H   0  0  0  0  0  0  0  0  0  0  0  0
   47.6850   31.9090   42.1570 C   0  0  0  0  0  0  0  0  0  0  0  0
   46.7070   31.4850   42.9900 N   0  0  0  0  0  0  0  0  0  0  0  0
   46.4910   30.1640   42.7520 C   0  0  0  0  0  0  0  0  0  0  0  0
   45.7070   29.7770   43.4030 H   0  0  0  0  0  0  0  0  0  0  0  0
   47.3470   29.8100   41.7750 N   0  0  0  0  0  0  0  0  0  0  0  0
   47.2660   28.7920   41.5060 H   0  0  0  0  0  0  0  0  0  0  0  0
   48.0630   30.8370   41.4110 N   0  0  0  0  0  0  0  0  0  0  0  0
   44.7980   34.9400   43.1330 N   0  0  0  0  0  0  0  0  0  0  0  0
   44.9680   34.5170   42.0520 C   0  0  0  0  0  0  0  0  0  0  0  0
  1 39  1  0  0  0  0
  2 12  1  0  0  0  0
  2  1  2  0  0  0  0
  3  2  1  0  0  0  0
  4  3  2  0  0  0  0
  4  5  1  0  0  0  0
  5  6  2  0  0  0  0
  6  1  1  0  0  0  0
  6 21  1  0  0  0  0
  7  3  1  0  0  0  0
  8  4  1  0  0  0  0
  9  5  1  0  0  0  0
 10 16  1  0  0  0  0
 10 15  1  0  0  0  0
 11 10  2  0  0  0  0
 12 11  1  0  0  0  0
 12 13  2  0  0  0  0
 13 14  1  0  0  0  0
 14 15  2  0  0  0  0
 14 18  1  0  0  0  0
 16 19  1  0  0  0  0
 17 11  1  0  0  0  0
 20 16  1  0  0  0  0
 21 26  1  0  0  0  0
 22 21  2  0  0  0  0
 22 23  1  0  0  0  0
 23 24  2  0  0  0  0
 24 25  1  0  0  0  0
 24 29  1  0  0  0  0
 25 30  1  0  0  0  0
 26 31  1  0  0  0  0
 26 25  2  0  0  0  0
 27 22  1  0  0  0  0
 28 23  1  0  0  0  0
 31 32  1  0  0  0  0
 33 32  2  0  0  0  0
 33 34  1  0  0  0  0
 35 33  1  0  0  0  0
 36 35  1  0  0  0  0
 37 35  1  0  0  0  0
 37 31  2  0  0  0  0
 39 38  3  0  0  0  0
M  END
>  <minimizedAffinity>
-5.88820314

>  <minimizedRMSD>
0.464157015

$$$$
