
 OpenBabel03242511543D

 32 34  0  0  1  0  0  0  0  0999 V2000
   47.4430   33.2560   42.6040 C   0  0  2  0  0  0  0  0  0  0  0  0
   48.8690   32.9340   42.3810 C   0  0  0  0  0  0  0  0  0  0  0  0
   49.7930   34.0790   42.6610 C   0  0  0  0  0  0  0  0  0  0  0  0
   49.4120   35.3480   41.9210 C   0  0  0  0  0  0  0  0  0  0  0  0
   47.9310   35.5870   41.8460 C   0  0  0  0  0  0  0  0  0  0  0  0
   47.1760   34.7360   42.8370 C   0  0  1  0  0  0  0  0  0  0  0  0
   46.7830   32.9970   41.7250 H   0  0  0  0  0  0  0  0  0  0  0  0
   49.0260   32.5870   41.3320 H   0  0  0  0  0  0  0  0  0  0  0  0
   49.1620   32.1250   43.0920 H   0  0  0  0  0  0  0  0  0  0  0  0
   50.7740   33.7840   42.1770 H   0  0  0  0  0  0  0  0  0  0  0  0
   50.0510   34.2550   43.7010 H   0  0  0  0  0  0  0  0  0  0  0  0
   49.8770   35.4180   40.9120 H   0  0  0  0  0  0  0  0  0  0  0  0
   49.8590   36.1910   42.5070 H   0  0  0  0  0  0  0  0  0  0  0  0
   47.6680   36.6360   42.0050 H   0  0  0  0  0  0  0  0  0  0  0  0
   47.5940   35.2420   40.8370 H   0  0  0  0  0  0  0  0  0  0  0  0
   47.4090   34.9390   43.8820 H   0  0  0  0  0  0  0  0  0  0  0  0
   46.8730   32.5170   43.7470 C   0  0  0  0  0  0  0  0  0  0  0  0
   47.0890   33.0940   45.0130 C   0  0  0  0  0  0  0  0  0  0  0  0
   46.5900   32.4730   46.1650 C   0  0  0  0  0  0  0  0  0  0  0  0
   45.8990   31.3030   45.9700 N   0  0  0  0  0  0  0  0  0  0  0  0
   45.7030   30.7660   44.7400 C   0  0  0  0  0  0  0  0  0  0  0  0
   46.1930   31.3780   43.6340 N   0  0  0  0  0  0  0  0  0  0  0  0
   47.6170   34.0030   45.2570 H   0  0  0  0  0  0  0  0  0  0  0  0
   46.7160   32.8540   47.1600 H   0  0  0  0  0  0  0  0  0  0  0  0
   45.1480   29.8390   44.6540 H   0  0  0  0  0  0  0  0  0  0  0  0
   45.7220   34.9900   42.6560 C   0  0  0  0  0  0  0  0  0  0  0  0
   45.0320   34.7420   41.5160 N   0  0  0  0  0  0  0  0  0  0  0  0
   43.7340   35.1010   41.7330 C   0  0  0  0  0  0  0  0  0  0  0  0
   42.9110   35.0320   41.0230 H   0  0  0  0  0  0  0  0  0  0  0  0
   43.6330   35.5650   42.9990 N   0  0  0  0  0  0  0  0  0  0  0  0
   42.7980   35.9280   43.5150 H   0  0  0  0  0  0  0  0  0  0  0  0
   44.8370   35.4970   43.5550 N   0  0  0  0  0  0  0  0  0  0  0  0
  1  7  1  6  0  0  0
  1  6  1  0  0  0  0
  1 17  1  0  0  0  0
  2  1  1  0  0  0  0
  2  3  1  0  0  0  0
  2  9  1  0  0  0  0
  3 11  1  0  0  0  0
  4 13  1  0  0  0  0
  4  3  1  0  0  0  0
  5  4  1  0  0  0  0
  5 14  1  0  0  0  0
  5  6  1  0  0  0  0
  6 16  1  1  0  0  0
  8  2  1  0  0  0  0
 10  3  1  0  0  0  0
 12  4  1  0  0  0  0
 15  5  1  0  0  0  0
 17 18  1  0  0  0  0
 18 23  1  0  0  0  0
 18 19  2  0  0  0  0
 19 24  1  0  0  0  0
 20 19  1  0  0  0  0
 21 20  2  0  0  0  0
 22 17  2  0  0  0  0
 22 21  1  0  0  0  0
 25 21  1  0  0  0  0
 26  6  1  0  0  0  0
 26 32  2  0  0  0  0
 27 28  2  0  0  0  0
 27 26  1  0  0  0  0
 28 30  1  0  0  0  0
 29 28  1  0  0  0  0
 30 31  1  0  0  0  0
 30 32  1  0  0  0  0
M  END
>  <minimizedAffinity>
-4.97940016

>  <minimizedRMSD>
4.47712851

$$$$
