
 OpenBabel03252506553D

 36 40  0  0  0  0  0  0  0  0999 V2000
   47.2210   31.2310   45.2160 C   0  0  0  0  0  0  0  0  0  0  0  0
   46.9250   32.5750   45.1440 C   0  0  0  0  0  0  0  0  0  0  0  0
   46.3550   33.2700   46.1870 C   0  0  0  0  0  0  0  0  0  0  0  0
   46.0480   32.6190   47.3870 C   0  0  0  0  0  0  0  0  0  0  0  0
   45.5030   32.9700   48.5790 N   0  0  0  0  0  0  0  0  0  0  0  0
   45.4650   31.8640   49.3700 C   0  0  0  0  0  0  0  0  0  0  0  0
   45.9870   30.8490   48.6470 N   0  0  0  0  0  0  0  0  0  0  0  0
   46.3550   31.2770   47.4300 C   0  0  0  0  0  0  0  0  0  0  0  0
   46.9160   30.5690   46.4180 C   0  0  0  0  0  0  0  0  0  0  0  0
   47.6680   30.6880   44.3960 H   0  0  0  0  0  0  0  0  0  0  0  0
   46.1070   34.3320   46.1670 H   0  0  0  0  0  0  0  0  0  0  0  0
   45.1980   33.9690   48.7480 H   0  0  0  0  0  0  0  0  0  0  0  0
   45.0730   31.8760   50.3740 H   0  0  0  0  0  0  0  0  0  0  0  0
   46.7240   35.0300   42.4100 C   0  0  0  0  0  0  0  0  0  0  0  0
   47.8070   34.6750   41.6040 C   0  0  0  0  0  0  0  0  0  0  0  0
   48.6040   33.5900   42.0050 C   0  0  0  0  0  0  0  0  0  0  0  0
   48.2850   32.9310   43.1640 N   0  0  0  0  0  0  0  0  0  0  0  0
   47.2220   33.3110   43.9180 C   0  0  0  0  0  0  0  0  0  0  0  0
   46.4610   34.3430   43.5410 N   0  0  0  0  0  0  0  0  0  0  0  0
   46.1250   35.8710   42.0770 H   0  0  0  0  0  0  0  0  0  0  0  0
   48.0990   35.1630   40.6830 H   0  0  0  0  0  0  0  0  0  0  0  0
   49.4490   33.2370   41.4690 H   0  0  0  0  0  0  0  0  0  0  0  0
   47.2060   29.1330   46.5640 C   0  0  0  0  0  0  0  0  0  0  0  0
   48.3080   28.4960   46.0240 C   0  0  0  0  0  0  0  0  0  0  0  0
   48.1530   27.1630   46.4220 C   0  0  0  0  0  0  0  0  0  0  0  0
   46.9810   27.0660   47.1730 C   0  0  0  0  0  0  0  0  0  0  0  0
   46.4490   28.2850   47.2270 O   0  0  0  0  0  0  0  0  0  0  0  0
   49.0950   28.9210   45.4380 H   0  0  0  0  0  0  0  0  0  0  0  0
   48.8150   26.3380   46.1980 H   0  0  0  0  0  0  0  0  0  0  0  0
   46.4950   25.8230   47.7580 C   0  0  0  0  0  0  0  0  0  0  0  0
   46.5720   25.1640   48.9330 N   0  0  0  0  0  0  0  0  0  0  0  0
   45.8760   24.0130   48.8370 C   0  0  0  0  0  0  0  0  0  0  0  0
   45.7430   23.2680   49.5960 H   0  0  0  0  0  0  0  0  0  0  0  0
   45.3560   23.9530   47.5840 N   0  0  0  0  0  0  0  0  0  0  0  0
   44.7560   23.1750   47.1890 H   0  0  0  0  0  0  0  0  0  0  0  0
   45.7400   25.0490   46.9530 N   0  0  0  0  0  0  0  0  0  0  0  0
  1  9  1  0  0  0  0
  2  1  2  0  0  0  0
  2  3  1  0  0  0  0
  3  4  2  0  0  0  0
  4  8  1  0  0  0  0
  4  5  1  0  0  0  0
  5 12  1  0  0  0  0
  5  6  1  0  0  0  0
  6 13  1  0  0  0  0
  7  6  2  0  0  0  0
  8  7  1  0  0  0  0
  9 23  1  0  0  0  0
  9  8  2  0  0  0  0
 10  1  1  0  0  0  0
 11  3  1  0  0  0  0
 14 19  1  0  0  0  0
 15 16  1  0  0  0  0
 15 14  2  0  0  0  0
 16 17  2  0  0  0  0
 17 18  1  0  0  0  0
 18  2  1  0  0  0  0
 19 18  2  0  0  0  0
 20 14  1  0  0  0  0
 21 15  1  0  0  0  0
 22 16  1  0  0  0  0
 23 27  1  0  0  0  0
 24 25  1  0  0  0  0
 24 23  2  0  0  0  0
 25 26  2  0  0  0  0
 26 27  1  0  0  0  0
 26 30  1  0  0  0  0
 28 24  1  0  0  0  0
 29 25  1  0  0  0  0
 30 31  1  0  0  0  0
 32 31  2  0  0  0  0
 32 33  1  0  0  0  0
 34 32  1  0  0  0  0
 35 34  1  0  0  0  0
 36 34  1  0  0  0  0
 36 30  2  0  0  0  0
M  END
>  <minimizedAffinity>
-5.62941265

>  <minimizedRMSD>
1.02270234

$$$$
