
 OpenBabel03242516013D

 26 28  0  0  0  0  0  0  0  0999 V2000
   37.5700   28.3080   39.2550 Cl  0  0  0  0  0  0  0  0  0  0  0  0
   37.5470   27.9850   40.9700 C   0  0  0  0  0  0  0  0  0  0  0  0
   37.5890   26.7080   41.4610 C   0  0  0  0  0  0  0  0  0  0  0  0
   37.5650   26.5630   42.8270 C   0  0  0  0  0  0  0  0  0  0  0  0
   37.5030   27.6330   43.6800 C   0  0  0  0  0  0  0  0  0  0  0  0
   37.4620   28.9040   43.1830 C   0  0  0  0  0  0  0  0  0  0  0  0
   37.4830   29.0700   41.8250 C   0  0  0  0  0  0  0  0  0  0  0  0
   37.6000   25.5480   43.2070 H   0  0  0  0  0  0  0  0  0  0  0  0
   37.4880   27.4490   44.7460 H   0  0  0  0  0  0  0  0  0  0  0  0
   37.4120   29.7540   43.8720 H   0  0  0  0  0  0  0  0  0  0  0  0
   36.6010   23.8940   39.1160 C   0  0  0  0  0  0  0  0  0  0  0  0
   36.5290   24.9510   40.0220 C   0  0  0  0  0  0  0  0  0  0  0  0
   37.6550   25.6010   40.5120 C   0  0  0  0  0  0  0  0  0  0  0  0
   38.8550   25.1430   40.0530 N   0  0  0  0  0  0  0  0  0  0  0  0
   38.9150   24.1170   39.1750 C   0  0  0  0  0  0  0  0  0  0  0  0
   37.8240   23.5000   38.7100 N   0  0  0  0  0  0  0  0  0  0  0  0
   35.6290   23.5150   38.8470 H   0  0  0  0  0  0  0  0  0  0  0  0
   35.6030   25.3490   40.4140 H   0  0  0  0  0  0  0  0  0  0  0  0
   39.8760   23.7390   38.7970 H   0  0  0  0  0  0  0  0  0  0  0  0
   37.4400   30.4260   41.2880 C   0  0  0  0  0  0  0  0  0  0  0  0
   38.5010   31.1980   41.0200 N   0  0  0  0  0  0  0  0  0  0  0  0
   38.0250   32.3720   40.5400 C   0  0  0  0  0  0  0  0  0  0  0  0
   38.4170   33.3210   40.1790 H   0  0  0  0  0  0  0  0  0  0  0  0
   36.6630   32.3180   40.5140 N   0  0  0  0  0  0  0  0  0  0  0  0
   35.9030   32.9750   40.2280 H   0  0  0  0  0  0  0  0  0  0  0  0
   36.3240   31.1110   40.9790 N   0  0  0  0  0  0  0  0  0  0  0  0
  1  2  1  0  0  0  0
  2  3  2  0  0  0  0
  2  7  1  0  0  0  0
  3  4  1  0  0  0  0
  4  8  1  0  0  0  0
  4  5  2  0  0  0  0
  5  9  1  0  0  0  0
  6  5  1  0  0  0  0
  6 10  1  0  0  0  0
  7  6  2  0  0  0  0
 11 12  1  0  0  0  0
 12 18  1  0  0  0  0
 12 13  2  0  0  0  0
 13  3  1  0  0  0  0
 14 13  1  0  0  0  0
 15 14  2  0  0  0  0
 16 11  2  0  0  0  0
 16 15  1  0  0  0  0
 17 11  1  0  0  0  0
 19 15  1  0  0  0  0
 20  7  1  0  0  0  0
 21 20  1  0  0  0  0
 22 21  2  0  0  0  0
 23 22  1  0  0  0  0
 24 22  1  0  0  0  0
 24 26  1  0  0  0  0
 25 24  1  0  0  0  0
 26 20  2  0  0  0  0
M  END
>  <minimizedAffinity>
-5.07478237

$$$$

 OpenBabel03242516013D

 26 28  0  0  0  0  0  0  0  0999 V2000
   40.2520   29.1430   39.9760 Cl  0  0  0  0  0  0  0  0  0  0  0  0
   38.6900   29.8060   40.3830 C   0  0  0  0  0  0  0  0  0  0  0  0
   37.8580   29.1860   41.2750 C   0  0  0  0  0  0  0  0  0  0  0  0
   36.6500   29.7910   41.5260 C   0  0  0  0  0  0  0  0  0  0  0  0
   36.2730   30.9610   40.9220 C   0  0  0  0  0  0  0  0  0  0  0  0
   37.1090   31.5740   40.0330 C   0  0  0  0  0  0  0  0  0  0  0  0
   38.3170   30.9870   39.7690 C   0  0  0  0  0  0  0  0  0  0  0  0
   35.9970   29.2930   42.2350 H   0  0  0  0  0  0  0  0  0  0  0  0
   35.3070   31.3850   41.1650 H   0  0  0  0  0  0  0  0  0  0  0  0
   36.7990   32.5090   39.5550 H   0  0  0  0  0  0  0  0  0  0  0  0
   39.4320   26.7030   43.6730 C   0  0  0  0  0  0  0  0  0  0  0  0
   39.0100   27.8970   43.0890 C   0  0  0  0  0  0  0  0  0  0  0  0
   38.3040   27.9410   41.8930 C   0  0  0  0  0  0  0  0  0  0  0  0
   38.0440   26.7370   41.3090 N   0  0  0  0  0  0  0  0  0  0  0  0
   38.4580   25.5840   41.8820 C   0  0  0  0  0  0  0  0  0  0  0  0
   39.1350   25.5540   43.0340 N   0  0  0  0  0  0  0  0  0  0  0  0
   39.9630   26.8620   44.5970 H   0  0  0  0  0  0  0  0  0  0  0  0
   39.1920   28.8740   43.5140 H   0  0  0  0  0  0  0  0  0  0  0  0
   38.2530   24.6080   41.4210 H   0  0  0  0  0  0  0  0  0  0  0  0
   39.2140   31.6380   38.8200 C   0  0  0  0  0  0  0  0  0  0  0  0
   40.2870   32.3750   39.1340 N   0  0  0  0  0  0  0  0  0  0  0  0
   40.8370   32.7900   37.9670 C   0  0  0  0  0  0  0  0  0  0  0  0
   41.6840   33.3880   37.6360 H   0  0  0  0  0  0  0  0  0  0  0  0
   40.0960   32.3010   36.9320 N   0  0  0  0  0  0  0  0  0  0  0  0
   40.1490   32.3660   35.8920 H   0  0  0  0  0  0  0  0  0  0  0  0
   39.1020   31.5950   37.4800 N   0  0  0  0  0  0  0  0  0  0  0  0
  1  2  1  0  0  0  0
  2  3  1  0  0  0  0
  3  4  2  0  0  0  0
  3 13  1  0  0  0  0
  4  8  1  0  0  0  0
  5  9  1  0  0  0  0
  5  4  1  0  0  0  0
  6  5  2  0  0  0  0
  7  6  1  0  0  0  0
  7  2  2  0  0  0  0
 10  6  1  0  0  0  0
 11 17  1  0  0  0  0
 12 18  1  0  0  0  0
 12 11  1  0  0  0  0
 13 12  2  0  0  0  0
 14 15  2  0  0  0  0
 14 13  1  0  0  0  0
 15 16  1  0  0  0  0
 16 11  2  0  0  0  0
 19 15  1  0  0  0  0
 20 21  1  0  0  0  0
 20  7  1  0  0  0  0
 22 21  2  0  0  0  0
 23 22  1  0  0  0  0
 24 26  1  0  0  0  0
 24 22  1  0  0  0  0
 25 24  1  0  0  0  0
 26 20  2  0  0  0  0
M  END
>  <minimizedAffinity>
-5.06170654

$$$$

 OpenBabel03242516013D

 26 28  0  0  0  0  0  0  0  0999 V2000
   38.1450   27.1860   39.4240 Cl  0  0  0  0  0  0  0  0  0  0  0  0
   37.8300   27.6820   41.0680 C   0  0  0  0  0  0  0  0  0  0  0  0
   37.7680   29.0030   41.4190 C   0  0  0  0  0  0  0  0  0  0  0  0
   37.5140   29.2870   42.7390 C   0  0  0  0  0  0  0  0  0  0  0  0
   37.3280   28.3090   43.6800 C   0  0  0  0  0  0  0  0  0  0  0  0
   37.3910   26.9930   43.3220 C   0  0  0  0  0  0  0  0  0  0  0  0
   37.6440   26.6890   42.0110 C   0  0  0  0  0  0  0  0  0  0  0  0
   37.4660   30.3370   43.0090 H   0  0  0  0  0  0  0  0  0  0  0  0
   37.1320   28.6010   44.7030 H   0  0  0  0  0  0  0  0  0  0  0  0
   37.2420   26.2170   44.0800 H   0  0  0  0  0  0  0  0  0  0  0  0
   37.1350   31.5330   38.6640 C   0  0  0  0  0  0  0  0  0  0  0  0
   36.9310   30.5730   39.6540 C   0  0  0  0  0  0  0  0  0  0  0  0
   37.9720   30.0090   40.3810 C   0  0  0  0  0  0  0  0  0  0  0  0
   39.2240   30.4500   40.0690 N   0  0  0  0  0  0  0  0  0  0  0  0
   39.4120   31.3810   39.1080 C   0  0  0  0  0  0  0  0  0  0  0  0
   38.4020   31.9170   38.4150 N   0  0  0  0  0  0  0  0  0  0  0  0
   36.2140   31.8570   38.2080 H   0  0  0  0  0  0  0  0  0  0  0  0
   35.9590   30.1930   39.9350 H   0  0  0  0  0  0  0  0  0  0  0  0
   40.4170   31.7450   38.8490 H   0  0  0  0  0  0  0  0  0  0  0  0
   37.7120   25.2840   41.6230 C   0  0  0  0  0  0  0  0  0  0  0  0
   36.7790   24.6150   40.9340 N   0  0  0  0  0  0  0  0  0  0  0  0
   37.2310   23.3460   40.7860 C   0  0  0  0  0  0  0  0  0  0  0  0
   36.9000   22.4140   40.3320 H   0  0  0  0  0  0  0  0  0  0  0  0
   38.4490   23.2390   41.3880 N   0  0  0  0  0  0  0  0  0  0  0  0
   39.1440   22.4700   41.5170 H   0  0  0  0  0  0  0  0  0  0  0  0
   38.7260   24.4440   41.8970 N   0  0  0  0  0  0  0  0  0  0  0  0
  1  2  1  0  0  0  0
  2  3  2  0  0  0  0
  2  7  1  0  0  0  0
  3  4  1  0  0  0  0
  4  8  1  0  0  0  0
  4  5  2  0  0  0  0
  5  9  1  0  0  0  0
  6  5  1  0  0  0  0
  6 10  1  0  0  0  0
  7  6  2  0  0  0  0
 11 12  1  0  0  0  0
 12 18  1  0  0  0  0
 12 13  2  0  0  0  0
 13  3  1  0  0  0  0
 14 13  1  0  0  0  0
 15 14  2  0  0  0  0
 16 11  2  0  0  0  0
 16 15  1  0  0  0  0
 17 11  1  0  0  0  0
 19 15  1  0  0  0  0
 20 26  2  0  0  0  0
 20  7  1  0  0  0  0
 21 20  1  0  0  0  0
 22 21  2  0  0  0  0
 22 24  1  0  0  0  0
 23 22  1  0  0  0  0
 24 25  1  0  0  0  0
 24 26  1  0  0  0  0
M  END
>  <minimizedAffinity>
-4.85503197

$$$$

 OpenBabel03242516013D

 26 28  0  0  0  0  0  0  0  0999 V2000
   39.2970   28.5320   38.8070 Cl  0  0  0  0  0  0  0  0  0  0  0  0
   38.0570   29.4010   39.6770 C   0  0  0  0  0  0  0  0  0  0  0  0
   37.1790   28.7580   40.5070 C   0  0  0  0  0  0  0  0  0  0  0  0
   36.2410   29.5340   41.1440 C   0  0  0  0  0  0  0  0  0  0  0  0
   36.1690   30.8910   40.9730 C   0  0  0  0  0  0  0  0  0  0  0  0
   37.0490   31.5250   40.1430 C   0  0  0  0  0  0  0  0  0  0  0  0
   37.9900   30.7700   39.4980 C   0  0  0  0  0  0  0  0  0  0  0  0
   35.5500   29.0170   41.8010 H   0  0  0  0  0  0  0  0  0  0  0  0
   35.4060   31.4440   41.5050 H   0  0  0  0  0  0  0  0  0  0  0  0
   36.9840   32.6100   40.0120 H   0  0  0  0  0  0  0  0  0  0  0  0
   36.7350   25.0250   40.0010 C   0  0  0  0  0  0  0  0  0  0  0  0
   36.6180   26.4060   39.8510 C   0  0  0  0  0  0  0  0  0  0  0  0
   37.2960   27.3110   40.6570 C   0  0  0  0  0  0  0  0  0  0  0  0
   38.0960   26.7700   41.6200 N   0  0  0  0  0  0  0  0  0  0  0  0
   38.2040   25.4290   41.7580 C   0  0  0  0  0  0  0  0  0  0  0  0
   37.5460   24.5680   40.9760 N   0  0  0  0  0  0  0  0  0  0  0  0
   36.1380   24.4810   39.2890 H   0  0  0  0  0  0  0  0  0  0  0  0
   35.9970   26.8810   39.1040 H   0  0  0  0  0  0  0  0  0  0  0  0
   38.8460   24.9810   42.5300 H   0  0  0  0  0  0  0  0  0  0  0  0
   38.9340   31.4420   38.6110 C   0  0  0  0  0  0  0  0  0  0  0  0
   40.1420   31.9060   38.9560 N   0  0  0  0  0  0  0  0  0  0  0  0
   40.6880   32.4550   37.8440 C   0  0  0  0  0  0  0  0  0  0  0  0
   41.6090   32.9570   37.5540 H   0  0  0  0  0  0  0  0  0  0  0  0
   39.8080   32.3250   36.8110 N   0  0  0  0  0  0  0  0  0  0  0  0
   39.8090   32.5950   35.8030 H   0  0  0  0  0  0  0  0  0  0  0  0
   38.7350   31.6990   37.3050 N   0  0  0  0  0  0  0  0  0  0  0  0
  1  2  1  0  0  0  0
  2  3  1  0  0  0  0
  3 13  1  0  0  0  0
  3  4  2  0  0  0  0
  4  8  1  0  0  0  0
  5  4  1  0  0  0  0
  5  9  1  0  0  0  0
  6  5  2  0  0  0  0
  7  2  2  0  0  0  0
  7  6  1  0  0  0  0
 10  6  1  0  0  0  0
 11 16  1  0  0  0  0
 12 11  2  0  0  0  0
 12 13  1  0  0  0  0
 13 14  2  0  0  0  0
 14 15  1  0  0  0  0
 15 19  1  0  0  0  0
 16 15  2  0  0  0  0
 17 11  1  0  0  0  0
 18 12  1  0  0  0  0
 20 21  1  0  0  0  0
 20  7  1  0  0  0  0
 22 21  2  0  0  0  0
 23 22  1  0  0  0  0
 24 26  1  0  0  0  0
 24 22  1  0  0  0  0
 25 24  1  0  0  0  0
 26 20  2  0  0  0  0
M  END
>  <minimizedAffinity>
-4.82888937

$$$$

 OpenBabel03242516013D

 26 28  0  0  0  0  0  0  0  0999 V2000
   38.2890   28.7630   40.9530 Cl  0  0  0  0  0  0  0  0  0  0  0  0
   37.0690   28.2800   39.8030 C   0  0  0  0  0  0  0  0  0  0  0  0
   36.7980   26.9620   39.5540 C   0  0  0  0  0  0  0  0  0  0  0  0
   35.8190   26.6880   38.6300 C   0  0  0  0  0  0  0  0  0  0  0  0
   35.1300   27.6740   37.9740 C   0  0  0  0  0  0  0  0  0  0  0  0
   35.4050   28.9870   38.2280 C   0  0  0  0  0  0  0  0  0  0  0  0
   36.3780   29.2800   39.1440 C   0  0  0  0  0  0  0  0  0  0  0  0
   35.6100   25.6410   38.4400 H   0  0  0  0  0  0  0  0  0  0  0  0
   34.3700   27.3900   37.2580 H   0  0  0  0  0  0  0  0  0  0  0  0
   34.8500   29.7680   37.6980 H   0  0  0  0  0  0  0  0  0  0  0  0
   37.8390   24.3830   42.1350 C   0  0  0  0  0  0  0  0  0  0  0  0
   37.1070   25.3510   41.4490 C   0  0  0  0  0  0  0  0  0  0  0  0
   37.5590   25.9470   40.2790 C   0  0  0  0  0  0  0  0  0  0  0  0
   38.7770   25.5310   39.8290 N   0  0  0  0  0  0  0  0  0  0  0  0
   39.4800   24.5920   40.5000 C   0  0  0  0  0  0  0  0  0  0  0  0
   39.0340   24.0240   41.6260 N   0  0  0  0  0  0  0  0  0  0  0  0
   37.3330   24.0330   43.0200 H   0  0  0  0  0  0  0  0  0  0  0  0
   36.1390   25.7130   41.7670 H   0  0  0  0  0  0  0  0  0  0  0  0
   40.4620   24.2470   40.1470 H   0  0  0  0  0  0  0  0  0  0  0  0
   36.6760   30.6820   39.4190 C   0  0  0  0  0  0  0  0  0  0  0  0
   37.2900   31.5310   38.5850 N   0  0  0  0  0  0  0  0  0  0  0  0
   37.3680   32.7250   39.2220 C   0  0  0  0  0  0  0  0  0  0  0  0
   37.7490   33.7250   39.0290 H   0  0  0  0  0  0  0  0  0  0  0  0
   36.7960   32.6050   40.4540 N   0  0  0  0  0  0  0  0  0  0  0  0
   36.6370   33.2490   41.2590 H   0  0  0  0  0  0  0  0  0  0  0  0
   36.3770   31.3390   40.5530 N   0  0  0  0  0  0  0  0  0  0  0  0
  2  1  1  0  0  0  0
  3  2  1  0  0  0  0
  3 13  1  0  0  0  0
  4  3  2  0  0  0  0
  5  6  2  0  0  0  0
  5  4  1  0  0  0  0
  6  7  1  0  0  0  0
  7 20  1  0  0  0  0
  7  2  2  0  0  0  0
  8  4  1  0  0  0  0
  9  5  1  0  0  0  0
 10  6  1  0  0  0  0
 11 17  1  0  0  0  0
 12 18  1  0  0  0  0
 12 11  2  0  0  0  0
 13 12  1  0  0  0  0
 14 13  2  0  0  0  0
 14 15  1  0  0  0  0
 15 16  2  0  0  0  0
 16 11  1  0  0  0  0
 19 15  1  0  0  0  0
 20 26  2  0  0  0  0
 21 22  2  0  0  0  0
 21 20  1  0  0  0  0
 22 24  1  0  0  0  0
 23 22  1  0  0  0  0
 24 26  1  0  0  0  0
 24 25  1  0  0  0  0
M  END
>  <minimizedAffinity>
-4.7986865

$$$$

 OpenBabel03242516013D

 26 28  0  0  0  0  0  0  0  0999 V2000
   38.4710   29.7150   39.9330 Cl  0  0  0  0  0  0  0  0  0  0  0  0
   37.8470   28.9050   41.3470 C   0  0  0  0  0  0  0  0  0  0  0  0
   36.6950   28.1680   41.3020 C   0  0  0  0  0  0  0  0  0  0  0  0
   36.2900   27.5700   42.4720 C   0  0  0  0  0  0  0  0  0  0  0  0
   36.9910   27.6930   43.6420 C   0  0  0  0  0  0  0  0  0  0  0  0
   38.1390   28.4310   43.6790 C   0  0  0  0  0  0  0  0  0  0  0  0
   38.5590   29.0340   42.5250 C   0  0  0  0  0  0  0  0  0  0  0  0
   35.3760   26.9870   42.4270 H   0  0  0  0  0  0  0  0  0  0  0  0
   36.6170   27.1970   44.5280 H   0  0  0  0  0  0  0  0  0  0  0  0
   38.6930   28.5240   44.6190 H   0  0  0  0  0  0  0  0  0  0  0  0
   35.5550   26.9810   37.8840 C   0  0  0  0  0  0  0  0  0  0  0  0
   36.2390   27.0720   39.0960 C   0  0  0  0  0  0  0  0  0  0  0  0
   35.9840   28.0660   40.0320 C   0  0  0  0  0  0  0  0  0  0  0  0
   35.0150   28.9660   39.6980 N   0  0  0  0  0  0  0  0  0  0  0  0
   34.3570   28.8700   38.5200 C   0  0  0  0  0  0  0  0  0  0  0  0
   34.6110   27.9080   37.6280 N   0  0  0  0  0  0  0  0  0  0  0  0
   35.8840   26.1480   37.2860 H   0  0  0  0  0  0  0  0  0  0  0  0
   37.0130   26.3840   39.4040 H   0  0  0  0  0  0  0  0  0  0  0  0
   33.5740   29.5890   38.2410 H   0  0  0  0  0  0  0  0  0  0  0  0
   39.7870   29.8230   42.5590 C   0  0  0  0  0  0  0  0  0  0  0  0
   41.0270   29.3520   42.3760 N   0  0  0  0  0  0  0  0  0  0  0  0
   41.8710   30.4070   42.4860 C   0  0  0  0  0  0  0  0  0  0  0  0
   42.9400   30.6010   42.4310 H   0  0  0  0  0  0  0  0  0  0  0  0
   41.1410   31.5310   42.7380 N   0  0  0  0  0  0  0  0  0  0  0  0
   41.3670   32.5380   42.8920 H   0  0  0  0  0  0  0  0  0  0  0  0
   39.8610   31.1480   42.7790 N   0  0  0  0  0  0  0  0  0  0  0  0
  1  2  1  0  0  0  0
  2  7  1  0  0  0  0
  3  2  2  0  0  0  0
  3  4  1  0  0  0  0
  4  5  2  0  0  0  0
  5  6  1  0  0  0  0
  5  9  1  0  0  0  0
  6 10  1  0  0  0  0
  7 20  1  0  0  0  0
  7  6  2  0  0  0  0
  8  4  1  0  0  0  0
 11 12  1  0  0  0  0
 12 18  1  0  0  0  0
 12 13  2  0  0  0  0
 13  3  1  0  0  0  0
 14 13  1  0  0  0  0
 15 14  2  0  0  0  0
 16 11  2  0  0  0  0
 16 15  1  0  0  0  0
 17 11  1  0  0  0  0
 19 15  1  0  0  0  0
 20 26  2  0  0  0  0
 21 22  2  0  0  0  0
 21 20  1  0  0  0  0
 22 24  1  0  0  0  0
 23 22  1  0  0  0  0
 24 26  1  0  0  0  0
 24 25  1  0  0  0  0
M  END
>  <minimizedAffinity>
-4.72114277

$$$$

 OpenBabel03242516013D

 26 28  0  0  0  0  0  0  0  0999 V2000
   37.3600   30.0470   36.9030 Cl  0  0  0  0  0  0  0  0  0  0  0  0
   35.7040   29.4960   36.8820 C   0  0  0  0  0  0  0  0  0  0  0  0
   35.0490   29.1480   38.0310 C   0  0  0  0  0  0  0  0  0  0  0  0
   33.7470   28.7270   37.9050 C   0  0  0  0  0  0  0  0  0  0  0  0
   33.1120   28.6520   36.6930 C   0  0  0  0  0  0  0  0  0  0  0  0
   33.7730   29.0010   35.5510 C   0  0  0  0  0  0  0  0  0  0  0  0
   35.0710   29.4220   35.6550 C   0  0  0  0  0  0  0  0  0  0  0  0
   33.2340   28.4540   38.8210 H   0  0  0  0  0  0  0  0  0  0  0  0
   32.0850   28.3130   36.6630 H   0  0  0  0  0  0  0  0  0  0  0  0
   33.2580   28.9380   34.5860 H   0  0  0  0  0  0  0  0  0  0  0  0
   37.1270   28.2780   41.0830 C   0  0  0  0  0  0  0  0  0  0  0  0
   36.4430   28.1760   39.8730 C   0  0  0  0  0  0  0  0  0  0  0  0
   35.7670   29.2460   39.2980 C   0  0  0  0  0  0  0  0  0  0  0  0
   35.8070   30.4190   39.9920 N   0  0  0  0  0  0  0  0  0  0  0  0
   36.4730   30.5080   41.1650 C   0  0  0  0  0  0  0  0  0  0  0  0
   37.1200   29.4720   41.7080 N   0  0  0  0  0  0  0  0  0  0  0  0
   37.5910   27.3500   41.3740 H   0  0  0  0  0  0  0  0  0  0  0  0
   36.3830   27.2690   39.2880 H   0  0  0  0  0  0  0  0  0  0  0  0
   36.5140   31.4490   41.7330 H   0  0  0  0  0  0  0  0  0  0  0  0
   35.7810   29.7970   34.4370 C   0  0  0  0  0  0  0  0  0  0  0  0
   35.8410   31.0280   33.9120 N   0  0  0  0  0  0  0  0  0  0  0  0
   36.5960   30.9420   32.7900 C   0  0  0  0  0  0  0  0  0  0  0  0
   36.9600   31.6000   32.0030 H   0  0  0  0  0  0  0  0  0  0  0  0
   37.0010   29.6510   32.6280 N   0  0  0  0  0  0  0  0  0  0  0  0
   37.5800   29.1410   31.9250 H   0  0  0  0  0  0  0  0  0  0  0  0
   36.4880   28.9630   33.6540 N   0  0  0  0  0  0  0  0  0  0  0  0
  2  1  1  0  0  0  0
  2  3  1  0  0  0  0
  3 13  1  0  0  0  0
  4  3  2  0  0  0  0
  4  8  1  0  0  0  0
  5  4  1  0  0  0  0
  6  7  1  0  0  0  0
  6  5  2  0  0  0  0
  7  2  2  0  0  0  0
  9  5  1  0  0  0  0
 10  6  1  0  0  0  0
 11 17  1  0  0  0  0
 11 16  1  0  0  0  0
 12 11  2  0  0  0  0
 13 12  1  0  0  0  0
 13 14  2  0  0  0  0
 14 15  1  0  0  0  0
 15 16  2  0  0  0  0
 15 19  1  0  0  0  0
 18 12  1  0  0  0  0
 20  7  1  0  0  0  0
 21 20  1  0  0  0  0
 22 21  2  0  0  0  0
 23 22  1  0  0  0  0
 24 22  1  0  0  0  0
 24 26  1  0  0  0  0
 25 24  1  0  0  0  0
 26 20  2  0  0  0  0
M  END
>  <minimizedAffinity>
-4.67182064

$$$$

 OpenBabel03242516013D

 26 28  0  0  0  0  0  0  0  0999 V2000
   37.2950   27.5200   38.9060 Cl  0  0  0  0  0  0  0  0  0  0  0  0
   37.2460   29.2440   39.1700 C   0  0  0  0  0  0  0  0  0  0  0  0
   37.4050   29.7840   40.4180 C   0  0  0  0  0  0  0  0  0  0  0  0
   37.3500   31.1530   40.5170 C   0  0  0  0  0  0  0  0  0  0  0  0
   37.1460   31.9620   39.4310 C   0  0  0  0  0  0  0  0  0  0  0  0
   36.9890   31.4170   38.1900 C   0  0  0  0  0  0  0  0  0  0  0  0
   37.0390   30.0540   38.0690 C   0  0  0  0  0  0  0  0  0  0  0  0
   37.4780   31.5730   41.5100 H   0  0  0  0  0  0  0  0  0  0  0  0
   37.1140   33.0340   39.5790 H   0  0  0  0  0  0  0  0  0  0  0  0
   36.8260   32.0710   37.3270 H   0  0  0  0  0  0  0  0  0  0  0  0
   36.7960   27.4160   43.3180 C   0  0  0  0  0  0  0  0  0  0  0  0
   36.5820   28.2780   42.2440 C   0  0  0  0  0  0  0  0  0  0  0  0
   37.6200   28.8800   41.5440 C   0  0  0  0  0  0  0  0  0  0  0  0
   38.8800   28.5810   41.9710 N   0  0  0  0  0  0  0  0  0  0  0  0
   39.0780   27.7440   43.0140 C   0  0  0  0  0  0  0  0  0  0  0  0
   38.0710   27.1700   43.6790 N   0  0  0  0  0  0  0  0  0  0  0  0
   35.8760   27.0430   43.7370 H   0  0  0  0  0  0  0  0  0  0  0  0
   35.6040   28.5450   41.8690 H   0  0  0  0  0  0  0  0  0  0  0  0
   40.0890   27.4950   43.3670 H   0  0  0  0  0  0  0  0  0  0  0  0
   36.8720   29.4660   36.7450 C   0  0  0  0  0  0  0  0  0  0  0  0
   35.7090   29.3020   36.1000 N   0  0  0  0  0  0  0  0  0  0  0  0
   35.9950   28.7240   34.9090 C   0  0  0  0  0  0  0  0  0  0  0  0
   35.4630   28.3790   34.0250 H   0  0  0  0  0  0  0  0  0  0  0  0
   37.3420   28.5340   34.8230 N   0  0  0  0  0  0  0  0  0  0  0  0
   37.9870   28.1340   34.1060 H   0  0  0  0  0  0  0  0  0  0  0  0
   37.8620   28.9980   35.9640 N   0  0  0  0  0  0  0  0  0  0  0  0
  1  2  1  0  0  0  0
  2  3  1  0  0  0  0
  3  4  2  0  0  0  0
  3 13  1  0  0  0  0
  4  8  1  0  0  0  0
  5  9  1  0  0  0  0
  5  4  1  0  0  0  0
  6  5  2  0  0  0  0
  7  6  1  0  0  0  0
  7  2  2  0  0  0  0
 10  6  1  0  0  0  0
 11 16  1  0  0  0  0
 11 17  1  0  0  0  0
 12 11  2  0  0  0  0
 13 14  2  0  0  0  0
 13 12  1  0  0  0  0
 14 15  1  0  0  0  0
 15 19  1  0  0  0  0
 15 16  2  0  0  0  0
 18 12  1  0  0  0  0
 20  7  1  0  0  0  0
 21 20  1  0  0  0  0
 22 21  2  0  0  0  0
 23 22  1  0  0  0  0
 24 22  1  0  0  0  0
 24 26  1  0  0  0  0
 25 24  1  0  0  0  0
 26 20  2  0  0  0  0
M  END
>  <minimizedAffinity>
-4.62515593

$$$$

 OpenBabel03242516013D

 26 28  0  0  0  0  0  0  0  0999 V2000
   38.8170   29.9230   41.6350 Cl  0  0  0  0  0  0  0  0  0  0  0  0
   37.6720   29.8720   40.3190 C   0  0  0  0  0  0  0  0  0  0  0  0
   37.6070   30.8710   39.3860 C   0  0  0  0  0  0  0  0  0  0  0  0
   36.6690   30.7350   38.3900 C   0  0  0  0  0  0  0  0  0  0  0  0
   35.8270   29.6570   38.3150 C   0  0  0  0  0  0  0  0  0  0  0  0
   35.8990   28.6640   39.2490 C   0  0  0  0  0  0  0  0  0  0  0  0
   36.8250   28.7820   40.2490 C   0  0  0  0  0  0  0  0  0  0  0  0
   36.6250   31.5300   37.6540 H   0  0  0  0  0  0  0  0  0  0  0  0
   35.1120   29.6110   37.5040 H   0  0  0  0  0  0  0  0  0  0  0  0
   35.2220   27.8070   39.1810 H   0  0  0  0  0  0  0  0  0  0  0  0
   40.6550   33.1020   39.0420 C   0  0  0  0  0  0  0  0  0  0  0  0
   39.7840   32.0210   38.9210 C   0  0  0  0  0  0  0  0  0  0  0  0
   38.5250   31.9990   39.5090 C   0  0  0  0  0  0  0  0  0  0  0  0
   38.1810   33.1070   40.2250 N   0  0  0  0  0  0  0  0  0  0  0  0
   39.0330   34.1510   40.3380 C   0  0  0  0  0  0  0  0  0  0  0  0
   40.2420   34.1610   39.7670 N   0  0  0  0  0  0  0  0  0  0  0  0
   41.5840   32.9440   38.5200 H   0  0  0  0  0  0  0  0  0  0  0  0
   40.0110   31.1220   38.3650 H   0  0  0  0  0  0  0  0  0  0  0  0
   38.7670   35.0500   40.9110 H   0  0  0  0  0  0  0  0  0  0  0  0
   36.9060   27.7230   41.2510 C   0  0  0  0  0  0  0  0  0  0  0  0
   37.4720   26.5220   41.0780 N   0  0  0  0  0  0  0  0  0  0  0  0
   37.3330   25.8480   42.2460 C   0  0  0  0  0  0  0  0  0  0  0  0
   37.5910   24.8740   42.6570 H   0  0  0  0  0  0  0  0  0  0  0  0
   36.6780   26.6430   43.1390 N   0  0  0  0  0  0  0  0  0  0  0  0
   36.3650   26.5380   44.1290 H   0  0  0  0  0  0  0  0  0  0  0  0
   36.4250   27.7930   42.5050 N   0  0  0  0  0  0  0  0  0  0  0  0
  2  1  1  0  0  0  0
  3 13  1  0  0  0  0
  3  2  2  0  0  0  0
  4  3  1  0  0  0  0
  5  4  2  0  0  0  0
  5  6  1  0  0  0  0
  6  7  2  0  0  0  0
  7  2  1  0  0  0  0
  7 20  1  0  0  0  0
  8  4  1  0  0  0  0
  9  5  1  0  0  0  0
 10  6  1  0  0  0  0
 11 16  1  0  0  0  0
 12 11  2  0  0  0  0
 12 13  1  0  0  0  0
 13 14  2  0  0  0  0
 14 15  1  0  0  0  0
 15 19  1  0  0  0  0
 16 15  2  0  0  0  0
 17 11  1  0  0  0  0
 18 12  1  0  0  0  0
 20 26  2  0  0  0  0
 21 20  1  0  0  0  0
 21 22  2  0  0  0  0
 22 23  1  0  0  0  0
 22 24  1  0  0  0  0
 24 25  1  0  0  0  0
 26 24  1  0  0  0  0
M  END
>  <minimizedAffinity>
-4.62183094

$$$$
