
 OpenBabel03252502443D

 29 31  0  0  1  0  0  0  0  0999 V2000
   47.2980   35.1150   41.6160 C   0  0  0  0  0  0  0  0  0  0  0  0
   46.7410   35.0110   40.6890 H   0  0  0  0  0  0  0  0  0  0  0  0
   47.0290   36.0930   42.1290 H   0  0  0  0  0  0  0  0  0  0  0  0
   48.7840   35.2240   41.4290 C   0  0  1  0  0  0  0  0  0  0  0  0
   49.6290   35.0650   42.6590 C   0  0  0  0  0  0  0  0  0  0  0  0
   49.6410   34.0890   41.5760 C   0  0  1  0  0  0  0  0  0  0  0  0
   48.9750   36.0950   40.7310 H   0  0  0  0  0  0  0  0  0  0  0  0
   50.3690   35.9110   42.7660 H   0  0  0  0  0  0  0  0  0  0  0  0
   49.1950   34.9270   43.6690 H   0  0  0  0  0  0  0  0  0  0  0  0
   50.5810   34.3070   40.9490 H   0  0  0  0  0  0  0  0  0  0  0  0
   49.6340   32.6700   41.5100 C   0  0  0  0  0  0  0  0  0  0  0  0
   50.0050   31.8280   42.4810 N   0  0  0  0  0  0  0  0  0  0  0  0
   49.8380   30.5580   41.9990 C   0  0  0  0  0  0  0  0  0  0  0  0
   50.0610   29.6650   42.5690 H   0  0  0  0  0  0  0  0  0  0  0  0
   49.3690   30.6630   40.7440 N   0  0  0  0  0  0  0  0  0  0  0  0
   49.1370   29.8750   40.1010 H   0  0  0  0  0  0  0  0  0  0  0  0
   49.2340   31.9360   40.4200 N   0  0  0  0  0  0  0  0  0  0  0  0
   47.1350   33.9980   42.5970 C   0  0  0  0  0  0  0  0  0  0  0  0
   46.8870   33.0280   42.2350 H   0  0  0  0  0  0  0  0  0  0  0  0
   48.0320   34.0800   43.2820 H   0  0  0  0  0  0  0  0  0  0  0  0
   44.5760   35.9080   44.5630 C   0  0  0  0  0  0  0  0  0  0  0  0
   45.4090   35.5260   43.4770 C   0  0  0  0  0  0  0  0  0  0  0  0
   46.1890   34.4180   43.6670 C   0  0  0  0  0  0  0  0  0  0  0  0
   46.1440   33.7350   44.8500 N   0  0  0  0  0  0  0  0  0  0  0  0
   45.3570   34.1160   45.8430 C   0  0  0  0  0  0  0  0  0  0  0  0
   44.5790   35.1930   45.7070 N   0  0  0  0  0  0  0  0  0  0  0  0
   43.9200   36.7610   44.5360 H   0  0  0  0  0  0  0  0  0  0  0  0
   45.2980   36.1740   42.6280 H   0  0  0  0  0  0  0  0  0  0  0  0
   45.3730   33.5310   46.7500 H   0  0  0  0  0  0  0  0  0  0  0  0
  1  3  1  0  0  0  0
  1 18  1  0  0  0  0
  2  1  1  0  0  0  0
  4  7  1  6  0  0  0
  4  6  1  0  0  0  0
  4  1  1  0  0  0  0
  4  5  1  0  0  0  0
  5  8  1  0  0  0  0
  5  9  1  0  0  0  0
  6 10  1  6  0  0  0
  6  5  1  0  0  0  0
 11  6  1  0  0  0  0
 11 12  1  0  0  0  0
 13 12  2  0  0  0  0
 13 14  1  0  0  0  0
 15 13  1  0  0  0  0
 16 15  1  0  0  0  0
 17 15  1  0  0  0  0
 17 11  2  0  0  0  0
 18 20  1  0  0  0  0
 18 23  1  0  0  0  0
 19 18  1  0  0  0  0
 21 26  1  0  0  0  0
 22 23  1  0  0  0  0
 22 21  2  0  0  0  0
 23 24  2  0  0  0  0
 24 25  1  0  0  0  0
 25 29  1  0  0  0  0
 26 25  2  0  0  0  0
 27 21  1  0  0  0  0
 28 22  1  0  0  0  0
M  END
>  <minimizedAffinity>
-4.42138147

>  <minimizedRMSD>
0.688912213

$$$$
