
 OpenBabel03252509313D

 25 26  0  0  0  0  0  0  0  0999 V2000
   48.3040   33.2460   43.3790 O   0  0  0  0  0  0  0  0  0  0  0  0
   47.0740   33.6000   42.8480 C   0  0  0  0  0  0  0  0  0  0  0  0
   46.6690   32.7100   42.3320 H   0  0  0  0  0  0  0  0  0  0  0  0
   47.1510   34.3750   42.0430 H   0  0  0  0  0  0  0  0  0  0  0  0
   45.2560   34.1290   46.0550 C   0  0  0  0  0  0  0  0  0  0  0  0
   46.1110   33.5540   45.0950 C   0  0  0  0  0  0  0  0  0  0  0  0
   46.1930   34.1800   43.8610 C   0  0  0  0  0  0  0  0  0  0  0  0
   45.4500   35.3090   43.6450 N   0  0  0  0  0  0  0  0  0  0  0  0
   44.6420   35.8290   44.5930 C   0  0  0  0  0  0  0  0  0  0  0  0
   44.5530   35.2370   45.7830 N   0  0  0  0  0  0  0  0  0  0  0  0
   45.1250   33.7180   47.0390 H   0  0  0  0  0  0  0  0  0  0  0  0
   46.6570   32.6700   45.3430 H   0  0  0  0  0  0  0  0  0  0  0  0
   44.1400   36.7230   44.2270 H   0  0  0  0  0  0  0  0  0  0  0  0
   50.5040   32.8440   42.0270 O   0  0  0  0  0  0  0  0  0  0  0  0
   49.4950   33.9030   42.3560 P   0  0  2  0  0  0  0  0  0  0  0  0
   50.1480   35.2370   43.1550 O   0  0  0  0  0  0  0  0  0  0  0  0
   50.1910   36.0510   42.6060 H   0  0  0  0  0  0  0  0  0  0  0  0
   48.7430   34.3970   40.9380 O   0  0  0  0  0  0  0  0  0  0  0  0
   48.4180   33.5940   39.8550 C   0  0  0  0  0  0  0  0  0  0  0  0
   49.0140   32.5390   39.2700 N   0  0  0  0  0  0  0  0  0  0  0  0
   48.2820   32.1060   38.2300 C   0  0  0  0  0  0  0  0  0  0  0  0
   48.4730   31.2860   37.5530 H   0  0  0  0  0  0  0  0  0  0  0  0
   47.2250   32.9390   38.2120 N   0  0  0  0  0  0  0  0  0  0  0  0
   46.4490   32.8640   37.5020 H   0  0  0  0  0  0  0  0  0  0  0  0
   47.2660   33.8490   39.1710 N   0  0  0  0  0  0  0  0  0  0  0  0
  2  1  1  0  0  0  0
  2  7  1  0  0  0  0
  3  2  1  0  0  0  0
  4  2  1  0  0  0  0
  5 11  1  0  0  0  0
  6 12  1  0  0  0  0
  6  5  2  0  0  0  0
  7  6  1  0  0  0  0
  8  7  2  0  0  0  0
  8  9  1  0  0  0  0
  9 10  2  0  0  0  0
 10  5  1  0  0  0  0
 13  9  1  0  0  0  0
 15 14  2  6  0  0  0
 15 16  1  0  0  0  0
 15  1  1  0  0  0  0
 17 16  1  0  0  0  0
 18 15  1  0  0  0  0
 19 18  1  0  0  0  0
 20 19  1  0  0  0  0
 21 20  2  0  0  0  0
 22 21  1  0  0  0  0
 23 21  1  0  0  0  0
 23 25  1  0  0  0  0
 24 23  1  0  0  0  0
 25 19  2  0  0  0  0
M  END
>  <minimizedAffinity>
-4.56733799

>  <minimizedRMSD>
1.0619092

$$$$
