
 OpenBabel03252509043D

 46 48  0  0  1  0  0  0  0  0999 V2000
   47.1480   34.1920   43.1010 N   0  0  0  0  0  0  0  0  0  0  0  0
   46.6720   35.4020   42.5400 C   0  0  0  0  0  0  0  0  0  0  0  0
   45.2050   35.6650   42.7590 C   0  0  0  0  0  0  0  0  0  0  0  0
   44.6610   35.1440   44.0700 C   0  0  0  0  0  0  0  0  0  0  0  0
   45.7590   34.5450   44.9190 C   0  0  0  0  0  0  0  0  0  0  0  0
   46.3800   33.4510   43.9780 C   0  0  2  0  0  0  0  0  0  0  0  0
   47.1960   36.2400   43.0810 H   0  0  0  0  0  0  0  0  0  0  0  0
   46.8810   35.5660   41.4810 H   0  0  0  0  0  0  0  0  0  0  0  0
   45.0020   36.7510   42.6300 H   0  0  0  0  0  0  0  0  0  0  0  0
   44.6690   35.1550   41.9220 H   0  0  0  0  0  0  0  0  0  0  0  0
   44.2130   36.0190   44.6210 H   0  0  0  0  0  0  0  0  0  0  0  0
   43.8680   34.4100   43.9330 H   0  0  0  0  0  0  0  0  0  0  0  0
   46.5500   35.2580   45.1630 H   0  0  0  0  0  0  0  0  0  0  0  0
   45.2930   34.0310   45.7790 H   0  0  0  0  0  0  0  0  0  0  0  0
   45.5040   32.8980   43.5820 H   0  0  0  0  0  0  0  0  0  0  0  0
   48.1120   33.5020   42.2800 C   0  0  0  0  0  0  0  0  0  0  0  0
   48.8520   34.2140   41.8730 H   0  0  0  0  0  0  0  0  0  0  0  0
   48.6680   32.8220   42.9870 H   0  0  0  0  0  0  0  0  0  0  0  0
   47.3990   32.6900   41.2670 C   0  0  0  0  0  0  0  0  0  0  0  0
   47.4390   31.6160   41.4930 H   0  0  0  0  0  0  0  0  0  0  0  0
   46.2990   32.9310   41.2190 H   0  0  0  0  0  0  0  0  0  0  0  0
   49.3110   32.2600   38.0620 C   0  0  0  0  0  0  0  0  0  0  0  0
   48.7710   32.0210   39.3390 C   0  0  0  0  0  0  0  0  0  0  0  0
   47.9620   32.9550   39.9200 C   0  0  0  0  0  0  0  0  0  0  0  0
   47.7170   34.0770   39.2300 N   0  0  0  0  0  0  0  0  0  0  0  0
   48.2310   34.3080   38.0100 C   0  0  0  0  0  0  0  0  0  0  0  0
   49.0290   33.4110   37.4130 N   0  0  0  0  0  0  0  0  0  0  0  0
   49.9440   31.4370   37.6990 H   0  0  0  0  0  0  0  0  0  0  0  0
   48.9810   31.1040   39.8810 H   0  0  0  0  0  0  0  0  0  0  0  0
   48.0390   35.2210   37.4380 H   0  0  0  0  0  0  0  0  0  0  0  0
   47.1490   32.7280   44.8750 O   0  0  0  0  0  0  0  0  0  0  0  0
   45.6500   30.6900   44.0690 O   0  0  0  0  0  0  0  0  0  0  0  0
   46.4860   31.2150   45.2320 P   0  0  2  0  0  0  0  0  0  0  0  0
   45.4030   31.4540   46.5220 O   0  0  0  0  0  0  0  0  0  0  0  0
   44.6010   31.9480   46.2460 H   0  0  0  0  0  0  0  0  0  0  0  0
   47.6440   30.1110   45.7120 O   0  0  0  0  0  0  0  0  0  0  0  0
   47.2180   28.8300   45.4320 C   0  0  0  0  0  0  0  0  0  0  0  0
   48.0350   28.2760   44.9620 H   0  0  0  0  0  0  0  0  0  0  0  0
   46.4370   28.9350   44.6220 H   0  0  0  0  0  0  0  0  0  0  0  0
   46.6100   28.1200   46.5760 C   0  0  0  0  0  0  0  0  0  0  0  0
   45.3010   28.2930   46.8730 N   0  0  0  0  0  0  0  0  0  0  0  0
   44.9690   27.5480   47.9530 C   0  0  0  0  0  0  0  0  0  0  0  0
   43.9520   27.5430   48.3620 H   0  0  0  0  0  0  0  0  0  0  0  0
   46.1030   26.9020   48.3270 N   0  0  0  0  0  0  0  0  0  0  0  0
   46.1350   26.2520   49.1420 H   0  0  0  0  0  0  0  0  0  0  0  0
   47.0570   27.2550   47.4990 N   0  0  0  0  0  0  0  0  0  0  0  0
  1  6  1  0  0  0  0
  2  3  1  0  0  0  0
  2  7  1  0  0  0  0
  2  1  1  0  0  0  0
  3  4  1  0  0  0  0
  4 11  1  0  0  0  0
  4  5  1  0  0  0  0
  5 13  1  0  0  0  0
  5 14  1  0  0  0  0
  6 15  1  6  0  0  0
  6 31  1  0  0  0  0
  6  5  1  0  0  0  0
  8  2  1  0  0  0  0
  9  3  1  0  0  0  0
 10  3  1  0  0  0  0
 12  4  1  0  0  0  0
 16 18  1  0  0  0  0
 16  1  1  0  0  0  0
 17 16  1  0  0  0  0
 19 20  1  0  0  0  0
 19 16  1  0  0  0  0
 21 19  1  0  0  0  0
 22 23  1  0  0  0  0
 23 29  1  0  0  0  0
 23 24  2  0  0  0  0
 24 19  1  0  0  0  0
 25 24  1  0  0  0  0
 26 25  2  0  0  0  0
 27 26  1  0  0  0  0
 27 22  2  0  0  0  0
 28 22  1  0  0  0  0
 30 26  1  0  0  0  0
 31 33  1  0  0  0  0
 33 32  2  6  0  0  0
 33 36  1  0  0  0  0
 33 34  1  0  0  0  0
 35 34  1  0  0  0  0
 37 36  1  0  0  0  0
 37 40  1  0  0  0  0
 38 37  1  0  0  0  0
 39 37  1  0  0  0  0
 40 41  1  0  0  0  0
 40 46  2  0  0  0  0
 41 42  2  0  0  0  0
 42 44  1  0  0  0  0
 42 43  1  0  0  0  0
 44 45  1  0  0  0  0
 46 44  1  0  0  0  0
M  END
>  <minimizedAffinity>
-4.12833691

>  <minimizedRMSD>
1.01431251

$$$$
