
 OpenBabel03252508073D

 42 45  0  0  0  0  0  0  0  0999 V2000
   45.8900   35.5710   42.2020 C   0  0  0  0  0  0  0  0  0  0  0  0
   45.9500   34.2040   42.4210 C   0  0  0  0  0  0  0  0  0  0  0  0
   45.4090   33.6630   43.5620 C   0  0  0  0  0  0  0  0  0  0  0  0
   44.8190   34.5430   44.4480 N   0  0  0  0  0  0  0  0  0  0  0  0
   44.7640   35.8560   44.2330 C   0  0  0  0  0  0  0  0  0  0  0  0
   45.3060   36.3560   43.1030 N   0  0  0  0  0  0  0  0  0  0  0  0
   46.3080   36.0420   41.3110 H   0  0  0  0  0  0  0  0  0  0  0  0
   44.3030   36.5250   44.9310 H   0  0  0  0  0  0  0  0  0  0  0  0
   45.3880   32.2990   43.9300 C   0  0  0  0  0  0  0  0  0  0  0  0
   44.7630   31.2960   43.1840 C   0  0  0  0  0  0  0  0  0  0  0  0
   44.6850   29.9820   43.5720 C   0  0  0  0  0  0  0  0  0  0  0  0
   45.2490   29.5890   44.7660 C   0  0  0  0  0  0  0  0  0  0  0  0
   45.8940   30.5980   45.5410 C   0  0  0  0  0  0  0  0  0  0  0  0
   46.4550   30.2160   46.7300 C   0  0  0  0  0  0  0  0  0  0  0  0
   47.0960   31.1400   47.5290 C   0  0  0  0  0  0  0  0  0  0  0  0
   47.1680   32.4770   47.1110 C   0  0  0  0  0  0  0  0  0  0  0  0
   46.5760   32.8190   45.8820 C   0  0  0  0  0  0  0  0  0  0  0  0
   45.9430   31.8820   45.1120 C   0  0  0  0  0  0  0  0  0  0  0  0
   44.3120   31.5770   42.2420 H   0  0  0  0  0  0  0  0  0  0  0  0
   44.1940   29.2370   42.9660 H   0  0  0  0  0  0  0  0  0  0  0  0
   45.2200   28.5710   45.1250 H   0  0  0  0  0  0  0  0  0  0  0  0
   46.4060   29.1890   47.0600 H   0  0  0  0  0  0  0  0  0  0  0  0
   47.5230   30.7870   48.4610 H   0  0  0  0  0  0  0  0  0  0  0  0
   47.6850   33.1120   47.7980 H   0  0  0  0  0  0  0  0  0  0  0  0
   46.7550   33.8620   45.7330 H   0  0  0  0  0  0  0  0  0  0  0  0
   46.5590   33.4440   41.4590 O   0  0  0  0  0  0  0  0  0  0  0  0
   48.0640   31.3570   41.9470 O   0  0  0  0  0  0  0  0  0  0  0  0
   48.1180   32.7990   41.5870 P   0  0  1  0  0  0  0  0  0  0  0  0
   48.9410   32.9090   40.1110 O   0  0  0  0  0  0  0  0  0  0  0  0
   48.2130   33.2830   38.9880 C   0  0  0  0  0  0  0  0  0  0  0  0
   47.2840   32.4890   38.3970 N   0  0  0  0  0  0  0  0  0  0  0  0
   46.7520   33.1250   37.3360 C   0  0  0  0  0  0  0  0  0  0  0  0
   45.9860   32.7640   36.6540 H   0  0  0  0  0  0  0  0  0  0  0  0
   47.3500   34.3290   37.2570 N   0  0  0  0  0  0  0  0  0  0  0  0
   47.1760   35.0950   36.5410 H   0  0  0  0  0  0  0  0  0  0  0  0
   48.2180   34.4050   38.2500 N   0  0  0  0  0  0  0  0  0  0  0  0
   48.9610   33.6830   42.7400 O   0  0  0  0  0  0  0  0  0  0  0  0
   50.1410   34.3810   42.5480 C   0  0  0  0  0  0  0  0  0  0  0  0
   49.7970   35.5770   42.4900 O   0  0  0  0  0  0  0  0  0  0  0  0
   51.2690   33.4830   42.4950 N   0  0  0  0  0  0  0  0  0  0  0  0
   51.4970   32.9480   43.3760 H   0  0  0  0  0  0  0  0  0  0  0  0
   51.9110   33.2750   41.6980 H   0  0  0  0  0  0  0  0  0  0  0  0
  1  2  2  0  0  0  0
  1  6  1  0  0  0  0
  2  3  1  0  0  0  0
  3  9  1  0  0  0  0
  3  4  2  0  0  0  0
  5  4  1  0  0  0  0
  5  8  1  0  0  0  0
  6  5  2  0  0  0  0
  7  1  1  0  0  0  0
  9 18  1  0  0  0  0
 10 11  1  0  0  0  0
 10  9  2  0  0  0  0
 11 12  2  0  0  0  0
 12 21  1  0  0  0  0
 12 13  1  0  0  0  0
 13 14  1  0  0  0  0
 14 22  1  0  0  0  0
 14 15  2  0  0  0  0
 15 23  1  0  0  0  0
 16 15  1  0  0  0  0
 16 24  1  0  0  0  0
 17 16  2  0  0  0  0
 18 13  2  0  0  0  0
 18 17  1  0  0  0  0
 19 10  1  0  0  0  0
 20 11  1  0  0  0  0
 25 17  1  0  0  0  0
 26 28  1  0  0  0  0
 26  2  1  0  0  0  0
 28 27  2  1  0  0  0
 28 37  1  0  0  0  0
 29 28  1  0  0  0  0
 30 29  1  0  0  0  0
 31 30  1  0  0  0  0
 32 31  2  0  0  0  0
 33 32  1  0  0  0  0
 34 32  1  0  0  0  0
 34 36  1  0  0  0  0
 35 34  1  0  0  0  0
 36 30  2  0  0  0  0
 38 37  1  0  0  0  0
 39 38  2  0  0  0  0
 40 38  1  0  0  0  0
 40 41  1  0  0  0  0
 42 40  1  0  0  0  0
M  END
>  <minimizedAffinity>
-5.85462236

>  <minimizedRMSD>
1.13766348

$$$$
