
 OpenBabel03242512533D

 42 46  0  0  1  0  0  0  0  0999 V2000
   36.5810   29.8470   38.4540 N   0  0  0  0  0  0  0  0  0  0  0  0
   36.1890   29.4170   37.1200 C   0  0  0  0  0  0  0  0  0  0  0  0
   34.7280   29.1790   37.4050 C   0  0  0  0  0  0  0  0  0  0  0  0
   34.8230   28.2830   38.6240 C   0  0  0  0  0  0  0  0  0  0  0  0
   35.9500   28.9110   39.4200 C   0  0  1  0  0  0  0  0  0  0  0  0
   36.2890   30.2500   36.4160 H   0  0  0  0  0  0  0  0  0  0  0  0
   36.7200   28.4890   36.8320 H   0  0  0  0  0  0  0  0  0  0  0  0
   34.2600   30.1370   37.6230 H   0  0  0  0  0  0  0  0  0  0  0  0
   34.3200   28.6460   36.5260 H   0  0  0  0  0  0  0  0  0  0  0  0
   35.2310   27.3180   38.2490 H   0  0  0  0  0  0  0  0  0  0  0  0
   33.8870   28.1780   39.1750 H   0  0  0  0  0  0  0  0  0  0  0  0
   35.5220   29.5620   40.1290 H   0  0  0  0  0  0  0  0  0  0  0  0
   36.9930   27.9730   39.7860 C   0  0  0  0  0  0  0  0  0  0  0  0
   37.6010   27.1910   38.8570 N   0  0  0  0  0  0  0  0  0  0  0  0
   38.5730   26.2960   39.1200 C   0  0  0  0  0  0  0  0  0  0  0  0
   38.9830   26.1570   40.3930 N   0  0  0  0  0  0  0  0  0  0  0  0
   38.4260   26.8920   41.3370 C   0  0  0  0  0  0  0  0  0  0  0  0
   38.8890   26.7070   42.6340 C   0  0  0  0  0  0  0  0  0  0  0  0
   38.2950   27.4890   43.6320 C   0  0  0  0  0  0  0  0  0  0  0  0
   37.2870   28.4250   43.4180 C   0  0  0  0  0  0  0  0  0  0  0  0
   36.8900   28.5400   42.1000 C   0  0  0  0  0  0  0  0  0  0  0  0
   37.4160   27.8230   41.0820 C   0  0  0  0  0  0  0  0  0  0  0  0
   38.9890   25.7260   38.3080 H   0  0  0  0  0  0  0  0  0  0  0  0
   39.6600   26.0090   42.8810 H   0  0  0  0  0  0  0  0  0  0  0  0
   38.6790   27.3210   44.6360 H   0  0  0  0  0  0  0  0  0  0  0  0
   36.9050   28.9690   44.2630 H   0  0  0  0  0  0  0  0  0  0  0  0
   36.0960   29.2540   41.9790 H   0  0  0  0  0  0  0  0  0  0  0  0
   37.9460   32.8130   40.2540 C   0  0  0  0  0  0  0  0  0  0  0  0
   37.0640   31.7990   39.9110 C   0  0  0  0  0  0  0  0  0  0  0  0
   37.3960   30.9240   38.8900 C   0  0  0  0  0  0  0  0  0  0  0  0
   38.5820   31.1040   38.2620 N   0  0  0  0  0  0  0  0  0  0  0  0
   39.4470   32.0930   38.5920 C   0  0  0  0  0  0  0  0  0  0  0  0
   39.1210   32.9480   39.5940 N   0  0  0  0  0  0  0  0  0  0  0  0
   37.6530   33.4860   41.0670 H   0  0  0  0  0  0  0  0  0  0  0  0
   36.1480   31.7170   40.4150 H   0  0  0  0  0  0  0  0  0  0  0  0
   40.7030   32.2280   37.8770 C   0  0  0  0  0  0  0  0  0  0  0  0
   41.4330   31.2440   37.3650 N   0  0  0  0  0  0  0  0  0  0  0  0
   42.5280   31.7200   36.7740 C   0  0  0  0  0  0  0  0  0  0  0  0
   43.1960   31.0130   36.3220 H   0  0  0  0  0  0  0  0  0  0  0  0
   42.4680   33.0690   36.9330 N   0  0  0  0  0  0  0  0  0  0  0  0
   43.2510   33.6520   36.5330 H   0  0  0  0  0  0  0  0  0  0  0  0
   41.3480   33.3690   37.6090 N   0  0  0  0  0  0  0  0  0  0  0  0
  1 30  1  0  0  0  0
  1  5  1  0  0  0  0
  2  3  1  0  0  0  0
  2  1  1  0  0  0  0
  3  8  1  0  0  0  0
  3  4  1  0  0  0  0
  4 11  1  0  0  0  0
  4  5  1  0  0  0  0
  5 13  1  0  0  0  0
  5 12  1  1  0  0  0
  6  2  1  0  0  0  0
  7  2  1  0  0  0  0
  9  3  1  0  0  0  0
 10  4  1  0  0  0  0
 13 22  1  0  0  0  0
 14 15  1  0  0  0  0
 14 13  2  0  0  0  0
 15 16  2  0  0  0  0
 16 17  1  0  0  0  0
 17 18  1  0  0  0  0
 18 24  1  0  0  0  0
 18 19  2  0  0  0  0
 19 25  1  0  0  0  0
 20 19  1  0  0  0  0
 20 26  1  0  0  0  0
 21 20  2  0  0  0  0
 22 17  2  0  0  0  0
 22 21  1  0  0  0  0
 23 15  1  0  0  0  0
 27 21  1  0  0  0  0
 28 34  1  0  0  0  0
 29 28  1  0  0  0  0
 29 35  1  0  0  0  0
 30 29  2  0  0  0  0
 31 32  2  0  0  0  0
 31 30  1  0  0  0  0
 32 33  1  0  0  0  0
 33 28  2  0  0  0  0
 36 32  1  0  0  0  0
 37 36  1  0  0  0  0
 38 40  1  0  0  0  0
 38 37  2  0  0  0  0
 39 38  1  0  0  0  0
 40 42  1  0  0  0  0
 41 40  1  0  0  0  0
 42 36  2  0  0  0  0
M  END
>  <minimizedAffinity>
-6.27607632

$$$$

 OpenBabel03242512533D

 42 46  0  0  1  0  0  0  0  0999 V2000
   37.2220   30.3900   39.8570 N   0  0  0  0  0  0  0  0  0  0  0  0
   37.3460   31.7050   40.4670 C   0  0  0  0  0  0  0  0  0  0  0  0
   38.8020   31.9370   40.1560 C   0  0  0  0  0  0  0  0  0  0  0  0
   39.4100   30.6580   40.6970 C   0  0  0  0  0  0  0  0  0  0  0  0
   38.4110   29.6000   40.2720 C   0  0  1  0  0  0  0  0  0  0  0  0
   36.7380   32.4300   39.9130 H   0  0  0  0  0  0  0  0  0  0  0  0
   37.1470   31.6570   41.5550 H   0  0  0  0  0  0  0  0  0  0  0  0
   38.9120   32.0320   39.0770 H   0  0  0  0  0  0  0  0  0  0  0  0
   39.1100   32.8250   40.7400 H   0  0  0  0  0  0  0  0  0  0  0  0
   39.3090   30.7290   41.8030 H   0  0  0  0  0  0  0  0  0  0  0  0
   40.4320   30.4720   40.3610 H   0  0  0  0  0  0  0  0  0  0  0  0
   38.7440   29.1870   39.3620 H   0  0  0  0  0  0  0  0  0  0  0  0
   37.9560   28.7630   41.3640 C   0  0  0  0  0  0  0  0  0  0  0  0
   37.7840   29.2590   42.6150 N   0  0  0  0  0  0  0  0  0  0  0  0
   37.3680   28.5440   43.6790 C   0  0  0  0  0  0  0  0  0  0  0  0
   37.0970   27.2390   43.5020 N   0  0  0  0  0  0  0  0  0  0  0  0
   37.2470   26.7030   42.3050 C   0  0  0  0  0  0  0  0  0  0  0  0
   36.9510   25.3510   42.1790 C   0  0  0  0  0  0  0  0  0  0  0  0
   37.1110   24.7880   40.9070 C   0  0  0  0  0  0  0  0  0  0  0  0
   37.5400   25.4770   39.7770 C   0  0  0  0  0  0  0  0  0  0  0  0
   37.8100   26.8140   39.9970 C   0  0  0  0  0  0  0  0  0  0  0  0
   37.6790   27.4300   41.1920 C   0  0  0  0  0  0  0  0  0  0  0  0
   37.2650   29.0370   44.6290 H   0  0  0  0  0  0  0  0  0  0  0  0
   36.6170   24.7520   42.9990 H   0  0  0  0  0  0  0  0  0  0  0  0
   36.8720   23.7280   40.8430 H   0  0  0  0  0  0  0  0  0  0  0  0
   37.6260   24.9380   38.8510 H   0  0  0  0  0  0  0  0  0  0  0  0
   38.1590   27.3060   39.1080 H   0  0  0  0  0  0  0  0  0  0  0  0
   34.0950   28.8520   38.5320 C   0  0  0  0  0  0  0  0  0  0  0  0
   34.9960   29.3670   39.4520 C   0  0  0  0  0  0  0  0  0  0  0  0
   36.2230   29.8370   39.0140 C   0  0  0  0  0  0  0  0  0  0  0  0
   36.4910   29.7680   37.6880 N   0  0  0  0  0  0  0  0  0  0  0  0
   35.6150   29.2650   36.7850 C   0  0  0  0  0  0  0  0  0  0  0  0
   34.4140   28.8070   37.2160 N   0  0  0  0  0  0  0  0  0  0  0  0
   33.1330   28.4910   38.9120 H   0  0  0  0  0  0  0  0  0  0  0  0
   34.7470   29.3780   40.4710 H   0  0  0  0  0  0  0  0  0  0  0  0
   35.9680   29.2210   35.3780 C   0  0  0  0  0  0  0  0  0  0  0  0
   36.2280   30.2610   34.5940 N   0  0  0  0  0  0  0  0  0  0  0  0
   36.5170   29.8640   33.3560 C   0  0  0  0  0  0  0  0  0  0  0  0
   36.7450   30.6210   32.6310 H   0  0  0  0  0  0  0  0  0  0  0  0
   36.4280   28.5070   33.3800 N   0  0  0  0  0  0  0  0  0  0  0  0
   36.6220   27.9800   32.4870 H   0  0  0  0  0  0  0  0  0  0  0  0
   36.0930   28.1250   34.6220 N   0  0  0  0  0  0  0  0  0  0  0  0
  1  5  1  0  0  0  0
  1  2  1  0  0  0  0
  2  7  1  0  0  0  0
  3  2  1  0  0  0  0
  3  4  1  0  0  0  0
  3  9  1  0  0  0  0
  4 10  1  0  0  0  0
  5 12  1  6  0  0  0
  5  4  1  0  0  0  0
  5 13  1  0  0  0  0
  6  2  1  0  0  0  0
  8  3  1  0  0  0  0
 11  4  1  0  0  0  0
 13 14  1  0  0  0  0
 14 15  2  0  0  0  0
 15 23  1  0  0  0  0
 16 15  1  0  0  0  0
 17 16  2  0  0  0  0
 18 17  1  0  0  0  0
 18 24  1  0  0  0  0
 19 18  2  0  0  0  0
 20 21  2  0  0  0  0
 20 19  1  0  0  0  0
 21 22  1  0  0  0  0
 22 13  2  0  0  0  0
 22 17  1  0  0  0  0
 25 19  1  0  0  0  0
 26 20  1  0  0  0  0
 27 21  1  0  0  0  0
 28 34  1  0  0  0  0
 28 29  1  0  0  0  0
 29 35  1  0  0  0  0
 30 29  2  0  0  0  0
 30  1  1  0  0  0  0
 31 30  1  0  0  0  0
 32 33  1  0  0  0  0
 32 31  2  0  0  0  0
 33 28  2  0  0  0  0
 36 32  1  0  0  0  0
 37 36  1  0  0  0  0
 38 40  1  0  0  0  0
 38 37  2  0  0  0  0
 39 38  1  0  0  0  0
 40 42  1  0  0  0  0
 41 40  1  0  0  0  0
 42 36  2  0  0  0  0
M  END
>  <minimizedAffinity>
-6.01455688

$$$$

 OpenBabel03242512533D

 42 46  0  0  1  0  0  0  0  0999 V2000
   36.7330   29.5770   39.6580 N   0  0  0  0  0  0  0  0  0  0  0  0
   35.3910   29.7820   39.1330 C   0  0  0  0  0  0  0  0  0  0  0  0
   35.6570   29.3360   37.7180 C   0  0  0  0  0  0  0  0  0  0  0  0
   36.8700   30.1810   37.3820 C   0  0  0  0  0  0  0  0  0  0  0  0
   37.6840   30.1300   38.6600 C   0  0  1  0  0  0  0  0  0  0  0  0
   34.6950   29.0810   39.6070 H   0  0  0  0  0  0  0  0  0  0  0  0
   35.1010   30.8490   39.1930 H   0  0  0  0  0  0  0  0  0  0  0  0
   35.8780   28.2700   37.7290 H   0  0  0  0  0  0  0  0  0  0  0  0
   34.7690   29.6270   37.1250 H   0  0  0  0  0  0  0  0  0  0  0  0
   36.4920   31.2260   37.3170 H   0  0  0  0  0  0  0  0  0  0  0  0
   37.4100   29.8540   36.4920 H   0  0  0  0  0  0  0  0  0  0  0  0
   38.3930   29.3570   38.5610 H   0  0  0  0  0  0  0  0  0  0  0  0
   38.0540   31.4380   39.1630 C   0  0  0  0  0  0  0  0  0  0  0  0
   37.1620   32.4600   39.2040 N   0  0  0  0  0  0  0  0  0  0  0  0
   37.4310   33.7020   39.6550 C   0  0  0  0  0  0  0  0  0  0  0  0
   38.6730   33.9610   40.1010 N   0  0  0  0  0  0  0  0  0  0  0  0
   39.5810   33.0040   40.0830 C   0  0  0  0  0  0  0  0  0  0  0  0
   40.8470   33.3270   40.5580 C   0  0  0  0  0  0  0  0  0  0  0  0
   41.8060   32.3080   40.5370 C   0  0  0  0  0  0  0  0  0  0  0  0
   41.5840   31.0120   40.0820 C   0  0  0  0  0  0  0  0  0  0  0  0
   40.2980   30.7820   39.6290 C   0  0  0  0  0  0  0  0  0  0  0  0
   39.3190   31.7120   39.6190 C   0  0  0  0  0  0  0  0  0  0  0  0
   36.6500   34.4400   39.6440 H   0  0  0  0  0  0  0  0  0  0  0  0
   41.0970   34.3000   40.9240 H   0  0  0  0  0  0  0  0  0  0  0  0
   42.7860   32.5930   40.9150 H   0  0  0  0  0  0  0  0  0  0  0  0
   42.3980   30.3110   40.1140 H   0  0  0  0  0  0  0  0  0  0  0  0
   40.1730   29.7790   39.2660 H   0  0  0  0  0  0  0  0  0  0  0  0
   37.8550   28.9820   43.1630 C   0  0  0  0  0  0  0  0  0  0  0  0
   37.4160   29.6720   42.0430 C   0  0  0  0  0  0  0  0  0  0  0  0
   37.1860   28.9830   40.8650 C   0  0  0  0  0  0  0  0  0  0  0  0
   37.4060   27.6460   40.8590 N   0  0  0  0  0  0  0  0  0  0  0  0
   37.8350   26.9670   41.9500 C   0  0  0  0  0  0  0  0  0  0  0  0
   38.0590   27.6440   43.1040 N   0  0  0  0  0  0  0  0  0  0  0  0
   38.0260   29.5580   44.0790 H   0  0  0  0  0  0  0  0  0  0  0  0
   37.2830   30.7110   42.0950 H   0  0  0  0  0  0  0  0  0  0  0  0
   38.0500   25.5330   41.8740 C   0  0  0  0  0  0  0  0  0  0  0  0
   37.4420   24.6830   41.0550 N   0  0  0  0  0  0  0  0  0  0  0  0
   37.8770   23.4390   41.2500 C   0  0  0  0  0  0  0  0  0  0  0  0
   37.4540   22.6630   40.6420 H   0  0  0  0  0  0  0  0  0  0  0  0
   38.8010   23.5300   42.2440 N   0  0  0  0  0  0  0  0  0  0  0  0
   39.2800   22.6450   42.5600 H   0  0  0  0  0  0  0  0  0  0  0  0
   38.9000   24.8150   42.6170 N   0  0  0  0  0  0  0  0  0  0  0  0
  1 30  1  0  0  0  0
  2  7  1  0  0  0  0
  2  6  1  0  0  0  0
  2  1  1  0  0  0  0
  3  8  1  0  0  0  0
  3  2  1  0  0  0  0
  4  3  1  0  0  0  0
  4  5  1  0  0  0  0
  5 12  1  6  0  0  0
  5 13  1  0  0  0  0
  5  1  1  0  0  0  0
  9  3  1  0  0  0  0
 10  4  1  0  0  0  0
 11  4  1  0  0  0  0
 13 14  2  0  0  0  0
 13 22  1  0  0  0  0
 14 15  1  0  0  0  0
 15 16  2  0  0  0  0
 17 16  1  0  0  0  0
 17 18  1  0  0  0  0
 18 24  1  0  0  0  0
 19 18  2  0  0  0  0
 19 25  1  0  0  0  0
 20 26  1  0  0  0  0
 20 19  1  0  0  0  0
 21 20  2  0  0  0  0
 22 21  1  0  0  0  0
 22 17  2  0  0  0  0
 23 15  1  0  0  0  0
 27 21  1  0  0  0  0
 28 34  1  0  0  0  0
 29 35  1  0  0  0  0
 29 28  2  0  0  0  0
 30 29  1  0  0  0  0
 31 30  2  0  0  0  0
 31 32  1  0  0  0  0
 32 33  2  0  0  0  0
 33 28  1  0  0  0  0
 36 32  1  0  0  0  0
 36 42  2  0  0  0  0
 37 38  2  0  0  0  0
 37 36  1  0  0  0  0
 38 40  1  0  0  0  0
 39 38  1  0  0  0  0
 40 41  1  0  0  0  0
 40 42  1  0  0  0  0
M  END
>  <minimizedAffinity>
-5.95688009

$$$$

 OpenBabel03242512533D

 42 46  0  0  1  0  0  0  0  0999 V2000
   36.9000   28.7320   37.6260 N   0  0  0  0  0  0  0  0  0  0  0  0
   36.2920   28.2170   36.4080 C   0  0  0  0  0  0  0  0  0  0  0  0
   34.9460   28.8790   36.5590 C   0  0  0  0  0  0  0  0  0  0  0  0
   34.5830   28.4550   37.9680 C   0  0  0  0  0  0  0  0  0  0  0  0
   35.8960   28.5870   38.7130 C   0  0  1  0  0  0  0  0  0  0  0  0
   36.8030   28.6340   35.5330 H   0  0  0  0  0  0  0  0  0  0  0  0
   36.2260   27.1120   36.4360 H   0  0  0  0  0  0  0  0  0  0  0  0
   35.0790   29.9550   36.4650 H   0  0  0  0  0  0  0  0  0  0  0  0
   34.2840   28.4180   35.8010 H   0  0  0  0  0  0  0  0  0  0  0  0
   34.3900   27.3600   37.9060 H   0  0  0  0  0  0  0  0  0  0  0  0
   33.7580   29.0200   38.4060 H   0  0  0  0  0  0  0  0  0  0  0  0
   35.9130   29.5350   39.1720 H   0  0  0  0  0  0  0  0  0  0  0  0
   36.2770   27.3890   39.4330 C   0  0  0  0  0  0  0  0  0  0  0  0
   36.2170   26.1640   38.8530 N   0  0  0  0  0  0  0  0  0  0  0  0
   36.5500   25.0060   39.4570 C   0  0  0  0  0  0  0  0  0  0  0  0
   36.9780   25.0540   40.7310 N   0  0  0  0  0  0  0  0  0  0  0  0
   37.0550   26.2200   41.3450 C   0  0  0  0  0  0  0  0  0  0  0  0
   37.5050   26.2100   42.6600 C   0  0  0  0  0  0  0  0  0  0  0  0
   37.5860   27.4500   43.3070 C   0  0  0  0  0  0  0  0  0  0  0  0
   37.2530   28.6730   42.7330 C   0  0  0  0  0  0  0  0  0  0  0  0
   36.8160   28.5850   41.4240 C   0  0  0  0  0  0  0  0  0  0  0  0
   36.7130   27.4290   40.7340 C   0  0  0  0  0  0  0  0  0  0  0  0
   36.4650   24.0870   38.9060 H   0  0  0  0  0  0  0  0  0  0  0  0
   37.7800   25.3130   43.1730 H   0  0  0  0  0  0  0  0  0  0  0  0
   37.9420   27.4080   44.3340 H   0  0  0  0  0  0  0  0  0  0  0  0
   37.3560   29.5620   43.3270 H   0  0  0  0  0  0  0  0  0  0  0  0
   36.5480   29.5450   41.0240 H   0  0  0  0  0  0  0  0  0  0  0  0
   40.5680   29.3980   37.6980 C   0  0  0  0  0  0  0  0  0  0  0  0
   39.3720   28.7620   37.3970 C   0  0  0  0  0  0  0  0  0  0  0  0
   38.1830   29.2880   37.8720 C   0  0  0  0  0  0  0  0  0  0  0  0
   38.2420   30.4140   38.6220 N   0  0  0  0  0  0  0  0  0  0  0  0
   39.4070   31.0390   38.9200 C   0  0  0  0  0  0  0  0  0  0  0  0
   40.5710   30.5230   38.4520 N   0  0  0  0  0  0  0  0  0  0  0  0
   41.4890   28.9560   37.3050 H   0  0  0  0  0  0  0  0  0  0  0  0
   39.3830   27.8800   36.8300 H   0  0  0  0  0  0  0  0  0  0  0  0
   39.3980   32.2440   39.7290 C   0  0  0  0  0  0  0  0  0  0  0  0
   40.3300   33.1890   39.7530 N   0  0  0  0  0  0  0  0  0  0  0  0
   40.0070   34.1570   40.6090 C   0  0  0  0  0  0  0  0  0  0  0  0
   40.6890   34.9780   40.7120 H   0  0  0  0  0  0  0  0  0  0  0  0
   38.8120   33.7850   41.1420 N   0  0  0  0  0  0  0  0  0  0  0  0
   38.3670   34.4200   41.8560 H   0  0  0  0  0  0  0  0  0  0  0  0
   38.4490   32.6140   40.5960 N   0  0  0  0  0  0  0  0  0  0  0  0
  1 30  1  0  0  0  0
  1  5  1  0  0  0  0
  2  7  1  0  0  0  0
  2  3  1  0  0  0  0
  2  1  1  0  0  0  0
  3  4  1  0  0  0  0
  4 11  1  0  0  0  0
  4  5  1  0  0  0  0
  5 12  1  1  0  0  0
  5 13  1  0  0  0  0
  6  2  1  0  0  0  0
  8  3  1  0  0  0  0
  9  3  1  0  0  0  0
 10  4  1  0  0  0  0
 13 22  1  0  0  0  0
 14 13  2  0  0  0  0
 14 15  1  0  0  0  0
 15 16  2  0  0  0  0
 16 17  1  0  0  0  0
 17 18  1  0  0  0  0
 18 24  1  0  0  0  0
 18 19  2  0  0  0  0
 19 25  1  0  0  0  0
 20 19  1  0  0  0  0
 20 26  1  0  0  0  0
 21 20  2  0  0  0  0
 22 17  2  0  0  0  0
 22 21  1  0  0  0  0
 23 15  1  0  0  0  0
 27 21  1  0  0  0  0
 28 33  1  0  0  0  0
 29 28  2  0  0  0  0
 29 30  1  0  0  0  0
 30 31  2  0  0  0  0
 31 32  1  0  0  0  0
 32 36  1  0  0  0  0
 33 32  2  0  0  0  0
 34 28  1  0  0  0  0
 35 29  1  0  0  0  0
 36 37  1  0  0  0  0
 36 42  2  0  0  0  0
 37 38  2  0  0  0  0
 38 39  1  0  0  0  0
 38 40  1  0  0  0  0
 40 41  1  0  0  0  0
 42 40  1  0  0  0  0
M  END
>  <minimizedAffinity>
-5.94250584

$$$$

 OpenBabel03242512533D

 42 46  0  0  1  0  0  0  0  0999 V2000
   38.2680   30.3970   38.9640 N   0  0  0  0  0  0  0  0  0  0  0  0
   37.0230   31.0450   38.5790 C   0  0  0  0  0  0  0  0  0  0  0  0
   37.3180   32.4070   39.1530 C   0  0  0  0  0  0  0  0  0  0  0  0
   37.7120   32.0340   40.5680 C   0  0  0  0  0  0  0  0  0  0  0  0
   38.5480   30.7850   40.3710 C   0  0  1  0  0  0  0  0  0  0  0  0
   36.9630   31.1180   37.4880 H   0  0  0  0  0  0  0  0  0  0  0  0
   36.1560   30.5580   39.0680 H   0  0  0  0  0  0  0  0  0  0  0  0
   38.1380   32.8470   38.5900 H   0  0  0  0  0  0  0  0  0  0  0  0
   36.3670   32.9730   39.1200 H   0  0  0  0  0  0  0  0  0  0  0  0
   36.7730   31.6850   41.0540 H   0  0  0  0  0  0  0  0  0  0  0  0
   38.2180   32.8320   41.1160 H   0  0  0  0  0  0  0  0  0  0  0  0
   39.5600   31.0760   40.3340 H   0  0  0  0  0  0  0  0  0  0  0  0
   38.1100   29.6620   41.1760 C   0  0  0  0  0  0  0  0  0  0  0  0
   36.8140   29.2620   41.1890 N   0  0  0  0  0  0  0  0  0  0  0  0
   36.3320   28.2320   41.9120 C   0  0  0  0  0  0  0  0  0  0  0  0
   37.1880   27.5390   42.6820 N   0  0  0  0  0  0  0  0  0  0  0  0
   38.4620   27.8850   42.7080 C   0  0  0  0  0  0  0  0  0  0  0  0
   39.3030   27.1330   43.5200 C   0  0  0  0  0  0  0  0  0  0  0  0
   40.6520   27.5050   43.5430 C   0  0  0  0  0  0  0  0  0  0  0  0
   41.2030   28.5590   42.8210 C   0  0  0  0  0  0  0  0  0  0  0  0
   40.2930   29.2490   42.0430 C   0  0  0  0  0  0  0  0  0  0  0  0
   38.9780   28.9510   41.9660 C   0  0  0  0  0  0  0  0  0  0  0  0
   35.2840   27.9980   41.8490 H   0  0  0  0  0  0  0  0  0  0  0  0
   38.9580   26.3090   44.1060 H   0  0  0  0  0  0  0  0  0  0  0  0
   41.2830   26.8970   44.1890 H   0  0  0  0  0  0  0  0  0  0  0  0
   42.2560   28.7520   42.9180 H   0  0  0  0  0  0  0  0  0  0  0  0
   40.7510   30.0680   41.5190 H   0  0  0  0  0  0  0  0  0  0  0  0
   39.8340   27.4600   37.2830 C   0  0  0  0  0  0  0  0  0  0  0  0
   38.9080   28.1960   38.0070 C   0  0  0  0  0  0  0  0  0  0  0  0
   39.1410   29.5410   38.2430 C   0  0  0  0  0  0  0  0  0  0  0  0
   40.2810   30.0830   37.7510 N   0  0  0  0  0  0  0  0  0  0  0  0
   41.1890   29.3680   37.0430 C   0  0  0  0  0  0  0  0  0  0  0  0
   40.9580   28.0520   36.8130 N   0  0  0  0  0  0  0  0  0  0  0  0
   39.6180   26.4000   37.1140 H   0  0  0  0  0  0  0  0  0  0  0  0
   38.0520   27.7240   38.3860 H   0  0  0  0  0  0  0  0  0  0  0  0
   42.3900   30.0120   36.5440 C   0  0  0  0  0  0  0  0  0  0  0  0
   43.2410   29.5190   35.6510 N   0  0  0  0  0  0  0  0  0  0  0  0
   44.2360   30.3730   35.4190 C   0  0  0  0  0  0  0  0  0  0  0  0
   44.9880   30.0810   34.7110 H   0  0  0  0  0  0  0  0  0  0  0  0
   43.9840   31.4480   36.2130 N   0  0  0  0  0  0  0  0  0  0  0  0
   44.6610   32.2570   36.1850 H   0  0  0  0  0  0  0  0  0  0  0  0
   42.8530   31.2170   36.8950 N   0  0  0  0  0  0  0  0  0  0  0  0
  1  5  1  0  0  0  0
  2  1  1  0  0  0  0
  2  7  1  0  0  0  0
  2  3  1  0  0  0  0
  3  4  1  0  0  0  0
  4 10  1  0  0  0  0
  4 11  1  0  0  0  0
  5 12  1  1  0  0  0
  5  4  1  0  0  0  0
  5 13  1  0  0  0  0
  6  2  1  0  0  0  0
  8  3  1  0  0  0  0
  9  3  1  0  0  0  0
 13 14  2  0  0  0  0
 13 22  1  0  0  0  0
 14 15  1  0  0  0  0
 15 16  2  0  0  0  0
 16 17  1  0  0  0  0
 17 18  1  0  0  0  0
 18 19  2  0  0  0  0
 18 24  1  0  0  0  0
 19 25  1  0  0  0  0
 20 26  1  0  0  0  0
 20 19  1  0  0  0  0
 21 20  2  0  0  0  0
 22 21  1  0  0  0  0
 22 17  2  0  0  0  0
 23 15  1  0  0  0  0
 27 21  1  0  0  0  0
 28 29  1  0  0  0  0
 29 30  2  0  0  0  0
 29 35  1  0  0  0  0
 30  1  1  0  0  0  0
 31 30  1  0  0  0  0
 32 31  2  0  0  0  0
 33 32  1  0  0  0  0
 33 28  2  0  0  0  0
 34 28  1  0  0  0  0
 36 42  2  0  0  0  0
 36 32  1  0  0  0  0
 37 36  1  0  0  0  0
 38 37  2  0  0  0  0
 38 40  1  0  0  0  0
 39 38  1  0  0  0  0
 40 42  1  0  0  0  0
 41 40  1  0  0  0  0
M  END
>  <minimizedAffinity>
-5.88437366

$$$$

 OpenBabel03242512533D

 42 46  0  0  1  0  0  0  0  0999 V2000
   37.3010   25.5800   40.8860 N   0  0  0  0  0  0  0  0  0  0  0  0
   36.4640   25.1130   39.7910 C   0  0  0  0  0  0  0  0  0  0  0  0
   36.1200   23.7610   40.3610 C   0  0  0  0  0  0  0  0  0  0  0  0
   37.5040   23.2380   40.6920 C   0  0  0  0  0  0  0  0  0  0  0  0
   38.2030   24.4580   41.2570 C   0  0  1  0  0  0  0  0  0  0  0  0
   35.5550   25.7220   39.7330 H   0  0  0  0  0  0  0  0  0  0  0  0
   37.0450   25.0420   38.8520 H   0  0  0  0  0  0  0  0  0  0  0  0
   35.5040   23.9070   41.2450 H   0  0  0  0  0  0  0  0  0  0  0  0
   35.6430   23.1890   39.5430 H   0  0  0  0  0  0  0  0  0  0  0  0
   37.9910   23.0510   39.7080 H   0  0  0  0  0  0  0  0  0  0  0  0
   37.5070   22.3700   41.3540 H   0  0  0  0  0  0  0  0  0  0  0  0
   38.1130   24.4260   42.3060 H   0  0  0  0  0  0  0  0  0  0  0  0
   39.4680   24.7510   40.6140 C   0  0  0  0  0  0  0  0  0  0  0  0
   39.5990   24.7270   39.2640 N   0  0  0  0  0  0  0  0  0  0  0  0
   40.7410   24.9840   38.5940 C   0  0  0  0  0  0  0  0  0  0  0  0
   41.8400   25.2910   39.3050 N   0  0  0  0  0  0  0  0  0  0  0  0
   41.7690   25.3290   40.6230 C   0  0  0  0  0  0  0  0  0  0  0  0
   42.9350   25.6530   41.3070 C   0  0  0  0  0  0  0  0  0  0  0  0
   42.8550   25.6920   42.7040 C   0  0  0  0  0  0  0  0  0  0  0  0
   41.7060   25.4330   43.4450 C   0  0  0  0  0  0  0  0  0  0  0  0
   40.5970   25.1200   42.6820 C   0  0  0  0  0  0  0  0  0  0  0  0
   40.5950   25.0640   41.3320 C   0  0  0  0  0  0  0  0  0  0  0  0
   40.7360   24.9370   37.5210 H   0  0  0  0  0  0  0  0  0  0  0  0
   43.8580   25.8650   40.8110 H   0  0  0  0  0  0  0  0  0  0  0  0
   43.7840   25.9480   43.2090 H   0  0  0  0  0  0  0  0  0  0  0  0
   41.7630   25.4930   44.5170 H   0  0  0  0  0  0  0  0  0  0  0  0
   39.7380   24.9050   43.2900 H   0  0  0  0  0  0  0  0  0  0  0  0
   37.5470   28.2520   43.4750 C   0  0  0  0  0  0  0  0  0  0  0  0
   37.5030   26.9770   42.9290 C   0  0  0  0  0  0  0  0  0  0  0  0
   37.3540   26.8280   41.5600 C   0  0  0  0  0  0  0  0  0  0  0  0
   37.2560   27.9490   40.8070 N   0  0  0  0  0  0  0  0  0  0  0  0
   37.2980   29.1960   41.3360 C   0  0  0  0  0  0  0  0  0  0  0  0
   37.4440   29.3400   42.6760 N   0  0  0  0  0  0  0  0  0  0  0  0
   37.6660   28.3330   44.5610 H   0  0  0  0  0  0  0  0  0  0  0  0
   37.5620   26.1410   43.5590 H   0  0  0  0  0  0  0  0  0  0  0  0
   37.1860   30.3560   40.4700 C   0  0  0  0  0  0  0  0  0  0  0  0
   37.5210   30.4220   39.1870 N   0  0  0  0  0  0  0  0  0  0  0  0
   37.2890   31.6370   38.6940 C   0  0  0  0  0  0  0  0  0  0  0  0
   37.5220   31.8090   37.6610 H   0  0  0  0  0  0  0  0  0  0  0  0
   36.7850   32.3580   39.7320 N   0  0  0  0  0  0  0  0  0  0  0  0
   36.5280   33.3660   39.5590 H   0  0  0  0  0  0  0  0  0  0  0  0
   36.7260   31.5640   40.8120 N   0  0  0  0  0  0  0  0  0  0  0  0
  1  5  1  0  0  0  0
  1 30  1  0  0  0  0
  2  3  1  0  0  0  0
  2  1  1  0  0  0  0
  3  4  1  0  0  0  0
  3  8  1  0  0  0  0
  4  5  1  0  0  0  0
  4 11  1  0  0  0  0
  5 12  1  1  0  0  0
  6  2  1  0  0  0  0
  7  2  1  0  0  0  0
  9  3  1  0  0  0  0
 10  4  1  0  0  0  0
 13  5  1  0  0  0  0
 13 22  1  0  0  0  0
 14 13  2  0  0  0  0
 15 14  1  0  0  0  0
 15 16  2  0  0  0  0
 16 17  1  0  0  0  0
 17 18  2  0  0  0  0
 17 22  1  0  0  0  0
 18 19  1  0  0  0  0
 19 25  1  0  0  0  0
 19 20  2  0  0  0  0
 20 26  1  0  0  0  0
 21 27  1  0  0  0  0
 21 20  1  0  0  0  0
 22 21  2  0  0  0  0
 23 15  1  0  0  0  0
 24 18  1  0  0  0  0
 28 34  1  0  0  0  0
 29 28  1  0  0  0  0
 29 35  1  0  0  0  0
 30 29  2  0  0  0  0
 31 32  2  0  0  0  0
 31 30  1  0  0  0  0
 32 33  1  0  0  0  0
 33 28  2  0  0  0  0
 36 42  2  0  0  0  0
 36 32  1  0  0  0  0
 37 36  1  0  0  0  0
 38 37  2  0  0  0  0
 38 40  1  0  0  0  0
 39 38  1  0  0  0  0
 40 42  1  0  0  0  0
 41 40  1  0  0  0  0
M  END
>  <minimizedAffinity>
-5.83475351

$$$$

 OpenBabel03242512533D

 42 46  0  0  1  0  0  0  0  0999 V2000
   39.6850   30.2210   41.2510 N   0  0  0  0  0  0  0  0  0  0  0  0
   40.4420   30.8490   42.3240 C   0  0  0  0  0  0  0  0  0  0  0  0
   41.7640   30.1760   42.0590 C   0  0  0  0  0  0  0  0  0  0  0  0
   41.3360   28.7230   42.0210 C   0  0  0  0  0  0  0  0  0  0  0  0
   40.0250   28.7750   41.2620 C   0  0  1  0  0  0  0  0  0  0  0  0
   40.5380   31.9230   42.1320 H   0  0  0  0  0  0  0  0  0  0  0  0
   40.0210   30.5810   43.3130 H   0  0  0  0  0  0  0  0  0  0  0  0
   42.1430   30.5280   41.1010 H   0  0  0  0  0  0  0  0  0  0  0  0
   42.4090   30.3990   42.9310 H   0  0  0  0  0  0  0  0  0  0  0  0
   41.0590   28.4700   43.0690 H   0  0  0  0  0  0  0  0  0  0  0  0
   42.0790   28.0490   41.5890 H   0  0  0  0  0  0  0  0  0  0  0  0
   40.2290   28.5760   40.2480 H   0  0  0  0  0  0  0  0  0  0  0  0
   38.9290   28.1260   41.9550 C   0  0  0  0  0  0  0  0  0  0  0  0
   38.2830   28.7320   42.9840 N   0  0  0  0  0  0  0  0  0  0  0  0
   37.2610   28.1930   43.6770 C   0  0  0  0  0  0  0  0  0  0  0  0
   36.8370   26.9640   43.3340 N   0  0  0  0  0  0  0  0  0  0  0  0
   37.4310   26.3280   42.3410 C   0  0  0  0  0  0  0  0  0  0  0  0
   36.9510   25.0610   42.0290 C   0  0  0  0  0  0  0  0  0  0  0  0
   37.5830   24.3910   40.9740 C   0  0  0  0  0  0  0  0  0  0  0  0
   38.6430   24.8980   40.2280 C   0  0  0  0  0  0  0  0  0  0  0  0
   39.0520   26.1610   40.6090 C   0  0  0  0  0  0  0  0  0  0  0  0
   38.4920   26.8710   41.6130 C   0  0  0  0  0  0  0  0  0  0  0  0
   36.8180   28.7600   44.4760 H   0  0  0  0  0  0  0  0  0  0  0  0
   36.1410   24.6020   42.5540 H   0  0  0  0  0  0  0  0  0  0  0  0
   37.1850   23.4030   40.7550 H   0  0  0  0  0  0  0  0  0  0  0  0
   39.0500   24.2910   39.4390 H   0  0  0  0  0  0  0  0  0  0  0  0
   39.8850   26.5080   40.0260 H   0  0  0  0  0  0  0  0  0  0  0  0
   37.1960   32.3660   39.4890 C   0  0  0  0  0  0  0  0  0  0  0  0
   38.0590   31.9350   40.4860 C   0  0  0  0  0  0  0  0  0  0  0  0
   38.7710   30.7600   40.3090 C   0  0  0  0  0  0  0  0  0  0  0  0
   38.5870   30.0750   39.1550 N   0  0  0  0  0  0  0  0  0  0  0  0
   37.7440   30.4920   38.1780 C   0  0  0  0  0  0  0  0  0  0  0  0
   37.0490   31.6430   38.3530 N   0  0  0  0  0  0  0  0  0  0  0  0
   36.6490   33.2990   39.6610 H   0  0  0  0  0  0  0  0  0  0  0  0
   38.1480   32.4910   41.3700 H   0  0  0  0  0  0  0  0  0  0  0  0
   37.5950   29.7080   36.9650 C   0  0  0  0  0  0  0  0  0  0  0  0
   36.7180   29.9170   35.9910 N   0  0  0  0  0  0  0  0  0  0  0  0
   36.8540   29.0110   35.0240 C   0  0  0  0  0  0  0  0  0  0  0  0
   36.1950   29.0800   34.1800 H   0  0  0  0  0  0  0  0  0  0  0  0
   37.8700   28.2010   35.4270 N   0  0  0  0  0  0  0  0  0  0  0  0
   38.1480   27.4010   34.7980 H   0  0  0  0  0  0  0  0  0  0  0  0
   38.3160   28.6370   36.6150 N   0  0  0  0  0  0  0  0  0  0  0  0
  1  5  1  0  0  0  0
  1  2  1  0  0  0  0
  2  7  1  0  0  0  0
  3  2  1  0  0  0  0
  3  9  1  0  0  0  0
  4  3  1  0  0  0  0
  4 10  1  0  0  0  0
  5 12  1  6  0  0  0
  5 13  1  0  0  0  0
  5  4  1  0  0  0  0
  6  2  1  0  0  0  0
  8  3  1  0  0  0  0
 11  4  1  0  0  0  0
 13 14  1  0  0  0  0
 14 15  2  0  0  0  0
 15 23  1  0  0  0  0
 16 15  1  0  0  0  0
 17 16  2  0  0  0  0
 18 17  1  0  0  0  0
 18 24  1  0  0  0  0
 19 18  2  0  0  0  0
 20 21  2  0  0  0  0
 20 19  1  0  0  0  0
 21 22  1  0  0  0  0
 22 13  2  0  0  0  0
 22 17  1  0  0  0  0
 25 19  1  0  0  0  0
 26 20  1  0  0  0  0
 27 21  1  0  0  0  0
 28 34  1  0  0  0  0
 28 29  1  0  0  0  0
 29 35  1  0  0  0  0
 30 29  2  0  0  0  0
 30  1  1  0  0  0  0
 31 30  1  0  0  0  0
 32 33  1  0  0  0  0
 32 31  2  0  0  0  0
 33 28  2  0  0  0  0
 36 32  1  0  0  0  0
 37 36  1  0  0  0  0
 38 40  1  0  0  0  0
 38 37  2  0  0  0  0
 39 38  1  0  0  0  0
 40 42  1  0  0  0  0
 41 40  1  0  0  0  0
 42 36  2  0  0  0  0
M  END
>  <minimizedAffinity>
-5.83201504

$$$$

 OpenBabel03242512533D

 42 46  0  0  1  0  0  0  0  0999 V2000
   37.2640   25.3730   38.2900 N   0  0  0  0  0  0  0  0  0  0  0  0
   37.6010   24.1280   37.6160 C   0  0  0  0  0  0  0  0  0  0  0  0
   36.4440   23.3040   38.1220 C   0  0  0  0  0  0  0  0  0  0  0  0
   36.5550   23.5530   39.6130 C   0  0  0  0  0  0  0  0  0  0  0  0
   36.8930   25.0290   39.6870 C   0  0  1  0  0  0  0  0  0  0  0  0
   37.5070   24.2550   36.5320 H   0  0  0  0  0  0  0  0  0  0  0  0
   38.5790   23.7420   37.9630 H   0  0  0  0  0  0  0  0  0  0  0  0
   35.5260   23.7040   37.6960 H   0  0  0  0  0  0  0  0  0  0  0  0
   36.6680   22.2540   37.8570 H   0  0  0  0  0  0  0  0  0  0  0  0
   37.4810   23.0240   39.9320 H   0  0  0  0  0  0  0  0  0  0  0  0
   35.6690   23.2660   40.1810 H   0  0  0  0  0  0  0  0  0  0  0  0
   35.9940   25.5600   39.8260 H   0  0  0  0  0  0  0  0  0  0  0  0
   38.0720   25.3140   40.4810 C   0  0  0  0  0  0  0  0  0  0  0  0
   39.2700   24.7400   40.2020 N   0  0  0  0  0  0  0  0  0  0  0  0
   40.4070   24.9520   40.8940 C   0  0  0  0  0  0  0  0  0  0  0  0
   40.3670   25.7940   41.9410 N   0  0  0  0  0  0  0  0  0  0  0  0
   39.2270   26.3800   42.2580 C   0  0  0  0  0  0  0  0  0  0  0  0
   39.2430   27.2420   43.3480 C   0  0  0  0  0  0  0  0  0  0  0  0
   38.0320   27.8610   43.6800 C   0  0  0  0  0  0  0  0  0  0  0  0
   36.8300   27.6760   43.0030 C   0  0  0  0  0  0  0  0  0  0  0  0
   36.9090   26.8040   41.9350 C   0  0  0  0  0  0  0  0  0  0  0  0
   38.0390   26.1700   41.5520 C   0  0  0  0  0  0  0  0  0  0  0  0
   41.3040   24.4460   40.5880 H   0  0  0  0  0  0  0  0  0  0  0  0
   40.1260   27.4360   43.9200 H   0  0  0  0  0  0  0  0  0  0  0  0
   38.0790   28.5280   44.5380 H   0  0  0  0  0  0  0  0  0  0  0  0
   35.9610   28.2060   43.3490 H   0  0  0  0  0  0  0  0  0  0  0  0
   35.9580   26.6700   41.4530 H   0  0  0  0  0  0  0  0  0  0  0  0
   37.4280   28.4440   36.1830 C   0  0  0  0  0  0  0  0  0  0  0  0
   37.4720   27.0990   36.5170 C   0  0  0  0  0  0  0  0  0  0  0  0
   37.2500   26.7150   37.8280 C   0  0  0  0  0  0  0  0  0  0  0  0
   36.9980   27.6860   38.7390 N   0  0  0  0  0  0  0  0  0  0  0  0
   36.9540   29.0020   38.4180 C   0  0  0  0  0  0  0  0  0  0  0  0
   37.1700   29.3750   37.1320 N   0  0  0  0  0  0  0  0  0  0  0  0
   37.6070   28.7120   35.1360 H   0  0  0  0  0  0  0  0  0  0  0  0
   37.6930   26.3880   35.7780 H   0  0  0  0  0  0  0  0  0  0  0  0
   36.6770   29.9900   39.4440 C   0  0  0  0  0  0  0  0  0  0  0  0
   37.3290   31.1310   39.6410 N   0  0  0  0  0  0  0  0  0  0  0  0
   36.8150   31.8020   40.6700 C   0  0  0  0  0  0  0  0  0  0  0  0
   37.2620   32.7440   40.9240 H   0  0  0  0  0  0  0  0  0  0  0  0
   35.7930   31.0320   41.1310 N   0  0  0  0  0  0  0  0  0  0  0  0
   35.2400   31.3830   41.9580 H   0  0  0  0  0  0  0  0  0  0  0  0
   35.7180   29.9270   40.3730 N   0  0  0  0  0  0  0  0  0  0  0  0
  1  5  1  0  0  0  0
  2  7  1  0  0  0  0
  2  3  1  0  0  0  0
  2  1  1  0  0  0  0
  3  4  1  0  0  0  0
  4  5  1  0  0  0  0
  4 10  1  0  0  0  0
  4 11  1  0  0  0  0
  5 12  1  1  0  0  0
  5 13  1  0  0  0  0
  6  2  1  0  0  0  0
  8  3  1  0  0  0  0
  9  3  1  0  0  0  0
 13 22  1  0  0  0  0
 14 13  2  0  0  0  0
 14 15  1  0  0  0  0
 15 16  2  0  0  0  0
 16 17  1  0  0  0  0
 17 18  1  0  0  0  0
 18 19  2  0  0  0  0
 18 24  1  0  0  0  0
 19 25  1  0  0  0  0
 20 26  1  0  0  0  0
 20 19  1  0  0  0  0
 21 20  2  0  0  0  0
 22 21  1  0  0  0  0
 22 17  2  0  0  0  0
 23 15  1  0  0  0  0
 27 21  1  0  0  0  0
 28 29  2  0  0  0  0
 28 33  1  0  0  0  0
 29 30  1  0  0  0  0
 30  1  1  0  0  0  0
 30 31  2  0  0  0  0
 32 31  1  0  0  0  0
 32 36  1  0  0  0  0
 33 32  2  0  0  0  0
 34 28  1  0  0  0  0
 35 29  1  0  0  0  0
 36 37  1  0  0  0  0
 36 42  2  0  0  0  0
 37 38  2  0  0  0  0
 38 39  1  0  0  0  0
 38 40  1  0  0  0  0
 40 41  1  0  0  0  0
 42 40  1  0  0  0  0
M  END
>  <minimizedAffinity>
-5.81544399

$$$$

 OpenBabel03242512533D

 42 46  0  0  1  0  0  0  0  0999 V2000
   37.6170   25.7170   38.3130 N   0  0  0  0  0  0  0  0  0  0  0  0
   38.3680   24.9460   37.3340 C   0  0  0  0  0  0  0  0  0  0  0  0
   37.7040   23.6140   37.5730 C   0  0  0  0  0  0  0  0  0  0  0  0
   37.8470   23.4980   39.0780 C   0  0  0  0  0  0  0  0  0  0  0  0
   37.5560   24.9060   39.5570 C   0  0  1  0  0  0  0  0  0  0  0  0
   38.1260   25.2930   36.3230 H   0  0  0  0  0  0  0  0  0  0  0  0
   39.4460   24.9320   37.5830 H   0  0  0  0  0  0  0  0  0  0  0  0
   36.6660   23.6840   37.2540 H   0  0  0  0  0  0  0  0  0  0  0  0
   38.3120   22.8600   37.0370 H   0  0  0  0  0  0  0  0  0  0  0  0
   38.9340   23.3440   39.2600 H   0  0  0  0  0  0  0  0  0  0  0  0
   37.2150   22.7300   39.5290 H   0  0  0  0  0  0  0  0  0  0  0  0
   36.5370   24.9550   39.8160 H   0  0  0  0  0  0  0  0  0  0  0  0
   38.5860   25.4470   40.4220 C   0  0  0  0  0  0  0  0  0  0  0  0
   39.9020   25.2060   40.1940 N   0  0  0  0  0  0  0  0  0  0  0  0
   40.9140   25.6710   40.9530 C   0  0  0  0  0  0  0  0  0  0  0  0
   40.6120   26.4330   42.0190 N   0  0  0  0  0  0  0  0  0  0  0  0
   39.3470   26.6990   42.2870 C   0  0  0  0  0  0  0  0  0  0  0  0
   39.0930   27.4940   43.4000 C   0  0  0  0  0  0  0  0  0  0  0  0
   37.7500   27.7730   43.6800 C   0  0  0  0  0  0  0  0  0  0  0  0
   36.6680   27.3180   42.9330 C   0  0  0  0  0  0  0  0  0  0  0  0
   37.0150   26.5370   41.8480 C   0  0  0  0  0  0  0  0  0  0  0  0
   38.2860   26.2250   41.5120 C   0  0  0  0  0  0  0  0  0  0  0  0
   41.9240   25.4200   40.6840 H   0  0  0  0  0  0  0  0  0  0  0  0
   39.8690   27.8820   44.0240 H   0  0  0  0  0  0  0  0  0  0  0  0
   37.5860   28.3960   44.5560 H   0  0  0  0  0  0  0  0  0  0  0  0
   35.6780   27.5970   43.2450 H   0  0  0  0  0  0  0  0  0  0  0  0
   36.1530   26.1870   41.3110 H   0  0  0  0  0  0  0  0  0  0  0  0
   35.1790   28.5380   38.3040 C   0  0  0  0  0  0  0  0  0  0  0  0
   35.6570   27.2390   38.3990 C   0  0  0  0  0  0  0  0  0  0  0  0
   37.0100   26.9970   38.2330 C   0  0  0  0  0  0  0  0  0  0  0  0
   37.8160   28.0560   37.9790 N   0  0  0  0  0  0  0  0  0  0  0  0
   37.3550   29.3260   37.8830 C   0  0  0  0  0  0  0  0  0  0  0  0
   36.0290   29.5600   38.0480 N   0  0  0  0  0  0  0  0  0  0  0  0
   34.1040   28.6930   38.4420 H   0  0  0  0  0  0  0  0  0  0  0  0
   34.9870   26.4520   38.5770 H   0  0  0  0  0  0  0  0  0  0  0  0
   38.2750   30.4150   37.6090 C   0  0  0  0  0  0  0  0  0  0  0  0
   39.5290   30.5180   38.0330 N   0  0  0  0  0  0  0  0  0  0  0  0
   40.0890   31.6450   37.5970 C   0  0  0  0  0  0  0  0  0  0  0  0
   41.1060   31.8370   37.8780 H   0  0  0  0  0  0  0  0  0  0  0  0
   39.1260   32.2680   36.8650 N   0  0  0  0  0  0  0  0  0  0  0  0
   39.3620   33.1950   36.4190 H   0  0  0  0  0  0  0  0  0  0  0  0
   38.0220   31.5070   36.8790 N   0  0  0  0  0  0  0  0  0  0  0  0
  1  5  1  0  0  0  0
  2  3  1  0  0  0  0
  2  7  1  0  0  0  0
  2  1  1  0  0  0  0
  3  4  1  0  0  0  0
  4 10  1  0  0  0  0
  4 11  1  0  0  0  0
  4  5  1  0  0  0  0
  5 12  1  1  0  0  0
  5 13  1  0  0  0  0
  6  2  1  0  0  0  0
  8  3  1  0  0  0  0
  9  3  1  0  0  0  0
 13 22  1  0  0  0  0
 14 13  2  0  0  0  0
 14 15  1  0  0  0  0
 15 16  2  0  0  0  0
 16 17  1  0  0  0  0
 17 18  1  0  0  0  0
 18 19  2  0  0  0  0
 18 24  1  0  0  0  0
 19 25  1  0  0  0  0
 20 26  1  0  0  0  0
 20 19  1  0  0  0  0
 21 20  2  0  0  0  0
 22 21  1  0  0  0  0
 22 17  2  0  0  0  0
 23 15  1  0  0  0  0
 27 21  1  0  0  0  0
 28 29  1  0  0  0  0
 28 34  1  0  0  0  0
 29 35  1  0  0  0  0
 30  1  1  0  0  0  0
 30 29  2  0  0  0  0
 31 30  1  0  0  0  0
 32 31  2  0  0  0  0
 32 33  1  0  0  0  0
 33 28  2  0  0  0  0
 36 32  1  0  0  0  0
 36 37  1  0  0  0  0
 38 39  1  0  0  0  0
 38 37  2  0  0  0  0
 40 42  1  0  0  0  0
 40 38  1  0  0  0  0
 41 40  1  0  0  0  0
 42 36  2  0  0  0  0
M  END
>  <minimizedAffinity>
-5.61243248

$$$$
