
 OpenBabel03252508163D

 35 38  0  0  1  0  0  0  0  0999 V2000
   37.5120   29.0180   41.5410 C   0  0  0  0  0  0  0  0  0  0  0  0
   38.3170   28.3860   41.1470 H   0  0  0  0  0  0  0  0  0  0  0  0
   36.6090   28.8730   40.9040 H   0  0  0  0  0  0  0  0  0  0  0  0
   37.2450   28.7250   42.9930 C   0  0  1  0  0  0  0  0  0  0  0  0
   36.6360   27.4010   43.2960 C   0  0  0  0  0  0  0  0  0  0  0  0
   38.0130   27.6580   43.6760 C   0  0  1  0  0  0  0  0  0  0  0  0
   36.9780   29.5890   43.6250 H   0  0  0  0  0  0  0  0  0  0  0  0
   36.3630   26.7490   42.4230 H   0  0  0  0  0  0  0  0  0  0  0  0
   35.8170   27.3900   44.0540 H   0  0  0  0  0  0  0  0  0  0  0  0
   38.1730   27.7770   44.7910 H   0  0  0  0  0  0  0  0  0  0  0  0
   39.1960   27.1020   42.9810 C   0  0  0  0  0  0  0  0  0  0  0  0
   40.2520   26.4560   43.9120 C   0  0  0  0  0  0  0  0  0  0  0  0
   40.5500   27.7800   43.3030 C   0  0  0  0  0  0  0  0  0  0  0  0
   39.0870   26.6510   41.9760 H   0  0  0  0  0  0  0  0  0  0  0  0
   40.0100   26.4030   44.9830 H   0  0  0  0  0  0  0  0  0  0  0  0
   40.7660   25.5690   43.4580 H   0  0  0  0  0  0  0  0  0  0  0  0
   41.2530   27.8040   42.4190 H   0  0  0  0  0  0  0  0  0  0  0  0
   40.4880   28.6770   43.9200 H   0  0  0  0  0  0  0  0  0  0  0  0
   38.8680   30.7200   40.6240 C   0  0  0  0  0  3  0  0  0  0  0  0
   37.8520   30.4870   41.3610 C   0  0  0  0  0  3  0  0  0  0  0  0
   38.9790   34.4010   40.6420 C   0  0  0  0  0  0  0  0  0  0  0  0
   40.1160   34.6890   39.9010 C   0  0  0  0  0  0  0  0  0  0  0  0
   40.8200   33.6210   39.4300 C   0  0  0  0  0  0  0  0  0  0  0  0
   40.3960   32.3560   39.6930 N   0  0  0  0  0  0  0  0  0  0  0  0
   39.2860   32.1040   40.4130 C   0  0  0  0  0  0  0  0  0  0  0  0
   38.5960   33.1520   40.8780 N   0  0  0  0  0  0  0  0  0  0  0  0
   38.3200   35.1340   41.0810 H   0  0  0  0  0  0  0  0  0  0  0  0
   40.3770   35.7050   39.7420 H   0  0  0  0  0  0  0  0  0  0  0  0
   42.0290   33.8510   38.6420 C   0  0  0  0  0  0  0  0  0  0  0  0
   43.2770   33.8720   39.1730 N   0  0  0  0  0  0  0  0  0  0  0  0
   44.1560   34.1110   38.1610 C   0  0  0  0  0  0  0  0  0  0  0  0
   45.2380   34.1890   38.2440 H   0  0  0  0  0  0  0  0  0  0  0  0
   43.4510   34.2340   37.0130 N   0  0  0  0  0  0  0  0  0  0  0  0
   43.8260   34.4230   36.0430 H   0  0  0  0  0  0  0  0  0  0  0  0
   42.1560   34.0750   37.3220 N   0  0  0  0  0  0  0  0  0  0  0  0
  1  4  1  0  0  0  0
  2  1  1  0  0  0  0
  3  1  1  0  0  0  0
  4  5  1  0  0  0  0
  4  7  1  1  0  0  0
  4  6  1  0  0  0  0
  5  6  1  0  0  0  0
  5  9  1  0  0  0  0
  6 10  1  1  0  0  0
  8  5  1  0  0  0  0
 11 13  1  0  0  0  0
 11  6  1  0  0  0  0
 11 12  1  0  0  0  0
 12 15  1  0  0  0  0
 13 12  1  0  0  0  0
 13 18  1  0  0  0  0
 14 11  1  0  0  0  0
 16 12  1  0  0  0  0
 17 13  1  0  0  0  0
 19 20  2  0  0  0  0
 20  1  1  0  0  0  0
 21 26  1  0  0  0  0
 21 27  1  0  0  0  0
 22 21  2  0  0  0  0
 23 24  2  0  0  0  0
 23 22  1  0  0  0  0
 24 25  1  0  0  0  0
 25 19  1  0  0  0  0
 25 26  2  0  0  0  0
 28 22  1  0  0  0  0
 29 30  1  0  0  0  0
 29 23  1  0  0  0  0
 31 32  1  0  0  0  0
 31 30  2  0  0  0  0
 33 35  1  0  0  0  0
 33 31  1  0  0  0  0
 34 33  1  0  0  0  0
 35 29  2  0  0  0  0
M  END
>  <minimizedAffinity>
-5.64659691

$$$$

 OpenBabel03252508163D

 35 38  0  0  1  0  0  0  0  0999 V2000
   38.9880   26.8410   43.6150 C   0  0  0  0  0  0  0  0  0  0  0  0
   38.0980   26.2470   43.8520 H   0  0  0  0  0  0  0  0  0  0  0  0
   39.5150   27.0780   44.5670 H   0  0  0  0  0  0  0  0  0  0  0  0
   39.8750   26.1300   42.6280 C   0  0  1  0  0  0  0  0  0  0  0  0
   40.4370   24.8250   43.0700 C   0  0  0  0  0  0  0  0  0  0  0  0
   39.4250   24.8510   42.0300 C   0  0  1  0  0  0  0  0  0  0  0  0
   40.4810   26.7710   41.9650 H   0  0  0  0  0  0  0  0  0  0  0  0
   40.2130   24.4990   44.1220 H   0  0  0  0  0  0  0  0  0  0  0  0
   41.5110   24.6370   42.8310 H   0  0  0  0  0  0  0  0  0  0  0  0
   39.8150   24.6050   40.9960 H   0  0  0  0  0  0  0  0  0  0  0  0
   38.0110   24.4560   42.2210 C   0  0  0  0  0  0  0  0  0  0  0  0
   37.4520   23.5010   41.1380 C   0  0  0  0  0  0  0  0  0  0  0  0
   37.0240   24.9260   41.1250 C   0  0  0  0  0  0  0  0  0  0  0  0
   37.6040   24.3300   43.2430 H   0  0  0  0  0  0  0  0  0  0  0  0
   38.1560   23.1480   40.3700 H   0  0  0  0  0  0  0  0  0  0  0  0
   36.7110   22.7590   41.5350 H   0  0  0  0  0  0  0  0  0  0  0  0
   35.9980   25.1680   41.5290 H   0  0  0  0  0  0  0  0  0  0  0  0
   37.4420   25.6020   40.3780 H   0  0  0  0  0  0  0  0  0  0  0  0
   38.1910   28.2030   41.8580 C   0  0  0  0  0  3  0  0  0  0  0  0
   38.5900   28.2010   43.0700 C   0  0  0  0  0  3  0  0  0  0  0  0
   36.3170   31.2260   40.9020 C   0  0  0  0  0  0  0  0  0  0  0  0
   37.1440   31.8310   39.9670 C   0  0  0  0  0  0  0  0  0  0  0  0
   38.3220   31.2000   39.7000 C   0  0  0  0  0  0  0  0  0  0  0  0
   38.6320   30.0390   40.3380 N   0  0  0  0  0  0  0  0  0  0  0  0
   37.8100   29.4710   41.2400 C   0  0  0  0  0  0  0  0  0  0  0  0
   36.6540   30.0920   41.5040 N   0  0  0  0  0  0  0  0  0  0  0  0
   35.3560   31.6020   41.2190 H   0  0  0  0  0  0  0  0  0  0  0  0
   36.8250   32.7370   39.5160 H   0  0  0  0  0  0  0  0  0  0  0  0
   39.2420   31.7820   38.7260 C   0  0  0  0  0  0  0  0  0  0  0  0
   40.3750   32.4430   39.0670 N   0  0  0  0  0  0  0  0  0  0  0  0
   40.9840   32.8470   37.9180 C   0  0  0  0  0  0  0  0  0  0  0  0
   41.9150   33.4030   37.8350 H   0  0  0  0  0  0  0  0  0  0  0  0
   40.2270   32.4340   36.8740 N   0  0  0  0  0  0  0  0  0  0  0  0
   40.4130   32.5820   35.8450 H   0  0  0  0  0  0  0  0  0  0  0  0
   39.1690   31.7870   37.3830 N   0  0  0  0  0  0  0  0  0  0  0  0
  1  2  1  0  0  0  0
  1  3  1  0  0  0  0
  4  7  1  6  0  0  0
  4  5  1  0  0  0  0
  4  1  1  0  0  0  0
  5  8  1  0  0  0  0
  6 10  1  6  0  0  0
  6 11  1  0  0  0  0
  6  4  1  0  0  0  0
  6  5  1  0  0  0  0
  9  5  1  0  0  0  0
 11 14  1  0  0  0  0
 12 16  1  0  0  0  0
 12 11  1  0  0  0  0
 13 12  1  0  0  0  0
 13 17  1  0  0  0  0
 13 11  1  0  0  0  0
 15 12  1  0  0  0  0
 18 13  1  0  0  0  0
 19 20  2  0  0  0  0
 20  1  1  0  0  0  0
 21 27  1  0  0  0  0
 21 26  1  0  0  0  0
 22 21  2  0  0  0  0
 23 22  1  0  0  0  0
 23 24  2  0  0  0  0
 24 25  1  0  0  0  0
 25 26  2  0  0  0  0
 25 19  1  0  0  0  0
 28 22  1  0  0  0  0
 29 30  1  0  0  0  0
 29 23  1  0  0  0  0
 31 30  2  0  0  0  0
 32 31  1  0  0  0  0
 33 35  1  0  0  0  0
 33 31  1  0  0  0  0
 34 33  1  0  0  0  0
 35 29  2  0  0  0  0
M  END
>  <minimizedAffinity>
-5.4241271

$$$$

 OpenBabel03252508163D

 35 38  0  0  1  0  0  0  0  0999 V2000
   36.5620   28.4230   41.1350 C   0  0  0  0  0  0  0  0  0  0  0  0
   36.7760   27.6980   40.3400 H   0  0  0  0  0  0  0  0  0  0  0  0
   35.4640   28.4210   41.3240 H   0  0  0  0  0  0  0  0  0  0  0  0
   37.3600   28.1280   42.3760 C   0  0  1  0  0  0  0  0  0  0  0  0
   36.6000   27.5820   43.5330 C   0  0  0  0  0  0  0  0  0  0  0  0
   37.5290   26.7240   42.8200 C   0  0  1  0  0  0  0  0  0  0  0  0
   38.2220   28.7880   42.5710 H   0  0  0  0  0  0  0  0  0  0  0  0
   35.4860   27.4910   43.4190 H   0  0  0  0  0  0  0  0  0  0  0  0
   36.8500   28.0000   44.5360 H   0  0  0  0  0  0  0  0  0  0  0  0
   38.4720   26.4800   43.3960 H   0  0  0  0  0  0  0  0  0  0  0  0
   37.1320   25.6480   41.8830 C   0  0  0  0  0  0  0  0  0  0  0  0
   37.7860   24.2720   42.1600 C   0  0  0  0  0  0  0  0  0  0  0  0
   38.2630   25.0710   40.9980 C   0  0  0  0  0  0  0  0  0  0  0  0
   36.1070   25.6280   41.4640 H   0  0  0  0  0  0  0  0  0  0  0  0
   38.4260   24.1920   43.0510 H   0  0  0  0  0  0  0  0  0  0  0  0
   37.1170   23.4030   41.9280 H   0  0  0  0  0  0  0  0  0  0  0  0
   37.9080   24.7650   39.9710 H   0  0  0  0  0  0  0  0  0  0  0  0
   39.2200   25.5900   41.0650 H   0  0  0  0  0  0  0  0  0  0  0  0
   37.9340   30.3440   41.0900 C   0  0  0  0  0  3  0  0  0  0  0  0
   36.8460   29.8350   40.6560 C   0  0  0  0  0  3  0  0  0  0  0  0
   37.7150   33.8270   39.9130 C   0  0  0  0  0  0  0  0  0  0  0  0
   39.0360   34.2490   39.9190 C   0  0  0  0  0  0  0  0  0  0  0  0
   39.9620   33.3400   40.3370 C   0  0  0  0  0  0  0  0  0  0  0  0
   39.5690   32.0960   40.7200 N   0  0  0  0  0  0  0  0  0  0  0  0
   38.2790   31.7100   40.7020 C   0  0  0  0  0  0  0  0  0  0  0  0
   37.3690   32.6030   40.2930 N   0  0  0  0  0  0  0  0  0  0  0  0
   36.8710   34.4280   39.6100 H   0  0  0  0  0  0  0  0  0  0  0  0
   39.2570   35.2380   39.6040 H   0  0  0  0  0  0  0  0  0  0  0  0
   41.3730   33.7180   40.3700 C   0  0  0  0  0  0  0  0  0  0  0  0
   42.3410   33.0570   39.6880 N   0  0  0  0  0  0  0  0  0  0  0  0
   43.5280   33.6740   39.9450 C   0  0  0  0  0  0  0  0  0  0  0  0
   44.5040   33.3970   39.5550 H   0  0  0  0  0  0  0  0  0  0  0  0
   43.2880   34.7110   40.7820 N   0  0  0  0  0  0  0  0  0  0  0  0
   43.9890   35.3940   41.1790 H   0  0  0  0  0  0  0  0  0  0  0  0
   41.9710   34.7240   41.0320 N   0  0  0  0  0  0  0  0  0  0  0  0
  1  3  1  0  0  0  0
  1  4  1  0  0  0  0
  2  1  1  0  0  0  0
  4  7  1  1  0  0  0
  4  6  1  0  0  0  0
  4  5  1  0  0  0  0
  5  9  1  0  0  0  0
  6 10  1  1  0  0  0
  6  5  1  0  0  0  0
  8  5  1  0  0  0  0
 11 12  1  0  0  0  0
 11  6  1  0  0  0  0
 12 15  1  0  0  0  0
 13 18  1  0  0  0  0
 13 11  1  0  0  0  0
 13 12  1  0  0  0  0
 14 11  1  0  0  0  0
 16 12  1  0  0  0  0
 17 13  1  0  0  0  0
 20 19  2  0  0  0  0
 20  1  1  0  0  0  0
 21 22  2  0  0  0  0
 21 26  1  0  0  0  0
 22 23  1  0  0  0  0
 23 29  1  0  0  0  0
 23 24  2  0  0  0  0
 25 24  1  0  0  0  0
 25 19  1  0  0  0  0
 26 25  2  0  0  0  0
 27 21  1  0  0  0  0
 28 22  1  0  0  0  0
 29 35  2  0  0  0  0
 30 31  2  0  0  0  0
 30 29  1  0  0  0  0
 31 33  1  0  0  0  0
 32 31  1  0  0  0  0
 33 35  1  0  0  0  0
 33 34  1  0  0  0  0
M  END
>  <minimizedAffinity>
-5.17375612

$$$$

 OpenBabel03252508163D

 35 38  0  0  1  0  0  0  0  0999 V2000
   33.2750   28.6220   37.4450 C   0  0  0  0  0  0  0  0  0  0  0  0
   32.3860   28.9590   37.9920 H   0  0  0  0  0  0  0  0  0  0  0  0
   33.3060   27.5090   37.4800 H   0  0  0  0  0  0  0  0  0  0  0  0
   33.2870   29.1540   36.0380 C   0  0  1  0  0  0  0  0  0  0  0  0
   32.3700   28.4880   35.0740 C   0  0  0  0  0  0  0  0  0  0  0  0
   32.0890   29.8450   35.5070 C   0  0  1  0  0  0  0  0  0  0  0  0
   34.2530   29.5410   35.6700 H   0  0  0  0  0  0  0  0  0  0  0  0
   31.7860   27.6040   35.4480 H   0  0  0  0  0  0  0  0  0  0  0  0
   32.7800   28.2760   34.0590 H   0  0  0  0  0  0  0  0  0  0  0  0
   32.2630   30.6320   34.7120 H   0  0  0  0  0  0  0  0  0  0  0  0
   31.0240   30.2200   36.4650 C   0  0  0  0  0  0  0  0  0  0  0  0
   29.7070   30.7090   35.8120 C   0  0  0  0  0  0  0  0  0  0  0  0
   30.6010   31.7090   36.4560 C   0  0  0  0  0  0  0  0  0  0  0  0
   30.9230   29.6750   37.4230 H   0  0  0  0  0  0  0  0  0  0  0  0
   29.6490   30.6740   34.7150 H   0  0  0  0  0  0  0  0  0  0  0  0
   28.7880   30.4170   36.3850 H   0  0  0  0  0  0  0  0  0  0  0  0
   30.3100   32.0910   37.4780 H   0  0  0  0  0  0  0  0  0  0  0  0
   31.2080   32.3640   35.8300 H   0  0  0  0  0  0  0  0  0  0  0  0
   34.4380   29.0970   39.4450 C   0  0  0  0  0  3  0  0  0  0  0  0
   34.5380   29.0440   38.1730 C   0  0  0  0  0  3  0  0  0  0  0  0
   37.1670   29.1880   41.9170 C   0  0  0  0  0  0  0  0  0  0  0  0
   37.7450   30.4310   41.7080 C   0  0  0  0  0  0  0  0  0  0  0  0
   37.1990   31.1970   40.7210 C   0  0  0  0  0  0  0  0  0  0  0  0
   36.1420   30.7290   40.0030 N   0  0  0  0  0  0  0  0  0  0  0  0
   35.5970   29.5180   40.2280 C   0  0  0  0  0  0  0  0  0  0  0  0
   36.1350   28.7660   41.1960 N   0  0  0  0  0  0  0  0  0  0  0  0
   37.4850   28.4700   42.6580 H   0  0  0  0  0  0  0  0  0  0  0  0
   38.5670   30.7190   42.3130 H   0  0  0  0  0  0  0  0  0  0  0  0
   37.7580   32.5180   40.4460 C   0  0  0  0  0  0  0  0  0  0  0  0
   38.8720   33.0000   41.0490 N   0  0  0  0  0  0  0  0  0  0  0  0
   39.1040   34.2500   40.5590 C   0  0  0  0  0  0  0  0  0  0  0  0
   39.9200   34.9150   40.8330 H   0  0  0  0  0  0  0  0  0  0  0  0
   38.1360   34.5330   39.6570 N   0  0  0  0  0  0  0  0  0  0  0  0
   38.0190   35.4180   39.0930 H   0  0  0  0  0  0  0  0  0  0  0  0
   37.3230   33.4680   39.6000 N   0  0  0  0  0  0  0  0  0  0  0  0
  1  3  1  0  0  0  0
  1  2  1  0  0  0  0
  1 20  1  0  0  0  0
  4  7  1  6  0  0  0
  4  1  1  0  0  0  0
  5  8  1  0  0  0  0
  5  6  1  0  0  0  0
  5  4  1  0  0  0  0
  6 10  1  6  0  0  0
  6  4  1  0  0  0  0
  6 11  1  0  0  0  0
  9  5  1  0  0  0  0
 11 14  1  0  0  0  0
 12 16  1  0  0  0  0
 12 13  1  0  0  0  0
 12 11  1  0  0  0  0
 13 11  1  0  0  0  0
 13 17  1  0  0  0  0
 15 12  1  0  0  0  0
 18 13  1  0  0  0  0
 19 25  1  0  0  0  0
 20 19  2  0  0  0  0
 21 27  1  0  0  0  0
 22 21  1  0  0  0  0
 22 28  1  0  0  0  0
 23 22  2  0  0  0  0
 24 25  2  0  0  0  0
 24 23  1  0  0  0  0
 25 26  1  0  0  0  0
 26 21  2  0  0  0  0
 29 23  1  0  0  0  0
 29 30  1  0  0  0  0
 31 32  1  0  0  0  0
 31 30  2  0  0  0  0
 33 31  1  0  0  0  0
 34 33  1  0  0  0  0
 35 33  1  0  0  0  0
 35 29  2  0  0  0  0
M  END
>  <minimizedAffinity>
-5.14902258

$$$$

 OpenBabel03252508163D

 35 38  0  0  1  0  0  0  0  0999 V2000
   37.1410   25.4380   42.1150 C   0  0  0  0  0  0  0  0  0  0  0  0
   36.1480   24.9750   42.0590 H   0  0  0  0  0  0  0  0  0  0  0  0
   37.5500   25.2680   43.1370 H   0  0  0  0  0  0  0  0  0  0  0  0
   38.0510   24.9160   41.0360 C   0  0  1  0  0  0  0  0  0  0  0  0
   38.4590   23.4900   41.1520 C   0  0  0  0  0  0  0  0  0  0  0  0
   37.5520   23.8890   40.0920 C   0  0  1  0  0  0  0  0  0  0  0  0
   38.7660   25.6390   40.6080 H   0  0  0  0  0  0  0  0  0  0  0  0
   38.1130   22.9290   42.0620 H   0  0  0  0  0  0  0  0  0  0  0  0
   39.5300   23.2580   40.9430 H   0  0  0  0  0  0  0  0  0  0  0  0
   38.0120   23.8790   39.0580 H   0  0  0  0  0  0  0  0  0  0  0  0
   36.0980   23.6100   40.0780 C   0  0  0  0  0  0  0  0  0  0  0  0
   35.6480   22.5640   39.0270 C   0  0  0  0  0  0  0  0  0  0  0  0
   35.3470   24.0010   38.7830 C   0  0  0  0  0  0  0  0  0  0  0  0
   35.5190   23.6360   41.0210 H   0  0  0  0  0  0  0  0  0  0  0  0
   36.4370   22.0770   38.4360 H   0  0  0  0  0  0  0  0  0  0  0  0
   34.7930   21.9250   39.3690 H   0  0  0  0  0  0  0  0  0  0  0  0
   34.2910   24.3550   38.9740 H   0  0  0  0  0  0  0  0  0  0  0  0
   35.9360   24.5530   38.0490 H   0  0  0  0  0  0  0  0  0  0  0  0
   37.2040   27.4280   40.8460 C   0  0  0  0  0  3  0  0  0  0  0  0
   37.0290   26.9490   42.0160 C   0  0  0  0  0  3  0  0  0  0  0  0
   36.2220   30.9680   41.1090 C   0  0  0  0  0  0  0  0  0  0  0  0
   37.0400   31.5950   40.1810 C   0  0  0  0  0  0  0  0  0  0  0  0
   37.9130   30.7980   39.5030 C   0  0  0  0  0  0  0  0  0  0  0  0
   37.9470   29.4610   39.7530 N   0  0  0  0  0  0  0  0  0  0  0  0
   37.1400   28.8760   40.6580 C   0  0  0  0  0  0  0  0  0  0  0  0
   36.2840   29.6600   41.3240 N   0  0  0  0  0  0  0  0  0  0  0  0
   35.4830   31.4620   41.7210 H   0  0  0  0  0  0  0  0  0  0  0  0
   36.9490   32.6440   40.0480 H   0  0  0  0  0  0  0  0  0  0  0  0
   38.8060   31.3920   38.5110 C   0  0  0  0  0  0  0  0  0  0  0  0
   40.1050   31.6940   38.7570 N   0  0  0  0  0  0  0  0  0  0  0  0
   40.6310   32.2290   37.6210 C   0  0  0  0  0  0  0  0  0  0  0  0
   41.6510   32.5780   37.4770 H   0  0  0  0  0  0  0  0  0  0  0  0
   39.6580   32.2550   36.6800 N   0  0  0  0  0  0  0  0  0  0  0  0
   39.7310   32.6080   35.6870 H   0  0  0  0  0  0  0  0  0  0  0  0
   38.5520   31.7420   37.2380 N   0  0  0  0  0  0  0  0  0  0  0  0
  1  3  1  0  0  0  0
  2  1  1  0  0  0  0
  4  7  1  6  0  0  0
  4  5  1  0  0  0  0
  4  1  1  0  0  0  0
  5  8  1  0  0  0  0
  6 10  1  6  0  0  0
  6  4  1  0  0  0  0
  6  5  1  0  0  0  0
  9  5  1  0  0  0  0
 11  6  1  0  0  0  0
 11 14  1  0  0  0  0
 12 16  1  0  0  0  0
 12 11  1  0  0  0  0
 13 17  1  0  0  0  0
 13 12  1  0  0  0  0
 13 11  1  0  0  0  0
 15 12  1  0  0  0  0
 18 13  1  0  0  0  0
 19 20  2  0  0  0  0
 20  1  1  0  0  0  0
 21 26  1  0  0  0  0
 21 27  1  0  0  0  0
 22 21  2  0  0  0  0
 23 24  2  0  0  0  0
 23 22  1  0  0  0  0
 24 25  1  0  0  0  0
 25 19  1  0  0  0  0
 25 26  2  0  0  0  0
 28 22  1  0  0  0  0
 29 30  1  0  0  0  0
 29 23  1  0  0  0  0
 31 30  2  0  0  0  0
 32 31  1  0  0  0  0
 33 35  1  0  0  0  0
 33 31  1  0  0  0  0
 34 33  1  0  0  0  0
 35 29  2  0  0  0  0
M  END
>  <minimizedAffinity>
-5.05127287

$$$$

 OpenBabel03252508163D

 35 38  0  0  1  0  0  0  0  0999 V2000
   40.8210   28.6050   43.0090 C   0  0  0  0  0  0  0  0  0  0  0  0
   40.2390   28.8460   43.9070 H   0  0  0  0  0  0  0  0  0  0  0  0
   41.8890   28.4910   43.3040 H   0  0  0  0  0  0  0  0  0  0  0  0
   40.2810   27.3820   42.3180 C   0  0  1  0  0  0  0  0  0  0  0  0
   40.1360   26.1620   43.1570 C   0  0  0  0  0  0  0  0  0  0  0  0
   38.9480   26.8570   42.6960 C   0  0  1  0  0  0  0  0  0  0  0  0
   40.5470   27.2650   41.2530 H   0  0  0  0  0  0  0  0  0  0  0  0
   40.4950   26.2240   44.2200 H   0  0  0  0  0  0  0  0  0  0  0  0
   40.4590   25.1980   42.6970 H   0  0  0  0  0  0  0  0  0  0  0  0
   38.3690   26.3060   41.8930 H   0  0  0  0  0  0  0  0  0  0  0  0
   38.0850   27.7070   43.5480 C   0  0  0  0  0  0  0  0  0  0  0  0
   36.5750   27.3650   43.4870 C   0  0  0  0  0  0  0  0  0  0  0  0
   37.0600   28.5930   42.8000 C   0  0  0  0  0  0  0  0  0  0  0  0
   38.4630   28.0850   44.5170 H   0  0  0  0  0  0  0  0  0  0  0  0
   36.2830   26.4960   42.8810 H   0  0  0  0  0  0  0  0  0  0  0  0
   36.0430   27.5140   44.4620 H   0  0  0  0  0  0  0  0  0  0  0  0
   36.8790   29.5850   43.3100 H   0  0  0  0  0  0  0  0  0  0  0  0
   37.1490   28.5970   41.7130 H   0  0  0  0  0  0  0  0  0  0  0  0
   40.0530   30.7430   42.3650 C   0  0  0  0  0  3  0  0  0  0  0  0
   40.8320   29.7820   42.0500 C   0  0  0  0  0  3  0  0  0  0  0  0
   38.7920   33.6120   40.4290 C   0  0  0  0  0  0  0  0  0  0  0  0
   39.9190   34.0590   39.7530 C   0  0  0  0  0  0  0  0  0  0  0  0
   41.0770   33.3800   39.9880 C   0  0  0  0  0  0  0  0  0  0  0  0
   41.0860   32.3250   40.8450 N   0  0  0  0  0  0  0  0  0  0  0  0
   39.9770   31.9090   41.4870 C   0  0  0  0  0  0  0  0  0  0  0  0
   38.8400   32.5760   41.2590 N   0  0  0  0  0  0  0  0  0  0  0  0
   37.8060   34.0430   40.3490 H   0  0  0  0  0  0  0  0  0  0  0  0
   39.8240   34.8910   39.1010 H   0  0  0  0  0  0  0  0  0  0  0  0
   42.3020   33.7980   39.3100 C   0  0  0  0  0  0  0  0  0  0  0  0
   43.5460   33.5260   39.7750 N   0  0  0  0  0  0  0  0  0  0  0  0
   44.4440   34.0600   38.9020 C   0  0  0  0  0  0  0  0  0  0  0  0
   45.5290   34.0210   38.9780 H   0  0  0  0  0  0  0  0  0  0  0  0
   43.7530   34.6570   37.9030 N   0  0  0  0  0  0  0  0  0  0  0  0
   44.1440   35.1660   37.0640 H   0  0  0  0  0  0  0  0  0  0  0  0
   42.4490   34.4890   38.1660 N   0  0  0  0  0  0  0  0  0  0  0  0
  1  3  1  0  0  0  0
  1  2  1  0  0  0  0
  4  7  1  6  0  0  0
  4  6  1  0  0  0  0
  4  1  1  0  0  0  0
  4  5  1  0  0  0  0
  5  8  1  0  0  0  0
  6 10  1  6  0  0  0
  6  5  1  0  0  0  0
  6 11  1  0  0  0  0
  9  5  1  0  0  0  0
 11 14  1  0  0  0  0
 12 11  1  0  0  0  0
 12 16  1  0  0  0  0
 13 17  1  0  0  0  0
 13 12  1  0  0  0  0
 13 11  1  0  0  0  0
 15 12  1  0  0  0  0
 18 13  1  0  0  0  0
 20 19  2  0  0  0  0
 20  1  1  0  0  0  0
 21 26  1  0  0  0  0
 22 23  1  0  0  0  0
 22 21  2  0  0  0  0
 23 24  2  0  0  0  0
 24 25  1  0  0  0  0
 25 19  1  0  0  0  0
 26 25  2  0  0  0  0
 27 21  1  0  0  0  0
 28 22  1  0  0  0  0
 29 30  1  0  0  0  0
 29 23  1  0  0  0  0
 31 32  1  0  0  0  0
 31 30  2  0  0  0  0
 33 35  1  0  0  0  0
 33 31  1  0  0  0  0
 34 33  1  0  0  0  0
 35 29  2  0  0  0  0
M  END
>  <minimizedAffinity>
-5.03874397

$$$$

 OpenBabel03252508163D

 35 38  0  0  1  0  0  0  0  0999 V2000
   37.3000   29.4310   38.6560 C   0  0  0  0  0  0  0  0  0  0  0  0
   37.6930   28.4590   38.9770 H   0  0  0  0  0  0  0  0  0  0  0  0
   37.1350   29.3950   37.5550 H   0  0  0  0  0  0  0  0  0  0  0  0
   36.0530   29.7980   39.4140 C   0  0  1  0  0  0  0  0  0  0  0  0
   34.9430   28.8090   39.3710 C   0  0  0  0  0  0  0  0  0  0  0  0
   35.6680   29.0140   40.6110 C   0  0  1  0  0  0  0  0  0  0  0  0
   35.8050   30.8720   39.4570 H   0  0  0  0  0  0  0  0  0  0  0  0
   35.0900   27.8980   38.7300 H   0  0  0  0  0  0  0  0  0  0  0  0
   33.9150   29.2180   39.2250 H   0  0  0  0  0  0  0  0  0  0  0  0
   35.0790   29.5570   41.4100 H   0  0  0  0  0  0  0  0  0  0  0  0
   36.6630   28.0700   41.1700 C   0  0  0  0  0  0  0  0  0  0  0  0
   36.5140   27.7940   42.6870 C   0  0  0  0  0  0  0  0  0  0  0  0
   37.6340   28.6570   42.2230 C   0  0  0  0  0  0  0  0  0  0  0  0
   37.0380   27.2310   40.5550 H   0  0  0  0  0  0  0  0  0  0  0  0
   35.6590   28.2590   43.1990 H   0  0  0  0  0  0  0  0  0  0  0  0
   36.7790   26.7450   42.9800 H   0  0  0  0  0  0  0  0  0  0  0  0
   38.6650   28.1980   42.1770 H   0  0  0  0  0  0  0  0  0  0  0  0
   37.5710   29.7370   42.3670 H   0  0  0  0  0  0  0  0  0  0  0  0
   37.9650   31.5440   39.4750 C   0  0  0  0  0  3  0  0  0  0  0  0
   38.3520   30.5120   38.8300 C   0  0  0  0  0  3  0  0  0  0  0  0
   39.4870   34.7120   40.5780 C   0  0  0  0  0  0  0  0  0  0  0  0
   40.7090   34.7230   39.9210 C   0  0  0  0  0  0  0  0  0  0  0  0
   40.9860   33.6460   39.1340 C   0  0  0  0  0  0  0  0  0  0  0  0
   40.0840   32.6340   39.0240 N   0  0  0  0  0  0  0  0  0  0  0  0
   38.9030   32.6480   39.6700 C   0  0  0  0  0  0  0  0  0  0  0  0
   38.6310   33.7050   40.4450 N   0  0  0  0  0  0  0  0  0  0  0  0
   39.1250   35.4890   41.2330 H   0  0  0  0  0  0  0  0  0  0  0  0
   41.3540   35.5540   40.0620 H   0  0  0  0  0  0  0  0  0  0  0  0
   42.2560   33.5920   38.4130 C   0  0  0  0  0  0  0  0  0  0  0  0
   43.2270   32.6830   38.6740 N   0  0  0  0  0  0  0  0  0  0  0  0
   44.2620   32.9240   37.8220 C   0  0  0  0  0  0  0  0  0  0  0  0
   45.2000   32.3750   37.7660 H   0  0  0  0  0  0  0  0  0  0  0  0
   43.9260   33.9760   37.0400 N   0  0  0  0  0  0  0  0  0  0  0  0
   44.5030   34.4200   36.2750 H   0  0  0  0  0  0  0  0  0  0  0  0
   42.7010   34.3730   37.4130 N   0  0  0  0  0  0  0  0  0  0  0  0
  1 20  1  0  0  0  0
  1  2  1  0  0  0  0
  1  4  1  0  0  0  0
  3  1  1  0  0  0  0
  4  7  1  6  0  0  0
  4  6  1  0  0  0  0
  5  4  1  0  0  0  0
  5  6  1  0  0  0  0
  6 11  1  0  0  0  0
  6 10  1  1  0  0  0
  8  5  1  0  0  0  0
  9  5  1  0  0  0  0
 11 13  1  0  0  0  0
 11 12  1  0  0  0  0
 12 16  1  0  0  0  0
 12 15  1  0  0  0  0
 13 18  1  0  0  0  0
 13 12  1  0  0  0  0
 14 11  1  0  0  0  0
 17 13  1  0  0  0  0
 19 25  1  0  0  0  0
 20 19  2  0  0  0  0
 21 27  1  0  0  0  0
 22 28  1  0  0  0  0
 22 21  2  0  0  0  0
 23 22  1  0  0  0  0
 24 23  2  0  0  0  0
 24 25  1  0  0  0  0
 25 26  2  0  0  0  0
 26 21  1  0  0  0  0
 29 30  1  0  0  0  0
 29 23  1  0  0  0  0
 31 30  2  0  0  0  0
 32 31  1  0  0  0  0
 33 35  1  0  0  0  0
 33 31  1  0  0  0  0
 34 33  1  0  0  0  0
 35 29  2  0  0  0  0
M  END
>  <minimizedAffinity>
-5.00456095

$$$$

 OpenBabel03252508163D

 35 38  0  0  1  0  0  0  0  0999 V2000
   36.0010   29.9060   38.9970 C   0  0  0  0  0  0  0  0  0  0  0  0
   34.9470   29.9590   39.2960 H   0  0  0  0  0  0  0  0  0  0  0  0
   36.4690   29.0400   39.5180 H   0  0  0  0  0  0  0  0  0  0  0  0
   36.1430   29.8230   37.5010 C   0  0  1  0  0  0  0  0  0  0  0  0
   36.4780   28.4850   36.9450 C   0  0  0  0  0  0  0  0  0  0  0  0
   35.1580   29.0440   36.7150 C   0  0  1  0  0  0  0  0  0  0  0  0
   36.5400   30.7220   36.9980 H   0  0  0  0  0  0  0  0  0  0  0  0
   36.6610   27.6540   37.6790 H   0  0  0  0  0  0  0  0  0  0  0  0
   37.2460   28.4580   36.1360 H   0  0  0  0  0  0  0  0  0  0  0  0
   34.9750   29.3790   35.6490 H   0  0  0  0  0  0  0  0  0  0  0  0
   33.9240   28.5970   37.3990 C   0  0  0  0  0  0  0  0  0  0  0  0
   32.8530   27.9780   36.4660 C   0  0  0  0  0  0  0  0  0  0  0  0
   32.6260   29.3450   37.0080 C   0  0  0  0  0  0  0  0  0  0  0  0
   33.9760   28.1860   38.4250 H   0  0  0  0  0  0  0  0  0  0  0  0
   33.1200   27.8620   35.4050 H   0  0  0  0  0  0  0  0  0  0  0  0
   32.2700   27.1470   36.9430 H   0  0  0  0  0  0  0  0  0  0  0  0
   31.9030   29.4540   37.8680 H   0  0  0  0  0  0  0  0  0  0  0  0
   32.7620   30.2080   36.3540 H   0  0  0  0  0  0  0  0  0  0  0  0
   37.7800   31.4490   38.8350 C   0  0  0  0  0  3  0  0  0  0  0  0
   36.7640   31.1060   39.5270 C   0  0  0  0  0  3  0  0  0  0  0  0
   38.8890   34.5410   40.5020 C   0  0  0  0  0  0  0  0  0  0  0  0
   40.1750   34.7220   40.0140 C   0  0  0  0  0  0  0  0  0  0  0  0
   40.6330   33.7790   39.1440 C   0  0  0  0  0  0  0  0  0  0  0  0
   39.8380   32.7310   38.7960 N   0  0  0  0  0  0  0  0  0  0  0  0
   38.5920   32.5790   39.2830 C   0  0  0  0  0  0  0  0  0  0  0  0
   38.1430   33.5040   40.1390 N   0  0  0  0  0  0  0  0  0  0  0  0
   38.3880   35.1980   41.1960 H   0  0  0  0  0  0  0  0  0  0  0  0
   40.7280   35.5680   40.3370 H   0  0  0  0  0  0  0  0  0  0  0  0
   41.9790   33.9060   38.5910 C   0  0  0  0  0  0  0  0  0  0  0  0
   43.1010   33.9380   39.3510 N   0  0  0  0  0  0  0  0  0  0  0  0
   44.1690   34.0640   38.5140 C   0  0  0  0  0  0  0  0  0  0  0  0
   45.2170   34.1190   38.7990 H   0  0  0  0  0  0  0  0  0  0  0  0
   43.7020   34.1090   37.2440 N   0  0  0  0  0  0  0  0  0  0  0  0
   44.2640   34.2040   36.3540 H   0  0  0  0  0  0  0  0  0  0  0  0
   42.3660   34.0130   37.3080 N   0  0  0  0  0  0  0  0  0  0  0  0
  1  2  1  0  0  0  0
  1  3  1  0  0  0  0
  1 20  1  0  0  0  0
  4  7  1  6  0  0  0
  4  1  1  0  0  0  0
  5  4  1  0  0  0  0
  5  8  1  0  0  0  0
  6 10  1  6  0  0  0
  6  5  1  0  0  0  0
  6 11  1  0  0  0  0
  6  4  1  0  0  0  0
  9  5  1  0  0  0  0
 11 14  1  0  0  0  0
 12 16  1  0  0  0  0
 12 13  1  0  0  0  0
 12 11  1  0  0  0  0
 13 11  1  0  0  0  0
 13 17  1  0  0  0  0
 15 12  1  0  0  0  0
 18 13  1  0  0  0  0
 19 25  1  0  0  0  0
 19 20  2  0  0  0  0
 21 27  1  0  0  0  0
 22 28  1  0  0  0  0
 22 21  2  0  0  0  0
 23 22  1  0  0  0  0
 24 23  2  0  0  0  0
 24 25  1  0  0  0  0
 25 26  2  0  0  0  0
 26 21  1  0  0  0  0
 29 23  1  0  0  0  0
 29 30  1  0  0  0  0
 31 32  1  0  0  0  0
 31 30  2  0  0  0  0
 33 35  1  0  0  0  0
 33 31  1  0  0  0  0
 34 33  1  0  0  0  0
 35 29  2  0  0  0  0
M  END
>  <minimizedAffinity>
-4.95620728

$$$$

 OpenBabel03252508163D

 35 38  0  0  1  0  0  0  0  0999 V2000
   39.1920   26.9830   43.6430 C   0  0  0  0  0  0  0  0  0  0  0  0
   38.1340   26.7630   43.8270 H   0  0  0  0  0  0  0  0  0  0  0  0
   39.7010   27.1050   44.6270 H   0  0  0  0  0  0  0  0  0  0  0  0
   39.8330   25.9200   42.7920 C   0  0  1  0  0  0  0  0  0  0  0  0
   39.7510   24.5260   43.3080 C   0  0  0  0  0  0  0  0  0  0  0  0
   38.9830   24.9000   42.1340 C   0  0  1  0  0  0  0  0  0  0  0  0
   40.7280   26.2230   42.2230 H   0  0  0  0  0  0  0  0  0  0  0  0
   39.2770   24.3790   44.3160 H   0  0  0  0  0  0  0  0  0  0  0  0
   40.6760   23.9070   43.2240 H   0  0  0  0  0  0  0  0  0  0  0  0
   39.3710   24.4590   41.1660 H   0  0  0  0  0  0  0  0  0  0  0  0
   37.5190   25.1210   42.1210 C   0  0  0  0  0  0  0  0  0  0  0  0
   36.7270   24.1660   41.1940 C   0  0  0  0  0  0  0  0  0  0  0  0
   36.9180   25.5800   40.7710 C   0  0  0  0  0  0  0  0  0  0  0  0
   37.0010   25.4530   43.0400 H   0  0  0  0  0  0  0  0  0  0  0  0
   37.2970   23.3760   40.6840 H   0  0  0  0  0  0  0  0  0  0  0  0
   35.7140   23.8950   41.5910 H   0  0  0  0  0  0  0  0  0  0  0  0
   36.0450   26.2860   40.8940 H   0  0  0  0  0  0  0  0  0  0  0  0
   37.6430   25.8100   39.9890 H   0  0  0  0  0  0  0  0  0  0  0  0
   40.4960   28.5680   42.4750 C   0  0  0  0  0  3  0  0  0  0  0  0
   39.3460   28.3410   42.9820 C   0  0  0  0  0  3  0  0  0  0  0  0
   41.7040   31.9820   41.8040 C   0  0  0  0  0  0  0  0  0  0  0  0
   41.0980   32.3030   40.5980 C   0  0  0  0  0  0  0  0  0  0  0  0
   40.3080   31.3430   40.0410 C   0  0  0  0  0  0  0  0  0  0  0  0
   40.1470   30.1460   40.6680 N   0  0  0  0  0  0  0  0  0  0  0  0
   40.7450   29.8600   41.8400 C   0  0  0  0  0  0  0  0  0  0  0  0
   41.5230   30.8030   42.3860 N   0  0  0  0  0  0  0  0  0  0  0  0
   42.3550   32.6340   42.3670 H   0  0  0  0  0  0  0  0  0  0  0  0
   41.2770   33.2600   40.1770 H   0  0  0  0  0  0  0  0  0  0  0  0
   39.6400   31.6130   38.7700 C   0  0  0  0  0  0  0  0  0  0  0  0
   38.3240   31.3690   38.5490 N   0  0  0  0  0  0  0  0  0  0  0  0
   38.0420   31.7360   37.2680 C   0  0  0  0  0  0  0  0  0  0  0  0
   37.0770   31.6720   36.7700 H   0  0  0  0  0  0  0  0  0  0  0  0
   39.1810   32.2040   36.7050 N   0  0  0  0  0  0  0  0  0  0  0  0
   39.3110   32.5690   35.7230 H   0  0  0  0  0  0  0  0  0  0  0  0
   40.1460   32.1210   37.6330 N   0  0  0  0  0  0  0  0  0  0  0  0
  1  2  1  0  0  0  0
  1  3  1  0  0  0  0
  4  7  1  6  0  0  0
  4  5  1  0  0  0  0
  4  1  1  0  0  0  0
  5  8  1  0  0  0  0
  6 10  1  6  0  0  0
  6  4  1  0  0  0  0
  6  5  1  0  0  0  0
  9  5  1  0  0  0  0
 11  6  1  0  0  0  0
 11 14  1  0  0  0  0
 12 16  1  0  0  0  0
 12 11  1  0  0  0  0
 13 17  1  0  0  0  0
 13 12  1  0  0  0  0
 13 11  1  0  0  0  0
 15 12  1  0  0  0  0
 18 13  1  0  0  0  0
 19 20  2  0  0  0  0
 20  1  1  0  0  0  0
 21 27  1  0  0  0  0
 21 26  1  0  0  0  0
 22 21  2  0  0  0  0
 23 22  1  0  0  0  0
 23 24  2  0  0  0  0
 24 25  1  0  0  0  0
 25 26  2  0  0  0  0
 25 19  1  0  0  0  0
 28 22  1  0  0  0  0
 29 23  1  0  0  0  0
 30 29  1  0  0  0  0
 31 30  2  0  0  0  0
 32 31  1  0  0  0  0
 33 31  1  0  0  0  0
 33 35  1  0  0  0  0
 34 33  1  0  0  0  0
 35 29  2  0  0  0  0
M  END
>  <minimizedAffinity>
-4.91300964

$$$$
