
 OpenBabel03252507413D

 23 24  0  0  0  0  0  0  0  0999 V2000
   43.9920   33.2540   41.9710 C   0  0  0  0  0  0  0  0  0  0  0  0
   43.5140   33.8260   42.7940 H   0  0  0  0  0  0  0  0  0  0  0  0
   45.0300   33.0680   42.3090 H   0  0  0  0  0  0  0  0  0  0  0  0
   43.2090   32.0130   41.8220 C   0  0  0  0  0  0  0  0  0  0  0  0
   43.9500   30.8580   41.6100 C   0  0  0  0  0  0  0  0  0  0  0  0
   43.2700   29.6540   41.4610 C   0  0  0  0  0  0  0  0  0  0  0  0
   41.8950   29.6520   41.5280 N   0  0  0  0  0  0  0  0  0  0  0  0
   41.2180   30.7980   41.7350 C   0  0  0  0  0  0  0  0  0  0  0  0
   41.8550   31.9750   41.8820 N   0  0  0  0  0  0  0  0  0  0  0  0
   43.8090   28.7330   41.2950 H   0  0  0  0  0  0  0  0  0  0  0  0
   40.1540   30.8190   41.7900 H   0  0  0  0  0  0  0  0  0  0  0  0
   45.7270   30.8820   41.5260 S   0  0  0  0  0  0  0  0  0  0  0  0
   46.1840   29.8510   42.3930 H   0  0  0  0  0  0  0  0  0  0  0  0
   43.9640   34.1290   40.7440 C   0  0  0  0  0  0  0  0  0  0  0  0
   44.8750   34.7830   40.7500 H   0  0  0  0  0  0  0  0  0  0  0  0
   44.0890   33.4580   39.8540 H   0  0  0  0  0  0  0  0  0  0  0  0
   42.7200   34.9070   40.6790 C   0  0  0  0  0  0  0  0  0  0  0  0
   41.9460   35.1140   39.6020 N   0  0  0  0  0  0  0  0  0  0  0  0
   40.9030   35.8790   39.9690 C   0  0  0  0  0  0  0  0  0  0  0  0
   40.0150   36.3380   39.5570 H   0  0  0  0  0  0  0  0  0  0  0  0
   41.0360   36.1500   41.2950 N   0  0  0  0  0  0  0  0  0  0  0  0
   40.5160   36.6860   42.0490 H   0  0  0  0  0  0  0  0  0  0  0  0
   42.1500   35.5550   41.7330 N   0  0  0  0  0  0  0  0  0  0  0  0
  1  3  1  0  0  0  0
  1  2  1  0  0  0  0
  4  9  1  0  0  0  0
  4  1  1  0  0  0  0
  5  4  2  0  0  0  0
  6  7  2  0  0  0  0
  6  5  1  0  0  0  0
  7  8  1  0  0  0  0
  8 11  1  0  0  0  0
  8  9  2  0  0  0  0
 10  6  1  0  0  0  0
 12  5  1  0  0  0  0
 12 13  1  0  0  0  0
 14 15  1  0  0  0  0
 14  1  1  0  0  0  0
 16 14  1  0  0  0  0
 17 14  1  0  0  0  0
 17 23  2  0  0  0  0
 18 19  2  0  0  0  0
 18 17  1  0  0  0  0
 19 21  1  0  0  0  0
 20 19  1  0  0  0  0
 21 23  1  0  0  0  0
 21 22  1  0  0  0  0
M  END
>  <minimizedAffinity>
-2.55952859

>  <minimizedRMSD>
6.86123228

$$$$
