
 OpenBabel03252509043D

 46 48  0  0  1  0  0  0  0  0999 V2000
   47.1620   34.1710   43.0870 N   0  0  0  0  0  0  0  0  0  0  0  0
   46.6820   35.3490   42.4650 C   0  0  0  0  0  0  0  0  0  0  0  0
   45.2120   35.6130   42.6640 C   0  0  0  0  0  0  0  0  0  0  0  0
   44.6640   35.1520   43.9960 C   0  0  0  0  0  0  0  0  0  0  0  0
   45.7620   34.6020   44.8790 C   0  0  0  0  0  0  0  0  0  0  0  0
   46.3940   33.4680   43.9950 C   0  0  2  0  0  0  0  0  0  0  0  0
   47.1980   36.2160   42.9670 H   0  0  0  0  0  0  0  0  0  0  0  0
   46.8950   35.4630   41.4000 H   0  0  0  0  0  0  0  0  0  0  0  0
   45.0020   36.6900   42.4810 H   0  0  0  0  0  0  0  0  0  0  0  0
   44.6840   35.0590   41.8500 H   0  0  0  0  0  0  0  0  0  0  0  0
   44.2080   36.0500   44.5010 H   0  0  0  0  0  0  0  0  0  0  0  0
   43.8770   34.4080   43.8910 H   0  0  0  0  0  0  0  0  0  0  0  0
   46.5470   35.3320   45.0920 H   0  0  0  0  0  0  0  0  0  0  0  0
   45.2950   34.1280   45.7600 H   0  0  0  0  0  0  0  0  0  0  0  0
   45.5240   32.8910   43.6220 H   0  0  0  0  0  0  0  0  0  0  0  0
   48.1350   33.4490   42.3050 C   0  0  0  0  0  0  0  0  0  0  0  0
   48.8680   34.1450   41.8610 H   0  0  0  0  0  0  0  0  0  0  0  0
   48.6970   32.8130   43.0470 H   0  0  0  0  0  0  0  0  0  0  0  0
   47.4320   32.5760   41.3350 C   0  0  0  0  0  0  0  0  0  0  0  0
   47.4910   31.5150   41.6140 H   0  0  0  0  0  0  0  0  0  0  0  0
   46.3280   32.7960   41.2810 H   0  0  0  0  0  0  0  0  0  0  0  0
   49.3150   32.0060   38.1350 C   0  0  0  0  0  0  0  0  0  0  0  0
   48.7830   31.8210   39.4240 C   0  0  0  0  0  0  0  0  0  0  0  0
   47.9860   32.7840   39.9750 C   0  0  0  0  0  0  0  0  0  0  0  0
   47.7440   33.8800   39.2430 N   0  0  0  0  0  0  0  0  0  0  0  0
   48.2500   34.0590   38.0120 C   0  0  0  0  0  0  0  0  0  0  0  0
   49.0360   33.1330   37.4440 N   0  0  0  0  0  0  0  0  0  0  0  0
   49.9390   31.1640   37.8000 H   0  0  0  0  0  0  0  0  0  0  0  0
   48.9920   30.9250   40.0000 H   0  0  0  0  0  0  0  0  0  0  0  0
   48.0600   34.9500   37.4050 H   0  0  0  0  0  0  0  0  0  0  0  0
   47.1630   32.7950   44.9300 O   0  0  0  0  0  0  0  0  0  0  0  0
   45.8880   30.6230   44.0920 O   0  0  0  0  0  0  0  0  0  0  0  0
   46.5440   31.2700   45.3080 P   0  0  2  0  0  0  0  0  0  0  0  0
   45.2970   31.5210   46.4380 O   0  0  0  0  0  0  0  0  0  0  0  0
   44.5110   31.9460   46.0350 H   0  0  0  0  0  0  0  0  0  0  0  0
   47.6900   30.2710   45.9990 O   0  0  0  0  0  0  0  0  0  0  0  0
   47.4800   28.9660   45.6030 C   0  0  0  0  0  0  0  0  0  0  0  0
   48.3620   28.3700   45.8500 H   0  0  0  0  0  0  0  0  0  0  0  0
   47.4540   28.9880   44.4730 H   0  0  0  0  0  0  0  0  0  0  0  0
   46.2160   28.3730   46.0860 C   0  0  0  0  0  0  0  0  0  0  0  0
   46.2250   27.4870   47.1100 N   0  0  0  0  0  0  0  0  0  0  0  0
   44.9620   27.0800   47.3780 C   0  0  0  0  0  0  0  0  0  0  0  0
   44.7450   26.3580   48.1760 H   0  0  0  0  0  0  0  0  0  0  0  0
   44.1620   27.7310   46.4980 N   0  0  0  0  0  0  0  0  0  0  0  0
   43.1260   27.6020   46.4790 H   0  0  0  0  0  0  0  0  0  0  0  0
   44.9250   28.4880   45.7460 N   0  0  0  0  0  0  0  0  0  0  0  0
  1  6  1  0  0  0  0
  2  3  1  0  0  0  0
  2  7  1  0  0  0  0
  2  1  1  0  0  0  0
  3  4  1  0  0  0  0
  4 11  1  0  0  0  0
  4  5  1  0  0  0  0
  5 13  1  0  0  0  0
  5 14  1  0  0  0  0
  6 15  1  6  0  0  0
  6  5  1  0  0  0  0
  6 31  1  0  0  0  0
  8  2  1  0  0  0  0
  9  3  1  0  0  0  0
 10  3  1  0  0  0  0
 12  4  1  0  0  0  0
 16 18  1  0  0  0  0
 16  1  1  0  0  0  0
 17 16  1  0  0  0  0
 19 20  1  0  0  0  0
 19 16  1  0  0  0  0
 21 19  1  0  0  0  0
 22 23  1  0  0  0  0
 23 24  2  0  0  0  0
 23 29  1  0  0  0  0
 24 19  1  0  0  0  0
 25 24  1  0  0  0  0
 26 25  2  0  0  0  0
 27 26  1  0  0  0  0
 27 22  2  0  0  0  0
 28 22  1  0  0  0  0
 30 26  1  0  0  0  0
 31 33  1  0  0  0  0
 33 32  2  6  0  0  0
 33 36  1  0  0  0  0
 33 34  1  0  0  0  0
 35 34  1  0  0  0  0
 37 38  1  0  0  0  0
 37 36  1  0  0  0  0
 37 40  1  0  0  0  0
 39 37  1  0  0  0  0
 40 41  1  0  0  0  0
 41 42  2  0  0  0  0
 42 43  1  0  0  0  0
 44 42  1  0  0  0  0
 45 44  1  0  0  0  0
 46 40  2  0  0  0  0
 46 44  1  0  0  0  0
M  END
>  <minimizedAffinity>
-3.88157868

>  <minimizedRMSD>
0.460942239

$$$$
