
 OpenBabel03252507413D

 23 24  0  0  0  0  0  0  0  0999 V2000
   47.7020   34.7000   41.2240 C   0  0  0  0  0  0  0  0  0  0  0  0
   47.9300   35.7620   40.9970 H   0  0  0  0  0  0  0  0  0  0  0  0
   48.6850   34.2240   41.4090 H   0  0  0  0  0  0  0  0  0  0  0  0
   46.8380   34.7090   42.4200 C   0  0  0  0  0  0  0  0  0  0  0  0
   47.0670   33.6890   43.3340 C   0  0  0  0  0  0  0  0  0  0  0  0
   46.2850   33.6430   44.4830 C   0  0  0  0  0  0  0  0  0  0  0  0
   45.3170   34.6050   44.6710 N   0  0  0  0  0  0  0  0  0  0  0  0
   45.1310   35.5750   43.7550 C   0  0  0  0  0  0  0  0  0  0  0  0
   45.8770   35.6400   42.6360 N   0  0  0  0  0  0  0  0  0  0  0  0
   46.4310   32.8670   45.2190 H   0  0  0  0  0  0  0  0  0  0  0  0
   44.3890   36.3290   43.8810 H   0  0  0  0  0  0  0  0  0  0  0  0
   48.3230   32.4560   43.0730 S   0  0  0  0  0  0  0  0  0  0  0  0
   49.0740   32.3860   44.2790 H   0  0  0  0  0  0  0  0  0  0  0  0
   47.0310   34.1160   40.0080 C   0  0  0  0  0  0  0  0  0  0  0  0
   46.4100   33.2390   40.3270 H   0  0  0  0  0  0  0  0  0  0  0  0
   46.2970   34.8780   39.6350 H   0  0  0  0  0  0  0  0  0  0  0  0
   48.0190   33.7550   38.9830 C   0  0  0  0  0  0  0  0  0  0  0  0
   48.6560   32.5810   38.8440 N   0  0  0  0  0  0  0  0  0  0  0  0
   49.4750   32.6640   37.7820 C   0  0  0  0  0  0  0  0  0  0  0  0
   50.1890   32.0720   37.2250 H   0  0  0  0  0  0  0  0  0  0  0  0
   49.3420   33.9120   37.2550 N   0  0  0  0  0  0  0  0  0  0  0  0
   49.7390   34.4750   36.4490 H   0  0  0  0  0  0  0  0  0  0  0  0
   48.4500   34.5810   37.9890 N   0  0  0  0  0  0  0  0  0  0  0  0
  1  3  1  0  0  0  0
  1  4  1  0  0  0  0
  2  1  1  0  0  0  0
  4  9  2  0  0  0  0
  4  5  1  0  0  0  0
  5  6  2  0  0  0  0
  6  7  1  0  0  0  0
  6 10  1  0  0  0  0
  8 11  1  0  0  0  0
  8  7  2  0  0  0  0
  9  8  1  0  0  0  0
 12  5  1  0  0  0  0
 12 13  1  0  0  0  0
 14 15  1  0  0  0  0
 14  1  1  0  0  0  0
 16 14  1  0  0  0  0
 17 14  1  0  0  0  0
 18 17  1  0  0  0  0
 19 18  2  0  0  0  0
 20 19  1  0  0  0  0
 21 19  1  0  0  0  0
 21 23  1  0  0  0  0
 22 21  1  0  0  0  0
 23 17  2  0  0  0  0
M  END
>  <minimizedAffinity>
-3.93740797

>  <minimizedRMSD>
1.86313879

$$$$
