
 OpenBabel03242515283D

 30 32  0  0  0  0  0  0  0  0999 V2000
   44.4530   35.7950   43.3040 C   0  0  0  0  0  0  0  0  0  0  0  0
   44.3420   34.7810   42.3380 C   0  0  0  0  0  0  0  0  0  0  0  0
   44.6840   33.5090   42.7400 C   0  0  0  0  0  0  0  0  0  0  0  0
   45.1040   33.2900   44.0050 N   0  0  0  0  0  0  0  0  0  0  0  0
   45.1900   34.3150   44.8890 C   0  0  0  0  0  0  0  0  0  0  0  0
   44.8710   35.5920   44.5730 N   0  0  0  0  0  0  0  0  0  0  0  0
   44.1930   36.8120   43.0310 H   0  0  0  0  0  0  0  0  0  0  0  0
   44.6020   32.7190   42.0030 H   0  0  0  0  0  0  0  0  0  0  0  0
   43.8770   35.1710   41.0060 C   0  0  0  0  0  0  0  0  0  0  0  0
   44.5110   34.5910   40.2770 H   0  0  0  0  0  0  0  0  0  0  0  0
   44.0810   36.2180   40.8030 H   0  0  0  0  0  0  0  0  0  0  0  0
   42.4940   34.7720   40.8680 N   0  0  0  0  0  0  0  0  0  0  0  0
   41.5310   35.4290   41.5180 C   0  0  0  0  0  0  0  0  0  0  0  0
   40.2330   35.0040   41.3510 C   0  0  0  0  0  0  0  0  0  0  0  0
   39.9160   33.9290   40.5400 C   0  0  0  0  0  0  0  0  0  0  0  0
   38.7280   33.5850   40.4240 O   0  0  0  0  0  0  0  0  0  0  0  0
   40.9140   33.2820   39.8930 N   0  0  0  0  0  0  0  0  0  0  0  0
   42.1930   33.7040   40.0600 C   0  0  0  0  0  0  0  0  0  0  0  0
   43.0750   33.0580   39.4300 O   0  0  0  0  0  0  0  0  0  0  0  0
   41.7520   36.2810   42.1650 H   0  0  0  0  0  0  0  0  0  0  0  0
   39.4150   35.5180   41.8680 H   0  0  0  0  0  0  0  0  0  0  0  0
   40.7080   32.4750   39.2800 H   0  0  0  0  0  0  0  0  0  0  0  0
   45.6240   34.1060   46.2020 O   0  0  0  0  0  0  0  0  0  0  0  0
   46.0990   32.8340   46.4910 C   0  0  0  0  0  0  0  0  0  0  0  0
   45.4290   32.1090   47.4320 N   0  0  0  0  0  0  0  0  0  0  0  0
   46.0500   30.9230   47.5530 C   0  0  0  0  0  0  0  0  0  0  0  0
   45.7480   30.1290   48.2300 H   0  0  0  0  0  0  0  0  0  0  0  0
   47.0930   30.9010   46.7050 N   0  0  0  0  0  0  0  0  0  0  0  0
   47.7750   30.1260   46.5560 H   0  0  0  0  0  0  0  0  0  0  0  0
   47.1200   32.0460   46.0690 N   0  0  0  0  0  0  0  0  0  0  0  0
  1  6  1  0  0  0  0
  2  3  1  0  0  0  0
  2  1  2  0  0  0  0
  3  4  2  0  0  0  0
  4  5  1  0  0  0  0
  5 23  1  0  0  0  0
  6  5  2  0  0  0  0
  7  1  1  0  0  0  0
  8  3  1  0  0  0  0
  9  2  1  0  0  0  0
 10  9  1  0  0  0  0
 11  9  1  0  0  0  0
 12  9  1  0  0  0  0
 12 13  1  0  0  0  0
 13 20  1  0  0  0  0
 14 13  2  0  0  0  0
 14 21  1  0  0  0  0
 15 14  1  0  0  0  0
 16 15  2  0  0  0  0
 17 18  1  0  0  0  0
 17 15  1  0  0  0  0
 18 12  1  0  0  0  0
 19 18  2  0  0  0  0
 22 17  1  0  0  0  0
 23 24  1  0  0  0  0
 24 25  1  0  0  0  0
 25 26  2  0  0  0  0
 26 27  1  0  0  0  0
 28 26  1  0  0  0  0
 29 28  1  0  0  0  0
 30 24  2  0  0  0  0
 30 28  1  0  0  0  0
M  END
>  <minimizedAffinity>
-5.09542704

>  <minimizedRMSD>
0.498933464

$$$$
