
 OpenBabel03242512513D

 42 46  0  0  1  0  0  0  0  0999 V2000
   47.1940   34.3290   42.6120 N   0  0  0  0  0  0  0  0  0  0  0  0
   48.5480   33.8010   42.5500 C   0  0  0  0  0  0  0  0  0  0  0  0
   49.1240   34.8310   41.6120 C   0  0  0  0  0  0  0  0  0  0  0  0
   48.1100   34.7820   40.4870 C   0  0  0  0  0  0  0  0  0  0  0  0
   46.7900   34.6680   41.2230 C   0  0  1  0  0  0  0  0  0  0  0  0
   49.0300   33.8950   43.5290 H   0  0  0  0  0  0  0  0  0  0  0  0
   48.5550   32.7820   42.1160 H   0  0  0  0  0  0  0  0  0  0  0  0
   49.1390   35.7910   42.1240 H   0  0  0  0  0  0  0  0  0  0  0  0
   50.1150   34.4490   41.2980 H   0  0  0  0  0  0  0  0  0  0  0  0
   48.2600   33.7930   39.9980 H   0  0  0  0  0  0  0  0  0  0  0  0
   48.1690   35.6260   39.7960 H   0  0  0  0  0  0  0  0  0  0  0  0
   46.3930   35.6380   41.3260 H   0  0  0  0  0  0  0  0  0  0  0  0
   45.9730   33.5580   40.7770 C   0  0  0  0  0  0  0  0  0  0  0  0
   46.4980   32.3200   40.5920 N   0  0  0  0  0  0  0  0  0  0  0  0
   45.8040   31.2420   40.1770 C   0  0  0  0  0  0  0  0  0  0  0  0
   44.4920   31.3880   39.9250 N   0  0  0  0  0  0  0  0  0  0  0  0
   43.9280   32.5700   40.0880 C   0  0  0  0  0  0  0  0  0  0  0  0
   42.5690   32.6630   39.8140 C   0  0  0  0  0  0  0  0  0  0  0  0
   41.9770   33.9200   39.9890 C   0  0  0  0  0  0  0  0  0  0  0  0
   42.6440   35.0650   40.4110 C   0  0  0  0  0  0  0  0  0  0  0  0
   43.9910   34.8780   40.6590 C   0  0  0  0  0  0  0  0  0  0  0  0
   44.6330   33.6990   40.5160 C   0  0  0  0  0  0  0  0  0  0  0  0
   46.3180   30.3040   40.0630 H   0  0  0  0  0  0  0  0  0  0  0  0
   41.9850   31.8300   39.4850 H   0  0  0  0  0  0  0  0  0  0  0  0
   40.9120   33.9590   39.7660 H   0  0  0  0  0  0  0  0  0  0  0  0
   42.0840   35.9770   40.5090 H   0  0  0  0  0  0  0  0  0  0  0  0
   44.4750   35.7890   40.9600 H   0  0  0  0  0  0  0  0  0  0  0  0
   44.5310   35.6100   44.8860 C   0  0  0  0  0  0  0  0  0  0  0  0
   45.3330   35.5080   43.7590 C   0  0  0  0  0  0  0  0  0  0  0  0
   46.3170   34.5350   43.7090 C   0  0  0  0  0  0  0  0  0  0  0  0
   46.4550   33.7170   44.7800 N   0  0  0  0  0  0  0  0  0  0  0  0
   45.6740   33.8130   45.8840 C   0  0  0  0  0  0  0  0  0  0  0  0
   44.7100   34.7660   45.9300 N   0  0  0  0  0  0  0  0  0  0  0  0
   43.7620   36.3890   44.8920 H   0  0  0  0  0  0  0  0  0  0  0  0
   45.1990   36.1800   42.9660 H   0  0  0  0  0  0  0  0  0  0  0  0
   45.8760   32.9030   46.9970 C   0  0  0  0  0  0  0  0  0  0  0  0
   44.9790   32.5650   47.9160 N   0  0  0  0  0  0  0  0  0  0  0  0
   45.4960   31.7070   48.7940 C   0  0  0  0  0  0  0  0  0  0  0  0
   44.8610   31.3620   49.5870 H   0  0  0  0  0  0  0  0  0  0  0  0
   46.7810   31.5080   48.3940 N   0  0  0  0  0  0  0  0  0  0  0  0
   47.3830   30.8520   48.9590 H   0  0  0  0  0  0  0  0  0  0  0  0
   47.0010   32.2440   47.2930 N   0  0  0  0  0  0  0  0  0  0  0  0
  1 30  1  0  0  0  0
  2  1  1  0  0  0  0
  2  6  1  0  0  0  0
  3  8  1  0  0  0  0
  3  2  1  0  0  0  0
  4  5  1  0  0  0  0
  4  3  1  0  0  0  0
  5 12  1  6  0  0  0
  5  1  1  0  0  0  0
  7  2  1  0  0  0  0
  9  3  1  0  0  0  0
 10  4  1  0  0  0  0
 11  4  1  0  0  0  0
 13  5  1  0  0  0  0
 14 13  1  0  0  0  0
 15 14  2  0  0  0  0
 16 17  2  0  0  0  0
 16 15  1  0  0  0  0
 17 22  1  0  0  0  0
 18 19  2  0  0  0  0
 18 17  1  0  0  0  0
 19 20  1  0  0  0  0
 20 26  1  0  0  0  0
 20 21  2  0  0  0  0
 21 27  1  0  0  0  0
 22 21  1  0  0  0  0
 22 13  2  0  0  0  0
 23 15  1  0  0  0  0
 24 18  1  0  0  0  0
 25 19  1  0  0  0  0
 28 34  1  0  0  0  0
 28 33  1  0  0  0  0
 29 28  2  0  0  0  0
 30 29  1  0  0  0  0
 30 31  2  0  0  0  0
 31 32  1  0  0  0  0
 32 33  2  0  0  0  0
 32 36  1  0  0  0  0
 35 29  1  0  0  0  0
 36 42  2  0  0  0  0
 36 37  1  0  0  0  0
 37 38  2  0  0  0  0
 38 39  1  0  0  0  0
 40 38  1  0  0  0  0
 40 41  1  0  0  0  0
 42 40  1  0  0  0  0
M  END
>  <minimizedAffinity>
-6.58656168

>  <minimizedRMSD>
0.162237823

$$$$
