
 OpenBabel03242515203D

 37 39  0  0  0  0  0  0  0  0999 V2000
   46.4930   32.0830   48.4260 C   0  0  0  0  0  0  0  0  0  0  0  0
   47.3160   31.4190   48.1770 H   0  0  0  0  0  0  0  0  0  0  0  0
   46.8800   32.7470   49.2470 H   0  0  0  0  0  0  0  0  0  0  0  0
   44.6760   34.4140   46.1930 C   0  0  0  0  0  0  0  0  0  0  0  0
   45.3920   34.2350   44.9660 C   0  0  0  0  0  0  0  0  0  0  0  0
   46.4250   33.3460   44.9840 C   0  0  0  0  0  0  0  0  0  0  0  0
   46.6660   32.7280   46.1500 N   0  0  0  0  0  0  0  0  0  0  0  0
   46.0090   32.8890   47.2850 C   0  0  0  0  0  0  0  0  0  0  0  0
   45.0110   33.7390   47.2930 N   0  0  0  0  0  0  0  0  0  0  0  0
   43.8380   35.0900   46.3010 H   0  0  0  0  0  0  0  0  0  0  0  0
   44.9220   35.0710   43.8400 C   0  0  0  0  0  0  0  0  0  0  0  0
   44.2460   34.8250   42.7160 N   0  0  0  0  0  0  0  0  0  0  0  0
   44.0550   35.9310   42.0000 C   0  0  0  0  0  0  0  0  0  0  0  0
   43.5360   35.9930   41.0540 H   0  0  0  0  0  0  0  0  0  0  0  0
   44.6270   36.9230   42.6840 N   0  0  0  0  0  0  0  0  0  0  0  0
   44.6920   37.9240   42.4610 H   0  0  0  0  0  0  0  0  0  0  0  0
   45.1240   36.3930   43.7520 N   0  0  0  0  0  0  0  0  0  0  0  0
   47.1600   33.1590   43.7470 C   0  0  0  0  0  0  0  0  0  0  0  0
   48.2450   32.2900   43.9730 F   0  0  0  0  0  0  0  0  0  0  0  0
   47.8010   34.3790   43.4740 F   0  0  0  0  0  0  0  0  0  0  0  0
   46.4160   32.6880   42.7260 F   0  0  0  0  0  0  0  0  0  0  0  0
   45.4160   31.2480   49.0560 C   0  0  0  0  0  0  0  0  0  0  0  0
   45.4770   31.1950   50.1650 H   0  0  0  0  0  0  0  0  0  0  0  0
   44.4400   31.7490   48.8280 H   0  0  0  0  0  0  0  0  0  0  0  0
   45.3400   29.9060   48.4560 C   0  0  0  0  0  0  0  0  0  0  0  0
   45.7870   29.4740   47.2480 C   0  0  0  0  0  0  0  0  0  0  0  0
   45.4720   28.1400   47.1620 C   0  0  0  0  0  0  0  0  0  0  0  0
   44.8560   27.7870   48.2830 N   0  0  0  0  0  0  0  0  0  0  0  0
   44.7830   28.8620   49.0540 N   0  0  0  0  0  0  0  0  0  0  0  0
   46.2950   30.1020   46.5160 H   0  0  0  0  0  0  0  0  0  0  0  0
   44.3310   26.4650   48.6530 C   0  0  0  0  0  0  0  0  0  0  0  0
   43.7740   26.5130   49.9420 F   0  0  0  0  0  0  0  0  0  0  0  0
   45.3150   25.5260   48.5380 F   0  0  0  0  0  0  0  0  0  0  0  0
   43.2950   26.1590   47.7820 F   0  0  0  0  0  0  0  0  0  0  0  0
   45.7660   27.2710   46.0290 C   0  0  0  0  0  0  0  0  0  0  0  0
   44.9120   26.9480   45.1520 O   0  0  0  0  0  0  0  0  0  0  0  0
   46.6710   26.7710   45.7260 H   0  0  0  0  0  0  0  0  0  0  0  0
  1 22  1  0  0  0  0
  1  3  1  0  0  0  0
  2  1  1  0  0  0  0
  4 10  1  0  0  0  0
  4  9  1  0  0  0  0
  5  6  1  0  0  0  0
  5  4  2  0  0  0  0
  6  7  2  0  0  0  0
  7  8  1  0  0  0  0
  8  9  2  0  0  0  0
  8  1  1  0  0  0  0
 11  5  1  0  0  0  0
 12 11  1  0  0  0  0
 13 15  1  0  0  0  0
 13 12  2  0  0  0  0
 14 13  1  0  0  0  0
 15 17  1  0  0  0  0
 16 15  1  0  0  0  0
 17 11  2  0  0  0  0
 18 19  1  0  0  0  0
 18  6  1  0  0  0  0
 20 18  1  0  0  0  0
 21 18  1  0  0  0  0
 22 23  1  0  0  0  0
 24 22  1  0  0  0  0
 25 29  2  0  0  0  0
 25 22  1  0  0  0  0
 26 25  1  0  0  0  0
 27 26  2  0  0  0  0
 27 28  1  0  0  0  0
 28 31  1  0  0  0  0
 28 29  1  0  0  0  0
 30 26  1  0  0  0  0
 31 32  1  0  0  0  0
 33 31  1  0  0  0  0
 34 31  1  0  0  0  0
 35 27  1  0  0  0  0
 36 35  2  0  0  0  0
 37 35  1  0  0  0  0
M  END
>  <minimizedAffinity>
-5.1014576

>  <minimizedRMSD>
1.75165093

$$$$
