
 OpenBabel03252509043D

 46 48  0  0  1  0  0  0  0  0999 V2000
   47.2020   34.0930   43.0430 N   0  0  0  0  0  0  0  0  0  0  0  0
   46.7600   35.3370   42.5310 C   0  0  0  0  0  0  0  0  0  0  0  0
   45.2940   35.6170   42.7340 C   0  0  0  0  0  0  0  0  0  0  0  0
   44.7130   35.0440   44.0070 C   0  0  0  0  0  0  0  0  0  0  0  0
   45.7830   34.3850   44.8480 C   0  0  0  0  0  0  0  0  0  0  0  0
   46.4030   33.3250   43.8680 C   0  0  2  0  0  0  0  0  0  0  0  0
   47.2870   36.1390   43.1210 H   0  0  0  0  0  0  0  0  0  0  0  0
   46.9930   35.5480   41.4850 H   0  0  0  0  0  0  0  0  0  0  0  0
   45.1120   36.7120   42.6530 H   0  0  0  0  0  0  0  0  0  0  0  0
   44.7660   35.1570   41.8630 H   0  0  0  0  0  0  0  0  0  0  0  0
   44.2700   35.9010   44.5900 H   0  0  0  0  0  0  0  0  0  0  0  0
   43.9100   34.3330   43.8190 H   0  0  0  0  0  0  0  0  0  0  0  0
   46.5820   35.0710   45.1410 H   0  0  0  0  0  0  0  0  0  0  0  0
   45.2900   33.8400   45.6730 H   0  0  0  0  0  0  0  0  0  0  0  0
   45.5260   32.8090   43.4290 H   0  0  0  0  0  0  0  0  0  0  0  0
   48.1710   33.4250   42.2090 C   0  0  0  0  0  0  0  0  0  0  0  0
   48.9100   34.1480   41.8210 H   0  0  0  0  0  0  0  0  0  0  0  0
   48.7250   32.7290   42.9010 H   0  0  0  0  0  0  0  0  0  0  0  0
   47.4620   32.6360   41.1730 C   0  0  0  0  0  0  0  0  0  0  0  0
   47.5150   31.5560   41.3670 H   0  0  0  0  0  0  0  0  0  0  0  0
   46.3600   32.8670   41.1370 H   0  0  0  0  0  0  0  0  0  0  0  0
   49.3620   32.3210   37.9480 C   0  0  0  0  0  0  0  0  0  0  0  0
   48.8290   32.0380   39.2190 C   0  0  0  0  0  0  0  0  0  0  0  0
   48.0170   32.9480   39.8330 C   0  0  0  0  0  0  0  0  0  0  0  0
   47.7630   34.0900   39.1810 N   0  0  0  0  0  0  0  0  0  0  0  0
   48.2700   34.3630   37.9670 C   0  0  0  0  0  0  0  0  0  0  0  0
   49.0700   33.4910   37.3380 N   0  0  0  0  0  0  0  0  0  0  0  0
   49.9980   31.5130   37.5560 H   0  0  0  0  0  0  0  0  0  0  0  0
   49.0480   31.1050   39.7300 H   0  0  0  0  0  0  0  0  0  0  0  0
   48.0700   35.2930   37.4250 H   0  0  0  0  0  0  0  0  0  0  0  0
   47.1410   32.5460   44.7450 O   0  0  0  0  0  0  0  0  0  0  0  0
   45.3430   30.7020   44.1030 O   0  0  0  0  0  0  0  0  0  0  0  0
   46.3480   31.1170   45.1720 P   0  0  2  0  0  0  0  0  0  0  0  0
   45.4370   31.4680   46.5650 O   0  0  0  0  0  0  0  0  0  0  0  0
   44.6740   32.0530   46.3710 H   0  0  0  0  0  0  0  0  0  0  0  0
   47.4140   29.8830   45.5350 O   0  0  0  0  0  0  0  0  0  0  0  0
   46.8330   28.6630   45.2610 C   0  0  0  0  0  0  0  0  0  0  0  0
   47.5260   28.0610   44.6670 H   0  0  0  0  0  0  0  0  0  0  0  0
   45.9710   28.8810   44.5650 H   0  0  0  0  0  0  0  0  0  0  0  0
   46.3070   27.9530   46.4460 C   0  0  0  0  0  0  0  0  0  0  0  0
   44.9730   27.8830   46.6660 N   0  0  0  0  0  0  0  0  0  0  0  0
   44.7290   27.1880   47.8020 C   0  0  0  0  0  0  0  0  0  0  0  0
   43.7090   27.0150   48.1660 H   0  0  0  0  0  0  0  0  0  0  0  0
   45.9430   26.8240   48.2890 N   0  0  0  0  0  0  0  0  0  0  0  0
   46.0520   26.2720   49.1670 H   0  0  0  0  0  0  0  0  0  0  0  0
   46.8580   27.2860   47.4710 N   0  0  0  0  0  0  0  0  0  0  0  0
  1  6  1  0  0  0  0
  2  3  1  0  0  0  0
  2  1  1  0  0  0  0
  2  7  1  0  0  0  0
  3  4  1  0  0  0  0
  4 11  1  0  0  0  0
  4  5  1  0  0  0  0
  5 13  1  0  0  0  0
  5 14  1  0  0  0  0
  6 15  1  6  0  0  0
  6 31  1  0  0  0  0
  6  5  1  0  0  0  0
  8  2  1  0  0  0  0
  9  3  1  0  0  0  0
 10  3  1  0  0  0  0
 12  4  1  0  0  0  0
 16 18  1  0  0  0  0
 16  1  1  0  0  0  0
 17 16  1  0  0  0  0
 19 20  1  0  0  0  0
 19 16  1  0  0  0  0
 21 19  1  0  0  0  0
 22 23  1  0  0  0  0
 23 29  1  0  0  0  0
 23 24  2  0  0  0  0
 24 19  1  0  0  0  0
 25 24  1  0  0  0  0
 26 25  2  0  0  0  0
 27 22  2  0  0  0  0
 27 26  1  0  0  0  0
 28 22  1  0  0  0  0
 30 26  1  0  0  0  0
 31 33  1  0  0  0  0
 33 32  2  6  0  0  0
 33 36  1  0  0  0  0
 33 34  1  0  0  0  0
 35 34  1  0  0  0  0
 37 36  1  0  0  0  0
 37 40  1  0  0  0  0
 38 37  1  0  0  0  0
 39 37  1  0  0  0  0
 40 41  1  0  0  0  0
 40 46  2  0  0  0  0
 41 42  2  0  0  0  0
 42 43  1  0  0  0  0
 42 44  1  0  0  0  0
 44 45  1  0  0  0  0
 46 44  1  0  0  0  0
M  END
>  <minimizedAffinity>
-4.12238979

>  <minimizedRMSD>
1.0075711

$$$$
