
 OpenBabel03242519173D

 40 43  0  0  1  0  0  0  0  0999 V2000
   48.3320   34.2230   40.9240 C   0  0  0  0  0  0  0  0  0  0  0  0
   47.8850   34.3620   39.6300 C   0  0  0  0  0  0  0  0  0  0  0  0
   48.2590   33.4950   38.5920 C   0  0  0  0  0  0  0  0  0  0  0  0
   49.1070   32.4900   38.9530 N   0  0  0  0  0  0  0  0  0  0  0  0
   49.5360   32.3640   40.2170 C   0  0  0  0  0  0  0  0  0  0  0  0
   49.1570   33.2130   41.1780 N   0  0  0  0  0  0  0  0  0  0  0  0
   47.2130   35.1850   39.4250 H   0  0  0  0  0  0  0  0  0  0  0  0
   47.8880   33.6350   37.5900 H   0  0  0  0  0  0  0  0  0  0  0  0
   50.4470   31.2450   40.6240 C   0  0  2  0  0  0  0  0  0  0  0  0
   51.1860   31.3590   41.9200 C   0  0  0  0  0  0  0  0  0  0  0  0
   51.9080   31.5260   40.5700 C   0  0  1  0  0  0  0  0  0  0  0  0
   50.1260   30.2740   40.1960 H   0  0  0  0  0  0  0  0  0  0  0  0
   50.9940   32.2820   42.5110 H   0  0  0  0  0  0  0  0  0  0  0  0
   51.3280   30.4320   42.4900 H   0  0  0  0  0  0  0  0  0  0  0  0
   52.2770   32.5470   40.3870 H   0  0  0  0  0  0  0  0  0  0  0  0
   52.8670   30.4210   40.3030 C   0  0  0  0  0  0  0  0  0  0  0  0
   54.1110   30.2810   40.7640 N   0  0  0  0  0  0  0  0  0  0  0  0
   54.6780   29.1340   40.2960 C   0  0  0  0  0  0  0  0  0  0  0  0
   55.6900   28.9640   40.6360 H   0  0  0  0  0  0  0  0  0  0  0  0
   53.7260   28.5650   39.5220 N   0  0  0  0  0  0  0  0  0  0  0  0
   53.9920   27.6560   39.0710 H   0  0  0  0  0  0  0  0  0  0  0  0
   52.6480   29.3400   39.5310 N   0  0  0  0  0  0  0  0  0  0  0  0
   47.9240   35.1220   41.9730 C   0  0  0  0  0  0  0  0  0  0  0  0
   48.0520   36.1780   41.5930 H   0  0  0  0  0  0  0  0  0  0  0  0
   48.5730   35.0710   42.8700 H   0  0  0  0  0  0  0  0  0  0  0  0
   46.4960   34.9530   42.3020 C   0  0  0  0  0  0  0  0  0  0  0  0
   45.9960   34.2400   41.5870 H   0  0  0  0  0  0  0  0  0  0  0  0
   45.8790   35.8840   42.2190 H   0  0  0  0  0  0  0  0  0  0  0  0
   44.5730   36.4220   44.0330 Cl  0  0  0  0  0  0  0  0  0  0  0  0
   45.3940   34.9710   44.5510 C   0  0  0  0  0  0  0  0  0  0  0  0
   46.2580   34.3830   43.6650 C   0  0  0  0  0  0  0  0  0  0  0  0
   46.9080   33.2370   44.0710 C   0  0  0  0  0  0  0  0  0  0  0  0
   46.6950   32.7030   45.3250 C   0  0  0  0  0  0  0  0  0  0  0  0
   45.8090   33.3180   46.2150 C   0  0  0  0  0  0  0  0  0  0  0  0
   45.1610   34.4700   45.7960 C   0  0  0  0  0  0  0  0  0  0  0  0
   47.6040   32.7230   43.4220 H   0  0  0  0  0  0  0  0  0  0  0  0
   47.1590   31.8250   45.7040 H   0  0  0  0  0  0  0  0  0  0  0  0
   45.6260   32.9180   47.2020 H   0  0  0  0  0  0  0  0  0  0  0  0
   44.2550   35.1560   46.6160 O   0  0  0  0  0  0  0  0  0  0  0  0
   43.4540   34.6440   46.9690 H   0  0  0  0  0  0  0  0  0  0  0  0
  1  6  1  0  0  0  0
  1 23  1  0  0  0  0
  2  1  2  0  0  0  0
  3  4  2  0  0  0  0
  3  2  1  0  0  0  0
  4  5  1  0  0  0  0
  5  9  1  0  0  0  0
  5  6  2  0  0  0  0
  7  2  1  0  0  0  0
  8  3  1  0  0  0  0
  9 12  1  6  0  0  0
  9 10  1  0  0  0  0
 10 14  1  0  0  0  0
 10 13  1  0  0  0  0
 11 15  1  6  0  0  0
 11  9  1  0  0  0  0
 11 10  1  0  0  0  0
 16 11  1  0  0  0  0
 16 17  1  0  0  0  0
 18 19  1  0  0  0  0
 18 17  2  0  0  0  0
 20 22  1  0  0  0  0
 20 18  1  0  0  0  0
 21 20  1  0  0  0  0
 22 16  2  0  0  0  0
 23 26  1  0  0  0  0
 23 25  1  0  0  0  0
 24 23  1  0  0  0  0
 26 31  1  0  0  0  0
 27 26  1  0  0  0  0
 28 26  1  0  0  0  0
 29 30  1  0  0  0  0
 30 35  1  0  0  0  0
 31 32  1  0  0  0  0
 31 30  2  0  0  0  0
 32 33  2  0  0  0  0
 33 37  1  0  0  0  0
 33 34  1  0  0  0  0
 34 38  1  0  0  0  0
 35 34  2  0  0  0  0
 35 39  1  0  0  0  0
 36 32  1  0  0  0  0
 39 40  1  0  0  0  0
M  END
>  <minimizedAffinity>
-5.72668839

>  <minimizedRMSD>
0.343806177

$$$$
