
 OpenBabel03252508083D

 42 45  0  0  0  0  0  0  0  0999 V2000
   45.2730   35.9220   42.8590 C   0  0  0  0  0  0  0  0  0  0  0  0
   45.5190   34.5590   42.8810 C   0  0  0  0  0  0  0  0  0  0  0  0
   45.3010   33.8370   44.0290 C   0  0  0  0  0  0  0  0  0  0  0  0
   44.8350   34.5370   45.1250 N   0  0  0  0  0  0  0  0  0  0  0  0
   44.6000   35.8470   45.0980 C   0  0  0  0  0  0  0  0  0  0  0  0
   44.8250   36.5280   43.9540 N   0  0  0  0  0  0  0  0  0  0  0  0
   45.4330   36.5340   41.9690 H   0  0  0  0  0  0  0  0  0  0  0  0
   44.2380   36.3750   45.9570 H   0  0  0  0  0  0  0  0  0  0  0  0
   45.5020   32.4510   44.2140 C   0  0  0  0  0  0  0  0  0  0  0  0
   45.0410   31.4680   43.3330 C   0  0  0  0  0  0  0  0  0  0  0  0
   45.1780   30.1200   43.5420 C   0  0  0  0  0  0  0  0  0  0  0  0
   45.8050   29.6660   44.6820 C   0  0  0  0  0  0  0  0  0  0  0  0
   46.2850   30.6540   45.5940 C   0  0  0  0  0  0  0  0  0  0  0  0
   46.9070   30.2120   46.7300 C   0  0  0  0  0  0  0  0  0  0  0  0
   47.3970   31.1120   47.6530 C   0  0  0  0  0  0  0  0  0  0  0  0
   47.2510   32.4870   47.4170 C   0  0  0  0  0  0  0  0  0  0  0  0
   46.6040   32.8900   46.2350 C   0  0  0  0  0  0  0  0  0  0  0  0
   46.1250   31.9740   45.3390 C   0  0  0  0  0  0  0  0  0  0  0  0
   44.5450   31.7960   42.4300 H   0  0  0  0  0  0  0  0  0  0  0  0
   44.8080   29.3920   42.8360 H   0  0  0  0  0  0  0  0  0  0  0  0
   45.9420   28.6190   44.9040 H   0  0  0  0  0  0  0  0  0  0  0  0
   47.0260   29.1560   46.9210 H   0  0  0  0  0  0  0  0  0  0  0  0
   47.8810   30.7110   48.5370 H   0  0  0  0  0  0  0  0  0  0  0  0
   47.6640   33.1000   48.1890 H   0  0  0  0  0  0  0  0  0  0  0  0
   46.6120   33.9590   46.2280 H   0  0  0  0  0  0  0  0  0  0  0  0
   45.9750   33.9870   41.7240 O   0  0  0  0  0  0  0  0  0  0  0  0
   47.9700   32.3780   41.1900 O   0  0  0  0  0  0  0  0  0  0  0  0
   47.6080   33.8150   41.3160 P   0  0  1  0  0  0  0  0  0  0  0  0
   47.9370   34.5380   39.8200 O   0  0  0  0  0  0  0  0  0  0  0  0
   47.5810   33.8440   38.6700 C   0  0  0  0  0  0  0  0  0  0  0  0
   48.3980   33.7070   37.5930 N   0  0  0  0  0  0  0  0  0  0  0  0
   47.7770   32.9870   36.6410 C   0  0  0  0  0  0  0  0  0  0  0  0
   48.1560   32.7020   35.6630 H   0  0  0  0  0  0  0  0  0  0  0  0
   46.5590   32.6680   37.1200 N   0  0  0  0  0  0  0  0  0  0  0  0
   45.7980   32.1050   36.6360 H   0  0  0  0  0  0  0  0  0  0  0  0
   46.4610   33.1880   38.3290 N   0  0  0  0  0  0  0  0  0  0  0  0
   48.5300   34.5750   42.4960 O   0  0  0  0  0  0  0  0  0  0  0  0
   49.7300   35.2400   42.3080 C   0  0  0  0  0  0  0  0  0  0  0  0
   49.4100   36.3490   41.8420 O   0  0  0  0  0  0  0  0  0  0  0  0
   50.8440   34.4170   42.7140 N   0  0  0  0  0  0  0  0  0  0  0  0
   50.9110   34.1740   43.7380 H   0  0  0  0  0  0  0  0  0  0  0  0
   51.6140   34.0160   42.1330 H   0  0  0  0  0  0  0  0  0  0  0  0
  1  2  2  0  0  0  0
  1  6  1  0  0  0  0
  2  3  1  0  0  0  0
  3  9  1  0  0  0  0
  3  4  2  0  0  0  0
  5  4  1  0  0  0  0
  5  8  1  0  0  0  0
  6  5  2  0  0  0  0
  7  1  1  0  0  0  0
  9 18  1  0  0  0  0
 10 11  1  0  0  0  0
 10  9  2  0  0  0  0
 11 12  2  0  0  0  0
 12 21  1  0  0  0  0
 12 13  1  0  0  0  0
 13 14  1  0  0  0  0
 14 22  1  0  0  0  0
 14 15  2  0  0  0  0
 15 23  1  0  0  0  0
 16 15  1  0  0  0  0
 16 24  1  0  0  0  0
 17 16  2  0  0  0  0
 18 13  2  0  0  0  0
 18 17  1  0  0  0  0
 19 10  1  0  0  0  0
 20 11  1  0  0  0  0
 25 17  1  0  0  0  0
 26  2  1  0  0  0  0
 28 27  2  6  0  0  0
 28 26  1  0  0  0  0
 28 37  1  0  0  0  0
 29 28  1  0  0  0  0
 30 29  1  0  0  0  0
 31 30  1  0  0  0  0
 32 34  1  0  0  0  0
 32 31  2  0  0  0  0
 33 32  1  0  0  0  0
 34 36  1  0  0  0  0
 35 34  1  0  0  0  0
 36 30  2  0  0  0  0
 38 37  1  0  0  0  0
 38 40  1  0  0  0  0
 39 38  2  0  0  0  0
 40 41  1  0  0  0  0
 42 40  1  0  0  0  0
M  END
>  <minimizedAffinity>
-5.99487686

>  <minimizedRMSD>
0.67582047

$$$$
