
 OpenBabel03252509033D

 46 48  0  0  1  0  0  0  0  0999 V2000
   47.1580   34.1780   43.0970 N   0  0  0  0  0  0  0  0  0  0  0  0
   46.6830   35.3900   42.5370 C   0  0  0  0  0  0  0  0  0  0  0  0
   45.2170   35.6540   42.7590 C   0  0  0  0  0  0  0  0  0  0  0  0
   44.6740   35.1330   44.0700 C   0  0  0  0  0  0  0  0  0  0  0  0
   45.7720   34.5310   44.9170 C   0  0  0  0  0  0  0  0  0  0  0  0
   46.3900   33.4370   43.9740 C   0  0  2  0  0  0  0  0  0  0  0  0
   47.2090   36.2270   43.0780 H   0  0  0  0  0  0  0  0  0  0  0  0
   46.8900   35.5550   41.4780 H   0  0  0  0  0  0  0  0  0  0  0  0
   45.0140   36.7410   42.6310 H   0  0  0  0  0  0  0  0  0  0  0  0
   44.6790   35.1460   41.9220 H   0  0  0  0  0  0  0  0  0  0  0  0
   44.2280   36.0080   44.6230 H   0  0  0  0  0  0  0  0  0  0  0  0
   43.8800   34.4000   43.9340 H   0  0  0  0  0  0  0  0  0  0  0  0
   46.5650   35.2430   45.1610 H   0  0  0  0  0  0  0  0  0  0  0  0
   45.3070   34.0180   45.7770 H   0  0  0  0  0  0  0  0  0  0  0  0
   45.5130   32.8860   43.5790 H   0  0  0  0  0  0  0  0  0  0  0  0
   48.1200   33.4890   42.2740 C   0  0  0  0  0  0  0  0  0  0  0  0
   48.8620   34.1990   41.8690 H   0  0  0  0  0  0  0  0  0  0  0  0
   48.6730   32.8030   42.9770 H   0  0  0  0  0  0  0  0  0  0  0  0
   47.4040   32.6820   41.2570 C   0  0  0  0  0  0  0  0  0  0  0  0
   47.4410   31.6070   41.4790 H   0  0  0  0  0  0  0  0  0  0  0  0
   46.3050   32.9260   41.2110 H   0  0  0  0  0  0  0  0  0  0  0  0
   49.3180   32.2640   38.0520 C   0  0  0  0  0  0  0  0  0  0  0  0
   48.7780   32.0200   39.3280 C   0  0  0  0  0  0  0  0  0  0  0  0
   47.9670   32.9510   39.9110 C   0  0  0  0  0  0  0  0  0  0  0  0
   47.7190   34.0740   39.2230 N   0  0  0  0  0  0  0  0  0  0  0  0
   48.2330   34.3090   38.0040 C   0  0  0  0  0  0  0  0  0  0  0  0
   49.0330   33.4150   37.4050 N   0  0  0  0  0  0  0  0  0  0  0  0
   49.9540   31.4420   37.6880 H   0  0  0  0  0  0  0  0  0  0  0  0
   48.9910   31.1030   39.8690 H   0  0  0  0  0  0  0  0  0  0  0  0
   48.0390   35.2220   37.4330 H   0  0  0  0  0  0  0  0  0  0  0  0
   47.1600   32.7120   44.8690 O   0  0  0  0  0  0  0  0  0  0  0  0
   45.6570   30.6770   44.0670 O   0  0  0  0  0  0  0  0  0  0  0  0
   46.4930   31.2030   45.2300 P   0  0  2  0  0  0  0  0  0  0  0  0
   45.4080   31.4490   46.5170 O   0  0  0  0  0  0  0  0  0  0  0  0
   44.6080   31.9440   46.2390 H   0  0  0  0  0  0  0  0  0  0  0  0
   47.6460   30.0980   45.7150 O   0  0  0  0  0  0  0  0  0  0  0  0
   47.2190   28.8160   45.4370 C   0  0  0  0  0  0  0  0  0  0  0  0
   48.0360   28.2600   44.9690 H   0  0  0  0  0  0  0  0  0  0  0  0
   46.4400   28.9210   44.6250 H   0  0  0  0  0  0  0  0  0  0  0  0
   46.6070   28.1100   46.5810 C   0  0  0  0  0  0  0  0  0  0  0  0
   45.3000   28.2910   46.8790 N   0  0  0  0  0  0  0  0  0  0  0  0
   44.9650   27.5480   47.9590 C   0  0  0  0  0  0  0  0  0  0  0  0
   43.9460   27.5490   48.3690 H   0  0  0  0  0  0  0  0  0  0  0  0
   46.0950   26.8950   48.3320 N   0  0  0  0  0  0  0  0  0  0  0  0
   46.1220   26.2450   49.1470 H   0  0  0  0  0  0  0  0  0  0  0  0
   47.0500   27.2420   47.5030 N   0  0  0  0  0  0  0  0  0  0  0  0
  1  6  1  0  0  0  0
  2  3  1  0  0  0  0
  2  7  1  0  0  0  0
  2  1  1  0  0  0  0
  3  4  1  0  0  0  0
  4 11  1  0  0  0  0
  4  5  1  0  0  0  0
  5 13  1  0  0  0  0
  5 14  1  0  0  0  0
  6 15  1  6  0  0  0
  6 31  1  0  0  0  0
  6  5  1  0  0  0  0
  8  2  1  0  0  0  0
  9  3  1  0  0  0  0
 10  3  1  0  0  0  0
 12  4  1  0  0  0  0
 16 18  1  0  0  0  0
 16  1  1  0  0  0  0
 17 16  1  0  0  0  0
 19 20  1  0  0  0  0
 19 16  1  0  0  0  0
 21 19  1  0  0  0  0
 22 23  1  0  0  0  0
 23 29  1  0  0  0  0
 23 24  2  0  0  0  0
 24 19  1  0  0  0  0
 25 24  1  0  0  0  0
 26 25  2  0  0  0  0
 27 26  1  0  0  0  0
 27 22  2  0  0  0  0
 28 22  1  0  0  0  0
 30 26  1  0  0  0  0
 31 33  1  0  0  0  0
 33 32  2  6  0  0  0
 33 36  1  0  0  0  0
 33 34  1  0  0  0  0
 35 34  1  0  0  0  0
 37 36  1  0  0  0  0
 37 40  1  0  0  0  0
 38 37  1  0  0  0  0
 39 37  1  0  0  0  0
 40 41  1  0  0  0  0
 40 46  2  0  0  0  0
 41 42  2  0  0  0  0
 42 44  1  0  0  0  0
 42 43  1  0  0  0  0
 44 45  1  0  0  0  0
 46 44  1  0  0  0  0
M  END
>  <minimizedAffinity>
-4.12710905

>  <minimizedRMSD>
0.992961705

$$$$
