
 OpenBabel03242515163D

 35 37  0  0  0  0  0  0  0  0999 V2000
   45.6340   32.1140   47.4750 C   0  0  0  0  0  0  0  0  0  0  0  0
   44.6270   32.6070   47.3630 H   0  0  0  0  0  0  0  0  0  0  0  0
   45.9110   32.2440   48.5420 H   0  0  0  0  0  0  0  0  0  0  0  0
   45.4440   30.6760   47.1570 C   0  0  0  0  0  0  0  0  0  0  0  0
   45.5190   30.0260   45.9470 C   0  0  0  0  0  0  0  0  0  0  0  0
   45.2630   28.7090   46.2010 C   0  0  0  0  0  0  0  0  0  0  0  0
   45.0410   28.5610   47.5100 N   0  0  0  0  0  0  0  0  0  0  0  0
   45.1540   29.7570   48.0720 N   0  0  0  0  0  0  0  0  0  0  0  0
   45.7430   30.5050   44.9870 H   0  0  0  0  0  0  0  0  0  0  0  0
   45.2370   27.6460   45.2010 C   0  0  0  0  0  0  0  0  0  0  0  0
   46.0960   26.6530   44.8990 N   0  0  0  0  0  0  0  0  0  0  0  0
   45.6030   25.9210   43.8690 C   0  0  0  0  0  0  0  0  0  0  0  0
   46.1280   25.0630   43.4510 H   0  0  0  0  0  0  0  0  0  0  0  0
   44.4100   26.4870   43.5380 N   0  0  0  0  0  0  0  0  0  0  0  0
   43.8190   26.1030   42.7590 H   0  0  0  0  0  0  0  0  0  0  0  0
   44.2130   27.5110   44.3420 N   0  0  0  0  0  0  0  0  0  0  0  0
   44.7270   27.3210   48.2360 C   0  0  0  0  0  0  0  0  0  0  0  0
   44.3120   27.6180   49.5330 F   0  0  0  0  0  0  0  0  0  0  0  0
   45.8080   26.4810   48.2040 F   0  0  0  0  0  0  0  0  0  0  0  0
   43.6810   26.7000   47.6030 F   0  0  0  0  0  0  0  0  0  0  0  0
   46.6210   32.7540   46.5390 C   0  0  0  0  0  0  0  0  0  0  0  0
   47.1330   31.9570   46.0250 H   0  0  0  0  0  0  0  0  0  0  0  0
   47.3410   33.3360   47.1830 H   0  0  0  0  0  0  0  0  0  0  0  0
   44.5570   35.4450   44.9950 C   0  0  0  0  0  0  0  0  0  0  0  0
   45.1050   35.4740   43.7020 C   0  0  0  0  0  0  0  0  0  0  0  0
   46.1330   34.5970   43.4170 C   0  0  0  0  0  0  0  0  0  0  0  0
   46.5100   33.7910   44.4200 N   0  0  0  0  0  0  0  0  0  0  0  0
   45.9940   33.7590   45.6450 C   0  0  0  0  0  0  0  0  0  0  0  0
   45.0130   34.5950   45.9220 N   0  0  0  0  0  0  0  0  0  0  0  0
   43.7480   36.1200   45.2550 H   0  0  0  0  0  0  0  0  0  0  0  0
   44.7190   36.1760   42.9580 H   0  0  0  0  0  0  0  0  0  0  0  0
   46.6920   34.6440   42.0730 C   0  0  0  0  0  0  0  0  0  0  0  0
   47.4830   33.5150   41.8640 F   0  0  0  0  0  0  0  0  0  0  0  0
   47.6050   35.7020   42.0720 F   0  0  0  0  0  0  0  0  0  0  0  0
   45.7430   34.7480   41.1040 F   0  0  0  0  0  0  0  0  0  0  0  0
  1  3  1  0  0  0  0
  2  1  1  0  0  0  0
  4  1  1  0  0  0  0
  4  8  2  0  0  0  0
  5  6  2  0  0  0  0
  5  4  1  0  0  0  0
  6  7  1  0  0  0  0
  7  8  1  0  0  0  0
  7 17  1  0  0  0  0
  9  5  1  0  0  0  0
 10  6  1  0  0  0  0
 11 10  1  0  0  0  0
 12 11  2  0  0  0  0
 13 12  1  0  0  0  0
 14 12  1  0  0  0  0
 14 16  1  0  0  0  0
 15 14  1  0  0  0  0
 16 10  2  0  0  0  0
 17 18  1  0  0  0  0
 19 17  1  0  0  0  0
 20 17  1  0  0  0  0
 21 23  1  0  0  0  0
 21  1  1  0  0  0  0
 22 21  1  0  0  0  0
 24 30  1  0  0  0  0
 24 29  1  0  0  0  0
 25 24  2  0  0  0  0
 26 25  1  0  0  0  0
 26 27  2  0  0  0  0
 27 28  1  0  0  0  0
 28 29  2  0  0  0  0
 28 21  1  0  0  0  0
 31 25  1  0  0  0  0
 32 26  1  0  0  0  0
 33 32  1  0  0  0  0
 34 32  1  0  0  0  0
 35 32  1  0  0  0  0
M  END
>  <minimizedAffinity>
-5.1725564

>  <minimizedRMSD>
0.139777586

$$$$
