
 OpenBabel03242511523D

 32 36  0  0  1  0  0  0  0  0999 V2000
   43.5510   33.8780   40.4970 C   0  0  1  0  0  0  0  0  0  0  0  0
   44.4390   33.4130   39.4710 C   0  0  2  0  0  0  0  0  0  0  0  0
   43.5190   32.4690   40.1500 C   0  0  0  0  0  0  0  0  0  0  0  0
   42.6860   34.5230   40.1540 H   0  0  0  0  0  0  0  0  0  0  0  0
   44.1300   33.6390   38.4050 H   0  0  0  0  0  0  0  0  0  0  0  0
   43.8890   31.7430   40.9290 H   0  0  0  0  0  0  0  0  0  0  0  0
   42.6390   32.0400   39.6210 H   0  0  0  0  0  0  0  0  0  0  0  0
   44.2640   35.7430   41.9000 C   0  0  0  0  0  0  0  0  0  0  0  0
   44.1090   34.3700   41.7620 C   0  0  0  0  0  0  0  0  0  0  0  0
   44.4250   33.5120   42.8090 C   0  0  0  0  0  0  0  0  0  0  0  0
   44.8890   34.1050   43.9630 N   0  0  0  0  0  0  0  0  0  0  0  0
   45.0370   35.4370   44.0940 C   0  0  0  0  0  0  0  0  0  0  0  0
   44.7210   36.2540   43.0490 N   0  0  0  0  0  0  0  0  0  0  0  0
   44.0220   36.4010   41.0960 H   0  0  0  0  0  0  0  0  0  0  0  0
   44.3120   32.4580   42.7150 H   0  0  0  0  0  0  0  0  0  0  0  0
   45.3930   35.9040   44.9770 H   0  0  0  0  0  0  0  0  0  0  0  0
   45.8610   33.0760   39.6720 C   0  0  1  0  0  0  0  0  0  0  0  0
   46.6680   33.7480   39.0020 O   0  0  0  0  0  0  0  0  0  0  0  0
   47.2140   33.1990   40.2160 C   0  0  2  0  0  0  0  0  0  0  0  0
   47.9010   31.8360   40.3450 C   0  0  0  0  0  0  0  0  0  0  0  0
   47.7560   32.7270   41.4670 C   0  0  1  0  0  0  0  0  0  0  0  0
   45.8130   32.0670   39.0570 H   0  0  0  0  0  0  0  0  0  0  0  0
   47.3080   30.9080   40.3400 H   0  0  0  0  0  0  0  0  0  0  0  0
   48.8330   31.8010   39.7470 H   0  0  0  0  0  0  0  0  0  0  0  0
   46.9370   32.5020   42.2130 H   0  0  0  0  0  0  0  0  0  0  0  0
   48.9940   33.3220   41.9710 C   0  0  0  0  0  0  0  0  0  0  0  0
   50.2300   32.7620   41.8170 N   0  0  0  0  0  0  0  0  0  0  0  0
   51.1440   33.5610   42.3950 C   0  0  0  0  0  0  0  0  0  0  0  0
   52.1790   33.3060   42.3880 H   0  0  0  0  0  0  0  0  0  0  0  0
   50.4400   34.6120   42.8990 N   0  0  0  0  0  0  0  0  0  0  0  0
   50.9170   35.3970   43.4100 H   0  0  0  0  0  0  0  0  0  0  0  0
   49.1330   34.4510   42.6330 N   0  0  0  0  0  0  0  0  0  0  0  0
  1  4  1  6  0  0  0
  1  9  1  0  0  0  0
  2  5  1  6  0  0  0
  2 17  1  0  0  0  0
  2  3  1  0  0  0  0
  2  1  1  0  0  0  0
  3  1  1  0  0  0  0
  3  6  1  0  0  0  0
  7  3  1  0  0  0  0
  8 13  1  0  0  0  0
  9  8  2  0  0  0  0
  9 10  1  0  0  0  0
 10 11  2  0  0  0  0
 11 12  1  0  0  0  0
 12 16  1  0  0  0  0
 13 12  2  0  0  0  0
 14  8  1  0  0  0  0
 15 10  1  0  0  0  0
 17 22  1  6  0  0  0
 17 19  1  0  0  0  0
 18 17  1  0  0  0  0
 19 18  1  6  0  0  0
 19 20  1  0  0  0  0
 19 21  1  0  0  0  0
 20 21  1  0  0  0  0
 21 26  1  0  0  0  0
 21 25  1  1  0  0  0
 23 20  1  0  0  0  0
 24 20  1  0  0  0  0
 26 32  2  0  0  0  0
 27 26  1  0  0  0  0
 27 28  2  0  0  0  0
 28 30  1  0  0  0  0
 29 28  1  0  0  0  0
 30 31  1  0  0  0  0
 32 30  1  0  0  0  0
M  END
>  <minimizedAffinity>
-4.30116129

>  <minimizedRMSD>
2.55905461

$$$$
