
 OpenBabel03252509313D

 25 26  0  0  0  0  0  0  0  0999 V2000
   48.3180   33.3410   43.4490 O   0  0  0  0  0  0  0  0  0  0  0  0
   47.0230   33.3470   42.9560 C   0  0  0  0  0  0  0  0  0  0  0  0
   46.7110   32.2940   42.8350 H   0  0  0  0  0  0  0  0  0  0  0  0
   46.9500   33.7780   41.9250 H   0  0  0  0  0  0  0  0  0  0  0  0
   44.9830   34.5290   45.8390 C   0  0  0  0  0  0  0  0  0  0  0  0
   45.8430   33.7270   45.0630 C   0  0  0  0  0  0  0  0  0  0  0  0
   46.1330   34.1640   43.7800 C   0  0  0  0  0  0  0  0  0  0  0  0
   45.5760   35.3350   43.3420 N   0  0  0  0  0  0  0  0  0  0  0  0
   44.7560   36.0760   44.1180 C   0  0  0  0  0  0  0  0  0  0  0  0
   44.4690   35.6670   45.3530 N   0  0  0  0  0  0  0  0  0  0  0  0
   44.7000   34.2760   46.8440 H   0  0  0  0  0  0  0  0  0  0  0  0
   46.2360   32.8270   45.4810 H   0  0  0  0  0  0  0  0  0  0  0  0
   44.4210   36.9650   43.5890 H   0  0  0  0  0  0  0  0  0  0  0  0
   50.0850   33.0310   41.5490 O   0  0  0  0  0  0  0  0  0  0  0  0
   49.3010   34.0830   42.2760 P   0  0  2  0  0  0  0  0  0  0  0  0
   50.2630   35.2100   43.0810 O   0  0  0  0  0  0  0  0  0  0  0  0
   50.2640   36.1030   42.6690 H   0  0  0  0  0  0  0  0  0  0  0  0
   48.2970   34.8660   41.1800 O   0  0  0  0  0  0  0  0  0  0  0  0
   48.0010   34.4490   39.8910 C   0  0  0  0  0  0  0  0  0  0  0  0
   47.1710   33.5190   39.3840 N   0  0  0  0  0  0  0  0  0  0  0  0
   47.2510   33.5030   38.0440 C   0  0  0  0  0  0  0  0  0  0  0  0
   46.7220   32.8820   37.3340 H   0  0  0  0  0  0  0  0  0  0  0  0
   48.1590   34.4560   37.7640 N   0  0  0  0  0  0  0  0  0  0  0  0
   48.4520   34.6950   36.7800 H   0  0  0  0  0  0  0  0  0  0  0  0
   48.6350   35.0500   38.8450 N   0  0  0  0  0  0  0  0  0  0  0  0
  2  1  1  0  0  0  0
  2  7  1  0  0  0  0
  3  2  1  0  0  0  0
  4  2  1  0  0  0  0
  5 11  1  0  0  0  0
  6 12  1  0  0  0  0
  6  5  2  0  0  0  0
  7  6  1  0  0  0  0
  8  7  2  0  0  0  0
  8  9  1  0  0  0  0
  9 10  2  0  0  0  0
 10  5  1  0  0  0  0
 13  9  1  0  0  0  0
 15 14  2  6  0  0  0
 15 16  1  0  0  0  0
 15  1  1  0  0  0  0
 17 16  1  0  0  0  0
 18 15  1  0  0  0  0
 19 18  1  0  0  0  0
 20 19  1  0  0  0  0
 21 20  2  0  0  0  0
 22 21  1  0  0  0  0
 23 21  1  0  0  0  0
 23 25  1  0  0  0  0
 24 23  1  0  0  0  0
 25 19  2  0  0  0  0
M  END
>  <minimizedAffinity>
-4.82614565

>  <minimizedRMSD>
1.15227759

$$$$
