
 OpenBabel03242517063D

 32 34  0  0  1  0  0  0  0  0999 V2000
   46.1040   33.8900   43.0030 C   0  0  2  0  0  0  0  0  0  0  0  0
   45.4470   35.0550   42.3650 C   0  0  2  0  0  0  0  0  0  0  0  0
   45.3360   36.2440   43.2760 C   0  0  0  0  0  0  0  0  0  0  0  0
   44.6020   35.8920   44.5550 C   0  0  0  0  0  0  0  0  0  0  0  0
   45.0410   34.5950   45.1600 C   0  0  0  0  0  0  0  0  0  0  0  0
   46.2880   34.0440   44.5090 C   0  0  0  0  0  0  0  0  0  0  0  0
   45.5140   32.9360   42.8610 H   0  0  0  0  0  0  0  0  0  0  0  0
   45.9480   35.3870   41.4240 H   0  0  0  0  0  0  0  0  0  0  0  0
   44.7360   37.0270   42.7680 H   0  0  0  0  0  0  0  0  0  0  0  0
   46.3050   36.6610   43.6160 H   0  0  0  0  0  0  0  0  0  0  0  0
   43.5270   35.8120   44.3020 H   0  0  0  0  0  0  0  0  0  0  0  0
   44.6760   36.7340   45.2730 H   0  0  0  0  0  0  0  0  0  0  0  0
   44.2540   33.8440   45.2570 H   0  0  0  0  0  0  0  0  0  0  0  0
   45.3480   34.8190   46.2250 H   0  0  0  0  0  0  0  0  0  0  0  0
   46.4290   33.0190   44.9100 H   0  0  0  0  0  0  0  0  0  0  0  0
   47.1880   34.6160   44.7400 H   0  0  0  0  0  0  0  0  0  0  0  0
   47.4340   33.6120   42.4260 C   0  0  0  0  0  0  0  0  0  0  0  0
   48.4930   34.4050   42.9060 C   0  0  0  0  0  0  0  0  0  0  0  0
   49.7880   34.1970   42.4150 C   0  0  0  0  0  0  0  0  0  0  0  0
   49.9310   33.1990   41.4720 N   0  0  0  0  0  0  0  0  0  0  0  0
   48.8990   32.4560   41.0310 C   0  0  0  0  0  0  0  0  0  0  0  0
   47.6570   32.6590   41.5040 N   0  0  0  0  0  0  0  0  0  0  0  0
   48.4820   35.1870   43.6190 H   0  0  0  0  0  0  0  0  0  0  0  0
   50.6600   34.7450   42.7130 H   0  0  0  0  0  0  0  0  0  0  0  0
   49.1360   31.6950   40.2820 H   0  0  0  0  0  0  0  0  0  0  0  0
   44.0680   34.6740   41.9520 C   0  0  0  0  0  0  0  0  0  0  0  0
   43.1350   35.4750   41.4120 N   0  0  0  0  0  0  0  0  0  0  0  0
   42.0160   34.8050   41.1650 C   0  0  0  0  0  0  0  0  0  0  0  0
   41.2020   35.3580   40.7300 H   0  0  0  0  0  0  0  0  0  0  0  0
   42.2440   33.5470   41.5550 N   0  0  0  0  0  0  0  0  0  0  0  0
   41.4860   32.8210   41.4540 H   0  0  0  0  0  0  0  0  0  0  0  0
   43.4730   33.4550   42.0300 N   0  0  0  0  0  0  0  0  0  0  0  0
  1  7  1  6  0  0  0
  1  6  1  0  0  0  0
  2  8  1  6  0  0  0
  2  1  1  0  0  0  0
  2  3  1  0  0  0  0
  3 10  1  0  0  0  0
  3  4  1  0  0  0  0
  4  5  1  0  0  0  0
  4 12  1  0  0  0  0
  5 13  1  0  0  0  0
  5 14  1  0  0  0  0
  6 16  1  0  0  0  0
  6 15  1  0  0  0  0
  6  5  1  0  0  0  0
  9  3  1  0  0  0  0
 11  4  1  0  0  0  0
 17 18  1  0  0  0  0
 17  1  1  0  0  0  0
 18 23  1  0  0  0  0
 19 24  1  0  0  0  0
 19 18  2  0  0  0  0
 20 19  1  0  0  0  0
 21 20  2  0  0  0  0
 21 22  1  0  0  0  0
 22 17  2  0  0  0  0
 25 21  1  0  0  0  0
 26 32  2  0  0  0  0
 26  2  1  0  0  0  0
 27 26  1  0  0  0  0
 28 27  2  0  0  0  0
 28 30  1  0  0  0  0
 29 28  1  0  0  0  0
 30 32  1  0  0  0  0
 31 30  1  0  0  0  0
M  END
>  <minimizedAffinity>
-4.94983387

>  <minimizedRMSD>
2.34896636

$$$$
