
 OpenBabel03252509123D

 30 33  0  0  0  0  0  0  0  0999 V2000
   47.6850   32.1550   44.0500 C   0  0  0  0  0  0  0  0  0  0  0  0
   47.0490   33.2820   43.5330 C   0  0  0  0  0  0  0  0  0  0  0  0
   46.1170   33.9980   44.2340 C   0  0  0  0  0  0  0  0  0  0  0  0
   45.7790   33.5880   45.5340 C   0  0  0  0  0  0  0  0  0  0  0  0
   44.9270   34.0440   46.4930 N   0  0  0  0  0  0  0  0  0  0  0  0
   45.0190   33.2410   47.5720 C   0  0  0  0  0  0  0  0  0  0  0  0
   45.9350   32.2930   47.2590 N   0  0  0  0  0  0  0  0  0  0  0  0
   46.4120   32.4830   46.0230 C   0  0  0  0  0  0  0  0  0  0  0  0
   47.3530   31.7430   45.3430 C   0  0  0  0  0  0  0  0  0  0  0  0
   48.4230   31.5760   43.5150 H   0  0  0  0  0  0  0  0  0  0  0  0
   44.3270   34.8920   46.3390 H   0  0  0  0  0  0  0  0  0  0  0  0
   44.4030   33.4650   48.4310 H   0  0  0  0  0  0  0  0  0  0  0  0
   47.8250   30.8810   45.7670 H   0  0  0  0  0  0  0  0  0  0  0  0
   47.1860   33.4830   39.8650 C   0  0  0  0  0  0  0  0  0  0  0  0
   48.0480   34.5550   39.6480 C   0  0  0  0  0  0  0  0  0  0  0  0
   48.5760   35.2020   40.7640 C   0  0  0  0  0  0  0  0  0  0  0  0
   48.2330   34.7660   42.0160 N   0  0  0  0  0  0  0  0  0  0  0  0
   47.3940   33.7220   42.1850 C   0  0  0  0  0  0  0  0  0  0  0  0
   46.8710   33.0810   41.1160 N   0  0  0  0  0  0  0  0  0  0  0  0
   46.7550   32.9540   39.0240 H   0  0  0  0  0  0  0  0  0  0  0  0
   48.3050   34.8820   38.6630 H   0  0  0  0  0  0  0  0  0  0  0  0
   49.2470   36.0370   40.6580 H   0  0  0  0  0  0  0  0  0  0  0  0
   45.3130   35.4370   43.5700 S   0  0  0  0  0  0  0  0  0  0  0  0
   44.1150   35.0450   42.3140 C   0  0  0  0  0  0  0  0  0  0  0  0
   43.6020   33.8030   42.0710 N   0  0  0  0  0  0  0  0  0  0  0  0
   42.7250   33.9150   41.0460 C   0  0  0  0  0  0  0  0  0  0  0  0
   42.1990   33.0420   40.6880 H   0  0  0  0  0  0  0  0  0  0  0  0
   42.6800   35.2120   40.6430 N   0  0  0  0  0  0  0  0  0  0  0  0
   42.0770   35.5620   39.8640 H   0  0  0  0  0  0  0  0  0  0  0  0
   43.5150   35.8510   41.4150 N   0  0  0  0  0  0  0  0  0  0  0  0
  1  9  1  0  0  0  0
  2  1  2  0  0  0  0
  2  3  1  0  0  0  0
  3  4  2  0  0  0  0
  4  8  1  0  0  0  0
  4  5  1  0  0  0  0
  5  6  1  0  0  0  0
  6 12  1  0  0  0  0
  7  6  2  0  0  0  0
  8  7  1  0  0  0  0
  9 13  1  0  0  0  0
  9  8  2  0  0  0  0
 10  1  1  0  0  0  0
 11  5  1  0  0  0  0
 14 19  1  0  0  0  0
 15 14  2  0  0  0  0
 15 16  1  0  0  0  0
 16 17  2  0  0  0  0
 17 18  1  0  0  0  0
 18  2  1  0  0  0  0
 19 18  2  0  0  0  0
 20 14  1  0  0  0  0
 21 15  1  0  0  0  0
 22 16  1  0  0  0  0
 23  3  1  0  0  0  0
 24 23  1  0  0  0  0
 25 24  1  0  0  0  0
 26 25  2  0  0  0  0
 27 26  1  0  0  0  0
 28 26  1  0  0  0  0
 28 30  1  0  0  0  0
 29 28  1  0  0  0  0
 30 24  2  0  0  0  0
M  END
>  <minimizedAffinity>
-5.33923054

>  <minimizedRMSD>
1.65326285

$$$$
