
 OpenBabel03252507363D

 30 33  0  0  0  0  0  0  0  0999 V2000
   47.3040   33.0300   42.6560 C   0  0  0  0  0  0  0  0  0  0  0  0
   46.9370   33.2670   41.3080 C   0  0  0  0  0  0  0  0  0  0  0  0
   46.9900   32.1830   40.4340 C   0  0  0  0  0  0  0  0  0  0  0  0
   47.3780   30.9920   40.9040 N   0  0  0  0  0  0  0  0  0  0  0  0
   47.7250   30.7890   42.1970 C   0  0  0  0  0  0  0  0  0  0  0  0
   47.6820   31.8100   43.0530 N   0  0  0  0  0  0  0  0  0  0  0  0
   46.6260   34.2180   40.9290 H   0  0  0  0  0  0  0  0  0  0  0  0
   48.0300   29.8190   42.5330 H   0  0  0  0  0  0  0  0  0  0  0  0
   47.1900   33.3190   38.3040 C   0  0  0  0  0  0  0  0  0  0  0  0
   46.6420   32.2720   39.0180 C   0  0  0  0  0  0  0  0  0  0  0  0
   45.8140   31.3870   38.3640 C   0  0  0  0  0  0  0  0  0  0  0  0
   45.5150   31.5130   37.0270 C   0  0  0  0  0  0  0  0  0  0  0  0
   44.7430   30.7850   36.1820 N   0  0  0  0  0  0  0  0  0  0  0  0
   44.7990   31.3620   34.9460 C   0  0  0  0  0  0  0  0  0  0  0  0
   45.6040   32.4370   35.0460 N   0  0  0  0  0  0  0  0  0  0  0  0
   46.0590   32.5560   36.3090 C   0  0  0  0  0  0  0  0  0  0  0  0
   46.8880   33.4490   36.9440 C   0  0  0  0  0  0  0  0  0  0  0  0
   47.8540   34.0760   38.7090 H   0  0  0  0  0  0  0  0  0  0  0  0
   45.4210   30.5970   38.9690 H   0  0  0  0  0  0  0  0  0  0  0  0
   44.2310   29.9350   36.5260 H   0  0  0  0  0  0  0  0  0  0  0  0
   44.2230   30.8770   34.1710 H   0  0  0  0  0  0  0  0  0  0  0  0
   47.2920   34.2520   36.3460 H   0  0  0  0  0  0  0  0  0  0  0  0
   47.2480   34.1230   43.5250 O   0  0  0  0  0  0  0  0  0  0  0  0
   46.3470   34.2210   44.5490 C   0  0  0  0  0  0  0  0  0  0  0  0
   45.3960   35.1880   44.4140 N   0  0  0  0  0  0  0  0  0  0  0  0
   44.5970   35.1410   45.5090 C   0  0  0  0  0  0  0  0  0  0  0  0
   43.7360   35.8050   45.6820 H   0  0  0  0  0  0  0  0  0  0  0  0
   45.0530   34.1570   46.3030 N   0  0  0  0  0  0  0  0  0  0  0  0
   44.6410   33.8820   47.2200 H   0  0  0  0  0  0  0  0  0  0  0  0
   46.1060   33.6080   45.7190 N   0  0  0  0  0  0  0  0  0  0  0  0
  1  6  1  0  0  0  0
  1 23  1  0  0  0  0
  2  1  2  0  0  0  0
  3  4  2  0  0  0  0
  3  2  1  0  0  0  0
  4  5  1  0  0  0  0
  5  8  1  0  0  0  0
  5  6  2  0  0  0  0
  7  2  1  0  0  0  0
  9 18  1  0  0  0  0
  9 10  1  0  0  0  0
 10  3  1  0  0  0  0
 11 19  1  0  0  0  0
 11 10  2  0  0  0  0
 12 11  1  0  0  0  0
 13 20  1  0  0  0  0
 13 12  1  0  0  0  0
 14 15  2  0  0  0  0
 14 13  1  0  0  0  0
 15 16  1  0  0  0  0
 16 17  1  0  0  0  0
 16 12  2  0  0  0  0
 17  9  2  0  0  0  0
 21 14  1  0  0  0  0
 22 17  1  0  0  0  0
 23 24  1  0  0  0  0
 24 30  2  0  0  0  0
 25 24  1  0  0  0  0
 25 26  2  0  0  0  0
 26 27  1  0  0  0  0
 26 28  1  0  0  0  0
 28 29  1  0  0  0  0
 30 28  1  0  0  0  0
M  END
>  <minimizedAffinity>
-3.99396086

>  <minimizedRMSD>
4.00743389

$$$$
