
 OpenBabel03252507023D

 36 38  0  0  0  0  0  0  0  0999 V2000
   43.9490   33.9420   40.7200 C   0  0  0  0  0  0  0  0  0  0  0  0
   43.5470   33.8950   39.6820 H   0  0  0  0  0  0  0  0  0  0  0  0
   43.7440   35.0330   40.9800 H   0  0  0  0  0  0  0  0  0  0  0  0
   45.2000   33.4960   40.7640 N   0  0  0  0  0  0  0  0  0  0  0  0
   45.7470   32.3460   40.1400 C   0  0  0  0  0  0  0  0  0  0  0  0
   46.4830   33.0380   38.9680 C   0  0  0  0  0  0  0  0  0  0  0  0
   47.5120   33.9830   39.4060 C   0  0  0  0  0  0  0  0  0  0  0  0
   47.4150   34.5590   40.7480 C   0  0  0  0  0  0  0  0  0  0  0  0
   46.1450   34.3250   41.5180 C   0  0  0  0  0  0  0  0  0  0  0  0
   44.9330   31.7660   39.6280 H   0  0  0  0  0  0  0  0  0  0  0  0
   46.3910   31.6830   40.6850 H   0  0  0  0  0  0  0  0  0  0  0  0
   45.7000   33.4800   38.2910 H   0  0  0  0  0  0  0  0  0  0  0  0
   46.9390   32.2080   38.3900 H   0  0  0  0  0  0  0  0  0  0  0  0
   47.5300   34.8440   38.6840 H   0  0  0  0  0  0  0  0  0  0  0  0
   48.5390   33.5280   39.3440 H   0  0  0  0  0  0  0  0  0  0  0  0
   48.1370   35.1500   41.2470 H   0  0  0  0  0  0  0  0  0  0  0  0
   45.8810   35.0380   43.1070 S   0  0  0  0  0  0  0  0  0  0  0  0
   44.8330   35.9680   43.0410 H   0  0  0  0  0  0  0  0  0  0  0  0
   43.0020   33.1430   41.5650 C   0  0  0  0  0  0  0  0  0  0  0  0
   43.4370   32.1180   41.7220 H   0  0  0  0  0  0  0  0  0  0  0  0
   42.7540   33.5710   42.5370 H   0  0  0  0  0  0  0  0  0  0  0  0
   41.7570   32.9660   40.7690 C   0  0  0  0  0  0  0  0  0  0  0  0
   41.5410   33.6500   39.5870 C   0  0  0  0  0  0  0  0  0  0  0  0
   40.3410   33.4300   38.9180 C   0  0  0  0  0  0  0  0  0  0  0  0
   39.4340   32.5520   39.4530 N   0  0  0  0  0  0  0  0  0  0  0  0
   39.7000   31.9190   40.6000 C   0  0  0  0  0  0  0  0  0  0  0  0
   40.8410   32.1290   41.2370 N   0  0  0  0  0  0  0  0  0  0  0  0
   42.2880   34.3330   39.2050 H   0  0  0  0  0  0  0  0  0  0  0  0
   40.1560   33.9610   37.9890 H   0  0  0  0  0  0  0  0  0  0  0  0
   38.7200   30.9820   41.1610 C   0  0  0  0  0  0  0  0  0  0  0  0
   38.9300   29.8230   41.8090 N   0  0  0  0  0  0  0  0  0  0  0  0
   37.7250   29.2910   42.1490 C   0  0  0  0  0  0  0  0  0  0  0  0
   37.4870   28.3750   42.6740 H   0  0  0  0  0  0  0  0  0  0  0  0
   36.7810   30.1200   41.7110 N   0  0  0  0  0  0  0  0  0  0  0  0
   35.7430   30.1280   41.7400 H   0  0  0  0  0  0  0  0  0  0  0  0
   37.3750   31.1240   41.1250 N   0  0  0  0  0  0  0  0  0  0  0  0
  1  4  1  0  0  0  0
  1  3  1  0  0  0  0
  1 19  1  0  0  0  0
  2  1  1  0  0  0  0
  4  9  1  0  0  0  0
  5 11  1  0  0  0  0
  5  4  1  0  0  0  0
  6  7  1  0  0  0  0
  6  5  1  0  0  0  0
  7  8  1  0  0  0  0
  8 16  1  0  0  0  0
  8  9  2  0  0  0  0
  9 17  1  0  0  0  0
 10  5  1  0  0  0  0
 12  6  1  0  0  0  0
 13  6  1  0  0  0  0
 14  7  1  0  0  0  0
 15  7  1  0  0  0  0
 18 17  1  0  0  0  0
 19 20  1  0  0  0  0
 19 21  1  0  0  0  0
 22 27  1  0  0  0  0
 22 19  1  0  0  0  0
 23 22  2  0  0  0  0
 24 25  2  0  0  0  0
 24 23  1  0  0  0  0
 25 26  1  0  0  0  0
 26 30  1  0  0  0  0
 26 27  2  0  0  0  0
 28 23  1  0  0  0  0
 29 24  1  0  0  0  0
 30 31  1  0  0  0  0
 31 32  2  0  0  0  0
 32 33  1  0  0  0  0
 34 35  1  0  0  0  0
 34 32  1  0  0  0  0
 36 30  2  0  0  0  0
 36 34  1  0  0  0  0
M  END
>  <minimizedAffinity>
-4.37432289

>  <minimizedRMSD>
4.31248331

$$$$
