
 OpenBabel03242512423D

 21 22  0  0  0  0  0  0  0  0999 V2000
   37.7630   28.2470   42.5250 C   0  0  0  0  0  0  0  0  0  0  0  0
   36.8110   27.2570   42.2300 C   0  0  0  0  0  0  0  0  0  0  0  0
   37.2860   25.9470   42.2570 C   0  0  0  0  0  0  0  0  0  0  0  0
   38.5860   25.6980   42.5530 N   0  0  0  0  0  0  0  0  0  0  0  0
   39.4500   26.7010   42.8290 C   0  0  0  0  0  0  0  0  0  0  0  0
   39.0470   27.9840   42.8170 N   0  0  0  0  0  0  0  0  0  0  0  0
   35.7930   27.5290   42.0020 H   0  0  0  0  0  0  0  0  0  0  0  0
   36.5950   25.1650   42.0380 H   0  0  0  0  0  0  0  0  0  0  0  0
   40.8040   26.2460   43.1240 C   0  0  0  0  0  0  0  0  0  0  0  0
   41.8840   26.9140   43.5390 N   0  0  0  0  0  0  0  0  0  0  0  0
   42.9060   26.0420   43.6690 C   0  0  0  0  0  0  0  0  0  0  0  0
   43.9470   26.1810   43.9800 H   0  0  0  0  0  0  0  0  0  0  0  0
   42.4670   24.8120   43.3320 N   0  0  0  0  0  0  0  0  0  0  0  0
   42.9260   23.8690   43.2930 H   0  0  0  0  0  0  0  0  0  0  0  0
   41.2020   24.9600   43.0090 N   0  0  0  0  0  0  0  0  0  0  0  0
   37.3310   29.5480   42.5080 O   0  0  0  0  0  0  0  0  0  0  0  0
   36.9100   30.1980   41.3440 C   0  0  0  0  0  0  0  0  0  0  0  0
   37.5120   30.2150   40.2260 O   0  0  0  0  0  0  0  0  0  0  0  0
   35.7120   30.9510   41.2560 N   0  0  0  0  0  0  0  0  0  0  0  0
   35.4850   31.8440   41.7530 H   0  0  0  0  0  0  0  0  0  0  0  0
   34.7900   30.8640   40.7320 H   0  0  0  0  0  0  0  0  0  0  0  0
  1  6  1  0  0  0  0
  2  3  1  0  0  0  0
  2  1  2  0  0  0  0
  3  4  2  0  0  0  0
  4  5  1  0  0  0  0
  5  9  1  0  0  0  0
  6  5  2  0  0  0  0
  7  2  1  0  0  0  0
  8  3  1  0  0  0  0
  9 10  1  0  0  0  0
 10 11  2  0  0  0  0
 11 12  1  0  0  0  0
 13 11  1  0  0  0  0
 14 13  1  0  0  0  0
 15  9  2  0  0  0  0
 15 13  1  0  0  0  0
 16  1  1  0  0  0  0
 17 16  1  0  0  0  0
 18 17  2  0  0  0  0
 19 17  1  0  0  0  0
 19 20  1  0  0  0  0
 21 19  1  0  0  0  0
M  END
>  <minimizedAffinity>
-4.67212009

$$$$

 OpenBabel03242512423D

 21 22  0  0  0  0  0  0  0  0999 V2000
   38.6670   30.1610   41.7900 C   0  0  0  0  0  0  0  0  0  0  0  0
   39.5610   30.3550   42.8570 C   0  0  0  0  0  0  0  0  0  0  0  0
   40.7260   31.0510   42.5370 C   0  0  0  0  0  0  0  0  0  0  0  0
   40.9340   31.4900   41.2710 N   0  0  0  0  0  0  0  0  0  0  0  0
   40.0290   31.2690   40.2910 C   0  0  0  0  0  0  0  0  0  0  0  0
   38.8880   30.6020   40.5410 N   0  0  0  0  0  0  0  0  0  0  0  0
   39.3290   29.9770   43.8390 H   0  0  0  0  0  0  0  0  0  0  0  0
   41.4310   31.2200   43.3190 H   0  0  0  0  0  0  0  0  0  0  0  0
   40.4210   31.8110   38.9960 C   0  0  0  0  0  0  0  0  0  0  0  0
   41.5740   32.3440   38.5790 N   0  0  0  0  0  0  0  0  0  0  0  0
   41.4390   32.7020   37.2840 C   0  0  0  0  0  0  0  0  0  0  0  0
   42.1390   33.1670   36.5810 H   0  0  0  0  0  0  0  0  0  0  0  0
   40.1900   32.3950   36.8810 N   0  0  0  0  0  0  0  0  0  0  0  0
   39.6790   32.5030   35.9700 H   0  0  0  0  0  0  0  0  0  0  0  0
   39.5980   31.8610   37.9260 N   0  0  0  0  0  0  0  0  0  0  0  0
   37.5100   29.4790   42.0660 O   0  0  0  0  0  0  0  0  0  0  0  0
   36.3080   29.7080   41.3900 C   0  0  0  0  0  0  0  0  0  0  0  0
   35.5780   28.8360   40.8270 O   0  0  0  0  0  0  0  0  0  0  0  0
   35.7270   30.9920   41.2380 N   0  0  0  0  0  0  0  0  0  0  0  0
   36.1070   31.8020   40.6940 H   0  0  0  0  0  0  0  0  0  0  0  0
   34.8440   31.4770   41.5800 H   0  0  0  0  0  0  0  0  0  0  0  0
  1 16  1  0  0  0  0
  1  2  1  0  0  0  0
  2  7  1  0  0  0  0
  3  2  2  0  0  0  0
  3  8  1  0  0  0  0
  4  3  1  0  0  0  0
  5  6  1  0  0  0  0
  5  4  2  0  0  0  0
  6  1  2  0  0  0  0
  9  5  1  0  0  0  0
 10  9  1  0  0  0  0
 11 10  2  0  0  0  0
 12 11  1  0  0  0  0
 13 11  1  0  0  0  0
 13 15  1  0  0  0  0
 14 13  1  0  0  0  0
 15  9  2  0  0  0  0
 17 16  1  0  0  0  0
 18 17  2  0  0  0  0
 19 17  1  0  0  0  0
 19 21  1  0  0  0  0
 20 19  1  0  0  0  0
M  END
>  <minimizedAffinity>
-4.51366901

$$$$

 OpenBabel03242512423D

 21 22  0  0  0  0  0  0  0  0999 V2000
   38.0680   27.0330   41.5960 C   0  0  0  0  0  0  0  0  0  0  0  0
   37.9160   26.8970   42.9860 C   0  0  0  0  0  0  0  0  0  0  0  0
   37.6960   28.0870   43.6790 C   0  0  0  0  0  0  0  0  0  0  0  0
   37.6390   29.2660   43.0120 N   0  0  0  0  0  0  0  0  0  0  0  0
   37.7920   29.3240   41.6700 C   0  0  0  0  0  0  0  0  0  0  0  0
   38.0090   28.2090   40.9500 N   0  0  0  0  0  0  0  0  0  0  0  0
   37.9740   25.9260   43.4490 H   0  0  0  0  0  0  0  0  0  0  0  0
   37.5760   28.0270   44.7370 H   0  0  0  0  0  0  0  0  0  0  0  0
   37.7020   30.6740   41.1260 C   0  0  0  0  0  0  0  0  0  0  0  0
   38.6510   31.5680   40.8340 N   0  0  0  0  0  0  0  0  0  0  0  0
   38.0590   32.6810   40.3500 C   0  0  0  0  0  0  0  0  0  0  0  0
   38.4740   33.6330   40.0000 H   0  0  0  0  0  0  0  0  0  0  0  0
   36.7250   32.4880   40.3380 N   0  0  0  0  0  0  0  0  0  0  0  0
   35.9130   33.0850   40.0460 H   0  0  0  0  0  0  0  0  0  0  0  0
   36.5350   31.2750   40.8080 N   0  0  0  0  0  0  0  0  0  0  0  0
   38.2870   25.8840   40.8800 O   0  0  0  0  0  0  0  0  0  0  0  0
   37.7750   24.6390   41.2580 C   0  0  0  0  0  0  0  0  0  0  0  0
   36.5860   24.2270   41.0910 O   0  0  0  0  0  0  0  0  0  0  0  0
   38.5440   23.6380   41.9030 N   0  0  0  0  0  0  0  0  0  0  0  0
   38.9650   23.6770   42.8610 H   0  0  0  0  0  0  0  0  0  0  0  0
   38.8920   22.6640   41.6550 H   0  0  0  0  0  0  0  0  0  0  0  0
  1  2  1  0  0  0  0
  2  7  1  0  0  0  0
  2  3  2  0  0  0  0
  3  8  1  0  0  0  0
  4  3  1  0  0  0  0
  5  4  2  0  0  0  0
  6  1  2  0  0  0  0
  6  5  1  0  0  0  0
  9  5  1  0  0  0  0
 10  9  1  0  0  0  0
 11 10  2  0  0  0  0
 12 11  1  0  0  0  0
 13 11  1  0  0  0  0
 13 15  1  0  0  0  0
 14 13  1  0  0  0  0
 15  9  2  0  0  0  0
 16 17  1  0  0  0  0
 16  1  1  0  0  0  0
 17 19  1  0  0  0  0
 18 17  2  0  0  0  0
 19 20  1  0  0  0  0
 21 19  1  0  0  0  0
M  END
>  <minimizedAffinity>
-4.4884181

$$$$

 OpenBabel03242512423D

 21 22  0  0  0  0  0  0  0  0999 V2000
   37.3170   29.4770   41.8490 C   0  0  0  0  0  0  0  0  0  0  0  0
   38.5010   29.8790   42.4890 C   0  0  0  0  0  0  0  0  0  0  0  0
   39.3680   28.8450   42.8410 C   0  0  0  0  0  0  0  0  0  0  0  0
   39.0450   27.5590   42.5620 N   0  0  0  0  0  0  0  0  0  0  0  0
   37.8860   27.2410   41.9410 C   0  0  0  0  0  0  0  0  0  0  0  0
   37.0120   28.1980   41.5800 N   0  0  0  0  0  0  0  0  0  0  0  0
   38.6920   30.9230   42.6790 H   0  0  0  0  0  0  0  0  0  0  0  0
   40.2790   29.1090   43.3290 H   0  0  0  0  0  0  0  0  0  0  0  0
   37.7070   25.8110   41.7250 C   0  0  0  0  0  0  0  0  0  0  0  0
   36.8980   25.1420   40.8980 N   0  0  0  0  0  0  0  0  0  0  0  0
   37.1050   23.8190   41.0700 C   0  0  0  0  0  0  0  0  0  0  0  0
   36.6510   22.9430   40.5940 H   0  0  0  0  0  0  0  0  0  0  0  0
   38.0510   23.6520   42.0160 N   0  0  0  0  0  0  0  0  0  0  0  0
   38.5000   22.8050   42.4440 H   0  0  0  0  0  0  0  0  0  0  0  0
   38.3980   24.8610   42.3930 N   0  0  0  0  0  0  0  0  0  0  0  0
   36.4400   30.4670   41.4890 O   0  0  0  0  0  0  0  0  0  0  0  0
   36.6200   31.2740   40.3620 C   0  0  0  0  0  0  0  0  0  0  0  0
   36.5690   30.9030   39.1490 O   0  0  0  0  0  0  0  0  0  0  0  0
   36.8930   32.6640   40.4280 N   0  0  0  0  0  0  0  0  0  0  0  0
   37.7520   33.1260   40.8090 H   0  0  0  0  0  0  0  0  0  0  0  0
   36.3850   33.5570   40.1510 H   0  0  0  0  0  0  0  0  0  0  0  0
  1  2  1  0  0  0  0
  2  7  1  0  0  0  0
  2  3  2  0  0  0  0
  3  8  1  0  0  0  0
  4  3  1  0  0  0  0
  5  4  2  0  0  0  0
  6  1  2  0  0  0  0
  6  5  1  0  0  0  0
  9  5  1  0  0  0  0
  9 15  2  0  0  0  0
 10 11  2  0  0  0  0
 10  9  1  0  0  0  0
 11 13  1  0  0  0  0
 12 11  1  0  0  0  0
 13 15  1  0  0  0  0
 13 14  1  0  0  0  0
 16  1  1  0  0  0  0
 17 19  1  0  0  0  0
 17 16  1  0  0  0  0
 18 17  2  0  0  0  0
 19 20  1  0  0  0  0
 21 19  1  0  0  0  0
M  END
>  <minimizedAffinity>
-4.48631144

$$$$

 OpenBabel03242512423D

 21 22  0  0  0  0  0  0  0  0999 V2000
   38.3450   31.9200   39.3570 C   0  0  0  0  0  0  0  0  0  0  0  0
   37.5420   31.6460   38.2380 C   0  0  0  0  0  0  0  0  0  0  0  0
   36.6600   30.5760   38.3870 C   0  0  0  0  0  0  0  0  0  0  0  0
   36.6200   29.8810   39.5500 N   0  0  0  0  0  0  0  0  0  0  0  0
   37.4220   30.2000   40.5900 C   0  0  0  0  0  0  0  0  0  0  0  0
   38.2930   31.2220   40.5030 N   0  0  0  0  0  0  0  0  0  0  0  0
   37.6290   32.2420   37.3440 H   0  0  0  0  0  0  0  0  0  0  0  0
   36.0320   30.3350   37.5590 H   0  0  0  0  0  0  0  0  0  0  0  0
   37.2410   29.3450   41.7570 C   0  0  0  0  0  0  0  0  0  0  0  0
   37.9090   29.2830   42.9130 N   0  0  0  0  0  0  0  0  0  0  0  0
   37.3560   28.3180   43.6780 C   0  0  0  0  0  0  0  0  0  0  0  0
   37.6030   27.9540   44.6810 H   0  0  0  0  0  0  0  0  0  0  0  0
   36.3310   27.7650   42.9990 N   0  0  0  0  0  0  0  0  0  0  0  0
   35.6490   26.9990   43.2210 H   0  0  0  0  0  0  0  0  0  0  0  0
   36.2820   28.3980   41.8490 N   0  0  0  0  0  0  0  0  0  0  0  0
   39.2250   32.9660   39.2480 O   0  0  0  0  0  0  0  0  0  0  0  0
   39.6840   33.6960   40.3490 C   0  0  0  0  0  0  0  0  0  0  0  0
   40.8830   34.0450   40.5800 O   0  0  0  0  0  0  0  0  0  0  0  0
   38.8400   34.1590   41.3890 N   0  0  0  0  0  0  0  0  0  0  0  0
   38.3100   33.5810   42.0830 H   0  0  0  0  0  0  0  0  0  0  0  0
   38.5200   35.1080   41.7490 H   0  0  0  0  0  0  0  0  0  0  0  0
  1  6  1  0  0  0  0
  2  3  1  0  0  0  0
  2  1  2  0  0  0  0
  3  4  2  0  0  0  0
  4  5  1  0  0  0  0
  5  9  1  0  0  0  0
  6  5  2  0  0  0  0
  7  2  1  0  0  0  0
  8  3  1  0  0  0  0
  9 15  2  0  0  0  0
  9 10  1  0  0  0  0
 10 11  2  0  0  0  0
 11 12  1  0  0  0  0
 13 14  1  0  0  0  0
 13 11  1  0  0  0  0
 15 13  1  0  0  0  0
 16  1  1  0  0  0  0
 16 17  1  0  0  0  0
 17 18  2  0  0  0  0
 17 19  1  0  0  0  0
 19 21  1  0  0  0  0
 19 20  1  0  0  0  0
M  END
>  <minimizedAffinity>
-4.47753716

$$$$

 OpenBabel03242512423D

 21 22  0  0  0  0  0  0  0  0999 V2000
   37.2720   28.7880   42.3900 C   0  0  0  0  0  0  0  0  0  0  0  0
   36.1990   28.1740   41.7240 C   0  0  0  0  0  0  0  0  0  0  0  0
   35.6430   28.9150   40.6820 C   0  0  0  0  0  0  0  0  0  0  0  0
   36.1410   30.1380   40.3730 N   0  0  0  0  0  0  0  0  0  0  0  0
   37.1790   30.6710   41.0560 C   0  0  0  0  0  0  0  0  0  0  0  0
   37.7530   30.0010   42.0720 N   0  0  0  0  0  0  0  0  0  0  0  0
   35.8560   27.1970   42.0250 H   0  0  0  0  0  0  0  0  0  0  0  0
   34.8260   28.4840   40.1500 H   0  0  0  0  0  0  0  0  0  0  0  0
   37.5770   31.9910   40.5860 C   0  0  0  0  0  0  0  0  0  0  0  0
   38.5600   32.8060   40.9820 N   0  0  0  0  0  0  0  0  0  0  0  0
   38.5200   33.9270   40.2310 C   0  0  0  0  0  0  0  0  0  0  0  0
   39.1410   34.8290   40.2360 H   0  0  0  0  0  0  0  0  0  0  0  0
   37.5020   33.8200   39.3540 N   0  0  0  0  0  0  0  0  0  0  0  0
   37.1270   34.4520   38.6040 H   0  0  0  0  0  0  0  0  0  0  0  0
   36.9510   32.6490   39.5860 N   0  0  0  0  0  0  0  0  0  0  0  0
   37.8440   28.0890   43.4220 O   0  0  0  0  0  0  0  0  0  0  0  0
   39.1250   27.5330   43.3500 C   0  0  0  0  0  0  0  0  0  0  0  0
   39.4580   26.3530   43.6800 O   0  0  0  0  0  0  0  0  0  0  0  0
   40.2620   28.2400   42.8840 N   0  0  0  0  0  0  0  0  0  0  0  0
   40.7230   29.0680   43.3290 H   0  0  0  0  0  0  0  0  0  0  0  0
   40.9180   28.1670   42.0500 H   0  0  0  0  0  0  0  0  0  0  0  0
  1 16  1  0  0  0  0
  2  7  1  0  0  0  0
  2  1  2  0  0  0  0
  3  2  1  0  0  0  0
  4  3  2  0  0  0  0
  4  5  1  0  0  0  0
  5  6  2  0  0  0  0
  6  1  1  0  0  0  0
  8  3  1  0  0  0  0
  9 10  1  0  0  0  0
  9  5  1  0  0  0  0
 11 12  1  0  0  0  0
 11 10  2  0  0  0  0
 13 15  1  0  0  0  0
 13 11  1  0  0  0  0
 14 13  1  0  0  0  0
 15  9  2  0  0  0  0
 17 16  1  0  0  0  0
 17 18  2  0  0  0  0
 19 20  1  0  0  0  0
 19 17  1  0  0  0  0
 21 19  1  0  0  0  0
M  END
>  <minimizedAffinity>
-4.4032464

$$$$

 OpenBabel03242512423D

 21 22  0  0  0  0  0  0  0  0999 V2000
   39.7940   27.6720   42.6840 C   0  0  0  0  0  0  0  0  0  0  0  0
   38.8690   27.1000   43.5720 C   0  0  0  0  0  0  0  0  0  0  0  0
   37.6520   27.7730   43.6780 C   0  0  0  0  0  0  0  0  0  0  0  0
   37.4270   28.8960   42.9530 N   0  0  0  0  0  0  0  0  0  0  0  0
   38.3640   29.3920   42.1130 C   0  0  0  0  0  0  0  0  0  0  0  0
   39.5560   28.7850   41.9720 N   0  0  0  0  0  0  0  0  0  0  0  0
   39.1170   26.2040   44.1180 H   0  0  0  0  0  0  0  0  0  0  0  0
   36.9210   27.3710   44.3430 H   0  0  0  0  0  0  0  0  0  0  0  0
   37.9480   30.6040   41.4180 C   0  0  0  0  0  0  0  0  0  0  0  0
   38.6600   31.6210   40.9230 N   0  0  0  0  0  0  0  0  0  0  0  0
   37.8100   32.5110   40.3670 C   0  0  0  0  0  0  0  0  0  0  0  0
   37.9860   33.4670   39.8620 H   0  0  0  0  0  0  0  0  0  0  0  0
   36.5510   32.0530   40.5150 N   0  0  0  0  0  0  0  0  0  0  0  0
   35.6110   32.4260   40.2340 H   0  0  0  0  0  0  0  0  0  0  0  0
   36.6600   30.9070   41.1480 N   0  0  0  0  0  0  0  0  0  0  0  0
   41.0030   27.0380   42.5540 O   0  0  0  0  0  0  0  0  0  0  0  0
   41.1240   25.6810   42.2390 C   0  0  0  0  0  0  0  0  0  0  0  0
   40.5090   25.0600   41.3190 O   0  0  0  0  0  0  0  0  0  0  0  0
   41.9790   24.7890   42.9330 N   0  0  0  0  0  0  0  0  0  0  0  0
   41.9010   24.4780   43.9300 H   0  0  0  0  0  0  0  0  0  0  0  0
   42.8520   24.2270   42.6980 H   0  0  0  0  0  0  0  0  0  0  0  0
  1  2  1  0  0  0  0
  2  3  2  0  0  0  0
  2  7  1  0  0  0  0
  3  8  1  0  0  0  0
  4  3  1  0  0  0  0
  5  4  2  0  0  0  0
  6  5  1  0  0  0  0
  6  1  2  0  0  0  0
  9  5  1  0  0  0  0
 10  9  1  0  0  0  0
 11 13  1  0  0  0  0
 11 10  2  0  0  0  0
 12 11  1  0  0  0  0
 13 15  1  0  0  0  0
 14 13  1  0  0  0  0
 15  9  2  0  0  0  0
 16  1  1  0  0  0  0
 17 16  1  0  0  0  0
 17 19  1  0  0  0  0
 18 17  2  0  0  0  0
 19 20  1  0  0  0  0
 21 19  1  0  0  0  0
M  END
>  <minimizedAffinity>
-4.37672758

$$$$

 OpenBabel03242512423D

 21 22  0  0  0  0  0  0  0  0999 V2000
   37.9580   29.1560   41.8150 C   0  0  0  0  0  0  0  0  0  0  0  0
   38.3220   28.9920   43.1610 C   0  0  0  0  0  0  0  0  0  0  0  0
   38.1780   27.7000   43.6640 C   0  0  0  0  0  0  0  0  0  0  0  0
   37.7150   26.7050   42.8670 N   0  0  0  0  0  0  0  0  0  0  0  0
   37.3830   26.9330   41.5760 C   0  0  0  0  0  0  0  0  0  0  0  0
   37.5010   28.1600   41.0380 N   0  0  0  0  0  0  0  0  0  0  0  0
   38.6820   29.8300   43.7360 H   0  0  0  0  0  0  0  0  0  0  0  0
   38.4430   27.5330   44.6830 H   0  0  0  0  0  0  0  0  0  0  0  0
   36.9050   25.7480   40.8730 C   0  0  0  0  0  0  0  0  0  0  0  0
   36.7670   24.4820   41.2790 N   0  0  0  0  0  0  0  0  0  0  0  0
   36.2810   23.7520   40.2530 C   0  0  0  0  0  0  0  0  0  0  0  0
   36.0290   22.6890   40.1710 H   0  0  0  0  0  0  0  0  0  0  0  0
   36.1110   24.5640   39.1900 N   0  0  0  0  0  0  0  0  0  0  0  0
   35.7630   24.4080   38.2120 H   0  0  0  0  0  0  0  0  0  0  0  0
   36.4920   25.7570   39.5870 N   0  0  0  0  0  0  0  0  0  0  0  0
   38.0850   30.4150   41.2860 O   0  0  0  0  0  0  0  0  0  0  0  0
   36.9920   31.1950   40.8980 C   0  0  0  0  0  0  0  0  0  0  0  0
   37.0260   32.2430   40.1830 O   0  0  0  0  0  0  0  0  0  0  0  0
   35.6540   30.9080   41.2670 N   0  0  0  0  0  0  0  0  0  0  0  0
   35.2400   30.9310   42.2290 H   0  0  0  0  0  0  0  0  0  0  0  0
   34.7660   30.6170   40.7580 H   0  0  0  0  0  0  0  0  0  0  0  0
  1  2  1  0  0  0  0
  2  3  2  0  0  0  0
  2  7  1  0  0  0  0
  3  8  1  0  0  0  0
  4  3  1  0  0  0  0
  5  4  2  0  0  0  0
  6  5  1  0  0  0  0
  6  1  2  0  0  0  0
  9 10  1  0  0  0  0
  9  5  1  0  0  0  0
 11 10  2  0  0  0  0
 12 11  1  0  0  0  0
 13 15  1  0  0  0  0
 13 11  1  0  0  0  0
 14 13  1  0  0  0  0
 15  9  2  0  0  0  0
 16  1  1  0  0  0  0
 17 19  1  0  0  0  0
 17 16  1  0  0  0  0
 18 17  2  0  0  0  0
 19 20  1  0  0  0  0
 21 19  1  0  0  0  0
M  END
>  <minimizedAffinity>
-4.37657547

$$$$

 OpenBabel03242512423D

 21 22  0  0  0  0  0  0  0  0999 V2000
   38.5150   25.7120   42.5670 C   0  0  0  0  0  0  0  0  0  0  0  0
   39.5960   26.2290   43.3000 C   0  0  0  0  0  0  0  0  0  0  0  0
   39.6500   27.6210   43.3780 C   0  0  0  0  0  0  0  0  0  0  0  0
   38.7010   28.3760   42.7710 N   0  0  0  0  0  0  0  0  0  0  0  0
   37.6850   27.8110   42.0810 C   0  0  0  0  0  0  0  0  0  0  0  0
   37.5830   26.4740   41.9720 N   0  0  0  0  0  0  0  0  0  0  0  0
   40.3140   25.5670   43.7550 H   0  0  0  0  0  0  0  0  0  0  0  0
   40.4560   28.0540   43.9250 H   0  0  0  0  0  0  0  0  0  0  0  0
   36.7620   28.7760   41.4970 C   0  0  0  0  0  0  0  0  0  0  0  0
   35.8080   28.6320   40.5730 N   0  0  0  0  0  0  0  0  0  0  0  0
   35.2220   29.8310   40.3670 C   0  0  0  0  0  0  0  0  0  0  0  0
   34.4100   30.1390   39.7000 H   0  0  0  0  0  0  0  0  0  0  0  0
   35.8130   30.7400   41.1670 N   0  0  0  0  0  0  0  0  0  0  0  0
   35.6680   31.7690   41.3200 H   0  0  0  0  0  0  0  0  0  0  0  0
   36.7340   30.0840   41.8360 N   0  0  0  0  0  0  0  0  0  0  0  0
   38.4290   24.3470   42.4680 O   0  0  0  0  0  0  0  0  0  0  0  0
   37.7860   23.6970   41.4100 C   0  0  0  0  0  0  0  0  0  0  0  0
   38.2770   22.7940   40.6650 O   0  0  0  0  0  0  0  0  0  0  0  0
   36.4520   23.9710   41.0170 N   0  0  0  0  0  0  0  0  0  0  0  0
   36.0800   24.8590   40.6050 H   0  0  0  0  0  0  0  0  0  0  0  0
   35.5300   23.4390   41.0150 H   0  0  0  0  0  0  0  0  0  0  0  0
  1  2  1  0  0  0  0
  2  3  2  0  0  0  0
  2  7  1  0  0  0  0
  3  8  1  0  0  0  0
  4  3  1  0  0  0  0
  5  4  2  0  0  0  0
  6  5  1  0  0  0  0
  6  1  2  0  0  0  0
  9 15  2  0  0  0  0
  9  5  1  0  0  0  0
 10  9  1  0  0  0  0
 11 10  2  0  0  0  0
 11 13  1  0  0  0  0
 12 11  1  0  0  0  0
 13 14  1  0  0  0  0
 13 15  1  0  0  0  0
 16  1  1  0  0  0  0
 17 16  1  0  0  0  0
 18 17  2  0  0  0  0
 19 17  1  0  0  0  0
 20 19  1  0  0  0  0
 21 19  1  0  0  0  0
M  END
>  <minimizedAffinity>
-4.28751755

$$$$
