
 OpenBabel03242519163D

 40 43  0  0  1  0  0  0  0  0999 V2000
   48.3280   34.2270   40.9220 C   0  0  0  0  0  0  0  0  0  0  0  0
   47.8850   34.3670   39.6260 C   0  0  0  0  0  0  0  0  0  0  0  0
   48.2590   33.4990   38.5900 C   0  0  0  0  0  0  0  0  0  0  0  0
   49.1040   32.4920   38.9530 N   0  0  0  0  0  0  0  0  0  0  0  0
   49.5300   32.3650   40.2180 C   0  0  0  0  0  0  0  0  0  0  0  0
   49.1500   33.2150   41.1780 N   0  0  0  0  0  0  0  0  0  0  0  0
   47.2150   35.1920   39.4200 H   0  0  0  0  0  0  0  0  0  0  0  0
   47.8910   33.6390   37.5860 H   0  0  0  0  0  0  0  0  0  0  0  0
   50.4370   31.2430   40.6270 C   0  0  2  0  0  0  0  0  0  0  0  0
   51.1770   31.3580   41.9220 C   0  0  0  0  0  0  0  0  0  0  0  0
   51.8990   31.5190   40.5720 C   0  0  1  0  0  0  0  0  0  0  0  0
   50.1120   30.2730   40.2010 H   0  0  0  0  0  0  0  0  0  0  0  0
   50.9880   32.2840   42.5120 H   0  0  0  0  0  0  0  0  0  0  0  0
   51.3160   30.4330   42.4950 H   0  0  0  0  0  0  0  0  0  0  0  0
   52.2710   32.5390   40.3860 H   0  0  0  0  0  0  0  0  0  0  0  0
   52.8540   30.4100   40.3070 C   0  0  0  0  0  0  0  0  0  0  0  0
   52.6630   29.3190   39.5650 N   0  0  0  0  0  0  0  0  0  0  0  0
   53.7770   28.5320   39.5620 C   0  0  0  0  0  0  0  0  0  0  0  0
   53.6830   27.6280   38.9750 H   0  0  0  0  0  0  0  0  0  0  0  0
   54.6690   29.1870   40.3370 N   0  0  0  0  0  0  0  0  0  0  0  0
   55.6000   28.7200   40.4500 H   0  0  0  0  0  0  0  0  0  0  0  0
   54.1100   30.3080   40.7780 N   0  0  0  0  0  0  0  0  0  0  0  0
   47.9190   35.1270   41.9700 C   0  0  0  0  0  0  0  0  0  0  0  0
   48.0460   36.1820   41.5880 H   0  0  0  0  0  0  0  0  0  0  0  0
   48.5690   35.0780   42.8670 H   0  0  0  0  0  0  0  0  0  0  0  0
   46.4920   34.9570   42.3000 C   0  0  0  0  0  0  0  0  0  0  0  0
   45.9920   34.2440   41.5850 H   0  0  0  0  0  0  0  0  0  0  0  0
   45.8750   35.8880   42.2180 H   0  0  0  0  0  0  0  0  0  0  0  0
   44.5710   36.4250   44.0330 Cl  0  0  0  0  0  0  0  0  0  0  0  0
   45.3920   34.9740   44.5490 C   0  0  0  0  0  0  0  0  0  0  0  0
   46.2550   34.3860   43.6630 C   0  0  0  0  0  0  0  0  0  0  0  0
   46.9050   33.2400   44.0670 C   0  0  0  0  0  0  0  0  0  0  0  0
   46.6940   32.7040   45.3210 C   0  0  0  0  0  0  0  0  0  0  0  0
   45.8080   33.3190   46.2120 C   0  0  0  0  0  0  0  0  0  0  0  0
   45.1600   34.4710   45.7940 C   0  0  0  0  0  0  0  0  0  0  0  0
   47.6000   32.7250   43.4160 H   0  0  0  0  0  0  0  0  0  0  0  0
   47.1570   31.8260   45.6990 H   0  0  0  0  0  0  0  0  0  0  0  0
   45.6260   32.9180   47.1990 H   0  0  0  0  0  0  0  0  0  0  0  0
   44.2560   35.1570   46.6160 O   0  0  0  0  0  0  0  0  0  0  0  0
   43.4540   34.6450   46.9690 H   0  0  0  0  0  0  0  0  0  0  0  0
  1  6  1  0  0  0  0
  1 23  1  0  0  0  0
  2  1  2  0  0  0  0
  3  4  2  0  0  0  0
  3  2  1  0  0  0  0
  4  5  1  0  0  0  0
  5  9  1  0  0  0  0
  5  6  2  0  0  0  0
  7  2  1  0  0  0  0
  8  3  1  0  0  0  0
  9 12  1  6  0  0  0
  9 10  1  0  0  0  0
 10 14  1  0  0  0  0
 10 13  1  0  0  0  0
 11 15  1  6  0  0  0
 11  9  1  0  0  0  0
 11 10  1  0  0  0  0
 16 11  1  0  0  0  0
 16 22  2  0  0  0  0
 17 16  1  0  0  0  0
 18 17  2  0  0  0  0
 18 20  1  0  0  0  0
 19 18  1  0  0  0  0
 20 21  1  0  0  0  0
 20 22  1  0  0  0  0
 23 26  1  0  0  0  0
 23 25  1  0  0  0  0
 24 23  1  0  0  0  0
 26 31  1  0  0  0  0
 27 26  1  0  0  0  0
 28 26  1  0  0  0  0
 29 30  1  0  0  0  0
 30 35  1  0  0  0  0
 31 32  1  0  0  0  0
 31 30  2  0  0  0  0
 32 33  2  0  0  0  0
 33 37  1  0  0  0  0
 33 34  1  0  0  0  0
 34 38  1  0  0  0  0
 35 34  2  0  0  0  0
 35 39  1  0  0  0  0
 36 32  1  0  0  0  0
 39 40  1  0  0  0  0
M  END
>  <minimizedAffinity>
-5.72113657

>  <minimizedRMSD>
0.34408322

$$$$
