
 OpenBabel03252508093D

 42 45  0  0  0  0  0  0  0  0999 V2000
   37.6640   29.8260   37.3380 C   0  0  0  0  0  0  0  0  0  0  0  0
   37.9270   29.3760   38.6220 C   0  0  0  0  0  0  0  0  0  0  0  0
   36.8990   28.9490   39.4260 C   0  0  0  0  0  0  0  0  0  0  0  0
   35.6270   28.9940   38.8880 N   0  0  0  0  0  0  0  0  0  0  0  0
   35.3810   29.4270   37.6530 C   0  0  0  0  0  0  0  0  0  0  0  0
   36.4130   29.8420   36.8890 N   0  0  0  0  0  0  0  0  0  0  0  0
   38.4510   30.1750   36.6660 H   0  0  0  0  0  0  0  0  0  0  0  0
   34.3890   29.4560   37.2510 H   0  0  0  0  0  0  0  0  0  0  0  0
   36.9980   28.4640   40.7500 C   0  0  0  0  0  0  0  0  0  0  0  0
   37.2160   29.2760   41.8670 C   0  0  0  0  0  0  0  0  0  0  0  0
   37.3780   28.8030   43.1440 C   0  0  0  0  0  0  0  0  0  0  0  0
   37.3280   27.4470   43.3810 C   0  0  0  0  0  0  0  0  0  0  0  0
   37.1040   26.6010   42.2530 C   0  0  0  0  0  0  0  0  0  0  0  0
   37.0550   25.2520   42.4800 C   0  0  0  0  0  0  0  0  0  0  0  0
   36.8410   24.3760   41.4360 C   0  0  0  0  0  0  0  0  0  0  0  0
   36.6720   24.8810   40.1380 C   0  0  0  0  0  0  0  0  0  0  0  0
   36.7320   26.2750   39.9580 C   0  0  0  0  0  0  0  0  0  0  0  0
   36.9500   27.1200   41.0120 C   0  0  0  0  0  0  0  0  0  0  0  0
   37.2590   30.3460   41.7100 H   0  0  0  0  0  0  0  0  0  0  0  0
   37.5430   29.4650   43.9810 H   0  0  0  0  0  0  0  0  0  0  0  0
   37.4490   27.0140   44.3620 H   0  0  0  0  0  0  0  0  0  0  0  0
   37.1820   24.8520   43.4750 H   0  0  0  0  0  0  0  0  0  0  0  0
   36.8120   23.3170   41.6670 H   0  0  0  0  0  0  0  0  0  0  0  0
   36.5110   24.1240   39.4020 H   0  0  0  0  0  0  0  0  0  0  0  0
   36.5610   26.4590   38.9190 H   0  0  0  0  0  0  0  0  0  0  0  0
   39.2330   29.3780   39.0300 O   0  0  0  0  0  0  0  0  0  0  0  0
   40.3690   30.5820   41.0590 O   0  0  0  0  0  0  0  0  0  0  0  0
   40.0560   30.7370   39.6130 P   0  0  1  0  0  0  0  0  0  0  0  0
   41.5320   30.9420   38.8080 O   0  0  0  0  0  0  0  0  0  0  0  0
   41.8060   32.1890   38.2610 C   0  0  0  0  0  0  0  0  0  0  0  0
   42.0840   33.2900   39.0080 N   0  0  0  0  0  0  0  0  0  0  0  0
   42.3060   34.3420   38.1960 C   0  0  0  0  0  0  0  0  0  0  0  0
   42.5520   35.3620   38.4770 H   0  0  0  0  0  0  0  0  0  0  0  0
   42.1690   33.9000   36.9310 N   0  0  0  0  0  0  0  0  0  0  0  0
   42.2740   34.4610   36.0330 H   0  0  0  0  0  0  0  0  0  0  0  0
   41.8710   32.6160   36.9900 N   0  0  0  0  0  0  0  0  0  0  0  0
   39.1000   32.0900   39.3390 O   0  0  0  0  0  0  0  0  0  0  0  0
   38.5720   32.9400   40.2970 C   0  0  0  0  0  0  0  0  0  0  0  0
   37.3390   32.8600   40.1480 O   0  0  0  0  0  0  0  0  0  0  0  0
   39.6210   33.5620   41.0680 N   0  0  0  0  0  0  0  0  0  0  0  0
   40.2130   32.9290   41.6700 H   0  0  0  0  0  0  0  0  0  0  0  0
   39.8910   34.5700   41.1230 H   0  0  0  0  0  0  0  0  0  0  0  0
  1  2  1  0  0  0  0
  2 26  1  0  0  0  0
  2  3  2  0  0  0  0
  3  9  1  0  0  0  0
  4  3  1  0  0  0  0
  5  4  2  0  0  0  0
  6  1  2  0  0  0  0
  6  5  1  0  0  0  0
  7  1  1  0  0  0  0
  8  5  1  0  0  0  0
  9 18  2  0  0  0  0
  9 10  1  0  0  0  0
 10 11  2  0  0  0  0
 11 12  1  0  0  0  0
 11 20  1  0  0  0  0
 12 21  1  0  0  0  0
 13 14  1  0  0  0  0
 13 12  2  0  0  0  0
 14 22  1  0  0  0  0
 15 23  1  0  0  0  0
 15 14  2  0  0  0  0
 16 15  1  0  0  0  0
 17 16  2  0  0  0  0
 17 18  1  0  0  0  0
 18 13  1  0  0  0  0
 19 10  1  0  0  0  0
 24 16  1  0  0  0  0
 25 17  1  0  0  0  0
 26 28  1  0  0  0  0
 28 27  2  1  0  0  0
 29 28  1  0  0  0  0
 30 29  1  0  0  0  0
 30 31  1  0  0  0  0
 32 33  1  0  0  0  0
 32 31  2  0  0  0  0
 34 36  1  0  0  0  0
 34 32  1  0  0  0  0
 35 34  1  0  0  0  0
 36 30  2  0  0  0  0
 37 28  1  0  0  0  0
 37 38  1  0  0  0  0
 38 40  1  0  0  0  0
 39 38  2  0  0  0  0
 40 42  1  0  0  0  0
 40 41  1  0  0  0  0
M  END
>  <minimizedAffinity>
-6.39582491

$$$$

 OpenBabel03252508093D

 42 45  0  0  0  0  0  0  0  0999 V2000
   42.2940   28.9660   40.7410 C   0  0  0  0  0  0  0  0  0  0  0  0
   40.9420   28.7610   40.9650 C   0  0  0  0  0  0  0  0  0  0  0  0
   40.5210   28.1340   42.1130 C   0  0  0  0  0  0  0  0  0  0  0  0
   41.5010   27.7370   43.0010 N   0  0  0  0  0  0  0  0  0  0  0  0
   42.7990   27.9380   42.7800 C   0  0  0  0  0  0  0  0  0  0  0  0
   43.1810   28.5550   41.6420 N   0  0  0  0  0  0  0  0  0  0  0  0
   42.6730   29.4580   39.8430 H   0  0  0  0  0  0  0  0  0  0  0  0
   43.5470   27.6230   43.4800 H   0  0  0  0  0  0  0  0  0  0  0  0
   39.1890   27.8510   42.4870 C   0  0  0  0  0  0  0  0  0  0  0  0
   38.3940   28.7040   43.2590 C   0  0  0  0  0  0  0  0  0  0  0  0
   37.1230   28.4040   43.6780 C   0  0  0  0  0  0  0  0  0  0  0  0
   36.5590   27.1930   43.3360 C   0  0  0  0  0  0  0  0  0  0  0  0
   37.3540   26.3100   42.5470 C   0  0  0  0  0  0  0  0  0  0  0  0
   36.8020   25.1050   42.2040 C   0  0  0  0  0  0  0  0  0  0  0  0
   37.5140   24.2020   41.4410 C   0  0  0  0  0  0  0  0  0  0  0  0
   38.8110   24.5320   41.0180 C   0  0  0  0  0  0  0  0  0  0  0  0
   39.3320   25.7820   41.3970 C   0  0  0  0  0  0  0  0  0  0  0  0
   38.6040   26.6560   42.1580 C   0  0  0  0  0  0  0  0  0  0  0  0
   38.8110   29.6610   43.5410 H   0  0  0  0  0  0  0  0  0  0  0  0
   36.5410   29.0910   44.2730 H   0  0  0  0  0  0  0  0  0  0  0  0
   35.5650   26.8990   43.6370 H   0  0  0  0  0  0  0  0  0  0  0  0
   35.8050   24.8410   42.5240 H   0  0  0  0  0  0  0  0  0  0  0  0
   37.0330   23.2610   41.1980 H   0  0  0  0  0  0  0  0  0  0  0  0
   39.2760   23.7690   40.4330 H   0  0  0  0  0  0  0  0  0  0  0  0
   40.3070   25.8530   40.9650 H   0  0  0  0  0  0  0  0  0  0  0  0
   40.0750   29.2080   40.0060 O   0  0  0  0  0  0  0  0  0  0  0  0
   40.8590   31.1200   38.3970 O   0  0  0  0  0  0  0  0  0  0  0  0
   39.9280   30.8220   39.5190 P   0  0  1  0  0  0  0  0  0  0  0  0
   38.3620   31.1450   38.9590 O   0  0  0  0  0  0  0  0  0  0  0  0
   37.2950   30.7980   39.7790 C   0  0  0  0  0  0  0  0  0  0  0  0
   36.6220   29.6220   39.6750 N   0  0  0  0  0  0  0  0  0  0  0  0
   35.6450   29.5770   40.6020 C   0  0  0  0  0  0  0  0  0  0  0  0
   34.9320   28.7780   40.7830 H   0  0  0  0  0  0  0  0  0  0  0  0
   35.7050   30.7310   41.2940 N   0  0  0  0  0  0  0  0  0  0  0  0
   35.0830   31.0370   42.1010 H   0  0  0  0  0  0  0  0  0  0  0  0
   36.6930   31.4460   40.7890 N   0  0  0  0  0  0  0  0  0  0  0  0
   40.2390   31.8030   40.8450 O   0  0  0  0  0  0  0  0  0  0  0  0
   40.1630   33.1850   40.8890 C   0  0  0  0  0  0  0  0  0  0  0  0
   41.3230   33.5760   40.6600 O   0  0  0  0  0  0  0  0  0  0  0  0
   38.8160   33.6190   41.1700 N   0  0  0  0  0  0  0  0  0  0  0  0
   38.0820   33.4030   40.4440 H   0  0  0  0  0  0  0  0  0  0  0  0
   38.4460   34.1260   42.0050 H   0  0  0  0  0  0  0  0  0  0  0  0
  1  2  2  0  0  0  0
  1  6  1  0  0  0  0
  2  3  1  0  0  0  0
  3  9  1  0  0  0  0
  3  4  2  0  0  0  0
  5  4  1  0  0  0  0
  5  8  1  0  0  0  0
  6  5  2  0  0  0  0
  7  1  1  0  0  0  0
  9 10  1  0  0  0  0
 10 19  1  0  0  0  0
 10 11  2  0  0  0  0
 11 20  1  0  0  0  0
 12 21  1  0  0  0  0
 12 11  1  0  0  0  0
 13 12  2  0  0  0  0
 14 22  1  0  0  0  0
 14 13  1  0  0  0  0
 15 14  2  0  0  0  0
 16 17  2  0  0  0  0
 16 15  1  0  0  0  0
 17 18  1  0  0  0  0
 18  9  2  0  0  0  0
 18 13  1  0  0  0  0
 23 15  1  0  0  0  0
 24 16  1  0  0  0  0
 25 17  1  0  0  0  0
 26  2  1  0  0  0  0
 28 27  2  6  0  0  0
 28 26  1  0  0  0  0
 28 37  1  0  0  0  0
 29 28  1  0  0  0  0
 29 30  1  0  0  0  0
 30 36  2  0  0  0  0
 31 30  1  0  0  0  0
 31 32  2  0  0  0  0
 32 33  1  0  0  0  0
 32 34  1  0  0  0  0
 34 35  1  0  0  0  0
 36 34  1  0  0  0  0
 37 38  1  0  0  0  0
 38 40  1  0  0  0  0
 39 38  2  0  0  0  0
 40 42  1  0  0  0  0
 41 40  1  0  0  0  0
M  END
>  <minimizedAffinity>
-6.36225557

$$$$

 OpenBabel03252508093D

 42 45  0  0  0  0  0  0  0  0999 V2000
   42.1760   29.1340   40.3920 C   0  0  0  0  0  0  0  0  0  0  0  0
   40.8500   28.8550   40.6840 C   0  0  0  0  0  0  0  0  0  0  0  0
   40.5090   28.3370   41.9090 C   0  0  0  0  0  0  0  0  0  0  0  0
   41.5390   28.1210   42.8030 N   0  0  0  0  0  0  0  0  0  0  0  0
   42.8120   28.3910   42.5170 C   0  0  0  0  0  0  0  0  0  0  0  0
   43.1150   28.8980   41.3040 N   0  0  0  0  0  0  0  0  0  0  0  0
   42.4920   29.5450   39.4310 H   0  0  0  0  0  0  0  0  0  0  0  0
   43.5990   28.2170   43.2220 H   0  0  0  0  0  0  0  0  0  0  0  0
   39.2120   28.0000   42.3590 C   0  0  0  0  0  0  0  0  0  0  0  0
   38.4120   28.8380   43.1410 C   0  0  0  0  0  0  0  0  0  0  0  0
   37.1800   28.4880   43.6330 C   0  0  0  0  0  0  0  0  0  0  0  0
   36.6650   27.2400   43.3590 C   0  0  0  0  0  0  0  0  0  0  0  0
   37.4660   26.3700   42.5600 C   0  0  0  0  0  0  0  0  0  0  0  0
   36.9620   25.1280   42.2850 C   0  0  0  0  0  0  0  0  0  0  0  0
   37.6830   24.2360   41.5170 C   0  0  0  0  0  0  0  0  0  0  0  0
   38.9380   24.6160   41.0190 C   0  0  0  0  0  0  0  0  0  0  0  0
   39.4110   25.9040   41.3310 C   0  0  0  0  0  0  0  0  0  0  0  0
   38.6760   26.7650   42.0980 C   0  0  0  0  0  0  0  0  0  0  0  0
   38.7920   29.8240   43.3710 H   0  0  0  0  0  0  0  0  0  0  0  0
   36.5930   29.1660   44.2330 H   0  0  0  0  0  0  0  0  0  0  0  0
   35.7030   26.9070   43.7180 H   0  0  0  0  0  0  0  0  0  0  0  0
   35.9970   24.8260   42.6620 H   0  0  0  0  0  0  0  0  0  0  0  0
   37.2400   23.2640   41.3290 H   0  0  0  0  0  0  0  0  0  0  0  0
   39.4140   23.8580   40.4370 H   0  0  0  0  0  0  0  0  0  0  0  0
   40.3590   26.0090   40.8480 H   0  0  0  0  0  0  0  0  0  0  0  0
   39.9270   29.1210   39.7100 O   0  0  0  0  0  0  0  0  0  0  0  0
   39.7730   31.6510   40.3670 O   0  0  0  0  0  0  0  0  0  0  0  0
   39.1660   30.6160   39.4880 P   0  0  1  0  0  0  0  0  0  0  0  0
   39.3490   31.1560   37.8930 O   0  0  0  0  0  0  0  0  0  0  0  0
   40.5830   31.6710   37.5180 C   0  0  0  0  0  0  0  0  0  0  0  0
   41.6570   30.8970   37.2130 N   0  0  0  0  0  0  0  0  0  0  0  0
   42.7030   31.6810   36.8880 C   0  0  0  0  0  0  0  0  0  0  0  0
   43.7040   31.3740   36.5960 H   0  0  0  0  0  0  0  0  0  0  0  0
   42.2850   32.9570   36.9890 N   0  0  0  0  0  0  0  0  0  0  0  0
   42.8480   33.8410   36.8060 H   0  0  0  0  0  0  0  0  0  0  0  0
   41.0200   32.9320   37.3650 N   0  0  0  0  0  0  0  0  0  0  0  0
   37.5290   30.4280   39.8090 O   0  0  0  0  0  0  0  0  0  0  0  0
   36.6450   31.4160   40.2100 C   0  0  0  0  0  0  0  0  0  0  0  0
   36.8890   32.3830   39.4650 O   0  0  0  0  0  0  0  0  0  0  0  0
   35.8140   30.9550   41.2950 N   0  0  0  0  0  0  0  0  0  0  0  0
   35.1460   30.1660   41.0840 H   0  0  0  0  0  0  0  0  0  0  0  0
   35.7710   31.2910   42.2830 H   0  0  0  0  0  0  0  0  0  0  0  0
  1  2  2  0  0  0  0
  1  6  1  0  0  0  0
  2  3  1  0  0  0  0
  3  9  1  0  0  0  0
  3  4  2  0  0  0  0
  5  4  1  0  0  0  0
  5  8  1  0  0  0  0
  6  5  2  0  0  0  0
  7  1  1  0  0  0  0
  9 10  1  0  0  0  0
 10 19  1  0  0  0  0
 10 11  2  0  0  0  0
 11 20  1  0  0  0  0
 12 11  1  0  0  0  0
 12 21  1  0  0  0  0
 13 12  2  0  0  0  0
 14 13  1  0  0  0  0
 14 22  1  0  0  0  0
 15 14  2  0  0  0  0
 16 17  2  0  0  0  0
 16 15  1  0  0  0  0
 17 18  1  0  0  0  0
 18  9  2  0  0  0  0
 18 13  1  0  0  0  0
 23 15  1  0  0  0  0
 24 16  1  0  0  0  0
 25 17  1  0  0  0  0
 26  2  1  0  0  0  0
 28 26  1  0  0  0  0
 28 37  1  0  0  0  0
 28 27  2  1  0  0  0
 29 28  1  0  0  0  0
 30 29  1  0  0  0  0
 31 30  1  0  0  0  0
 32 34  1  0  0  0  0
 32 31  2  0  0  0  0
 33 32  1  0  0  0  0
 34 36  1  0  0  0  0
 35 34  1  0  0  0  0
 36 30  2  0  0  0  0
 37 38  1  0  0  0  0
 38 40  1  0  0  0  0
 39 38  2  0  0  0  0
 40 42  1  0  0  0  0
 41 40  1  0  0  0  0
M  END
>  <minimizedAffinity>
-6.30922604

$$$$

 OpenBabel03252508093D

 42 45  0  0  0  0  0  0  0  0999 V2000
   42.3280   28.6200   40.1200 C   0  0  0  0  0  0  0  0  0  0  0  0
   40.9950   28.3960   40.4220 C   0  0  0  0  0  0  0  0  0  0  0  0
   40.6190   28.1000   41.7100 C   0  0  0  0  0  0  0  0  0  0  0  0
   41.6250   28.0440   42.6540 N   0  0  0  0  0  0  0  0  0  0  0  0
   42.9060   28.2600   42.3590 C   0  0  0  0  0  0  0  0  0  0  0  0
   43.2420   28.5470   41.0830 N   0  0  0  0  0  0  0  0  0  0  0  0
   42.6700   28.8570   39.1110 H   0  0  0  0  0  0  0  0  0  0  0  0
   43.6740   28.2130   43.1030 H   0  0  0  0  0  0  0  0  0  0  0  0
   39.3100   27.8460   42.1770 C   0  0  0  0  0  0  0  0  0  0  0  0
   38.5380   28.7730   42.8840 C   0  0  0  0  0  0  0  0  0  0  0  0
   37.2930   28.5080   43.3950 C   0  0  0  0  0  0  0  0  0  0  0  0
   36.7340   27.2610   43.2200 C   0  0  0  0  0  0  0  0  0  0  0  0
   37.5070   26.3010   42.5000 C   0  0  0  0  0  0  0  0  0  0  0  0
   36.9600   25.0580   42.3250 C   0  0  0  0  0  0  0  0  0  0  0  0
   37.6510   24.0820   41.6370 C   0  0  0  0  0  0  0  0  0  0  0  0
   38.9210   24.3760   41.1170 C   0  0  0  0  0  0  0  0  0  0  0  0
   39.4380   25.6670   41.3250 C   0  0  0  0  0  0  0  0  0  0  0  0
   38.7320   26.6140   42.0150 C   0  0  0  0  0  0  0  0  0  0  0  0
   38.9510   29.7610   43.0350 H   0  0  0  0  0  0  0  0  0  0  0  0
   36.7270   29.2530   43.9340 H   0  0  0  0  0  0  0  0  0  0  0  0
   35.7600   26.9920   43.6000 H   0  0  0  0  0  0  0  0  0  0  0  0
   35.9830   24.8220   42.7190 H   0  0  0  0  0  0  0  0  0  0  0  0
   37.1750   23.1140   41.5250 H   0  0  0  0  0  0  0  0  0  0  0  0
   39.3720   23.5570   40.6010 H   0  0  0  0  0  0  0  0  0  0  0  0
   40.3910   25.6990   40.8420 H   0  0  0  0  0  0  0  0  0  0  0  0
   40.0970   28.4870   39.3930 O   0  0  0  0  0  0  0  0  0  0  0  0
   38.6570   29.7050   37.5760 O   0  0  0  0  0  0  0  0  0  0  0  0
   39.4200   29.9330   38.8330 P   0  0  1  0  0  0  0  0  0  0  0  0
   38.3290   30.5670   39.9630 O   0  0  0  0  0  0  0  0  0  0  0  0
   38.4150   31.9210   40.2600 C   0  0  0  0  0  0  0  0  0  0  0  0
   37.8720   32.8950   39.4840 N   0  0  0  0  0  0  0  0  0  0  0  0
   38.1200   34.1010   40.0320 C   0  0  0  0  0  0  0  0  0  0  0  0
   37.8230   35.0780   39.6600 H   0  0  0  0  0  0  0  0  0  0  0  0
   38.8240   33.8840   41.1600 N   0  0  0  0  0  0  0  0  0  0  0  0
   39.1910   34.6100   41.8450 H   0  0  0  0  0  0  0  0  0  0  0  0
   38.9900   32.5810   41.2790 N   0  0  0  0  0  0  0  0  0  0  0  0
   40.6590   31.0410   38.6000 O   0  0  0  0  0  0  0  0  0  0  0  0
   40.9740   31.6970   37.4220 C   0  0  0  0  0  0  0  0  0  0  0  0
   42.1670   31.4120   37.2070 O   0  0  0  0  0  0  0  0  0  0  0  0
   39.8360   32.4280   36.9190 N   0  0  0  0  0  0  0  0  0  0  0  0
   39.0000   31.8610   36.6120 H   0  0  0  0  0  0  0  0  0  0  0  0
   39.7080   33.4590   36.8090 H   0  0  0  0  0  0  0  0  0  0  0  0
  1  2  2  0  0  0  0
  1  6  1  0  0  0  0
  2  3  1  0  0  0  0
  3  9  1  0  0  0  0
  3  4  2  0  0  0  0
  5  4  1  0  0  0  0
  5  8  1  0  0  0  0
  6  5  2  0  0  0  0
  7  1  1  0  0  0  0
  9 10  1  0  0  0  0
 10 19  1  0  0  0  0
 10 11  2  0  0  0  0
 11 20  1  0  0  0  0
 12 11  1  0  0  0  0
 12 21  1  0  0  0  0
 13 12  2  0  0  0  0
 14 13  1  0  0  0  0
 14 22  1  0  0  0  0
 15 14  2  0  0  0  0
 16 17  2  0  0  0  0
 16 15  1  0  0  0  0
 17 18  1  0  0  0  0
 18  9  2  0  0  0  0
 18 13  1  0  0  0  0
 23 15  1  0  0  0  0
 24 16  1  0  0  0  0
 25 17  1  0  0  0  0
 26  2  1  0  0  0  0
 28 27  2  6  0  0  0
 28 26  1  0  0  0  0
 28 29  1  0  0  0  0
 29 30  1  0  0  0  0
 30 36  2  0  0  0  0
 31 32  2  0  0  0  0
 31 30  1  0  0  0  0
 32 34  1  0  0  0  0
 33 32  1  0  0  0  0
 34 36  1  0  0  0  0
 34 35  1  0  0  0  0
 37 28  1  0  0  0  0
 38 37  1  0  0  0  0
 39 38  2  0  0  0  0
 40 38  1  0  0  0  0
 41 40  1  0  0  0  0
 42 40  1  0  0  0  0
M  END
>  <minimizedAffinity>
-6.20892382

$$$$

 OpenBabel03252508093D

 42 45  0  0  0  0  0  0  0  0999 V2000
   37.4140   29.4910   37.1380 C   0  0  0  0  0  0  0  0  0  0  0  0
   37.7290   29.0260   38.4050 C   0  0  0  0  0  0  0  0  0  0  0  0
   36.7290   28.6970   39.2870 C   0  0  0  0  0  0  0  0  0  0  0  0
   35.4300   28.8520   38.8420 N   0  0  0  0  0  0  0  0  0  0  0  0
   35.1330   29.2990   37.6230 C   0  0  0  0  0  0  0  0  0  0  0  0
   36.1390   29.6160   36.7810 N   0  0  0  0  0  0  0  0  0  0  0  0
   38.1760   29.7650   36.4060 H   0  0  0  0  0  0  0  0  0  0  0  0
   34.1210   29.4150   37.2940 H   0  0  0  0  0  0  0  0  0  0  0  0
   36.8820   28.2130   40.6050 C   0  0  0  0  0  0  0  0  0  0  0  0
   37.1180   29.0280   41.7160 C   0  0  0  0  0  0  0  0  0  0  0  0
   37.3310   28.5560   42.9870 C   0  0  0  0  0  0  0  0  0  0  0  0
   37.3190   27.1980   43.2220 C   0  0  0  0  0  0  0  0  0  0  0  0
   37.0780   26.3490   42.1000 C   0  0  0  0  0  0  0  0  0  0  0  0
   37.0670   24.9990   42.3250 C   0  0  0  0  0  0  0  0  0  0  0  0
   36.8390   24.1200   41.2860 C   0  0  0  0  0  0  0  0  0  0  0  0
   36.6180   24.6240   39.9960 C   0  0  0  0  0  0  0  0  0  0  0  0
   36.6400   26.0190   39.8180 C   0  0  0  0  0  0  0  0  0  0  0  0
   36.8730   26.8670   40.8660 C   0  0  0  0  0  0  0  0  0  0  0  0
   37.1310   30.0980   41.5610 H   0  0  0  0  0  0  0  0  0  0  0  0
   37.5080   29.2200   43.8190 H   0  0  0  0  0  0  0  0  0  0  0  0
   37.4820   26.7670   44.1980 H   0  0  0  0  0  0  0  0  0  0  0  0
   37.2360   24.6010   43.3140 H   0  0  0  0  0  0  0  0  0  0  0  0
   36.8410   23.0600   41.5160 H   0  0  0  0  0  0  0  0  0  0  0  0
   36.4500   23.8650   39.2630 H   0  0  0  0  0  0  0  0  0  0  0  0
   36.4310   26.2010   38.7850 H   0  0  0  0  0  0  0  0  0  0  0  0
   39.0560   28.9140   38.7170 O   0  0  0  0  0  0  0  0  0  0  0  0
   39.2290   31.3310   39.7090 O   0  0  0  0  0  0  0  0  0  0  0  0
   40.0460   30.2030   39.1870 P   0  0  1  0  0  0  0  0  0  0  0  0
   41.0950   29.7370   40.4330 O   0  0  0  0  0  0  0  0  0  0  0  0
   41.6080   30.7320   41.2560 C   0  0  0  0  0  0  0  0  0  0  0  0
   42.4320   31.7180   40.8160 N   0  0  0  0  0  0  0  0  0  0  0  0
   42.7590   32.5270   41.8430 C   0  0  0  0  0  0  0  0  0  0  0  0
   43.3990   33.4050   41.8240 H   0  0  0  0  0  0  0  0  0  0  0  0
   42.1360   32.0470   42.9360 N   0  0  0  0  0  0  0  0  0  0  0  0
   42.1700   32.4360   43.9250 H   0  0  0  0  0  0  0  0  0  0  0  0
   41.4560   30.9780   42.5680 N   0  0  0  0  0  0  0  0  0  0  0  0
   40.9610   30.6770   37.8610 O   0  0  0  0  0  0  0  0  0  0  0  0
   40.9910   31.9340   37.2820 C   0  0  0  0  0  0  0  0  0  0  0  0
   42.1790   32.2950   37.3650 O   0  0  0  0  0  0  0  0  0  0  0  0
   39.6790   32.3200   36.8210 N   0  0  0  0  0  0  0  0  0  0  0  0
   39.2600   31.7520   36.0370 H   0  0  0  0  0  0  0  0  0  0  0  0
   39.0650   33.0970   37.1540 H   0  0  0  0  0  0  0  0  0  0  0  0
  1  2  1  0  0  0  0
  2 26  1  0  0  0  0
  2  3  2  0  0  0  0
  3  9  1  0  0  0  0
  4  3  1  0  0  0  0
  5  4  2  0  0  0  0
  6  1  2  0  0  0  0
  6  5  1  0  0  0  0
  7  1  1  0  0  0  0
  8  5  1  0  0  0  0
  9 18  2  0  0  0  0
  9 10  1  0  0  0  0
 10 11  2  0  0  0  0
 11 12  1  0  0  0  0
 11 20  1  0  0  0  0
 12 21  1  0  0  0  0
 13 14  1  0  0  0  0
 13 12  2  0  0  0  0
 14 22  1  0  0  0  0
 15 23  1  0  0  0  0
 15 14  2  0  0  0  0
 16 15  1  0  0  0  0
 17 16  2  0  0  0  0
 17 18  1  0  0  0  0
 18 13  1  0  0  0  0
 19 10  1  0  0  0  0
 24 16  1  0  0  0  0
 25 17  1  0  0  0  0
 26 28  1  0  0  0  0
 28 27  2  1  0  0  0
 28 29  1  0  0  0  0
 29 30  1  0  0  0  0
 30 36  2  0  0  0  0
 31 30  1  0  0  0  0
 31 32  2  0  0  0  0
 32 34  1  0  0  0  0
 33 32  1  0  0  0  0
 34 35  1  0  0  0  0
 36 34  1  0  0  0  0
 37 28  1  0  0  0  0
 38 39  2  0  0  0  0
 38 37  1  0  0  0  0
 40 42  1  0  0  0  0
 40 38  1  0  0  0  0
 41 40  1  0  0  0  0
M  END
>  <minimizedAffinity>
-6.10194302

$$$$

 OpenBabel03252508093D

 42 45  0  0  0  0  0  0  0  0999 V2000
   37.2940   29.3670   37.3190 C   0  0  0  0  0  0  0  0  0  0  0  0
   37.5300   28.7560   38.5410 C   0  0  0  0  0  0  0  0  0  0  0  0
   36.4880   28.2180   39.2550 C   0  0  0  0  0  0  0  0  0  0  0  0
   35.2300   28.3200   38.6930 N   0  0  0  0  0  0  0  0  0  0  0  0
   35.0090   28.9080   37.5190 C   0  0  0  0  0  0  0  0  0  0  0  0
   36.0550   29.4280   36.8420 N   0  0  0  0  0  0  0  0  0  0  0  0
   38.0930   29.8080   36.7190 H   0  0  0  0  0  0  0  0  0  0  0  0
   34.0270   28.9790   37.0970 H   0  0  0  0  0  0  0  0  0  0  0  0
   36.5600   27.5670   40.5070 C   0  0  0  0  0  0  0  0  0  0  0  0
   36.4300   28.2180   41.7370 C   0  0  0  0  0  0  0  0  0  0  0  0
   36.5630   27.6000   42.9540 C   0  0  0  0  0  0  0  0  0  0  0  0
   36.8440   26.2520   43.0080 C   0  0  0  0  0  0  0  0  0  0  0  0
   36.9800   25.5690   41.7620 C   0  0  0  0  0  0  0  0  0  0  0  0
   37.2610   24.2300   41.8070 C   0  0  0  0  0  0  0  0  0  0  0  0
   37.4040   23.5070   40.6410 C   0  0  0  0  0  0  0  0  0  0  0  0
   37.2570   24.1580   39.4070 C   0  0  0  0  0  0  0  0  0  0  0  0
   36.9690   25.5340   39.4150 C   0  0  0  0  0  0  0  0  0  0  0  0
   36.8370   26.2270   40.5870 C   0  0  0  0  0  0  0  0  0  0  0  0
   36.2080   29.2760   41.7250 H   0  0  0  0  0  0  0  0  0  0  0  0
   36.4540   28.1390   43.8830 H   0  0  0  0  0  0  0  0  0  0  0  0
   36.9630   25.7100   43.9340 H   0  0  0  0  0  0  0  0  0  0  0  0
   37.3750   23.7190   42.7520 H   0  0  0  0  0  0  0  0  0  0  0  0
   37.6270   22.4500   40.7300 H   0  0  0  0  0  0  0  0  0  0  0  0
   37.3840   23.5120   38.5650 H   0  0  0  0  0  0  0  0  0  0  0  0
   36.8740   25.8360   38.3940 H   0  0  0  0  0  0  0  0  0  0  0  0
   38.8250   28.7190   38.9810 O   0  0  0  0  0  0  0  0  0  0  0  0
   41.1080   29.7400   39.7590 O   0  0  0  0  0  0  0  0  0  0  0  0
   39.6540   30.0360   39.6440 P   0  0  1  0  0  0  0  0  0  0  0  0
   39.5060   31.4040   38.6560 O   0  0  0  0  0  0  0  0  0  0  0  0
   38.7350   32.4620   39.1210 C   0  0  0  0  0  0  0  0  0  0  0  0
   39.2230   33.4550   39.9090 N   0  0  0  0  0  0  0  0  0  0  0  0
   38.2390   34.3310   40.1940 C   0  0  0  0  0  0  0  0  0  0  0  0
   38.3010   35.2320   40.7970 H   0  0  0  0  0  0  0  0  0  0  0  0
   37.1250   33.8860   39.5810 N   0  0  0  0  0  0  0  0  0  0  0  0
   36.1590   34.3300   39.5890 H   0  0  0  0  0  0  0  0  0  0  0  0
   37.4400   32.7720   38.9470 N   0  0  0  0  0  0  0  0  0  0  0  0
   38.9830   30.3810   41.1440 O   0  0  0  0  0  0  0  0  0  0  0  0
   39.6690   30.6360   42.3200 C   0  0  0  0  0  0  0  0  0  0  0  0
   39.2300   29.8010   43.1320 O   0  0  0  0  0  0  0  0  0  0  0  0
   40.5940   31.7300   42.1500 N   0  0  0  0  0  0  0  0  0  0  0  0
   41.3970   31.5790   41.4810 H   0  0  0  0  0  0  0  0  0  0  0  0
   40.5910   32.6730   42.5980 H   0  0  0  0  0  0  0  0  0  0  0  0
  1  2  1  0  0  0  0
  2 26  1  0  0  0  0
  2  3  2  0  0  0  0
  3  9  1  0  0  0  0
  4  3  1  0  0  0  0
  5  4  2  0  0  0  0
  6  1  2  0  0  0  0
  6  5  1  0  0  0  0
  7  1  1  0  0  0  0
  8  5  1  0  0  0  0
  9 18  2  0  0  0  0
  9 10  1  0  0  0  0
 10 11  2  0  0  0  0
 11 12  1  0  0  0  0
 11 20  1  0  0  0  0
 12 21  1  0  0  0  0
 13 14  1  0  0  0  0
 13 12  2  0  0  0  0
 14 22  1  0  0  0  0
 15 23  1  0  0  0  0
 15 14  2  0  0  0  0
 16 17  2  0  0  0  0
 16 15  1  0  0  0  0
 17 18  1  0  0  0  0
 18 13  1  0  0  0  0
 19 10  1  0  0  0  0
 24 16  1  0  0  0  0
 25 17  1  0  0  0  0
 26 28  1  0  0  0  0
 28 27  2  1  0  0  0
 28 37  1  0  0  0  0
 29 30  1  0  0  0  0
 29 28  1  0  0  0  0
 30 31  1  0  0  0  0
 31 32  2  0  0  0  0
 32 33  1  0  0  0  0
 34 35  1  0  0  0  0
 34 32  1  0  0  0  0
 36 30  2  0  0  0  0
 36 34  1  0  0  0  0
 37 38  1  0  0  0  0
 38 39  2  0  0  0  0
 40 38  1  0  0  0  0
 40 42  1  0  0  0  0
 41 40  1  0  0  0  0
M  END
>  <minimizedAffinity>
-6.0784893

$$$$

 OpenBabel03252508093D

 42 45  0  0  0  0  0  0  0  0999 V2000
   37.8370   30.6330   39.7930 C   0  0  0  0  0  0  0  0  0  0  0  0
   38.5140   29.5500   40.3320 C   0  0  0  0  0  0  0  0  0  0  0  0
   38.0410   28.9370   41.4660 C   0  0  0  0  0  0  0  0  0  0  0  0
   36.8840   29.4520   42.0160 N   0  0  0  0  0  0  0  0  0  0  0  0
   36.2370   30.4920   41.4940 C   0  0  0  0  0  0  0  0  0  0  0  0
   36.7290   31.0740   40.3790 N   0  0  0  0  0  0  0  0  0  0  0  0
   38.1780   31.1500   38.8940 H   0  0  0  0  0  0  0  0  0  0  0  0
   35.3410   30.8800   41.9330 H   0  0  0  0  0  0  0  0  0  0  0  0
   38.6110   27.8300   42.1360 C   0  0  0  0  0  0  0  0  0  0  0  0
   39.6420   27.9290   43.0740 C   0  0  0  0  0  0  0  0  0  0  0  0
   40.2400   26.8520   43.6780 C   0  0  0  0  0  0  0  0  0  0  0  0
   39.8250   25.5760   43.3650 C   0  0  0  0  0  0  0  0  0  0  0  0
   38.7710   25.4550   42.4100 C   0  0  0  0  0  0  0  0  0  0  0  0
   38.3540   24.1900   42.0920 C   0  0  0  0  0  0  0  0  0  0  0  0
   37.3390   23.9990   41.1770 C   0  0  0  0  0  0  0  0  0  0  0  0
   36.7370   25.1150   40.5760 C   0  0  0  0  0  0  0  0  0  0  0  0
   37.2020   26.3920   40.9360 C   0  0  0  0  0  0  0  0  0  0  0  0
   38.2140   26.5510   41.8440 C   0  0  0  0  0  0  0  0  0  0  0  0
   39.9880   28.9190   43.3400 H   0  0  0  0  0  0  0  0  0  0  0  0
   41.0340   26.9710   44.4000 H   0  0  0  0  0  0  0  0  0  0  0  0
   40.2570   24.6900   43.8040 H   0  0  0  0  0  0  0  0  0  0  0  0
   38.8100   23.3250   42.5490 H   0  0  0  0  0  0  0  0  0  0  0  0
   37.0460   22.9780   40.9580 H   0  0  0  0  0  0  0  0  0  0  0  0
   35.9630   24.8620   39.8850 H   0  0  0  0  0  0  0  0  0  0  0  0
   36.6110   27.1000   40.3950 H   0  0  0  0  0  0  0  0  0  0  0  0
   39.6470   29.1360   39.6850 O   0  0  0  0  0  0  0  0  0  0  0  0
   40.7210   28.2910   37.4510 O   0  0  0  0  0  0  0  0  0  0  0  0
   39.9870   29.4350   38.0540 P   0  0  1  0  0  0  0  0  0  0  0  0
   38.5580   29.6290   37.1640 O   0  0  0  0  0  0  0  0  0  0  0  0
   37.9350   28.4860   36.6790 C   0  0  0  0  0  0  0  0  0  0  0  0
   37.4120   27.5210   37.4790 N   0  0  0  0  0  0  0  0  0  0  0  0
   36.8770   26.5450   36.7190 C   0  0  0  0  0  0  0  0  0  0  0  0
   36.3830   25.6360   37.0500 H   0  0  0  0  0  0  0  0  0  0  0  0
   37.0650   26.8990   35.4330 N   0  0  0  0  0  0  0  0  0  0  0  0
   36.7700   26.3620   34.5630 H   0  0  0  0  0  0  0  0  0  0  0  0
   37.6960   28.0570   35.4290 N   0  0  0  0  0  0  0  0  0  0  0  0
   40.8810   30.8530   37.9530 O   0  0  0  0  0  0  0  0  0  0  0  0
   40.3830   32.1450   37.9100 C   0  0  0  0  0  0  0  0  0  0  0  0
   40.7540   32.6640   38.9790 O   0  0  0  0  0  0  0  0  0  0  0  0
   39.6560   32.3760   36.6850 N   0  0  0  0  0  0  0  0  0  0  0  0
   40.2100   32.3480   35.7870 H   0  0  0  0  0  0  0  0  0  0  0  0
   38.6400   32.5730   36.5480 H   0  0  0  0  0  0  0  0  0  0  0  0
  1  2  2  0  0  0  0
  1  6  1  0  0  0  0
  2  3  1  0  0  0  0
  3  4  2  0  0  0  0
  3  9  1  0  0  0  0
  5  8  1  0  0  0  0
  5  4  1  0  0  0  0
  6  5  2  0  0  0  0
  7  1  1  0  0  0  0
  9 10  1  0  0  0  0
 10 19  1  0  0  0  0
 10 11  2  0  0  0  0
 11 20  1  0  0  0  0
 12 11  1  0  0  0  0
 12 21  1  0  0  0  0
 13 12  2  0  0  0  0
 14 13  1  0  0  0  0
 14 22  1  0  0  0  0
 15 14  2  0  0  0  0
 16 17  2  0  0  0  0
 16 15  1  0  0  0  0
 17 18  1  0  0  0  0
 18  9  2  0  0  0  0
 18 13  1  0  0  0  0
 23 15  1  0  0  0  0
 24 16  1  0  0  0  0
 25 17  1  0  0  0  0
 26  2  1  0  0  0  0
 28 27  2  6  0  0  0
 28 26  1  0  0  0  0
 29 28  1  0  0  0  0
 30 29  1  0  0  0  0
 30 31  1  0  0  0  0
 32 33  1  0  0  0  0
 32 31  2  0  0  0  0
 34 32  1  0  0  0  0
 35 34  1  0  0  0  0
 36 34  1  0  0  0  0
 36 30  2  0  0  0  0
 37 28  1  0  0  0  0
 38 37  1  0  0  0  0
 38 39  2  0  0  0  0
 40 38  1  0  0  0  0
 41 40  1  0  0  0  0
 42 40  1  0  0  0  0
M  END
>  <minimizedAffinity>
-5.80550003

$$$$

 OpenBabel03252508093D

 42 45  0  0  0  0  0  0  0  0999 V2000
   41.6180   28.3480   42.4430 C   0  0  0  0  0  0  0  0  0  0  0  0
   40.4770   27.7580   41.9240 C   0  0  0  0  0  0  0  0  0  0  0  0
   40.1340   26.4790   42.2900 C   0  0  0  0  0  0  0  0  0  0  0  0
   40.9730   25.8400   43.1810 N   0  0  0  0  0  0  0  0  0  0  0  0
   42.0690   26.4120   43.6770 C   0  0  0  0  0  0  0  0  0  0  0  0
   42.3790   27.6690   43.2970 N   0  0  0  0  0  0  0  0  0  0  0  0
   41.9280   29.3600   42.1790 H   0  0  0  0  0  0  0  0  0  0  0  0
   42.7100   25.9020   44.3680 H   0  0  0  0  0  0  0  0  0  0  0  0
   39.0110   25.7410   41.8530 C   0  0  0  0  0  0  0  0  0  0  0  0
   37.7790   25.7250   42.5150 C   0  0  0  0  0  0  0  0  0  0  0  0
   36.7080   24.9600   42.1300 C   0  0  0  0  0  0  0  0  0  0  0  0
   36.8140   24.1440   41.0240 C   0  0  0  0  0  0  0  0  0  0  0  0
   38.0630   24.1480   40.3340 C   0  0  0  0  0  0  0  0  0  0  0  0
   38.1770   23.3390   39.2360 C   0  0  0  0  0  0  0  0  0  0  0  0
   39.3550   23.2950   38.5200 C   0  0  0  0  0  0  0  0  0  0  0  0
   40.4370   24.0900   38.9280 C   0  0  0  0  0  0  0  0  0  0  0  0
   40.2690   24.9040   40.0630 C   0  0  0  0  0  0  0  0  0  0  0  0
   39.0890   24.9240   40.7560 C   0  0  0  0  0  0  0  0  0  0  0  0
   37.6680   26.3560   43.3850 H   0  0  0  0  0  0  0  0  0  0  0  0
   35.7720   24.9760   42.6680 H   0  0  0  0  0  0  0  0  0  0  0  0
   36.0070   23.5180   40.6730 H   0  0  0  0  0  0  0  0  0  0  0  0
   37.3500   22.7240   38.9130 H   0  0  0  0  0  0  0  0  0  0  0  0
   39.3950   22.6370   37.6590 H   0  0  0  0  0  0  0  0  0  0  0  0
   41.3010   23.9860   38.3090 H   0  0  0  0  0  0  0  0  0  0  0  0
   41.1840   25.4400   40.1960 H   0  0  0  0  0  0  0  0  0  0  0  0
   39.7290   28.5040   41.0530 O   0  0  0  0  0  0  0  0  0  0  0  0
   37.9070   29.2960   42.7590 O   0  0  0  0  0  0  0  0  0  0  0  0
   38.6180   29.6930   41.5140 P   0  0  1  0  0  0  0  0  0  0  0  0
   39.4020   31.1590   41.8410 O   0  0  0  0  0  0  0  0  0  0  0  0
   39.6180   32.0310   40.7810 C   0  0  0  0  0  0  0  0  0  0  0  0
   40.3600   31.7140   39.6890 N   0  0  0  0  0  0  0  0  0  0  0  0
   40.3840   32.7590   38.8390 C   0  0  0  0  0  0  0  0  0  0  0  0
   40.8880   32.8280   37.8790 H   0  0  0  0  0  0  0  0  0  0  0  0
   39.6510   33.7400   39.4010 N   0  0  0  0  0  0  0  0  0  0  0  0
   39.4550   34.7090   39.0080 H   0  0  0  0  0  0  0  0  0  0  0  0
   39.2030   33.2890   40.5570 N   0  0  0  0  0  0  0  0  0  0  0  0
   37.5420   29.9290   40.2470 O   0  0  0  0  0  0  0  0  0  0  0  0
   36.5430   30.8860   40.1760 C   0  0  0  0  0  0  0  0  0  0  0  0
   36.6560   31.3800   39.0390 O   0  0  0  0  0  0  0  0  0  0  0  0
   35.7860   30.9330   41.4030 N   0  0  0  0  0  0  0  0  0  0  0  0
   35.2210   30.0760   41.6510 H   0  0  0  0  0  0  0  0  0  0  0  0
   35.7090   31.7050   42.1020 H   0  0  0  0  0  0  0  0  0  0  0  0
  1  6  1  0  0  0  0
  2  3  1  0  0  0  0
  2  1  2  0  0  0  0
  3  4  2  0  0  0  0
  4  5  1  0  0  0  0
  5  8  1  0  0  0  0
  6  5  2  0  0  0  0
  7  1  1  0  0  0  0
  9  3  1  0  0  0  0
  9 10  1  0  0  0  0
 10 19  1  0  0  0  0
 11 10  2  0  0  0  0
 11 20  1  0  0  0  0
 12 11  1  0  0  0  0
 13 18  1  0  0  0  0
 13 12  2  0  0  0  0
 14 13  1  0  0  0  0
 15 16  1  0  0  0  0
 15 14  2  0  0  0  0
 16 17  2  0  0  0  0
 17 25  1  0  0  0  0
 17 18  1  0  0  0  0
 18  9  2  0  0  0  0
 21 12  1  0  0  0  0
 22 14  1  0  0  0  0
 23 15  1  0  0  0  0
 24 16  1  0  0  0  0
 26 28  1  0  0  0  0
 26  2  1  0  0  0  0
 28 29  1  0  0  0  0
 28 27  2  1  0  0  0
 30 29  1  0  0  0  0
 31 30  1  0  0  0  0
 32 34  1  0  0  0  0
 32 31  2  0  0  0  0
 33 32  1  0  0  0  0
 34 36  1  0  0  0  0
 35 34  1  0  0  0  0
 36 30  2  0  0  0  0
 37 28  1  0  0  0  0
 38 37  1  0  0  0  0
 38 40  1  0  0  0  0
 39 38  2  0  0  0  0
 40 41  1  0  0  0  0
 40 42  1  0  0  0  0
M  END
>  <minimizedAffinity>
-5.70117378

$$$$

 OpenBabel03252508093D

 42 45  0  0  0  0  0  0  0  0999 V2000
   38.8410   28.7210   42.9390 C   0  0  0  0  0  0  0  0  0  0  0  0
   38.0430   29.1570   41.8930 C   0  0  0  0  0  0  0  0  0  0  0  0
   37.2220   28.2720   41.2370 C   0  0  0  0  0  0  0  0  0  0  0  0
   37.2420   26.9620   41.6760 N   0  0  0  0  0  0  0  0  0  0  0  0
   38.0110   26.5490   42.6820 C   0  0  0  0  0  0  0  0  0  0  0  0
   38.8070   27.4430   43.3050 N   0  0  0  0  0  0  0  0  0  0  0  0
   39.5080   29.3900   43.4870 H   0  0  0  0  0  0  0  0  0  0  0  0
   38.0140   25.5300   43.0100 H   0  0  0  0  0  0  0  0  0  0  0  0
   36.3550   28.5550   40.1590 C   0  0  0  0  0  0  0  0  0  0  0  0
   35.0310   28.9780   40.3090 C   0  0  0  0  0  0  0  0  0  0  0  0
   34.1670   29.1910   39.2650 C   0  0  0  0  0  0  0  0  0  0  0  0
   34.5960   28.9870   37.9720 C   0  0  0  0  0  0  0  0  0  0  0  0
   35.9450   28.5570   37.7970 C   0  0  0  0  0  0  0  0  0  0  0  0
   36.3780   28.3490   36.5150 C   0  0  0  0  0  0  0  0  0  0  0  0
   37.6710   27.9340   36.2730 C   0  0  0  0  0  0  0  0  0  0  0  0
   38.5400   27.7270   37.3560 C   0  0  0  0  0  0  0  0  0  0  0  0
   38.0460   27.9540   38.6530 C   0  0  0  0  0  0  0  0  0  0  0  0
   36.7570   28.3610   38.8630 C   0  0  0  0  0  0  0  0  0  0  0  0
   34.6680   29.1470   41.3130 H   0  0  0  0  0  0  0  0  0  0  0  0
   33.1510   29.5200   39.4230 H   0  0  0  0  0  0  0  0  0  0  0  0
   33.9630   29.1360   37.1100 H   0  0  0  0  0  0  0  0  0  0  0  0
   35.7170   28.5070   35.6760 H   0  0  0  0  0  0  0  0  0  0  0  0
   37.9650   27.7830   35.2410 H   0  0  0  0  0  0  0  0  0  0  0  0
   39.5170   27.4090   37.0640 H   0  0  0  0  0  0  0  0  0  0  0  0
   38.8540   27.7660   39.3270 H   0  0  0  0  0  0  0  0  0  0  0  0
   38.1150   30.4830   41.5620 O   0  0  0  0  0  0  0  0  0  0  0  0
   40.3840   31.7460   41.9060 O   0  0  0  0  0  0  0  0  0  0  0  0
   39.4630   31.2260   40.8590 P   0  0  1  0  0  0  0  0  0  0  0  0
   40.3470   30.1200   39.9290 O   0  0  0  0  0  0  0  0  0  0  0  0
   41.0110   30.6000   38.8070 C   0  0  0  0  0  0  0  0  0  0  0  0
   42.2340   31.1890   38.8540 N   0  0  0  0  0  0  0  0  0  0  0  0
   42.6130   31.5450   37.6110 C   0  0  0  0  0  0  0  0  0  0  0  0
   43.5340   32.0350   37.3080 H   0  0  0  0  0  0  0  0  0  0  0  0
   41.6220   31.1770   36.7770 N   0  0  0  0  0  0  0  0  0  0  0  0
   41.5820   31.3040   35.7210 H   0  0  0  0  0  0  0  0  0  0  0  0
   40.6770   30.6160   37.5060 N   0  0  0  0  0  0  0  0  0  0  0  0
   38.9210   32.4600   39.8570 O   0  0  0  0  0  0  0  0  0  0  0  0
   38.1580   33.5540   40.2290 C   0  0  0  0  0  0  0  0  0  0  0  0
   37.1750   33.5310   39.4650 O   0  0  0  0  0  0  0  0  0  0  0  0
   38.7760   34.2670   41.3200 N   0  0  0  0  0  0  0  0  0  0  0  0
   38.8540   33.7590   42.2420 H   0  0  0  0  0  0  0  0  0  0  0  0
   39.1680   35.2350   41.3390 H   0  0  0  0  0  0  0  0  0  0  0  0
  1  6  1  0  0  0  0
  1  7  1  0  0  0  0
  2  1  2  0  0  0  0
  3  4  2  0  0  0  0
  3  2  1  0  0  0  0
  4  5  1  0  0  0  0
  5  8  1  0  0  0  0
  5  6  2  0  0  0  0
  9 10  1  0  0  0  0
  9  3  1  0  0  0  0
 10 19  1  0  0  0  0
 11 20  1  0  0  0  0
 11 10  2  0  0  0  0
 12 11  1  0  0  0  0
 13 12  2  0  0  0  0
 13 18  1  0  0  0  0
 14 13  1  0  0  0  0
 15 14  2  0  0  0  0
 15 16  1  0  0  0  0
 16 17  2  0  0  0  0
 17 18  1  0  0  0  0
 17 25  1  0  0  0  0
 18  9  2  0  0  0  0
 21 12  1  0  0  0  0
 22 14  1  0  0  0  0
 23 15  1  0  0  0  0
 24 16  1  0  0  0  0
 26  2  1  0  0  0  0
 28 26  1  0  0  0  0
 28 27  2  1  0  0  0
 29 28  1  0  0  0  0
 30 31  1  0  0  0  0
 30 29  1  0  0  0  0
 32 31  2  0  0  0  0
 33 32  1  0  0  0  0
 34 36  1  0  0  0  0
 34 32  1  0  0  0  0
 35 34  1  0  0  0  0
 36 30  2  0  0  0  0
 37 38  1  0  0  0  0
 37 28  1  0  0  0  0
 38 40  1  0  0  0  0
 39 38  2  0  0  0  0
 40 42  1  0  0  0  0
 40 41  1  0  0  0  0
M  END
>  <minimizedAffinity>
-5.69043732

$$$$
