
 OpenBabel03242513193D

 35 38  0  0  0  0  0  0  0  0999 V2000
   39.3760   27.5120   40.2690 Cl  0  0  0  0  0  0  0  0  0  0  0  0
   38.4120   27.7250   41.7340 C   0  0  0  0  0  0  0  0  0  0  0  0
   38.5720   28.8460   42.5050 C   0  0  0  0  0  0  0  0  0  0  0  0
   37.8000   28.9720   43.6200 C   0  0  0  0  0  0  0  0  0  0  0  0
   36.8860   27.9970   43.9620 C   0  0  0  0  0  0  0  0  0  0  0  0
   36.7270   26.8650   43.1840 C   0  0  0  0  0  0  0  0  0  0  0  0
   37.5120   26.7410   42.0530 C   0  0  0  0  0  0  0  0  0  0  0  0
   37.9390   29.8690   44.2190 H   0  0  0  0  0  0  0  0  0  0  0  0
   36.3080   28.1660   44.8620 H   0  0  0  0  0  0  0  0  0  0  0  0
   36.0100   26.1490   43.4970 H   0  0  0  0  0  0  0  0  0  0  0  0
   37.2720   25.5100   41.3040 C   0  0  0  0  0  0  0  0  0  0  0  0
   37.7240   24.2210   41.5420 C   0  0  0  0  0  0  0  0  0  0  0  0
   37.2690   23.3340   40.5940 C   0  0  0  0  0  0  0  0  0  0  0  0
   36.5180   24.1530   39.7720 C   0  0  0  0  0  0  0  0  0  0  0  0
   36.5590   25.3700   40.2260 O   0  0  0  0  0  0  0  0  0  0  0  0
   38.3710   23.9560   42.3940 H   0  0  0  0  0  0  0  0  0  0  0  0
   37.4540   22.2720   40.5170 H   0  0  0  0  0  0  0  0  0  0  0  0
   35.9700   23.8330   38.8720 H   0  0  0  0  0  0  0  0  0  0  0  0
   39.5610   29.8420   42.0970 C   0  0  0  0  0  0  0  0  0  0  0  0
   40.7070   29.7560   42.5880 O   0  0  0  0  0  0  0  0  0  0  0  0
   37.5230   32.2030   40.2440 C   0  0  0  0  0  0  0  0  0  0  0  0
   38.4000   32.8710   39.3760 C   0  0  0  0  0  0  0  0  0  0  0  0
   39.7170   32.4670   39.4630 C   0  0  0  0  0  0  0  0  0  0  0  0
   40.0680   31.4850   40.3510 N   0  0  0  0  0  0  0  0  0  0  0  0
   39.1950   30.8870   41.1490 C   0  0  0  0  0  0  0  0  0  0  0  0
   37.9060   31.2560   41.0900 N   0  0  0  0  0  0  0  0  0  0  0  0
   36.4710   32.4820   40.2170 H   0  0  0  0  0  0  0  0  0  0  0  0
   38.0790   33.6320   38.6980 H   0  0  0  0  0  0  0  0  0  0  0  0
   40.7450   33.0700   38.6230 C   0  0  0  0  0  0  0  0  0  0  0  0
   41.5040   34.1370   38.9330 N   0  0  0  0  0  0  0  0  0  0  0  0
   42.3440   34.3890   37.8860 C   0  0  0  0  0  0  0  0  0  0  0  0
   43.0010   35.2190   38.0130 H   0  0  0  0  0  0  0  0  0  0  0  0
   42.0730   33.4480   36.9340 N   0  0  0  0  0  0  0  0  0  0  0  0
   42.6330   33.4860   36.0410 H   0  0  0  0  0  0  0  0  0  0  0  0
   41.0970   32.6490   37.3960 N   0  0  0  0  0  0  0  0  0  0  0  0
  1  2  1  0  0  0  0
  2  7  2  0  0  0  0
  2  3  1  0  0  0  0
  3  4  2  0  0  0  0
  4  5  1  0  0  0  0
  4  8  1  0  0  0  0
  5  9  1  0  0  0  0
  6 10  1  0  0  0  0
  6  5  2  0  0  0  0
  7  6  1  0  0  0  0
 11 12  2  0  0  0  0
 11  7  1  0  0  0  0
 12 16  1  0  0  0  0
 13 12  1  0  0  0  0
 14 15  1  0  0  0  0
 14 13  2  0  0  0  0
 15 11  1  0  0  0  0
 17 13  1  0  0  0  0
 18 14  1  0  0  0  0
 19  3  1  0  0  0  0
 19 20  2  0  0  0  0
 21 26  1  0  0  0  0
 22 23  1  0  0  0  0
 22 21  2  0  0  0  0
 23 24  2  0  0  0  0
 24 25  1  0  0  0  0
 25 19  1  0  0  0  0
 26 25  2  0  0  0  0
 27 21  1  0  0  0  0
 28 22  1  0  0  0  0
 29 30  1  0  0  0  0
 29 23  1  0  0  0  0
 31 32  1  0  0  0  0
 31 30  2  0  0  0  0
 33 35  1  0  0  0  0
 33 31  1  0  0  0  0
 34 33  1  0  0  0  0
 35 29  2  0  0  0  0
M  END
>  <minimizedAffinity>
-6.44141817

$$$$

 OpenBabel03242513193D

 35 38  0  0  0  0  0  0  0  0999 V2000
   39.9440   29.3050   40.1240 Cl  0  0  0  0  0  0  0  0  0  0  0  0
   38.1900   29.3100   40.3320 C   0  0  0  0  0  0  0  0  0  0  0  0
   37.4110   30.1510   39.5820 C   0  0  0  0  0  0  0  0  0  0  0  0
   36.0620   30.1140   39.7710 C   0  0  0  0  0  0  0  0  0  0  0  0
   35.4990   29.2540   40.6890 C   0  0  0  0  0  0  0  0  0  0  0  0
   36.2870   28.4050   41.4470 C   0  0  0  0  0  0  0  0  0  0  0  0
   37.6550   28.4460   41.2530 C   0  0  0  0  0  0  0  0  0  0  0  0
   35.4610   30.7870   39.1660 H   0  0  0  0  0  0  0  0  0  0  0  0
   34.4210   29.2800   40.7830 H   0  0  0  0  0  0  0  0  0  0  0  0
   35.7980   27.7670   42.1390 H   0  0  0  0  0  0  0  0  0  0  0  0
   38.3950   27.5180   42.1040 C   0  0  0  0  0  0  0  0  0  0  0  0
   38.8540   27.6730   43.4030 C   0  0  0  0  0  0  0  0  0  0  0  0
   39.5140   26.5530   43.8520 C   0  0  0  0  0  0  0  0  0  0  0  0
   39.4300   25.7130   42.7580 C   0  0  0  0  0  0  0  0  0  0  0  0
   38.7870   26.3150   41.8020 O   0  0  0  0  0  0  0  0  0  0  0  0
   38.7000   28.5920   43.9920 H   0  0  0  0  0  0  0  0  0  0  0  0
   39.9770   26.3790   44.8130 H   0  0  0  0  0  0  0  0  0  0  0  0
   39.8410   24.6930   42.6970 H   0  0  0  0  0  0  0  0  0  0  0  0
   38.0640   31.0470   38.6290 C   0  0  0  0  0  0  0  0  0  0  0  0
   38.0470   30.7220   37.4230 O   0  0  0  0  0  0  0  0  0  0  0  0
   38.5080   34.2440   40.2860 C   0  0  0  0  0  0  0  0  0  0  0  0
   39.8370   34.6240   40.0410 C   0  0  0  0  0  0  0  0  0  0  0  0
   40.5620   33.7290   39.2810 C   0  0  0  0  0  0  0  0  0  0  0  0
   39.9660   32.5780   38.8350 N   0  0  0  0  0  0  0  0  0  0  0  0
   38.7050   32.2690   39.0990 C   0  0  0  0  0  0  0  0  0  0  0  0
   37.9710   33.1180   39.8360 N   0  0  0  0  0  0  0  0  0  0  0  0
   37.8900   34.9130   40.8810 H   0  0  0  0  0  0  0  0  0  0  0  0
   40.2580   35.5340   40.4100 H   0  0  0  0  0  0  0  0  0  0  0  0
   41.9560   33.9870   38.9430 C   0  0  0  0  0  0  0  0  0  0  0  0
   43.0350   33.5720   39.6320 N   0  0  0  0  0  0  0  0  0  0  0  0
   44.1550   34.0180   38.9920 C   0  0  0  0  0  0  0  0  0  0  0  0
   45.0820   33.7510   39.4470 H   0  0  0  0  0  0  0  0  0  0  0  0
   43.7280   34.7140   37.8970 N   0  0  0  0  0  0  0  0  0  0  0  0
   44.4650   35.1390   37.2730 H   0  0  0  0  0  0  0  0  0  0  0  0
   42.3850   34.6870   37.8780 N   0  0  0  0  0  0  0  0  0  0  0  0
  1  2  1  0  0  0  0
  2  7  1  0  0  0  0
  3  4  1  0  0  0  0
  3  2  2  0  0  0  0
  4  5  2  0  0  0  0
  5  9  1  0  0  0  0
  5  6  1  0  0  0  0
  6 10  1  0  0  0  0
  7  6  2  0  0  0  0
  7 11  1  0  0  0  0
  8  4  1  0  0  0  0
 11 12  2  0  0  0  0
 12 13  1  0  0  0  0
 12 16  1  0  0  0  0
 13 17  1  0  0  0  0
 14 13  2  0  0  0  0
 15 11  1  0  0  0  0
 15 14  1  0  0  0  0
 18 14  1  0  0  0  0
 19 25  1  0  0  0  0
 19  3  1  0  0  0  0
 20 19  2  0  0  0  0
 21 27  1  0  0  0  0
 22 21  1  0  0  0  0
 22 28  1  0  0  0  0
 23 22  2  0  0  0  0
 24 25  2  0  0  0  0
 24 23  1  0  0  0  0
 25 26  1  0  0  0  0
 26 21  2  0  0  0  0
 29 23  1  0  0  0  0
 29 30  1  0  0  0  0
 31 32  1  0  0  0  0
 31 30  2  0  0  0  0
 33 31  1  0  0  0  0
 34 33  1  0  0  0  0
 35 33  1  0  0  0  0
 35 29  2  0  0  0  0
M  END
>  <minimizedAffinity>
-6.39347744

$$$$

 OpenBabel03242513193D

 35 38  0  0  0  0  0  0  0  0999 V2000
   36.7440   27.2220   41.0840 Cl  0  0  0  0  0  0  0  0  0  0  0  0
   37.9690   26.3500   42.0110 C   0  0  0  0  0  0  0  0  0  0  0  0
   38.6630   26.9880   43.0040 C   0  0  0  0  0  0  0  0  0  0  0  0
   39.5920   26.2730   43.6990 C   0  0  0  0  0  0  0  0  0  0  0  0
   39.8250   24.9450   43.4080 C   0  0  0  0  0  0  0  0  0  0  0  0
   39.1240   24.3020   42.4040 C   0  0  0  0  0  0  0  0  0  0  0  0
   38.1830   25.0310   41.7020 C   0  0  0  0  0  0  0  0  0  0  0  0
   40.1320   26.7950   44.4840 H   0  0  0  0  0  0  0  0  0  0  0  0
   40.5770   24.4420   44.0030 H   0  0  0  0  0  0  0  0  0  0  0  0
   39.3470   23.2800   42.2250 H   0  0  0  0  0  0  0  0  0  0  0  0
   37.5030   24.2630   40.6610 C   0  0  0  0  0  0  0  0  0  0  0  0
   37.9860   23.7760   39.4560 C   0  0  0  0  0  0  0  0  0  0  0  0
   37.0180   23.0950   38.7530 C   0  0  0  0  0  0  0  0  0  0  0  0
   35.9270   23.1970   39.5960 C   0  0  0  0  0  0  0  0  0  0  0  0
   36.2650   23.8670   40.6570 O   0  0  0  0  0  0  0  0  0  0  0  0
   39.0230   23.9250   39.1170 H   0  0  0  0  0  0  0  0  0  0  0  0
   37.0960   22.6090   37.7910 H   0  0  0  0  0  0  0  0  0  0  0  0
   34.9270   22.7790   39.4050 H   0  0  0  0  0  0  0  0  0  0  0  0
   38.3790   28.3990   43.2620 C   0  0  0  0  0  0  0  0  0  0  0  0
   37.4510   28.6680   44.0550 O   0  0  0  0  0  0  0  0  0  0  0  0
   41.2640   30.2020   42.0030 C   0  0  0  0  0  0  0  0  0  0  0  0
   40.7570   31.3500   41.3750 C   0  0  0  0  0  0  0  0  0  0  0  0
   39.3820   31.4670   41.4100 C   0  0  0  0  0  0  0  0  0  0  0  0
   38.6340   30.4990   42.0270 N   0  0  0  0  0  0  0  0  0  0  0  0
   39.1680   29.4330   42.6050 C   0  0  0  0  0  0  0  0  0  0  0  0
   40.5030   29.2880   42.5890 N   0  0  0  0  0  0  0  0  0  0  0  0
   42.3430   30.0590   42.0050 H   0  0  0  0  0  0  0  0  0  0  0  0
   41.3810   32.0790   40.9060 H   0  0  0  0  0  0  0  0  0  0  0  0
   38.7090   32.6070   40.7990 C   0  0  0  0  0  0  0  0  0  0  0  0
   39.2120   33.8470   40.6540 N   0  0  0  0  0  0  0  0  0  0  0  0
   38.2740   34.6240   40.0360 C   0  0  0  0  0  0  0  0  0  0  0  0
   38.5580   35.6380   39.8640 H   0  0  0  0  0  0  0  0  0  0  0  0
   37.1910   33.8240   39.8120 N   0  0  0  0  0  0  0  0  0  0  0  0
   36.3560   34.2590   39.3350 H   0  0  0  0  0  0  0  0  0  0  0  0
   37.4680   32.5960   40.2800 N   0  0  0  0  0  0  0  0  0  0  0  0
  1  2  1  0  0  0  0
  2  3  1  0  0  0  0
  3 19  1  0  0  0  0
  3  4  2  0  0  0  0
  4  8  1  0  0  0  0
  5  4  1  0  0  0  0
  5  9  1  0  0  0  0
  6  5  2  0  0  0  0
  7  2  2  0  0  0  0
  7  6  1  0  0  0  0
 10  6  1  0  0  0  0
 11  7  1  0  0  0  0
 12 11  2  0  0  0  0
 13 12  1  0  0  0  0
 13 14  2  0  0  0  0
 14 15  1  0  0  0  0
 15 11  1  0  0  0  0
 16 12  1  0  0  0  0
 17 13  1  0  0  0  0
 18 14  1  0  0  0  0
 19 20  2  0  0  0  0
 21 27  1  0  0  0  0
 21 26  1  0  0  0  0
 22 23  1  0  0  0  0
 22 21  2  0  0  0  0
 23 24  2  0  0  0  0
 24 25  1  0  0  0  0
 25 19  1  0  0  0  0
 26 25  2  0  0  0  0
 28 22  1  0  0  0  0
 29 23  1  0  0  0  0
 30 29  1  0  0  0  0
 31 30  2  0  0  0  0
 32 31  1  0  0  0  0
 33 31  1  0  0  0  0
 33 35  1  0  0  0  0
 34 33  1  0  0  0  0
 35 29  2  0  0  0  0
M  END
>  <minimizedAffinity>
-6.32435226

$$$$

 OpenBabel03242513193D

 35 38  0  0  0  0  0  0  0  0999 V2000
   39.8100   28.1080   43.1920 Cl  0  0  0  0  0  0  0  0  0  0  0  0
   39.0750   26.5870   42.6760 C   0  0  0  0  0  0  0  0  0  0  0  0
   37.7140   26.4840   42.5640 C   0  0  0  0  0  0  0  0  0  0  0  0
   37.1930   25.2940   42.1530 C   0  0  0  0  0  0  0  0  0  0  0  0
   38.0130   24.2260   41.8600 C   0  0  0  0  0  0  0  0  0  0  0  0
   39.3880   24.3300   41.9740 C   0  0  0  0  0  0  0  0  0  0  0  0
   39.9130   25.5390   42.3900 C   0  0  0  0  0  0  0  0  0  0  0  0
   36.1110   25.2320   42.0690 H   0  0  0  0  0  0  0  0  0  0  0  0
   37.5270   23.3130   41.5390 H   0  0  0  0  0  0  0  0  0  0  0  0
   39.9680   23.4750   41.7350 H   0  0  0  0  0  0  0  0  0  0  0  0
   41.3710   25.5440   42.4840 C   0  0  0  0  0  0  0  0  0  0  0  0
   42.3240   25.8150   41.5140 C   0  0  0  0  0  0  0  0  0  0  0  0
   43.6030   25.7130   42.0090 C   0  0  0  0  0  0  0  0  0  0  0  0
   43.3740   25.3660   43.3270 C   0  0  0  0  0  0  0  0  0  0  0  0
   42.0930   25.2860   43.5330 O   0  0  0  0  0  0  0  0  0  0  0  0
   42.0700   26.0790   40.4750 H   0  0  0  0  0  0  0  0  0  0  0  0
   44.5420   25.8640   41.4950 H   0  0  0  0  0  0  0  0  0  0  0  0
   44.1490   25.1830   44.0880 H   0  0  0  0  0  0  0  0  0  0  0  0
   36.8940   27.6480   42.8970 C   0  0  0  0  0  0  0  0  0  0  0  0
   36.4300   27.7180   44.0550 O   0  0  0  0  0  0  0  0  0  0  0  0
   35.3290   29.4110   40.1400 C   0  0  0  0  0  0  0  0  0  0  0  0
   36.0870   30.5760   39.9470 C   0  0  0  0  0  0  0  0  0  0  0  0
   37.1560   30.7180   40.8090 C   0  0  0  0  0  0  0  0  0  0  0  0
   37.3960   29.7570   41.7550 N   0  0  0  0  0  0  0  0  0  0  0  0
   36.6450   28.6740   41.8930 C   0  0  0  0  0  0  0  0  0  0  0  0
   35.5970   28.5050   41.0700 N   0  0  0  0  0  0  0  0  0  0  0  0
   34.4730   29.2480   39.4870 H   0  0  0  0  0  0  0  0  0  0  0  0
   35.8600   31.2990   39.1940 H   0  0  0  0  0  0  0  0  0  0  0  0
   38.0350   31.8780   40.7300 C   0  0  0  0  0  0  0  0  0  0  0  0
   37.9450   32.8900   39.8470 N   0  0  0  0  0  0  0  0  0  0  0  0
   38.9510   33.7760   40.1030 C   0  0  0  0  0  0  0  0  0  0  0  0
   38.9860   34.6290   39.4620 H   0  0  0  0  0  0  0  0  0  0  0  0
   39.6540   33.2760   41.1610 N   0  0  0  0  0  0  0  0  0  0  0  0
   40.4800   33.8360   41.5050 H   0  0  0  0  0  0  0  0  0  0  0  0
   39.0850   32.1190   41.5360 N   0  0  0  0  0  0  0  0  0  0  0  0
  2  1  1  0  0  0  0
  3  2  1  0  0  0  0
  3 19  1  0  0  0  0
  4  3  2  0  0  0  0
  5  6  2  0  0  0  0
  5  4  1  0  0  0  0
  6  7  1  0  0  0  0
  7 11  1  0  0  0  0
  7  2  2  0  0  0  0
  8  4  1  0  0  0  0
  9  5  1  0  0  0  0
 10  6  1  0  0  0  0
 11 15  1  0  0  0  0
 12 13  1  0  0  0  0
 12 11  2  0  0  0  0
 13 14  2  0  0  0  0
 14 15  1  0  0  0  0
 14 18  1  0  0  0  0
 16 12  1  0  0  0  0
 17 13  1  0  0  0  0
 19 20  2  0  0  0  0
 21 26  1  0  0  0  0
 22 21  2  0  0  0  0
 22 23  1  0  0  0  0
 23 24  2  0  0  0  0
 24 25  1  0  0  0  0
 25 19  1  0  0  0  0
 26 25  2  0  0  0  0
 27 21  1  0  0  0  0
 28 22  1  0  0  0  0
 29 23  1  0  0  0  0
 29 35  2  0  0  0  0
 30 31  2  0  0  0  0
 30 29  1  0  0  0  0
 31 33  1  0  0  0  0
 32 31  1  0  0  0  0
 33 34  1  0  0  0  0
 33 35  1  0  0  0  0
M  END
>  <minimizedAffinity>
-6.31991196

$$$$

 OpenBabel03242513193D

 35 38  0  0  0  0  0  0  0  0999 V2000
   36.3140   26.5360   38.6330 Cl  0  0  0  0  0  0  0  0  0  0  0  0
   36.6370   26.8990   40.3310 C   0  0  0  0  0  0  0  0  0  0  0  0
   36.2800   28.1130   40.8550 C   0  0  0  0  0  0  0  0  0  0  0  0
   36.5410   28.3450   42.1720 C   0  0  0  0  0  0  0  0  0  0  0  0
   37.1460   27.3840   42.9530 C   0  0  0  0  0  0  0  0  0  0  0  0
   37.5070   26.1580   42.4230 C   0  0  0  0  0  0  0  0  0  0  0  0
   37.2410   25.9260   41.0870 C   0  0  0  0  0  0  0  0  0  0  0  0
   36.2500   29.3130   42.5700 H   0  0  0  0  0  0  0  0  0  0  0  0
   37.3210   27.6390   43.9910 H   0  0  0  0  0  0  0  0  0  0  0  0
   37.9710   25.4580   43.0720 H   0  0  0  0  0  0  0  0  0  0  0  0
   37.6640   24.6070   40.6240 C   0  0  0  0  0  0  0  0  0  0  0  0
   38.7780   24.2380   39.8850 C   0  0  0  0  0  0  0  0  0  0  0  0
   38.8150   22.8820   39.6550 C   0  0  0  0  0  0  0  0  0  0  0  0
   37.6670   22.4520   40.2930 C   0  0  0  0  0  0  0  0  0  0  0  0
   37.0600   23.4720   40.8210 O   0  0  0  0  0  0  0  0  0  0  0  0
   39.5330   24.9580   39.5320 H   0  0  0  0  0  0  0  0  0  0  0  0
   39.5530   22.3070   39.1130 H   0  0  0  0  0  0  0  0  0  0  0  0
   37.3150   21.4100   40.3480 H   0  0  0  0  0  0  0  0  0  0  0  0
   35.6490   29.0960   39.9760 C   0  0  0  0  0  0  0  0  0  0  0  0
   34.4010   29.0980   39.9110 O   0  0  0  0  0  0  0  0  0  0  0  0
   37.3000   30.6690   37.1550 C   0  0  0  0  0  0  0  0  0  0  0  0
   38.0130   31.7550   37.6820 C   0  0  0  0  0  0  0  0  0  0  0  0
   37.8970   31.9140   39.0480 C   0  0  0  0  0  0  0  0  0  0  0  0
   37.1260   31.0400   39.7690 N   0  0  0  0  0  0  0  0  0  0  0  0
   36.4710   30.0290   39.2170 C   0  0  0  0  0  0  0  0  0  0  0  0
   36.5630   29.8470   37.8900 N   0  0  0  0  0  0  0  0  0  0  0  0
   37.3560   30.4970   36.0810 H   0  0  0  0  0  0  0  0  0  0  0  0
   38.6030   32.4110   37.0790 H   0  0  0  0  0  0  0  0  0  0  0  0
   38.5820   32.9990   39.7400 C   0  0  0  0  0  0  0  0  0  0  0  0
   39.8730   33.3500   39.5940 N   0  0  0  0  0  0  0  0  0  0  0  0
   40.1270   34.4110   40.4140 C   0  0  0  0  0  0  0  0  0  0  0  0
   41.1270   34.7830   40.3880 H   0  0  0  0  0  0  0  0  0  0  0  0
   38.9580   34.6940   41.0610 N   0  0  0  0  0  0  0  0  0  0  0  0
   38.9640   35.4970   41.7450 H   0  0  0  0  0  0  0  0  0  0  0  0
   38.0230   33.8270   40.6410 N   0  0  0  0  0  0  0  0  0  0  0  0
  1  2  1  0  0  0  0
  2  3  2  0  0  0  0
  2  7  1  0  0  0  0
  3  4  1  0  0  0  0
  4  8  1  0  0  0  0
  4  5  2  0  0  0  0
  5  9  1  0  0  0  0
  6  5  1  0  0  0  0
  6 10  1  0  0  0  0
  7  6  2  0  0  0  0
 11 15  1  0  0  0  0
 11  7  1  0  0  0  0
 12 11  2  0  0  0  0
 13 12  1  0  0  0  0
 13 14  2  0  0  0  0
 14 18  1  0  0  0  0
 14 15  1  0  0  0  0
 16 12  1  0  0  0  0
 17 13  1  0  0  0  0
 19  3  1  0  0  0  0
 20 19  2  0  0  0  0
 21 22  2  0  0  0  0
 21 26  1  0  0  0  0
 22 23  1  0  0  0  0
 23 29  1  0  0  0  0
 23 24  2  0  0  0  0
 25 24  1  0  0  0  0
 25 19  1  0  0  0  0
 26 25  2  0  0  0  0
 27 21  1  0  0  0  0
 28 22  1  0  0  0  0
 29 35  2  0  0  0  0
 30 29  1  0  0  0  0
 30 31  2  0  0  0  0
 31 33  1  0  0  0  0
 32 31  1  0  0  0  0
 33 34  1  0  0  0  0
 35 33  1  0  0  0  0
M  END
>  <minimizedAffinity>
-6.13567257

$$$$

 OpenBabel03242513193D

 35 38  0  0  0  0  0  0  0  0999 V2000
   37.7450   31.6350   37.0130 Cl  0  0  0  0  0  0  0  0  0  0  0  0
   36.8760   30.9200   38.3740 C   0  0  0  0  0  0  0  0  0  0  0  0
   36.9480   31.4970   39.6150 C   0  0  0  0  0  0  0  0  0  0  0  0
   36.2530   30.9150   40.6320 C   0  0  0  0  0  0  0  0  0  0  0  0
   35.5020   29.7800   40.4190 C   0  0  0  0  0  0  0  0  0  0  0  0
   35.4310   29.1980   39.1650 C   0  0  0  0  0  0  0  0  0  0  0  0
   36.1360   29.7900   38.1360 C   0  0  0  0  0  0  0  0  0  0  0  0
   36.3210   31.3880   41.6090 H   0  0  0  0  0  0  0  0  0  0  0  0
   34.9770   29.3750   41.2750 H   0  0  0  0  0  0  0  0  0  0  0  0
   34.8370   28.3240   39.0610 H   0  0  0  0  0  0  0  0  0  0  0  0
   36.0010   29.0970   36.8570 C   0  0  0  0  0  0  0  0  0  0  0  0
   36.8060   28.1270   36.2800 C   0  0  0  0  0  0  0  0  0  0  0  0
   36.3280   27.7250   35.0540 C   0  0  0  0  0  0  0  0  0  0  0  0
   35.1930   28.5020   34.9200 C   0  0  0  0  0  0  0  0  0  0  0  0
   35.0620   29.2560   35.9710 O   0  0  0  0  0  0  0  0  0  0  0  0
   37.7170   27.7350   36.7610 H   0  0  0  0  0  0  0  0  0  0  0  0
   36.7380   26.9910   34.3750 H   0  0  0  0  0  0  0  0  0  0  0  0
   34.5040   28.4910   34.0620 H   0  0  0  0  0  0  0  0  0  0  0  0
   37.7670   32.6950   39.7840 C   0  0  0  0  0  0  0  0  0  0  0  0
   37.2080   33.8040   39.6470 O   0  0  0  0  0  0  0  0  0  0  0  0
   40.7930   31.8410   41.5930 C   0  0  0  0  0  0  0  0  0  0  0  0
   41.8580   32.2850   40.7950 C   0  0  0  0  0  0  0  0  0  0  0  0
   41.4800   32.8890   39.6130 C   0  0  0  0  0  0  0  0  0  0  0  0
   40.1500   33.0100   39.3080 N   0  0  0  0  0  0  0  0  0  0  0  0
   39.1840   32.5710   40.1010 C   0  0  0  0  0  0  0  0  0  0  0  0
   39.5170   31.9780   41.2590 N   0  0  0  0  0  0  0  0  0  0  0  0
   41.0340   31.3560   42.5370 H   0  0  0  0  0  0  0  0  0  0  0  0
   42.8830   32.1680   41.0750 H   0  0  0  0  0  0  0  0  0  0  0  0
   42.4760   33.4020   38.6790 C   0  0  0  0  0  0  0  0  0  0  0  0
   43.8130   33.3460   38.8270 N   0  0  0  0  0  0  0  0  0  0  0  0
   44.3920   33.9340   37.7400 C   0  0  0  0  0  0  0  0  0  0  0  0
   45.4580   33.9520   37.7410 H   0  0  0  0  0  0  0  0  0  0  0  0
   43.3730   34.3490   36.9300 N   0  0  0  0  0  0  0  0  0  0  0  0
   43.6340   34.8320   36.0290 H   0  0  0  0  0  0  0  0  0  0  0  0
   42.2100   34.0180   37.5140 N   0  0  0  0  0  0  0  0  0  0  0  0
  1  2  1  0  0  0  0
  2  3  1  0  0  0  0
  3 19  1  0  0  0  0
  3  4  2  0  0  0  0
  4  8  1  0  0  0  0
  5  4  1  0  0  0  0
  5  9  1  0  0  0  0
  6  5  2  0  0  0  0
  7  2  2  0  0  0  0
  7  6  1  0  0  0  0
 10  6  1  0  0  0  0
 11  7  1  0  0  0  0
 12 16  1  0  0  0  0
 12 11  2  0  0  0  0
 13 12  1  0  0  0  0
 14 13  2  0  0  0  0
 14 15  1  0  0  0  0
 15 11  1  0  0  0  0
 17 13  1  0  0  0  0
 18 14  1  0  0  0  0
 19 25  1  0  0  0  0
 20 19  2  0  0  0  0
 21 27  1  0  0  0  0
 22 28  1  0  0  0  0
 22 21  2  0  0  0  0
 23 22  1  0  0  0  0
 24 23  2  0  0  0  0
 24 25  1  0  0  0  0
 25 26  2  0  0  0  0
 26 21  1  0  0  0  0
 29 30  1  0  0  0  0
 29 23  1  0  0  0  0
 31 32  1  0  0  0  0
 31 30  2  0  0  0  0
 33 35  1  0  0  0  0
 33 31  1  0  0  0  0
 34 33  1  0  0  0  0
 35 29  2  0  0  0  0
M  END
>  <minimizedAffinity>
-6.04011536

$$$$

 OpenBabel03242513193D

 35 38  0  0  0  0  0  0  0  0999 V2000
   39.8490   26.4260   40.7260 Cl  0  0  0  0  0  0  0  0  0  0  0  0
   38.7070   26.9930   41.9490 C   0  0  0  0  0  0  0  0  0  0  0  0
   39.0970   27.9250   42.8740 C   0  0  0  0  0  0  0  0  0  0  0  0
   38.1790   28.3400   43.7910 C   0  0  0  0  0  0  0  0  0  0  0  0
   36.8960   27.8350   43.7880 C   0  0  0  0  0  0  0  0  0  0  0  0
   36.5040   26.8930   42.8540 C   0  0  0  0  0  0  0  0  0  0  0  0
   37.4370   26.4750   41.9240 C   0  0  0  0  0  0  0  0  0  0  0  0
   38.5070   29.0810   44.5170 H   0  0  0  0  0  0  0  0  0  0  0  0
   36.2230   28.2120   44.5470 H   0  0  0  0  0  0  0  0  0  0  0  0
   35.5040   26.5410   42.9000 H   0  0  0  0  0  0  0  0  0  0  0  0
   36.9260   25.4770   40.9880 C   0  0  0  0  0  0  0  0  0  0  0  0
   36.7350   24.1140   41.1560 C   0  0  0  0  0  0  0  0  0  0  0  0
   36.2280   23.5230   40.0220 C   0  0  0  0  0  0  0  0  0  0  0  0
   36.1230   24.5990   39.1600 C   0  0  0  0  0  0  0  0  0  0  0  0
   36.5320   25.6740   39.7640 O   0  0  0  0  0  0  0  0  0  0  0  0
   36.9670   23.5830   42.0930 H   0  0  0  0  0  0  0  0  0  0  0  0
   35.9780   22.4850   39.8530 H   0  0  0  0  0  0  0  0  0  0  0  0
   35.7520   24.5590   38.1240 H   0  0  0  0  0  0  0  0  0  0  0  0
   40.4730   28.4180   42.8340 C   0  0  0  0  0  0  0  0  0  0  0  0
   41.3140   27.8480   43.5610 O   0  0  0  0  0  0  0  0  0  0  0  0
   42.4170   30.5500   40.6350 C   0  0  0  0  0  0  0  0  0  0  0  0
   41.5790   31.6250   40.3010 C   0  0  0  0  0  0  0  0  0  0  0  0
   40.3220   31.5750   40.8690 C   0  0  0  0  0  0  0  0  0  0  0  0
   39.9880   30.5270   41.6850 N   0  0  0  0  0  0  0  0  0  0  0  0
   40.8210   29.5360   41.9670 C   0  0  0  0  0  0  0  0  0  0  0  0
   42.0520   29.5540   41.4310 N   0  0  0  0  0  0  0  0  0  0  0  0
   43.4200   30.5380   40.2150 H   0  0  0  0  0  0  0  0  0  0  0  0
   41.8850   32.4220   39.6580 H   0  0  0  0  0  0  0  0  0  0  0  0
   39.3410   32.6220   40.6140 C   0  0  0  0  0  0  0  0  0  0  0  0
   39.6000   33.9280   40.4140 N   0  0  0  0  0  0  0  0  0  0  0  0
   38.4160   34.5770   40.2100 C   0  0  0  0  0  0  0  0  0  0  0  0
   38.4900   35.6270   40.0390 H   0  0  0  0  0  0  0  0  0  0  0  0
   37.4330   33.6320   40.2930 N   0  0  0  0  0  0  0  0  0  0  0  0
   36.4370   33.9530   40.1590 H   0  0  0  0  0  0  0  0  0  0  0  0
   38.0100   32.4440   40.5380 N   0  0  0  0  0  0  0  0  0  0  0  0
  1  2  1  0  0  0  0
  2  3  1  0  0  0  0
  3  4  2  0  0  0  0
  4  8  1  0  0  0  0
  5  4  1  0  0  0  0
  5  9  1  0  0  0  0
  6 10  1  0  0  0  0
  6  5  2  0  0  0  0
  7  2  2  0  0  0  0
  7  6  1  0  0  0  0
 11 12  2  0  0  0  0
 11  7  1  0  0  0  0
 12 16  1  0  0  0  0
 13 12  1  0  0  0  0
 14 15  1  0  0  0  0
 14 13  2  0  0  0  0
 15 11  1  0  0  0  0
 17 13  1  0  0  0  0
 18 14  1  0  0  0  0
 19  3  1  0  0  0  0
 19 20  2  0  0  0  0
 21 26  1  0  0  0  0
 22 21  2  0  0  0  0
 22 23  1  0  0  0  0
 23 24  2  0  0  0  0
 24 25  1  0  0  0  0
 25 19  1  0  0  0  0
 26 25  2  0  0  0  0
 27 21  1  0  0  0  0
 28 22  1  0  0  0  0
 29 23  1  0  0  0  0
 30 29  1  0  0  0  0
 31 33  1  0  0  0  0
 31 30  2  0  0  0  0
 32 31  1  0  0  0  0
 33 35  1  0  0  0  0
 34 33  1  0  0  0  0
 35 29  2  0  0  0  0
M  END
>  <minimizedAffinity>
-6.0247364

$$$$

 OpenBabel03242513193D

 35 38  0  0  0  0  0  0  0  0999 V2000
   39.0140   30.1720   42.9130 Cl  0  0  0  0  0  0  0  0  0  0  0  0
   37.7170   29.8630   41.7550 C   0  0  0  0  0  0  0  0  0  0  0  0
   36.9280   28.7510   41.8870 C   0  0  0  0  0  0  0  0  0  0  0  0
   35.9340   28.5590   40.9750 C   0  0  0  0  0  0  0  0  0  0  0  0
   35.7300   29.4580   39.9500 C   0  0  0  0  0  0  0  0  0  0  0  0
   36.5290   30.5800   39.8170 C   0  0  0  0  0  0  0  0  0  0  0  0
   37.5350   30.7720   40.7440 C   0  0  0  0  0  0  0  0  0  0  0  0
   35.3170   27.6720   41.0970 H   0  0  0  0  0  0  0  0  0  0  0  0
   34.9210   29.2390   39.2640 H   0  0  0  0  0  0  0  0  0  0  0  0
   36.3250   31.2360   39.0080 H   0  0  0  0  0  0  0  0  0  0  0  0
   38.3230   31.9800   40.5120 C   0  0  0  0  0  0  0  0  0  0  0  0
   39.6410   32.1190   40.1040 C   0  0  0  0  0  0  0  0  0  0  0  0
   40.0100   33.4400   40.0030 C   0  0  0  0  0  0  0  0  0  0  0  0
   38.8490   34.0920   40.3720 C   0  0  0  0  0  0  0  0  0  0  0  0
   37.9320   33.2130   40.6480 O   0  0  0  0  0  0  0  0  0  0  0  0
   40.3000   31.2620   39.8890 H   0  0  0  0  0  0  0  0  0  0  0  0
   40.9640   33.8560   39.7110 H   0  0  0  0  0  0  0  0  0  0  0  0
   38.7130   35.1830   40.4270 H   0  0  0  0  0  0  0  0  0  0  0  0
   37.1960   27.8290   42.9890 C   0  0  0  0  0  0  0  0  0  0  0  0
   36.5600   27.9940   44.0520 O   0  0  0  0  0  0  0  0  0  0  0  0
   40.1440   25.7910   43.5530 C   0  0  0  0  0  0  0  0  0  0  0  0
   40.0970   24.7700   42.5920 C   0  0  0  0  0  0  0  0  0  0  0  0
   39.0060   24.8220   41.7480 C   0  0  0  0  0  0  0  0  0  0  0  0
   38.0810   25.8220   41.8960 N   0  0  0  0  0  0  0  0  0  0  0  0
   38.1760   26.7630   42.8250 C   0  0  0  0  0  0  0  0  0  0  0  0
   39.2250   26.7410   43.6630 N   0  0  0  0  0  0  0  0  0  0  0  0
   40.9840   25.7980   44.2460 H   0  0  0  0  0  0  0  0  0  0  0  0
   40.8440   24.0100   42.5150 H   0  0  0  0  0  0  0  0  0  0  0  0
   38.8210   23.8290   40.6980 C   0  0  0  0  0  0  0  0  0  0  0  0
   39.4990   23.7580   39.5370 N   0  0  0  0  0  0  0  0  0  0  0  0
   39.0310   22.6880   38.8290 C   0  0  0  0  0  0  0  0  0  0  0  0
   39.4940   22.5260   37.8810 H   0  0  0  0  0  0  0  0  0  0  0  0
   38.0520   22.1140   39.5880 N   0  0  0  0  0  0  0  0  0  0  0  0
   37.5690   21.2620   39.1960 H   0  0  0  0  0  0  0  0  0  0  0  0
   37.9340   22.8180   40.7260 N   0  0  0  0  0  0  0  0  0  0  0  0
  2  3  1  0  0  0  0
  2  1  1  0  0  0  0
  3 19  1  0  0  0  0
  4  8  1  0  0  0  0
  4  3  2  0  0  0  0
  5  4  1  0  0  0  0
  6  5  2  0  0  0  0
  6  7  1  0  0  0  0
  7  2  2  0  0  0  0
  9  5  1  0  0  0  0
 10  6  1  0  0  0  0
 11 15  1  0  0  0  0
 11  7  1  0  0  0  0
 12 11  2  0  0  0  0
 13 12  1  0  0  0  0
 13 14  2  0  0  0  0
 14 18  1  0  0  0  0
 14 15  1  0  0  0  0
 16 12  1  0  0  0  0
 17 13  1  0  0  0  0
 19 20  2  0  0  0  0
 21 26  1  0  0  0  0
 21 27  1  0  0  0  0
 22 21  2  0  0  0  0
 23 24  2  0  0  0  0
 23 22  1  0  0  0  0
 24 25  1  0  0  0  0
 25 19  1  0  0  0  0
 25 26  2  0  0  0  0
 28 22  1  0  0  0  0
 29 35  2  0  0  0  0
 29 23  1  0  0  0  0
 30 29  1  0  0  0  0
 31 30  2  0  0  0  0
 31 33  1  0  0  0  0
 32 31  1  0  0  0  0
 33 35  1  0  0  0  0
 34 33  1  0  0  0  0
M  END
>  <minimizedAffinity>
-6.00352716

$$$$

 OpenBabel03242513193D

 35 38  0  0  0  0  0  0  0  0999 V2000
   36.8680   26.3450   40.9330 Cl  0  0  0  0  0  0  0  0  0  0  0  0
   38.2380   26.1370   42.0280 C   0  0  0  0  0  0  0  0  0  0  0  0
   38.4400   27.0240   43.0520 C   0  0  0  0  0  0  0  0  0  0  0  0
   39.5040   26.8180   43.8770 C   0  0  0  0  0  0  0  0  0  0  0  0
   40.3520   25.7480   43.6850 C   0  0  0  0  0  0  0  0  0  0  0  0
   40.1470   24.8530   42.6500 C   0  0  0  0  0  0  0  0  0  0  0  0
   39.0670   25.0650   41.8150 C   0  0  0  0  0  0  0  0  0  0  0  0
   39.6480   27.5320   44.6850 H   0  0  0  0  0  0  0  0  0  0  0  0
   41.1760   25.6490   44.3810 H   0  0  0  0  0  0  0  0  0  0  0  0
   40.8330   24.0490   42.5510 H   0  0  0  0  0  0  0  0  0  0  0  0
   38.9420   24.0700   40.7530 C   0  0  0  0  0  0  0  0  0  0  0  0
   38.1460   22.9370   40.6840 C   0  0  0  0  0  0  0  0  0  0  0  0
   38.3220   22.2570   39.5010 C   0  0  0  0  0  0  0  0  0  0  0  0
   39.2650   23.0380   38.8600 C   0  0  0  0  0  0  0  0  0  0  0  0
   39.5750   24.0470   39.6180 O   0  0  0  0  0  0  0  0  0  0  0  0
   37.4590   22.6310   41.4900 H   0  0  0  0  0  0  0  0  0  0  0  0
   37.8450   21.3470   39.1650 H   0  0  0  0  0  0  0  0  0  0  0  0
   39.6920   22.8420   37.8640 H   0  0  0  0  0  0  0  0  0  0  0  0
   37.5130   28.1450   43.2010 C   0  0  0  0  0  0  0  0  0  0  0  0
   36.6070   28.0380   44.0550 O   0  0  0  0  0  0  0  0  0  0  0  0
   36.6840   30.8340   40.9120 C   0  0  0  0  0  0  0  0  0  0  0  0
   37.8580   31.5880   40.7610 C   0  0  0  0  0  0  0  0  0  0  0  0
   38.9390   31.1230   41.4830 C   0  0  0  0  0  0  0  0  0  0  0  0
   38.8020   30.0070   42.2650 N   0  0  0  0  0  0  0  0  0  0  0  0
   37.6660   29.3330   42.3710 C   0  0  0  0  0  0  0  0  0  0  0  0
   36.5950   29.7580   41.6820 N   0  0  0  0  0  0  0  0  0  0  0  0
   35.8000   31.1560   40.3650 H   0  0  0  0  0  0  0  0  0  0  0  0
   37.9160   32.4540   40.1380 H   0  0  0  0  0  0  0  0  0  0  0  0
   40.2270   31.8020   41.4280 C   0  0  0  0  0  0  0  0  0  0  0  0
   41.3380   31.4650   42.1100 N   0  0  0  0  0  0  0  0  0  0  0  0
   42.3290   32.3460   41.7840 C   0  0  0  0  0  0  0  0  0  0  0  0
   43.2660   32.1820   42.2660 H   0  0  0  0  0  0  0  0  0  0  0  0
   41.7910   33.2250   40.8880 N   0  0  0  0  0  0  0  0  0  0  0  0
   42.4190   33.9880   40.5190 H   0  0  0  0  0  0  0  0  0  0  0  0
   40.5090   32.8820   40.6780 N   0  0  0  0  0  0  0  0  0  0  0  0
  1  2  1  0  0  0  0
  2  3  1  0  0  0  0
  3 19  1  0  0  0  0
  3  4  2  0  0  0  0
  4  8  1  0  0  0  0
  5  4  1  0  0  0  0
  5  9  1  0  0  0  0
  6  5  2  0  0  0  0
  7  2  2  0  0  0  0
  7  6  1  0  0  0  0
 10  6  1  0  0  0  0
 11  7  1  0  0  0  0
 12 11  2  0  0  0  0
 12 16  1  0  0  0  0
 13 12  1  0  0  0  0
 14 13  2  0  0  0  0
 14 15  1  0  0  0  0
 15 11  1  0  0  0  0
 17 13  1  0  0  0  0
 18 14  1  0  0  0  0
 19 20  2  0  0  0  0
 21 26  1  0  0  0  0
 22 21  2  0  0  0  0
 22 23  1  0  0  0  0
 23 24  2  0  0  0  0
 24 25  1  0  0  0  0
 25 19  1  0  0  0  0
 26 25  2  0  0  0  0
 27 21  1  0  0  0  0
 28 22  1  0  0  0  0
 29 23  1  0  0  0  0
 29 30  1  0  0  0  0
 31 30  2  0  0  0  0
 31 32  1  0  0  0  0
 33 31  1  0  0  0  0
 34 33  1  0  0  0  0
 35 33  1  0  0  0  0
 35 29  2  0  0  0  0
M  END
>  <minimizedAffinity>
-5.96824026

$$$$
