
 OpenBabel03252505593D

 34 36  0  0  0  0  0  0  0  0999 V2000
   36.5270   31.3910   40.5670 C   0  0  0  0  0  0  0  0  0  0  0  0
   37.8580   31.7800   40.7510 C   0  0  0  0  0  0  0  0  0  0  0  0
   38.6880   30.8600   41.3960 C   0  0  0  0  0  0  0  0  0  0  0  0
   38.2250   29.6830   41.8080 N   0  0  0  0  0  0  0  0  0  0  0  0
   36.9250   29.3470   41.6080 C   0  0  0  0  0  0  0  0  0  0  0  0
   36.0850   30.1960   40.9930 N   0  0  0  0  0  0  0  0  0  0  0  0
   35.8370   32.0640   40.0740 H   0  0  0  0  0  0  0  0  0  0  0  0
   40.0840   31.2290   41.6050 C   0  0  0  0  0  0  0  0  0  0  0  0
   41.1940   31.4930   40.8760 N   0  0  0  0  0  0  0  0  0  0  0  0
   42.1810   31.7780   41.7730 C   0  0  0  0  0  0  0  0  0  0  0  0
   43.2050   32.0340   41.5030 H   0  0  0  0  0  0  0  0  0  0  0  0
   41.6970   31.6950   43.0310 N   0  0  0  0  0  0  0  0  0  0  0  0
   42.2790   31.8750   43.8830 H   0  0  0  0  0  0  0  0  0  0  0  0
   40.4120   31.3580   42.9160 N   0  0  0  0  0  0  0  0  0  0  0  0
   38.3160   33.1140   40.2660 C   0  0  0  0  0  0  0  0  0  0  0  0
   37.1520   33.7320   39.8470 F   0  0  0  0  0  0  0  0  0  0  0  0
   39.1180   32.8650   39.1530 F   0  0  0  0  0  0  0  0  0  0  0  0
   38.9440   33.7760   41.2590 F   0  0  0  0  0  0  0  0  0  0  0  0
   36.3860   28.1350   42.0160 O   0  0  0  0  0  0  0  0  0  0  0  0
   36.8470   27.4940   43.1860 C   0  0  0  0  0  0  0  0  0  0  0  0
   35.9720   27.0320   43.6900 H   0  0  0  0  0  0  0  0  0  0  0  0
   37.3500   28.1980   43.8750 H   0  0  0  0  0  0  0  0  0  0  0  0
   37.7640   26.4270   42.7820 C   0  0  0  0  0  0  0  0  0  0  0  0
   39.0900   26.2020   43.1380 C   0  0  0  0  0  0  0  0  0  0  0  0
   39.7160   25.1130   42.6040 C   0  0  0  0  0  0  0  0  0  0  0  0
   39.1090   24.2740   41.7680 N   0  0  0  0  0  0  0  0  0  0  0  0
   37.8290   24.4990   41.4320 C   0  0  0  0  0  0  0  0  0  0  0  0
   37.1380   25.5730   41.9280 N   0  0  0  0  0  0  0  0  0  0  0  0
   39.4310   26.9640   43.8140 H   0  0  0  0  0  0  0  0  0  0  0  0
   40.7510   25.0100   42.9320 H   0  0  0  0  0  0  0  0  0  0  0  0
   37.2410   23.5110   40.4980 C   0  0  0  0  0  0  0  0  0  0  0  0
   37.6610   22.2350   40.7930 F   0  0  0  0  0  0  0  0  0  0  0  0
   37.6130   23.8010   39.1740 F   0  0  0  0  0  0  0  0  0  0  0  0
   35.8610   23.5180   40.5420 F   0  0  0  0  0  0  0  0  0  0  0  0
  1  2  2  0  0  0  0
  1  6  1  0  0  0  0
  2  3  1  0  0  0  0
  3  8  1  0  0  0  0
  3  4  2  0  0  0  0
  5  4  1  0  0  0  0
  5 19  1  0  0  0  0
  6  5  2  0  0  0  0
  7  1  1  0  0  0  0
  8 14  2  0  0  0  0
  9  8  1  0  0  0  0
  9 10  2  0  0  0  0
 10 12  1  0  0  0  0
 11 10  1  0  0  0  0
 12 13  1  0  0  0  0
 14 12  1  0  0  0  0
 15  2  1  0  0  0  0
 15 18  1  0  0  0  0
 16 15  1  0  0  0  0
 17 15  1  0  0  0  0
 19 20  1  0  0  0  0
 20 21  1  0  0  0  0
 20 22  1  0  0  0  0
 23 24  1  0  0  0  0
 23 20  1  0  0  0  0
 24 29  1  0  0  0  0
 25 30  1  0  0  0  0
 25 24  2  0  0  0  0
 26 25  1  0  0  0  0
 27 26  2  0  0  0  0
 27 28  1  0  0  0  0
 28 23  2  0  0  0  0
 31 34  1  0  0  0  0
 31 32  1  0  0  0  0
 31 27  1  0  0  0  0
 33 31  1  0  0  0  0
M  END
>  <minimizedAffinity>
-5.9165678

$$$$

 OpenBabel03252505593D

 34 36  0  0  0  0  0  0  0  0999 V2000
   36.9870   30.7560   40.6620 C   0  0  0  0  0  0  0  0  0  0  0  0
   37.9610   31.6710   40.2470 C   0  0  0  0  0  0  0  0  0  0  0  0
   39.1360   31.7090   40.9990 C   0  0  0  0  0  0  0  0  0  0  0  0
   39.3080   30.9120   42.0500 N   0  0  0  0  0  0  0  0  0  0  0  0
   38.3370   30.0380   42.4180 C   0  0  0  0  0  0  0  0  0  0  0  0
   37.1870   29.9630   41.7290 N   0  0  0  0  0  0  0  0  0  0  0  0
   36.0550   30.6830   40.1170 H   0  0  0  0  0  0  0  0  0  0  0  0
   40.1760   32.6500   40.5960 C   0  0  0  0  0  0  0  0  0  0  0  0
   40.4090   33.9830   40.6030 N   0  0  0  0  0  0  0  0  0  0  0  0
   41.6410   34.1590   40.0440 C   0  0  0  0  0  0  0  0  0  0  0  0
   42.1220   35.1260   39.9030 H   0  0  0  0  0  0  0  0  0  0  0  0
   42.1620   32.9630   39.6980 N   0  0  0  0  0  0  0  0  0  0  0  0
   43.1030   32.8550   39.2510 H   0  0  0  0  0  0  0  0  0  0  0  0
   41.2570   32.0450   40.0400 N   0  0  0  0  0  0  0  0  0  0  0  0
   37.7060   32.5370   39.0590 C   0  0  0  0  0  0  0  0  0  0  0  0
   37.3970   33.7690   39.6050 F   0  0  0  0  0  0  0  0  0  0  0  0
   36.5670   32.0200   38.4430 F   0  0  0  0  0  0  0  0  0  0  0  0
   38.7960   32.5630   38.2650 F   0  0  0  0  0  0  0  0  0  0  0  0
   38.4610   29.1840   43.5050 O   0  0  0  0  0  0  0  0  0  0  0  0
   37.5840   28.0910   43.6700 C   0  0  0  0  0  0  0  0  0  0  0  0
   36.7360   28.2220   42.9650 H   0  0  0  0  0  0  0  0  0  0  0  0
   37.2030   28.0150   44.7060 H   0  0  0  0  0  0  0  0  0  0  0  0
   38.3090   26.8740   43.3000 C   0  0  0  0  0  0  0  0  0  0  0  0
   39.5740   26.4330   43.6760 C   0  0  0  0  0  0  0  0  0  0  0  0
   40.0080   25.2420   43.1730 C   0  0  0  0  0  0  0  0  0  0  0  0
   39.2740   24.5000   42.3470 N   0  0  0  0  0  0  0  0  0  0  0  0
   38.0540   24.9340   41.9900 C   0  0  0  0  0  0  0  0  0  0  0  0
   37.5530   26.1200   42.4560 N   0  0  0  0  0  0  0  0  0  0  0  0
   40.0340   27.1410   44.3410 H   0  0  0  0  0  0  0  0  0  0  0  0
   41.0070   24.9700   43.5160 H   0  0  0  0  0  0  0  0  0  0  0  0
   37.3140   24.0400   41.0700 C   0  0  0  0  0  0  0  0  0  0  0  0
   35.9840   23.9600   41.4140 F   0  0  0  0  0  0  0  0  0  0  0  0
   37.8540   22.7420   41.1000 F   0  0  0  0  0  0  0  0  0  0  0  0
   37.3820   24.4760   39.7620 F   0  0  0  0  0  0  0  0  0  0  0  0
  1  6  1  0  0  0  0
  2  1  2  0  0  0  0
  2  3  1  0  0  0  0
  3  4  2  0  0  0  0
  4  5  1  0  0  0  0
  5 19  1  0  0  0  0
  6  5  2  0  0  0  0
  7  1  1  0  0  0  0
  8  9  1  0  0  0  0
  8  3  1  0  0  0  0
 10  9  2  0  0  0  0
 11 10  1  0  0  0  0
 12 14  1  0  0  0  0
 12 10  1  0  0  0  0
 13 12  1  0  0  0  0
 14  8  2  0  0  0  0
 15 16  1  0  0  0  0
 15  2  1  0  0  0  0
 17 15  1  0  0  0  0
 18 15  1  0  0  0  0
 19 20  1  0  0  0  0
 20 22  1  0  0  0  0
 21 20  1  0  0  0  0
 23 20  1  0  0  0  0
 23 24  1  0  0  0  0
 24 29  1  0  0  0  0
 25 30  1  0  0  0  0
 25 24  2  0  0  0  0
 26 25  1  0  0  0  0
 27 26  2  0  0  0  0
 27 28  1  0  0  0  0
 28 23  2  0  0  0  0
 31 33  1  0  0  0  0
 31 32  1  0  0  0  0
 31 27  1  0  0  0  0
 34 31  1  0  0  0  0
M  END
>  <minimizedAffinity>
-5.79800034

$$$$

 OpenBabel03252505593D

 34 36  0  0  0  0  0  0  0  0999 V2000
   36.5140   31.4260   40.3740 C   0  0  0  0  0  0  0  0  0  0  0  0
   37.8450   31.7780   40.6290 C   0  0  0  0  0  0  0  0  0  0  0  0
   38.6220   30.8240   41.2870 C   0  0  0  0  0  0  0  0  0  0  0  0
   38.1140   29.6480   41.6480 N   0  0  0  0  0  0  0  0  0  0  0  0
   36.8170   29.3490   41.3810 C   0  0  0  0  0  0  0  0  0  0  0  0
   36.0260   30.2310   40.7500 N   0  0  0  0  0  0  0  0  0  0  0  0
   35.8640   32.1260   39.8670 H   0  0  0  0  0  0  0  0  0  0  0  0
   40.0160   31.1530   41.5680 C   0  0  0  0  0  0  0  0  0  0  0  0
   41.1780   31.3400   40.9020 N   0  0  0  0  0  0  0  0  0  0  0  0
   42.1170   31.6370   41.8460 C   0  0  0  0  0  0  0  0  0  0  0  0
   43.1650   31.8430   41.6310 H   0  0  0  0  0  0  0  0  0  0  0  0
   41.5510   31.6350   43.0720 N   0  0  0  0  0  0  0  0  0  0  0  0
   42.0840   31.8380   43.9500 H   0  0  0  0  0  0  0  0  0  0  0  0
   40.2640   31.3380   42.8910 N   0  0  0  0  0  0  0  0  0  0  0  0
   38.3540   33.1120   40.1980 C   0  0  0  0  0  0  0  0  0  0  0  0
   37.2260   33.7670   39.7400 F   0  0  0  0  0  0  0  0  0  0  0  0
   39.2020   32.8700   39.1180 F   0  0  0  0  0  0  0  0  0  0  0  0
   38.9500   33.7350   41.2350 F   0  0  0  0  0  0  0  0  0  0  0  0
   36.2330   28.1400   41.7330 O   0  0  0  0  0  0  0  0  0  0  0  0
   36.6380   27.4510   42.8960 C   0  0  0  0  0  0  0  0  0  0  0  0
   35.7260   27.1700   43.4630 H   0  0  0  0  0  0  0  0  0  0  0  0
   37.3030   28.0640   43.5330 H   0  0  0  0  0  0  0  0  0  0  0  0
   37.3170   26.2240   42.4760 C   0  0  0  0  0  0  0  0  0  0  0  0
   36.7910   25.0100   42.0460 C   0  0  0  0  0  0  0  0  0  0  0  0
   37.6690   24.0190   41.7120 C   0  0  0  0  0  0  0  0  0  0  0  0
   38.9890   24.1750   41.7830 N   0  0  0  0  0  0  0  0  0  0  0  0
   39.4860   25.3500   42.1990 C   0  0  0  0  0  0  0  0  0  0  0  0
   38.6660   26.3890   42.5510 N   0  0  0  0  0  0  0  0  0  0  0  0
   35.7180   25.0460   42.0450 H   0  0  0  0  0  0  0  0  0  0  0  0
   37.1760   23.1020   41.3860 H   0  0  0  0  0  0  0  0  0  0  0  0
   40.9650   25.4260   42.2440 C   0  0  0  0  0  0  0  0  0  0  0  0
   41.4690   24.7090   43.3040 F   0  0  0  0  0  0  0  0  0  0  0  0
   41.3860   26.7610   42.3760 F   0  0  0  0  0  0  0  0  0  0  0  0
   41.5420   24.9320   41.0910 F   0  0  0  0  0  0  0  0  0  0  0  0
  1  2  2  0  0  0  0
  1  6  1  0  0  0  0
  2  3  1  0  0  0  0
  3  8  1  0  0  0  0
  3  4  2  0  0  0  0
  5  4  1  0  0  0  0
  5 19  1  0  0  0  0
  6  5  2  0  0  0  0
  7  1  1  0  0  0  0
  8 14  2  0  0  0  0
  9  8  1  0  0  0  0
  9 10  2  0  0  0  0
 10 12  1  0  0  0  0
 11 10  1  0  0  0  0
 12 13  1  0  0  0  0
 14 12  1  0  0  0  0
 15  2  1  0  0  0  0
 15 18  1  0  0  0  0
 16 15  1  0  0  0  0
 17 15  1  0  0  0  0
 19 20  1  0  0  0  0
 20 21  1  0  0  0  0
 20 22  1  0  0  0  0
 23 28  1  0  0  0  0
 23 20  1  0  0  0  0
 24 23  2  0  0  0  0
 25 26  2  0  0  0  0
 25 24  1  0  0  0  0
 26 27  1  0  0  0  0
 27 31  1  0  0  0  0
 27 28  2  0  0  0  0
 29 24  1  0  0  0  0
 30 25  1  0  0  0  0
 31 33  1  0  0  0  0
 31 32  1  0  0  0  0
 34 31  1  0  0  0  0
M  END
>  <minimizedAffinity>
-5.77515411

$$$$

 OpenBabel03252505593D

 34 36  0  0  0  0  0  0  0  0999 V2000
   39.0240   31.6020   38.2750 C   0  0  0  0  0  0  0  0  0  0  0  0
   40.1540   32.1730   38.8710 C   0  0  0  0  0  0  0  0  0  0  0  0
   40.0740   32.4180   40.2420 C   0  0  0  0  0  0  0  0  0  0  0  0
   38.9760   32.1220   40.9330 N   0  0  0  0  0  0  0  0  0  0  0  0
   37.9020   31.5690   40.3150 C   0  0  0  0  0  0  0  0  0  0  0  0
   37.9280   31.3120   38.9970 N   0  0  0  0  0  0  0  0  0  0  0  0
   39.0290   31.3890   37.2140 H   0  0  0  0  0  0  0  0  0  0  0  0
   41.2340   33.0120   40.9000 C   0  0  0  0  0  0  0  0  0  0  0  0
   41.9470   34.1610   40.8770 N   0  0  0  0  0  0  0  0  0  0  0  0
   42.9420   34.0130   41.7980 C   0  0  0  0  0  0  0  0  0  0  0  0
   43.6930   34.7680   42.0220 H   0  0  0  0  0  0  0  0  0  0  0  0
   42.8490   32.7980   42.3820 N   0  0  0  0  0  0  0  0  0  0  0  0
   43.5100   32.4660   43.1230 H   0  0  0  0  0  0  0  0  0  0  0  0
   41.7990   32.1940   41.8250 N   0  0  0  0  0  0  0  0  0  0  0  0
   41.3540   32.4810   38.0400 C   0  0  0  0  0  0  0  0  0  0  0  0
   41.3430   33.8610   37.9390 F   0  0  0  0  0  0  0  0  0  0  0  0
   41.1020   31.9360   36.7820 F   0  0  0  0  0  0  0  0  0  0  0  0
   42.4640   31.9990   38.6360 F   0  0  0  0  0  0  0  0  0  0  0  0
   36.7310   31.2390   40.9840 O   0  0  0  0  0  0  0  0  0  0  0  0
   36.1200   29.9810   40.7960 C   0  0  0  0  0  0  0  0  0  0  0  0
   36.2890   29.6720   39.7430 H   0  0  0  0  0  0  0  0  0  0  0  0
   35.0340   30.0100   41.0090 H   0  0  0  0  0  0  0  0  0  0  0  0
   36.7900   29.0200   41.6730 C   0  0  0  0  0  0  0  0  0  0  0  0
   37.5070   29.2260   42.8480 C   0  0  0  0  0  0  0  0  0  0  0  0
   38.0340   28.1330   43.4710 C   0  0  0  0  0  0  0  0  0  0  0  0
   37.8870   26.8970   42.9990 N   0  0  0  0  0  0  0  0  0  0  0  0
   37.1930   26.7090   41.8660 C   0  0  0  0  0  0  0  0  0  0  0  0
   36.6370   27.7590   41.1860 N   0  0  0  0  0  0  0  0  0  0  0  0
   37.5340   30.2720   43.0910 H   0  0  0  0  0  0  0  0  0  0  0  0
   38.5800   28.3800   44.3820 H   0  0  0  0  0  0  0  0  0  0  0  0
   37.0840   25.2990   41.4220 C   0  0  0  0  0  0  0  0  0  0  0  0
   38.3240   24.7580   41.1720 F   0  0  0  0  0  0  0  0  0  0  0  0
   36.3200   25.2100   40.2450 F   0  0  0  0  0  0  0  0  0  0  0  0
   36.4640   24.5080   42.3680 F   0  0  0  0  0  0  0  0  0  0  0  0
  1  2  2  0  0  0  0
  1  6  1  0  0  0  0
  2  3  1  0  0  0  0
  3  8  1  0  0  0  0
  3  4  2  0  0  0  0
  5  4  1  0  0  0  0
  5 19  1  0  0  0  0
  6  5  2  0  0  0  0
  7  1  1  0  0  0  0
  8 14  2  0  0  0  0
  9  8  1  0  0  0  0
  9 10  2  0  0  0  0
 10 11  1  0  0  0  0
 10 12  1  0  0  0  0
 12 13  1  0  0  0  0
 14 12  1  0  0  0  0
 15 18  1  0  0  0  0
 15  2  1  0  0  0  0
 16 15  1  0  0  0  0
 17 15  1  0  0  0  0
 20 19  1  0  0  0  0
 20 22  1  0  0  0  0
 20 23  1  0  0  0  0
 21 20  1  0  0  0  0
 23 24  1  0  0  0  0
 24 29  1  0  0  0  0
 24 25  2  0  0  0  0
 25 30  1  0  0  0  0
 26 25  1  0  0  0  0
 27 26  2  0  0  0  0
 28 23  2  0  0  0  0
 28 27  1  0  0  0  0
 31 27  1  0  0  0  0
 31 34  1  0  0  0  0
 32 31  1  0  0  0  0
 33 31  1  0  0  0  0
M  END
>  <minimizedAffinity>
-5.73468018

$$$$

 OpenBabel03252505593D

 34 36  0  0  0  0  0  0  0  0999 V2000
   36.4620   29.7070   39.8470 C   0  0  0  0  0  0  0  0  0  0  0  0
   37.4350   30.3010   39.0360 C   0  0  0  0  0  0  0  0  0  0  0  0
   38.6500   30.6110   39.6510 C   0  0  0  0  0  0  0  0  0  0  0  0
   38.8570   30.3500   40.9390 N   0  0  0  0  0  0  0  0  0  0  0  0
   37.8850   29.7730   41.6890 C   0  0  0  0  0  0  0  0  0  0  0  0
   36.6980   29.4550   41.1460 N   0  0  0  0  0  0  0  0  0  0  0  0
   35.5010   29.4460   39.4250 H   0  0  0  0  0  0  0  0  0  0  0  0
   39.6900   31.2300   38.8370 C   0  0  0  0  0  0  0  0  0  0  0  0
   40.6730   30.8660   37.9810 N   0  0  0  0  0  0  0  0  0  0  0  0
   41.2780   32.0210   37.5790 C   0  0  0  0  0  0  0  0  0  0  0  0
   42.1150   32.0700   36.8840 H   0  0  0  0  0  0  0  0  0  0  0  0
   40.6840   33.0800   38.1710 N   0  0  0  0  0  0  0  0  0  0  0  0
   40.9820   34.0700   38.0090 H   0  0  0  0  0  0  0  0  0  0  0  0
   39.7120   32.5840   38.9380 N   0  0  0  0  0  0  0  0  0  0  0  0
   37.1400   30.5670   37.5980 C   0  0  0  0  0  0  0  0  0  0  0  0
   35.8840   30.0220   37.4100 F   0  0  0  0  0  0  0  0  0  0  0  0
   38.0670   29.8220   36.8700 F   0  0  0  0  0  0  0  0  0  0  0  0
   37.1890   31.8930   37.3550 F   0  0  0  0  0  0  0  0  0  0  0  0
   38.0440   29.4780   43.0360 O   0  0  0  0  0  0  0  0  0  0  0  0
   37.4420   28.3340   43.6040 C   0  0  0  0  0  0  0  0  0  0  0  0
   36.4460   28.2020   43.1310 H   0  0  0  0  0  0  0  0  0  0  0  0
   37.3300   28.4240   44.7010 H   0  0  0  0  0  0  0  0  0  0  0  0
   38.2720   27.1760   43.2650 C   0  0  0  0  0  0  0  0  0  0  0  0
   39.5770   26.8690   43.6360 C   0  0  0  0  0  0  0  0  0  0  0  0
   40.1130   25.7040   43.1690 C   0  0  0  0  0  0  0  0  0  0  0  0
   39.4390   24.8670   42.3830 N   0  0  0  0  0  0  0  0  0  0  0  0
   38.1800   25.1730   42.0320 C   0  0  0  0  0  0  0  0  0  0  0  0
   37.5780   26.3250   42.4630 N   0  0  0  0  0  0  0  0  0  0  0  0
   39.9790   27.6400   44.2660 H   0  0  0  0  0  0  0  0  0  0  0  0
   41.1380   25.5390   43.5050 H   0  0  0  0  0  0  0  0  0  0  0  0
   37.5130   24.1800   41.1570 C   0  0  0  0  0  0  0  0  0  0  0  0
   38.0920   22.9390   41.2800 F   0  0  0  0  0  0  0  0  0  0  0  0
   37.5990   24.5740   39.8100 F   0  0  0  0  0  0  0  0  0  0  0  0
   36.1720   24.0490   41.4570 F   0  0  0  0  0  0  0  0  0  0  0  0
  1  6  1  0  0  0  0
  2  3  1  0  0  0  0
  2  1  2  0  0  0  0
  3  4  2  0  0  0  0
  4  5  1  0  0  0  0
  5 19  1  0  0  0  0
  6  5  2  0  0  0  0
  7  1  1  0  0  0  0
  8 14  2  0  0  0  0
  8  3  1  0  0  0  0
  9  8  1  0  0  0  0
 10  9  2  0  0  0  0
 10 12  1  0  0  0  0
 11 10  1  0  0  0  0
 12 14  1  0  0  0  0
 13 12  1  0  0  0  0
 15  2  1  0  0  0  0
 16 15  1  0  0  0  0
 17 15  1  0  0  0  0
 18 15  1  0  0  0  0
 19 20  1  0  0  0  0
 20 22  1  0  0  0  0
 21 20  1  0  0  0  0
 23 20  1  0  0  0  0
 23 24  1  0  0  0  0
 24 29  1  0  0  0  0
 25 30  1  0  0  0  0
 25 24  2  0  0  0  0
 26 25  1  0  0  0  0
 27 26  2  0  0  0  0
 27 28  1  0  0  0  0
 28 23  2  0  0  0  0
 31 32  1  0  0  0  0
 31 34  1  0  0  0  0
 31 27  1  0  0  0  0
 33 31  1  0  0  0  0
M  END
>  <minimizedAffinity>
-5.725667

$$$$

 OpenBabel03252505593D

 34 36  0  0  0  0  0  0  0  0999 V2000
   40.2700   31.9150   37.5020 C   0  0  0  0  0  0  0  0  0  0  0  0
   41.2420   32.3270   38.4210 C   0  0  0  0  0  0  0  0  0  0  0  0
   40.7820   32.6810   39.6900 C   0  0  0  0  0  0  0  0  0  0  0  0
   39.4890   32.6280   39.9960 N   0  0  0  0  0  0  0  0  0  0  0  0
   38.5800   32.2220   39.0730 C   0  0  0  0  0  0  0  0  0  0  0  0
   38.9690   31.8700   37.8370 N   0  0  0  0  0  0  0  0  0  0  0  0
   40.5680   31.6280   36.5020 H   0  0  0  0  0  0  0  0  0  0  0  0
   41.7670   33.1150   40.6770 C   0  0  0  0  0  0  0  0  0  0  0  0
   42.5920   34.1610   40.9090 N   0  0  0  0  0  0  0  0  0  0  0  0
   43.2510   33.8790   42.0690 C   0  0  0  0  0  0  0  0  0  0  0  0
   43.9930   34.5290   42.5310 H   0  0  0  0  0  0  0  0  0  0  0  0
   42.8440   32.6850   42.5490 N   0  0  0  0  0  0  0  0  0  0  0  0
   43.2160   32.2650   43.4340 H   0  0  0  0  0  0  0  0  0  0  0  0
   41.9340   32.2250   41.6890 N   0  0  0  0  0  0  0  0  0  0  0  0
   42.6770   32.3650   38.0160 C   0  0  0  0  0  0  0  0  0  0  0  0
   42.9510   33.7150   37.8910 F   0  0  0  0  0  0  0  0  0  0  0  0
   42.7370   31.7760   36.7540 F   0  0  0  0  0  0  0  0  0  0  0  0
   43.4360   31.7490   38.9460 F   0  0  0  0  0  0  0  0  0  0  0  0
   37.2190   32.1460   39.3350 O   0  0  0  0  0  0  0  0  0  0  0  0
   36.7440   31.6030   40.5470 C   0  0  0  0  0  0  0  0  0  0  0  0
   35.7240   32.0050   40.7260 H   0  0  0  0  0  0  0  0  0  0  0  0
   37.4020   31.8520   41.4010 H   0  0  0  0  0  0  0  0  0  0  0  0
   36.6450   30.1520   40.3810 C   0  0  0  0  0  0  0  0  0  0  0  0
   36.4050   29.3940   39.2380 C   0  0  0  0  0  0  0  0  0  0  0  0
   36.3640   28.0370   39.3730 C   0  0  0  0  0  0  0  0  0  0  0  0
   36.5420   27.4250   40.5420 N   0  0  0  0  0  0  0  0  0  0  0  0
   36.7740   28.1650   41.6370 C   0  0  0  0  0  0  0  0  0  0  0  0
   36.8280   29.5320   41.5780 N   0  0  0  0  0  0  0  0  0  0  0  0
   36.2830   30.0330   38.3840 H   0  0  0  0  0  0  0  0  0  0  0  0
   36.1710   27.5190   38.4330 H   0  0  0  0  0  0  0  0  0  0  0  0
   36.9600   27.3940   42.8890 C   0  0  0  0  0  0  0  0  0  0  0  0
   37.9990   27.8980   43.6350 F   0  0  0  0  0  0  0  0  0  0  0  0
   37.2400   26.0470   42.6010 F   0  0  0  0  0  0  0  0  0  0  0  0
   35.8290   27.4130   43.6790 F   0  0  0  0  0  0  0  0  0  0  0  0
  1  6  2  0  0  0  0
  1  2  1  0  0  0  0
  2  3  2  0  0  0  0
  3  4  1  0  0  0  0
  3  8  1  0  0  0  0
  5 19  1  0  0  0  0
  5  4  2  0  0  0  0
  6  5  1  0  0  0  0
  7  1  1  0  0  0  0
  8  9  1  0  0  0  0
  8 14  2  0  0  0  0
  9 10  2  0  0  0  0
 10 11  1  0  0  0  0
 10 12  1  0  0  0  0
 12 13  1  0  0  0  0
 14 12  1  0  0  0  0
 15  2  1  0  0  0  0
 15 18  1  0  0  0  0
 16 15  1  0  0  0  0
 17 15  1  0  0  0  0
 19 20  1  0  0  0  0
 20 21  1  0  0  0  0
 20 22  1  0  0  0  0
 23 20  1  0  0  0  0
 23 28  1  0  0  0  0
 24 25  1  0  0  0  0
 24 23  2  0  0  0  0
 25 26  2  0  0  0  0
 26 27  1  0  0  0  0
 27 31  1  0  0  0  0
 28 27  2  0  0  0  0
 29 24  1  0  0  0  0
 30 25  1  0  0  0  0
 31 32  1  0  0  0  0
 31 34  1  0  0  0  0
 33 31  1  0  0  0  0
M  END
>  <minimizedAffinity>
-5.68767262

$$$$

 OpenBabel03252505593D

 34 36  0  0  0  0  0  0  0  0999 V2000
   36.7590   29.2610   38.6580 C   0  0  0  0  0  0  0  0  0  0  0  0
   37.3840   30.4970   38.8560 C   0  0  0  0  0  0  0  0  0  0  0  0
   37.5570   30.8990   40.1810 C   0  0  0  0  0  0  0  0  0  0  0  0
   37.1440   30.1390   41.1920 N   0  0  0  0  0  0  0  0  0  0  0  0
   36.5420   28.9460   40.9550 C   0  0  0  0  0  0  0  0  0  0  0  0
   36.3510   28.5130   39.6980 N   0  0  0  0  0  0  0  0  0  0  0  0
   36.5980   28.8980   37.6520 H   0  0  0  0  0  0  0  0  0  0  0  0
   38.2070   32.1820   40.4280 C   0  0  0  0  0  0  0  0  0  0  0  0
   37.9340   33.5040   40.3300 N   0  0  0  0  0  0  0  0  0  0  0  0
   39.0540   34.1580   40.7500 C   0  0  0  0  0  0  0  0  0  0  0  0
   39.1570   35.2420   40.7910 H   0  0  0  0  0  0  0  0  0  0  0  0
   40.0030   33.2640   41.1010 N   0  0  0  0  0  0  0  0  0  0  0  0
   40.9480   33.5400   41.4560 H   0  0  0  0  0  0  0  0  0  0  0  0
   39.4730   32.0570   40.9010 N   0  0  0  0  0  0  0  0  0  0  0  0
   37.8240   31.3020   37.6790 C   0  0  0  0  0  0  0  0  0  0  0  0
   37.0640   32.4550   37.7620 F   0  0  0  0  0  0  0  0  0  0  0  0
   37.4300   30.5840   36.5520 F   0  0  0  0  0  0  0  0  0  0  0  0
   39.1520   31.5310   37.7480 F   0  0  0  0  0  0  0  0  0  0  0  0
   36.0910   28.1120   41.9680 O   0  0  0  0  0  0  0  0  0  0  0  0
   36.9640   27.6690   42.9840 C   0  0  0  0  0  0  0  0  0  0  0  0
   36.3600   27.4800   43.8970 H   0  0  0  0  0  0  0  0  0  0  0  0
   37.7560   28.4100   43.2040 H   0  0  0  0  0  0  0  0  0  0  0  0
   37.5530   26.4020   42.5490 C   0  0  0  0  0  0  0  0  0  0  0  0
   36.9440   25.1920   42.2310 C   0  0  0  0  0  0  0  0  0  0  0  0
   37.7470   24.1570   41.8490 C   0  0  0  0  0  0  0  0  0  0  0  0
   39.0710   24.2650   41.7740 N   0  0  0  0  0  0  0  0  0  0  0  0
   39.6490   25.4360   42.0820 C   0  0  0  0  0  0  0  0  0  0  0  0
   38.9070   26.5180   42.4730 N   0  0  0  0  0  0  0  0  0  0  0  0
   35.8780   25.2680   42.3430 H   0  0  0  0  0  0  0  0  0  0  0  0
   37.1920   23.2460   41.6190 H   0  0  0  0  0  0  0  0  0  0  0  0
   41.1260   25.4580   41.9660 C   0  0  0  0  0  0  0  0  0  0  0  0
   41.6170   26.7380   42.0860 F   0  0  0  0  0  0  0  0  0  0  0  0
   41.5310   24.9470   40.7210 F   0  0  0  0  0  0  0  0  0  0  0  0
   41.7300   24.6850   42.9370 F   0  0  0  0  0  0  0  0  0  0  0  0
  1  2  2  0  0  0  0
  1  6  1  0  0  0  0
  2  3  1  0  0  0  0
  3  8  1  0  0  0  0
  3  4  2  0  0  0  0
  5  4  1  0  0  0  0
  5 19  1  0  0  0  0
  6  5  2  0  0  0  0
  7  1  1  0  0  0  0
  8 14  2  0  0  0  0
  9  8  1  0  0  0  0
  9 10  2  0  0  0  0
 10 11  1  0  0  0  0
 10 12  1  0  0  0  0
 12 13  1  0  0  0  0
 14 12  1  0  0  0  0
 15 18  1  0  0  0  0
 15 16  1  0  0  0  0
 15  2  1  0  0  0  0
 17 15  1  0  0  0  0
 19 20  1  0  0  0  0
 20 22  1  0  0  0  0
 20 21  1  0  0  0  0
 23 20  1  0  0  0  0
 24 29  1  0  0  0  0
 24 23  2  0  0  0  0
 25 24  1  0  0  0  0
 26 25  2  0  0  0  0
 26 27  1  0  0  0  0
 27 28  2  0  0  0  0
 28 23  1  0  0  0  0
 30 25  1  0  0  0  0
 31 27  1  0  0  0  0
 31 32  1  0  0  0  0
 31 34  1  0  0  0  0
 33 31  1  0  0  0  0
M  END
>  <minimizedAffinity>
-5.61385059

$$$$

 OpenBabel03252505593D

 34 36  0  0  0  0  0  0  0  0999 V2000
   41.7060   30.1230   38.6980 C   0  0  0  0  0  0  0  0  0  0  0  0
   40.7830   31.1740   38.6710 C   0  0  0  0  0  0  0  0  0  0  0  0
   39.8310   31.1880   39.6920 C   0  0  0  0  0  0  0  0  0  0  0  0
   39.8130   30.2480   40.6330 N   0  0  0  0  0  0  0  0  0  0  0  0
   40.7290   29.2460   40.6210 C   0  0  0  0  0  0  0  0  0  0  0  0
   41.6660   29.1850   39.6610 N   0  0  0  0  0  0  0  0  0  0  0  0
   42.4670   30.0600   37.9320 H   0  0  0  0  0  0  0  0  0  0  0  0
   38.8510   32.2700   39.6970 C   0  0  0  0  0  0  0  0  0  0  0  0
   37.7360   32.6450   39.0300 N   0  0  0  0  0  0  0  0  0  0  0  0
   37.3250   33.8160   39.5970 C   0  0  0  0  0  0  0  0  0  0  0  0
   36.4480   34.3790   39.2830 H   0  0  0  0  0  0  0  0  0  0  0  0
   38.1660   34.1610   40.5950 N   0  0  0  0  0  0  0  0  0  0  0  0
   38.0460   35.0260   41.1730 H   0  0  0  0  0  0  0  0  0  0  0  0
   39.0970   33.2080   40.6490 N   0  0  0  0  0  0  0  0  0  0  0  0
   40.8560   32.1970   37.5880 C   0  0  0  0  0  0  0  0  0  0  0  0
   41.9700   31.8280   36.8560 F   0  0  0  0  0  0  0  0  0  0  0  0
   41.1170   33.4110   38.2220 F   0  0  0  0  0  0  0  0  0  0  0  0
   39.7160   32.1880   36.8670 F   0  0  0  0  0  0  0  0  0  0  0  0
   40.7590   28.2390   41.5760 O   0  0  0  0  0  0  0  0  0  0  0  0
   40.3160   28.4770   42.8940 C   0  0  0  0  0  0  0  0  0  0  0  0
   40.2940   29.5750   43.0550 H   0  0  0  0  0  0  0  0  0  0  0  0
   40.9720   27.9990   43.6470 H   0  0  0  0  0  0  0  0  0  0  0  0
   38.9490   27.9660   43.0070 C   0  0  0  0  0  0  0  0  0  0  0  0
   37.8480   28.4900   43.6790 C   0  0  0  0  0  0  0  0  0  0  0  0
   36.6760   27.7950   43.6160 C   0  0  0  0  0  0  0  0  0  0  0  0
   36.5530   26.6520   42.9450 N   0  0  0  0  0  0  0  0  0  0  0  0
   37.6200   26.1560   42.2990 C   0  0  0  0  0  0  0  0  0  0  0  0
   38.8290   26.7990   42.3190 N   0  0  0  0  0  0  0  0  0  0  0  0
   38.1110   29.4090   44.1680 H   0  0  0  0  0  0  0  0  0  0  0  0
   35.8650   28.2710   44.1690 H   0  0  0  0  0  0  0  0  0  0  0  0
   37.3840   24.8820   41.5810 C   0  0  0  0  0  0  0  0  0  0  0  0
   36.3730   24.1570   42.1690 F   0  0  0  0  0  0  0  0  0  0  0  0
   38.5480   24.0930   41.5810 F   0  0  0  0  0  0  0  0  0  0  0  0
   37.0360   25.0910   40.2620 F   0  0  0  0  0  0  0  0  0  0  0  0
  1  6  1  0  0  0  0
  2  1  2  0  0  0  0
  2  3  1  0  0  0  0
  3  8  1  0  0  0  0
  3  4  2  0  0  0  0
  5  4  1  0  0  0  0
  5 19  1  0  0  0  0
  6  5  2  0  0  0  0
  7  1  1  0  0  0  0
  8 14  2  0  0  0  0
  9 10  2  0  0  0  0
  9  8  1  0  0  0  0
 10 12  1  0  0  0  0
 11 10  1  0  0  0  0
 12 14  1  0  0  0  0
 12 13  1  0  0  0  0
 15 17  1  0  0  0  0
 15  2  1  0  0  0  0
 16 15  1  0  0  0  0
 18 15  1  0  0  0  0
 19 20  1  0  0  0  0
 20 23  1  0  0  0  0
 20 21  1  0  0  0  0
 20 22  1  0  0  0  0
 23 24  1  0  0  0  0
 24 29  1  0  0  0  0
 25 24  2  0  0  0  0
 25 30  1  0  0  0  0
 26 25  1  0  0  0  0
 27 28  1  0  0  0  0
 27 26  2  0  0  0  0
 28 23  2  0  0  0  0
 31 33  1  0  0  0  0
 31 32  1  0  0  0  0
 31 27  1  0  0  0  0
 34 31  1  0  0  0  0
M  END
>  <minimizedAffinity>
-5.45037937

$$$$

 OpenBabel03252505593D

 34 36  0  0  0  0  0  0  0  0999 V2000
   37.8660   26.8880   41.0050 C   0  0  0  0  0  0  0  0  0  0  0  0
   37.9710   28.2630   41.2410 C   0  0  0  0  0  0  0  0  0  0  0  0
   37.8870   29.0920   40.1200 C   0  0  0  0  0  0  0  0  0  0  0  0
   37.7170   28.5880   38.9010 N   0  0  0  0  0  0  0  0  0  0  0  0
   37.6200   27.2470   38.7180 C   0  0  0  0  0  0  0  0  0  0  0  0
   37.6950   26.4060   39.7620 N   0  0  0  0  0  0  0  0  0  0  0  0
   37.9250   26.1970   41.8360 H   0  0  0  0  0  0  0  0  0  0  0  0
   37.9900   30.5330   40.3260 C   0  0  0  0  0  0  0  0  0  0  0  0
   38.9400   31.4700   40.5500 N   0  0  0  0  0  0  0  0  0  0  0  0
   38.2860   32.6630   40.6450 C   0  0  0  0  0  0  0  0  0  0  0  0
   38.7730   33.6210   40.8250 H   0  0  0  0  0  0  0  0  0  0  0  0
   36.9590   32.4730   40.4850 N   0  0  0  0  0  0  0  0  0  0  0  0
   36.2600   33.2510   40.5180 H   0  0  0  0  0  0  0  0  0  0  0  0
   36.7890   31.1650   40.2890 N   0  0  0  0  0  0  0  0  0  0  0  0
   38.1610   28.7650   42.6330 C   0  0  0  0  0  0  0  0  0  0  0  0
   39.4630   29.2310   42.6440 F   0  0  0  0  0  0  0  0  0  0  0  0
   38.0770   27.6460   43.4600 F   0  0  0  0  0  0  0  0  0  0  0  0
   37.2500   29.7210   42.9070 F   0  0  0  0  0  0  0  0  0  0  0  0
   37.4420   26.6650   37.4700 O   0  0  0  0  0  0  0  0  0  0  0  0
   37.8100   27.3490   36.2930 C   0  0  0  0  0  0  0  0  0  0  0  0
   38.1540   26.5960   35.5520 H   0  0  0  0  0  0  0  0  0  0  0  0
   38.6110   28.0900   36.4750 H   0  0  0  0  0  0  0  0  0  0  0  0
   36.6140   28.0060   35.7630 C   0  0  0  0  0  0  0  0  0  0  0  0
   35.2730   27.6480   35.8680 C   0  0  0  0  0  0  0  0  0  0  0  0
   34.3510   28.4540   35.2670 C   0  0  0  0  0  0  0  0  0  0  0  0
   34.6870   29.5530   34.5940 N   0  0  0  0  0  0  0  0  0  0  0  0
   35.9830   29.8900   34.5000 C   0  0  0  0  0  0  0  0  0  0  0  0
   36.9630   29.1280   35.0770 N   0  0  0  0  0  0  0  0  0  0  0  0
   35.1710   26.7430   36.4370 H   0  0  0  0  0  0  0  0  0  0  0  0
   33.3260   28.1040   35.3950 H   0  0  0  0  0  0  0  0  0  0  0  0
   36.2560   31.1280   33.7340 C   0  0  0  0  0  0  0  0  0  0  0  0
   35.0880   31.7410   33.3420 F   0  0  0  0  0  0  0  0  0  0  0  0
   37.0080   30.8390   32.5820 F   0  0  0  0  0  0  0  0  0  0  0  0
   36.9810   32.0410   34.4720 F   0  0  0  0  0  0  0  0  0  0  0  0
  1  2  1  0  0  0  0
  1  7  1  0  0  0  0
  2 15  1  0  0  0  0
  3  8  1  0  0  0  0
  3  2  2  0  0  0  0
  4  3  1  0  0  0  0
  5  4  2  0  0  0  0
  5  6  1  0  0  0  0
  6  1  2  0  0  0  0
  8  9  1  0  0  0  0
  9 10  2  0  0  0  0
 10 11  1  0  0  0  0
 12 13  1  0  0  0  0
 12 10  1  0  0  0  0
 14  8  2  0  0  0  0
 14 12  1  0  0  0  0
 15 16  1  0  0  0  0
 15 18  1  0  0  0  0
 15 17  1  0  0  0  0
 19  5  1  0  0  0  0
 20 22  1  0  0  0  0
 20 19  1  0  0  0  0
 21 20  1  0  0  0  0
 23 24  1  0  0  0  0
 23 20  1  0  0  0  0
 24 29  1  0  0  0  0
 25 30  1  0  0  0  0
 25 24  2  0  0  0  0
 26 25  1  0  0  0  0
 27 26  2  0  0  0  0
 27 28  1  0  0  0  0
 28 23  2  0  0  0  0
 31 34  1  0  0  0  0
 31 27  1  0  0  0  0
 32 31  1  0  0  0  0
 33 31  1  0  0  0  0
M  END
>  <minimizedAffinity>
-5.44125605

$$$$
