
 OpenBabel03252509143D

 43 47  0  0  1  0  0  0  0  0999 V2000
   47.2070   32.9530   43.1300 C   0  0  0  0  0  0  0  0  0  0  0  0
   46.4120   33.6520   42.2250 C   0  0  0  0  0  0  0  0  0  0  0  0
   45.3670   34.4730   42.6240 C   0  0  0  0  0  0  0  0  0  0  0  0
   45.0890   34.6140   43.9950 C   0  0  0  0  0  0  0  0  0  0  0  0
   44.1890   35.2960   44.7270 N   0  0  0  0  0  0  0  0  0  0  0  0
   44.3920   35.0520   46.0330 C   0  0  0  0  0  0  0  0  0  0  0  0
   45.4310   34.2080   46.0940 N   0  0  0  0  0  0  0  0  0  0  0  0
   45.8900   33.9120   44.8600 C   0  0  0  0  0  0  0  0  0  0  0  0
   46.9390   33.0860   44.4970 C   0  0  0  0  0  0  0  0  0  0  0  0
   48.0030   32.3320   42.7530 H   0  0  0  0  0  0  0  0  0  0  0  0
   43.4490   35.9200   44.3250 H   0  0  0  0  0  0  0  0  0  0  0  0
   43.8450   35.4430   46.8880 H   0  0  0  0  0  0  0  0  0  0  0  0
   47.5410   32.5560   45.2120 H   0  0  0  0  0  0  0  0  0  0  0  0
   46.2300   32.4890   38.7610 C   0  0  0  0  0  0  0  0  0  0  0  0
   47.1890   33.2620   38.1100 C   0  0  0  0  0  0  0  0  0  0  0  0
   47.9000   34.1880   38.8830 C   0  0  0  0  0  0  0  0  0  0  0  0
   47.6320   34.3020   40.2280 N   0  0  0  0  0  0  0  0  0  0  0  0
   46.6850   33.5180   40.7950 C   0  0  0  0  0  0  0  0  0  0  0  0
   45.9610   32.5980   40.0980 N   0  0  0  0  0  0  0  0  0  0  0  0
   45.6160   31.7360   38.2710 H   0  0  0  0  0  0  0  0  0  0  0  0
   47.3400   33.1160   37.0670 H   0  0  0  0  0  0  0  0  0  0  0  0
   48.6460   34.7980   38.4080 H   0  0  0  0  0  0  0  0  0  0  0  0
   44.3680   35.3520   41.4610 S   0  0  0  0  0  0  0  0  0  0  0  0
   42.1050   34.0450   41.7870 N   0  0  0  0  0  0  0  0  0  0  0  0
   43.0510   34.3450   40.7240 C   0  0  1  0  0  0  0  0  0  0  0  0
   42.4060   35.2320   39.6570 C   0  0  0  0  0  0  0  0  0  0  0  0
   41.1280   34.8450   39.3140 O   0  0  0  0  0  0  0  0  0  0  0  0
   40.7400   33.6140   39.7900 C   0  0  0  0  0  0  0  0  0  0  0  0
   40.8340   33.6050   41.2920 C   0  0  1  0  0  0  0  0  0  0  0  0
   42.0230   34.8970   42.4180 H   0  0  0  0  0  0  0  0  0  0  0  0
   43.4080   33.4090   40.2770 H   0  0  0  0  0  0  0  0  0  0  0  0
   42.9730   35.1670   38.7320 H   0  0  0  0  0  0  0  0  0  0  0  0
   42.3960   36.2900   39.9950 H   0  0  0  0  0  0  0  0  0  0  0  0
   39.7130   33.4280   39.4890 H   0  0  0  0  0  0  0  0  0  0  0  0
   41.4580   32.8610   39.4120 H   0  0  0  0  0  0  0  0  0  0  0  0
   40.0550   34.2670   41.7480 H   0  0  0  0  0  0  0  0  0  0  0  0
   40.5210   32.2160   41.7430 C   0  0  0  0  0  0  0  0  0  0  0  0
   41.3960   31.3940   42.3880 N   0  0  0  0  0  0  0  0  0  0  0  0
   40.7380   30.2240   42.6290 C   0  0  0  0  0  0  0  0  0  0  0  0
   41.2160   29.4030   43.1310 H   0  0  0  0  0  0  0  0  0  0  0  0
   39.4850   30.3180   42.1450 N   0  0  0  0  0  0  0  0  0  0  0  0
   38.7550   29.5630   42.1920 H   0  0  0  0  0  0  0  0  0  0  0  0
   39.3710   31.5420   41.6080 N   0  0  0  0  0  0  0  0  0  0  0  0
  1  9  1  0  0  0  0
  2  3  1  0  0  0  0
  2  1  2  0  0  0  0
  3  4  2  0  0  0  0
  4  5  1  0  0  0  0
  4  8  1  0  0  0  0
  5  6  1  0  0  0  0
  6  7  2  0  0  0  0
  6 12  1  0  0  0  0
  8  7  1  0  0  0  0
  9  8  2  0  0  0  0
  9 13  1  0  0  0  0
 10  1  1  0  0  0  0
 11  5  1  0  0  0  0
 14 19  1  0  0  0  0
 15 14  2  0  0  0  0
 15 16  1  0  0  0  0
 16 17  2  0  0  0  0
 17 18  1  0  0  0  0
 18  2  1  0  0  0  0
 19 18  2  0  0  0  0
 20 14  1  0  0  0  0
 21 15  1  0  0  0  0
 22 16  1  0  0  0  0
 23  3  1  0  0  0  0
 24 30  1  0  0  0  0
 25 31  1  6  0  0  0
 25 23  1  0  0  0  0
 25 24  1  0  0  0  0
 26 33  1  0  0  0  0
 26 25  1  0  0  0  0
 27 26  1  0  0  0  0
 27 28  1  0  0  0  0
 28 29  1  0  0  0  0
 29 37  1  0  0  0  0
 29 36  1  1  0  0  0
 29 24  1  0  0  0  0
 32 26  1  0  0  0  0
 34 28  1  0  0  0  0
 35 28  1  0  0  0  0
 37 38  1  0  0  0  0
 38 39  2  0  0  0  0
 39 40  1  0  0  0  0
 41 42  1  0  0  0  0
 41 39  1  0  0  0  0
 43 37  2  0  0  0  0
 43 41  1  0  0  0  0
M  END
>  <minimizedAffinity>
-5.97170591

>  <minimizedRMSD>
2.14367175

$$$$
