
 OpenBabel03252501303D

 36 38  0  0  0  0  0  0  0  0999 V2000
   45.9060   31.2050   47.1910 C   0  0  0  0  0  0  0  0  0  0  0  0
   45.4790   30.6020   48.3570 C   0  0  0  0  0  0  0  0  0  0  0  0
   45.0130   29.3230   48.4170 C   0  0  0  0  0  0  0  0  0  0  0  0
   44.9610   28.5900   47.2580 C   0  0  0  0  0  0  0  0  0  0  0  0
   45.3820   29.1770   46.0880 C   0  0  0  0  0  0  0  0  0  0  0  0
   45.8540   30.4760   46.0400 C   0  0  0  0  0  0  0  0  0  0  0  0
   45.5520   31.2550   49.2420 H   0  0  0  0  0  0  0  0  0  0  0  0
   44.7140   28.9760   49.3930 H   0  0  0  0  0  0  0  0  0  0  0  0
   45.2670   28.4450   45.2760 H   0  0  0  0  0  0  0  0  0  0  0  0
   44.4430   27.2220   47.4260 C   0  0  0  0  0  0  0  0  0  0  0  0
   43.9740   26.2580   46.6590 N   0  0  0  0  0  0  0  0  0  0  0  0
   43.6690   25.2320   47.4900 C   0  0  0  0  0  0  0  0  0  0  0  0
   43.2590   24.2550   47.2710 H   0  0  0  0  0  0  0  0  0  0  0  0
   43.9540   25.5780   48.7600 N   0  0  0  0  0  0  0  0  0  0  0  0
   43.8250   24.9890   49.6310 H   0  0  0  0  0  0  0  0  0  0  0  0
   44.4390   26.8230   48.7230 N   0  0  0  0  0  0  0  0  0  0  0  0
   47.5600   30.3990   44.3300 C   0  0  0  0  0  0  0  0  0  0  0  0
   48.6400   29.9550   44.8710 O   0  0  0  0  0  0  0  0  0  0  0  0
   46.2090   30.7200   44.6770 N   0  0  0  0  0  0  0  0  0  0  0  0
   48.0370   30.4800   43.3510 H   0  0  0  0  0  0  0  0  0  0  0  0
   45.6850   31.0850   43.8840 H   0  0  0  0  0  0  0  0  0  0  0  0
   46.4180   32.5570   46.9870 C   0  0  0  0  0  0  0  0  0  0  0  0
   47.0470   32.6090   46.0510 H   0  0  0  0  0  0  0  0  0  0  0  0
   47.1230   32.7700   47.8150 H   0  0  0  0  0  0  0  0  0  0  0  0
   45.2950   33.5600   46.9130 C   0  0  0  0  0  0  0  0  0  0  0  0
   45.4630   34.3310   47.6930 H   0  0  0  0  0  0  0  0  0  0  0  0
   44.3130   33.0780   47.0880 H   0  0  0  0  0  0  0  0  0  0  0  0
   46.2230   34.4470   43.4810 C   0  0  0  0  0  0  0  0  0  0  0  0
   45.4510   35.6080   43.2420 C   0  0  0  0  0  0  0  0  0  0  0  0
   44.6330   36.0370   44.2860 C   0  0  0  0  0  0  0  0  0  0  0  0
   44.6080   35.3600   45.4410 N   0  0  0  0  0  0  0  0  0  0  0  0
   45.3710   34.2550   45.6100 C   0  0  0  0  0  0  0  0  0  0  0  0
   46.1570   33.8030   44.6710 N   0  0  0  0  0  0  0  0  0  0  0  0
   46.8660   34.0950   42.6820 H   0  0  0  0  0  0  0  0  0  0  0  0
   45.5210   36.1030   42.2860 H   0  0  0  0  0  0  0  0  0  0  0  0
   44.0220   36.9370   44.1250 H   0  0  0  0  0  0  0  0  0  0  0  0
  1  2  1  0  0  0  0
  2  3  2  0  0  0  0
  2  7  1  0  0  0  0
  3  8  1  0  0  0  0
  4 10  1  0  0  0  0
  4  3  1  0  0  0  0
  5  4  2  0  0  0  0
  6  5  1  0  0  0  0
  6  1  2  0  0  0  0
  9  5  1  0  0  0  0
 10 16  2  0  0  0  0
 11 10  1  0  0  0  0
 11 12  2  0  0  0  0
 12 14  1  0  0  0  0
 13 12  1  0  0  0  0
 14 15  1  0  0  0  0
 16 14  1  0  0  0  0
 17 19  1  0  0  0  0
 17 18  2  0  0  0  0
 19  6  1  0  0  0  0
 20 17  1  0  0  0  0
 21 19  1  0  0  0  0
 22  1  1  0  0  0  0
 22 24  1  0  0  0  0
 23 22  1  0  0  0  0
 25 22  1  0  0  0  0
 25 27  1  0  0  0  0
 25 26  1  0  0  0  0
 28 33  1  0  0  0  0
 29 28  2  0  0  0  0
 29 30  1  0  0  0  0
 30 31  2  0  0  0  0
 31 32  1  0  0  0  0
 32 25  1  0  0  0  0
 33 32  2  0  0  0  0
 34 28  1  0  0  0  0
 35 29  1  0  0  0  0
 36 30  1  0  0  0  0
M  END
>  <minimizedAffinity>
-5.04368973

>  <minimizedRMSD>
2.72322273

$$$$
