
 OpenBabel03252501303D

 36 38  0  0  0  0  0  0  0  0999 V2000
   47.4570   30.4410   44.7070 C   0  0  0  0  0  0  0  0  0  0  0  0
   46.3390   30.6700   45.4830 C   0  0  0  0  0  0  0  0  0  0  0  0
   45.8160   29.7500   46.3420 C   0  0  0  0  0  0  0  0  0  0  0  0
   46.4310   28.5270   46.4440 C   0  0  0  0  0  0  0  0  0  0  0  0
   47.5460   28.2840   45.6770 C   0  0  0  0  0  0  0  0  0  0  0  0
   48.0660   29.2270   44.8090 C   0  0  0  0  0  0  0  0  0  0  0  0
   45.9040   31.6740   45.3440 H   0  0  0  0  0  0  0  0  0  0  0  0
   44.9410   30.0590   46.8890 H   0  0  0  0  0  0  0  0  0  0  0  0
   47.8940   27.2630   45.8910 H   0  0  0  0  0  0  0  0  0  0  0  0
   45.7930   27.6030   47.3960 C   0  0  0  0  0  0  0  0  0  0  0  0
   44.5990   27.4260   47.9290 N   0  0  0  0  0  0  0  0  0  0  0  0
   44.7130   26.3560   48.7540 C   0  0  0  0  0  0  0  0  0  0  0  0
   43.9740   25.8760   49.3810 H   0  0  0  0  0  0  0  0  0  0  0  0
   45.9760   25.8880   48.7180 N   0  0  0  0  0  0  0  0  0  0  0  0
   46.3710   25.0630   49.2530 H   0  0  0  0  0  0  0  0  0  0  0  0
   46.6530   26.6670   47.8690 N   0  0  0  0  0  0  0  0  0  0  0  0
   50.4200   28.7050   44.9850 C   0  0  0  0  0  0  0  0  0  0  0  0
   50.8470   29.1850   46.0990 O   0  0  0  0  0  0  0  0  0  0  0  0
   49.2170   28.6250   44.2120 N   0  0  0  0  0  0  0  0  0  0  0  0
   51.4020   28.2960   44.7390 H   0  0  0  0  0  0  0  0  0  0  0  0
   49.3600   28.1400   43.3280 H   0  0  0  0  0  0  0  0  0  0  0  0
   48.1110   31.3300   43.7500 C   0  0  0  0  0  0  0  0  0  0  0  0
   48.7560   30.7410   43.0350 H   0  0  0  0  0  0  0  0  0  0  0  0
   48.8210   31.9610   44.3200 H   0  0  0  0  0  0  0  0  0  0  0  0
   47.1010   32.1460   42.9850 C   0  0  0  0  0  0  0  0  0  0  0  0
   46.3470   32.5310   43.7010 H   0  0  0  0  0  0  0  0  0  0  0  0
   46.5890   31.5350   42.2160 H   0  0  0  0  0  0  0  0  0  0  0  0
   49.3750   34.9860   42.5490 C   0  0  0  0  0  0  0  0  0  0  0  0
   48.9810   35.5080   41.2950 C   0  0  0  0  0  0  0  0  0  0  0  0
   47.9390   34.8490   40.6460 C   0  0  0  0  0  0  0  0  0  0  0  0
   47.3640   33.7800   41.2130 N   0  0  0  0  0  0  0  0  0  0  0  0
   47.7850   33.3280   42.4170 C   0  0  0  0  0  0  0  0  0  0  0  0
   48.7560   33.9010   43.0750 N   0  0  0  0  0  0  0  0  0  0  0  0
   50.1840   35.4840   43.0720 H   0  0  0  0  0  0  0  0  0  0  0  0
   49.4900   36.3720   40.8980 H   0  0  0  0  0  0  0  0  0  0  0  0
   47.6150   35.2340   39.6680 H   0  0  0  0  0  0  0  0  0  0  0  0
  1  6  2  0  0  0  0
  1  2  1  0  0  0  0
  2  3  2  0  0  0  0
  3  4  1  0  0  0  0
  3  8  1  0  0  0  0
  4 10  1  0  0  0  0
  5  9  1  0  0  0  0
  5  4  2  0  0  0  0
  6  5  1  0  0  0  0
  7  2  1  0  0  0  0
 10 16  2  0  0  0  0
 10 11  1  0  0  0  0
 11 12  2  0  0  0  0
 12 13  1  0  0  0  0
 14 12  1  0  0  0  0
 14 15  1  0  0  0  0
 16 14  1  0  0  0  0
 17 18  2  0  0  0  0
 19  6  1  0  0  0  0
 19 17  1  0  0  0  0
 20 17  1  0  0  0  0
 21 19  1  0  0  0  0
 22 24  1  0  0  0  0
 22  1  1  0  0  0  0
 23 22  1  0  0  0  0
 25 26  1  0  0  0  0
 25 22  1  0  0  0  0
 27 25  1  0  0  0  0
 28 34  1  0  0  0  0
 28 33  1  0  0  0  0
 29 28  2  0  0  0  0
 30 31  2  0  0  0  0
 30 29  1  0  0  0  0
 31 32  1  0  0  0  0
 32 25  1  0  0  0  0
 32 33  2  0  0  0  0
 35 29  1  0  0  0  0
 36 30  1  0  0  0  0
M  END
>  <minimizedAffinity>
-3.64498639

>  <minimizedRMSD>
3.53986049

$$$$
