
 OpenBabel03242523533D

 43 46  0  0  1  0  0  0  0  0999 V2000
   42.8380   34.3650   38.9760 C   0  0  1  0  0  0  0  0  0  0  0  0
   43.0530   35.1940   40.2320 C   0  0  1  0  0  0  0  0  0  0  0  0
   41.7960   35.6330   40.6910 O   0  0  0  0  0  0  0  0  0  0  0  0
   40.9160   35.9320   39.6470 C   0  0  0  0  0  0  0  0  0  0  0  0
   40.4820   34.6860   38.8990 C   0  0  2  0  0  0  0  0  0  0  0  0
   41.5740   33.5990   39.1920 C   0  0  1  0  0  0  0  0  0  0  0  0
   43.6960   33.6700   38.8880 H   0  0  0  0  0  0  0  0  0  0  0  0
   43.7450   36.0390   40.0830 H   0  0  0  0  0  0  0  0  0  0  0  0
   40.0190   36.3470   40.1440 H   0  0  0  0  0  0  0  0  0  0  0  0
   41.3160   36.7250   38.9840 H   0  0  0  0  0  0  0  0  0  0  0  0
   39.4980   34.3020   39.2320 H   0  0  0  0  0  0  0  0  0  0  0  0
   41.3350   33.5160   40.2970 H   0  0  0  0  0  0  0  0  0  0  0  0
   42.7360   35.1940   37.8480 O   0  0  0  0  0  0  0  0  0  0  0  0
   43.2110   34.8250   37.0540 H   0  0  0  0  0  0  0  0  0  0  0  0
   40.5450   34.9130   37.5340 O   0  0  0  0  0  0  0  0  0  0  0  0
   40.7420   34.1350   36.9840 H   0  0  0  0  0  0  0  0  0  0  0  0
   43.4650   34.2780   41.2170 O   0  0  0  0  0  0  0  0  0  0  0  0
   44.6130   34.3520   41.9010 C   0  0  0  0  0  0  0  0  0  0  0  0
   45.8390   34.5040   41.2380 C   0  0  0  0  0  0  0  0  0  0  0  0
   46.9990   34.5770   41.9880 C   0  0  0  0  0  0  0  0  0  0  0  0
   46.9150   34.4990   43.3690 N   0  0  0  0  0  0  0  0  0  0  0  0
   45.7150   34.3520   43.9710 C   0  0  0  0  0  0  0  0  0  0  0  0
   44.5720   34.2790   43.2410 N   0  0  0  0  0  0  0  0  0  0  0  0
   45.8980   34.5630   40.1780 H   0  0  0  0  0  0  0  0  0  0  0  0
   45.6290   34.2880   45.0530 H   0  0  0  0  0  0  0  0  0  0  0  0
   48.3460   34.7110   41.3410 C   0  0  0  0  0  0  0  0  0  0  0  0
   49.0680   36.0410   41.5460 C   0  0  0  0  0  0  0  0  0  0  0  0
   49.5350   34.6980   42.1360 C   0  0  0  0  0  0  0  0  0  0  0  0
   48.3370   34.2960   40.3200 H   0  0  0  0  0  0  0  0  0  0  0  0
   48.5740   36.7610   42.2120 H   0  0  0  0  0  0  0  0  0  0  0  0
   49.5930   36.3890   40.6430 H   0  0  0  0  0  0  0  0  0  0  0  0
   50.4740   34.3300   41.7200 H   0  0  0  0  0  0  0  0  0  0  0  0
   49.5110   34.7060   43.2560 H   0  0  0  0  0  0  0  0  0  0  0  0
   41.3350   32.5580   38.3760 O   0  0  0  0  0  0  0  0  0  0  0  0
   40.4740   31.5390   38.4750 C   0  0  0  0  0  0  0  0  0  0  0  0
   40.3440   30.6450   37.4960 O   0  0  0  0  0  0  0  0  0  0  0  0
   39.5100   31.1070   39.5550 C   0  0  0  0  0  0  0  0  0  0  0  0
   39.9370   30.6900   40.7540 N   0  0  0  0  0  0  0  0  0  0  0  0
   38.8810   30.3740   41.5300 C   0  0  0  0  0  0  0  0  0  0  0  0
   38.9780   30.0190   42.5280 H   0  0  0  0  0  0  0  0  0  0  0  0
   37.7820   30.6000   40.8000 N   0  0  0  0  0  0  0  0  0  0  0  0
   36.7890   30.4650   41.0800 H   0  0  0  0  0  0  0  0  0  0  0  0
   38.1700   31.0350   39.6270 N   0  0  0  0  0  0  0  0  0  0  0  0
  1  7  1  6  0  0  0
  1  6  1  0  0  0  0
  1  2  1  0  0  0  0
  2  8  1  6  0  0  0
  2  3  1  0  0  0  0
  2 17  1  0  0  0  0
  4  9  1  0  0  0  0
  4  3  1  0  0  0  0
  5  6  1  0  0  0  0
  5 11  1  1  0  0  0
  5  4  1  0  0  0  0
  6 12  1  1  0  0  0
 10  4  1  0  0  0  0
 13  1  1  0  0  0  0
 14 13  1  0  0  0  0
 15  5  1  0  0  0  0
 16 15  1  0  0  0  0
 17 18  1  0  0  0  0
 18 23  1  0  0  0  0
 19 18  2  0  0  0  0
 19 20  1  0  0  0  0
 20 21  2  0  0  0  0
 21 22  1  0  0  0  0
 22 25  1  0  0  0  0
 23 22  2  0  0  0  0
 24 19  1  0  0  0  0
 26 27  1  0  0  0  0
 26 20  1  0  0  0  0
 26 28  1  0  0  0  0
 27 28  1  0  0  0  0
 27 30  1  0  0  0  0
 28 33  1  0  0  0  0
 29 26  1  0  0  0  0
 31 27  1  0  0  0  0
 32 28  1  0  0  0  0
 34 35  1  0  0  0  0
 34  6  1  0  0  0  0
 35 37  1  0  0  0  0
 36 35  2  0  0  0  0
 37 43  2  0  0  0  0
 37 38  1  0  0  0  0
 38 39  2  0  0  0  0
 39 40  1  0  0  0  0
 41 42  1  0  0  0  0
 41 39  1  0  0  0  0
 43 41  1  0  0  0  0
M  END
>  <minimizedAffinity>
-6.03233242

>  <minimizedRMSD>
1.86864185

$$$$
