
 OpenBabel03242523533D

 43 46  0  0  1  0  0  0  0  0999 V2000
   42.8110   34.5230   38.7430 C   0  0  1  0  0  0  0  0  0  0  0  0
   42.9510   35.1810   40.1060 C   0  0  1  0  0  0  0  0  0  0  0  0
   41.6600   35.3970   40.6260 O   0  0  0  0  0  0  0  0  0  0  0  0
   40.7320   35.7380   39.6380 C   0  0  0  0  0  0  0  0  0  0  0  0
   40.4320   34.5710   38.7170 C   0  0  2  0  0  0  0  0  0  0  0  0
   41.6490   33.5900   38.8460 C   0  0  1  0  0  0  0  0  0  0  0  0
   43.7420   33.9540   38.5530 H   0  0  0  0  0  0  0  0  0  0  0  0
   43.5370   36.1140   40.0810 H   0  0  0  0  0  0  0  0  0  0  0  0
   39.8020   35.9670   40.1920 H   0  0  0  0  0  0  0  0  0  0  0  0
   41.0240   36.6600   39.0980 H   0  0  0  0  0  0  0  0  0  0  0  0
   39.5060   34.0290   38.9920 H   0  0  0  0  0  0  0  0  0  0  0  0
   41.4420   33.3190   39.9280 H   0  0  0  0  0  0  0  0  0  0  0  0
   42.5920   35.4880   37.7480 O   0  0  0  0  0  0  0  0  0  0  0  0
   43.0920   35.2970   36.9080 H   0  0  0  0  0  0  0  0  0  0  0  0
   40.4430   34.9990   37.4000 O   0  0  0  0  0  0  0  0  0  0  0  0
   40.7190   34.3380   36.7420 H   0  0  0  0  0  0  0  0  0  0  0  0
   43.4860   34.1870   40.9450 O   0  0  0  0  0  0  0  0  0  0  0  0
   44.5900   34.3230   41.6900 C   0  0  0  0  0  0  0  0  0  0  0  0
   45.8530   34.4370   41.0910 C   0  0  0  0  0  0  0  0  0  0  0  0
   46.9650   34.5780   41.9010 C   0  0  0  0  0  0  0  0  0  0  0  0
   46.7990   34.6020   43.2770 N   0  0  0  0  0  0  0  0  0  0  0  0
   45.5660   34.4890   43.8150 C   0  0  0  0  0  0  0  0  0  0  0  0
   44.4690   34.3500   43.0260 N   0  0  0  0  0  0  0  0  0  0  0  0
   45.9750   34.4180   40.0350 H   0  0  0  0  0  0  0  0  0  0  0  0
   45.4160   34.5060   44.8920 H   0  0  0  0  0  0  0  0  0  0  0  0
   48.3480   34.6770   41.3270 C   0  0  0  0  0  0  0  0  0  0  0  0
   49.0660   36.0120   41.5120 C   0  0  0  0  0  0  0  0  0  0  0  0
   49.4890   34.6960   42.1890 C   0  0  0  0  0  0  0  0  0  0  0  0
   48.3940   34.2160   40.3270 H   0  0  0  0  0  0  0  0  0  0  0  0
   48.5390   36.7640   42.1150 H   0  0  0  0  0  0  0  0  0  0  0  0
   49.6440   36.3160   40.6260 H   0  0  0  0  0  0  0  0  0  0  0  0
   50.4480   34.3060   41.8450 H   0  0  0  0  0  0  0  0  0  0  0  0
   49.4020   34.7560   43.3040 H   0  0  0  0  0  0  0  0  0  0  0  0
   41.5180   32.6570   37.8870 O   0  0  0  0  0  0  0  0  0  0  0  0
   40.8880   31.4770   37.8840 C   0  0  0  0  0  0  0  0  0  0  0  0
   39.6220   31.3690   37.4860 O   0  0  0  0  0  0  0  0  0  0  0  0
   41.3190   30.0780   38.2620 C   0  0  0  0  0  0  0  0  0  0  0  0
   41.6860   29.1820   37.3370 N   0  0  0  0  0  0  0  0  0  0  0  0
   42.0320   28.0250   37.9370 C   0  0  0  0  0  0  0  0  0  0  0  0
   42.3590   27.1660   37.3990 H   0  0  0  0  0  0  0  0  0  0  0  0
   41.8760   28.2080   39.2530 N   0  0  0  0  0  0  0  0  0  0  0  0
   42.0500   27.5260   40.0200 H   0  0  0  0  0  0  0  0  0  0  0  0
   41.4510   29.4350   39.4330 N   0  0  0  0  0  0  0  0  0  0  0  0
  1  7  1  6  0  0  0
  1  6  1  0  0  0  0
  1  2  1  0  0  0  0
  2  8  1  6  0  0  0
  2  3  1  0  0  0  0
  2 17  1  0  0  0  0
  4  9  1  0  0  0  0
  4  3  1  0  0  0  0
  5  6  1  0  0  0  0
  5 11  1  1  0  0  0
  5  4  1  0  0  0  0
  6 12  1  1  0  0  0
 10  4  1  0  0  0  0
 13  1  1  0  0  0  0
 14 13  1  0  0  0  0
 15  5  1  0  0  0  0
 16 15  1  0  0  0  0
 17 18  1  0  0  0  0
 18 23  1  0  0  0  0
 19 18  2  0  0  0  0
 19 20  1  0  0  0  0
 20 21  2  0  0  0  0
 21 22  1  0  0  0  0
 22 25  1  0  0  0  0
 23 22  2  0  0  0  0
 24 19  1  0  0  0  0
 26 27  1  0  0  0  0
 26 20  1  0  0  0  0
 26 28  1  0  0  0  0
 27 30  1  0  0  0  0
 27 28  1  0  0  0  0
 28 33  1  0  0  0  0
 29 26  1  0  0  0  0
 31 27  1  0  0  0  0
 32 28  1  0  0  0  0
 34  6  1  0  0  0  0
 35 34  1  0  0  0  0
 35 37  1  0  0  0  0
 36 35  2  0  0  0  0
 37 43  2  0  0  0  0
 38 39  2  0  0  0  0
 38 37  1  0  0  0  0
 39 41  1  0  0  0  0
 40 39  1  0  0  0  0
 41 43  1  0  0  0  0
 41 42  1  0  0  0  0
M  END
>  <minimizedAffinity>
-5.59085369

>  <minimizedRMSD>
0.100460574

$$$$
