
 OpenBabel03242523533D

 43 46  0  0  1  0  0  0  0  0999 V2000
   42.8040   34.3510   38.9290 C   0  0  1  0  0  0  0  0  0  0  0  0
   43.0040   35.1730   40.1920 C   0  0  1  0  0  0  0  0  0  0  0  0
   41.7380   35.5750   40.6610 O   0  0  0  0  0  0  0  0  0  0  0  0
   40.8450   35.8620   39.6250 C   0  0  0  0  0  0  0  0  0  0  0  0
   40.4390   34.6130   38.8660 C   0  0  2  0  0  0  0  0  0  0  0  0
   41.5610   33.5510   39.1420 C   0  0  1  0  0  0  0  0  0  0  0  0
   43.6790   33.6790   38.8300 H   0  0  0  0  0  0  0  0  0  0  0  0
   43.6730   36.0360   40.0500 H   0  0  0  0  0  0  0  0  0  0  0  0
   39.9400   36.2480   40.1300 H   0  0  0  0  0  0  0  0  0  0  0  0
   41.2220   36.6710   38.9680 H   0  0  0  0  0  0  0  0  0  0  0  0
   39.4670   34.2000   39.1990 H   0  0  0  0  0  0  0  0  0  0  0  0
   41.3290   33.4500   40.2480 H   0  0  0  0  0  0  0  0  0  0  0  0
   42.6760   35.1890   37.8100 O   0  0  0  0  0  0  0  0  0  0  0  0
   43.1560   34.8400   37.0100 H   0  0  0  0  0  0  0  0  0  0  0  0
   40.4910   34.8550   37.5030 O   0  0  0  0  0  0  0  0  0  0  0  0
   40.7050   34.0890   36.9440 H   0  0  0  0  0  0  0  0  0  0  0  0
   43.4430   34.2570   41.1660 O   0  0  0  0  0  0  0  0  0  0  0  0
   44.5860   34.3610   41.8560 C   0  0  0  0  0  0  0  0  0  0  0  0
   45.8170   34.4910   41.1970 C   0  0  0  0  0  0  0  0  0  0  0  0
   46.9700   34.5960   41.9530 C   0  0  0  0  0  0  0  0  0  0  0  0
   46.8750   34.5710   43.3360 N   0  0  0  0  0  0  0  0  0  0  0  0
   45.6710   34.4440   43.9330 C   0  0  0  0  0  0  0  0  0  0  0  0
   44.5330   34.3390   43.1970 N   0  0  0  0  0  0  0  0  0  0  0  0
   45.8840   34.5100   40.1360 H   0  0  0  0  0  0  0  0  0  0  0  0
   45.5760   34.4220   45.0160 H   0  0  0  0  0  0  0  0  0  0  0  0
   48.3220   34.7100   41.3130 C   0  0  0  0  0  0  0  0  0  0  0  0
   49.0630   36.0290   41.5210 C   0  0  0  0  0  0  0  0  0  0  0  0
   49.5060   34.6790   42.1130 C   0  0  0  0  0  0  0  0  0  0  0  0
   48.3110   34.2950   40.2910 H   0  0  0  0  0  0  0  0  0  0  0  0
   48.5780   36.7560   42.1850 H   0  0  0  0  0  0  0  0  0  0  0  0
   49.5980   36.3680   40.6200 H   0  0  0  0  0  0  0  0  0  0  0  0
   50.4420   34.2960   41.7020 H   0  0  0  0  0  0  0  0  0  0  0  0
   49.4780   34.6870   43.2330 H   0  0  0  0  0  0  0  0  0  0  0  0
   41.3450   32.5130   38.3170 O   0  0  0  0  0  0  0  0  0  0  0  0
   40.4520   31.5170   38.3660 C   0  0  0  0  0  0  0  0  0  0  0  0
   39.5190   31.3770   37.4270 O   0  0  0  0  0  0  0  0  0  0  0  0
   40.2280   30.3820   39.3380 C   0  0  0  0  0  0  0  0  0  0  0  0
   40.5200   30.5020   40.6390 N   0  0  0  0  0  0  0  0  0  0  0  0
   40.2190   29.3550   41.2810 C   0  0  0  0  0  0  0  0  0  0  0  0
   40.3670   29.2180   42.3260 H   0  0  0  0  0  0  0  0  0  0  0  0
   39.7350   28.5110   40.3630 N   0  0  0  0  0  0  0  0  0  0  0  0
   39.4020   27.5350   40.5020 H   0  0  0  0  0  0  0  0  0  0  0  0
   39.7460   29.1360   39.2100 N   0  0  0  0  0  0  0  0  0  0  0  0
  1  7  1  6  0  0  0
  1  6  1  0  0  0  0
  1  2  1  0  0  0  0
  2  8  1  6  0  0  0
  2  3  1  0  0  0  0
  2 17  1  0  0  0  0
  4  9  1  0  0  0  0
  4  3  1  0  0  0  0
  5  6  1  0  0  0  0
  5 11  1  1  0  0  0
  5  4  1  0  0  0  0
  6 12  1  1  0  0  0
 10  4  1  0  0  0  0
 13  1  1  0  0  0  0
 14 13  1  0  0  0  0
 15  5  1  0  0  0  0
 16 15  1  0  0  0  0
 17 18  1  0  0  0  0
 18 23  1  0  0  0  0
 19 18  2  0  0  0  0
 19 20  1  0  0  0  0
 20 21  2  0  0  0  0
 21 22  1  0  0  0  0
 22 25  1  0  0  0  0
 23 22  2  0  0  0  0
 24 19  1  0  0  0  0
 26 27  1  0  0  0  0
 26 20  1  0  0  0  0
 26 28  1  0  0  0  0
 27 28  1  0  0  0  0
 27 30  1  0  0  0  0
 28 33  1  0  0  0  0
 29 26  1  0  0  0  0
 31 27  1  0  0  0  0
 32 28  1  0  0  0  0
 34 35  1  0  0  0  0
 34  6  1  0  0  0  0
 35 37  1  0  0  0  0
 36 35  2  0  0  0  0
 37 38  1  0  0  0  0
 38 39  2  0  0  0  0
 39 40  1  0  0  0  0
 41 42  1  0  0  0  0
 41 39  1  0  0  0  0
 43 37  2  0  0  0  0
 43 41  1  0  0  0  0
M  END
>  <minimizedAffinity>
-5.80875063

>  <minimizedRMSD>
1.08380461

$$$$
