
 OpenBabel03242523533D

 43 46  0  0  1  0  0  0  0  0999 V2000
   42.8080   34.4670   38.7870 C   0  0  1  0  0  0  0  0  0  0  0  0
   42.9660   35.1790   40.1210 C   0  0  1  0  0  0  0  0  0  0  0  0
   41.6810   35.4440   40.6330 O   0  0  0  0  0  0  0  0  0  0  0  0
   40.7580   35.7640   39.6340 C   0  0  0  0  0  0  0  0  0  0  0  0
   40.4310   34.5660   38.7630 C   0  0  2  0  0  0  0  0  0  0  0  0
   41.6270   33.5650   38.9310 C   0  0  1  0  0  0  0  0  0  0  0  0
   43.7270   33.8710   38.6200 H   0  0  0  0  0  0  0  0  0  0  0  0
   43.5710   36.0970   40.0570 H   0  0  0  0  0  0  0  0  0  0  0  0
   39.8350   36.0360   40.1790 H   0  0  0  0  0  0  0  0  0  0  0  0
   41.0690   36.6550   39.0540 H   0  0  0  0  0  0  0  0  0  0  0  0
   39.4940   34.0560   39.0610 H   0  0  0  0  0  0  0  0  0  0  0  0
   41.4160   33.3440   40.0230 H   0  0  0  0  0  0  0  0  0  0  0  0
   42.6080   35.3950   37.7530 O   0  0  0  0  0  0  0  0  0  0  0  0
   43.1020   35.1580   36.9210 H   0  0  0  0  0  0  0  0  0  0  0  0
   40.4480   34.9380   37.4290 O   0  0  0  0  0  0  0  0  0  0  0  0
   40.7080   34.2450   36.7980 H   0  0  0  0  0  0  0  0  0  0  0  0
   43.4810   34.2090   41.0010 O   0  0  0  0  0  0  0  0  0  0  0  0
   44.5950   34.3480   41.7300 C   0  0  0  0  0  0  0  0  0  0  0  0
   45.8500   34.4580   41.1140 C   0  0  0  0  0  0  0  0  0  0  0  0
   46.9720   34.6020   41.9090 C   0  0  0  0  0  0  0  0  0  0  0  0
   46.8250   34.6350   43.2870 N   0  0  0  0  0  0  0  0  0  0  0  0
   45.5980   34.5250   43.8410 C   0  0  0  0  0  0  0  0  0  0  0  0
   44.4910   34.3830   43.0680 N   0  0  0  0  0  0  0  0  0  0  0  0
   45.9580   34.4320   40.0560 H   0  0  0  0  0  0  0  0  0  0  0  0
   45.4620   34.5490   44.9200 H   0  0  0  0  0  0  0  0  0  0  0  0
   48.3480   34.6960   41.3160 C   0  0  0  0  0  0  0  0  0  0  0  0
   49.0790   36.0240   41.5050 C   0  0  0  0  0  0  0  0  0  0  0  0
   49.5010   34.6970   42.1620 C   0  0  0  0  0  0  0  0  0  0  0  0
   48.3770   34.2450   40.3110 H   0  0  0  0  0  0  0  0  0  0  0  0
   48.5670   36.7730   42.1230 H   0  0  0  0  0  0  0  0  0  0  0  0
   49.6470   36.3320   40.6140 H   0  0  0  0  0  0  0  0  0  0  0  0
   50.4520   34.3030   41.8010 H   0  0  0  0  0  0  0  0  0  0  0  0
   49.4300   34.7460   43.2790 H   0  0  0  0  0  0  0  0  0  0  0  0
   41.4740   32.5960   38.0120 O   0  0  0  0  0  0  0  0  0  0  0  0
   40.8840   31.3970   38.0840 C   0  0  0  0  0  0  0  0  0  0  0  0
   39.8330   31.0960   37.3240 O   0  0  0  0  0  0  0  0  0  0  0  0
   41.1610   30.1610   38.9090 C   0  0  0  0  0  0  0  0  0  0  0  0
   42.3600   29.9380   39.4620 N   0  0  0  0  0  0  0  0  0  0  0  0
   42.3360   28.7770   40.1480 C   0  0  0  0  0  0  0  0  0  0  0  0
   43.1790   28.3950   40.6720 H   0  0  0  0  0  0  0  0  0  0  0  0
   41.1030   28.2740   40.0180 N   0  0  0  0  0  0  0  0  0  0  0  0
   40.7270   27.3900   40.4160 H   0  0  0  0  0  0  0  0  0  0  0  0
   40.4140   29.1080   39.2770 N   0  0  0  0  0  0  0  0  0  0  0  0
  1  7  1  6  0  0  0
  1  6  1  0  0  0  0
  1  2  1  0  0  0  0
  2  8  1  6  0  0  0
  2  3  1  0  0  0  0
  2 17  1  0  0  0  0
  4  9  1  0  0  0  0
  4  3  1  0  0  0  0
  5  6  1  0  0  0  0
  5 11  1  1  0  0  0
  5  4  1  0  0  0  0
  6 12  1  1  0  0  0
 10  4  1  0  0  0  0
 13  1  1  0  0  0  0
 14 13  1  0  0  0  0
 15  5  1  0  0  0  0
 16 15  1  0  0  0  0
 17 18  1  0  0  0  0
 18 23  1  0  0  0  0
 19 18  2  0  0  0  0
 19 20  1  0  0  0  0
 20 21  2  0  0  0  0
 21 22  1  0  0  0  0
 22 25  1  0  0  0  0
 23 22  2  0  0  0  0
 24 19  1  0  0  0  0
 26 27  1  0  0  0  0
 26 20  1  0  0  0  0
 26 28  1  0  0  0  0
 27 30  1  0  0  0  0
 27 28  1  0  0  0  0
 28 33  1  0  0  0  0
 29 26  1  0  0  0  0
 31 27  1  0  0  0  0
 32 28  1  0  0  0  0
 34 35  1  0  0  0  0
 34  6  1  0  0  0  0
 35 37  1  0  0  0  0
 36 35  2  0  0  0  0
 37 43  2  0  0  0  0
 37 38  1  0  0  0  0
 38 39  2  0  0  0  0
 39 40  1  0  0  0  0
 41 39  1  0  0  0  0
 41 42  1  0  0  0  0
 43 41  1  0  0  0  0
M  END
>  <minimizedAffinity>
-5.62052107

>  <minimizedRMSD>
0.480488569

$$$$
