
 OpenBabel03242523533D

 43 46  0  0  1  0  0  0  0  0999 V2000
   42.8170   34.4730   38.7530 C   0  0  1  0  0  0  0  0  0  0  0  0
   42.9900   35.1700   40.0940 C   0  0  1  0  0  0  0  0  0  0  0  0
   41.7110   35.4450   40.6160 O   0  0  0  0  0  0  0  0  0  0  0  0
   40.7860   35.7850   39.6250 C   0  0  0  0  0  0  0  0  0  0  0  0
   40.4400   34.6000   38.7440 C   0  0  2  0  0  0  0  0  0  0  0  0
   41.6250   33.5840   38.8950 C   0  0  1  0  0  0  0  0  0  0  0  0
   43.7270   33.8680   38.5750 H   0  0  0  0  0  0  0  0  0  0  0  0
   43.6060   36.0810   40.0350 H   0  0  0  0  0  0  0  0  0  0  0  0
   39.8690   36.0630   40.1780 H   0  0  0  0  0  0  0  0  0  0  0  0
   41.1040   36.6790   39.0530 H   0  0  0  0  0  0  0  0  0  0  0  0
   39.4990   34.0980   39.0430 H   0  0  0  0  0  0  0  0  0  0  0  0
   41.4180   33.3540   39.9860 H   0  0  0  0  0  0  0  0  0  0  0  0
   42.6210   35.4140   37.7290 O   0  0  0  0  0  0  0  0  0  0  0  0
   43.1080   35.1790   36.8930 H   0  0  0  0  0  0  0  0  0  0  0  0
   40.4540   34.9850   37.4130 O   0  0  0  0  0  0  0  0  0  0  0  0
   40.7030   34.2950   36.7750 H   0  0  0  0  0  0  0  0  0  0  0  0
   43.4980   34.1850   40.9610 O   0  0  0  0  0  0  0  0  0  0  0  0
   44.6060   34.3130   41.7020 C   0  0  0  0  0  0  0  0  0  0  0  0
   45.8650   34.4420   41.1000 C   0  0  0  0  0  0  0  0  0  0  0  0
   46.9800   34.5730   41.9080 C   0  0  0  0  0  0  0  0  0  0  0  0
   46.8200   34.5750   43.2840 N   0  0  0  0  0  0  0  0  0  0  0  0
   45.5900   34.4490   43.8260 C   0  0  0  0  0  0  0  0  0  0  0  0
   44.4900   34.3190   43.0390 N   0  0  0  0  0  0  0  0  0  0  0  0
   45.9830   34.4400   40.0430 H   0  0  0  0  0  0  0  0  0  0  0  0
   45.4440   34.4480   44.9030 H   0  0  0  0  0  0  0  0  0  0  0  0
   48.3600   34.6860   41.3290 C   0  0  0  0  0  0  0  0  0  0  0  0
   49.0690   36.0260   41.5210 C   0  0  0  0  0  0  0  0  0  0  0  0
   49.5040   34.7080   42.1870 C   0  0  0  0  0  0  0  0  0  0  0  0
   48.4070   34.2330   40.3260 H   0  0  0  0  0  0  0  0  0  0  0  0
   48.5400   36.7690   42.1310 H   0  0  0  0  0  0  0  0  0  0  0  0
   49.6420   36.3400   40.6350 H   0  0  0  0  0  0  0  0  0  0  0  0
   50.4650   34.3270   41.8370 H   0  0  0  0  0  0  0  0  0  0  0  0
   49.4210   34.7590   43.3030 H   0  0  0  0  0  0  0  0  0  0  0  0
   41.4560   32.6260   37.9670 O   0  0  0  0  0  0  0  0  0  0  0  0
   40.7120   31.5140   37.9740 C   0  0  0  0  0  0  0  0  0  0  0  0
   40.8380   30.5910   37.0210 O   0  0  0  0  0  0  0  0  0  0  0  0
   39.6490   30.9910   38.9120 C   0  0  0  0  0  0  0  0  0  0  0  0
   38.5620   30.3520   38.4600 N   0  0  0  0  0  0  0  0  0  0  0  0
   37.7860   29.9840   39.4980 C   0  0  0  0  0  0  0  0  0  0  0  0
   36.8650   29.4610   39.3790 H   0  0  0  0  0  0  0  0  0  0  0  0
   38.4000   30.4010   40.6110 N   0  0  0  0  0  0  0  0  0  0  0  0
   38.0860   30.2890   41.5970 H   0  0  0  0  0  0  0  0  0  0  0  0
   39.5090   30.9980   40.2480 N   0  0  0  0  0  0  0  0  0  0  0  0
  1  7  1  6  0  0  0
  1  6  1  0  0  0  0
  1  2  1  0  0  0  0
  2  8  1  6  0  0  0
  2  3  1  0  0  0  0
  2 17  1  0  0  0  0
  4  9  1  0  0  0  0
  4  3  1  0  0  0  0
  5  6  1  0  0  0  0
  5 11  1  1  0  0  0
  5  4  1  0  0  0  0
  6 12  1  1  0  0  0
 10  4  1  0  0  0  0
 13  1  1  0  0  0  0
 14 13  1  0  0  0  0
 15  5  1  0  0  0  0
 16 15  1  0  0  0  0
 17 18  1  0  0  0  0
 18 23  1  0  0  0  0
 19 18  2  0  0  0  0
 19 20  1  0  0  0  0
 20 21  2  0  0  0  0
 21 22  1  0  0  0  0
 22 25  1  0  0  0  0
 23 22  2  0  0  0  0
 24 19  1  0  0  0  0
 26 27  1  0  0  0  0
 26 20  1  0  0  0  0
 26 28  1  0  0  0  0
 27 30  1  0  0  0  0
 27 28  1  0  0  0  0
 28 33  1  0  0  0  0
 29 26  1  0  0  0  0
 31 27  1  0  0  0  0
 32 28  1  0  0  0  0
 34 35  1  0  0  0  0
 34  6  1  0  0  0  0
 35 37  1  0  0  0  0
 36 35  2  0  0  0  0
 37 43  2  0  0  0  0
 38 37  1  0  0  0  0
 38 39  2  0  0  0  0
 39 41  1  0  0  0  0
 40 39  1  0  0  0  0
 41 42  1  0  0  0  0
 43 41  1  0  0  0  0
M  END
>  <minimizedAffinity>
-6.0383811

>  <minimizedRMSD>
1.64012003

$$$$
