
 OpenBabel03242523533D

 43 46  0  0  1  0  0  0  0  0999 V2000
   42.8140   34.4880   38.7650 C   0  0  1  0  0  0  0  0  0  0  0  0
   42.9670   35.1780   40.1110 C   0  0  1  0  0  0  0  0  0  0  0  0
   41.6800   35.4220   40.6290 O   0  0  0  0  0  0  0  0  0  0  0  0
   40.7520   35.7490   39.6360 C   0  0  0  0  0  0  0  0  0  0  0  0
   40.4360   34.5640   38.7460 C   0  0  2  0  0  0  0  0  0  0  0  0
   41.6410   33.5720   38.8950 C   0  0  1  0  0  0  0  0  0  0  0  0
   43.7380   33.9030   38.5860 H   0  0  0  0  0  0  0  0  0  0  0  0
   43.5630   36.1030   40.0610 H   0  0  0  0  0  0  0  0  0  0  0  0
   39.8270   36.0030   40.1870 H   0  0  0  0  0  0  0  0  0  0  0  0
   41.0540   36.6540   39.0720 H   0  0  0  0  0  0  0  0  0  0  0  0
   39.5040   34.0390   39.0370 H   0  0  0  0  0  0  0  0  0  0  0  0
   41.4350   33.3300   39.9840 H   0  0  0  0  0  0  0  0  0  0  0  0
   42.6030   35.4310   37.7460 O   0  0  0  0  0  0  0  0  0  0  0  0
   43.0980   35.2130   36.9100 H   0  0  0  0  0  0  0  0  0  0  0  0
   40.4470   34.9580   37.4180 O   0  0  0  0  0  0  0  0  0  0  0  0
   40.7130   34.2780   36.7760 H   0  0  0  0  0  0  0  0  0  0  0  0
   43.4920   34.1980   40.9730 O   0  0  0  0  0  0  0  0  0  0  0  0
   44.6010   34.3400   41.7100 C   0  0  0  0  0  0  0  0  0  0  0  0
   45.8600   34.4500   41.1030 C   0  0  0  0  0  0  0  0  0  0  0  0
   46.9770   34.5970   41.9060 C   0  0  0  0  0  0  0  0  0  0  0  0
   46.8190   34.6310   43.2830 N   0  0  0  0  0  0  0  0  0  0  0  0
   45.5880   34.5200   43.8280 C   0  0  0  0  0  0  0  0  0  0  0  0
   44.4870   34.3760   43.0470 N   0  0  0  0  0  0  0  0  0  0  0  0
   45.9760   34.4240   40.0460 H   0  0  0  0  0  0  0  0  0  0  0  0
   45.4440   34.5450   44.9060 H   0  0  0  0  0  0  0  0  0  0  0  0
   48.3560   34.6920   41.3240 C   0  0  0  0  0  0  0  0  0  0  0  0
   49.0800   36.0240   41.5070 C   0  0  0  0  0  0  0  0  0  0  0  0
   49.5030   34.7050   42.1780 C   0  0  0  0  0  0  0  0  0  0  0  0
   48.3950   34.2330   40.3220 H   0  0  0  0  0  0  0  0  0  0  0  0
   48.5600   36.7760   42.1150 H   0  0  0  0  0  0  0  0  0  0  0  0
   49.6540   36.3280   40.6170 H   0  0  0  0  0  0  0  0  0  0  0  0
   50.4580   34.3120   41.8270 H   0  0  0  0  0  0  0  0  0  0  0  0
   49.4230   34.7630   43.2940 H   0  0  0  0  0  0  0  0  0  0  0  0
   41.4960   32.6170   37.9600 O   0  0  0  0  0  0  0  0  0  0  0  0
   40.8130   31.4670   37.9720 C   0  0  0  0  0  0  0  0  0  0  0  0
   39.5970   31.3780   37.4360 O   0  0  0  0  0  0  0  0  0  0  0  0
   41.1290   30.0870   38.5030 C   0  0  0  0  0  0  0  0  0  0  0  0
   41.1200   29.8180   39.8140 N   0  0  0  0  0  0  0  0  0  0  0  0
   41.4250   28.5200   40.0140 C   0  0  0  0  0  0  0  0  0  0  0  0
   41.4780   28.0780   40.9820 H   0  0  0  0  0  0  0  0  0  0  0  0
   41.6260   27.9770   38.8080 N   0  0  0  0  0  0  0  0  0  0  0  0
   41.8790   26.9930   38.5820 H   0  0  0  0  0  0  0  0  0  0  0  0
   41.4460   28.9200   37.9170 N   0  0  0  0  0  0  0  0  0  0  0  0
  1  7  1  6  0  0  0
  1  6  1  0  0  0  0
  1  2  1  0  0  0  0
  2  8  1  6  0  0  0
  2  3  1  0  0  0  0
  2 17  1  0  0  0  0
  4  9  1  0  0  0  0
  4  3  1  0  0  0  0
  5  6  1  0  0  0  0
  5 11  1  1  0  0  0
  5  4  1  0  0  0  0
  6 12  1  1  0  0  0
 10  4  1  0  0  0  0
 13  1  1  0  0  0  0
 14 13  1  0  0  0  0
 15  5  1  0  0  0  0
 16 15  1  0  0  0  0
 17 18  1  0  0  0  0
 18 23  1  0  0  0  0
 19 18  2  0  0  0  0
 19 20  1  0  0  0  0
 20 21  2  0  0  0  0
 21 22  1  0  0  0  0
 22 25  1  0  0  0  0
 23 22  2  0  0  0  0
 24 19  1  0  0  0  0
 26 27  1  0  0  0  0
 26 20  1  0  0  0  0
 26 28  1  0  0  0  0
 27 30  1  0  0  0  0
 27 28  1  0  0  0  0
 28 33  1  0  0  0  0
 29 26  1  0  0  0  0
 31 27  1  0  0  0  0
 32 28  1  0  0  0  0
 34 35  1  0  0  0  0
 34  6  1  0  0  0  0
 35 37  1  0  0  0  0
 36 35  2  0  0  0  0
 37 38  1  0  0  0  0
 38 39  2  0  0  0  0
 39 40  1  0  0  0  0
 41 39  1  0  0  0  0
 42 41  1  0  0  0  0
 43 37  2  0  0  0  0
 43 41  1  0  0  0  0
M  END
>  <minimizedAffinity>
-5.62370872

>  <minimizedRMSD>
0.237900734

$$$$
