
 OpenBabel03242523533D

 43 46  0  0  1  0  0  0  0  0999 V2000
   42.8170   34.4870   38.7690 C   0  0  1  0  0  0  0  0  0  0  0  0
   42.9680   35.1760   40.1150 C   0  0  1  0  0  0  0  0  0  0  0  0
   41.6800   35.4210   40.6310 O   0  0  0  0  0  0  0  0  0  0  0  0
   40.7550   35.7500   39.6370 C   0  0  0  0  0  0  0  0  0  0  0  0
   40.4390   34.5660   38.7450 C   0  0  2  0  0  0  0  0  0  0  0  0
   41.6440   33.5720   38.8960 C   0  0  1  0  0  0  0  0  0  0  0  0
   43.7410   33.9020   38.5910 H   0  0  0  0  0  0  0  0  0  0  0  0
   43.5650   36.1010   40.0670 H   0  0  0  0  0  0  0  0  0  0  0  0
   39.8290   36.0050   40.1870 H   0  0  0  0  0  0  0  0  0  0  0  0
   41.0580   36.6550   39.0740 H   0  0  0  0  0  0  0  0  0  0  0  0
   39.5070   34.0420   39.0340 H   0  0  0  0  0  0  0  0  0  0  0  0
   41.4350   33.3300   39.9840 H   0  0  0  0  0  0  0  0  0  0  0  0
   42.6090   35.4310   37.7510 O   0  0  0  0  0  0  0  0  0  0  0  0
   43.1050   35.2140   36.9150 H   0  0  0  0  0  0  0  0  0  0  0  0
   40.4530   34.9610   37.4180 O   0  0  0  0  0  0  0  0  0  0  0  0
   40.7200   34.2810   36.7750 H   0  0  0  0  0  0  0  0  0  0  0  0
   43.4910   34.1960   40.9780 O   0  0  0  0  0  0  0  0  0  0  0  0
   44.6010   34.3340   41.7130 C   0  0  0  0  0  0  0  0  0  0  0  0
   45.8590   34.4490   41.1050 C   0  0  0  0  0  0  0  0  0  0  0  0
   46.9770   34.5910   41.9070 C   0  0  0  0  0  0  0  0  0  0  0  0
   46.8210   34.6180   43.2840 N   0  0  0  0  0  0  0  0  0  0  0  0
   45.5920   34.5040   43.8310 C   0  0  0  0  0  0  0  0  0  0  0  0
   44.4890   34.3630   43.0510 N   0  0  0  0  0  0  0  0  0  0  0  0
   45.9730   34.4280   40.0480 H   0  0  0  0  0  0  0  0  0  0  0  0
   45.4500   34.5220   44.9090 H   0  0  0  0  0  0  0  0  0  0  0  0
   48.3550   34.6910   41.3220 C   0  0  0  0  0  0  0  0  0  0  0  0
   49.0770   36.0240   41.5070 C   0  0  0  0  0  0  0  0  0  0  0  0
   49.5030   34.7040   42.1750 C   0  0  0  0  0  0  0  0  0  0  0  0
   48.3930   34.2340   40.3200 H   0  0  0  0  0  0  0  0  0  0  0  0
   48.5570   36.7740   42.1180 H   0  0  0  0  0  0  0  0  0  0  0  0
   49.6490   36.3310   40.6180 H   0  0  0  0  0  0  0  0  0  0  0  0
   50.4590   34.3140   41.8220 H   0  0  0  0  0  0  0  0  0  0  0  0
   49.4250   34.7590   43.2910 H   0  0  0  0  0  0  0  0  0  0  0  0
   41.4990   32.6180   37.9600 O   0  0  0  0  0  0  0  0  0  0  0  0
   40.8360   31.4570   37.9790 C   0  0  0  0  0  0  0  0  0  0  0  0
   39.6370   31.3340   37.4120 O   0  0  0  0  0  0  0  0  0  0  0  0
   41.1610   30.0940   38.5480 C   0  0  0  0  0  0  0  0  0  0  0  0
   40.4680   29.0030   38.2000 N   0  0  0  0  0  0  0  0  0  0  0  0
   40.9660   27.9250   38.8400 C   0  0  0  0  0  0  0  0  0  0  0  0
   40.5720   26.9440   38.7180 H   0  0  0  0  0  0  0  0  0  0  0  0
   41.9830   28.3560   39.5950 N   0  0  0  0  0  0  0  0  0  0  0  0
   42.5970   27.7970   40.2230 H   0  0  0  0  0  0  0  0  0  0  0  0
   42.0890   29.6500   39.4110 N   0  0  0  0  0  0  0  0  0  0  0  0
  1  7  1  6  0  0  0
  1  6  1  0  0  0  0
  1  2  1  0  0  0  0
  2  8  1  6  0  0  0
  2  3  1  0  0  0  0
  2 17  1  0  0  0  0
  4  9  1  0  0  0  0
  4  3  1  0  0  0  0
  5  6  1  0  0  0  0
  5 11  1  1  0  0  0
  5  4  1  0  0  0  0
  6 12  1  1  0  0  0
 10  4  1  0  0  0  0
 13  1  1  0  0  0  0
 14 13  1  0  0  0  0
 15  5  1  0  0  0  0
 16 15  1  0  0  0  0
 17 18  1  0  0  0  0
 18 23  1  0  0  0  0
 19 18  2  0  0  0  0
 19 20  1  0  0  0  0
 20 21  2  0  0  0  0
 21 22  1  0  0  0  0
 22 25  1  0  0  0  0
 23 22  2  0  0  0  0
 24 19  1  0  0  0  0
 26 27  1  0  0  0  0
 26 20  1  0  0  0  0
 26 28  1  0  0  0  0
 27 30  1  0  0  0  0
 27 28  1  0  0  0  0
 28 33  1  0  0  0  0
 29 26  1  0  0  0  0
 31 27  1  0  0  0  0
 32 28  1  0  0  0  0
 34 35  1  0  0  0  0
 34  6  1  0  0  0  0
 35 37  1  0  0  0  0
 36 35  2  0  0  0  0
 37 43  2  0  0  0  0
 38 37  1  0  0  0  0
 38 39  2  0  0  0  0
 39 41  1  0  0  0  0
 40 39  1  0  0  0  0
 41 42  1  0  0  0  0
 43 41  1  0  0  0  0
M  END
>  <minimizedAffinity>
-5.60089493

>  <minimizedRMSD>
0.239833921

$$$$
