
 OpenBabel03242523563D

 43 46  0  0  1  0  0  0  0  0999 V2000
   38.1170   32.2840   39.2740 C   0  0  1  0  0  0  0  0  0  0  0  0
   37.6130   30.9000   39.6520 C   0  0  1  0  0  0  0  0  0  0  0  0
   38.4340   29.9450   39.0200 O   0  0  0  0  0  0  0  0  0  0  0  0
   38.8530   30.3510   37.7500 C   0  0  0  0  0  0  0  0  0  0  0  0
   39.8320   31.5060   37.8200 C   0  0  2  0  0  0  0  0  0  0  0  0
   39.6060   32.1860   39.2160 C   0  0  1  0  0  0  0  0  0  0  0  0
   37.8110   32.9780   40.0810 H   0  0  0  0  0  0  0  0  0  0  0  0
   36.5510   30.7410   39.4090 H   0  0  0  0  0  0  0  0  0  0  0  0
   39.4000   29.4800   37.3420 H   0  0  0  0  0  0  0  0  0  0  0  0
   37.9960   30.5430   37.0740 H   0  0  0  0  0  0  0  0  0  0  0  0
   40.8890   31.1830   37.7480 H   0  0  0  0  0  0  0  0  0  0  0  0
   39.9780   31.2990   39.8170 H   0  0  0  0  0  0  0  0  0  0  0  0
   37.5910   32.6800   38.0350 O   0  0  0  0  0  0  0  0  0  0  0  0
   37.3250   33.6390   38.0170 H   0  0  0  0  0  0  0  0  0  0  0  0
   39.4910   32.4680   36.8840 O   0  0  0  0  0  0  0  0  0  0  0  0
   39.7130   33.3850   37.1170 H   0  0  0  0  0  0  0  0  0  0  0  0
   37.9220   30.7520   41.0170 O   0  0  0  0  0  0  0  0  0  0  0  0
   37.8620   29.6000   41.6960 C   0  0  0  0  0  0  0  0  0  0  0  0
   39.0020   29.0700   42.3180 C   0  0  0  0  0  0  0  0  0  0  0  0
   38.8900   27.8780   43.0100 C   0  0  0  0  0  0  0  0  0  0  0  0
   37.6590   27.2440   43.0700 N   0  0  0  0  0  0  0  0  0  0  0  0
   36.5850   27.7870   42.4570 C   0  0  0  0  0  0  0  0  0  0  0  0
   36.6860   28.9570   41.7750 N   0  0  0  0  0  0  0  0  0  0  0  0
   39.9440   29.5610   42.2700 H   0  0  0  0  0  0  0  0  0  0  0  0
   35.6110   27.3050   42.4920 H   0  0  0  0  0  0  0  0  0  0  0  0
   40.0760   27.2420   43.6740 C   0  0  0  0  0  0  0  0  0  0  0  0
   40.1680   25.7190   43.5840 C   0  0  0  0  0  0  0  0  0  0  0  0
   41.1370   26.6920   42.8880 C   0  0  0  0  0  0  0  0  0  0  0  0
   40.2710   27.7000   44.6570 H   0  0  0  0  0  0  0  0  0  0  0  0
   39.3990   25.2240   42.9770 H   0  0  0  0  0  0  0  0  0  0  0  0
   40.5260   25.2550   44.5160 H   0  0  0  0  0  0  0  0  0  0  0  0
   42.1560   26.6630   43.2770 H   0  0  0  0  0  0  0  0  0  0  0  0
   41.0790   26.6080   41.7720 H   0  0  0  0  0  0  0  0  0  0  0  0
   40.3020   33.3360   39.2220 O   0  0  0  0  0  0  0  0  0  0  0  0
   41.5780   33.5940   39.5300 C   0  0  0  0  0  0  0  0  0  0  0  0
   41.9680   33.7460   40.7940 O   0  0  0  0  0  0  0  0  0  0  0  0
   42.8250   33.7660   38.6930 C   0  0  0  0  0  0  0  0  0  0  0  0
   44.0390   33.8560   39.2510 N   0  0  0  0  0  0  0  0  0  0  0  0
   44.9730   33.9940   38.2870 C   0  0  0  0  0  0  0  0  0  0  0  0
   46.0130   34.0850   38.4950 H   0  0  0  0  0  0  0  0  0  0  0  0
   44.3270   33.9870   37.1160 N   0  0  0  0  0  0  0  0  0  0  0  0
   44.7310   34.0720   36.1600 H   0  0  0  0  0  0  0  0  0  0  0  0
   43.0490   33.8500   37.3720 N   0  0  0  0  0  0  0  0  0  0  0  0
  1  2  1  0  0  0  0
  1  7  1  1  0  0  0
  2  8  1  6  0  0  0
  2 17  1  0  0  0  0
  3  2  1  0  0  0  0
  4  5  1  0  0  0  0
  4  3  1  0  0  0  0
  5 11  1  6  0  0  0
  5  6  1  0  0  0  0
  6 34  1  0  0  0  0
  6  1  1  0  0  0  0
  6 12  1  1  0  0  0
  9  4  1  0  0  0  0
 10  4  1  0  0  0  0
 13  1  1  0  0  0  0
 14 13  1  0  0  0  0
 15 16  1  0  0  0  0
 15  5  1  0  0  0  0
 17 18  1  0  0  0  0
 18 23  2  0  0  0  0
 18 19  1  0  0  0  0
 19 20  2  0  0  0  0
 20 21  1  0  0  0  0
 20 26  1  0  0  0  0
 22 25  1  0  0  0  0
 22 21  2  0  0  0  0
 23 22  1  0  0  0  0
 24 19  1  0  0  0  0
 26 29  1  0  0  0  0
 27 26  1  0  0  0  0
 27 31  1  0  0  0  0
 28 32  1  0  0  0  0
 28 27  1  0  0  0  0
 28 26  1  0  0  0  0
 30 27  1  0  0  0  0
 33 28  1  0  0  0  0
 34 35  1  0  0  0  0
 35 36  2  0  0  0  0
 37 38  1  0  0  0  0
 37 35  1  0  0  0  0
 39 40  1  0  0  0  0
 39 38  2  0  0  0  0
 41 43  1  0  0  0  0
 41 39  1  0  0  0  0
 42 41  1  0  0  0  0
 43 37  2  0  0  0  0
M  END
>  <minimizedAffinity>
-6.09436131

$$$$

 OpenBabel03242523563D

 43 46  0  0  1  0  0  0  0  0999 V2000
   39.4890   30.4300   38.5830 C   0  0  1  0  0  0  0  0  0  0  0  0
   40.6460   29.4750   38.8270 C   0  0  1  0  0  0  0  0  0  0  0  0
   41.8400   30.1270   38.4580 O   0  0  0  0  0  0  0  0  0  0  0  0
   41.6790   30.9590   37.3470 C   0  0  0  0  0  0  0  0  0  0  0  0
   40.8280   32.1720   37.6680 C   0  0  2  0  0  0  0  0  0  0  0  0
   39.9880   31.7920   38.9370 C   0  0  1  0  0  0  0  0  0  0  0  0
   38.6670   30.1350   39.2650 H   0  0  0  0  0  0  0  0  0  0  0  0
   40.5350   28.5120   38.3030 H   0  0  0  0  0  0  0  0  0  0  0  0
   42.6980   31.3230   37.1170 H   0  0  0  0  0  0  0  0  0  0  0  0
   41.3260   30.3980   36.4590 H   0  0  0  0  0  0  0  0  0  0  0  0
   41.4280   33.0750   37.8940 H   0  0  0  0  0  0  0  0  0  0  0  0
   40.8840   31.7280   39.6300 H   0  0  0  0  0  0  0  0  0  0  0  0
   39.0800   30.3790   37.2400 O   0  0  0  0  0  0  0  0  0  0  0  0
   38.0910   30.4100   37.1370 H   0  0  0  0  0  0  0  0  0  0  0  0
   39.8990   32.3730   36.6600 O   0  0  0  0  0  0  0  0  0  0  0  0
   39.0580   32.7770   36.9330 H   0  0  0  0  0  0  0  0  0  0  0  0
   40.7470   29.3630   40.2250 O   0  0  0  0  0  0  0  0  0  0  0  0
   39.7580   28.9660   41.0360 C   0  0  0  0  0  0  0  0  0  0  0  0
   38.9750   27.8460   40.7230 C   0  0  0  0  0  0  0  0  0  0  0  0
   37.9660   27.4730   41.5920 C   0  0  0  0  0  0  0  0  0  0  0  0
   37.7600   28.2150   42.7440 N   0  0  0  0  0  0  0  0  0  0  0  0
   38.5360   29.2880   43.0100 C   0  0  0  0  0  0  0  0  0  0  0  0
   39.5280   29.6610   42.1610 N   0  0  0  0  0  0  0  0  0  0  0  0
   39.1380   27.2800   39.8370 H   0  0  0  0  0  0  0  0  0  0  0  0
   38.3890   29.8820   43.9090 H   0  0  0  0  0  0  0  0  0  0  0  0
   37.0730   26.3030   41.3030 C   0  0  0  0  0  0  0  0  0  0  0  0
   37.7530   25.0490   40.7550 C   0  0  0  0  0  0  0  0  0  0  0  0
   37.1000   25.1470   42.1450 C   0  0  0  0  0  0  0  0  0  0  0  0
   36.1430   26.6280   40.8090 H   0  0  0  0  0  0  0  0  0  0  0  0
   38.8480   25.0840   40.6880 H   0  0  0  0  0  0  0  0  0  0  0  0
   37.1630   24.5490   39.9710 H   0  0  0  0  0  0  0  0  0  0  0  0
   36.2090   24.5290   42.2650 H   0  0  0  0  0  0  0  0  0  0  0  0
   37.8510   25.0160   42.9660 H   0  0  0  0  0  0  0  0  0  0  0  0
   39.0720   32.7590   39.1180 O   0  0  0  0  0  0  0  0  0  0  0  0
   37.7720   32.6950   39.4290 C   0  0  0  0  0  0  0  0  0  0  0  0
   36.9820   33.7620   39.3240 O   0  0  0  0  0  0  0  0  0  0  0  0
   36.8830   31.5750   39.9190 C   0  0  0  0  0  0  0  0  0  0  0  0
   36.4010   30.6440   39.0860 N   0  0  0  0  0  0  0  0  0  0  0  0
   35.6510   29.7600   39.7760 C   0  0  0  0  0  0  0  0  0  0  0  0
   35.1640   28.9320   39.3200 H   0  0  0  0  0  0  0  0  0  0  0  0
   35.6710   30.1500   41.0550 N   0  0  0  0  0  0  0  0  0  0  0  0
   35.2000   29.7030   41.8690 H   0  0  0  0  0  0  0  0  0  0  0  0
   36.4080   31.2320   41.1260 N   0  0  0  0  0  0  0  0  0  0  0  0
  1  2  1  0  0  0  0
  1  6  1  0  0  0  0
  1  7  1  1  0  0  0
  2  8  1  6  0  0  0
  2 17  1  0  0  0  0
  3  2  1  0  0  0  0
  4  5  1  0  0  0  0
  4  3  1  0  0  0  0
  5 11  1  1  0  0  0
  5  6  1  0  0  0  0
  6 34  1  0  0  0  0
  6 12  1  1  0  0  0
  9  4  1  0  0  0  0
 10  4  1  0  0  0  0
 13  1  1  0  0  0  0
 14 13  1  0  0  0  0
 15 16  1  0  0  0  0
 15  5  1  0  0  0  0
 17 18  1  0  0  0  0
 18 23  1  0  0  0  0
 19 18  2  0  0  0  0
 19 20  1  0  0  0  0
 20 21  2  0  0  0  0
 21 22  1  0  0  0  0
 22 25  1  0  0  0  0
 23 22  2  0  0  0  0
 24 19  1  0  0  0  0
 26 20  1  0  0  0  0
 26 28  1  0  0  0  0
 27 26  1  0  0  0  0
 27 28  1  0  0  0  0
 28 32  1  0  0  0  0
 28 33  1  0  0  0  0
 29 26  1  0  0  0  0
 30 27  1  0  0  0  0
 31 27  1  0  0  0  0
 34 35  1  0  0  0  0
 35 37  1  0  0  0  0
 36 35  2  0  0  0  0
 37 43  2  0  0  0  0
 38 39  2  0  0  0  0
 38 37  1  0  0  0  0
 39 41  1  0  0  0  0
 40 39  1  0  0  0  0
 41 43  1  0  0  0  0
 41 42  1  0  0  0  0
M  END
>  <minimizedAffinity>
-6.00696373

$$$$

 OpenBabel03242523563D

 43 46  0  0  1  0  0  0  0  0999 V2000
   37.6530   29.0590   42.0210 C   0  0  1  0  0  0  0  0  0  0  0  0
   37.4080   27.7040   41.3780 C   0  0  1  0  0  0  0  0  0  0  0  0
   36.5970   27.8960   40.2430 O   0  0  0  0  0  0  0  0  0  0  0  0
   35.6480   28.9060   40.4220 C   0  0  0  0  0  0  0  0  0  0  0  0
   36.2900   30.2770   40.4980 C   0  0  2  0  0  0  0  0  0  0  0  0
   37.7870   30.0370   40.9000 C   0  0  1  0  0  0  0  0  0  0  0  0
   38.6050   28.9910   42.5840 H   0  0  0  0  0  0  0  0  0  0  0  0
   36.9660   26.9670   42.0690 H   0  0  0  0  0  0  0  0  0  0  0  0
   35.0320   28.8810   39.5030 H   0  0  0  0  0  0  0  0  0  0  0  0
   34.9720   28.6900   41.2730 H   0  0  0  0  0  0  0  0  0  0  0  0
   36.2630   30.8220   39.5340 H   0  0  0  0  0  0  0  0  0  0  0  0
   38.0640   29.5100   39.9340 H   0  0  0  0  0  0  0  0  0  0  0  0
   36.5860   29.4070   42.8650 O   0  0  0  0  0  0  0  0  0  0  0  0
   36.8870   29.8360   43.7110 H   0  0  0  0  0  0  0  0  0  0  0  0
   35.7390   30.9960   41.5460 O   0  0  0  0  0  0  0  0  0  0  0  0
   36.3280   31.6400   41.9750 H   0  0  0  0  0  0  0  0  0  0  0  0
   38.6490   27.3180   40.8400 O   0  0  0  0  0  0  0  0  0  0  0  0
   39.5460   26.5420   41.4600 C   0  0  0  0  0  0  0  0  0  0  0  0
   40.8870   26.5210   41.0490 C   0  0  0  0  0  0  0  0  0  0  0  0
   41.7780   25.7050   41.7220 C   0  0  0  0  0  0  0  0  0  0  0  0
   41.3210   24.9340   42.7790 N   0  0  0  0  0  0  0  0  0  0  0  0
   40.0220   24.9820   43.1440 C   0  0  0  0  0  0  0  0  0  0  0  0
   39.1400   25.7810   42.4880 N   0  0  0  0  0  0  0  0  0  0  0  0
   41.2320   27.1150   40.2370 H   0  0  0  0  0  0  0  0  0  0  0  0
   39.6450   24.3850   43.9710 H   0  0  0  0  0  0  0  0  0  0  0  0
   43.2190   25.6130   41.3160 C   0  0  0  0  0  0  0  0  0  0  0  0
   43.5380   25.9510   39.8610 C   0  0  0  0  0  0  0  0  0  0  0  0
   43.9780   26.8000   41.0670 C   0  0  0  0  0  0  0  0  0  0  0  0
   43.6920   24.7110   41.7380 H   0  0  0  0  0  0  0  0  0  0  0  0
   42.6960   26.3050   39.2520 H   0  0  0  0  0  0  0  0  0  0  0  0
   44.3010   25.2890   39.4240 H   0  0  0  0  0  0  0  0  0  0  0  0
   45.0560   26.8130   41.2350 H   0  0  0  0  0  0  0  0  0  0  0  0
   43.5140   27.8190   41.0490 H   0  0  0  0  0  0  0  0  0  0  0  0
   38.3260   31.2350   41.1850 O   0  0  0  0  0  0  0  0  0  0  0  0
   38.7480   32.2240   40.3900 C   0  0  0  0  0  0  0  0  0  0  0  0
   38.6920   33.4970   40.7790 O   0  0  0  0  0  0  0  0  0  0  0  0
   39.3460   32.2460   39.0020 C   0  0  0  0  0  0  0  0  0  0  0  0
   40.6160   32.6160   38.7890 N   0  0  0  0  0  0  0  0  0  0  0  0
   40.8980   32.5370   37.4720 C   0  0  0  0  0  0  0  0  0  0  0  0
   41.8500   32.7840   37.0670 H   0  0  0  0  0  0  0  0  0  0  0  0
   39.7870   32.1100   36.8620 N   0  0  0  0  0  0  0  0  0  0  0  0
   39.6400   31.9340   35.8460 H   0  0  0  0  0  0  0  0  0  0  0  0
   38.8710   31.9400   37.7840 N   0  0  0  0  0  0  0  0  0  0  0  0
  1  7  1  1  0  0  0
  1 13  1  0  0  0  0
  2  1  1  0  0  0  0
  2  8  1  1  0  0  0
  3  4  1  0  0  0  0
  3  2  1  0  0  0  0
  4  5  1  0  0  0  0
  4 10  1  0  0  0  0
  5 11  1  6  0  0  0
  5  6  1  0  0  0  0
  5 15  1  0  0  0  0
  6 12  1  6  0  0  0
  6 34  1  0  0  0  0
  6  1  1  0  0  0  0
  9  4  1  0  0  0  0
 13 14  1  0  0  0  0
 15 16  1  0  0  0  0
 17  2  1  0  0  0  0
 17 18  1  0  0  0  0
 18 23  1  0  0  0  0
 19 18  2  0  0  0  0
 19 20  1  0  0  0  0
 20 21  2  0  0  0  0
 21 22  1  0  0  0  0
 22 25  1  0  0  0  0
 23 22  2  0  0  0  0
 24 19  1  0  0  0  0
 26 20  1  0  0  0  0
 26 29  1  0  0  0  0
 27 28  1  0  0  0  0
 27 26  1  0  0  0  0
 28 32  1  0  0  0  0
 28 26  1  0  0  0  0
 30 27  1  0  0  0  0
 31 27  1  0  0  0  0
 33 28  1  0  0  0  0
 35 36  2  0  0  0  0
 35 34  1  0  0  0  0
 37 35  1  0  0  0  0
 38 37  1  0  0  0  0
 39 38  2  0  0  0  0
 40 39  1  0  0  0  0
 41 39  1  0  0  0  0
 41 43  1  0  0  0  0
 42 41  1  0  0  0  0
 43 37  2  0  0  0  0
M  END
>  <minimizedAffinity>
-5.88789415

$$$$

 OpenBabel03242523563D

 43 46  0  0  1  0  0  0  0  0999 V2000
   38.7440   31.4900   40.0150 C   0  0  1  0  0  0  0  0  0  0  0  0
   39.6360   32.2230   41.0040 C   0  0  1  0  0  0  0  0  0  0  0  0
   39.1170   33.5190   41.1890 O   0  0  0  0  0  0  0  0  0  0  0  0
   38.5730   34.0540   40.0180 C   0  0  0  0  0  0  0  0  0  0  0  0
   37.3010   33.3380   39.6070 C   0  0  2  0  0  0  0  0  0  0  0  0
   37.3470   31.9330   40.3030 C   0  0  1  0  0  0  0  0  0  0  0  0
   38.8500   30.4060   40.2140 H   0  0  0  0  0  0  0  0  0  0  0  0
   40.6940   32.2530   40.6990 H   0  0  0  0  0  0  0  0  0  0  0  0
   38.2960   35.0910   40.2840 H   0  0  0  0  0  0  0  0  0  0  0  0
   39.3240   34.1160   39.2050 H   0  0  0  0  0  0  0  0  0  0  0  0
   36.3830   33.8670   39.9300 H   0  0  0  0  0  0  0  0  0  0  0  0
   37.2610   32.3440   41.3570 H   0  0  0  0  0  0  0  0  0  0  0  0
   39.1080   31.8040   38.6960 O   0  0  0  0  0  0  0  0  0  0  0  0
   39.0820   31.0130   38.0910 H   0  0  0  0  0  0  0  0  0  0  0  0
   37.3300   33.0750   38.2470 O   0  0  0  0  0  0  0  0  0  0  0  0
   36.8540   32.2770   37.9590 H   0  0  0  0  0  0  0  0  0  0  0  0
   39.4110   31.5950   42.2430 O   0  0  0  0  0  0  0  0  0  0  0  0
   39.7100   30.3210   42.5230 C   0  0  0  0  0  0  0  0  0  0  0  0
   38.7030   29.3960   42.8360 C   0  0  0  0  0  0  0  0  0  0  0  0
   39.0610   28.0900   43.1160 C   0  0  0  0  0  0  0  0  0  0  0  0
   40.4000   27.7340   43.0790 N   0  0  0  0  0  0  0  0  0  0  0  0
   41.3400   28.6540   42.7730 C   0  0  0  0  0  0  0  0  0  0  0  0
   40.9960   29.9390   42.4970 N   0  0  0  0  0  0  0  0  0  0  0  0
   37.6770   29.6740   42.8630 H   0  0  0  0  0  0  0  0  0  0  0  0
   42.3950   28.3940   42.7390 H   0  0  0  0  0  0  0  0  0  0  0  0
   38.0380   27.0570   43.4860 C   0  0  0  0  0  0  0  0  0  0  0  0
   36.5780   27.5050   43.4520 C   0  0  0  0  0  0  0  0  0  0  0  0
   37.1960   26.4810   42.4840 C   0  0  0  0  0  0  0  0  0  0  0  0
   38.3640   26.4740   44.3630 H   0  0  0  0  0  0  0  0  0  0  0  0
   36.3940   28.5240   43.0870 H   0  0  0  0  0  0  0  0  0  0  0  0
   35.9830   27.0970   44.2840 H   0  0  0  0  0  0  0  0  0  0  0  0
   36.8110   25.4660   42.6010 H   0  0  0  0  0  0  0  0  0  0  0  0
   37.1810   26.8480   41.4250 H   0  0  0  0  0  0  0  0  0  0  0  0
   36.3470   31.1960   39.7900 O   0  0  0  0  0  0  0  0  0  0  0  0
   36.3550   30.0240   39.1450 C   0  0  0  0  0  0  0  0  0  0  0  0
   36.0870   28.8840   39.7790 O   0  0  0  0  0  0  0  0  0  0  0  0
   36.6190   29.6410   37.7070 C   0  0  0  0  0  0  0  0  0  0  0  0
   36.2330   28.4580   37.2120 N   0  0  0  0  0  0  0  0  0  0  0  0
   36.5800   28.3750   35.9110 C   0  0  0  0  0  0  0  0  0  0  0  0
   36.3740   27.5220   35.3090 H   0  0  0  0  0  0  0  0  0  0  0  0
   37.1890   29.5240   35.5970 N   0  0  0  0  0  0  0  0  0  0  0  0
   37.5870   29.8080   34.6780 H   0  0  0  0  0  0  0  0  0  0  0  0
   37.2050   30.2680   36.6750 N   0  0  0  0  0  0  0  0  0  0  0  0
  1  7  1  1  0  0  0
  1  6  1  0  0  0  0
  1  2  1  0  0  0  0
  2  8  1  6  0  0  0
  2  3  1  0  0  0  0
  2 17  1  0  0  0  0
  4  9  1  0  0  0  0
  4  3  1  0  0  0  0
  5 11  1  1  0  0  0
  5  4  1  0  0  0  0
  5  6  1  0  0  0  0
  6 12  1  1  0  0  0
 10  4  1  0  0  0  0
 13  1  1  0  0  0  0
 14 13  1  0  0  0  0
 15  5  1  0  0  0  0
 16 15  1  0  0  0  0
 17 18  1  0  0  0  0
 18 19  1  0  0  0  0
 19 24  1  0  0  0  0
 19 20  2  0  0  0  0
 20 26  1  0  0  0  0
 21 20  1  0  0  0  0
 22 21  2  0  0  0  0
 23 18  2  0  0  0  0
 23 22  1  0  0  0  0
 25 22  1  0  0  0  0
 26 29  1  0  0  0  0
 27 26  1  0  0  0  0
 27 31  1  0  0  0  0
 28 32  1  0  0  0  0
 28 27  1  0  0  0  0
 28 26  1  0  0  0  0
 30 27  1  0  0  0  0
 33 28  1  0  0  0  0
 34  6  1  0  0  0  0
 35 36  2  0  0  0  0
 35 34  1  0  0  0  0
 37 35  1  0  0  0  0
 38 37  1  0  0  0  0
 39 38  2  0  0  0  0
 40 39  1  0  0  0  0
 41 39  1  0  0  0  0
 41 43  1  0  0  0  0
 42 41  1  0  0  0  0
 43 37  2  0  0  0  0
M  END
>  <minimizedAffinity>
-5.79192638

$$$$

 OpenBabel03242523563D

 43 46  0  0  1  0  0  0  0  0999 V2000
   37.7100   29.3740   42.3340 C   0  0  1  0  0  0  0  0  0  0  0  0
   39.1990   29.2480   42.6170 C   0  0  1  0  0  0  0  0  0  0  0  0
   39.4780   27.8980   42.9080 O   0  0  0  0  0  0  0  0  0  0  0  0
   38.4490   27.2760   43.6200 C   0  0  0  0  0  0  0  0  0  0  0  0
   37.2070   27.0900   42.7700 C   0  0  2  0  0  0  0  0  0  0  0  0
   37.3160   28.1330   41.6040 C   0  0  1  0  0  0  0  0  0  0  0  0
   37.5720   30.2610   41.6840 H   0  0  0  0  0  0  0  0  0  0  0  0
   39.5480   29.9140   43.4220 H   0  0  0  0  0  0  0  0  0  0  0  0
   38.8390   26.2690   43.8580 H   0  0  0  0  0  0  0  0  0  0  0  0
   38.2490   27.7840   44.5840 H   0  0  0  0  0  0  0  0  0  0  0  0
   37.1270   26.0750   42.3350 H   0  0  0  0  0  0  0  0  0  0  0  0
   38.2180   27.6430   41.1200 H   0  0  0  0  0  0  0  0  0  0  0  0
   36.9890   29.5030   43.5310 O   0  0  0  0  0  0  0  0  0  0  0  0
   36.2510   30.1690   43.4670 H   0  0  0  0  0  0  0  0  0  0  0  0
   36.0850   27.4630   43.4920 O   0  0  0  0  0  0  0  0  0  0  0  0
   35.3450   27.8210   42.9720 H   0  0  0  0  0  0  0  0  0  0  0  0
   39.8320   29.4580   41.3780 O   0  0  0  0  0  0  0  0  0  0  0  0
   39.8940   30.6330   40.7390 C   0  0  0  0  0  0  0  0  0  0  0  0
   40.3790   30.7130   39.4250 C   0  0  0  0  0  0  0  0  0  0  0  0
   40.4230   31.9480   38.8050 C   0  0  0  0  0  0  0  0  0  0  0  0
   39.9880   33.0670   39.4980 N   0  0  0  0  0  0  0  0  0  0  0  0
   39.5290   32.9480   40.7620 C   0  0  0  0  0  0  0  0  0  0  0  0
   39.4830   31.7380   41.3780 N   0  0  0  0  0  0  0  0  0  0  0  0
   40.7110   29.8510   38.8980 H   0  0  0  0  0  0  0  0  0  0  0  0
   39.1840   33.8150   41.3210 H   0  0  0  0  0  0  0  0  0  0  0  0
   40.9560   32.1090   37.4120 C   0  0  0  0  0  0  0  0  0  0  0  0
   42.3520   32.7170   37.2850 C   0  0  0  0  0  0  0  0  0  0  0  0
   42.0030   31.2600   36.9350 C   0  0  0  0  0  0  0  0  0  0  0  0
   40.1780   32.4930   36.7330 H   0  0  0  0  0  0  0  0  0  0  0  0
   42.8790   32.9160   38.2270 H   0  0  0  0  0  0  0  0  0  0  0  0
   42.4410   33.4160   36.4390 H   0  0  0  0  0  0  0  0  0  0  0  0
   42.0830   31.0240   35.8730 H   0  0  0  0  0  0  0  0  0  0  0  0
   42.5400   30.5330   37.5980 H   0  0  0  0  0  0  0  0  0  0  0  0
   36.1360   28.1430   40.9600 O   0  0  0  0  0  0  0  0  0  0  0  0
   35.6460   28.9690   40.0290 C   0  0  0  0  0  0  0  0  0  0  0  0
   34.3340   29.1550   39.8890 O   0  0  0  0  0  0  0  0  0  0  0  0
   36.2970   29.8460   38.9840 C   0  0  0  0  0  0  0  0  0  0  0  0
   36.5850   29.3850   37.7590 N   0  0  0  0  0  0  0  0  0  0  0  0
   37.1480   30.3670   37.0250 C   0  0  0  0  0  0  0  0  0  0  0  0
   37.4610   30.2310   36.0170 H   0  0  0  0  0  0  0  0  0  0  0  0
   37.2090   31.4510   37.8070 N   0  0  0  0  0  0  0  0  0  0  0  0
   37.5840   32.3920   37.5690 H   0  0  0  0  0  0  0  0  0  0  0  0
   36.6990   31.1260   38.9700 N   0  0  0  0  0  0  0  0  0  0  0  0
  1  7  1  6  0  0  0
  1  2  1  0  0  0  0
  1 13  1  0  0  0  0
  2  3  1  0  0  0  0
  2  8  1  1  0  0  0
  3  4  1  0  0  0  0
  4  9  1  0  0  0  0
  4 10  1  0  0  0  0
  5 11  1  6  0  0  0
  5 15  1  0  0  0  0
  5  4  1  0  0  0  0
  6 12  1  6  0  0  0
  6  1  1  0  0  0  0
  6  5  1  0  0  0  0
 14 13  1  0  0  0  0
 16 15  1  0  0  0  0
 17  2  1  0  0  0  0
 18 17  1  0  0  0  0
 18 23  1  0  0  0  0
 19 18  2  0  0  0  0
 20 19  1  0  0  0  0
 20 21  2  0  0  0  0
 21 22  1  0  0  0  0
 22 25  1  0  0  0  0
 22 23  2  0  0  0  0
 24 19  1  0  0  0  0
 26 20  1  0  0  0  0
 27 26  1  0  0  0  0
 27 30  1  0  0  0  0
 28 27  1  0  0  0  0
 28 26  1  0  0  0  0
 28 33  1  0  0  0  0
 29 26  1  0  0  0  0
 31 27  1  0  0  0  0
 32 28  1  0  0  0  0
 34  6  1  0  0  0  0
 35 34  1  0  0  0  0
 36 35  2  0  0  0  0
 37 35  1  0  0  0  0
 38 37  1  0  0  0  0
 39 38  2  0  0  0  0
 39 41  1  0  0  0  0
 40 39  1  0  0  0  0
 41 43  1  0  0  0  0
 42 41  1  0  0  0  0
 43 37  2  0  0  0  0
M  END
>  <minimizedAffinity>
-5.73312283

$$$$

 OpenBabel03242523563D

 43 46  0  0  1  0  0  0  0  0999 V2000
   38.9910   31.4230   41.0730 C   0  0  1  0  0  0  0  0  0  0  0  0
   38.4260   30.2350   41.8360 C   0  0  1  0  0  0  0  0  0  0  0  0
   37.1100   30.0100   41.3880 O   0  0  0  0  0  0  0  0  0  0  0  0
   36.4310   31.1950   41.0910 C   0  0  0  0  0  0  0  0  0  0  0  0
   36.9950   31.8740   39.8570 C   0  0  2  0  0  0  0  0  0  0  0  0
   38.4530   31.3220   39.6830 C   0  0  1  0  0  0  0  0  0  0  0  0
   40.0930   31.3160   41.0640 H   0  0  0  0  0  0  0  0  0  0  0  0
   38.4640   30.3620   42.9290 H   0  0  0  0  0  0  0  0  0  0  0  0
   35.4000   30.8770   40.8480 H   0  0  0  0  0  0  0  0  0  0  0  0
   36.3670   31.8660   41.9700 H   0  0  0  0  0  0  0  0  0  0  0  0
   36.4180   31.6530   38.9390 H   0  0  0  0  0  0  0  0  0  0  0  0
   38.1270   30.2600   39.4510 H   0  0  0  0  0  0  0  0  0  0  0  0
   38.6000   32.6290   41.6750 O   0  0  0  0  0  0  0  0  0  0  0  0
   39.3300   33.3050   41.6950 H   0  0  0  0  0  0  0  0  0  0  0  0
   37.1430   33.2310   40.0960 O   0  0  0  0  0  0  0  0  0  0  0  0
   37.8690   33.6680   39.6190 H   0  0  0  0  0  0  0  0  0  0  0  0
   39.1350   29.1170   41.3600 O   0  0  0  0  0  0  0  0  0  0  0  0
   39.2990   27.9700   42.0310 C   0  0  0  0  0  0  0  0  0  0  0  0
   38.4960   26.8540   41.7580 C   0  0  0  0  0  0  0  0  0  0  0  0
   38.7040   25.6910   42.4770 C   0  0  0  0  0  0  0  0  0  0  0  0
   39.6990   25.6620   43.4420 N   0  0  0  0  0  0  0  0  0  0  0  0
   40.4510   26.7590   43.6750 C   0  0  0  0  0  0  0  0  0  0  0  0
   40.2520   27.9060   42.9740 N   0  0  0  0  0  0  0  0  0  0  0  0
   37.7340   26.8810   41.0160 H   0  0  0  0  0  0  0  0  0  0  0  0
   41.2360   26.7560   44.4280 H   0  0  0  0  0  0  0  0  0  0  0  0
   37.8620   24.4690   42.2550 C   0  0  0  0  0  0  0  0  0  0  0  0
   36.8710   24.5290   41.0940 C   0  0  0  0  0  0  0  0  0  0  0  0
   38.1080   23.6130   41.1360 C   0  0  0  0  0  0  0  0  0  0  0  0
   37.4900   24.0670   43.2120 H   0  0  0  0  0  0  0  0  0  0  0  0
   36.9120   25.4320   40.4710 H   0  0  0  0  0  0  0  0  0  0  0  0
   35.9050   24.0570   41.3280 H   0  0  0  0  0  0  0  0  0  0  0  0
   37.8750   22.5490   41.1920 H   0  0  0  0  0  0  0  0  0  0  0  0
   38.8430   23.8700   40.3310 H   0  0  0  0  0  0  0  0  0  0  0  0
   39.0530   32.0590   38.7330 O   0  0  0  0  0  0  0  0  0  0  0  0
   40.1180   32.8670   38.7840 C   0  0  0  0  0  0  0  0  0  0  0  0
   40.1060   33.9830   39.5100 O   0  0  0  0  0  0  0  0  0  0  0  0
   41.4880   32.8060   38.1490 C   0  0  0  0  0  0  0  0  0  0  0  0
   42.5790   33.2510   38.7860 N   0  0  0  0  0  0  0  0  0  0  0  0
   43.6660   33.0720   38.0070 C   0  0  0  0  0  0  0  0  0  0  0  0
   44.6470   33.3520   38.3060 H   0  0  0  0  0  0  0  0  0  0  0  0
   43.2400   32.5080   36.8710 N   0  0  0  0  0  0  0  0  0  0  0  0
   43.8060   32.2290   36.0420 H   0  0  0  0  0  0  0  0  0  0  0  0
   41.9420   32.3550   36.9690 N   0  0  0  0  0  0  0  0  0  0  0  0
  1  7  1  6  0  0  0
  1 13  1  0  0  0  0
  1  2  1  0  0  0  0
  2  8  1  1  0  0  0
  3  2  1  0  0  0  0
  4  3  1  0  0  0  0
  4 10  1  0  0  0  0
  5 11  1  6  0  0  0
  5 15  1  0  0  0  0
  5  4  1  0  0  0  0
  6 12  1  6  0  0  0
  6  5  1  0  0  0  0
  6  1  1  0  0  0  0
  9  4  1  0  0  0  0
 13 14  1  0  0  0  0
 16 15  1  0  0  0  0
 17  2  1  0  0  0  0
 17 18  1  0  0  0  0
 18 23  1  0  0  0  0
 19 18  2  0  0  0  0
 19 20  1  0  0  0  0
 20 21  2  0  0  0  0
 21 22  1  0  0  0  0
 22 25  1  0  0  0  0
 23 22  2  0  0  0  0
 24 19  1  0  0  0  0
 26 20  1  0  0  0  0
 26 29  1  0  0  0  0
 27 28  1  0  0  0  0
 27 31  1  0  0  0  0
 27 26  1  0  0  0  0
 28 32  1  0  0  0  0
 28 26  1  0  0  0  0
 30 27  1  0  0  0  0
 33 28  1  0  0  0  0
 34 35  1  0  0  0  0
 34  6  1  0  0  0  0
 35 36  2  0  0  0  0
 37 35  1  0  0  0  0
 37 38  1  0  0  0  0
 39 40  1  0  0  0  0
 39 38  2  0  0  0  0
 41 43  1  0  0  0  0
 41 39  1  0  0  0  0
 42 41  1  0  0  0  0
 43 37  2  0  0  0  0
M  END
>  <minimizedAffinity>
-5.72067881

$$$$

 OpenBabel03242523563D

 43 46  0  0  1  0  0  0  0  0999 V2000
   37.0830   30.7280   40.2500 C   0  0  1  0  0  0  0  0  0  0  0  0
   36.8270   30.2880   38.8170 C   0  0  1  0  0  0  0  0  0  0  0  0
   37.4090   31.2380   37.9550 O   0  0  0  0  0  0  0  0  0  0  0  0
   37.3110   32.5430   38.4460 C   0  0  0  0  0  0  0  0  0  0  0  0
   38.1860   32.7540   39.6670 C   0  0  2  0  0  0  0  0  0  0  0  0
   38.4500   31.3290   40.2660 C   0  0  1  0  0  0  0  0  0  0  0  0
   37.0570   29.8190   40.8840 H   0  0  0  0  0  0  0  0  0  0  0  0
   35.7590   30.1400   38.5910 H   0  0  0  0  0  0  0  0  0  0  0  0
   37.7160   33.1800   37.6380 H   0  0  0  0  0  0  0  0  0  0  0  0
   36.2580   32.8470   38.6040 H   0  0  0  0  0  0  0  0  0  0  0  0
   39.1580   33.2260   39.4280 H   0  0  0  0  0  0  0  0  0  0  0  0
   39.0630   30.9650   39.3840 H   0  0  0  0  0  0  0  0  0  0  0  0
   36.1190   31.6620   40.6600 O   0  0  0  0  0  0  0  0  0  0  0  0
   35.8150   31.5170   41.5970 H   0  0  0  0  0  0  0  0  0  0  0  0
   37.4740   33.4350   40.6410 O   0  0  0  0  0  0  0  0  0  0  0  0
   37.7180   33.2360   41.5610 H   0  0  0  0  0  0  0  0  0  0  0  0
   37.6210   29.1420   38.6330 O   0  0  0  0  0  0  0  0  0  0  0  0
   37.2130   27.8840   38.8420 C   0  0  0  0  0  0  0  0  0  0  0  0
   37.7730   27.1060   39.8660 C   0  0  0  0  0  0  0  0  0  0  0  0
   37.3170   25.8120   40.0450 C   0  0  0  0  0  0  0  0  0  0  0  0
   36.3240   25.3250   39.2110 N   0  0  0  0  0  0  0  0  0  0  0  0
   35.8110   26.1060   38.2360 C   0  0  0  0  0  0  0  0  0  0  0  0
   36.2530   27.3770   38.0530 N   0  0  0  0  0  0  0  0  0  0  0  0
   38.5350   27.4850   40.5040 H   0  0  0  0  0  0  0  0  0  0  0  0
   35.0310   25.7410   37.5710 H   0  0  0  0  0  0  0  0  0  0  0  0
   37.8920   24.9160   41.1020 C   0  0  0  0  0  0  0  0  0  0  0  0
   36.9250   24.4310   42.1800 C   0  0  0  0  0  0  0  0  0  0  0  0
   37.5740   23.5220   41.1210 C   0  0  0  0  0  0  0  0  0  0  0  0
   38.8760   25.2820   41.4380 H   0  0  0  0  0  0  0  0  0  0  0  0
   35.8730   24.7170   42.0500 H   0  0  0  0  0  0  0  0  0  0  0  0
   37.3760   24.4110   43.1850 H   0  0  0  0  0  0  0  0  0  0  0  0
   38.2820   22.7980   41.5260 H   0  0  0  0  0  0  0  0  0  0  0  0
   36.8100   23.0690   40.4380 H   0  0  0  0  0  0  0  0  0  0  0  0
   39.0370   31.4970   41.4640 O   0  0  0  0  0  0  0  0  0  0  0  0
   39.6050   30.6190   42.2990 C   0  0  0  0  0  0  0  0  0  0  0  0
   40.8090   30.8410   42.8230 O   0  0  0  0  0  0  0  0  0  0  0  0
   39.1530   29.2900   42.8590 C   0  0  0  0  0  0  0  0  0  0  0  0
   37.8820   29.0760   43.2260 N   0  0  0  0  0  0  0  0  0  0  0  0
   37.7460   27.8130   43.6790 C   0  0  0  0  0  0  0  0  0  0  0  0
   36.8220   27.4180   44.0270 H   0  0  0  0  0  0  0  0  0  0  0  0
   38.9500   27.2360   43.5900 N   0  0  0  0  0  0  0  0  0  0  0  0
   39.2160   26.2650   43.8520 H   0  0  0  0  0  0  0  0  0  0  0  0
   39.7780   28.1270   43.1000 N   0  0  0  0  0  0  0  0  0  0  0  0
  1  6  1  0  0  0  0
  1 13  1  0  0  0  0
  1  7  1  1  0  0  0
  2  8  1  6  0  0  0
  2  1  1  0  0  0  0
  3  4  1  0  0  0  0
  3  2  1  0  0  0  0
  4 10  1  0  0  0  0
  4  5  1  0  0  0  0
  5 11  1  6  0  0  0
  5  6  1  0  0  0  0
  5 15  1  0  0  0  0
  6 12  1  6  0  0  0
  6 34  1  0  0  0  0
  9  4  1  0  0  0  0
 13 14  1  0  0  0  0
 15 16  1  0  0  0  0
 17  2  1  0  0  0  0
 17 18  1  0  0  0  0
 18 19  1  0  0  0  0
 19 20  2  0  0  0  0
 19 24  1  0  0  0  0
 20 26  1  0  0  0  0
 21 20  1  0  0  0  0
 22 21  2  0  0  0  0
 23 22  1  0  0  0  0
 23 18  2  0  0  0  0
 25 22  1  0  0  0  0
 26 28  1  0  0  0  0
 26 29  1  0  0  0  0
 26 27  1  0  0  0  0
 27 31  1  0  0  0  0
 28 32  1  0  0  0  0
 28 27  1  0  0  0  0
 30 27  1  0  0  0  0
 33 28  1  0  0  0  0
 34 35  1  0  0  0  0
 35 36  2  0  0  0  0
 35 37  1  0  0  0  0
 37 43  2  0  0  0  0
 37 38  1  0  0  0  0
 38 39  2  0  0  0  0
 39 40  1  0  0  0  0
 41 39  1  0  0  0  0
 41 42  1  0  0  0  0
 43 41  1  0  0  0  0
M  END
>  <minimizedAffinity>
-5.69079161

$$$$

 OpenBabel03242523563D

 43 46  0  0  1  0  0  0  0  0999 V2000
   40.4900   30.3440   38.4210 C   0  0  1  0  0  0  0  0  0  0  0  0
   41.8780   29.8490   38.7930 C   0  0  1  0  0  0  0  0  0  0  0  0
   42.7810   30.9210   38.6510 O   0  0  0  0  0  0  0  0  0  0  0  0
   42.4650   31.7520   37.5730 C   0  0  0  0  0  0  0  0  0  0  0  0
   41.1910   32.5370   37.8190 C   0  0  2  0  0  0  0  0  0  0  0  0
   40.3990   31.7490   38.9200 C   0  0  1  0  0  0  0  0  0  0  0  0
   39.7580   29.7030   38.9500 H   0  0  0  0  0  0  0  0  0  0  0  0
   42.2000   28.9720   38.2090 H   0  0  0  0  0  0  0  0  0  0  0  0
   43.2960   32.4810   37.5250 H   0  0  0  0  0  0  0  0  0  0  0  0
   42.4610   31.2000   36.6120 H   0  0  0  0  0  0  0  0  0  0  0  0
   41.3790   33.5660   38.1830 H   0  0  0  0  0  0  0  0  0  0  0  0
   41.1590   31.9380   39.7400 H   0  0  0  0  0  0  0  0  0  0  0  0
   40.3030   30.2930   37.0310 O   0  0  0  0  0  0  0  0  0  0  0  0
   39.3940   29.9760   36.7750 H   0  0  0  0  0  0  0  0  0  0  0  0
   40.3890   32.4960   36.6900 O   0  0  0  0  0  0  0  0  0  0  0  0
   39.4310   32.5400   36.8490 H   0  0  0  0  0  0  0  0  0  0  0  0
   41.8360   29.6330   40.1830 O   0  0  0  0  0  0  0  0  0  0  0  0
   41.3020   28.5580   40.7760 C   0  0  0  0  0  0  0  0  0  0  0  0
   40.2940   28.6940   41.7420 C   0  0  0  0  0  0  0  0  0  0  0  0
   39.7730   27.5540   42.3260 C   0  0  0  0  0  0  0  0  0  0  0  0
   40.2580   26.3150   41.9400 N   0  0  0  0  0  0  0  0  0  0  0  0
   41.2300   26.2260   41.0060 C   0  0  0  0  0  0  0  0  0  0  0  0
   41.7480   27.3410   40.4280 N   0  0  0  0  0  0  0  0  0  0  0  0
   39.9250   29.6470   42.0350 H   0  0  0  0  0  0  0  0  0  0  0  0
   41.6230   25.2630   40.6900 H   0  0  0  0  0  0  0  0  0  0  0  0
   38.7140   27.6290   43.3860 C   0  0  0  0  0  0  0  0  0  0  0  0
   37.8660   28.9000   43.4100 C   0  0  0  0  0  0  0  0  0  0  0  0
   37.3320   27.5040   43.0390 C   0  0  0  0  0  0  0  0  0  0  0  0
   39.0950   27.2610   44.3520 H   0  0  0  0  0  0  0  0  0  0  0  0
   38.0520   29.6200   42.6030 H   0  0  0  0  0  0  0  0  0  0  0  0
   37.6480   29.2520   44.4300 H   0  0  0  0  0  0  0  0  0  0  0  0
   36.6160   27.0950   43.7530 H   0  0  0  0  0  0  0  0  0  0  0  0
   36.9780   27.4650   41.9760 H   0  0  0  0  0  0  0  0  0  0  0  0
   39.1740   32.2960   39.0050 O   0  0  0  0  0  0  0  0  0  0  0  0
   37.9610   31.7870   38.7630 C   0  0  0  0  0  0  0  0  0  0  0  0
   37.4520   31.7660   37.5320 O   0  0  0  0  0  0  0  0  0  0  0  0
   36.9150   31.1520   39.6490 C   0  0  0  0  0  0  0  0  0  0  0  0
   36.2440   30.0560   39.2720 N   0  0  0  0  0  0  0  0  0  0  0  0
   35.3820   29.6920   40.2440 C   0  0  0  0  0  0  0  0  0  0  0  0
   34.7410   28.8470   40.1650 H   0  0  0  0  0  0  0  0  0  0  0  0
   35.5240   30.5750   41.2390 N   0  0  0  0  0  0  0  0  0  0  0  0
   35.0180   30.6030   42.1490 H   0  0  0  0  0  0  0  0  0  0  0  0
   36.4390   31.4390   40.8710 N   0  0  0  0  0  0  0  0  0  0  0  0
  1  2  1  0  0  0  0
  1  6  1  0  0  0  0
  1  7  1  1  0  0  0
  2  8  1  6  0  0  0
  2 17  1  0  0  0  0
  3  2  1  0  0  0  0
  4  5  1  0  0  0  0
  4  3  1  0  0  0  0
  5 11  1  1  0  0  0
  5  6  1  0  0  0  0
  6 34  1  0  0  0  0
  6 12  1  1  0  0  0
  9  4  1  0  0  0  0
 10  4  1  0  0  0  0
 13  1  1  0  0  0  0
 14 13  1  0  0  0  0
 15 16  1  0  0  0  0
 15  5  1  0  0  0  0
 17 18  1  0  0  0  0
 18 19  1  0  0  0  0
 19 24  1  0  0  0  0
 19 20  2  0  0  0  0
 20 26  1  0  0  0  0
 21 20  1  0  0  0  0
 22 21  2  0  0  0  0
 23 18  2  0  0  0  0
 23 22  1  0  0  0  0
 25 22  1  0  0  0  0
 26 27  1  0  0  0  0
 26 29  1  0  0  0  0
 27 31  1  0  0  0  0
 28 26  1  0  0  0  0
 28 27  1  0  0  0  0
 28 32  1  0  0  0  0
 30 27  1  0  0  0  0
 33 28  1  0  0  0  0
 35 34  1  0  0  0  0
 35 37  1  0  0  0  0
 36 35  2  0  0  0  0
 37 43  2  0  0  0  0
 38 37  1  0  0  0  0
 38 39  2  0  0  0  0
 39 41  1  0  0  0  0
 40 39  1  0  0  0  0
 41 42  1  0  0  0  0
 43 41  1  0  0  0  0
M  END
>  <minimizedAffinity>
-5.68741798

$$$$

 OpenBabel03242523563D

 43 46  0  0  1  0  0  0  0  0999 V2000
   38.4850   30.4550   39.6640 C   0  0  1  0  0  0  0  0  0  0  0  0
   38.0170   30.9990   41.0040 C   0  0  1  0  0  0  0  0  0  0  0  0
   37.1020   32.0420   40.7600 O   0  0  0  0  0  0  0  0  0  0  0  0
   37.4360   32.8000   39.6350 C   0  0  0  0  0  0  0  0  0  0  0  0
   37.2580   32.0140   38.3500 C   0  0  2  0  0  0  0  0  0  0  0  0
   37.3000   30.4990   38.7570 C   0  0  1  0  0  0  0  0  0  0  0  0
   38.8030   29.4060   39.8270 H   0  0  0  0  0  0  0  0  0  0  0  0
   38.8440   31.3320   41.6520 H   0  0  0  0  0  0  0  0  0  0  0  0
   36.6990   33.6250   39.6210 H   0  0  0  0  0  0  0  0  0  0  0  0
   38.4390   33.2620   39.7310 H   0  0  0  0  0  0  0  0  0  0  0  0
   36.2940   32.2210   37.8450 H   0  0  0  0  0  0  0  0  0  0  0  0
   36.3350   30.5320   39.3530 H   0  0  0  0  0  0  0  0  0  0  0  0
   39.5370   31.2330   39.1540 O   0  0  0  0  0  0  0  0  0  0  0  0
   40.2520   30.6850   38.7310 H   0  0  0  0  0  0  0  0  0  0  0  0
   38.3560   32.2030   37.5280 O   0  0  0  0  0  0  0  0  0  0  0  0
   38.5830   31.4590   36.9440 H   0  0  0  0  0  0  0  0  0  0  0  0
   37.2210   29.9820   41.5610 O   0  0  0  0  0  0  0  0  0  0  0  0
   37.6870   28.8310   42.0620 C   0  0  0  0  0  0  0  0  0  0  0  0
   37.0360   27.6160   41.8010 C   0  0  0  0  0  0  0  0  0  0  0  0
   37.5560   26.4530   42.3390 C   0  0  0  0  0  0  0  0  0  0  0  0
   38.7010   26.5210   43.1170 N   0  0  0  0  0  0  0  0  0  0  0  0
   39.2980   27.7110   43.3450 C   0  0  0  0  0  0  0  0  0  0  0  0
   38.7930   28.8580   42.8200 N   0  0  0  0  0  0  0  0  0  0  0  0
   36.1580   27.5690   41.2040 H   0  0  0  0  0  0  0  0  0  0  0  0
   40.1970   27.7840   43.9520 H   0  0  0  0  0  0  0  0  0  0  0  0
   36.8940   25.1240   42.1230 C   0  0  0  0  0  0  0  0  0  0  0  0
   36.7830   24.6480   40.6760 C   0  0  0  0  0  0  0  0  0  0  0  0
   37.6690   23.9830   41.7450 C   0  0  0  0  0  0  0  0  0  0  0  0
   35.9970   25.0220   42.7560 H   0  0  0  0  0  0  0  0  0  0  0  0
   37.2640   25.2830   39.9200 H   0  0  0  0  0  0  0  0  0  0  0  0
   35.8230   24.1540   40.4580 H   0  0  0  0  0  0  0  0  0  0  0  0
   37.3490   22.9790   42.0280 H   0  0  0  0  0  0  0  0  0  0  0  0
   38.7560   24.0510   41.4850 H   0  0  0  0  0  0  0  0  0  0  0  0
   37.3610   29.7790   37.6240 O   0  0  0  0  0  0  0  0  0  0  0  0
   36.4020   29.3620   36.7900 C   0  0  0  0  0  0  0  0  0  0  0  0
   36.6600   29.1060   35.5090 O   0  0  0  0  0  0  0  0  0  0  0  0
   34.9300   29.0720   36.9770 C   0  0  0  0  0  0  0  0  0  0  0  0
   34.0830   29.0380   35.9400 N   0  0  0  0  0  0  0  0  0  0  0  0
   32.8390   28.7500   36.3770 C   0  0  0  0  0  0  0  0  0  0  0  0
   32.0000   28.6710   35.7290 H   0  0  0  0  0  0  0  0  0  0  0  0
   32.9190   28.6040   37.7040 N   0  0  0  0  0  0  0  0  0  0  0  0
   32.1520   28.3780   38.3720 H   0  0  0  0  0  0  0  0  0  0  0  0
   34.1690   28.7980   38.0480 N   0  0  0  0  0  0  0  0  0  0  0  0
  1  7  1  1  0  0  0
  1  2  1  0  0  0  0
  2 17  1  0  0  0  0
  2  8  1  1  0  0  0
  3  2  1  0  0  0  0
  4 10  1  0  0  0  0
  4  3  1  0  0  0  0
  5 11  1  6  0  0  0
  5  6  1  0  0  0  0
  5  4  1  0  0  0  0
  6 12  1  1  0  0  0
  6  1  1  0  0  0  0
  9  4  1  0  0  0  0
 13  1  1  0  0  0  0
 14 13  1  0  0  0  0
 15  5  1  0  0  0  0
 16 15  1  0  0  0  0
 17 18  1  0  0  0  0
 18 23  1  0  0  0  0
 19 18  2  0  0  0  0
 19 20  1  0  0  0  0
 20 21  2  0  0  0  0
 21 22  1  0  0  0  0
 22 25  1  0  0  0  0
 23 22  2  0  0  0  0
 24 19  1  0  0  0  0
 26 20  1  0  0  0  0
 26 29  1  0  0  0  0
 27 28  1  0  0  0  0
 27 26  1  0  0  0  0
 28 32  1  0  0  0  0
 28 26  1  0  0  0  0
 30 27  1  0  0  0  0
 31 27  1  0  0  0  0
 33 28  1  0  0  0  0
 34  6  1  0  0  0  0
 35 37  1  0  0  0  0
 35 34  1  0  0  0  0
 36 35  2  0  0  0  0
 37 43  2  0  0  0  0
 38 39  2  0  0  0  0
 38 37  1  0  0  0  0
 39 41  1  0  0  0  0
 40 39  1  0  0  0  0
 41 43  1  0  0  0  0
 41 42  1  0  0  0  0
M  END
>  <minimizedAffinity>
-5.6751399

$$$$
