
 OpenBabel03242522503D

 24 25  0  0  0  0  0  0  0  0999 V2000
   45.3620   30.8030   47.5710 O   0  0  0  0  0  0  0  0  0  0  0  0
   45.7720   32.0610   48.3780 P   0  0  2  0  0  0  0  0  0  0  0  0
   45.1750   31.8010   49.9280 O   0  0  0  0  0  0  0  0  0  0  0  0
   45.8450   32.0080   50.6300 H   0  0  0  0  0  0  0  0  0  0  0  0
   45.0120   33.3930   47.6720 O   0  0  0  0  0  0  0  0  0  0  0  0
   46.6980   33.4870   44.4510 C   0  0  0  0  0  0  0  0  0  0  0  0
   46.3280   33.1060   45.7600 C   0  0  0  0  0  0  0  0  0  0  0  0
   45.3310   33.8050   46.3970 C   0  0  0  0  0  0  0  0  0  0  0  0
   44.7420   34.8340   45.7370 N   0  0  0  0  0  0  0  0  0  0  0  0
   45.1000   35.1860   44.4980 C   0  0  0  0  0  0  0  0  0  0  0  0
   46.0760   34.5190   43.8480 N   0  0  0  0  0  0  0  0  0  0  0  0
   47.4690   33.0020   43.8690 H   0  0  0  0  0  0  0  0  0  0  0  0
   46.9110   32.2770   46.0850 H   0  0  0  0  0  0  0  0  0  0  0  0
   44.5040   36.0280   44.1650 H   0  0  0  0  0  0  0  0  0  0  0  0
   47.4190   32.2040   48.3480 O   0  0  0  0  0  0  0  0  0  0  0  0
   48.4240   31.3330   48.5530 C   0  0  0  0  0  0  0  0  0  0  0  0
   49.3240   31.7990   49.3970 O   0  0  0  0  0  0  0  0  0  0  0  0
   49.0000   30.0090   48.2270 C   0  0  0  0  0  0  0  0  0  0  0  0
   50.2850   29.7360   48.2230 N   0  0  0  0  0  0  0  0  0  0  0  0
   50.4670   28.4250   47.8650 C   0  0  0  0  0  0  0  0  0  0  0  0
   51.5040   28.1260   47.8400 H   0  0  0  0  0  0  0  0  0  0  0  0
   49.2610   27.8910   47.6480 N   0  0  0  0  0  0  0  0  0  0  0  0
   49.1870   26.8950   47.3650 H   0  0  0  0  0  0  0  0  0  0  0  0
   48.4000   28.8360   47.8650 N   0  0  0  0  0  0  0  0  0  0  0  0
  2  1  2  6  0  0  0
  2  3  1  0  0  0  0
  3  4  1  0  0  0  0
  5  2  1  0  0  0  0
  6  7  1  0  0  0  0
  7 13  1  0  0  0  0
  7  8  2  0  0  0  0
  8  5  1  0  0  0  0
  9  8  1  0  0  0  0
 10  9  2  0  0  0  0
 11  6  2  0  0  0  0
 11 10  1  0  0  0  0
 12  6  1  0  0  0  0
 14 10  1  0  0  0  0
 15  2  1  0  0  0  0
 15 16  1  0  0  0  0
 16 17  2  0  0  0  0
 18 16  1  0  0  0  0
 19 18  1  0  0  0  0
 20 19  2  0  0  0  0
 21 20  1  0  0  0  0
 22 24  1  0  0  0  0
 22 20  1  0  0  0  0
 23 22  1  0  0  0  0
 24 18  2  0  0  0  0
M  END
>  <minimizedAffinity>
-4.42179918

>  <minimizedRMSD>
0.289173394

$$$$
