
 OpenBabel03242522503D

 24 25  0  0  0  0  0  0  0  0999 V2000
   45.6310   30.6600   47.6800 O   0  0  0  0  0  0  0  0  0  0  0  0
   45.9290   31.9990   48.4020 P   0  0  2  0  0  0  0  0  0  0  0  0
   45.2750   31.8220   49.9410 O   0  0  0  0  0  0  0  0  0  0  0  0
   45.8970   32.1220   50.6530 H   0  0  0  0  0  0  0  0  0  0  0  0
   45.1280   33.2250   47.5620 O   0  0  0  0  0  0  0  0  0  0  0  0
   47.0010   33.2210   44.4450 C   0  0  0  0  0  0  0  0  0  0  0  0
   46.5560   32.8810   45.7410 C   0  0  0  0  0  0  0  0  0  0  0  0
   45.5210   33.5960   46.2950 C   0  0  0  0  0  0  0  0  0  0  0  0
   44.9700   34.6010   45.5690 N   0  0  0  0  0  0  0  0  0  0  0  0
   45.4000   34.9150   44.3420 C   0  0  0  0  0  0  0  0  0  0  0  0
   46.4140   34.2310   43.7730 N   0  0  0  0  0  0  0  0  0  0  0  0
   47.8060   32.7210   43.9250 H   0  0  0  0  0  0  0  0  0  0  0  0
   47.1200   32.0660   46.1270 H   0  0  0  0  0  0  0  0  0  0  0  0
   44.8230   35.7430   43.9480 H   0  0  0  0  0  0  0  0  0  0  0  0
   47.5650   32.2390   48.4330 O   0  0  0  0  0  0  0  0  0  0  0  0
   48.5950   31.5130   48.9060 C   0  0  0  0  0  0  0  0  0  0  0  0
   49.5770   32.2730   49.3520 O   0  0  0  0  0  0  0  0  0  0  0  0
   49.1450   30.1620   49.1560 C   0  0  0  0  0  0  0  0  0  0  0  0
   49.0890   29.1660   48.3030 N   0  0  0  0  0  0  0  0  0  0  0  0
   49.6810   28.0610   48.8610 C   0  0  0  0  0  0  0  0  0  0  0  0
   49.6730   27.1970   48.2130 H   0  0  0  0  0  0  0  0  0  0  0  0
   50.1040   28.3980   50.0820 N   0  0  0  0  0  0  0  0  0  0  0  0
   50.5840   27.6900   50.6710 H   0  0  0  0  0  0  0  0  0  0  0  0
   49.7820   29.6430   50.2480 N   0  0  0  0  0  0  0  0  0  0  0  0
  2  1  2  6  0  0  0
  2 15  1  0  0  0  0
  2  3  1  0  0  0  0
  3  4  1  0  0  0  0
  5  2  1  0  0  0  0
  6  7  1  0  0  0  0
  7 13  1  0  0  0  0
  7  8  2  0  0  0  0
  8  5  1  0  0  0  0
  9  8  1  0  0  0  0
 10  9  2  0  0  0  0
 11 10  1  0  0  0  0
 11  6  2  0  0  0  0
 12  6  1  0  0  0  0
 14 10  1  0  0  0  0
 15 16  1  0  0  0  0
 16 18  1  0  0  0  0
 16 17  2  0  0  0  0
 18 24  2  0  0  0  0
 19 20  2  0  0  0  0
 19 18  1  0  0  0  0
 20 22  1  0  0  0  0
 21 20  1  0  0  0  0
 22 24  1  0  0  0  0
 22 23  1  0  0  0  0
M  END
>  <minimizedAffinity>
-4.75683117

>  <minimizedRMSD>
0.733449519

$$$$
