
 OpenBabel03242522503D

 24 25  0  0  0  0  0  0  0  0999 V2000
   45.4590   30.8070   47.5430 O   0  0  0  0  0  0  0  0  0  0  0  0
   45.8330   32.0680   48.3640 P   0  0  2  0  0  0  0  0  0  0  0  0
   45.2350   31.7790   49.9080 O   0  0  0  0  0  0  0  0  0  0  0  0
   45.8950   31.9960   50.6160 H   0  0  0  0  0  0  0  0  0  0  0  0
   45.0450   33.3870   47.6660 O   0  0  0  0  0  0  0  0  0  0  0  0
   46.6950   33.5060   44.4270 C   0  0  0  0  0  0  0  0  0  0  0  0
   46.3420   33.1170   45.7380 C   0  0  0  0  0  0  0  0  0  0  0  0
   45.3470   33.8060   46.3890 C   0  0  0  0  0  0  0  0  0  0  0  0
   44.7440   34.8340   45.7400 N   0  0  0  0  0  0  0  0  0  0  0  0
   45.0870   35.1940   44.4980 C   0  0  0  0  0  0  0  0  0  0  0  0
   46.0600   34.5360   43.8350 N   0  0  0  0  0  0  0  0  0  0  0  0
   47.4630   33.0280   43.8340 H   0  0  0  0  0  0  0  0  0  0  0  0
   46.9330   32.2900   46.0540 H   0  0  0  0  0  0  0  0  0  0  0  0
   44.4820   36.0330   44.1760 H   0  0  0  0  0  0  0  0  0  0  0  0
   47.4770   32.2520   48.3450 O   0  0  0  0  0  0  0  0  0  0  0  0
   48.4940   31.5010   48.8060 C   0  0  0  0  0  0  0  0  0  0  0  0
   49.4690   32.2350   49.3060 O   0  0  0  0  0  0  0  0  0  0  0  0
   49.0330   30.1370   49.0080 C   0  0  0  0  0  0  0  0  0  0  0  0
   48.8990   29.1500   48.1540 N   0  0  0  0  0  0  0  0  0  0  0  0
   49.5060   28.0280   48.6610 C   0  0  0  0  0  0  0  0  0  0  0  0
   49.4360   27.1710   48.0090 H   0  0  0  0  0  0  0  0  0  0  0  0
   50.0190   28.3470   49.8510 N   0  0  0  0  0  0  0  0  0  0  0  0
   50.5250   27.6250   50.4000 H   0  0  0  0  0  0  0  0  0  0  0  0
   49.7350   29.5970   50.0490 N   0  0  0  0  0  0  0  0  0  0  0  0
  2  1  2  6  0  0  0
  2  3  1  0  0  0  0
  3  4  1  0  0  0  0
  5  2  1  0  0  0  0
  6  7  1  0  0  0  0
  7 13  1  0  0  0  0
  7  8  2  0  0  0  0
  8  5  1  0  0  0  0
  9  8  1  0  0  0  0
 10  9  2  0  0  0  0
 11  6  2  0  0  0  0
 11 10  1  0  0  0  0
 12  6  1  0  0  0  0
 14 10  1  0  0  0  0
 15  2  1  0  0  0  0
 15 16  1  0  0  0  0
 16 18  1  0  0  0  0
 16 17  2  0  0  0  0
 18 24  2  0  0  0  0
 19 20  2  0  0  0  0
 19 18  1  0  0  0  0
 20 22  1  0  0  0  0
 21 20  1  0  0  0  0
 22 24  1  0  0  0  0
 22 23  1  0  0  0  0
M  END
>  <minimizedAffinity>
-4.72999525

>  <minimizedRMSD>
0.610932887

$$$$
