
 OpenBabel03242522503D

 24 25  0  0  0  0  0  0  0  0999 V2000
   45.6870   30.5620   47.8040 O   0  0  0  0  0  0  0  0  0  0  0  0
   45.9740   31.9370   48.4610 P   0  0  2  0  0  0  0  0  0  0  0  0
   45.3270   31.8280   50.0090 O   0  0  0  0  0  0  0  0  0  0  0  0
   45.9480   32.1680   50.7030 H   0  0  0  0  0  0  0  0  0  0  0  0
   45.1590   33.1130   47.5650 O   0  0  0  0  0  0  0  0  0  0  0  0
   47.0640   33.0330   44.4690 C   0  0  0  0  0  0  0  0  0  0  0  0
   46.5960   32.7160   45.7620 C   0  0  0  0  0  0  0  0  0  0  0  0
   45.5760   33.4640   46.2990 C   0  0  0  0  0  0  0  0  0  0  0  0
   45.0610   34.4780   45.5600 N   0  0  0  0  0  0  0  0  0  0  0  0
   45.5130   34.7700   44.3360 C   0  0  0  0  0  0  0  0  0  0  0  0
   46.5130   34.0530   43.7830 N   0  0  0  0  0  0  0  0  0  0  0  0
   47.8610   32.5070   43.9610 H   0  0  0  0  0  0  0  0  0  0  0  0
   47.1320   31.8880   46.1600 H   0  0  0  0  0  0  0  0  0  0  0  0
   44.9640   35.6110   43.9290 H   0  0  0  0  0  0  0  0  0  0  0  0
   47.6080   32.1950   48.4740 O   0  0  0  0  0  0  0  0  0  0  0  0
   48.6460   31.5070   48.9830 C   0  0  0  0  0  0  0  0  0  0  0  0
   49.6310   32.2970   49.3640 O   0  0  0  0  0  0  0  0  0  0  0  0
   49.2040   30.1770   49.3200 C   0  0  0  0  0  0  0  0  0  0  0  0
   49.9450   29.9270   50.3740 N   0  0  0  0  0  0  0  0  0  0  0  0
   50.2980   28.6010   50.3720 C   0  0  0  0  0  0  0  0  0  0  0  0
   50.9120   28.3190   51.2140 H   0  0  0  0  0  0  0  0  0  0  0  0
   49.7580   28.0380   49.2890 N   0  0  0  0  0  0  0  0  0  0  0  0
   49.9120   27.0260   49.1070 H   0  0  0  0  0  0  0  0  0  0  0  0
   49.1110   28.9780   48.6720 N   0  0  0  0  0  0  0  0  0  0  0  0
  2  1  2  6  0  0  0
  2 15  1  0  0  0  0
  2  3  1  0  0  0  0
  3  4  1  0  0  0  0
  5  2  1  0  0  0  0
  6  7  1  0  0  0  0
  7 13  1  0  0  0  0
  7  8  2  0  0  0  0
  8  5  1  0  0  0  0
  9  8  1  0  0  0  0
 10  9  2  0  0  0  0
 11 10  1  0  0  0  0
 11  6  2  0  0  0  0
 12  6  1  0  0  0  0
 14 10  1  0  0  0  0
 15 16  1  0  0  0  0
 16 18  1  0  0  0  0
 16 17  2  0  0  0  0
 18 19  1  0  0  0  0
 20 19  2  0  0  0  0
 20 21  1  0  0  0  0
 22 20  1  0  0  0  0
 23 22  1  0  0  0  0
 24 22  1  0  0  0  0
 24 18  2  0  0  0  0
M  END
>  <minimizedAffinity>
-4.76260138

>  <minimizedRMSD>
1.03778982

$$$$
