
 OpenBabel03242522503D

 24 25  0  0  0  0  0  0  0  0999 V2000
   45.6540   30.6360   47.6940 O   0  0  0  0  0  0  0  0  0  0  0  0
   45.9680   31.9850   48.3910 P   0  0  2  0  0  0  0  0  0  0  0  0
   45.3540   31.8260   49.9490 O   0  0  0  0  0  0  0  0  0  0  0  0
   45.9940   32.1360   50.6400 H   0  0  0  0  0  0  0  0  0  0  0  0
   45.1450   33.1990   47.5560 O   0  0  0  0  0  0  0  0  0  0  0  0
   46.9990   33.2240   44.4280 C   0  0  0  0  0  0  0  0  0  0  0  0
   46.5610   32.8720   45.7230 C   0  0  0  0  0  0  0  0  0  0  0  0
   45.5300   33.5820   46.2900 C   0  0  0  0  0  0  0  0  0  0  0  0
   44.9750   34.5940   45.5770 N   0  0  0  0  0  0  0  0  0  0  0  0
   45.3970   34.9190   44.3510 C   0  0  0  0  0  0  0  0  0  0  0  0
   46.4080   34.2400   43.7690 N   0  0  0  0  0  0  0  0  0  0  0  0
   47.8010   32.7290   43.8980 H   0  0  0  0  0  0  0  0  0  0  0  0
   47.1280   32.0530   46.0980 H   0  0  0  0  0  0  0  0  0  0  0  0
   44.8180   35.7510   43.9680 H   0  0  0  0  0  0  0  0  0  0  0  0
   47.6040   32.2280   48.3770 O   0  0  0  0  0  0  0  0  0  0  0  0
   48.6360   31.5930   48.9640 C   0  0  0  0  0  0  0  0  0  0  0  0
   49.5870   32.4260   49.3390 O   0  0  0  0  0  0  0  0  0  0  0  0
   49.2080   30.2970   49.3950 C   0  0  0  0  0  0  0  0  0  0  0  0
   49.8870   30.1160   50.5050 N   0  0  0  0  0  0  0  0  0  0  0  0
   50.2790   28.8040   50.5850 C   0  0  0  0  0  0  0  0  0  0  0  0
   50.8450   28.5780   51.4760 H   0  0  0  0  0  0  0  0  0  0  0  0
   49.8260   28.1770   49.4960 N   0  0  0  0  0  0  0  0  0  0  0  0
   50.0210   27.1650   49.3700 H   0  0  0  0  0  0  0  0  0  0  0  0
   49.1940   29.0690   48.7990 N   0  0  0  0  0  0  0  0  0  0  0  0
  2  1  2  6  0  0  0
  2  3  1  0  0  0  0
  3  4  1  0  0  0  0
  5  2  1  0  0  0  0
  6  7  1  0  0  0  0
  7 13  1  0  0  0  0
  7  8  2  0  0  0  0
  8  5  1  0  0  0  0
  9  8  1  0  0  0  0
 10  9  2  0  0  0  0
 11 10  1  0  0  0  0
 11  6  2  0  0  0  0
 12  6  1  0  0  0  0
 14 10  1  0  0  0  0
 15  2  1  0  0  0  0
 15 16  1  0  0  0  0
 16 17  2  0  0  0  0
 16 18  1  0  0  0  0
 18 19  1  0  0  0  0
 19 20  2  0  0  0  0
 20 21  1  0  0  0  0
 22 20  1  0  0  0  0
 23 22  1  0  0  0  0
 24 18  2  0  0  0  0
 24 22  1  0  0  0  0
M  END
>  <minimizedAffinity>
-4.80887651

>  <minimizedRMSD>
0.908108413

$$$$
