
 OpenBabel03242521173D

 36 38  0  0  0  0  0  0  0  0999 V2000
   44.5320   35.6170   44.8030 C   0  0  0  0  0  0  0  0  0  0  0  0
   45.1280   35.5900   43.5230 C   0  0  0  0  0  0  0  0  0  0  0  0
   46.1500   34.6820   43.3220 C   0  0  0  0  0  0  0  0  0  0  0  0
   46.5120   33.8760   44.3650 N   0  0  0  0  0  0  0  0  0  0  0  0
   45.9290   33.9250   45.5640 C   0  0  0  0  0  0  0  0  0  0  0  0
   44.9240   34.8000   45.8030 N   0  0  0  0  0  0  0  0  0  0  0  0
   43.7210   36.3160   45.0140 H   0  0  0  0  0  0  0  0  0  0  0  0
   44.7560   36.2680   42.7980 H   0  0  0  0  0  0  0  0  0  0  0  0
   46.7690   34.6360   42.0360 N   0  0  0  0  0  0  0  0  0  0  0  0
   47.9610   35.2400   41.8880 C   0  0  0  0  0  0  0  0  0  0  0  0
   48.5640   35.1950   40.6340 C   0  0  0  0  0  0  0  0  0  0  0  0
   47.9180   34.5420   39.6150 C   0  0  0  0  0  0  0  0  0  0  0  0
   48.4980   34.5210   38.4800 O   0  0  0  0  0  0  0  0  0  0  0  0
   46.7260   33.9390   39.7630 N   0  0  0  0  0  0  0  0  0  0  0  0
   46.1940   34.0180   41.0030 C   0  0  0  0  0  0  0  0  0  0  0  0
   45.0820   33.4820   41.2320 O   0  0  0  0  0  0  0  0  0  0  0  0
   48.4060   35.7350   42.7420 H   0  0  0  0  0  0  0  0  0  0  0  0
   49.5210   35.6950   40.5660 H   0  0  0  0  0  0  0  0  0  0  0  0
   46.2560   33.4470   38.9660 H   0  0  0  0  0  0  0  0  0  0  0  0
   46.5250   32.9380   46.5000 C   0  0  0  0  0  0  0  0  0  0  0  0
   46.7490   32.0250   45.9020 H   0  0  0  0  0  0  0  0  0  0  0  0
   47.4910   33.2900   46.9260 H   0  0  0  0  0  0  0  0  0  0  0  0
   45.5330   32.5850   47.6000 C   0  0  0  0  0  0  0  0  0  0  0  0
   46.1120   32.5030   48.5450 H   0  0  0  0  0  0  0  0  0  0  0  0
   44.7960   33.4160   47.7480 H   0  0  0  0  0  0  0  0  0  0  0  0
   45.4360   30.1330   47.7330 C   0  0  0  0  0  0  0  0  0  0  0  0
   46.4600   30.2230   48.4310 O   0  0  0  0  0  0  0  0  0  0  0  0
   44.8750   31.3470   47.2770 N   0  0  0  0  0  0  0  0  0  0  0  0
   43.9970   31.3490   46.7140 H   0  0  0  0  0  0  0  0  0  0  0  0
   44.8680   28.8300   47.4180 C   0  0  0  0  0  0  0  0  0  0  0  0
   44.1730   28.5230   46.3310 N   0  0  0  0  0  0  0  0  0  0  0  0
   43.7930   27.2310   46.3510 C   0  0  0  0  0  0  0  0  0  0  0  0
   43.2490   26.5000   45.7680 H   0  0  0  0  0  0  0  0  0  0  0  0
   44.2860   26.7340   47.5150 N   0  0  0  0  0  0  0  0  0  0  0  0
   44.2990   25.8130   48.0430 H   0  0  0  0  0  0  0  0  0  0  0  0
   44.9340   27.7060   48.1540 N   0  0  0  0  0  0  0  0  0  0  0  0
  1  7  1  0  0  0  0
  1  6  1  0  0  0  0
  2  1  2  0  0  0  0
  3  2  1  0  0  0  0
  3  4  2  0  0  0  0
  4  5  1  0  0  0  0
  5  6  2  0  0  0  0
  5 20  1  0  0  0  0
  8  2  1  0  0  0  0
  9  3  1  0  0  0  0
 10  9  1  0  0  0  0
 10 17  1  0  0  0  0
 11 10  2  0  0  0  0
 12 14  1  0  0  0  0
 12 11  1  0  0  0  0
 13 12  2  0  0  0  0
 14 15  1  0  0  0  0
 15 16  2  0  0  0  0
 15  9  1  0  0  0  0
 18 11  1  0  0  0  0
 19 14  1  0  0  0  0
 20 22  1  0  0  0  0
 20 23  1  0  0  0  0
 21 20  1  0  0  0  0
 23 25  1  0  0  0  0
 23 24  1  0  0  0  0
 26 27  2  0  0  0  0
 28 23  1  0  0  0  0
 28 26  1  0  0  0  0
 29 28  1  0  0  0  0
 30 26  1  0  0  0  0
 30 36  2  0  0  0  0
 31 32  2  0  0  0  0
 31 30  1  0  0  0  0
 32 34  1  0  0  0  0
 33 32  1  0  0  0  0
 34 35  1  0  0  0  0
 34 36  1  0  0  0  0
M  END
>  <minimizedAffinity>
-6.21217537

>  <minimizedRMSD>
1.09056997

$$$$
