
 OpenBabel03242522503D

 24 25  0  0  0  0  0  0  0  0999 V2000
   45.6920   30.5530   47.8130 O   0  0  0  0  0  0  0  0  0  0  0  0
   45.9790   31.9330   48.4580 P   0  0  2  0  0  0  0  0  0  0  0  0
   45.3410   31.8330   50.0110 O   0  0  0  0  0  0  0  0  0  0  0  0
   45.9660   32.1790   50.6990 H   0  0  0  0  0  0  0  0  0  0  0  0
   45.1540   33.1010   47.5600 O   0  0  0  0  0  0  0  0  0  0  0  0
   47.0620   33.0350   44.4650 C   0  0  0  0  0  0  0  0  0  0  0  0
   46.5920   32.7110   45.7570 C   0  0  0  0  0  0  0  0  0  0  0  0
   45.5730   33.4580   46.2970 C   0  0  0  0  0  0  0  0  0  0  0  0
   45.0610   34.4780   45.5630 N   0  0  0  0  0  0  0  0  0  0  0  0
   45.5150   34.7760   44.3410 C   0  0  0  0  0  0  0  0  0  0  0  0
   46.5150   34.0600   43.7850 N   0  0  0  0  0  0  0  0  0  0  0  0
   47.8580   32.5090   43.9550 H   0  0  0  0  0  0  0  0  0  0  0  0
   47.1260   31.8790   46.1500 H   0  0  0  0  0  0  0  0  0  0  0  0
   44.9690   35.6210   43.9390 H   0  0  0  0  0  0  0  0  0  0  0  0
   47.6110   32.1970   48.4590 O   0  0  0  0  0  0  0  0  0  0  0  0
   48.6520   31.5360   49.0010 C   0  0  0  0  0  0  0  0  0  0  0  0
   49.6260   32.3490   49.3610 O   0  0  0  0  0  0  0  0  0  0  0  0
   49.2180   30.2250   49.3890 C   0  0  0  0  0  0  0  0  0  0  0  0
   49.9170   30.0090   50.4790 N   0  0  0  0  0  0  0  0  0  0  0  0
   50.2950   28.6910   50.5200 C   0  0  0  0  0  0  0  0  0  0  0  0
   50.8770   28.4380   51.3930 H   0  0  0  0  0  0  0  0  0  0  0  0
   49.8140   28.0950   49.4260 N   0  0  0  0  0  0  0  0  0  0  0  0
   49.9950   27.0850   49.2710 H   0  0  0  0  0  0  0  0  0  0  0  0
   49.1780   29.0110   48.7630 N   0  0  0  0  0  0  0  0  0  0  0  0
  2  1  2  6  0  0  0
  2 15  1  0  0  0  0
  2  3  1  0  0  0  0
  3  4  1  0  0  0  0
  5  2  1  0  0  0  0
  6  7  1  0  0  0  0
  7 13  1  0  0  0  0
  7  8  2  0  0  0  0
  8  5  1  0  0  0  0
  9  8  1  0  0  0  0
 10  9  2  0  0  0  0
 11 10  1  0  0  0  0
 11  6  2  0  0  0  0
 12  6  1  0  0  0  0
 14 10  1  0  0  0  0
 15 16  1  0  0  0  0
 16 17  2  0  0  0  0
 16 18  1  0  0  0  0
 18 19  1  0  0  0  0
 19 20  2  0  0  0  0
 20 21  1  0  0  0  0
 22 20  1  0  0  0  0
 23 22  1  0  0  0  0
 24 18  2  0  0  0  0
 24 22  1  0  0  0  0
M  END
>  <minimizedAffinity>
-4.7760191

>  <minimizedRMSD>
0.964885116

$$$$
