
 OpenBabel03242522503D

 24 25  0  0  0  0  0  0  0  0999 V2000
   45.6290   30.6590   47.6840 O   0  0  0  0  0  0  0  0  0  0  0  0
   45.9290   31.9990   48.4030 P   0  0  2  0  0  0  0  0  0  0  0  0
   45.2770   31.8250   49.9440 O   0  0  0  0  0  0  0  0  0  0  0  0
   45.9000   32.1250   50.6540 H   0  0  0  0  0  0  0  0  0  0  0  0
   45.1280   33.2240   47.5620 O   0  0  0  0  0  0  0  0  0  0  0  0
   47.0020   33.2190   44.4460 C   0  0  0  0  0  0  0  0  0  0  0  0
   46.5560   32.8800   45.7420 C   0  0  0  0  0  0  0  0  0  0  0  0
   45.5220   33.5950   46.2950 C   0  0  0  0  0  0  0  0  0  0  0  0
   44.9710   34.6000   45.5690 N   0  0  0  0  0  0  0  0  0  0  0  0
   45.4020   34.9140   44.3420 C   0  0  0  0  0  0  0  0  0  0  0  0
   46.4160   34.2290   43.7740 N   0  0  0  0  0  0  0  0  0  0  0  0
   47.8070   32.7190   43.9260 H   0  0  0  0  0  0  0  0  0  0  0  0
   47.1200   32.0640   46.1280 H   0  0  0  0  0  0  0  0  0  0  0  0
   44.8260   35.7420   43.9480 H   0  0  0  0  0  0  0  0  0  0  0  0
   47.5650   32.2380   48.4310 O   0  0  0  0  0  0  0  0  0  0  0  0
   48.5950   31.5130   48.9050 C   0  0  0  0  0  0  0  0  0  0  0  0
   49.5760   32.2730   49.3530 O   0  0  0  0  0  0  0  0  0  0  0  0
   49.1460   30.1620   49.1560 C   0  0  0  0  0  0  0  0  0  0  0  0
   49.0910   29.1660   48.3030 N   0  0  0  0  0  0  0  0  0  0  0  0
   49.6830   28.0600   48.8620 C   0  0  0  0  0  0  0  0  0  0  0  0
   49.6750   27.1970   48.2150 H   0  0  0  0  0  0  0  0  0  0  0  0
   50.1050   28.3980   50.0830 N   0  0  0  0  0  0  0  0  0  0  0  0
   50.5850   27.6910   50.6730 H   0  0  0  0  0  0  0  0  0  0  0  0
   49.7820   29.6440   50.2480 N   0  0  0  0  0  0  0  0  0  0  0  0
  2  1  2  6  0  0  0
  2 15  1  0  0  0  0
  2  3  1  0  0  0  0
  3  4  1  0  0  0  0
  5  2  1  0  0  0  0
  6  7  1  0  0  0  0
  7 13  1  0  0  0  0
  7  8  2  0  0  0  0
  8  5  1  0  0  0  0
  9  8  1  0  0  0  0
 10  9  2  0  0  0  0
 11 10  1  0  0  0  0
 11  6  2  0  0  0  0
 12  6  1  0  0  0  0
 14 10  1  0  0  0  0
 15 16  1  0  0  0  0
 16 18  1  0  0  0  0
 16 17  2  0  0  0  0
 18 24  2  0  0  0  0
 19 20  2  0  0  0  0
 19 18  1  0  0  0  0
 20 22  1  0  0  0  0
 21 20  1  0  0  0  0
 22 24  1  0  0  0  0
 22 23  1  0  0  0  0
M  END
>  <minimizedAffinity>
-4.75715971

>  <minimizedRMSD>
0.916678131

$$$$
