
 OpenBabel03242522503D

 24 25  0  0  0  0  0  0  0  0999 V2000
   45.6490   30.6390   47.6930 O   0  0  0  0  0  0  0  0  0  0  0  0
   45.9690   31.9860   48.3910 P   0  0  2  0  0  0  0  0  0  0  0  0
   45.3580   31.8280   49.9500 O   0  0  0  0  0  0  0  0  0  0  0  0
   46.0000   32.1360   50.6400 H   0  0  0  0  0  0  0  0  0  0  0  0
   45.1460   33.2020   47.5580 O   0  0  0  0  0  0  0  0  0  0  0  0
   46.9950   33.2280   44.4270 C   0  0  0  0  0  0  0  0  0  0  0  0
   46.5600   32.8760   45.7230 C   0  0  0  0  0  0  0  0  0  0  0  0
   45.5290   33.5860   46.2920 C   0  0  0  0  0  0  0  0  0  0  0  0
   44.9720   34.5960   45.5790 N   0  0  0  0  0  0  0  0  0  0  0  0
   45.3920   34.9220   44.3520 C   0  0  0  0  0  0  0  0  0  0  0  0
   46.4030   34.2430   43.7690 N   0  0  0  0  0  0  0  0  0  0  0  0
   47.7960   32.7330   43.8960 H   0  0  0  0  0  0  0  0  0  0  0  0
   47.1270   32.0570   46.0980 H   0  0  0  0  0  0  0  0  0  0  0  0
   44.8120   35.7530   43.9700 H   0  0  0  0  0  0  0  0  0  0  0  0
   47.6050   32.2250   48.3730 O   0  0  0  0  0  0  0  0  0  0  0  0
   48.6360   31.5920   48.9630 C   0  0  0  0  0  0  0  0  0  0  0  0
   49.5850   32.4270   49.3390 O   0  0  0  0  0  0  0  0  0  0  0  0
   49.2090   30.2980   49.3970 C   0  0  0  0  0  0  0  0  0  0  0  0
   49.8870   30.1190   50.5070 N   0  0  0  0  0  0  0  0  0  0  0  0
   50.2790   28.8070   50.5890 C   0  0  0  0  0  0  0  0  0  0  0  0
   50.8450   28.5830   51.4810 H   0  0  0  0  0  0  0  0  0  0  0  0
   49.8280   28.1780   49.5010 N   0  0  0  0  0  0  0  0  0  0  0  0
   50.0240   27.1650   49.3770 H   0  0  0  0  0  0  0  0  0  0  0  0
   49.1960   29.0680   48.8020 N   0  0  0  0  0  0  0  0  0  0  0  0
  2  1  2  6  0  0  0
  2  3  1  0  0  0  0
  3  4  1  0  0  0  0
  5  2  1  0  0  0  0
  6  7  1  0  0  0  0
  7 13  1  0  0  0  0
  7  8  2  0  0  0  0
  8  5  1  0  0  0  0
  9  8  1  0  0  0  0
 10  9  2  0  0  0  0
 11 10  1  0  0  0  0
 11  6  2  0  0  0  0
 12  6  1  0  0  0  0
 14 10  1  0  0  0  0
 15  2  1  0  0  0  0
 15 16  1  0  0  0  0
 16 17  2  0  0  0  0
 16 18  1  0  0  0  0
 18 19  1  0  0  0  0
 19 20  2  0  0  0  0
 20 21  1  0  0  0  0
 22 20  1  0  0  0  0
 23 22  1  0  0  0  0
 24 18  2  0  0  0  0
 24 22  1  0  0  0  0
M  END
>  <minimizedAffinity>
-4.80658007

>  <minimizedRMSD>
1.01519918

$$$$
