
 OpenBabel03252509193D

 41 44  0  0  1  0  0  0  0  0999 V2000
   36.9310   28.1500   41.6030 C   0  0  1  0  0  0  0  0  0  0  0  0
   36.9870   26.8100   42.2810 C   0  0  0  0  0  0  0  0  0  0  0  0
   38.3290   26.4710   42.8780 C   0  0  0  0  0  0  0  0  0  0  0  0
   38.9600   27.6340   43.6160 C   0  0  0  0  0  0  0  0  0  0  0  0
   38.8260   28.9430   42.8750 C   0  0  0  0  0  0  0  0  0  0  0  0
   38.3550   28.6420   41.4380 C   0  0  2  0  0  0  0  0  0  0  0  0
   36.4180   28.8470   42.2740 H   0  0  0  0  0  0  0  0  0  0  0  0
   36.7260   26.0340   41.5540 H   0  0  0  0  0  0  0  0  0  0  0  0
   36.2390   26.7510   43.1020 H   0  0  0  0  0  0  0  0  0  0  0  0
   38.9990   26.0820   42.0840 H   0  0  0  0  0  0  0  0  0  0  0  0
   38.1710   25.6730   43.5910 H   0  0  0  0  0  0  0  0  0  0  0  0
   40.0480   27.4080   43.6890 H   0  0  0  0  0  0  0  0  0  0  0  0
   38.5870   27.6930   44.6630 H   0  0  0  0  0  0  0  0  0  0  0  0
   39.7230   29.5750   42.8940 H   0  0  0  0  0  0  0  0  0  0  0  0
   37.9590   29.4770   43.3460 H   0  0  0  0  0  0  0  0  0  0  0  0
   39.0010   27.8200   41.0170 H   0  0  0  0  0  0  0  0  0  0  0  0
   34.5200   28.6020   38.3110 C   0  0  0  0  0  0  0  0  0  0  0  0
   35.4750   27.5850   38.1610 C   0  0  0  0  0  0  0  0  0  0  0  0
   36.3070   27.3610   39.1820 C   0  0  0  0  0  0  0  0  0  0  0  0
   36.2240   28.1130   40.3590 C   0  0  0  0  0  0  0  0  0  0  0  0
   34.8470   29.2550   40.0100 S   0  0  0  0  0  0  0  0  0  0  0  0
   35.5160   27.0180   37.2420 H   0  0  0  0  0  0  0  0  0  0  0  0
   37.0890   26.6200   39.2170 H   0  0  0  0  0  0  0  0  0  0  0  0
   31.4560   29.6950   36.5080 C   0  0  0  0  0  0  0  0  0  0  0  0
   31.9210   29.6840   35.1950 C   0  0  0  0  0  0  0  0  0  0  0  0
   33.2700   29.3050   34.9640 C   0  0  0  0  0  0  0  0  0  0  0  0
   34.0370   28.9720   36.0540 N   0  0  0  0  0  0  0  0  0  0  0  0
   33.5230   29.0030   37.2950 C   0  0  0  0  0  0  0  0  0  0  0  0
   32.2380   29.3620   37.5320 N   0  0  0  0  0  0  0  0  0  0  0  0
   30.4340   29.9800   36.6990 H   0  0  0  0  0  0  0  0  0  0  0  0
   31.3190   29.9440   34.3490 H   0  0  0  0  0  0  0  0  0  0  0  0
   33.7120   29.2690   33.9790 H   0  0  0  0  0  0  0  0  0  0  0  0
   38.4270   29.8590   40.6400 C   0  0  0  0  0  0  0  0  0  0  0  0
   38.8190   29.8970   39.5120 O   0  0  0  0  0  0  0  0  0  0  0  0
   38.1650   31.2920   40.6120 C   0  0  0  0  0  0  0  0  0  0  0  0
   39.1200   32.1900   40.8700 N   0  0  0  0  0  0  0  0  0  0  0  0
   38.5750   33.4370   40.6990 C   0  0  0  0  0  0  0  0  0  0  0  0
   39.2610   34.2520   40.8810 H   0  0  0  0  0  0  0  0  0  0  0  0
   37.3090   33.2920   40.3440 N   0  0  0  0  0  0  0  0  0  0  0  0
   36.7070   34.1240   40.1620 H   0  0  0  0  0  0  0  0  0  0  0  0
   37.1240   32.0300   40.3080 N   0  0  0  0  0  0  0  0  0  0  0  0
  1  7  1  1  0  0  0
  1  2  1  0  0  0  0
  2  3  1  0  0  0  0
  2  9  1  0  0  0  0
  3 11  1  0  0  0  0
  3  4  1  0  0  0  0
  4 12  1  0  0  0  0
  4 13  1  0  0  0  0
  5 14  1  0  0  0  0
  5 15  1  0  0  0  0
  5  4  1  0  0  0  0
  6 16  1  6  0  0  0
  6  1  1  0  0  0  0
  6  5  1  0  0  0  0
  8  2  1  0  0  0  0
 10  3  1  0  0  0  0
 17 21  1  0  0  0  0
 18 17  2  0  0  0  0
 18 19  1  0  0  0  0
 19 23  1  0  0  0  0
 19 20  2  0  0  0  0
 20  1  1  0  0  0  0
 21 20  1  0  0  0  0
 22 18  1  0  0  0  0
 24 30  1  0  0  0  0
 24 29  1  0  0  0  0
 25 24  2  0  0  0  0
 26 25  1  0  0  0  0
 26 27  2  0  0  0  0
 27 28  1  0  0  0  0
 28 29  2  0  0  0  0
 28 17  1  0  0  0  0
 31 25  1  0  0  0  0
 32 26  1  0  0  0  0
 33  6  1  0  0  0  0
 34 33  2  0  0  0  0
 35 33  1  0  0  0  0
 35 36  1  0  0  0  0
 37 36  2  0  0  0  0
 37 38  1  0  0  0  0
 39 37  1  0  0  0  0
 40 39  1  0  0  0  0
 41 39  1  0  0  0  0
 41 35  2  0  0  0  0
M  END
>  <minimizedAffinity>
-5.86845541

$$$$

 OpenBabel03252509193D

 41 44  0  0  1  0  0  0  0  0999 V2000
   36.9590   28.4070   41.8150 C   0  0  1  0  0  0  0  0  0  0  0  0
   36.9550   27.0590   42.4770 C   0  0  0  0  0  0  0  0  0  0  0  0
   38.3200   26.5630   42.8860 C   0  0  0  0  0  0  0  0  0  0  0  0
   39.1710   27.6360   43.5320 C   0  0  0  0  0  0  0  0  0  0  0  0
   39.0850   28.9640   42.8180 C   0  0  0  0  0  0  0  0  0  0  0  0
   38.3940   28.7410   41.4580 C   0  0  2  0  0  0  0  0  0  0  0  0
   36.6230   29.1460   42.5490 H   0  0  0  0  0  0  0  0  0  0  0  0
   36.5130   26.3290   41.7910 H   0  0  0  0  0  0  0  0  0  0  0  0
   36.3230   27.0690   43.3920 H   0  0  0  0  0  0  0  0  0  0  0  0
   38.8280   26.1150   42.0070 H   0  0  0  0  0  0  0  0  0  0  0  0
   38.1700   25.7760   43.6130 H   0  0  0  0  0  0  0  0  0  0  0  0
   40.2260   27.2890   43.4560 H   0  0  0  0  0  0  0  0  0  0  0  0
   38.9510   27.7190   44.6210 H   0  0  0  0  0  0  0  0  0  0  0  0
   40.0420   29.4920   42.7150 H   0  0  0  0  0  0  0  0  0  0  0  0
   38.3550   29.5830   43.4030 H   0  0  0  0  0  0  0  0  0  0  0  0
   38.8810   27.8600   40.9510 H   0  0  0  0  0  0  0  0  0  0  0  0
   34.8720   28.0280   38.2990 C   0  0  0  0  0  0  0  0  0  0  0  0
   34.3670   29.0350   39.1360 C   0  0  0  0  0  0  0  0  0  0  0  0
   34.9820   29.2360   40.3050 C   0  0  0  0  0  0  0  0  0  0  0  0
   36.0910   28.4690   40.6780 C   0  0  0  0  0  0  0  0  0  0  0  0
   36.3010   27.3480   39.2560 S   0  0  0  0  0  0  0  0  0  0  0  0
   33.5100   29.6140   38.8230 H   0  0  0  0  0  0  0  0  0  0  0  0
   34.7140   29.9670   41.0500 H   0  0  0  0  0  0  0  0  0  0  0  0
   33.1140   26.3770   35.4680 C   0  0  0  0  0  0  0  0  0  0  0  0
   33.4860   27.2160   34.4200 C   0  0  0  0  0  0  0  0  0  0  0  0
   34.3250   28.3240   34.7110 C   0  0  0  0  0  0  0  0  0  0  0  0
   34.7200   28.5000   36.0160 N   0  0  0  0  0  0  0  0  0  0  0  0
   34.3240   27.6520   36.9780 C   0  0  0  0  0  0  0  0  0  0  0  0
   33.5240   26.5900   36.7160 N   0  0  0  0  0  0  0  0  0  0  0  0
   32.4770   25.5330   35.2620 H   0  0  0  0  0  0  0  0  0  0  0  0
   33.1750   27.0730   33.4050 H   0  0  0  0  0  0  0  0  0  0  0  0
   34.6610   29.0230   33.9600 H   0  0  0  0  0  0  0  0  0  0  0  0
   38.4940   29.9560   40.6590 C   0  0  0  0  0  0  0  0  0  0  0  0
   38.9720   29.9990   39.5650 O   0  0  0  0  0  0  0  0  0  0  0  0
   38.1950   31.3800   40.6000 C   0  0  0  0  0  0  0  0  0  0  0  0
   39.1350   32.3080   40.8010 N   0  0  0  0  0  0  0  0  0  0  0  0
   38.5530   33.5360   40.6130 C   0  0  0  0  0  0  0  0  0  0  0  0
   39.2230   34.3730   40.7500 H   0  0  0  0  0  0  0  0  0  0  0  0
   37.2800   33.3500   40.3040 N   0  0  0  0  0  0  0  0  0  0  0  0
   36.6520   34.1610   40.1200 H   0  0  0  0  0  0  0  0  0  0  0  0
   37.1260   32.0830   40.3100 N   0  0  0  0  0  0  0  0  0  0  0  0
  1  2  1  0  0  0  0
  1  7  1  1  0  0  0
  2  3  1  0  0  0  0
  2  9  1  0  0  0  0
  3  4  1  0  0  0  0
  3 11  1  0  0  0  0
  4 13  1  0  0  0  0
  5 15  1  0  0  0  0
  5  4  1  0  0  0  0
  6 16  1  6  0  0  0
  6  1  1  0  0  0  0
  6  5  1  0  0  0  0
  8  2  1  0  0  0  0
 10  3  1  0  0  0  0
 12  4  1  0  0  0  0
 14  5  1  0  0  0  0
 17 18  2  0  0  0  0
 17 21  1  0  0  0  0
 18 19  1  0  0  0  0
 19 20  2  0  0  0  0
 19 23  1  0  0  0  0
 20  1  1  0  0  0  0
 21 20  1  0  0  0  0
 22 18  1  0  0  0  0
 24 29  1  0  0  0  0
 25 26  1  0  0  0  0
 25 24  2  0  0  0  0
 26 27  2  0  0  0  0
 27 28  1  0  0  0  0
 28 17  1  0  0  0  0
 29 28  2  0  0  0  0
 30 24  1  0  0  0  0
 31 25  1  0  0  0  0
 32 26  1  0  0  0  0
 33  6  1  0  0  0  0
 34 33  2  0  0  0  0
 35 33  1  0  0  0  0
 35 36  1  0  0  0  0
 37 38  1  0  0  0  0
 37 36  2  0  0  0  0
 39 41  1  0  0  0  0
 39 37  1  0  0  0  0
 40 39  1  0  0  0  0
 41 35  2  0  0  0  0
M  END
>  <minimizedAffinity>
-5.79105759

$$$$

 OpenBabel03252509193D

 41 44  0  0  1  0  0  0  0  0999 V2000
   36.5370   30.4100   38.1140 C   0  0  1  0  0  0  0  0  0  0  0  0
   37.0040   30.2360   36.6970 C   0  0  0  0  0  0  0  0  0  0  0  0
   36.8770   28.8290   36.1680 C   0  0  0  0  0  0  0  0  0  0  0  0
   35.5610   28.1750   36.5360 C   0  0  0  0  0  0  0  0  0  0  0  0
   35.1570   28.4320   37.9680 C   0  0  0  0  0  0  0  0  0  0  0  0
   36.3670   29.0290   38.7150 C   0  0  2  0  0  0  0  0  0  0  0  0
   35.5500   30.8820   38.0900 H   0  0  0  0  0  0  0  0  0  0  0  0
   38.0550   30.5350   36.6310 H   0  0  0  0  0  0  0  0  0  0  0  0
   36.4340   30.8970   36.0090 H   0  0  0  0  0  0  0  0  0  0  0  0
   37.7410   28.2250   36.5130 H   0  0  0  0  0  0  0  0  0  0  0  0
   36.9280   28.8870   35.0890 H   0  0  0  0  0  0  0  0  0  0  0  0
   35.7140   27.0780   36.4290 H   0  0  0  0  0  0  0  0  0  0  0  0
   34.7620   28.4480   35.8090 H   0  0  0  0  0  0  0  0  0  0  0  0
   34.7350   27.5630   38.4880 H   0  0  0  0  0  0  0  0  0  0  0  0
   34.4100   29.2690   37.9330 H   0  0  0  0  0  0  0  0  0  0  0  0
   37.2710   28.3950   38.4910 H   0  0  0  0  0  0  0  0  0  0  0  0
   39.5730   32.2910   40.1400 C   0  0  0  0  0  0  0  0  0  0  0  0
   38.3390   32.9490   40.2570 C   0  0  0  0  0  0  0  0  0  0  0  0
   37.2880   32.4110   39.6330 C   0  0  0  0  0  0  0  0  0  0  0  0
   37.4150   31.2320   38.8910 C   0  0  0  0  0  0  0  0  0  0  0  0
   39.1830   30.8290   39.0770 S   0  0  0  0  0  0  0  0  0  0  0  0
   38.2680   33.8570   40.8390 H   0  0  0  0  0  0  0  0  0  0  0  0
   36.2810   32.7970   39.6290 H   0  0  0  0  0  0  0  0  0  0  0  0
   42.6320   34.1610   41.1270 C   0  0  0  0  0  0  0  0  0  0  0  0
   43.1990   33.2580   42.0240 C   0  0  0  0  0  0  0  0  0  0  0  0
   42.5170   32.0370   42.2670 C   0  0  0  0  0  0  0  0  0  0  0  0
   41.3360   31.8200   41.6000 N   0  0  0  0  0  0  0  0  0  0  0  0
   40.8460   32.7340   40.7470 C   0  0  0  0  0  0  0  0  0  0  0  0
   41.4850   33.9050   40.5040 N   0  0  0  0  0  0  0  0  0  0  0  0
   43.1390   35.0920   40.9320 H   0  0  0  0  0  0  0  0  0  0  0  0
   44.1200   33.4330   42.5400 H   0  0  0  0  0  0  0  0  0  0  0  0
   42.8850   31.2820   42.9470 H   0  0  0  0  0  0  0  0  0  0  0  0
   36.0760   29.0820   40.1420 C   0  0  0  0  0  0  0  0  0  0  0  0
   34.9860   29.2680   40.5960 O   0  0  0  0  0  0  0  0  0  0  0  0
   36.6290   28.9670   41.4840 C   0  0  0  0  0  0  0  0  0  0  0  0
   36.5300   27.8400   42.1950 N   0  0  0  0  0  0  0  0  0  0  0  0
   37.2030   28.0330   43.3760 C   0  0  0  0  0  0  0  0  0  0  0  0
   37.1910   27.1800   44.0400 H   0  0  0  0  0  0  0  0  0  0  0  0
   37.6990   29.2580   43.3750 N   0  0  0  0  0  0  0  0  0  0  0  0
   38.2510   29.6110   44.1870 H   0  0  0  0  0  0  0  0  0  0  0  0
   37.3390   29.7560   42.2570 N   0  0  0  0  0  0  0  0  0  0  0  0
  1  7  1  6  0  0  0
  1  6  1  0  0  0  0
  1 20  1  0  0  0  0
  2  1  1  0  0  0  0
  3 10  1  0  0  0  0
  3  4  1  0  0  0  0
  3  2  1  0  0  0  0
  4  5  1  0  0  0  0
  5 14  1  0  0  0  0
  5  6  1  0  0  0  0
  6 16  1  6  0  0  0
  6 33  1  0  0  0  0
  8  2  1  0  0  0  0
  9  2  1  0  0  0  0
 11  3  1  0  0  0  0
 12  4  1  0  0  0  0
 13  4  1  0  0  0  0
 15  5  1  0  0  0  0
 17 18  2  0  0  0  0
 17 28  1  0  0  0  0
 18 22  1  0  0  0  0
 19 18  1  0  0  0  0
 20 21  1  0  0  0  0
 20 19  2  0  0  0  0
 21 17  1  0  0  0  0
 23 19  1  0  0  0  0
 24 25  1  0  0  0  0
 25 26  2  0  0  0  0
 25 31  1  0  0  0  0
 26 32  1  0  0  0  0
 27 26  1  0  0  0  0
 28 27  2  0  0  0  0
 29 28  1  0  0  0  0
 29 24  2  0  0  0  0
 30 24  1  0  0  0  0
 33 34  2  0  0  0  0
 33 35  1  0  0  0  0
 35 36  1  0  0  0  0
 35 41  2  0  0  0  0
 36 37  2  0  0  0  0
 37 38  1  0  0  0  0
 39 37  1  0  0  0  0
 39 40  1  0  0  0  0
 41 39  1  0  0  0  0
M  END
>  <minimizedAffinity>
-5.75762367

$$$$

 OpenBabel03252509193D

 41 44  0  0  1  0  0  0  0  0999 V2000
   39.3330   26.7410   41.5880 C   0  0  1  0  0  0  0  0  0  0  0  0
   40.1730   25.5050   41.7390 C   0  0  0  0  0  0  0  0  0  0  0  0
   39.5280   24.4100   42.5520 C   0  0  0  0  0  0  0  0  0  0  0  0
   38.0660   24.2020   42.2110 C   0  0  0  0  0  0  0  0  0  0  0  0
   37.3110   25.4990   42.0460 C   0  0  0  0  0  0  0  0  0  0  0  0
   38.1910   26.6460   42.5820 C   0  0  2  0  0  0  0  0  0  0  0  0
   38.8960   26.7330   40.5840 H   0  0  0  0  0  0  0  0  0  0  0  0
   41.1200   25.7760   42.2160 H   0  0  0  0  0  0  0  0  0  0  0  0
   40.4210   25.0720   40.7460 H   0  0  0  0  0  0  0  0  0  0  0  0
   39.6670   24.6200   43.6320 H   0  0  0  0  0  0  0  0  0  0  0  0
   40.0540   23.4920   42.3270 H   0  0  0  0  0  0  0  0  0  0  0  0
   37.6150   23.6660   43.0760 H   0  0  0  0  0  0  0  0  0  0  0  0
   37.9530   23.5240   41.3350 H   0  0  0  0  0  0  0  0  0  0  0  0
   36.3070   25.5040   42.4890 H   0  0  0  0  0  0  0  0  0  0  0  0
   37.2530   25.6850   40.9410 H   0  0  0  0  0  0  0  0  0  0  0  0
   38.5850   26.3490   43.5950 H   0  0  0  0  0  0  0  0  0  0  0  0
   41.2540   30.3620   41.3680 C   0  0  0  0  0  0  0  0  0  0  0  0
   41.4540   29.7040   42.5910 C   0  0  0  0  0  0  0  0  0  0  0  0
   40.8690   28.5140   42.7570 C   0  0  0  0  0  0  0  0  0  0  0  0
   40.0870   27.9470   41.7460 C   0  0  0  0  0  0  0  0  0  0  0  0
   40.1710   29.1990   40.4240 S   0  0  0  0  0  0  0  0  0  0  0  0
   42.0650   30.1640   43.3550 H   0  0  0  0  0  0  0  0  0  0  0  0
   40.9280   27.8910   43.6350 H   0  0  0  0  0  0  0  0  0  0  0  0
   42.2330   33.4970   39.6230 C   0  0  0  0  0  0  0  0  0  0  0  0
   42.9680   34.1240   40.6270 C   0  0  0  0  0  0  0  0  0  0  0  0
   43.1060   33.4570   41.8730 C   0  0  0  0  0  0  0  0  0  0  0  0
   42.5030   32.2300   42.0120 N   0  0  0  0  0  0  0  0  0  0  0  0
   41.8090   31.6830   41.0010 C   0  0  0  0  0  0  0  0  0  0  0  0
   41.6680   32.3060   39.8060 N   0  0  0  0  0  0  0  0  0  0  0  0
   42.1190   33.9910   38.6720 H   0  0  0  0  0  0  0  0  0  0  0  0
   43.4360   35.0800   40.5120 H   0  0  0  0  0  0  0  0  0  0  0  0
   43.6580   33.8700   42.7040 H   0  0  0  0  0  0  0  0  0  0  0  0
   37.4060   27.8730   42.6360 C   0  0  0  0  0  0  0  0  0  0  0  0
   37.1360   28.4490   43.6480 O   0  0  0  0  0  0  0  0  0  0  0  0
   36.7060   28.8840   41.8570 C   0  0  0  0  0  0  0  0  0  0  0  0
   35.8400   28.5590   40.8930 N   0  0  0  0  0  0  0  0  0  0  0  0
   35.3080   29.7240   40.4020 C   0  0  0  0  0  0  0  0  0  0  0  0
   34.5870   29.5850   39.6080 H   0  0  0  0  0  0  0  0  0  0  0  0
   35.8470   30.7370   41.0600 N   0  0  0  0  0  0  0  0  0  0  0  0
   35.5780   31.7200   40.8400 H   0  0  0  0  0  0  0  0  0  0  0  0
   36.6490   30.1950   41.8910 N   0  0  0  0  0  0  0  0  0  0  0  0
  1  7  1  6  0  0  0
  1  2  1  0  0  0  0
  1 20  1  0  0  0  0
  1  6  1  0  0  0  0
  2  8  1  0  0  0  0
  2  3  1  0  0  0  0
  3 10  1  0  0  0  0
  4  3  1  0  0  0  0
  4 12  1  0  0  0  0
  5  4  1  0  0  0  0
  5 14  1  0  0  0  0
  5  6  1  0  0  0  0
  6 33  1  0  0  0  0
  6 16  1  1  0  0  0
  9  2  1  0  0  0  0
 11  3  1  0  0  0  0
 13  4  1  0  0  0  0
 15  5  1  0  0  0  0
 17 18  2  0  0  0  0
 18 19  1  0  0  0  0
 18 22  1  0  0  0  0
 19 23  1  0  0  0  0
 20 19  2  0  0  0  0
 21 17  1  0  0  0  0
 21 20  1  0  0  0  0
 24 29  2  0  0  0  0
 24 25  1  0  0  0  0
 25 26  2  0  0  0  0
 26 27  1  0  0  0  0
 26 32  1  0  0  0  0
 28 17  1  0  0  0  0
 28 27  2  0  0  0  0
 29 28  1  0  0  0  0
 30 24  1  0  0  0  0
 31 25  1  0  0  0  0
 33 34  2  0  0  0  0
 35 41  2  0  0  0  0
 35 33  1  0  0  0  0
 36 35  1  0  0  0  0
 37 36  2  0  0  0  0
 37 39  1  0  0  0  0
 38 37  1  0  0  0  0
 39 41  1  0  0  0  0
 40 39  1  0  0  0  0
M  END
>  <minimizedAffinity>
-5.66672087

$$$$

 OpenBabel03252509193D

 41 44  0  0  1  0  0  0  0  0999 V2000
   37.4130   27.1870   42.1690 C   0  0  1  0  0  0  0  0  0  0  0  0
   37.4790   25.6940   42.0250 C   0  0  0  0  0  0  0  0  0  0  0  0
   38.8530   25.1090   42.2370 C   0  0  0  0  0  0  0  0  0  0  0  0
   39.5770   25.7110   43.4230 C   0  0  0  0  0  0  0  0  0  0  0  0
   39.4270   27.2110   43.5040 C   0  0  0  0  0  0  0  0  0  0  0  0
   38.8350   27.7130   42.1720 C   0  0  2  0  0  0  0  0  0  0  0  0
   36.9770   27.4140   43.1480 H   0  0  0  0  0  0  0  0  0  0  0  0
   37.1380   25.4190   41.0220 H   0  0  0  0  0  0  0  0  0  0  0  0
   36.7970   25.1960   42.7490 H   0  0  0  0  0  0  0  0  0  0  0  0
   39.4460   25.2120   41.3040 H   0  0  0  0  0  0  0  0  0  0  0  0
   38.7260   24.0520   42.4280 H   0  0  0  0  0  0  0  0  0  0  0  0
   40.6600   25.4960   43.2740 H   0  0  0  0  0  0  0  0  0  0  0  0
   39.2890   25.1990   44.3690 H   0  0  0  0  0  0  0  0  0  0  0  0
   40.3430   27.7500   43.7810 H   0  0  0  0  0  0  0  0  0  0  0  0
   38.6170   27.4010   44.2580 H   0  0  0  0  0  0  0  0  0  0  0  0
   39.4190   27.2510   41.3260 H   0  0  0  0  0  0  0  0  0  0  0  0
   35.4600   28.5160   38.8110 C   0  0  0  0  0  0  0  0  0  0  0  0
   35.0290   29.1480   39.9880 C   0  0  0  0  0  0  0  0  0  0  0  0
   35.6080   28.7830   41.1350 C   0  0  0  0  0  0  0  0  0  0  0  0
   36.6100   27.8070   41.1590 C   0  0  0  0  0  0  0  0  0  0  0  0
   36.7630   27.3450   39.4030 S   0  0  0  0  0  0  0  0  0  0  0  0
   34.2540   29.9000   39.9410 H   0  0  0  0  0  0  0  0  0  0  0  0
   35.3860   29.1740   42.1150 H   0  0  0  0  0  0  0  0  0  0  0  0
   35.0540   29.1310   35.1660 C   0  0  0  0  0  0  0  0  0  0  0  0
   33.6700   29.2740   35.0890 C   0  0  0  0  0  0  0  0  0  0  0  0
   32.9160   29.1540   36.2860 C   0  0  0  0  0  0  0  0  0  0  0  0
   33.5990   28.9020   37.4510 N   0  0  0  0  0  0  0  0  0  0  0  0
   34.9360   28.7760   37.4530 C   0  0  0  0  0  0  0  0  0  0  0  0
   35.6710   28.8890   36.3200 N   0  0  0  0  0  0  0  0  0  0  0  0
   35.6400   29.2190   34.2660 H   0  0  0  0  0  0  0  0  0  0  0  0
   33.1430   29.4700   34.1780 H   0  0  0  0  0  0  0  0  0  0  0  0
   31.8400   29.2500   36.3160 H   0  0  0  0  0  0  0  0  0  0  0  0
   38.8830   29.1690   42.1400 C   0  0  0  0  0  0  0  0  0  0  0  0
   38.7610   29.8640   43.1040 O   0  0  0  0  0  0  0  0  0  0  0  0
   39.0670   30.3450   41.3000 C   0  0  0  0  0  0  0  0  0  0  0  0
   39.5210   31.5010   41.7920 N   0  0  0  0  0  0  0  0  0  0  0  0
   39.6430   32.3790   40.7450 C   0  0  0  0  0  0  0  0  0  0  0  0
   40.0060   33.3580   41.0240 H   0  0  0  0  0  0  0  0  0  0  0  0
   39.2670   31.7610   39.6380 N   0  0  0  0  0  0  0  0  0  0  0  0
   39.2840   32.2540   38.7200 H   0  0  0  0  0  0  0  0  0  0  0  0
   38.9440   30.5860   40.0150 N   0  0  0  0  0  0  0  0  0  0  0  0
  1  6  1  0  0  0  0
  1  7  1  1  0  0  0
  2  1  1  0  0  0  0
  2  3  1  0  0  0  0
  2  9  1  0  0  0  0
  3 11  1  0  0  0  0
  3  4  1  0  0  0  0
  4  5  1  0  0  0  0
  4 13  1  0  0  0  0
  5 14  1  0  0  0  0
  5 15  1  0  0  0  0
  6 16  1  6  0  0  0
  6  5  1  0  0  0  0
  8  2  1  0  0  0  0
 10  3  1  0  0  0  0
 12  4  1  0  0  0  0
 17 21  1  0  0  0  0
 17 18  2  0  0  0  0
 18 19  1  0  0  0  0
 19 20  2  0  0  0  0
 19 23  1  0  0  0  0
 20  1  1  0  0  0  0
 21 20  1  0  0  0  0
 22 18  1  0  0  0  0
 24 29  1  0  0  0  0
 25 24  2  0  0  0  0
 25 26  1  0  0  0  0
 26 32  1  0  0  0  0
 26 27  2  0  0  0  0
 27 28  1  0  0  0  0
 28 17  1  0  0  0  0
 29 28  2  0  0  0  0
 30 24  1  0  0  0  0
 31 25  1  0  0  0  0
 33  6  1  0  0  0  0
 33 34  2  0  0  0  0
 35 36  1  0  0  0  0
 35 33  1  0  0  0  0
 37 38  1  0  0  0  0
 37 36  2  0  0  0  0
 39 41  1  0  0  0  0
 39 37  1  0  0  0  0
 40 39  1  0  0  0  0
 41 35  2  0  0  0  0
M  END
>  <minimizedAffinity>
-5.51291418

$$$$

 OpenBabel03252509193D

 41 44  0  0  1  0  0  0  0  0999 V2000
   38.0910   31.2970   39.6330 C   0  0  1  0  0  0  0  0  0  0  0  0
   37.3260   32.3740   38.9170 C   0  0  0  0  0  0  0  0  0  0  0  0
   37.3870   33.7270   39.5810 C   0  0  0  0  0  0  0  0  0  0  0  0
   38.7760   34.0860   40.0660 C   0  0  0  0  0  0  0  0  0  0  0  0
   39.4800   32.9350   40.7410 C   0  0  0  0  0  0  0  0  0  0  0  0
   38.4450   31.8230   41.0100 C   0  0  2  0  0  0  0  0  0  0  0  0
   39.0290   31.1320   39.0930 H   0  0  0  0  0  0  0  0  0  0  0  0
   36.2760   32.0720   38.8420 H   0  0  0  0  0  0  0  0  0  0  0  0
   37.7020   32.5020   37.8780 H   0  0  0  0  0  0  0  0  0  0  0  0
   36.6450   33.7670   40.4050 H   0  0  0  0  0  0  0  0  0  0  0  0
   37.0930   34.4600   38.8420 H   0  0  0  0  0  0  0  0  0  0  0  0
   38.6460   34.8860   40.8290 H   0  0  0  0  0  0  0  0  0  0  0  0
   39.3810   34.5380   39.2460 H   0  0  0  0  0  0  0  0  0  0  0  0
   40.0410   33.2070   41.6450 H   0  0  0  0  0  0  0  0  0  0  0  0
   40.1660   32.4960   39.9700 H   0  0  0  0  0  0  0  0  0  0  0  0
   37.5390   32.2890   41.4910 H   0  0  0  0  0  0  0  0  0  0  0  0
   36.6680   27.4470   39.5590 C   0  0  0  0  0  0  0  0  0  0  0  0
   35.7300   28.3740   40.0380 C   0  0  0  0  0  0  0  0  0  0  0  0
   36.1010   29.6560   40.0980 C   0  0  0  0  0  0  0  0  0  0  0  0
   37.3780   30.0580   39.6950 C   0  0  0  0  0  0  0  0  0  0  0  0
   38.1490   28.4880   39.1800 S   0  0  0  0  0  0  0  0  0  0  0  0
   34.7490   28.0370   40.3420 H   0  0  0  0  0  0  0  0  0  0  0  0
   35.4960   30.4800   40.4420 H   0  0  0  0  0  0  0  0  0  0  0  0
   35.8990   24.0170   38.3450 C   0  0  0  0  0  0  0  0  0  0  0  0
   36.1190   23.2840   39.5090 C   0  0  0  0  0  0  0  0  0  0  0  0
   36.5270   23.9840   40.6760 C   0  0  0  0  0  0  0  0  0  0  0  0
   36.6800   25.3460   40.5840 N   0  0  0  0  0  0  0  0  0  0  0  0
   36.4500   25.9900   39.4280 C   0  0  0  0  0  0  0  0  0  0  0  0
   36.0600   25.3370   38.3060 N   0  0  0  0  0  0  0  0  0  0  0  0
   35.5900   23.4990   37.4520 H   0  0  0  0  0  0  0  0  0  0  0  0
   35.9980   22.2220   39.5750 H   0  0  0  0  0  0  0  0  0  0  0  0
   36.7190   23.4950   41.6190 H   0  0  0  0  0  0  0  0  0  0  0  0
   39.0460   30.7970   41.8530 C   0  0  0  0  0  0  0  0  0  0  0  0
   40.1710   30.8350   42.2530 O   0  0  0  0  0  0  0  0  0  0  0  0
   38.8250   29.5390   42.5540 C   0  0  0  0  0  0  0  0  0  0  0  0
   37.6760   29.2740   43.1820 N   0  0  0  0  0  0  0  0  0  0  0  0
   37.7600   27.9980   43.6790 C   0  0  0  0  0  0  0  0  0  0  0  0
   36.8800   27.6690   44.2140 H   0  0  0  0  0  0  0  0  0  0  0  0
   38.9420   27.5030   43.3560 N   0  0  0  0  0  0  0  0  0  0  0  0
   39.2120   26.5360   43.6390 H   0  0  0  0  0  0  0  0  0  0  0  0
   39.5190   28.4360   42.7040 N   0  0  0  0  0  0  0  0  0  0  0  0
  1  7  1  6  0  0  0
  1 20  1  0  0  0  0
  1  6  1  0  0  0  0
  2  3  1  0  0  0  0
  2  1  1  0  0  0  0
  3  4  1  0  0  0  0
  3 10  1  0  0  0  0
  4  5  1  0  0  0  0
  4 12  1  0  0  0  0
  5  6  1  0  0  0  0
  5 14  1  0  0  0  0
  6 16  1  1  0  0  0
  6 33  1  0  0  0  0
  8  2  1  0  0  0  0
  9  2  1  0  0  0  0
 11  3  1  0  0  0  0
 13  4  1  0  0  0  0
 15  5  1  0  0  0  0
 17 18  2  0  0  0  0
 18 19  1  0  0  0  0
 18 22  1  0  0  0  0
 19 23  1  0  0  0  0
 20 19  2  0  0  0  0
 21 17  1  0  0  0  0
 21 20  1  0  0  0  0
 24 25  1  0  0  0  0
 25 31  1  0  0  0  0
 25 26  2  0  0  0  0
 26 32  1  0  0  0  0
 27 26  1  0  0  0  0
 28 17  1  0  0  0  0
 28 27  2  0  0  0  0
 29 24  2  0  0  0  0
 29 28  1  0  0  0  0
 30 24  1  0  0  0  0
 33 34  2  0  0  0  0
 33 35  1  0  0  0  0
 35 41  2  0  0  0  0
 35 36  1  0  0  0  0
 36 37  2  0  0  0  0
 37 38  1  0  0  0  0
 39 40  1  0  0  0  0
 39 37  1  0  0  0  0
 41 39  1  0  0  0  0
M  END
>  <minimizedAffinity>
-5.49497414

$$$$

 OpenBabel03252509193D

 41 44  0  0  1  0  0  0  0  0999 V2000
   41.1740   31.2350   42.5290 C   0  0  1  0  0  0  0  0  0  0  0  0
   42.3870   30.8940   43.3450 C   0  0  0  0  0  0  0  0  0  0  0  0
   43.6940   31.3210   42.7260 C   0  0  0  0  0  0  0  0  0  0  0  0
   43.6410   32.7150   42.1340 C   0  0  0  0  0  0  0  0  0  0  0  0
   42.3720   32.9770   41.3600 C   0  0  0  0  0  0  0  0  0  0  0  0
   41.6470   31.6330   41.1450 C   0  0  2  0  0  0  0  0  0  0  0  0
   40.6980   32.1130   42.9790 H   0  0  0  0  0  0  0  0  0  0  0  0
   42.4170   29.8110   43.5010 H   0  0  0  0  0  0  0  0  0  0  0  0
   42.3330   31.3650   44.3510 H   0  0  0  0  0  0  0  0  0  0  0  0
   44.0080   30.5710   41.9710 H   0  0  0  0  0  0  0  0  0  0  0  0
   44.4360   31.3230   43.5120 H   0  0  0  0  0  0  0  0  0  0  0  0
   44.4870   32.7830   41.4130 H   0  0  0  0  0  0  0  0  0  0  0  0
   43.8370   33.4870   42.9130 H   0  0  0  0  0  0  0  0  0  0  0  0
   42.5130   33.5280   40.4210 H   0  0  0  0  0  0  0  0  0  0  0  0
   41.7000   33.5490   42.0530 H   0  0  0  0  0  0  0  0  0  0  0  0
   42.3950   30.8830   40.7610 H   0  0  0  0  0  0  0  0  0  0  0  0
   38.9740   27.7930   42.1170 C   0  0  0  0  0  0  0  0  0  0  0  0
   38.2510   28.8440   42.7010 C   0  0  0  0  0  0  0  0  0  0  0  0
   38.8830   30.0080   42.8750 C   0  0  0  0  0  0  0  0  0  0  0  0
   40.2160   30.1710   42.4870 C   0  0  0  0  0  0  0  0  0  0  0  0
   40.6410   28.5330   41.8090 S   0  0  0  0  0  0  0  0  0  0  0  0
   37.2210   28.6910   42.9900 H   0  0  0  0  0  0  0  0  0  0  0  0
   38.4640   30.9030   43.3080 H   0  0  0  0  0  0  0  0  0  0  0  0
   38.3070   24.1340   42.0960 C   0  0  0  0  0  0  0  0  0  0  0  0
   37.3020   24.0690   41.1330 C   0  0  0  0  0  0  0  0  0  0  0  0
   36.8790   25.2780   40.5210 C   0  0  0  0  0  0  0  0  0  0  0  0
   37.4910   26.4430   40.9170 N   0  0  0  0  0  0  0  0  0  0  0  0
   38.4550   26.4340   41.8520 C   0  0  0  0  0  0  0  0  0  0  0  0
   38.8700   25.2880   42.4460 N   0  0  0  0  0  0  0  0  0  0  0  0
   38.6380   23.2240   42.5700 H   0  0  0  0  0  0  0  0  0  0  0  0
   36.8290   23.1570   40.8280 H   0  0  0  0  0  0  0  0  0  0  0  0
   36.1080   25.3180   39.7660 H   0  0  0  0  0  0  0  0  0  0  0  0
   40.5390   31.8250   40.2180 C   0  0  0  0  0  0  0  0  0  0  0  0
   40.5240   31.4090   39.0980 O   0  0  0  0  0  0  0  0  0  0  0  0
   39.2050   32.3830   40.0430 C   0  0  0  0  0  0  0  0  0  0  0  0
   38.3300   31.8630   39.1780 N   0  0  0  0  0  0  0  0  0  0  0  0
   37.1580   32.5670   39.2990 C   0  0  0  0  0  0  0  0  0  0  0  0
   36.3680   32.2330   38.6410 H   0  0  0  0  0  0  0  0  0  0  0  0
   37.3260   33.4980   40.2230 N   0  0  0  0  0  0  0  0  0  0  0  0
   36.5500   34.1480   40.4720 H   0  0  0  0  0  0  0  0  0  0  0  0
   38.5280   33.3470   40.6220 N   0  0  0  0  0  0  0  0  0  0  0  0
  1  7  1  1  0  0  0
  1  2  1  0  0  0  0
  2  8  1  0  0  0  0
  2  9  1  0  0  0  0
  3  2  1  0  0  0  0
  3 11  1  0  0  0  0
  4  3  1  0  0  0  0
  4 13  1  0  0  0  0
  5 15  1  0  0  0  0
  5  4  1  0  0  0  0
  6 16  1  6  0  0  0
  6  5  1  0  0  0  0
  6  1  1  0  0  0  0
 10  3  1  0  0  0  0
 12  4  1  0  0  0  0
 14  5  1  0  0  0  0
 17 18  2  0  0  0  0
 18 19  1  0  0  0  0
 18 22  1  0  0  0  0
 19 23  1  0  0  0  0
 20  1  1  0  0  0  0
 20 19  2  0  0  0  0
 21 17  1  0  0  0  0
 21 20  1  0  0  0  0
 24 29  1  0  0  0  0
 24 30  1  0  0  0  0
 25 24  2  0  0  0  0
 26 27  2  0  0  0  0
 26 25  1  0  0  0  0
 27 28  1  0  0  0  0
 28 17  1  0  0  0  0
 28 29  2  0  0  0  0
 31 25  1  0  0  0  0
 32 26  1  0  0  0  0
 33  6  1  0  0  0  0
 34 33  2  0  0  0  0
 35 33  1  0  0  0  0
 35 41  2  0  0  0  0
 36 37  2  0  0  0  0
 36 35  1  0  0  0  0
 37 39  1  0  0  0  0
 38 37  1  0  0  0  0
 39 40  1  0  0  0  0
 39 41  1  0  0  0  0
M  END
>  <minimizedAffinity>
-5.39155912

$$$$

 OpenBabel03252509193D

 41 44  0  0  1  0  0  0  0  0999 V2000
   38.6630   28.5110   40.9290 C   0  0  1  0  0  0  0  0  0  0  0  0
   39.4240   27.4910   41.7260 C   0  0  0  0  0  0  0  0  0  0  0  0
   39.3140   27.6600   43.2210 C   0  0  0  0  0  0  0  0  0  0  0  0
   37.9040   27.9680   43.6790 C   0  0  0  0  0  0  0  0  0  0  0  0
   37.2060   28.9770   42.8000 C   0  0  0  0  0  0  0  0  0  0  0  0
   38.2570   29.6240   41.8750 C   0  0  2  0  0  0  0  0  0  0  0  0
   37.7450   28.0390   40.5640 H   0  0  0  0  0  0  0  0  0  0  0  0
   40.4820   27.5430   41.4490 H   0  0  0  0  0  0  0  0  0  0  0  0
   39.0760   26.4620   41.4870 H   0  0  0  0  0  0  0  0  0  0  0  0
   40.0300   28.4380   43.5580 H   0  0  0  0  0  0  0  0  0  0  0  0
   39.6130   26.7240   43.6720 H   0  0  0  0  0  0  0  0  0  0  0  0
   37.9940   28.4210   44.6930 H   0  0  0  0  0  0  0  0  0  0  0  0
   37.3140   27.0320   43.8110 H   0  0  0  0  0  0  0  0  0  0  0  0
   36.6130   29.7250   43.3420 H   0  0  0  0  0  0  0  0  0  0  0  0
   36.5520   28.3840   42.1070 H   0  0  0  0  0  0  0  0  0  0  0  0
   39.1380   29.9390   42.5030 H   0  0  0  0  0  0  0  0  0  0  0  0
   41.3600   29.8690   38.1470 C   0  0  0  0  0  0  0  0  0  0  0  0
   40.0510   29.7800   37.6500 C   0  0  0  0  0  0  0  0  0  0  0  0
   39.1000   29.3480   38.4830 C   0  0  0  0  0  0  0  0  0  0  0  0
   39.4010   29.0010   39.8040 C   0  0  0  0  0  0  0  0  0  0  0  0
   41.1960   29.3020   39.9000 S   0  0  0  0  0  0  0  0  0  0  0  0
   39.8460   30.0560   36.6260 H   0  0  0  0  0  0  0  0  0  0  0  0
   38.0540   29.2260   38.2500 H   0  0  0  0  0  0  0  0  0  0  0  0
   44.4600   31.5470   36.9630 C   0  0  0  0  0  0  0  0  0  0  0  0
   44.6260   30.9240   35.7270 C   0  0  0  0  0  0  0  0  0  0  0  0
   43.6740   29.9460   35.3360 C   0  0  0  0  0  0  0  0  0  0  0  0
   42.6430   29.6730   36.2040 N   0  0  0  0  0  0  0  0  0  0  0  0
   42.5440   30.3130   37.3800 C   0  0  0  0  0  0  0  0  0  0  0  0
   43.4440   31.2490   37.7690 N   0  0  0  0  0  0  0  0  0  0  0  0
   45.1750   32.2910   37.2730 H   0  0  0  0  0  0  0  0  0  0  0  0
   45.4300   31.1410   35.0550 H   0  0  0  0  0  0  0  0  0  0  0  0
   43.7260   29.4150   34.3970 H   0  0  0  0  0  0  0  0  0  0  0  0
   37.6550   30.7510   41.1730 C   0  0  0  0  0  0  0  0  0  0  0  0
   36.5100   30.7910   40.8320 O   0  0  0  0  0  0  0  0  0  0  0  0
   37.8770   32.0840   40.6320 C   0  0  0  0  0  0  0  0  0  0  0  0
   38.9330   32.8230   40.9850 N   0  0  0  0  0  0  0  0  0  0  0  0
   38.8890   33.9850   40.2580 C   0  0  0  0  0  0  0  0  0  0  0  0
   39.7010   34.6690   40.4610 H   0  0  0  0  0  0  0  0  0  0  0  0
   37.8220   33.9480   39.4780 N   0  0  0  0  0  0  0  0  0  0  0  0
   37.6000   34.7400   38.8380 H   0  0  0  0  0  0  0  0  0  0  0  0
   37.2710   32.8250   39.7340 N   0  0  0  0  0  0  0  0  0  0  0  0
  1  7  1  6  0  0  0
  1  2  1  0  0  0  0
  1  6  1  0  0  0  0
  2  3  1  0  0  0  0
  3 10  1  0  0  0  0
  3 11  1  0  0  0  0
  3  4  1  0  0  0  0
  4 13  1  0  0  0  0
  4 12  1  0  0  0  0
  5 14  1  0  0  0  0
  5  4  1  0  0  0  0
  6 16  1  1  0  0  0
  6  5  1  0  0  0  0
  8  2  1  0  0  0  0
  9  2  1  0  0  0  0
 15  5  1  0  0  0  0
 17 21  1  0  0  0  0
 18 17  2  0  0  0  0
 18 19  1  0  0  0  0
 19 20  2  0  0  0  0
 20 21  1  0  0  0  0
 20  1  1  0  0  0  0
 22 18  1  0  0  0  0
 23 19  1  0  0  0  0
 24 30  1  0  0  0  0
 24 29  1  0  0  0  0
 25 24  2  0  0  0  0
 26 25  1  0  0  0  0
 26 27  2  0  0  0  0
 27 28  1  0  0  0  0
 28 29  2  0  0  0  0
 28 17  1  0  0  0  0
 31 25  1  0  0  0  0
 32 26  1  0  0  0  0
 33  6  1  0  0  0  0
 34 33  2  0  0  0  0
 35 36  1  0  0  0  0
 35 33  1  0  0  0  0
 37 38  1  0  0  0  0
 37 36  2  0  0  0  0
 39 41  1  0  0  0  0
 39 37  1  0  0  0  0
 40 39  1  0  0  0  0
 41 35  2  0  0  0  0
M  END
>  <minimizedAffinity>
-5.356812

$$$$

 OpenBabel03252509193D

 41 44  0  0  1  0  0  0  0  0999 V2000
   38.4200   28.9930   40.9900 C   0  0  1  0  0  0  0  0  0  0  0  0
   38.9910   30.3810   41.0390 C   0  0  0  0  0  0  0  0  0  0  0  0
   39.6560   30.7350   42.3460 C   0  0  0  0  0  0  0  0  0  0  0  0
   40.5280   29.6210   42.8870 C   0  0  0  0  0  0  0  0  0  0  0  0
   39.8860   28.2600   42.7650 C   0  0  0  0  0  0  0  0  0  0  0  0
   38.3990   28.4540   42.4070 C   0  0  2  0  0  0  0  0  0  0  0  0
   39.1040   28.3660   40.4100 H   0  0  0  0  0  0  0  0  0  0  0  0
   38.1870   31.1020   40.8550 H   0  0  0  0  0  0  0  0  0  0  0  0
   39.7480   30.5260   40.2380 H   0  0  0  0  0  0  0  0  0  0  0  0
   38.8840   31.0410   43.0820 H   0  0  0  0  0  0  0  0  0  0  0  0
   40.2890   31.5920   42.1620 H   0  0  0  0  0  0  0  0  0  0  0  0
   40.6620   29.8250   43.9730 H   0  0  0  0  0  0  0  0  0  0  0  0
   41.5470   29.6570   42.4390 H   0  0  0  0  0  0  0  0  0  0  0  0
   40.0210   27.6090   43.6400 H   0  0  0  0  0  0  0  0  0  0  0  0
   40.3330   27.7870   41.8520 H   0  0  0  0  0  0  0  0  0  0  0  0
   37.9620   29.2220   43.1070 H   0  0  0  0  0  0  0  0  0  0  0  0
   35.0460   28.4520   38.7140 C   0  0  0  0  0  0  0  0  0  0  0  0
   34.8140   29.2030   39.8770 C   0  0  0  0  0  0  0  0  0  0  0  0
   35.8540   29.4340   40.6830 C   0  0  0  0  0  0  0  0  0  0  0  0
   37.1280   28.9460   40.3750 C   0  0  0  0  0  0  0  0  0  0  0  0
   36.8530   28.0700   38.8010 S   0  0  0  0  0  0  0  0  0  0  0  0
   33.8200   29.5690   40.0900 H   0  0  0  0  0  0  0  0  0  0  0  0
   35.8340   29.9900   41.6070 H   0  0  0  0  0  0  0  0  0  0  0  0
   32.9600   26.7220   36.1670 C   0  0  0  0  0  0  0  0  0  0  0  0
   32.0260   27.7180   35.8900 C   0  0  0  0  0  0  0  0  0  0  0  0
   32.1350   28.9520   36.5840 C   0  0  0  0  0  0  0  0  0  0  0  0
   33.1590   29.0880   37.4910 N   0  0  0  0  0  0  0  0  0  0  0  0
   34.0260   28.0860   37.7080 C   0  0  0  0  0  0  0  0  0  0  0  0
   33.9360   26.9020   37.0530 N   0  0  0  0  0  0  0  0  0  0  0  0
   32.8900   25.7810   35.6470 H   0  0  0  0  0  0  0  0  0  0  0  0
   31.2300   27.6070   35.1830 H   0  0  0  0  0  0  0  0  0  0  0  0
   31.4540   29.7770   36.4320 H   0  0  0  0  0  0  0  0  0  0  0  0
   37.7080   27.1740   42.4980 C   0  0  0  0  0  0  0  0  0  0  0  0
   36.6600   27.0170   43.0510 O   0  0  0  0  0  0  0  0  0  0  0  0
   37.7380   25.7660   42.1270 C   0  0  0  0  0  0  0  0  0  0  0  0
   36.9490   25.2710   41.1690 N   0  0  0  0  0  0  0  0  0  0  0  0
   37.2630   23.9440   41.0170 C   0  0  0  0  0  0  0  0  0  0  0  0
   36.6840   23.4320   40.2620 H   0  0  0  0  0  0  0  0  0  0  0  0
   38.2280   23.6440   41.8710 N   0  0  0  0  0  0  0  0  0  0  0  0
   38.6170   22.6780   41.9190 H   0  0  0  0  0  0  0  0  0  0  0  0
   38.4660   24.7350   42.4890 N   0  0  0  0  0  0  0  0  0  0  0  0
  1  7  1  6  0  0  0
  1  2  1  0  0  0  0
  1  6  1  0  0  0  0
  2  3  1  0  0  0  0
  3  4  1  0  0  0  0
  3 10  1  0  0  0  0
  4 12  1  0  0  0  0
  5  4  1  0  0  0  0
  5 14  1  0  0  0  0
  6 33  1  0  0  0  0
  6  5  1  0  0  0  0
  6 16  1  1  0  0  0
  8  2  1  0  0  0  0
  9  2  1  0  0  0  0
 11  3  1  0  0  0  0
 13  4  1  0  0  0  0
 15  5  1  0  0  0  0
 17 21  1  0  0  0  0
 17 18  2  0  0  0  0
 18 22  1  0  0  0  0
 18 19  1  0  0  0  0
 19 23  1  0  0  0  0
 20 19  2  0  0  0  0
 20  1  1  0  0  0  0
 21 20  1  0  0  0  0
 24 29  1  0  0  0  0
 25 24  2  0  0  0  0
 25 26  1  0  0  0  0
 26 27  2  0  0  0  0
 27 28  1  0  0  0  0
 28 17  1  0  0  0  0
 29 28  2  0  0  0  0
 30 24  1  0  0  0  0
 31 25  1  0  0  0  0
 32 26  1  0  0  0  0
 33 34  2  0  0  0  0
 35 41  2  0  0  0  0
 35 33  1  0  0  0  0
 36 35  1  0  0  0  0
 37 36  2  0  0  0  0
 37 39  1  0  0  0  0
 38 37  1  0  0  0  0
 39 40  1  0  0  0  0
 39 41  1  0  0  0  0
M  END
>  <minimizedAffinity>
-5.20749187

$$$$
