
 OpenBabel03242520173D

 29 31  0  0  0  0  0  0  0  0999 V2000
   44.3690   34.4530   41.3490 C   0  0  0  0  0  0  0  0  0  0  0  0
   43.2560   35.2030   40.9210 C   0  0  0  0  0  0  0  0  0  0  0  0
   42.7180   34.9210   39.6670 C   0  0  0  0  0  0  0  0  0  0  0  0
   43.3110   33.9240   38.9210 N   0  0  0  0  0  0  0  0  0  0  0  0
   44.3800   33.2410   39.3930 C   0  0  0  0  0  0  0  0  0  0  0  0
   44.9030   33.4940   40.5810 N   0  0  0  0  0  0  0  0  0  0  0  0
   42.8550   35.9670   41.5690 H   0  0  0  0  0  0  0  0  0  0  0  0
   44.7900   32.4710   38.7480 H   0  0  0  0  0  0  0  0  0  0  0  0
   44.9310   34.7680   42.6900 C   0  0  0  0  0  0  0  0  0  0  0  0
   46.3740   35.3320   42.6220 C   0  0  0  0  0  0  0  0  0  0  0  0
   45.2190   36.1050   43.1240 C   0  0  0  0  0  0  0  0  0  0  0  0
   44.7940   33.9010   43.3860 H   0  0  0  0  0  0  0  0  0  0  0  0
   47.0470   34.9110   43.3940 H   0  0  0  0  0  0  0  0  0  0  0  0
   46.8020   35.5280   41.6230 H   0  0  0  0  0  0  0  0  0  0  0  0
   45.1260   36.3320   44.2110 H   0  0  0  0  0  0  0  0  0  0  0  0
   44.8970   36.9760   42.5170 H   0  0  0  0  0  0  0  0  0  0  0  0
   41.5390   35.6820   39.1750 C   0  0  0  0  0  0  0  0  0  0  0  0
   41.7970   36.5840   38.6240 H   0  0  0  0  0  0  0  0  0  0  0  0
   40.9950   34.9940   38.4920 H   0  0  0  0  0  0  0  0  0  0  0  0
   40.5770   36.0060   40.3040 C   0  0  0  0  0  0  0  0  0  0  0  0
   39.9660   36.8680   39.9670 H   0  0  0  0  0  0  0  0  0  0  0  0
   41.0560   36.3000   41.2400 H   0  0  0  0  0  0  0  0  0  0  0  0
   39.6870   34.8130   40.4600 C   0  0  0  0  0  0  0  0  0  0  0  0
   38.8220   34.4590   39.5090 N   0  0  0  0  0  0  0  0  0  0  0  0
   38.1190   33.3600   39.8480 C   0  0  0  0  0  0  0  0  0  0  0  0
   37.3560   32.8690   39.2530 H   0  0  0  0  0  0  0  0  0  0  0  0
   38.5880   33.0360   41.0690 N   0  0  0  0  0  0  0  0  0  0  0  0
   38.2410   32.2150   41.6140 H   0  0  0  0  0  0  0  0  0  0  0  0
   39.5210   33.8910   41.4470 N   0  0  0  0  0  0  0  0  0  0  0  0
  1  9  1  0  0  0  0
  2  1  1  0  0  0  0
  2  7  1  0  0  0  0
  3  2  2  0  0  0  0
  4  5  2  0  0  0  0
  4  3  1  0  0  0  0
  5  6  1  0  0  0  0
  6  1  2  0  0  0  0
  8  5  1  0  0  0  0
  9 11  1  0  0  0  0
  9 12  1  0  0  0  0
 10  9  1  0  0  0  0
 10 11  1  0  0  0  0
 10 13  1  0  0  0  0
 11 15  1  0  0  0  0
 14 10  1  0  0  0  0
 16 11  1  0  0  0  0
 17  3  1  0  0  0  0
 17 20  1  0  0  0  0
 18 17  1  0  0  0  0
 19 17  1  0  0  0  0
 20 23  1  0  0  0  0
 20 22  1  0  0  0  0
 21 20  1  0  0  0  0
 23 29  2  0  0  0  0
 24 25  2  0  0  0  0
 24 23  1  0  0  0  0
 25 27  1  0  0  0  0
 26 25  1  0  0  0  0
 27 29  1  0  0  0  0
 27 28  1  0  0  0  0
M  END
>  <minimizedAffinity>
-4.6810503

>  <minimizedRMSD>
1.47543252

$$$$
