
 OpenBabel03242520173D

 29 31  0  0  0  0  0  0  0  0999 V2000
   44.1650   34.5880   41.4150 C   0  0  0  0  0  0  0  0  0  0  0  0
   43.0060   35.2990   41.0460 C   0  0  0  0  0  0  0  0  0  0  0  0
   42.4370   35.0270   39.8040 C   0  0  0  0  0  0  0  0  0  0  0  0
   43.0460   34.0770   39.0100 N   0  0  0  0  0  0  0  0  0  0  0  0
   44.1590   33.4300   39.4260 C   0  0  0  0  0  0  0  0  0  0  0  0
   44.7130   33.6750   40.6030 N   0  0  0  0  0  0  0  0  0  0  0  0
   42.5950   36.0280   41.7290 H   0  0  0  0  0  0  0  0  0  0  0  0
   44.5790   32.6970   38.7460 H   0  0  0  0  0  0  0  0  0  0  0  0
   44.7600   34.8930   42.7440 C   0  0  0  0  0  0  0  0  0  0  0  0
   46.2290   35.3780   42.6500 C   0  0  0  0  0  0  0  0  0  0  0  0
   45.1240   36.2190   43.1540 C   0  0  0  0  0  0  0  0  0  0  0  0
   44.5870   34.0440   43.4540 H   0  0  0  0  0  0  0  0  0  0  0  0
   46.8890   34.9330   43.4210 H   0  0  0  0  0  0  0  0  0  0  0  0
   46.6550   35.5370   41.6430 H   0  0  0  0  0  0  0  0  0  0  0  0
   45.0570   36.4660   44.2390 H   0  0  0  0  0  0  0  0  0  0  0  0
   44.8400   37.0970   42.5370 H   0  0  0  0  0  0  0  0  0  0  0  0
   41.2100   35.7470   39.3740 C   0  0  0  0  0  0  0  0  0  0  0  0
   41.4070   36.7030   38.8930 H   0  0  0  0  0  0  0  0  0  0  0  0
   40.7050   35.0810   38.6420 H   0  0  0  0  0  0  0  0  0  0  0  0
   40.2370   35.9240   40.5260 C   0  0  0  0  0  0  0  0  0  0  0  0
   39.4460   36.6170   40.1750 H   0  0  0  0  0  0  0  0  0  0  0  0
   40.6720   36.3630   41.4250 H   0  0  0  0  0  0  0  0  0  0  0  0
   39.6260   34.5800   40.7770 C   0  0  0  0  0  0  0  0  0  0  0  0
   38.7720   34.0300   39.9120 N   0  0  0  0  0  0  0  0  0  0  0  0
   38.3410   32.8230   40.3270 C   0  0  0  0  0  0  0  0  0  0  0  0
   37.6450   32.1700   39.8110 H   0  0  0  0  0  0  0  0  0  0  0  0
   38.9700   32.6370   41.5040 N   0  0  0  0  0  0  0  0  0  0  0  0
   38.8450   31.7800   42.0890 H   0  0  0  0  0  0  0  0  0  0  0  0
   39.7380   33.6740   41.7850 N   0  0  0  0  0  0  0  0  0  0  0  0
  1  9  1  0  0  0  0
  2  1  1  0  0  0  0
  2  7  1  0  0  0  0
  3  2  2  0  0  0  0
  4  5  2  0  0  0  0
  4  3  1  0  0  0  0
  5  6  1  0  0  0  0
  6  1  2  0  0  0  0
  8  5  1  0  0  0  0
  9 11  1  0  0  0  0
  9 12  1  0  0  0  0
 10  9  1  0  0  0  0
 10 11  1  0  0  0  0
 10 13  1  0  0  0  0
 11 15  1  0  0  0  0
 14 10  1  0  0  0  0
 16 11  1  0  0  0  0
 17  3  1  0  0  0  0
 17 20  1  0  0  0  0
 18 17  1  0  0  0  0
 19 17  1  0  0  0  0
 20 23  1  0  0  0  0
 20 22  1  0  0  0  0
 21 20  1  0  0  0  0
 23 29  2  0  0  0  0
 24 25  2  0  0  0  0
 24 23  1  0  0  0  0
 25 27  1  0  0  0  0
 26 25  1  0  0  0  0
 27 29  1  0  0  0  0
 27 28  1  0  0  0  0
M  END
>  <minimizedAffinity>
-4.76329947

>  <minimizedRMSD>
1.074368

$$$$
