
 OpenBabel03252509193D

 41 44  0  0  1  0  0  0  0  0999 V2000
   46.8090   30.9150   47.0430 C   0  0  1  0  0  0  0  0  0  0  0  0
   46.9870   32.0800   47.9750 C   0  0  0  0  0  0  0  0  0  0  0  0
   45.8260   32.3110   48.9100 C   0  0  0  0  0  0  0  0  0  0  0  0
   45.2890   31.0310   49.5160 C   0  0  0  0  0  0  0  0  0  0  0  0
   45.1770   29.9080   48.5130 C   0  0  0  0  0  0  0  0  0  0  0  0
   45.3520   30.4990   47.0990 C   0  0  2  0  0  0  0  0  0  0  0  0
   47.4040   30.0810   47.4270 H   0  0  0  0  0  0  0  0  0  0  0  0
   47.1390   32.9880   47.3820 H   0  0  0  0  0  0  0  0  0  0  0  0
   47.8930   31.9470   48.6050 H   0  0  0  0  0  0  0  0  0  0  0  0
   45.0310   32.8750   48.3800 H   0  0  0  0  0  0  0  0  0  0  0  0
   46.1850   32.9350   49.7180 H   0  0  0  0  0  0  0  0  0  0  0  0
   44.2590   31.2590   49.8720 H   0  0  0  0  0  0  0  0  0  0  0  0
   45.8710   30.7420   50.4200 H   0  0  0  0  0  0  0  0  0  0  0  0
   44.2630   29.3050   48.6000 H   0  0  0  0  0  0  0  0  0  0  0  0
   46.0860   29.2680   48.6620 H   0  0  0  0  0  0  0  0  0  0  0  0
   44.6870   31.4050   47.0080 H   0  0  0  0  0  0  0  0  0  0  0  0
   47.7130   32.3880   43.3190 C   0  0  0  0  0  0  0  0  0  0  0  0
   48.2130   31.0950   43.5380 C   0  0  0  0  0  0  0  0  0  0  0  0
   47.9680   30.5290   44.7240 C   0  0  0  0  0  0  0  0  0  0  0  0
   47.2370   31.2030   45.7080 C   0  0  0  0  0  0  0  0  0  0  0  0
   46.8510   32.7930   44.9040 S   0  0  0  0  0  0  0  0  0  0  0  0
   48.7730   30.5970   42.7600 H   0  0  0  0  0  0  0  0  0  0  0  0
   48.2830   29.5480   45.0400 H   0  0  0  0  0  0  0  0  0  0  0  0
   47.8190   33.5990   39.8040 C   0  0  0  0  0  0  0  0  0  0  0  0
   48.3340   34.8800   39.9960 C   0  0  0  0  0  0  0  0  0  0  0  0
   48.6280   35.2930   41.3220 C   0  0  0  0  0  0  0  0  0  0  0  0
   48.3860   34.4010   42.3390 N   0  0  0  0  0  0  0  0  0  0  0  0
   47.8880   33.1800   42.0820 C   0  0  0  0  0  0  0  0  0  0  0  0
   47.6020   32.7700   40.8230 N   0  0  0  0  0  0  0  0  0  0  0  0
   47.5900   33.2720   38.8030 H   0  0  0  0  0  0  0  0  0  0  0  0
   48.5210   35.5700   39.2000 H   0  0  0  0  0  0  0  0  0  0  0  0
   49.0300   36.2670   41.5610 H   0  0  0  0  0  0  0  0  0  0  0  0
   45.0320   29.4820   46.1070 C   0  0  0  0  0  0  0  0  0  0  0  0
   45.3380   28.3310   46.2060 O   0  0  0  0  0  0  0  0  0  0  0  0
   44.3690   29.2100   44.8380 C   0  0  0  0  0  0  0  0  0  0  0  0
   43.3370   28.3660   44.7470 N   0  0  0  0  0  0  0  0  0  0  0  0
   42.9040   28.3820   43.4440 C   0  0  0  0  0  0  0  0  0  0  0  0
   42.0630   27.7310   43.2480 H   0  0  0  0  0  0  0  0  0  0  0  0
   43.6630   29.2230   42.7620 N   0  0  0  0  0  0  0  0  0  0  0  0
   43.5000   29.3840   41.7450 H   0  0  0  0  0  0  0  0  0  0  0  0
   44.4960   29.6750   43.6170 N   0  0  0  0  0  0  0  0  0  0  0  0
  1  6  1  0  0  0  0
  1  7  1  1  0  0  0
  1  2  1  0  0  0  0
  2  9  1  0  0  0  0
  2  3  1  0  0  0  0
  3  4  1  0  0  0  0
  3 11  1  0  0  0  0
  4 12  1  0  0  0  0
  4 13  1  0  0  0  0
  5 14  1  0  0  0  0
  5 15  1  0  0  0  0
  5  4  1  0  0  0  0
  6 16  1  6  0  0  0
  6  5  1  0  0  0  0
  8  2  1  0  0  0  0
 10  3  1  0  0  0  0
 17 18  2  0  0  0  0
 17 21  1  0  0  0  0
 18 19  1  0  0  0  0
 19 23  1  0  0  0  0
 19 20  2  0  0  0  0
 20  1  1  0  0  0  0
 21 20  1  0  0  0  0
 22 18  1  0  0  0  0
 24 25  2  0  0  0  0
 24 29  1  0  0  0  0
 25 26  1  0  0  0  0
 26 32  1  0  0  0  0
 26 27  2  0  0  0  0
 28 27  1  0  0  0  0
 28 17  1  0  0  0  0
 29 28  2  0  0  0  0
 30 24  1  0  0  0  0
 31 25  1  0  0  0  0
 33 34  2  0  0  0  0
 33  6  1  0  0  0  0
 35 33  1  0  0  0  0
 36 35  1  0  0  0  0
 37 36  2  0  0  0  0
 38 37  1  0  0  0  0
 39 37  1  0  0  0  0
 39 41  1  0  0  0  0
 40 39  1  0  0  0  0
 41 35  2  0  0  0  0
M  END
>  <minimizedAffinity>
-4.98090982

>  <minimizedRMSD>
5.79577637

$$$$
