
 OpenBabel03242520173D

 29 31  0  0  0  0  0  0  0  0999 V2000
   44.3170   34.4870   41.3540 C   0  0  0  0  0  0  0  0  0  0  0  0
   43.2050   35.2280   40.9060 C   0  0  0  0  0  0  0  0  0  0  0  0
   42.6860   34.9370   39.6470 C   0  0  0  0  0  0  0  0  0  0  0  0
   43.2950   33.9400   38.9140 N   0  0  0  0  0  0  0  0  0  0  0  0
   44.3610   33.2660   39.4040 C   0  0  0  0  0  0  0  0  0  0  0  0
   44.8670   33.5280   40.5980 N   0  0  0  0  0  0  0  0  0  0  0  0
   42.7910   35.9940   41.5460 H   0  0  0  0  0  0  0  0  0  0  0  0
   44.7850   32.4950   38.7690 H   0  0  0  0  0  0  0  0  0  0  0  0
   44.8590   34.8130   42.7000 C   0  0  0  0  0  0  0  0  0  0  0  0
   46.3200   35.3290   42.6540 C   0  0  0  0  0  0  0  0  0  0  0  0
   45.1800   36.1490   43.1140 C   0  0  0  0  0  0  0  0  0  0  0  0
   44.6790   33.9650   43.4100 H   0  0  0  0  0  0  0  0  0  0  0  0
   46.9620   34.9030   43.4500 H   0  0  0  0  0  0  0  0  0  0  0  0
   46.7760   35.4900   41.6610 H   0  0  0  0  0  0  0  0  0  0  0  0
   45.0710   36.4010   44.1940 H   0  0  0  0  0  0  0  0  0  0  0  0
   44.9000   37.0170   42.4820 H   0  0  0  0  0  0  0  0  0  0  0  0
   41.5100   35.6880   39.1350 C   0  0  0  0  0  0  0  0  0  0  0  0
   41.7700   36.5850   38.5780 H   0  0  0  0  0  0  0  0  0  0  0  0
   40.9750   34.9920   38.4540 H   0  0  0  0  0  0  0  0  0  0  0  0
   40.5350   36.0200   40.2510 C   0  0  0  0  0  0  0  0  0  0  0  0
   39.9130   36.8660   39.8920 H   0  0  0  0  0  0  0  0  0  0  0  0
   41.0030   36.3400   41.1840 H   0  0  0  0  0  0  0  0  0  0  0  0
   39.6620   34.8170   40.4250 C   0  0  0  0  0  0  0  0  0  0  0  0
   38.8030   34.4350   39.4780 N   0  0  0  0  0  0  0  0  0  0  0  0
   38.1160   33.3330   39.8340 C   0  0  0  0  0  0  0  0  0  0  0  0
   37.3600   32.8210   39.2450 H   0  0  0  0  0  0  0  0  0  0  0  0
   38.5870   33.0350   41.0610 N   0  0  0  0  0  0  0  0  0  0  0  0
   38.2500   32.2180   41.6190 H   0  0  0  0  0  0  0  0  0  0  0  0
   39.5070   33.9080   41.4260 N   0  0  0  0  0  0  0  0  0  0  0  0
  1  9  1  0  0  0  0
  2  1  1  0  0  0  0
  2  7  1  0  0  0  0
  3  2  2  0  0  0  0
  4  5  2  0  0  0  0
  4  3  1  0  0  0  0
  5  6  1  0  0  0  0
  6  1  2  0  0  0  0
  8  5  1  0  0  0  0
  9 11  1  0  0  0  0
  9 12  1  0  0  0  0
 10  9  1  0  0  0  0
 10 11  1  0  0  0  0
 10 13  1  0  0  0  0
 11 15  1  0  0  0  0
 14 10  1  0  0  0  0
 16 11  1  0  0  0  0
 17  3  1  0  0  0  0
 17 20  1  0  0  0  0
 18 17  1  0  0  0  0
 19 17  1  0  0  0  0
 20 23  1  0  0  0  0
 20 22  1  0  0  0  0
 21 20  1  0  0  0  0
 23 29  2  0  0  0  0
 24 25  2  0  0  0  0
 24 23  1  0  0  0  0
 25 27  1  0  0  0  0
 26 25  1  0  0  0  0
 27 29  1  0  0  0  0
 27 28  1  0  0  0  0
M  END
>  <minimizedAffinity>
-4.69207621

>  <minimizedRMSD>
1.39349353

$$$$
