
 OpenBabel03242520193D

 33 35  0  0  0  0  0  0  0  0999 V2000
   41.4660   35.5310   38.7760 C   0  0  0  0  0  0  0  0  0  0  0  0
   41.1940   34.9120   37.8850 H   0  0  0  0  0  0  0  0  0  0  0  0
   41.6550   36.5690   38.4810 H   0  0  0  0  0  0  0  0  0  0  0  0
   44.1510   34.5250   41.2430 C   0  0  0  0  0  0  0  0  0  0  0  0
   43.0460   35.2010   40.6780 C   0  0  0  0  0  0  0  0  0  0  0  0
   42.6280   34.8540   39.4040 C   0  0  0  0  0  0  0  0  0  0  0  0
   43.3280   33.8620   38.7650 N   0  0  0  0  0  0  0  0  0  0  0  0
   44.3840   33.2420   39.3510 C   0  0  0  0  0  0  0  0  0  0  0  0
   44.7910   33.5690   40.5740 N   0  0  0  0  0  0  0  0  0  0  0  0
   42.5520   35.9750   41.2580 H   0  0  0  0  0  0  0  0  0  0  0  0
   44.9220   32.4620   38.8280 H   0  0  0  0  0  0  0  0  0  0  0  0
   44.5940   34.9130   42.6080 C   0  0  0  0  0  0  0  0  0  0  0  0
   46.1070   35.3050   42.6470 C   0  0  0  0  0  0  0  0  0  0  0  0
   45.0090   36.2160   42.9800 C   0  0  0  0  0  0  0  0  0  0  0  0
   44.2920   34.1610   43.3610 H   0  0  0  0  0  0  0  0  0  0  0  0
   46.6400   35.3610   41.6840 H   0  0  0  0  0  0  0  0  0  0  0  0
   46.6770   34.7420   43.4080 H   0  0  0  0  0  0  0  0  0  0  0  0
   44.8590   37.0450   42.2280 H   0  0  0  0  0  0  0  0  0  0  0  0
   44.8870   36.6030   44.0050 H   0  0  0  0  0  0  0  0  0  0  0  0
   40.2670   35.4930   39.7030 C   0  0  0  0  0  0  0  0  0  0  0  0
   40.5510   35.9510   40.6510 H   0  0  0  0  0  0  0  0  0  0  0  0
   39.4340   36.1240   39.2820 H   0  0  0  0  0  0  0  0  0  0  0  0
   39.6650   33.6420   41.1690 C   0  0  0  0  0  0  0  0  0  0  0  0
   39.9970   34.2380   42.2300 O   0  0  0  0  0  0  0  0  0  0  0  0
   39.7250   34.1640   39.8470 N   0  0  0  0  0  0  0  0  0  0  0  0
   39.3990   33.6250   39.0390 H   0  0  0  0  0  0  0  0  0  0  0  0
   39.1630   32.2570   41.3050 C   0  0  0  0  0  0  0  0  0  0  0  0
   37.9890   31.7400   40.8940 N   0  0  0  0  0  0  0  0  0  0  0  0
   37.9030   30.4440   41.2010 C   0  0  0  0  0  0  0  0  0  0  0  0
   37.0920   29.7540   41.0060 H   0  0  0  0  0  0  0  0  0  0  0  0
   39.0460   30.1310   41.8200 N   0  0  0  0  0  0  0  0  0  0  0  0
   39.3950   29.2410   42.2210 H   0  0  0  0  0  0  0  0  0  0  0  0
   39.7930   31.2040   41.8820 N   0  0  0  0  0  0  0  0  0  0  0  0
  1  6  1  0  0  0  0
  1 20  1  0  0  0  0
  2  1  1  0  0  0  0
  3  1  1  0  0  0  0
  4 12  1  0  0  0  0
  5  4  1  0  0  0  0
  5 10  1  0  0  0  0
  6  5  2  0  0  0  0
  7  8  2  0  0  0  0
  7  6  1  0  0  0  0
  8  9  1  0  0  0  0
  9  4  2  0  0  0  0
 11  8  1  0  0  0  0
 12 13  1  0  0  0  0
 12 14  1  0  0  0  0
 12 15  1  0  0  0  0
 13 14  1  0  0  0  0
 13 17  1  0  0  0  0
 14 19  1  0  0  0  0
 16 13  1  0  0  0  0
 18 14  1  0  0  0  0
 20 25  1  0  0  0  0
 20 21  1  0  0  0  0
 22 20  1  0  0  0  0
 23 27  1  0  0  0  0
 23 24  2  0  0  0  0
 25 23  1  0  0  0  0
 26 25  1  0  0  0  0
 27 33  2  0  0  0  0
 28 29  2  0  0  0  0
 28 27  1  0  0  0  0
 29 31  1  0  0  0  0
 30 29  1  0  0  0  0
 31 33  1  0  0  0  0
 31 32  1  0  0  0  0
M  END
>  <minimizedAffinity>
-4.71687984

>  <minimizedRMSD>
1.1391412

$$$$
