
 OpenBabel03242520193D

 33 35  0  0  0  0  0  0  0  0999 V2000
   40.9980   35.8850   39.3890 C   0  0  0  0  0  0  0  0  0  0  0  0
   40.7310   35.4630   38.3880 H   0  0  0  0  0  0  0  0  0  0  0  0
   41.1290   36.9710   39.3270 H   0  0  0  0  0  0  0  0  0  0  0  0
   43.9180   34.6670   41.4610 C   0  0  0  0  0  0  0  0  0  0  0  0
   42.7710   35.3970   41.0730 C   0  0  0  0  0  0  0  0  0  0  0  0
   42.2070   35.1480   39.8340 C   0  0  0  0  0  0  0  0  0  0  0  0
   42.8080   34.1950   39.0530 N   0  0  0  0  0  0  0  0  0  0  0  0
   43.9100   33.5190   39.4710 C   0  0  0  0  0  0  0  0  0  0  0  0
   44.4570   33.7510   40.6600 N   0  0  0  0  0  0  0  0  0  0  0  0
   42.3630   36.1350   41.7580 H   0  0  0  0  0  0  0  0  0  0  0  0
   44.3680   32.7700   38.8370 H   0  0  0  0  0  0  0  0  0  0  0  0
   44.5180   34.9500   42.7920 C   0  0  0  0  0  0  0  0  0  0  0  0
   46.0320   35.3270   42.6860 C   0  0  0  0  0  0  0  0  0  0  0  0
   44.9940   36.2190   43.2070 C   0  0  0  0  0  0  0  0  0  0  0  0
   44.2920   34.1460   43.5170 H   0  0  0  0  0  0  0  0  0  0  0  0
   46.4530   35.4500   41.6750 H   0  0  0  0  0  0  0  0  0  0  0  0
   46.6760   34.7050   43.3340 H   0  0  0  0  0  0  0  0  0  0  0  0
   44.7720   37.1020   42.5390 H   0  0  0  0  0  0  0  0  0  0  0  0
   44.9950   36.5300   44.2650 H   0  0  0  0  0  0  0  0  0  0  0  0
   39.8270   35.5830   40.3040 C   0  0  0  0  0  0  0  0  0  0  0  0
   40.1820   35.6030   41.3340 H   0  0  0  0  0  0  0  0  0  0  0  0
   39.0510   36.3940   40.2190 H   0  0  0  0  0  0  0  0  0  0  0  0
   39.2490   33.2890   40.8890 C   0  0  0  0  0  0  0  0  0  0  0  0
   39.8190   33.3220   42.0140 O   0  0  0  0  0  0  0  0  0  0  0  0
   39.1570   34.3540   39.9520 N   0  0  0  0  0  0  0  0  0  0  0  0
   38.6410   34.2560   39.0720 H   0  0  0  0  0  0  0  0  0  0  0  0
   38.6090   32.0140   40.4970 C   0  0  0  0  0  0  0  0  0  0  0  0
   38.6280   31.3900   39.3040 N   0  0  0  0  0  0  0  0  0  0  0  0
   37.9280   30.2540   39.3460 C   0  0  0  0  0  0  0  0  0  0  0  0
   37.7570   29.5350   38.5560 H   0  0  0  0  0  0  0  0  0  0  0  0
   37.4540   30.1540   40.5910 N   0  0  0  0  0  0  0  0  0  0  0  0
   36.8660   29.4360   41.0540 H   0  0  0  0  0  0  0  0  0  0  0  0
   37.8560   31.1960   41.2760 N   0  0  0  0  0  0  0  0  0  0  0  0
  1  6  1  0  0  0  0
  1 20  1  0  0  0  0
  2  1  1  0  0  0  0
  3  1  1  0  0  0  0
  4 12  1  0  0  0  0
  5  4  1  0  0  0  0
  5 10  1  0  0  0  0
  6  5  2  0  0  0  0
  7  8  2  0  0  0  0
  7  6  1  0  0  0  0
  8  9  1  0  0  0  0
  9  4  2  0  0  0  0
 11  8  1  0  0  0  0
 12 14  1  0  0  0  0
 12 15  1  0  0  0  0
 13 12  1  0  0  0  0
 13 14  1  0  0  0  0
 13 17  1  0  0  0  0
 14 19  1  0  0  0  0
 16 13  1  0  0  0  0
 18 14  1  0  0  0  0
 20 21  1  0  0  0  0
 22 20  1  0  0  0  0
 23 24  2  0  0  0  0
 25 20  1  0  0  0  0
 25 23  1  0  0  0  0
 26 25  1  0  0  0  0
 27 23  1  0  0  0  0
 27 33  2  0  0  0  0
 28 29  2  0  0  0  0
 28 27  1  0  0  0  0
 29 31  1  0  0  0  0
 30 29  1  0  0  0  0
 31 32  1  0  0  0  0
 31 33  1  0  0  0  0
M  END
>  <minimizedAffinity>
-4.74412298

>  <minimizedRMSD>
0.494133204

$$$$
