
 OpenBabel03242520193D

 33 35  0  0  0  0  0  0  0  0999 V2000
   40.9950   35.8640   39.3690 C   0  0  0  0  0  0  0  0  0  0  0  0
   40.7240   35.4240   38.3770 H   0  0  0  0  0  0  0  0  0  0  0  0
   41.1270   36.9490   39.2860 H   0  0  0  0  0  0  0  0  0  0  0  0
   43.9170   34.6750   41.4560 C   0  0  0  0  0  0  0  0  0  0  0  0
   42.7690   35.3980   41.0600 C   0  0  0  0  0  0  0  0  0  0  0  0
   42.2070   35.1360   39.8220 C   0  0  0  0  0  0  0  0  0  0  0  0
   42.8130   34.1780   39.0500 N   0  0  0  0  0  0  0  0  0  0  0  0
   43.9160   33.5100   39.4750 C   0  0  0  0  0  0  0  0  0  0  0  0
   44.4610   33.7550   40.6630 N   0  0  0  0  0  0  0  0  0  0  0  0
   42.3570   36.1410   41.7370 H   0  0  0  0  0  0  0  0  0  0  0  0
   44.3780   32.7570   38.8490 H   0  0  0  0  0  0  0  0  0  0  0  0
   44.5150   34.9720   42.7840 C   0  0  0  0  0  0  0  0  0  0  0  0
   46.0380   35.3140   42.6820 C   0  0  0  0  0  0  0  0  0  0  0  0
   45.0160   36.2390   43.1770 C   0  0  0  0  0  0  0  0  0  0  0  0
   44.2670   34.1890   43.5240 H   0  0  0  0  0  0  0  0  0  0  0  0
   46.4680   35.4070   41.6720 H   0  0  0  0  0  0  0  0  0  0  0  0
   46.6630   34.6920   43.3470 H   0  0  0  0  0  0  0  0  0  0  0  0
   44.8190   37.1130   42.4900 H   0  0  0  0  0  0  0  0  0  0  0  0
   45.0170   36.5720   44.2280 H   0  0  0  0  0  0  0  0  0  0  0  0
   39.8290   35.5790   40.2940 C   0  0  0  0  0  0  0  0  0  0  0  0
   40.1920   35.6040   41.3230 H   0  0  0  0  0  0  0  0  0  0  0  0
   39.0590   36.3960   40.2090 H   0  0  0  0  0  0  0  0  0  0  0  0
   39.2410   33.2930   40.9000 C   0  0  0  0  0  0  0  0  0  0  0  0
   39.8240   33.3280   42.0190 O   0  0  0  0  0  0  0  0  0  0  0  0
   39.1460   34.3530   39.9570 N   0  0  0  0  0  0  0  0  0  0  0  0
   38.6200   34.2530   39.0840 H   0  0  0  0  0  0  0  0  0  0  0  0
   38.5890   32.0200   40.5230 C   0  0  0  0  0  0  0  0  0  0  0  0
   37.9100   31.1550   41.3000 N   0  0  0  0  0  0  0  0  0  0  0  0
   37.4690   30.1160   40.5870 C   0  0  0  0  0  0  0  0  0  0  0  0
   36.8960   29.2600   40.9220 H   0  0  0  0  0  0  0  0  0  0  0  0
   37.8760   30.3240   39.3320 N   0  0  0  0  0  0  0  0  0  0  0  0
   37.7530   29.7720   38.4630 H   0  0  0  0  0  0  0  0  0  0  0  0
   38.5400   31.4520   39.2910 N   0  0  0  0  0  0  0  0  0  0  0  0
  1  6  1  0  0  0  0
  1 20  1  0  0  0  0
  2  1  1  0  0  0  0
  3  1  1  0  0  0  0
  4 12  1  0  0  0  0
  5  4  1  0  0  0  0
  5 10  1  0  0  0  0
  6  5  2  0  0  0  0
  7  8  2  0  0  0  0
  7  6  1  0  0  0  0
  8  9  1  0  0  0  0
  9  4  2  0  0  0  0
 11  8  1  0  0  0  0
 12 14  1  0  0  0  0
 12 15  1  0  0  0  0
 13 12  1  0  0  0  0
 13 14  1  0  0  0  0
 13 17  1  0  0  0  0
 14 19  1  0  0  0  0
 16 13  1  0  0  0  0
 18 14  1  0  0  0  0
 20 21  1  0  0  0  0
 22 20  1  0  0  0  0
 23 24  2  0  0  0  0
 25 20  1  0  0  0  0
 25 23  1  0  0  0  0
 26 25  1  0  0  0  0
 27 23  1  0  0  0  0
 27 28  1  0  0  0  0
 29 30  1  0  0  0  0
 29 28  2  0  0  0  0
 31 29  1  0  0  0  0
 32 31  1  0  0  0  0
 33 31  1  0  0  0  0
 33 27  2  0  0  0  0
M  END
>  <minimizedAffinity>
-4.77700567

>  <minimizedRMSD>
0.630987525

$$$$
