
 OpenBabel03242520193D

 33 35  0  0  0  0  0  0  0  0999 V2000
   40.9960   35.8650   39.3710 C   0  0  0  0  0  0  0  0  0  0  0  0
   40.7230   35.4270   38.3790 H   0  0  0  0  0  0  0  0  0  0  0  0
   41.1270   36.9500   39.2910 H   0  0  0  0  0  0  0  0  0  0  0  0
   43.9160   34.6680   41.4560 C   0  0  0  0  0  0  0  0  0  0  0  0
   42.7680   35.3920   41.0620 C   0  0  0  0  0  0  0  0  0  0  0  0
   42.2070   35.1350   39.8220 C   0  0  0  0  0  0  0  0  0  0  0  0
   42.8140   34.1810   39.0460 N   0  0  0  0  0  0  0  0  0  0  0  0
   43.9170   33.5120   39.4700 C   0  0  0  0  0  0  0  0  0  0  0  0
   44.4610   33.7510   40.6590 N   0  0  0  0  0  0  0  0  0  0  0  0
   42.3550   36.1310   41.7420 H   0  0  0  0  0  0  0  0  0  0  0  0
   44.3810   32.7620   38.8410 H   0  0  0  0  0  0  0  0  0  0  0  0
   44.5120   34.9590   42.7860 C   0  0  0  0  0  0  0  0  0  0  0  0
   46.0300   35.3210   42.6840 C   0  0  0  0  0  0  0  0  0  0  0  0
   44.9970   36.2280   43.1910 C   0  0  0  0  0  0  0  0  0  0  0  0
   44.2760   34.1650   43.5190 H   0  0  0  0  0  0  0  0  0  0  0  0
   46.4570   35.4310   41.6750 H   0  0  0  0  0  0  0  0  0  0  0  0
   46.6650   34.7010   43.3420 H   0  0  0  0  0  0  0  0  0  0  0  0
   44.7870   37.1060   42.5130 H   0  0  0  0  0  0  0  0  0  0  0  0
   44.9950   36.5500   44.2450 H   0  0  0  0  0  0  0  0  0  0  0  0
   39.8300   35.5780   40.2970 C   0  0  0  0  0  0  0  0  0  0  0  0
   40.1930   35.6030   41.3250 H   0  0  0  0  0  0  0  0  0  0  0  0
   39.0600   36.3960   40.2130 H   0  0  0  0  0  0  0  0  0  0  0  0
   39.2420   33.2920   40.9010 C   0  0  0  0  0  0  0  0  0  0  0  0
   39.8250   33.3270   42.0200 O   0  0  0  0  0  0  0  0  0  0  0  0
   39.1470   34.3530   39.9590 N   0  0  0  0  0  0  0  0  0  0  0  0
   38.6210   34.2540   39.0850 H   0  0  0  0  0  0  0  0  0  0  0  0
   38.5900   32.0190   40.5230 C   0  0  0  0  0  0  0  0  0  0  0  0
   37.9090   31.1550   41.2990 N   0  0  0  0  0  0  0  0  0  0  0  0
   37.4690   30.1160   40.5860 C   0  0  0  0  0  0  0  0  0  0  0  0
   36.8950   29.2600   40.9210 H   0  0  0  0  0  0  0  0  0  0  0  0
   37.8770   30.3250   39.3320 N   0  0  0  0  0  0  0  0  0  0  0  0
   37.7550   29.7720   38.4620 H   0  0  0  0  0  0  0  0  0  0  0  0
   38.5420   31.4520   39.2920 N   0  0  0  0  0  0  0  0  0  0  0  0
  1  6  1  0  0  0  0
  1 20  1  0  0  0  0
  2  1  1  0  0  0  0
  3  1  1  0  0  0  0
  4 12  1  0  0  0  0
  5  4  1  0  0  0  0
  5 10  1  0  0  0  0
  6  5  2  0  0  0  0
  7  8  2  0  0  0  0
  7  6  1  0  0  0  0
  8  9  1  0  0  0  0
  9  4  2  0  0  0  0
 11  8  1  0  0  0  0
 12 14  1  0  0  0  0
 12 15  1  0  0  0  0
 13 12  1  0  0  0  0
 13 14  1  0  0  0  0
 13 17  1  0  0  0  0
 14 19  1  0  0  0  0
 16 13  1  0  0  0  0
 18 14  1  0  0  0  0
 20 21  1  0  0  0  0
 22 20  1  0  0  0  0
 23 24  2  0  0  0  0
 25 20  1  0  0  0  0
 25 23  1  0  0  0  0
 26 25  1  0  0  0  0
 27 23  1  0  0  0  0
 27 28  1  0  0  0  0
 29 30  1  0  0  0  0
 29 28  2  0  0  0  0
 31 29  1  0  0  0  0
 32 31  1  0  0  0  0
 33 31  1  0  0  0  0
 33 27  2  0  0  0  0
M  END
>  <minimizedAffinity>
-4.7724905

>  <minimizedRMSD>
0.491593003

$$$$
