
 OpenBabel03242515023D

 35 37  0  0  0  0  0  0  0  0999 V2000
   39.4900   30.0310   42.3010 S   0  0  0  0  0  0  0  0  0  0  0  0
   39.4530   31.5640   41.3710 C   0  0  0  0  0  0  0  0  0  0  0  0
   38.2070   31.9560   40.8630 C   0  0  0  0  0  0  0  0  0  0  0  0
   38.1360   33.1420   40.1330 C   0  0  0  0  0  0  0  0  0  0  0  0
   39.2730   33.8540   39.9540 N   0  0  0  0  0  0  0  0  0  0  0  0
   40.4520   33.4710   40.4430 C   0  0  0  0  0  0  0  0  0  0  0  0
   40.5440   32.3310   41.1480 N   0  0  0  0  0  0  0  0  0  0  0  0
   37.2830   31.4190   40.9830 H   0  0  0  0  0  0  0  0  0  0  0  0
   37.1970   33.4870   39.7200 H   0  0  0  0  0  0  0  0  0  0  0  0
   41.6240   34.2900   40.2080 C   0  0  0  0  0  0  0  0  0  0  0  0
   41.9650   35.1270   41.0810 O   0  0  0  0  0  0  0  0  0  0  0  0
   42.4380   34.1960   39.0000 C   0  0  0  0  0  0  0  0  0  0  0  0
   43.6420   33.5970   38.9660 N   0  0  0  0  0  0  0  0  0  0  0  0
   44.1500   33.6710   37.7120 C   0  0  0  0  0  0  0  0  0  0  0  0
   45.1140   33.2670   37.3940 H   0  0  0  0  0  0  0  0  0  0  0  0
   43.2370   34.3280   36.9650 N   0  0  0  0  0  0  0  0  0  0  0  0
   43.3110   34.5600   35.9420 H   0  0  0  0  0  0  0  0  0  0  0  0
   42.1990   34.6450   37.7560 N   0  0  0  0  0  0  0  0  0  0  0  0
   37.8470   29.3610   42.5760 C   0  0  0  0  0  0  0  0  0  0  0  0
   37.3990   29.0850   41.6110 H   0  0  0  0  0  0  0  0  0  0  0  0
   37.2170   30.1680   43.0140 H   0  0  0  0  0  0  0  0  0  0  0  0
   37.8440   28.2300   43.5520 C   0  0  0  0  0  0  0  0  0  0  0  0
   36.9930   28.2370   44.2430 H   0  0  0  0  0  0  0  0  0  0  0  0
   38.7610   28.3400   44.1700 H   0  0  0  0  0  0  0  0  0  0  0  0
   40.4150   26.6920   44.0870 Cl  0  0  0  0  0  0  0  0  0  0  0  0
   39.1380   26.1340   43.0500 C   0  0  0  0  0  0  0  0  0  0  0  0
   37.9820   26.9190   42.8640 C   0  0  0  0  0  0  0  0  0  0  0  0
   37.0220   26.4040   42.0290 C   0  0  0  0  0  0  0  0  0  0  0  0
   37.0720   25.2010   41.3570 C   0  0  0  0  0  0  0  0  0  0  0  0
   38.2230   24.4420   41.5560 C   0  0  0  0  0  0  0  0  0  0  0  0
   38.3760   22.8910   40.7370 Cl  0  0  0  0  0  0  0  0  0  0  0  0
   39.2200   24.9170   42.3880 C   0  0  0  0  0  0  0  0  0  0  0  0
   36.1490   27.0370   41.9120 H   0  0  0  0  0  0  0  0  0  0  0  0
   36.2590   24.8850   40.7180 H   0  0  0  0  0  0  0  0  0  0  0  0
   40.1050   24.3000   42.5210 H   0  0  0  0  0  0  0  0  0  0  0  0
  1 19  1  0  0  0  0
  2  1  1  0  0  0  0
  3  8  1  0  0  0  0
  3  2  2  0  0  0  0
  4  3  1  0  0  0  0
  5  4  2  0  0  0  0
  5  6  1  0  0  0  0
  6  7  2  0  0  0  0
  7  2  1  0  0  0  0
  9  4  1  0  0  0  0
 10  6  1  0  0  0  0
 10 11  2  0  0  0  0
 12 10  1  0  0  0  0
 13 12  1  0  0  0  0
 14 13  2  0  0  0  0
 15 14  1  0  0  0  0
 16 14  1  0  0  0  0
 16 18  1  0  0  0  0
 17 16  1  0  0  0  0
 18 12  2  0  0  0  0
 19 21  1  0  0  0  0
 19 22  1  0  0  0  0
 20 19  1  0  0  0  0
 22 24  1  0  0  0  0
 22 23  1  0  0  0  0
 26 25  1  0  0  0  0
 27 26  1  0  0  0  0
 27 22  1  0  0  0  0
 28 27  2  0  0  0  0
 29 30  2  0  0  0  0
 29 28  1  0  0  0  0
 30 32  1  0  0  0  0
 31 30  1  0  0  0  0
 32 35  1  0  0  0  0
 32 26  2  0  0  0  0
 33 28  1  0  0  0  0
 34 29  1  0  0  0  0
M  END
>  <minimizedAffinity>
-6.15358353

$$$$

 OpenBabel03242515023D

 35 37  0  0  0  0  0  0  0  0999 V2000
   38.3890   30.2680   39.7260 S   0  0  0  0  0  0  0  0  0  0  0  0
   38.7510   32.0210   39.8540 C   0  0  0  0  0  0  0  0  0  0  0  0
   37.6490   32.8820   39.9190 C   0  0  0  0  0  0  0  0  0  0  0  0
   37.8870   34.2530   40.0190 C   0  0  0  0  0  0  0  0  0  0  0  0
   39.1720   34.6800   40.0470 N   0  0  0  0  0  0  0  0  0  0  0  0
   40.2120   33.8500   39.9830 C   0  0  0  0  0  0  0  0  0  0  0  0
   40.0050   32.5250   39.8860 N   0  0  0  0  0  0  0  0  0  0  0  0
   36.6160   32.5830   39.9000 H   0  0  0  0  0  0  0  0  0  0  0  0
   37.0690   34.9590   40.0730 H   0  0  0  0  0  0  0  0  0  0  0  0
   41.5580   34.3860   40.0200 C   0  0  0  0  0  0  0  0  0  0  0  0
   41.9430   34.9890   41.0520 O   0  0  0  0  0  0  0  0  0  0  0  0
   42.4990   34.2640   38.9120 C   0  0  0  0  0  0  0  0  0  0  0  0
   43.7540   33.8020   39.0560 N   0  0  0  0  0  0  0  0  0  0  0  0
   44.3810   33.8070   37.8550 C   0  0  0  0  0  0  0  0  0  0  0  0
   45.4090   33.4830   37.6750 H   0  0  0  0  0  0  0  0  0  0  0  0
   43.4900   34.2820   36.9580 N   0  0  0  0  0  0  0  0  0  0  0  0
   43.6480   34.4190   35.9270 H   0  0  0  0  0  0  0  0  0  0  0  0
   42.3490   34.5590   37.6080 N   0  0  0  0  0  0  0  0  0  0  0  0
   36.6350   29.9220   39.8840 C   0  0  0  0  0  0  0  0  0  0  0  0
   36.3010   29.3280   39.0230 H   0  0  0  0  0  0  0  0  0  0  0  0
   36.0900   30.8920   39.8480 H   0  0  0  0  0  0  0  0  0  0  0  0
   36.2920   29.2800   41.1880 C   0  0  0  0  0  0  0  0  0  0  0  0
   35.2700   29.4780   41.5310 H   0  0  0  0  0  0  0  0  0  0  0  0
   36.9760   29.7170   41.9480 H   0  0  0  0  0  0  0  0  0  0  0  0
   37.1040   28.0420   43.8480 Cl  0  0  0  0  0  0  0  0  0  0  0  0
   36.9770   27.1610   42.3560 C   0  0  0  0  0  0  0  0  0  0  0  0
   36.5930   27.8230   41.1720 C   0  0  0  0  0  0  0  0  0  0  0  0
   36.5180   27.0530   40.0380 C   0  0  0  0  0  0  0  0  0  0  0  0
   36.7780   25.7030   39.9400 C   0  0  0  0  0  0  0  0  0  0  0  0
   37.1560   25.0690   41.1210 C   0  0  0  0  0  0  0  0  0  0  0  0
   37.5090   23.3450   41.0900 Cl  0  0  0  0  0  0  0  0  0  0  0  0
   37.2470   25.8010   42.2910 C   0  0  0  0  0  0  0  0  0  0  0  0
   36.2190   27.5990   39.1500 H   0  0  0  0  0  0  0  0  0  0  0  0
   36.6900   25.1860   38.9940 H   0  0  0  0  0  0  0  0  0  0  0  0
   37.5440   25.2760   43.1950 H   0  0  0  0  0  0  0  0  0  0  0  0
  1  2  1  0  0  0  0
  1 19  1  0  0  0  0
  2  7  2  0  0  0  0
  2  3  1  0  0  0  0
  3  4  2  0  0  0  0
  4  5  1  0  0  0  0
  4  9  1  0  0  0  0
  6 10  1  0  0  0  0
  6  5  2  0  0  0  0
  7  6  1  0  0  0  0
  8  3  1  0  0  0  0
 10 11  2  0  0  0  0
 12 13  1  0  0  0  0
 12 10  1  0  0  0  0
 14 13  2  0  0  0  0
 15 14  1  0  0  0  0
 16 18  1  0  0  0  0
 16 14  1  0  0  0  0
 17 16  1  0  0  0  0
 18 12  2  0  0  0  0
 19 22  1  0  0  0  0
 20 19  1  0  0  0  0
 21 19  1  0  0  0  0
 22 23  1  0  0  0  0
 22 24  1  0  0  0  0
 26 25  1  0  0  0  0
 27 22  1  0  0  0  0
 27 26  2  0  0  0  0
 28 27  1  0  0  0  0
 29 28  2  0  0  0  0
 29 30  1  0  0  0  0
 30 32  2  0  0  0  0
 31 30  1  0  0  0  0
 32 26  1  0  0  0  0
 32 35  1  0  0  0  0
 33 28  1  0  0  0  0
 34 29  1  0  0  0  0
M  END
>  <minimizedAffinity>
-6.03195

$$$$

 OpenBabel03242515023D

 35 37  0  0  0  0  0  0  0  0999 V2000
   37.0590   30.7010   38.8830 S   0  0  0  0  0  0  0  0  0  0  0  0
   38.0170   32.1490   39.3360 C   0  0  0  0  0  0  0  0  0  0  0  0
   37.2940   33.3230   39.5840 C   0  0  0  0  0  0  0  0  0  0  0  0
   38.0020   34.4710   39.9380 C   0  0  0  0  0  0  0  0  0  0  0  0
   39.3510   34.3910   40.0260 N   0  0  0  0  0  0  0  0  0  0  0  0
   40.0270   33.2680   39.7870 C   0  0  0  0  0  0  0  0  0  0  0  0
   39.3650   32.1500   39.4430 N   0  0  0  0  0  0  0  0  0  0  0  0
   36.2250   33.4270   39.5250 H   0  0  0  0  0  0  0  0  0  0  0  0
   37.4890   35.4030   40.1390 H   0  0  0  0  0  0  0  0  0  0  0  0
   41.4710   33.2650   39.9020 C   0  0  0  0  0  0  0  0  0  0  0  0
   41.9910   32.9920   41.0130 O   0  0  0  0  0  0  0  0  0  0  0  0
   42.3650   33.5650   38.7880 C   0  0  0  0  0  0  0  0  0  0  0  0
   43.5910   33.0280   38.6600 N   0  0  0  0  0  0  0  0  0  0  0  0
   44.1760   33.4950   37.5300 C   0  0  0  0  0  0  0  0  0  0  0  0
   45.1740   33.2270   37.1750 H   0  0  0  0  0  0  0  0  0  0  0  0
   43.2870   34.3360   36.9570 N   0  0  0  0  0  0  0  0  0  0  0  0
   43.4180   34.8750   36.0640 H   0  0  0  0  0  0  0  0  0  0  0  0
   42.1890   34.3730   37.7280 N   0  0  0  0  0  0  0  0  0  0  0  0
   36.1070   30.0560   40.2610 C   0  0  0  0  0  0  0  0  0  0  0  0
   35.9260   28.9830   40.1100 H   0  0  0  0  0  0  0  0  0  0  0  0
   35.1140   30.5610   40.2570 H   0  0  0  0  0  0  0  0  0  0  0  0
   36.7380   30.3480   41.5820 C   0  0  0  0  0  0  0  0  0  0  0  0
   36.0470   30.7580   42.3290 H   0  0  0  0  0  0  0  0  0  0  0  0
   37.5120   31.1250   41.4010 H   0  0  0  0  0  0  0  0  0  0  0  0
   39.5470   30.8680   42.6320 Cl  0  0  0  0  0  0  0  0  0  0  0  0
   38.7810   29.3090   42.6130 C   0  0  0  0  0  0  0  0  0  0  0  0
   37.4740   29.1670   42.1060 C   0  0  0  0  0  0  0  0  0  0  0  0
   36.9440   27.9010   42.1280 C   0  0  0  0  0  0  0  0  0  0  0  0
   37.5580   26.7580   42.5960 C   0  0  0  0  0  0  0  0  0  0  0  0
   38.8490   26.9220   43.0920 C   0  0  0  0  0  0  0  0  0  0  0  0
   39.7100   25.5170   43.7100 Cl  0  0  0  0  0  0  0  0  0  0  0  0
   39.4280   28.1780   43.0910 C   0  0  0  0  0  0  0  0  0  0  0  0
   35.9370   27.8340   41.7300 H   0  0  0  0  0  0  0  0  0  0  0  0
   37.0520   25.8030   42.5690 H   0  0  0  0  0  0  0  0  0  0  0  0
   40.4370   28.2700   43.4860 H   0  0  0  0  0  0  0  0  0  0  0  0
  1  2  1  0  0  0  0
  1 19  1  0  0  0  0
  2  7  2  0  0  0  0
  2  3  1  0  0  0  0
  3  4  2  0  0  0  0
  4  5  1  0  0  0  0
  4  9  1  0  0  0  0
  6 10  1  0  0  0  0
  6  5  2  0  0  0  0
  7  6  1  0  0  0  0
  8  3  1  0  0  0  0
 10 11  2  0  0  0  0
 12 10  1  0  0  0  0
 13 12  1  0  0  0  0
 14 13  2  0  0  0  0
 15 14  1  0  0  0  0
 16 14  1  0  0  0  0
 16 18  1  0  0  0  0
 17 16  1  0  0  0  0
 18 12  2  0  0  0  0
 19 22  1  0  0  0  0
 20 19  1  0  0  0  0
 21 19  1  0  0  0  0
 22 27  1  0  0  0  0
 22 23  1  0  0  0  0
 24 22  1  0  0  0  0
 26 25  1  0  0  0  0
 26 32  1  0  0  0  0
 27 28  1  0  0  0  0
 27 26  2  0  0  0  0
 28 29  2  0  0  0  0
 29 30  1  0  0  0  0
 30 31  1  0  0  0  0
 32 30  2  0  0  0  0
 32 35  1  0  0  0  0
 33 28  1  0  0  0  0
 34 29  1  0  0  0  0
M  END
>  <minimizedAffinity>
-6.01378965

$$$$

 OpenBabel03242515023D

 35 37  0  0  0  0  0  0  0  0999 V2000
   37.2640   30.9100   39.3670 S   0  0  0  0  0  0  0  0  0  0  0  0
   38.2940   32.3540   39.6360 C   0  0  0  0  0  0  0  0  0  0  0  0
   37.6260   33.5730   39.8100 C   0  0  0  0  0  0  0  0  0  0  0  0
   38.3900   34.7200   40.0220 C   0  0  0  0  0  0  0  0  0  0  0  0
   39.7390   34.5960   40.0480 N   0  0  0  0  0  0  0  0  0  0  0  0
   40.3620   33.4310   39.8810 C   0  0  0  0  0  0  0  0  0  0  0  0
   39.6450   32.3130   39.6750 N   0  0  0  0  0  0  0  0  0  0  0  0
   36.5590   33.7130   39.7960 H   0  0  0  0  0  0  0  0  0  0  0  0
   37.9210   35.6850   40.1610 H   0  0  0  0  0  0  0  0  0  0  0  0
   41.8100   33.3820   39.9240 C   0  0  0  0  0  0  0  0  0  0  0  0
   42.4390   33.0920   38.8760 O   0  0  0  0  0  0  0  0  0  0  0  0
   42.5850   33.6530   41.1300 C   0  0  0  0  0  0  0  0  0  0  0  0
   43.1970   34.8280   41.3660 N   0  0  0  0  0  0  0  0  0  0  0  0
   43.8340   34.7760   42.5610 C   0  0  0  0  0  0  0  0  0  0  0  0
   44.4130   35.5890   43.0070 H   0  0  0  0  0  0  0  0  0  0  0  0
   43.6070   33.5430   43.0650 N   0  0  0  0  0  0  0  0  0  0  0  0
   43.9580   33.1640   43.9810 H   0  0  0  0  0  0  0  0  0  0  0  0
   42.8470   32.8670   42.1880 N   0  0  0  0  0  0  0  0  0  0  0  0
   36.0980   30.6450   40.7060 C   0  0  0  0  0  0  0  0  0  0  0  0
   35.2350   31.3120   40.5760 H   0  0  0  0  0  0  0  0  0  0  0  0
   36.5990   30.9350   41.6580 H   0  0  0  0  0  0  0  0  0  0  0  0
   35.6980   29.2130   40.8440 C   0  0  0  0  0  0  0  0  0  0  0  0
   35.4330   28.7280   39.8970 H   0  0  0  0  0  0  0  0  0  0  0  0
   34.7860   29.1970   41.4780 H   0  0  0  0  0  0  0  0  0  0  0  0
   36.4450   26.5020   39.6800 Cl  0  0  0  0  0  0  0  0  0  0  0  0
   37.1290   27.1670   41.1320 C   0  0  0  0  0  0  0  0  0  0  0  0
   36.7190   28.4340   41.5930 C   0  0  0  0  0  0  0  0  0  0  0  0
   37.3090   28.8840   42.7480 C   0  0  0  0  0  0  0  0  0  0  0  0
   38.2610   28.2260   43.4990 C   0  0  0  0  0  0  0  0  0  0  0  0
   38.6510   26.9760   43.0240 C   0  0  0  0  0  0  0  0  0  0  0  0
   39.8600   26.0630   43.9190 Cl  0  0  0  0  0  0  0  0  0  0  0  0
   38.0850   26.4780   41.8650 C   0  0  0  0  0  0  0  0  0  0  0  0
   36.9670   29.8620   43.0690 H   0  0  0  0  0  0  0  0  0  0  0  0
   38.6640   28.6700   44.3980 H   0  0  0  0  0  0  0  0  0  0  0  0
   38.4130   25.4990   41.5220 H   0  0  0  0  0  0  0  0  0  0  0  0
  1  2  1  0  0  0  0
  1 19  1  0  0  0  0
  2  7  2  0  0  0  0
  2  3  1  0  0  0  0
  3  4  2  0  0  0  0
  4  5  1  0  0  0  0
  4  9  1  0  0  0  0
  6 10  1  0  0  0  0
  6  5  2  0  0  0  0
  7  6  1  0  0  0  0
  8  3  1  0  0  0  0
 10 12  1  0  0  0  0
 11 10  2  0  0  0  0
 12 13  1  0  0  0  0
 12 18  2  0  0  0  0
 13 14  2  0  0  0  0
 14 15  1  0  0  0  0
 14 16  1  0  0  0  0
 16 17  1  0  0  0  0
 18 16  1  0  0  0  0
 19 22  1  0  0  0  0
 19 21  1  0  0  0  0
 20 19  1  0  0  0  0
 22 24  1  0  0  0  0
 22 27  1  0  0  0  0
 23 22  1  0  0  0  0
 25 26  1  0  0  0  0
 26 27  2  0  0  0  0
 26 32  1  0  0  0  0
 27 28  1  0  0  0  0
 28 33  1  0  0  0  0
 28 29  2  0  0  0  0
 29 34  1  0  0  0  0
 30 29  1  0  0  0  0
 30 31  1  0  0  0  0
 32 30  2  0  0  0  0
 35 32  1  0  0  0  0
M  END
>  <minimizedAffinity>
-5.92625904

$$$$

 OpenBabel03242515023D

 35 37  0  0  0  0  0  0  0  0999 V2000
   37.7520   30.6110   38.8990 S   0  0  0  0  0  0  0  0  0  0  0  0
   38.4260   32.2200   39.3190 C   0  0  0  0  0  0  0  0  0  0  0  0
   37.4980   33.2320   39.5980 C   0  0  0  0  0  0  0  0  0  0  0  0
   37.9810   34.4970   39.9280 C   0  0  0  0  0  0  0  0  0  0  0  0
   39.3220   34.6830   39.9630 N   0  0  0  0  0  0  0  0  0  0  0  0
   40.1940   33.7120   39.6950 C   0  0  0  0  0  0  0  0  0  0  0  0
   39.7500   32.4850   39.3740 N   0  0  0  0  0  0  0  0  0  0  0  0
   36.4280   33.1250   39.5820 H   0  0  0  0  0  0  0  0  0  0  0  0
   37.3050   35.3120   40.1520 H   0  0  0  0  0  0  0  0  0  0  0  0
   41.6150   33.9910   39.7540 C   0  0  0  0  0  0  0  0  0  0  0  0
   42.2080   34.3450   38.7040 O   0  0  0  0  0  0  0  0  0  0  0  0
   42.4030   33.8840   40.9770 C   0  0  0  0  0  0  0  0  0  0  0  0
   43.2140   34.8600   41.4220 N   0  0  0  0  0  0  0  0  0  0  0  0
   43.8070   34.4680   42.5750 C   0  0  0  0  0  0  0  0  0  0  0  0
   44.5150   35.0630   43.1580 H   0  0  0  0  0  0  0  0  0  0  0  0
   43.3490   33.2250   42.8400 N   0  0  0  0  0  0  0  0  0  0  0  0
   43.6060   32.6230   43.6620 H   0  0  0  0  0  0  0  0  0  0  0  0
   42.4960   32.8770   41.8630 N   0  0  0  0  0  0  0  0  0  0  0  0
   36.4200   30.1220   39.9990 C   0  0  0  0  0  0  0  0  0  0  0  0
   36.1400   29.0800   39.7940 H   0  0  0  0  0  0  0  0  0  0  0  0
   35.5330   30.7550   39.7660 H   0  0  0  0  0  0  0  0  0  0  0  0
   36.7500   30.3520   41.4380 C   0  0  0  0  0  0  0  0  0  0  0  0
   35.8870   30.6210   42.0590 H   0  0  0  0  0  0  0  0  0  0  0  0
   37.4500   31.2140   41.4700 H   0  0  0  0  0  0  0  0  0  0  0  0
   39.5130   30.9770   42.5510 Cl  0  0  0  0  0  0  0  0  0  0  0  0
   38.7910   29.3970   42.5510 C   0  0  0  0  0  0  0  0  0  0  0  0
   37.5030   29.2050   42.0120 C   0  0  0  0  0  0  0  0  0  0  0  0
   37.0070   27.9260   42.0520 C   0  0  0  0  0  0  0  0  0  0  0  0
   37.6390   26.8130   42.5660 C   0  0  0  0  0  0  0  0  0  0  0  0
   38.9100   27.0250   43.0940 C   0  0  0  0  0  0  0  0  0  0  0  0
   39.7920   25.6610   43.7710 Cl  0  0  0  0  0  0  0  0  0  0  0  0
   39.4540   28.2960   43.0760 C   0  0  0  0  0  0  0  0  0  0  0  0
   36.0150   27.8200   41.6280 H   0  0  0  0  0  0  0  0  0  0  0  0
   37.1600   25.8430   42.5490 H   0  0  0  0  0  0  0  0  0  0  0  0
   40.4480   28.4270   43.4970 H   0  0  0  0  0  0  0  0  0  0  0  0
  1  2  1  0  0  0  0
  1 19  1  0  0  0  0
  2  7  2  0  0  0  0
  2  3  1  0  0  0  0
  3  4  2  0  0  0  0
  4  5  1  0  0  0  0
  4  9  1  0  0  0  0
  6 10  1  0  0  0  0
  6  5  2  0  0  0  0
  7  6  1  0  0  0  0
  8  3  1  0  0  0  0
 10 12  1  0  0  0  0
 11 10  2  0  0  0  0
 12 13  1  0  0  0  0
 12 18  2  0  0  0  0
 13 14  2  0  0  0  0
 14 16  1  0  0  0  0
 14 15  1  0  0  0  0
 16 17  1  0  0  0  0
 18 16  1  0  0  0  0
 19 22  1  0  0  0  0
 20 19  1  0  0  0  0
 21 19  1  0  0  0  0
 22 24  1  0  0  0  0
 22 27  1  0  0  0  0
 22 23  1  0  0  0  0
 25 26  1  0  0  0  0
 26 32  1  0  0  0  0
 27 28  1  0  0  0  0
 27 26  2  0  0  0  0
 28 29  2  0  0  0  0
 29 30  1  0  0  0  0
 30 31  1  0  0  0  0
 32 30  2  0  0  0  0
 32 35  1  0  0  0  0
 33 28  1  0  0  0  0
 34 29  1  0  0  0  0
M  END
>  <minimizedAffinity>
-5.76206207

$$$$

 OpenBabel03242515023D

 35 37  0  0  0  0  0  0  0  0999 V2000
   35.7110   26.6000   37.5310 S   0  0  0  0  0  0  0  0  0  0  0  0
   36.1300   25.5900   38.9520 C   0  0  0  0  0  0  0  0  0  0  0  0
   35.6840   24.2620   38.9280 C   0  0  0  0  0  0  0  0  0  0  0  0
   35.9880   23.4430   40.0150 C   0  0  0  0  0  0  0  0  0  0  0  0
   36.7010   23.9730   41.0370 N   0  0  0  0  0  0  0  0  0  0  0  0
   37.1200   25.2380   41.0480 C   0  0  0  0  0  0  0  0  0  0  0  0
   36.8360   26.0450   40.0110 N   0  0  0  0  0  0  0  0  0  0  0  0
   35.1170   23.8050   38.1370 H   0  0  0  0  0  0  0  0  0  0  0  0
   35.6660   22.4110   40.0430 H   0  0  0  0  0  0  0  0  0  0  0  0
   37.8780   25.7300   42.1810 C   0  0  0  0  0  0  0  0  0  0  0  0
   38.7500   24.9860   42.6970 O   0  0  0  0  0  0  0  0  0  0  0  0
   37.6840   27.0540   42.7620 C   0  0  0  0  0  0  0  0  0  0  0  0
   38.5520   28.0680   42.5950 N   0  0  0  0  0  0  0  0  0  0  0  0
   38.1000   29.1650   43.2510 C   0  0  0  0  0  0  0  0  0  0  0  0
   38.6040   30.1340   43.2860 H   0  0  0  0  0  0  0  0  0  0  0  0
   36.9320   28.8130   43.8300 N   0  0  0  0  0  0  0  0  0  0  0  0
   36.3120   29.4260   44.4180 H   0  0  0  0  0  0  0  0  0  0  0  0
   36.6860   27.5280   43.5280 N   0  0  0  0  0  0  0  0  0  0  0  0
   36.6480   28.1310   37.4820 C   0  0  0  0  0  0  0  0  0  0  0  0
   37.2190   28.1800   36.5450 H   0  0  0  0  0  0  0  0  0  0  0  0
   37.3850   28.1070   38.3170 H   0  0  0  0  0  0  0  0  0  0  0  0
   35.7910   29.3360   37.6930 C   0  0  0  0  0  0  0  0  0  0  0  0
   34.7960   29.1140   38.0950 H   0  0  0  0  0  0  0  0  0  0  0  0
   35.6380   29.7960   36.6930 H   0  0  0  0  0  0  0  0  0  0  0  0
   35.3010   29.2530   40.6960 Cl  0  0  0  0  0  0  0  0  0  0  0  0
   36.3290   30.4080   39.9020 C   0  0  0  0  0  0  0  0  0  0  0  0
   36.4940   30.3660   38.5030 C   0  0  0  0  0  0  0  0  0  0  0  0
   37.3220   31.3140   37.9570 C   0  0  0  0  0  0  0  0  0  0  0  0
   38.0080   32.2990   38.6360 C   0  0  0  0  0  0  0  0  0  0  0  0
   37.8310   32.3220   40.0170 C   0  0  0  0  0  0  0  0  0  0  0  0
   38.6670   33.5460   40.9660 Cl  0  0  0  0  0  0  0  0  0  0  0  0
   37.0050   31.3880   40.6150 C   0  0  0  0  0  0  0  0  0  0  0  0
   37.4230   31.2490   36.8790 H   0  0  0  0  0  0  0  0  0  0  0  0
   38.6390   33.0030   38.1090 H   0  0  0  0  0  0  0  0  0  0  0  0
   36.8890   31.4330   41.6950 H   0  0  0  0  0  0  0  0  0  0  0  0
  1  2  1  0  0  0  0
  2  7  1  0  0  0  0
  3  2  2  0  0  0  0
  3  4  1  0  0  0  0
  4  9  1  0  0  0  0
  4  5  2  0  0  0  0
  5  6  1  0  0  0  0
  6 10  1  0  0  0  0
  7  6  2  0  0  0  0
  8  3  1  0  0  0  0
 10 11  2  0  0  0  0
 10 12  1  0  0  0  0
 12 18  2  0  0  0  0
 13 12  1  0  0  0  0
 13 14  2  0  0  0  0
 14 15  1  0  0  0  0
 14 16  1  0  0  0  0
 16 17  1  0  0  0  0
 18 16  1  0  0  0  0
 19  1  1  0  0  0  0
 19 22  1  0  0  0  0
 19 21  1  0  0  0  0
 20 19  1  0  0  0  0
 22 23  1  0  0  0  0
 22 27  1  0  0  0  0
 24 22  1  0  0  0  0
 26 32  1  0  0  0  0
 26 25  1  0  0  0  0
 27 26  2  0  0  0  0
 28 27  1  0  0  0  0
 28 29  2  0  0  0  0
 29 30  1  0  0  0  0
 30 32  2  0  0  0  0
 30 31  1  0  0  0  0
 32 35  1  0  0  0  0
 33 28  1  0  0  0  0
 34 29  1  0  0  0  0
M  END
>  <minimizedAffinity>
-5.73566723

$$$$

 OpenBabel03242515023D

 35 37  0  0  0  0  0  0  0  0999 V2000
   37.1310   30.8330   39.5710 S   0  0  0  0  0  0  0  0  0  0  0  0
   38.6950   31.4120   40.2330 C   0  0  0  0  0  0  0  0  0  0  0  0
   39.2780   30.6250   41.2340 C   0  0  0  0  0  0  0  0  0  0  0  0
   40.4940   31.0400   41.7760 C   0  0  0  0  0  0  0  0  0  0  0  0
   41.0480   32.1830   41.3050 N   0  0  0  0  0  0  0  0  0  0  0  0
   40.4830   32.9230   40.3530 C   0  0  0  0  0  0  0  0  0  0  0  0
   39.3110   32.5410   39.8170 N   0  0  0  0  0  0  0  0  0  0  0  0
   38.8710   29.7130   41.6340 H   0  0  0  0  0  0  0  0  0  0  0  0
   40.9850   30.4670   42.5510 H   0  0  0  0  0  0  0  0  0  0  0  0
   41.1400   34.1340   39.9030 C   0  0  0  0  0  0  0  0  0  0  0  0
   40.7990   35.2330   40.4070 O   0  0  0  0  0  0  0  0  0  0  0  0
   42.1880   34.1470   38.8870 C   0  0  0  0  0  0  0  0  0  0  0  0
   43.4800   33.8890   39.1560 N   0  0  0  0  0  0  0  0  0  0  0  0
   44.2080   33.9770   38.0160 C   0  0  0  0  0  0  0  0  0  0  0  0
   45.2850   33.8160   37.9370 H   0  0  0  0  0  0  0  0  0  0  0  0
   43.3400   34.2950   37.0300 N   0  0  0  0  0  0  0  0  0  0  0  0
   43.5700   34.4420   36.0150 H   0  0  0  0  0  0  0  0  0  0  0  0
   42.1150   34.3970   37.5690 N   0  0  0  0  0  0  0  0  0  0  0  0
   35.9740   30.3710   40.8630 C   0  0  0  0  0  0  0  0  0  0  0  0
   35.0690   30.9900   40.7810 H   0  0  0  0  0  0  0  0  0  0  0  0
   36.4450   30.6050   41.8450 H   0  0  0  0  0  0  0  0  0  0  0  0
   35.6680   28.9090   40.8650 C   0  0  0  0  0  0  0  0  0  0  0  0
   35.4750   28.4900   39.8700 H   0  0  0  0  0  0  0  0  0  0  0  0
   34.7350   28.7800   41.4550 H   0  0  0  0  0  0  0  0  0  0  0  0
   37.3220   26.9720   39.1980 Cl  0  0  0  0  0  0  0  0  0  0  0  0
   37.5260   27.2170   40.9060 C   0  0  0  0  0  0  0  0  0  0  0  0
   36.7100   28.1380   41.5930 C   0  0  0  0  0  0  0  0  0  0  0  0
   36.9380   28.2700   42.9410 C   0  0  0  0  0  0  0  0  0  0  0  0
   37.8810   27.5950   43.6870 C   0  0  0  0  0  0  0  0  0  0  0  0
   38.6750   26.6900   42.9880 C   0  0  0  0  0  0  0  0  0  0  0  0
   39.9060   25.7830   43.8600 Cl  0  0  0  0  0  0  0  0  0  0  0  0
   38.4850   26.5210   41.6290 C   0  0  0  0  0  0  0  0  0  0  0  0
   36.2900   28.9870   43.4330 H   0  0  0  0  0  0  0  0  0  0  0  0
   37.9800   27.7710   44.7500 H   0  0  0  0  0  0  0  0  0  0  0  0
   39.1230   25.8070   41.1140 H   0  0  0  0  0  0  0  0  0  0  0  0
  1  2  1  0  0  0  0
  1 19  1  0  0  0  0
  2  3  1  0  0  0  0
  3  8  1  0  0  0  0
  3  4  2  0  0  0  0
  4  9  1  0  0  0  0
  5  4  1  0  0  0  0
  6  5  2  0  0  0  0
  7  2  2  0  0  0  0
  7  6  1  0  0  0  0
 10  6  1  0  0  0  0
 10 11  2  0  0  0  0
 12 13  1  0  0  0  0
 12 10  1  0  0  0  0
 14 13  2  0  0  0  0
 15 14  1  0  0  0  0
 16 18  1  0  0  0  0
 16 14  1  0  0  0  0
 17 16  1  0  0  0  0
 18 12  2  0  0  0  0
 19 22  1  0  0  0  0
 19 21  1  0  0  0  0
 20 19  1  0  0  0  0
 22 24  1  0  0  0  0
 22 27  1  0  0  0  0
 23 22  1  0  0  0  0
 25 26  1  0  0  0  0
 26 27  2  0  0  0  0
 26 32  1  0  0  0  0
 27 28  1  0  0  0  0
 28 33  1  0  0  0  0
 28 29  2  0  0  0  0
 29 34  1  0  0  0  0
 30 29  1  0  0  0  0
 30 31  1  0  0  0  0
 32 30  2  0  0  0  0
 35 32  1  0  0  0  0
M  END
>  <minimizedAffinity>
-5.71130991

$$$$

 OpenBabel03242515023D

 35 37  0  0  0  0  0  0  0  0999 V2000
   38.2720   30.6840   39.8420 S   0  0  0  0  0  0  0  0  0  0  0  0
   38.9220   32.3540   39.9110 C   0  0  0  0  0  0  0  0  0  0  0  0
   37.9850   33.3820   40.0730 C   0  0  0  0  0  0  0  0  0  0  0  0
   38.4500   34.6960   40.1320 C   0  0  0  0  0  0  0  0  0  0  0  0
   39.7830   34.9090   40.0290 N   0  0  0  0  0  0  0  0  0  0  0  0
   40.6640   33.9220   39.8750 C   0  0  0  0  0  0  0  0  0  0  0  0
   40.2380   32.6490   39.8160 N   0  0  0  0  0  0  0  0  0  0  0  0
   36.9200   33.2540   40.1580 H   0  0  0  0  0  0  0  0  0  0  0  0
   37.7660   35.5250   40.2550 H   0  0  0  0  0  0  0  0  0  0  0  0
   42.0760   34.2340   39.7740 C   0  0  0  0  0  0  0  0  0  0  0  0
   42.5620   34.4900   38.6440 O   0  0  0  0  0  0  0  0  0  0  0  0
   42.9740   34.2670   40.9240 C   0  0  0  0  0  0  0  0  0  0  0  0
   43.0140   35.2860   41.8000 N   0  0  0  0  0  0  0  0  0  0  0  0
   43.9430   35.0290   42.7530 C   0  0  0  0  0  0  0  0  0  0  0  0
   44.1890   35.6850   43.5930 H   0  0  0  0  0  0  0  0  0  0  0  0
   44.4810   33.8270   42.4520 N   0  0  0  0  0  0  0  0  0  0  0  0
   45.2350   33.3250   42.9860 H   0  0  0  0  0  0  0  0  0  0  0  0
   43.8870   33.3710   41.3380 N   0  0  0  0  0  0  0  0  0  0  0  0
   37.8160   30.0620   41.4630 C   0  0  0  0  0  0  0  0  0  0  0  0
   37.8170   30.8890   42.1860 H   0  0  0  0  0  0  0  0  0  0  0  0
   38.6010   29.3400   41.7860 H   0  0  0  0  0  0  0  0  0  0  0  0
   36.5210   29.3170   41.4490 C   0  0  0  0  0  0  0  0  0  0  0  0
   35.8070   29.6720   40.6960 H   0  0  0  0  0  0  0  0  0  0  0  0
   36.0490   29.4810   42.4420 H   0  0  0  0  0  0  0  0  0  0  0  0
   36.9460   27.8350   44.0740 Cl  0  0  0  0  0  0  0  0  0  0  0  0
   36.9460   27.0780   42.5100 C   0  0  0  0  0  0  0  0  0  0  0  0
   36.7400   27.8490   41.3480 C   0  0  0  0  0  0  0  0  0  0  0  0
   36.7550   27.1720   40.1540 C   0  0  0  0  0  0  0  0  0  0  0  0
   36.9490   25.8190   39.9760 C   0  0  0  0  0  0  0  0  0  0  0  0
   37.1510   25.0760   41.1370 C   0  0  0  0  0  0  0  0  0  0  0  0
   37.4080   23.3400   41.0060 Cl  0  0  0  0  0  0  0  0  0  0  0  0
   37.1450   25.7120   42.3650 C   0  0  0  0  0  0  0  0  0  0  0  0
   36.5930   27.8010   39.2850 H   0  0  0  0  0  0  0  0  0  0  0  0
   36.9440   25.3810   38.9880 H   0  0  0  0  0  0  0  0  0  0  0  0
   37.3050   25.1030   43.2510 H   0  0  0  0  0  0  0  0  0  0  0  0
  1  2  1  0  0  0  0
  1 19  1  0  0  0  0
  2  3  1  0  0  0  0
  3  4  2  0  0  0  0
  3  8  1  0  0  0  0
  4  9  1  0  0  0  0
  5  4  1  0  0  0  0
  6  5  2  0  0  0  0
  7  6  1  0  0  0  0
  7  2  2  0  0  0  0
 10  6  1  0  0  0  0
 10 12  1  0  0  0  0
 11 10  2  0  0  0  0
 12 18  2  0  0  0  0
 12 13  1  0  0  0  0
 13 14  2  0  0  0  0
 14 15  1  0  0  0  0
 16 14  1  0  0  0  0
 16 17  1  0  0  0  0
 18 16  1  0  0  0  0
 19 21  1  0  0  0  0
 19 20  1  0  0  0  0
 22 19  1  0  0  0  0
 22 24  1  0  0  0  0
 23 22  1  0  0  0  0
 26 25  1  0  0  0  0
 27 22  1  0  0  0  0
 27 26  2  0  0  0  0
 28 27  1  0  0  0  0
 29 28  2  0  0  0  0
 29 30  1  0  0  0  0
 30 32  2  0  0  0  0
 31 30  1  0  0  0  0
 32 26  1  0  0  0  0
 32 35  1  0  0  0  0
 33 28  1  0  0  0  0
 34 29  1  0  0  0  0
M  END
>  <minimizedAffinity>
-5.65926361

$$$$

 OpenBabel03242515023D

 35 37  0  0  0  0  0  0  0  0999 V2000
   35.9810   29.8090   40.6870 S   0  0  0  0  0  0  0  0  0  0  0  0
   37.2320   30.7350   39.7960 C   0  0  0  0  0  0  0  0  0  0  0  0
   37.7150   30.1560   38.6150 C   0  0  0  0  0  0  0  0  0  0  0  0
   38.6890   30.8430   37.8930 C   0  0  0  0  0  0  0  0  0  0  0  0
   39.1190   32.0360   38.3700 N   0  0  0  0  0  0  0  0  0  0  0  0
   38.6520   32.5760   39.4950 C   0  0  0  0  0  0  0  0  0  0  0  0
   37.7130   31.9300   40.2070 N   0  0  0  0  0  0  0  0  0  0  0  0
   37.4000   29.2130   38.2040 H   0  0  0  0  0  0  0  0  0  0  0  0
   39.0930   30.4380   36.9750 H   0  0  0  0  0  0  0  0  0  0  0  0
   39.1640   33.8570   39.9390 C   0  0  0  0  0  0  0  0  0  0  0  0
   38.3520   34.7350   40.3240 O   0  0  0  0  0  0  0  0  0  0  0  0
   40.5850   34.1870   39.9630 C   0  0  0  0  0  0  0  0  0  0  0  0
   41.4730   33.5730   40.7660 N   0  0  0  0  0  0  0  0  0  0  0  0
   42.7070   34.0950   40.5620 C   0  0  0  0  0  0  0  0  0  0  0  0
   43.6190   33.7850   41.0770 H   0  0  0  0  0  0  0  0  0  0  0  0
   42.5690   35.0480   39.6150 N   0  0  0  0  0  0  0  0  0  0  0  0
   43.3320   35.6540   39.2180 H   0  0  0  0  0  0  0  0  0  0  0  0
   41.2760   35.0990   39.2570 N   0  0  0  0  0  0  0  0  0  0  0  0
   36.6950   28.6280   41.8350 C   0  0  0  0  0  0  0  0  0  0  0  0
   37.2040   27.8330   41.2720 H   0  0  0  0  0  0  0  0  0  0  0  0
   35.8600   28.1500   42.3980 H   0  0  0  0  0  0  0  0  0  0  0  0
   37.5850   29.2740   42.8440 C   0  0  0  0  0  0  0  0  0  0  0  0
   37.0770   29.5610   43.7730 H   0  0  0  0  0  0  0  0  0  0  0  0
   37.9630   30.2120   42.3820 H   0  0  0  0  0  0  0  0  0  0  0  0
   40.2620   30.5160   42.0980 Cl  0  0  0  0  0  0  0  0  0  0  0  0
   40.0760   28.9380   42.8010 C   0  0  0  0  0  0  0  0  0  0  0  0
   38.7920   28.4470   43.1120 C   0  0  0  0  0  0  0  0  0  0  0  0
   38.7350   27.1920   43.6650 C   0  0  0  0  0  0  0  0  0  0  0  0
   39.8020   26.3650   43.9450 C   0  0  0  0  0  0  0  0  0  0  0  0
   41.0610   26.8690   43.6280 C   0  0  0  0  0  0  0  0  0  0  0  0
   42.4820   25.8820   43.9510 Cl  0  0  0  0  0  0  0  0  0  0  0  0
   41.1720   28.1290   43.0700 C   0  0  0  0  0  0  0  0  0  0  0  0
   37.7300   26.8510   43.8900 H   0  0  0  0  0  0  0  0  0  0  0  0
   39.6490   25.3870   44.3810 H   0  0  0  0  0  0  0  0  0  0  0  0
   42.1690   28.4930   42.8350 H   0  0  0  0  0  0  0  0  0  0  0  0
  1 19  1  0  0  0  0
  2  7  1  0  0  0  0
  2  1  1  0  0  0  0
  3  2  2  0  0  0  0
  4  5  2  0  0  0  0
  4  3  1  0  0  0  0
  5  6  1  0  0  0  0
  6 10  1  0  0  0  0
  6  7  2  0  0  0  0
  8  3  1  0  0  0  0
  9  4  1  0  0  0  0
 10 12  1  0  0  0  0
 10 11  2  0  0  0  0
 12 13  1  0  0  0  0
 14 13  2  0  0  0  0
 14 15  1  0  0  0  0
 16 14  1  0  0  0  0
 17 16  1  0  0  0  0
 18 16  1  0  0  0  0
 18 12  2  0  0  0  0
 19 21  1  0  0  0  0
 19 22  1  0  0  0  0
 20 19  1  0  0  0  0
 22 27  1  0  0  0  0
 22 23  1  0  0  0  0
 24 22  1  0  0  0  0
 25 26  1  0  0  0  0
 26 32  2  0  0  0  0
 26 27  1  0  0  0  0
 27 28  2  0  0  0  0
 28 33  1  0  0  0  0
 28 29  1  0  0  0  0
 29 34  1  0  0  0  0
 30 29  2  0  0  0  0
 30 31  1  0  0  0  0
 32 30  1  0  0  0  0
 35 32  1  0  0  0  0
M  END
>  <minimizedAffinity>
-5.61571598

$$$$
