
 OpenBabel03242520193D

 33 35  0  0  0  0  0  0  0  0999 V2000
   40.9270   35.7820   39.3770 C   0  0  0  0  0  0  0  0  0  0  0  0
   40.6480   35.2970   38.4080 H   0  0  0  0  0  0  0  0  0  0  0  0
   41.0220   36.8670   39.2500 H   0  0  0  0  0  0  0  0  0  0  0  0
   43.9030   34.7270   41.4600 C   0  0  0  0  0  0  0  0  0  0  0  0
   42.7220   35.3970   41.0650 C   0  0  0  0  0  0  0  0  0  0  0  0
   42.1710   35.1090   39.8280 C   0  0  0  0  0  0  0  0  0  0  0  0
   42.8180   34.1790   39.0560 N   0  0  0  0  0  0  0  0  0  0  0  0
   43.9510   33.5610   39.4810 C   0  0  0  0  0  0  0  0  0  0  0  0
   44.4860   33.8310   40.6670 N   0  0  0  0  0  0  0  0  0  0  0  0
   42.2790   36.1210   41.7430 H   0  0  0  0  0  0  0  0  0  0  0  0
   44.4450   32.8290   38.8550 H   0  0  0  0  0  0  0  0  0  0  0  0
   44.4880   35.0520   42.7880 C   0  0  0  0  0  0  0  0  0  0  0  0
   46.0260   35.3220   42.7020 C   0  0  0  0  0  0  0  0  0  0  0  0
   45.0370   36.3100   43.1390 C   0  0  0  0  0  0  0  0  0  0  0  0
   44.1920   34.3110   43.5530 H   0  0  0  0  0  0  0  0  0  0  0  0
   46.4780   35.3560   41.6980 H   0  0  0  0  0  0  0  0  0  0  0  0
   46.6110   34.7010   43.4040 H   0  0  0  0  0  0  0  0  0  0  0  0
   44.8910   37.1630   42.4140 H   0  0  0  0  0  0  0  0  0  0  0  0
   45.0330   36.6850   44.1760 H   0  0  0  0  0  0  0  0  0  0  0  0
   39.7920   35.4970   40.3390 C   0  0  0  0  0  0  0  0  0  0  0  0
   40.1890   35.5110   41.3540 H   0  0  0  0  0  0  0  0  0  0  0  0
   39.0240   36.3200   40.2870 H   0  0  0  0  0  0  0  0  0  0  0  0
   39.2170   33.2060   40.9410 C   0  0  0  0  0  0  0  0  0  0  0  0
   39.8460   33.2260   42.0350 O   0  0  0  0  0  0  0  0  0  0  0  0
   39.0890   34.2780   40.0160 N   0  0  0  0  0  0  0  0  0  0  0  0
   38.5270   34.1920   39.1630 H   0  0  0  0  0  0  0  0  0  0  0  0
   38.5430   31.9410   40.5750 C   0  0  0  0  0  0  0  0  0  0  0  0
   37.8400   31.1010   41.3590 N   0  0  0  0  0  0  0  0  0  0  0  0
   37.3840   30.0600   40.6580 C   0  0  0  0  0  0  0  0  0  0  0  0
   36.7920   29.2210   40.9990 H   0  0  0  0  0  0  0  0  0  0  0  0
   37.8070   30.2420   39.4030 N   0  0  0  0  0  0  0  0  0  0  0  0
   37.6810   29.6810   38.5410 H   0  0  0  0  0  0  0  0  0  0  0  0
   38.4940   31.3570   39.3530 N   0  0  0  0  0  0  0  0  0  0  0  0
  1  6  1  0  0  0  0
  1 20  1  0  0  0  0
  2  1  1  0  0  0  0
  3  1  1  0  0  0  0
  4 12  1  0  0  0  0
  5  4  1  0  0  0  0
  5 10  1  0  0  0  0
  6  5  2  0  0  0  0
  7  8  2  0  0  0  0
  7  6  1  0  0  0  0
  8  9  1  0  0  0  0
  9  4  2  0  0  0  0
 11  8  1  0  0  0  0
 12 14  1  0  0  0  0
 12 15  1  0  0  0  0
 13 12  1  0  0  0  0
 13 14  1  0  0  0  0
 13 17  1  0  0  0  0
 14 19  1  0  0  0  0
 16 13  1  0  0  0  0
 18 14  1  0  0  0  0
 20 21  1  0  0  0  0
 22 20  1  0  0  0  0
 23 24  2  0  0  0  0
 25 20  1  0  0  0  0
 25 23  1  0  0  0  0
 26 25  1  0  0  0  0
 27 23  1  0  0  0  0
 27 28  1  0  0  0  0
 29 30  1  0  0  0  0
 29 28  2  0  0  0  0
 31 29  1  0  0  0  0
 32 31  1  0  0  0  0
 33 31  1  0  0  0  0
 33 27  2  0  0  0  0
M  END
>  <minimizedAffinity>
-4.81402349

>  <minimizedRMSD>
0.530742168

$$$$
