
 OpenBabel03242520193D

 33 35  0  0  0  0  0  0  0  0999 V2000
   40.8860   35.7820   39.4230 C   0  0  0  0  0  0  0  0  0  0  0  0
   40.6150   35.3200   38.4410 H   0  0  0  0  0  0  0  0  0  0  0  0
   40.9660   36.8710   39.3270 H   0  0  0  0  0  0  0  0  0  0  0  0
   43.8880   34.7320   41.4720 C   0  0  0  0  0  0  0  0  0  0  0  0
   42.6990   35.3970   41.0930 C   0  0  0  0  0  0  0  0  0  0  0  0
   42.1390   35.1150   39.8590 C   0  0  0  0  0  0  0  0  0  0  0  0
   42.7860   34.1950   39.0730 N   0  0  0  0  0  0  0  0  0  0  0  0
   43.9270   33.5830   39.4820 C   0  0  0  0  0  0  0  0  0  0  0  0
   44.4710   33.8470   40.6660 N   0  0  0  0  0  0  0  0  0  0  0  0
   42.2560   36.1120   41.7800 H   0  0  0  0  0  0  0  0  0  0  0  0
   44.4210   32.8600   38.8460 H   0  0  0  0  0  0  0  0  0  0  0  0
   44.4830   35.0510   42.7970 C   0  0  0  0  0  0  0  0  0  0  0  0
   46.0200   35.3200   42.7010 C   0  0  0  0  0  0  0  0  0  0  0  0
   45.0350   36.3070   43.1500 C   0  0  0  0  0  0  0  0  0  0  0  0
   44.1920   34.3060   43.5610 H   0  0  0  0  0  0  0  0  0  0  0  0
   46.4660   35.3580   41.6950 H   0  0  0  0  0  0  0  0  0  0  0  0
   46.6100   34.6960   43.3960 H   0  0  0  0  0  0  0  0  0  0  0  0
   44.8850   37.1630   42.4300 H   0  0  0  0  0  0  0  0  0  0  0  0
   45.0390   36.6770   44.1890 H   0  0  0  0  0  0  0  0  0  0  0  0
   39.7530   35.4540   40.3750 C   0  0  0  0  0  0  0  0  0  0  0  0
   40.1490   35.4450   41.3910 H   0  0  0  0  0  0  0  0  0  0  0  0
   38.9750   36.2670   40.3450 H   0  0  0  0  0  0  0  0  0  0  0  0
   39.2050   33.1410   40.9150 C   0  0  0  0  0  0  0  0  0  0  0  0
   39.8260   33.1410   42.0130 O   0  0  0  0  0  0  0  0  0  0  0  0
   39.0690   34.2350   40.0160 N   0  0  0  0  0  0  0  0  0  0  0  0
   38.5130   34.1630   39.1580 H   0  0  0  0  0  0  0  0  0  0  0  0
   38.5490   31.8780   40.5130 C   0  0  0  0  0  0  0  0  0  0  0  0
   38.5870   31.2460   39.3250 N   0  0  0  0  0  0  0  0  0  0  0  0
   37.8620   30.1250   39.3540 C   0  0  0  0  0  0  0  0  0  0  0  0
   37.6970   29.4040   38.5640 H   0  0  0  0  0  0  0  0  0  0  0  0
   37.3530   30.0430   40.5870 N   0  0  0  0  0  0  0  0  0  0  0  0
   36.7380   29.3400   41.0370 H   0  0  0  0  0  0  0  0  0  0  0  0
   37.7590   31.0810   41.2760 N   0  0  0  0  0  0  0  0  0  0  0  0
  1  6  1  0  0  0  0
  1 20  1  0  0  0  0
  2  1  1  0  0  0  0
  3  1  1  0  0  0  0
  4 12  1  0  0  0  0
  5  4  1  0  0  0  0
  5 10  1  0  0  0  0
  6  5  2  0  0  0  0
  7  8  2  0  0  0  0
  7  6  1  0  0  0  0
  8  9  1  0  0  0  0
  9  4  2  0  0  0  0
 11  8  1  0  0  0  0
 12 14  1  0  0  0  0
 12 15  1  0  0  0  0
 13 12  1  0  0  0  0
 13 14  1  0  0  0  0
 13 17  1  0  0  0  0
 14 19  1  0  0  0  0
 16 13  1  0  0  0  0
 18 14  1  0  0  0  0
 20 21  1  0  0  0  0
 22 20  1  0  0  0  0
 23 24  2  0  0  0  0
 25 20  1  0  0  0  0
 25 23  1  0  0  0  0
 26 25  1  0  0  0  0
 27 23  1  0  0  0  0
 27 33  2  0  0  0  0
 28 29  2  0  0  0  0
 28 27  1  0  0  0  0
 29 31  1  0  0  0  0
 30 29  1  0  0  0  0
 31 32  1  0  0  0  0
 31 33  1  0  0  0  0
M  END
>  <minimizedAffinity>
-4.79593372

>  <minimizedRMSD>
0.647761285

$$$$
