
 OpenBabel03242510503D

 20 21  0  0  0  0  0  0  0  0999 V2000
   44.6570   36.4460   43.9010 C   0  0  0  0  0  0  0  0  0  0  0  0
   45.4650   35.9900   42.8380 C   0  0  0  0  0  0  0  0  0  0  0  0
   46.1760   34.8040   42.9790 C   0  0  0  0  0  0  0  0  0  0  0  0
   46.0530   34.1320   44.1520 N   0  0  0  0  0  0  0  0  0  0  0  0
   45.2760   34.5840   45.1550 C   0  0  0  0  0  0  0  0  0  0  0  0
   44.5750   35.7450   45.0290 N   0  0  0  0  0  0  0  0  0  0  0  0
   46.1760   32.8270   46.5490 C   0  0  0  0  0  0  0  0  0  0  0  0
   47.1000   32.5440   45.7520 O   0  0  0  0  0  0  0  0  0  0  0  0
   45.1800   33.8410   46.3690 N   0  0  0  0  0  0  0  0  0  0  0  0
   44.1540   37.3740   43.6800 H   0  0  0  0  0  0  0  0  0  0  0  0
   45.5550   36.5350   41.9070 H   0  0  0  0  0  0  0  0  0  0  0  0
   46.8020   34.4340   42.1780 H   0  0  0  0  0  0  0  0  0  0  0  0
   44.4570   34.0070   47.0760 H   0  0  0  0  0  0  0  0  0  0  0  0
   46.1250   32.0330   47.7820 C   0  0  0  0  0  0  0  0  0  0  0  0
   44.9810   31.6620   48.3960 N   0  0  0  0  0  0  0  0  0  0  0  0
   45.2780   30.9380   49.5110 C   0  0  0  0  0  0  0  0  0  0  0  0
   44.6420   30.4790   50.2440 H   0  0  0  0  0  0  0  0  0  0  0  0
   46.6350   30.8720   49.5680 N   0  0  0  0  0  0  0  0  0  0  0  0
   47.2790   30.4100   50.2650 H   0  0  0  0  0  0  0  0  0  0  0  0
   47.1310   31.5320   48.5260 N   0  0  0  0  0  0  0  0  0  0  0  0
  1  6  1  0  0  0  0
  2  3  1  0  0  0  0
  2  1  2  0  0  0  0
  3  4  2  0  0  0  0
  4  5  1  0  0  0  0
  5  9  1  0  0  0  0
  6  5  2  0  0  0  0
  7 14  1  0  0  0  0
  8  7  2  0  0  0  0
  9  7  1  0  0  0  0
  9 13  1  0  0  0  0
 10  1  1  0  0  0  0
 11  2  1  0  0  0  0
 12  3  1  0  0  0  0
 14 15  1  0  0  0  0
 14 20  2  0  0  0  0
 15 16  2  0  0  0  0
 16 18  1  0  0  0  0
 16 17  1  0  0  0  0
 18 19  1  0  0  0  0
 20 18  1  0  0  0  0
M  END
>  <minimizedAffinity>
-5.44750452

>  <minimizedRMSD>
0.759394646

$$$$
