
 OpenBabel03242520193D

 33 35  0  0  0  0  0  0  0  0999 V2000
   40.8820   35.7910   39.4040 C   0  0  0  0  0  0  0  0  0  0  0  0
   40.5840   35.3630   38.4150 H   0  0  0  0  0  0  0  0  0  0  0  0
   40.9770   36.8810   39.3390 H   0  0  0  0  0  0  0  0  0  0  0  0
   43.9060   34.6320   41.3580 C   0  0  0  0  0  0  0  0  0  0  0  0
   42.7210   35.3250   41.0250 C   0  0  0  0  0  0  0  0  0  0  0  0
   42.1330   35.0920   39.7930 C   0  0  0  0  0  0  0  0  0  0  0  0
   42.7510   34.1900   38.9650 N   0  0  0  0  0  0  0  0  0  0  0  0
   43.8900   33.5480   39.3320 C   0  0  0  0  0  0  0  0  0  0  0  0
   44.4600   33.7650   40.5130 N   0  0  0  0  0  0  0  0  0  0  0  0
   42.3020   36.0240   41.7430 H   0  0  0  0  0  0  0  0  0  0  0  0
   44.3610   32.8390   38.6630 H   0  0  0  0  0  0  0  0  0  0  0  0
   44.5310   34.8980   42.6810 C   0  0  0  0  0  0  0  0  0  0  0  0
   46.0450   35.2680   42.5520 C   0  0  0  0  0  0  0  0  0  0  0  0
   45.0200   36.1600   43.1010 C   0  0  0  0  0  0  0  0  0  0  0  0
   44.3140   34.0870   43.4010 H   0  0  0  0  0  0  0  0  0  0  0  0
   46.4490   35.4010   41.5360 H   0  0  0  0  0  0  0  0  0  0  0  0
   46.6970   34.6370   43.1820 H   0  0  0  0  0  0  0  0  0  0  0  0
   44.7920   37.0510   42.4470 H   0  0  0  0  0  0  0  0  0  0  0  0
   45.0410   36.4600   44.1620 H   0  0  0  0  0  0  0  0  0  0  0  0
   39.7640   35.4510   40.3700 C   0  0  0  0  0  0  0  0  0  0  0  0
   40.1750   35.4360   41.3800 H   0  0  0  0  0  0  0  0  0  0  0  0
   38.9830   36.2620   40.3570 H   0  0  0  0  0  0  0  0  0  0  0  0
   39.2070   33.1420   40.9130 C   0  0  0  0  0  0  0  0  0  0  0  0
   39.8230   33.1430   42.0140 O   0  0  0  0  0  0  0  0  0  0  0  0
   39.0780   34.2340   40.0110 N   0  0  0  0  0  0  0  0  0  0  0  0
   38.5270   34.1600   39.1500 H   0  0  0  0  0  0  0  0  0  0  0  0
   38.5510   31.8790   40.5110 C   0  0  0  0  0  0  0  0  0  0  0  0
   38.5900   31.2470   39.3240 N   0  0  0  0  0  0  0  0  0  0  0  0
   37.8630   30.1260   39.3540 C   0  0  0  0  0  0  0  0  0  0  0  0
   37.6970   29.4050   38.5630 H   0  0  0  0  0  0  0  0  0  0  0  0
   37.3530   30.0460   40.5860 N   0  0  0  0  0  0  0  0  0  0  0  0
   36.7360   29.3440   41.0360 H   0  0  0  0  0  0  0  0  0  0  0  0
   37.7590   31.0840   41.2740 N   0  0  0  0  0  0  0  0  0  0  0  0
  1  6  1  0  0  0  0
  1 20  1  0  0  0  0
  2  1  1  0  0  0  0
  3  1  1  0  0  0  0
  4 12  1  0  0  0  0
  5  4  1  0  0  0  0
  5 10  1  0  0  0  0
  6  5  2  0  0  0  0
  7  8  2  0  0  0  0
  7  6  1  0  0  0  0
  8  9  1  0  0  0  0
  9  4  2  0  0  0  0
 11  8  1  0  0  0  0
 12 14  1  0  0  0  0
 12 15  1  0  0  0  0
 13 12  1  0  0  0  0
 13 14  1  0  0  0  0
 13 17  1  0  0  0  0
 14 19  1  0  0  0  0
 16 13  1  0  0  0  0
 18 14  1  0  0  0  0
 20 21  1  0  0  0  0
 22 20  1  0  0  0  0
 23 24  2  0  0  0  0
 25 20  1  0  0  0  0
 25 23  1  0  0  0  0
 26 25  1  0  0  0  0
 27 23  1  0  0  0  0
 27 33  2  0  0  0  0
 28 29  2  0  0  0  0
 28 27  1  0  0  0  0
 29 31  1  0  0  0  0
 30 29  1  0  0  0  0
 31 32  1  0  0  0  0
 31 33  1  0  0  0  0
M  END
>  <minimizedAffinity>
-4.75581503

>  <minimizedRMSD>
0.578397036

$$$$
