
 OpenBabel03242520193D

 33 35  0  0  0  0  0  0  0  0999 V2000
   41.4590   35.5270   38.7800 C   0  0  0  0  0  0  0  0  0  0  0  0
   41.1930   34.9130   37.8840 H   0  0  0  0  0  0  0  0  0  0  0  0
   41.6420   36.5690   38.4910 H   0  0  0  0  0  0  0  0  0  0  0  0
   44.1510   34.5280   41.2420 C   0  0  0  0  0  0  0  0  0  0  0  0
   43.0420   35.2010   40.6800 C   0  0  0  0  0  0  0  0  0  0  0  0
   42.6240   34.8540   39.4060 C   0  0  0  0  0  0  0  0  0  0  0  0
   43.3270   33.8660   38.7650 N   0  0  0  0  0  0  0  0  0  0  0  0
   44.3870   33.2490   39.3480 C   0  0  0  0  0  0  0  0  0  0  0  0
   44.7930   33.5750   40.5710 N   0  0  0  0  0  0  0  0  0  0  0  0
   42.5470   35.9730   41.2610 H   0  0  0  0  0  0  0  0  0  0  0  0
   44.9270   32.4710   38.8240 H   0  0  0  0  0  0  0  0  0  0  0  0
   44.5940   34.9160   42.6070 C   0  0  0  0  0  0  0  0  0  0  0  0
   46.1070   35.3070   42.6460 C   0  0  0  0  0  0  0  0  0  0  0  0
   45.0110   36.2190   42.9780 C   0  0  0  0  0  0  0  0  0  0  0  0
   44.2920   34.1650   43.3600 H   0  0  0  0  0  0  0  0  0  0  0  0
   46.6400   35.3630   41.6840 H   0  0  0  0  0  0  0  0  0  0  0  0
   46.6770   34.7440   43.4070 H   0  0  0  0  0  0  0  0  0  0  0  0
   44.8610   37.0480   42.2260 H   0  0  0  0  0  0  0  0  0  0  0  0
   44.8890   36.6070   44.0030 H   0  0  0  0  0  0  0  0  0  0  0  0
   40.2590   35.4750   39.7040 C   0  0  0  0  0  0  0  0  0  0  0  0
   40.5330   35.9420   40.6500 H   0  0  0  0  0  0  0  0  0  0  0  0
   39.4170   36.0910   39.2780 H   0  0  0  0  0  0  0  0  0  0  0  0
   39.6750   33.6250   41.1780 C   0  0  0  0  0  0  0  0  0  0  0  0
   39.9890   34.2340   42.2380 O   0  0  0  0  0  0  0  0  0  0  0  0
   39.7370   34.1380   39.8530 N   0  0  0  0  0  0  0  0  0  0  0  0
   39.4260   33.5890   39.0460 H   0  0  0  0  0  0  0  0  0  0  0  0
   39.1940   32.2330   41.3190 C   0  0  0  0  0  0  0  0  0  0  0  0
   39.8210   31.1730   41.8610 N   0  0  0  0  0  0  0  0  0  0  0  0
   39.0550   30.0810   41.8030 C   0  0  0  0  0  0  0  0  0  0  0  0
   39.2740   29.0800   42.1510 H   0  0  0  0  0  0  0  0  0  0  0  0
   37.9160   30.4560   41.2130 N   0  0  0  0  0  0  0  0  0  0  0  0
   37.0550   29.9310   40.9700 H   0  0  0  0  0  0  0  0  0  0  0  0
   37.9960   31.7320   40.9240 N   0  0  0  0  0  0  0  0  0  0  0  0
  1  6  1  0  0  0  0
  1 20  1  0  0  0  0
  2  1  1  0  0  0  0
  3  1  1  0  0  0  0
  4 12  1  0  0  0  0
  5  4  1  0  0  0  0
  5 10  1  0  0  0  0
  6  5  2  0  0  0  0
  7  8  2  0  0  0  0
  7  6  1  0  0  0  0
  8  9  1  0  0  0  0
  9  4  2  0  0  0  0
 11  8  1  0  0  0  0
 12 13  1  0  0  0  0
 12 14  1  0  0  0  0
 12 15  1  0  0  0  0
 13 14  1  0  0  0  0
 13 17  1  0  0  0  0
 14 19  1  0  0  0  0
 16 13  1  0  0  0  0
 18 14  1  0  0  0  0
 20 25  1  0  0  0  0
 20 21  1  0  0  0  0
 22 20  1  0  0  0  0
 23 27  1  0  0  0  0
 23 24  2  0  0  0  0
 25 23  1  0  0  0  0
 26 25  1  0  0  0  0
 27 28  1  0  0  0  0
 29 28  2  0  0  0  0
 29 30  1  0  0  0  0
 31 29  1  0  0  0  0
 32 31  1  0  0  0  0
 33 31  1  0  0  0  0
 33 27  2  0  0  0  0
M  END
>  <minimizedAffinity>
-4.69011116

>  <minimizedRMSD>
1.14283907

$$$$
