
 OpenBabel03242520203D

 33 35  0  0  0  0  0  0  0  0999 V2000
   35.6960   28.9120   40.6890 C   0  0  0  0  0  0  0  0  0  0  0  0
   34.7250   28.8190   41.2370 H   0  0  0  0  0  0  0  0  0  0  0  0
   35.6330   28.4210   39.7100 H   0  0  0  0  0  0  0  0  0  0  0  0
   38.0010   26.4950   42.4630 C   0  0  0  0  0  0  0  0  0  0  0  0
   37.0000   26.9890   41.5960 C   0  0  0  0  0  0  0  0  0  0  0  0
   36.7320   28.3480   41.5890 C   0  0  0  0  0  0  0  0  0  0  0  0
   37.4670   29.1350   42.4380 N   0  0  0  0  0  0  0  0  0  0  0  0
   38.4190   28.6110   43.2530 C   0  0  0  0  0  0  0  0  0  0  0  0
   38.6830   27.3080   43.2650 N   0  0  0  0  0  0  0  0  0  0  0  0
   36.4660   26.2900   40.9590 H   0  0  0  0  0  0  0  0  0  0  0  0
   38.9880   29.2510   43.9150 H   0  0  0  0  0  0  0  0  0  0  0  0
   38.2730   25.0330   42.4660 C   0  0  0  0  0  0  0  0  0  0  0  0
   39.2910   24.6220   41.3520 C   0  0  0  0  0  0  0  0  0  0  0  0
   39.5230   24.4470   42.7880 C   0  0  0  0  0  0  0  0  0  0  0  0
   37.3350   24.4460   42.4730 H   0  0  0  0  0  0  0  0  0  0  0  0
   39.7680   25.4330   40.7790 H   0  0  0  0  0  0  0  0  0  0  0  0
   38.9100   23.8160   40.6990 H   0  0  0  0  0  0  0  0  0  0  0  0
   40.3230   25.1240   43.2080 H   0  0  0  0  0  0  0  0  0  0  0  0
   39.6050   23.4400   43.2290 H   0  0  0  0  0  0  0  0  0  0  0  0
   35.9270   30.3960   40.4810 C   0  0  0  0  0  0  0  0  0  0  0  0
   34.9670   30.8670   40.2670 H   0  0  0  0  0  0  0  0  0  0  0  0
   36.3060   30.8650   41.4320 H   0  0  0  0  0  0  0  0  0  0  0  0
   37.9160   31.6320   39.8090 C   0  0  0  0  0  0  0  0  0  0  0  0
   38.0270   32.2520   40.9030 O   0  0  0  0  0  0  0  0  0  0  0  0
   36.9310   30.6610   39.4790 N   0  0  0  0  0  0  0  0  0  0  0  0
   36.9340   30.1740   38.5780 H   0  0  0  0  0  0  0  0  0  0  0  0
   38.9090   31.9420   38.7570 C   0  0  0  0  0  0  0  0  0  0  0  0
   40.1670   32.4050   38.8920 N   0  0  0  0  0  0  0  0  0  0  0  0
   40.7500   32.5600   37.7010 C   0  0  0  0  0  0  0  0  0  0  0  0
   41.7490   32.9110   37.4770 H   0  0  0  0  0  0  0  0  0  0  0  0
   39.8450   32.1880   36.7910 N   0  0  0  0  0  0  0  0  0  0  0  0
   39.8780   32.1500   35.7560 H   0  0  0  0  0  0  0  0  0  0  0  0
   38.7530   31.8210   37.4150 N   0  0  0  0  0  0  0  0  0  0  0  0
  1  2  1  0  0  0  0
  1  6  1  0  0  0  0
  3  1  1  0  0  0  0
  4 12  1  0  0  0  0
  4  9  1  0  0  0  0
  5  4  2  0  0  0  0
  6  5  1  0  0  0  0
  6  7  2  0  0  0  0
  7  8  1  0  0  0  0
  8  9  2  0  0  0  0
  8 11  1  0  0  0  0
 10  5  1  0  0  0  0
 12 15  1  0  0  0  0
 12 14  1  0  0  0  0
 13 12  1  0  0  0  0
 13 14  1  0  0  0  0
 14 18  1  0  0  0  0
 14 19  1  0  0  0  0
 16 13  1  0  0  0  0
 17 13  1  0  0  0  0
 20  1  1  0  0  0  0
 20 22  1  0  0  0  0
 21 20  1  0  0  0  0
 23 24  2  0  0  0  0
 25 23  1  0  0  0  0
 25 20  1  0  0  0  0
 26 25  1  0  0  0  0
 27 28  1  0  0  0  0
 27 23  1  0  0  0  0
 29 28  2  0  0  0  0
 30 29  1  0  0  0  0
 31 33  1  0  0  0  0
 31 29  1  0  0  0  0
 32 31  1  0  0  0  0
 33 27  2  0  0  0  0
M  END
>  <minimizedAffinity>
-5.05118656

$$$$

 OpenBabel03242520203D

 33 35  0  0  0  0  0  0  0  0999 V2000
   36.6290   27.3190   43.2910 C   0  0  0  0  0  0  0  0  0  0  0  0
   36.2360   26.9700   44.2780 H   0  0  0  0  0  0  0  0  0  0  0  0
   35.8040   27.5280   42.6000 H   0  0  0  0  0  0  0  0  0  0  0  0
   38.0280   24.2250   41.6240 C   0  0  0  0  0  0  0  0  0  0  0  0
   37.1050   25.2060   42.0540 C   0  0  0  0  0  0  0  0  0  0  0  0
   37.5610   26.2610   42.8250 C   0  0  0  0  0  0  0  0  0  0  0  0
   38.8990   26.2840   43.1260 N   0  0  0  0  0  0  0  0  0  0  0  0
   39.7460   25.3170   42.6890 C   0  0  0  0  0  0  0  0  0  0  0  0
   39.3170   24.3010   41.9470 N   0  0  0  0  0  0  0  0  0  0  0  0
   36.0620   25.1050   41.7680 H   0  0  0  0  0  0  0  0  0  0  0  0
   40.7990   25.3550   42.9380 H   0  0  0  0  0  0  0  0  0  0  0  0
   37.5230   23.0930   40.8020 C   0  0  0  0  0  0  0  0  0  0  0  0
   37.8030   23.3020   39.2780 C   0  0  0  0  0  0  0  0  0  0  0  0
   38.3460   22.1990   40.0730 C   0  0  0  0  0  0  0  0  0  0  0  0
   36.4740   22.8490   41.0500 H   0  0  0  0  0  0  0  0  0  0  0  0
   38.4160   24.1710   38.9910 H   0  0  0  0  0  0  0  0  0  0  0  0
   36.8930   23.2100   38.6580 H   0  0  0  0  0  0  0  0  0  0  0  0
   39.4610   22.2610   40.2410 H   0  0  0  0  0  0  0  0  0  0  0  0
   38.0480   21.1560   39.8710 H   0  0  0  0  0  0  0  0  0  0  0  0
   37.3820   28.6050   43.5630 C   0  0  0  0  0  0  0  0  0  0  0  0
   37.1740   28.9160   44.5870 H   0  0  0  0  0  0  0  0  0  0  0  0
   38.4920   28.4230   43.5050 H   0  0  0  0  0  0  0  0  0  0  0  0
   38.1050   29.8740   41.6120 C   0  0  0  0  0  0  0  0  0  0  0  0
   39.2020   29.2630   41.4900 O   0  0  0  0  0  0  0  0  0  0  0  0
   37.0970   29.6270   42.5840 N   0  0  0  0  0  0  0  0  0  0  0  0
   36.2140   30.1460   42.5900 H   0  0  0  0  0  0  0  0  0  0  0  0
   37.8320   30.9620   40.6470 C   0  0  0  0  0  0  0  0  0  0  0  0
   38.5140   31.2970   39.5350 N   0  0  0  0  0  0  0  0  0  0  0  0
   37.9520   32.3430   38.9250 C   0  0  0  0  0  0  0  0  0  0  0  0
   38.2620   32.8440   38.0170 H   0  0  0  0  0  0  0  0  0  0  0  0
   36.8910   32.6790   39.6640 N   0  0  0  0  0  0  0  0  0  0  0  0
   36.1800   33.4260   39.5560 H   0  0  0  0  0  0  0  0  0  0  0  0
   36.8170   31.8620   40.6850 N   0  0  0  0  0  0  0  0  0  0  0  0
  1 20  1  0  0  0  0
  1  2  1  0  0  0  0
  3  1  1  0  0  0  0
  4  9  2  0  0  0  0
  4  5  1  0  0  0  0
  5  6  2  0  0  0  0
  6  7  1  0  0  0  0
  6  1  1  0  0  0  0
  8 11  1  0  0  0  0
  8  7  2  0  0  0  0
  9  8  1  0  0  0  0
 10  5  1  0  0  0  0
 12 15  1  0  0  0  0
 12  4  1  0  0  0  0
 13 14  1  0  0  0  0
 13 12  1  0  0  0  0
 14 18  1  0  0  0  0
 14 12  1  0  0  0  0
 16 13  1  0  0  0  0
 17 13  1  0  0  0  0
 19 14  1  0  0  0  0
 20 21  1  0  0  0  0
 22 20  1  0  0  0  0
 23 25  1  0  0  0  0
 24 23  2  0  0  0  0
 25 26  1  0  0  0  0
 25 20  1  0  0  0  0
 27 33  2  0  0  0  0
 27 23  1  0  0  0  0
 28 27  1  0  0  0  0
 29 28  2  0  0  0  0
 29 31  1  0  0  0  0
 30 29  1  0  0  0  0
 31 33  1  0  0  0  0
 32 31  1  0  0  0  0
M  END
>  <minimizedAffinity>
-4.89409065

$$$$

 OpenBabel03242520203D

 33 35  0  0  0  0  0  0  0  0999 V2000
   37.6500   30.1530   37.6620 C   0  0  0  0  0  0  0  0  0  0  0  0
   36.7400   29.7800   37.1290 H   0  0  0  0  0  0  0  0  0  0  0  0
   38.5410   29.6090   37.3300 H   0  0  0  0  0  0  0  0  0  0  0  0
   37.6460   28.9310   41.2410 C   0  0  0  0  0  0  0  0  0  0  0  0
   37.9430   29.0150   39.8620 C   0  0  0  0  0  0  0  0  0  0  0  0
   37.3590   30.0210   39.1110 C   0  0  0  0  0  0  0  0  0  0  0  0
   36.5170   30.8830   39.7670 N   0  0  0  0  0  0  0  0  0  0  0  0
   36.2630   30.7600   41.0960 C   0  0  0  0  0  0  0  0  0  0  0  0
   36.8210   29.7970   41.8230 N   0  0  0  0  0  0  0  0  0  0  0  0
   38.6210   28.2870   39.4260 H   0  0  0  0  0  0  0  0  0  0  0  0
   35.5950   31.4520   41.5940 H   0  0  0  0  0  0  0  0  0  0  0  0
   38.2740   27.8400   42.0330 C   0  0  0  0  0  0  0  0  0  0  0  0
   39.4200   28.3690   42.9560 C   0  0  0  0  0  0  0  0  0  0  0  0
   38.1990   27.7240   43.4430 C   0  0  0  0  0  0  0  0  0  0  0  0
   38.5550   26.9840   41.3920 H   0  0  0  0  0  0  0  0  0  0  0  0
   39.5640   29.4600   43.0090 H   0  0  0  0  0  0  0  0  0  0  0  0
   40.3720   27.8280   42.8110 H   0  0  0  0  0  0  0  0  0  0  0  0
   37.4980   28.4230   43.9870 H   0  0  0  0  0  0  0  0  0  0  0  0
   38.2400   26.7490   43.9570 H   0  0  0  0  0  0  0  0  0  0  0  0
   37.7960   31.6140   37.2820 C   0  0  0  0  0  0  0  0  0  0  0  0
   37.0990   31.8290   36.4710 H   0  0  0  0  0  0  0  0  0  0  0  0
   37.4910   32.2700   38.1450 H   0  0  0  0  0  0  0  0  0  0  0  0
   39.9390   32.4820   38.0500 C   0  0  0  0  0  0  0  0  0  0  0  0
   39.5730   32.6170   39.2500 O   0  0  0  0  0  0  0  0  0  0  0  0
   39.1610   31.9690   36.9760 N   0  0  0  0  0  0  0  0  0  0  0  0
   39.5470   31.8560   36.0340 H   0  0  0  0  0  0  0  0  0  0  0  0
   41.3190   32.8990   37.7170 C   0  0  0  0  0  0  0  0  0  0  0  0
   41.9410   34.0610   37.9940 N   0  0  0  0  0  0  0  0  0  0  0  0
   43.1910   34.0580   37.5270 C   0  0  0  0  0  0  0  0  0  0  0  0
   43.9390   34.8380   37.5900 H   0  0  0  0  0  0  0  0  0  0  0  0
   43.3680   32.8700   36.9420 N   0  0  0  0  0  0  0  0  0  0  0  0
   44.1820   32.4510   36.4550 H   0  0  0  0  0  0  0  0  0  0  0  0
   42.2600   32.1810   37.0540 N   0  0  0  0  0  0  0  0  0  0  0  0
  1  6  1  0  0  0  0
  2  1  1  0  0  0  0
  3  1  1  0  0  0  0
  4  9  1  0  0  0  0
  4 12  1  0  0  0  0
  5  4  2  0  0  0  0
  6  7  2  0  0  0  0
  6  5  1  0  0  0  0
  7  8  1  0  0  0  0
  8 11  1  0  0  0  0
  8  9  2  0  0  0  0
 10  5  1  0  0  0  0
 12 13  1  0  0  0  0
 12 14  1  0  0  0  0
 13 16  1  0  0  0  0
 13 14  1  0  0  0  0
 14 19  1  0  0  0  0
 14 18  1  0  0  0  0
 15 12  1  0  0  0  0
 17 13  1  0  0  0  0
 20  1  1  0  0  0  0
 20 22  1  0  0  0  0
 21 20  1  0  0  0  0
 23 24  2  0  0  0  0
 25 20  1  0  0  0  0
 25 23  1  0  0  0  0
 26 25  1  0  0  0  0
 27 28  1  0  0  0  0
 27 23  1  0  0  0  0
 29 30  1  0  0  0  0
 29 28  2  0  0  0  0
 31 33  1  0  0  0  0
 31 29  1  0  0  0  0
 32 31  1  0  0  0  0
 33 27  2  0  0  0  0
M  END
>  <minimizedAffinity>
-4.85457706

$$$$

 OpenBabel03242520203D

 33 35  0  0  0  0  0  0  0  0999 V2000
   36.0400   28.0620   38.0970 C   0  0  0  0  0  0  0  0  0  0  0  0
   35.1990   27.3670   37.8510 H   0  0  0  0  0  0  0  0  0  0  0  0
   36.5200   28.4260   37.1810 H   0  0  0  0  0  0  0  0  0  0  0  0
   37.5750   26.4990   41.1810 C   0  0  0  0  0  0  0  0  0  0  0  0
   36.6930   27.2380   40.3590 C   0  0  0  0  0  0  0  0  0  0  0  0
   36.9440   27.3050   38.9990 C   0  0  0  0  0  0  0  0  0  0  0  0
   38.0500   26.6410   38.5340 N   0  0  0  0  0  0  0  0  0  0  0  0
   38.8670   25.9430   39.3650 C   0  0  0  0  0  0  0  0  0  0  0  0
   38.6320   25.8730   40.6710 N   0  0  0  0  0  0  0  0  0  0  0  0
   35.8420   27.7340   40.8160 H   0  0  0  0  0  0  0  0  0  0  0  0
   39.7350   25.4260   38.9750 H   0  0  0  0  0  0  0  0  0  0  0  0
   37.2970   26.4410   42.6410 C   0  0  0  0  0  0  0  0  0  0  0  0
   37.9320   27.6470   43.4080 C   0  0  0  0  0  0  0  0  0  0  0  0
   36.4950   27.3730   43.3450 C   0  0  0  0  0  0  0  0  0  0  0  0
   37.5400   25.4480   43.0610 H   0  0  0  0  0  0  0  0  0  0  0  0
   38.4010   28.4400   42.8050 H   0  0  0  0  0  0  0  0  0  0  0  0
   38.5710   27.3300   44.2520 H   0  0  0  0  0  0  0  0  0  0  0  0
   35.9130   28.1250   42.7360 H   0  0  0  0  0  0  0  0  0  0  0  0
   35.9310   27.0980   44.2520 H   0  0  0  0  0  0  0  0  0  0  0  0
   35.4230   29.2360   38.8300 C   0  0  0  0  0  0  0  0  0  0  0  0
   34.4460   29.4410   38.3900 H   0  0  0  0  0  0  0  0  0  0  0  0
   35.2360   28.9650   39.9070 H   0  0  0  0  0  0  0  0  0  0  0  0
   36.5450   30.9640   40.1300 C   0  0  0  0  0  0  0  0  0  0  0  0
   36.1230   30.5470   41.2440 O   0  0  0  0  0  0  0  0  0  0  0  0
   36.2930   30.3870   38.8560 N   0  0  0  0  0  0  0  0  0  0  0  0
   36.7060   30.7680   37.9990 H   0  0  0  0  0  0  0  0  0  0  0  0
   37.3900   32.1790   40.1440 C   0  0  0  0  0  0  0  0  0  0  0  0
   38.4610   32.4550   40.9130 N   0  0  0  0  0  0  0  0  0  0  0  0
   38.9570   33.6600   40.6290 C   0  0  0  0  0  0  0  0  0  0  0  0
   39.8080   34.1640   41.0700 H   0  0  0  0  0  0  0  0  0  0  0  0
   38.1870   34.1610   39.6580 N   0  0  0  0  0  0  0  0  0  0  0  0
   38.2150   35.0620   39.1460 H   0  0  0  0  0  0  0  0  0  0  0  0
   37.2570   33.2840   39.3690 N   0  0  0  0  0  0  0  0  0  0  0  0
  1 20  1  0  0  0  0
  1  6  1  0  0  0  0
  2  1  1  0  0  0  0
  3  1  1  0  0  0  0
  4 12  1  0  0  0  0
  5 10  1  0  0  0  0
  5  4  2  0  0  0  0
  6  5  1  0  0  0  0
  7  6  2  0  0  0  0
  7  8  1  0  0  0  0
  8  9  2  0  0  0  0
  9  4  1  0  0  0  0
 11  8  1  0  0  0  0
 12 15  1  0  0  0  0
 12 14  1  0  0  0  0
 12 13  1  0  0  0  0
 13 17  1  0  0  0  0
 14 13  1  0  0  0  0
 14 19  1  0  0  0  0
 16 13  1  0  0  0  0
 18 14  1  0  0  0  0
 20 25  1  0  0  0  0
 20 22  1  0  0  0  0
 21 20  1  0  0  0  0
 23 27  1  0  0  0  0
 23 24  2  0  0  0  0
 25 23  1  0  0  0  0
 26 25  1  0  0  0  0
 27 28  1  0  0  0  0
 29 28  2  0  0  0  0
 29 30  1  0  0  0  0
 31 29  1  0  0  0  0
 32 31  1  0  0  0  0
 33 31  1  0  0  0  0
 33 27  2  0  0  0  0
M  END
>  <minimizedAffinity>
-4.77936316

$$$$

 OpenBabel03242520203D

 33 35  0  0  0  0  0  0  0  0999 V2000
   35.4690   29.1250   37.8030 C   0  0  0  0  0  0  0  0  0  0  0  0
   36.2800   28.5400   37.3030 H   0  0  0  0  0  0  0  0  0  0  0  0
   35.2580   30.0450   37.2450 H   0  0  0  0  0  0  0  0  0  0  0  0
   36.5750   28.5390   41.3720 C   0  0  0  0  0  0  0  0  0  0  0  0
   36.1310   28.2820   40.0550 C   0  0  0  0  0  0  0  0  0  0  0  0
   35.9250   29.3490   39.1970 C   0  0  0  0  0  0  0  0  0  0  0  0
   36.1700   30.6050   39.6920 N   0  0  0  0  0  0  0  0  0  0  0  0
   36.5960   30.8010   40.9660 C   0  0  0  0  0  0  0  0  0  0  0  0
   36.7970   29.7810   41.7960 N   0  0  0  0  0  0  0  0  0  0  0  0
   35.9620   27.2530   39.7500 H   0  0  0  0  0  0  0  0  0  0  0  0
   36.7830   31.8010   41.3360 H   0  0  0  0  0  0  0  0  0  0  0  0
   36.7840   27.3840   42.2850 C   0  0  0  0  0  0  0  0  0  0  0  0
   37.9280   27.6500   43.3180 C   0  0  0  0  0  0  0  0  0  0  0  0
   36.5300   27.4040   43.6790 C   0  0  0  0  0  0  0  0  0  0  0  0
   36.8800   26.4370   41.7230 H   0  0  0  0  0  0  0  0  0  0  0  0
   38.3650   28.6610   43.3380 H   0  0  0  0  0  0  0  0  0  0  0  0
   38.7000   26.8600   43.3160 H   0  0  0  0  0  0  0  0  0  0  0  0
   36.0000   28.3080   44.0990 H   0  0  0  0  0  0  0  0  0  0  0  0
   36.2420   26.4980   44.2380 H   0  0  0  0  0  0  0  0  0  0  0  0
   34.2350   28.2460   37.7850 C   0  0  0  0  0  0  0  0  0  0  0  0
   34.1760   27.7550   36.8130 H   0  0  0  0  0  0  0  0  0  0  0  0
   34.3340   27.4250   38.5500 H   0  0  0  0  0  0  0  0  0  0  0  0
   32.1860   29.3470   37.0590 C   0  0  0  0  0  0  0  0  0  0  0  0
   32.3480   29.0750   35.8380 O   0  0  0  0  0  0  0  0  0  0  0  0
   33.0370   28.9710   38.1340 N   0  0  0  0  0  0  0  0  0  0  0  0
   32.8120   29.2020   39.1070 H   0  0  0  0  0  0  0  0  0  0  0  0
   30.9900   30.1410   37.4170 C   0  0  0  0  0  0  0  0  0  0  0  0
   30.0310   29.8640   38.3220 N   0  0  0  0  0  0  0  0  0  0  0  0
   29.1110   30.8300   38.3570 C   0  0  0  0  0  0  0  0  0  0  0  0
   28.2250   30.9000   38.9740 H   0  0  0  0  0  0  0  0  0  0  0  0
   29.4930   31.7400   37.4560 N   0  0  0  0  0  0  0  0  0  0  0  0
   29.0740   32.6420   37.1600 H   0  0  0  0  0  0  0  0  0  0  0  0
   30.6070   31.3340   36.8980 N   0  0  0  0  0  0  0  0  0  0  0  0
  1  6  1  0  0  0  0
  2  1  1  0  0  0  0
  3  1  1  0  0  0  0
  4  9  1  0  0  0  0
  4 12  1  0  0  0  0
  5  4  2  0  0  0  0
  6  7  2  0  0  0  0
  6  5  1  0  0  0  0
  7  8  1  0  0  0  0
  8 11  1  0  0  0  0
  8  9  2  0  0  0  0
 10  5  1  0  0  0  0
 12 13  1  0  0  0  0
 12 14  1  0  0  0  0
 13 16  1  0  0  0  0
 13 14  1  0  0  0  0
 14 18  1  0  0  0  0
 14 19  1  0  0  0  0
 15 12  1  0  0  0  0
 17 13  1  0  0  0  0
 20  1  1  0  0  0  0
 20 25  1  0  0  0  0
 20 22  1  0  0  0  0
 21 20  1  0  0  0  0
 23 27  1  0  0  0  0
 23 25  1  0  0  0  0
 24 23  2  0  0  0  0
 25 26  1  0  0  0  0
 27 28  1  0  0  0  0
 28 29  2  0  0  0  0
 29 30  1  0  0  0  0
 31 29  1  0  0  0  0
 32 31  1  0  0  0  0
 33 27  2  0  0  0  0
 33 31  1  0  0  0  0
M  END
>  <minimizedAffinity>
-4.7685895

$$$$

 OpenBabel03242520203D

 33 35  0  0  0  0  0  0  0  0999 V2000
   35.7530   30.0460   40.4890 C   0  0  0  0  0  0  0  0  0  0  0  0
   35.3640   30.8170   41.2010 H   0  0  0  0  0  0  0  0  0  0  0  0
   34.9240   29.5270   39.9930 H   0  0  0  0  0  0  0  0  0  0  0  0
   37.6680   27.0260   41.7210 C   0  0  0  0  0  0  0  0  0  0  0  0
   36.8100   27.8320   40.9390 C   0  0  0  0  0  0  0  0  0  0  0  0
   36.6370   29.1610   41.2870 C   0  0  0  0  0  0  0  0  0  0  0  0
   37.3220   29.6130   42.3860 N   0  0  0  0  0  0  0  0  0  0  0  0
   38.1370   28.7990   43.1050 C   0  0  0  0  0  0  0  0  0  0  0  0
   38.3080   27.5220   42.7770 N   0  0  0  0  0  0  0  0  0  0  0  0
   36.3060   27.3870   40.0850 H   0  0  0  0  0  0  0  0  0  0  0  0
   38.6680   29.1770   43.9700 H   0  0  0  0  0  0  0  0  0  0  0  0
   37.8370   25.5990   41.3400 C   0  0  0  0  0  0  0  0  0  0  0  0
   36.8540   24.6620   42.1160 C   0  0  0  0  0  0  0  0  0  0  0  0
   36.8630   24.8260   40.6600 C   0  0  0  0  0  0  0  0  0  0  0  0
   38.8990   25.2910   41.3840 H   0  0  0  0  0  0  0  0  0  0  0  0
   36.0940   25.1430   42.7520 H   0  0  0  0  0  0  0  0  0  0  0  0
   37.3690   23.8340   42.6340 H   0  0  0  0  0  0  0  0  0  0  0  0
   35.9590   25.3670   40.2550 H   0  0  0  0  0  0  0  0  0  0  0  0
   37.1340   23.9870   39.9990 H   0  0  0  0  0  0  0  0  0  0  0  0
   36.5570   30.7970   39.4460 C   0  0  0  0  0  0  0  0  0  0  0  0
   36.9030   30.0830   38.6990 H   0  0  0  0  0  0  0  0  0  0  0  0
   35.8960   31.5300   38.9030 H   0  0  0  0  0  0  0  0  0  0  0  0
   38.6870   31.9460   39.1640 C   0  0  0  0  0  0  0  0  0  0  0  0
   38.7770   31.6960   37.9300 O   0  0  0  0  0  0  0  0  0  0  0  0
   37.6210   31.5790   40.0300 N   0  0  0  0  0  0  0  0  0  0  0  0
   37.6070   31.8540   41.0160 H   0  0  0  0  0  0  0  0  0  0  0  0
   39.8030   32.6970   39.7800 C   0  0  0  0  0  0  0  0  0  0  0  0
   40.4690   33.7660   39.3030 N   0  0  0  0  0  0  0  0  0  0  0  0
   41.4150   34.1610   40.1560 C   0  0  0  0  0  0  0  0  0  0  0  0
   42.1130   34.9840   40.0610 H   0  0  0  0  0  0  0  0  0  0  0  0
   41.3500   33.3270   41.1980 N   0  0  0  0  0  0  0  0  0  0  0  0
   41.8970   33.2720   42.0780 H   0  0  0  0  0  0  0  0  0  0  0  0
   40.3940   32.4580   40.9780 N   0  0  0  0  0  0  0  0  0  0  0  0
  1  2  1  0  0  0  0
  1  6  1  0  0  0  0
  3  1  1  0  0  0  0
  4  9  1  0  0  0  0
  5  6  1  0  0  0  0
  5  4  2  0  0  0  0
  6  7  2  0  0  0  0
  7  8  1  0  0  0  0
  8 11  1  0  0  0  0
  9  8  2  0  0  0  0
 10  5  1  0  0  0  0
 12 15  1  0  0  0  0
 12  4  1  0  0  0  0
 12 13  1  0  0  0  0
 13 17  1  0  0  0  0
 13 16  1  0  0  0  0
 14 12  1  0  0  0  0
 14 13  1  0  0  0  0
 18 14  1  0  0  0  0
 19 14  1  0  0  0  0
 20 25  1  0  0  0  0
 20  1  1  0  0  0  0
 21 20  1  0  0  0  0
 22 20  1  0  0  0  0
 23 27  1  0  0  0  0
 23 25  1  0  0  0  0
 24 23  2  0  0  0  0
 25 26  1  0  0  0  0
 27 33  2  0  0  0  0
 28 27  1  0  0  0  0
 28 29  2  0  0  0  0
 29 31  1  0  0  0  0
 30 29  1  0  0  0  0
 31 32  1  0  0  0  0
 33 31  1  0  0  0  0
M  END
>  <minimizedAffinity>
-4.66710901

$$$$

 OpenBabel03242520203D

 33 35  0  0  0  0  0  0  0  0999 V2000
   36.5900   27.6010   42.9110 C   0  0  0  0  0  0  0  0  0  0  0  0
   36.0300   27.3940   43.8570 H   0  0  0  0  0  0  0  0  0  0  0  0
   35.8950   27.8290   42.0940 H   0  0  0  0  0  0  0  0  0  0  0  0
   39.5560   25.2580   42.7920 C   0  0  0  0  0  0  0  0  0  0  0  0
   38.7810   26.4150   43.0300 C   0  0  0  0  0  0  0  0  0  0  0  0
   37.4440   26.4120   42.6710 C   0  0  0  0  0  0  0  0  0  0  0  0
   36.9540   25.2660   42.0970 N   0  0  0  0  0  0  0  0  0  0  0  0
   37.7400   24.1780   41.8890 C   0  0  0  0  0  0  0  0  0  0  0  0
   39.0240   24.1740   42.2320 N   0  0  0  0  0  0  0  0  0  0  0  0
   39.2550   27.2790   43.4880 H   0  0  0  0  0  0  0  0  0  0  0  0
   37.3320   23.2840   41.4350 H   0  0  0  0  0  0  0  0  0  0  0  0
   40.9930   25.2790   43.1750 C   0  0  0  0  0  0  0  0  0  0  0  0
   41.9110   25.7310   41.9930 C   0  0  0  0  0  0  0  0  0  0  0  0
   41.7850   26.4510   43.2620 C   0  0  0  0  0  0  0  0  0  0  0  0
   41.2960   24.3320   43.6590 H   0  0  0  0  0  0  0  0  0  0  0  0
   41.4150   26.0810   41.0730 H   0  0  0  0  0  0  0  0  0  0  0  0
   42.7240   25.0140   41.7820 H   0  0  0  0  0  0  0  0  0  0  0  0
   41.2570   27.4450   43.1740 H   0  0  0  0  0  0  0  0  0  0  0  0
   42.6410   26.5320   43.9530 H   0  0  0  0  0  0  0  0  0  0  0  0
   37.4460   28.8220   43.1820 C   0  0  0  0  0  0  0  0  0  0  0  0
   37.3450   29.0850   44.2350 H   0  0  0  0  0  0  0  0  0  0  0  0
   38.5330   28.5750   43.0190 H   0  0  0  0  0  0  0  0  0  0  0  0
   38.0280   30.0880   41.1830 C   0  0  0  0  0  0  0  0  0  0  0  0
   39.0150   29.3610   40.8830 O   0  0  0  0  0  0  0  0  0  0  0  0
   37.1480   29.9130   42.2860 N   0  0  0  0  0  0  0  0  0  0  0  0
   36.3440   30.5300   42.4390 H   0  0  0  0  0  0  0  0  0  0  0  0
   37.7520   31.2430   40.3010 C   0  0  0  0  0  0  0  0  0  0  0  0
   37.6800   32.5500   40.6180 N   0  0  0  0  0  0  0  0  0  0  0  0
   37.4100   33.2900   39.5400 C   0  0  0  0  0  0  0  0  0  0  0  0
   37.2900   34.3630   39.4680 H   0  0  0  0  0  0  0  0  0  0  0  0
   37.3090   32.4360   38.5170 N   0  0  0  0  0  0  0  0  0  0  0  0
   37.1110   32.5810   37.5100 H   0  0  0  0  0  0  0  0  0  0  0  0
   37.5120   31.2220   38.9660 N   0  0  0  0  0  0  0  0  0  0  0  0
  1 20  1  0  0  0  0
  1  2  1  0  0  0  0
  3  1  1  0  0  0  0
  4  5  1  0  0  0  0
  4 12  1  0  0  0  0
  5 10  1  0  0  0  0
  6  1  1  0  0  0  0
  6  5  2  0  0  0  0
  7  6  1  0  0  0  0
  8  7  2  0  0  0  0
  8  9  1  0  0  0  0
  9  4  2  0  0  0  0
 11  8  1  0  0  0  0
 12 14  1  0  0  0  0
 12 15  1  0  0  0  0
 13 12  1  0  0  0  0
 13 14  1  0  0  0  0
 14 19  1  0  0  0  0
 16 13  1  0  0  0  0
 17 13  1  0  0  0  0
 18 14  1  0  0  0  0
 20 21  1  0  0  0  0
 22 20  1  0  0  0  0
 23 25  1  0  0  0  0
 24 23  2  0  0  0  0
 25 26  1  0  0  0  0
 25 20  1  0  0  0  0
 27 28  1  0  0  0  0
 27 23  1  0  0  0  0
 29 28  2  0  0  0  0
 30 29  1  0  0  0  0
 31 33  1  0  0  0  0
 31 29  1  0  0  0  0
 32 31  1  0  0  0  0
 33 27  2  0  0  0  0
M  END
>  <minimizedAffinity>
-4.64916801

$$$$

 OpenBabel03242520203D

 33 35  0  0  0  0  0  0  0  0999 V2000
   36.1680   30.2610   40.7210 C   0  0  0  0  0  0  0  0  0  0  0  0
   35.2530   30.4630   41.3300 H   0  0  0  0  0  0  0  0  0  0  0  0
   35.8940   29.9590   39.7030 H   0  0  0  0  0  0  0  0  0  0  0  0
   37.7840   27.0010   41.7530 C   0  0  0  0  0  0  0  0  0  0  0  0
   37.0280   27.9370   41.0130 C   0  0  0  0  0  0  0  0  0  0  0  0
   36.9440   29.2410   41.4700 C   0  0  0  0  0  0  0  0  0  0  0  0
   37.6100   29.5410   42.6310 N   0  0  0  0  0  0  0  0  0  0  0  0
   38.3250   28.6040   43.3070 C   0  0  0  0  0  0  0  0  0  0  0  0
   38.4110   27.3510   42.8730 N   0  0  0  0  0  0  0  0  0  0  0  0
   36.5320   27.6100   40.1040 H   0  0  0  0  0  0  0  0  0  0  0  0
   38.8440   28.8630   44.2210 H   0  0  0  0  0  0  0  0  0  0  0  0
   37.8600   25.6020   41.2530 C   0  0  0  0  0  0  0  0  0  0  0  0
   36.9480   24.6340   42.0760 C   0  0  0  0  0  0  0  0  0  0  0  0
   36.7850   24.9050   40.6460 C   0  0  0  0  0  0  0  0  0  0  0  0
   38.9080   25.2670   41.1440 H   0  0  0  0  0  0  0  0  0  0  0  0
   36.2860   25.0840   42.8330 H   0  0  0  0  0  0  0  0  0  0  0  0
   37.4950   23.7570   42.4660 H   0  0  0  0  0  0  0  0  0  0  0  0
   35.8570   25.4960   40.3950 H   0  0  0  0  0  0  0  0  0  0  0  0
   36.9470   24.1110   39.8980 H   0  0  0  0  0  0  0  0  0  0  0  0
   36.9340   31.5670   40.6570 C   0  0  0  0  0  0  0  0  0  0  0  0
   36.3010   32.3140   40.1770 H   0  0  0  0  0  0  0  0  0  0  0  0
   37.1390   31.9460   41.6980 H   0  0  0  0  0  0  0  0  0  0  0  0
   38.2910   31.7130   38.6380 C   0  0  0  0  0  0  0  0  0  0  0  0
   37.3490   32.1310   37.9100 O   0  0  0  0  0  0  0  0  0  0  0  0
   38.2240   31.4190   40.0280 N   0  0  0  0  0  0  0  0  0  0  0  0
   39.0490   31.1170   40.5560 H   0  0  0  0  0  0  0  0  0  0  0  0
   39.6020   31.5030   37.9860 C   0  0  0  0  0  0  0  0  0  0  0  0
   40.5550   32.4080   37.6920 N   0  0  0  0  0  0  0  0  0  0  0  0
   41.6010   31.8280   37.1020 C   0  0  0  0  0  0  0  0  0  0  0  0
   42.5180   32.2830   36.7480 H   0  0  0  0  0  0  0  0  0  0  0  0
   41.3080   30.5270   37.0180 N   0  0  0  0  0  0  0  0  0  0  0  0
   41.8350   29.7200   36.6340 H   0  0  0  0  0  0  0  0  0  0  0  0
   40.1230   30.3310   37.5420 N   0  0  0  0  0  0  0  0  0  0  0  0
  1  2  1  0  0  0  0
  1  6  1  0  0  0  0
  3  1  1  0  0  0  0
  4  9  1  0  0  0  0
  5  6  1  0  0  0  0
  5  4  2  0  0  0  0
  6  7  2  0  0  0  0
  7  8  1  0  0  0  0
  8 11  1  0  0  0  0
  9  8  2  0  0  0  0
 10  5  1  0  0  0  0
 12  4  1  0  0  0  0
 12 13  1  0  0  0  0
 13 17  1  0  0  0  0
 13 16  1  0  0  0  0
 14 12  1  0  0  0  0
 14 13  1  0  0  0  0
 15 12  1  0  0  0  0
 18 14  1  0  0  0  0
 19 14  1  0  0  0  0
 20  1  1  0  0  0  0
 20 22  1  0  0  0  0
 21 20  1  0  0  0  0
 23 25  1  0  0  0  0
 24 23  2  0  0  0  0
 25 26  1  0  0  0  0
 25 20  1  0  0  0  0
 27 23  1  0  0  0  0
 28 27  1  0  0  0  0
 29 28  2  0  0  0  0
 30 29  1  0  0  0  0
 31 29  1  0  0  0  0
 31 33  1  0  0  0  0
 32 31  1  0  0  0  0
 33 27  2  0  0  0  0
M  END
>  <minimizedAffinity>
-4.59615231

$$$$

 OpenBabel03242520203D

 33 35  0  0  0  0  0  0  0  0999 V2000
   40.8180   28.0980   43.0870 C   0  0  0  0  0  0  0  0  0  0  0  0
   41.2960   27.0870   43.0610 H   0  0  0  0  0  0  0  0  0  0  0  0
   41.1210   28.6430   43.9890 H   0  0  0  0  0  0  0  0  0  0  0  0
   37.4620   26.4210   42.6040 C   0  0  0  0  0  0  0  0  0  0  0  0
   38.8620   26.6030   42.6890 C   0  0  0  0  0  0  0  0  0  0  0  0
   39.3570   27.8630   42.9790 C   0  0  0  0  0  0  0  0  0  0  0  0
   38.4410   28.8670   43.1660 N   0  0  0  0  0  0  0  0  0  0  0  0
   37.1050   28.6420   43.0740 C   0  0  0  0  0  0  0  0  0  0  0  0
   36.6220   27.4350   42.7970 N   0  0  0  0  0  0  0  0  0  0  0  0
   39.5120   25.7490   42.5240 H   0  0  0  0  0  0  0  0  0  0  0  0
   36.4000   29.4490   43.2260 H   0  0  0  0  0  0  0  0  0  0  0  0
   36.9450   25.0640   42.2840 C   0  0  0  0  0  0  0  0  0  0  0  0
   36.8830   24.8070   40.7430 C   0  0  0  0  0  0  0  0  0  0  0  0
   37.7070   24.0350   41.6760 C   0  0  0  0  0  0  0  0  0  0  0  0
   36.0050   24.8510   42.8260 H   0  0  0  0  0  0  0  0  0  0  0  0
   37.3150   25.5770   40.0840 H   0  0  0  0  0  0  0  0  0  0  0  0
   35.8850   24.4770   40.4030 H   0  0  0  0  0  0  0  0  0  0  0  0
   38.8160   24.2090   41.5580 H   0  0  0  0  0  0  0  0  0  0  0  0
   37.5040   22.9670   41.8590 H   0  0  0  0  0  0  0  0  0  0  0  0
   41.3260   28.8420   41.8690 C   0  0  0  0  0  0  0  0  0  0  0  0
   42.4150   28.8800   41.9180 H   0  0  0  0  0  0  0  0  0  0  0  0
   41.0700   28.2710   40.9320 H   0  0  0  0  0  0  0  0  0  0  0  0
   40.4070   30.5520   40.3960 C   0  0  0  0  0  0  0  0  0  0  0  0
   40.5750   29.8810   39.3400 O   0  0  0  0  0  0  0  0  0  0  0  0
   40.7140   30.1410   41.7220 N   0  0  0  0  0  0  0  0  0  0  0  0
   40.5100   30.7340   42.5320 H   0  0  0  0  0  0  0  0  0  0  0  0
   39.8330   31.9070   40.2460 C   0  0  0  0  0  0  0  0  0  0  0  0
   39.1310   32.6310   41.1380 N   0  0  0  0  0  0  0  0  0  0  0  0
   38.7840   33.8150   40.6280 C   0  0  0  0  0  0  0  0  0  0  0  0
   38.2220   34.6140   41.0930 H   0  0  0  0  0  0  0  0  0  0  0  0
   39.2760   33.8430   39.3860 N   0  0  0  0  0  0  0  0  0  0  0  0
   39.2400   34.5650   38.6420 H   0  0  0  0  0  0  0  0  0  0  0  0
   39.8980   32.7130   39.1570 N   0  0  0  0  0  0  0  0  0  0  0  0
  1  3  1  0  0  0  0
  2  1  1  0  0  0  0
  4  5  2  0  0  0  0
  4  9  1  0  0  0  0
  5  6  1  0  0  0  0
  6  1  1  0  0  0  0
  6  7  2  0  0  0  0
  8  7  1  0  0  0  0
  8 11  1  0  0  0  0
  9  8  2  0  0  0  0
 10  5  1  0  0  0  0
 12  4  1  0  0  0  0
 12 15  1  0  0  0  0
 13 14  1  0  0  0  0
 13 12  1  0  0  0  0
 14 19  1  0  0  0  0
 14 12  1  0  0  0  0
 16 13  1  0  0  0  0
 17 13  1  0  0  0  0
 18 14  1  0  0  0  0
 20 21  1  0  0  0  0
 20  1  1  0  0  0  0
 22 20  1  0  0  0  0
 23 25  1  0  0  0  0
 24 23  2  0  0  0  0
 25 20  1  0  0  0  0
 25 26  1  0  0  0  0
 27 23  1  0  0  0  0
 27 28  1  0  0  0  0
 29 30  1  0  0  0  0
 29 28  2  0  0  0  0
 31 29  1  0  0  0  0
 32 31  1  0  0  0  0
 33 31  1  0  0  0  0
 33 27  2  0  0  0  0
M  END
>  <minimizedAffinity>
-4.51695251

$$$$
