
 OpenBabel03242513103D

 39 42  0  0  0  0  0  0  0  0999 V2000
   36.7260   28.4570   40.1220 C   0  0  0  0  0  0  0  0  0  0  0  0
   37.2080   28.7720   41.3950 C   0  0  0  0  0  0  0  0  0  0  0  0
   37.5610   27.7130   42.2150 C   0  0  0  0  0  0  0  0  0  0  0  0
   37.4100   26.4550   41.7150 N   0  0  0  0  0  0  0  0  0  0  0  0
   36.9480   26.1710   40.4950 C   0  0  0  0  0  0  0  0  0  0  0  0
   36.6000   27.1800   39.6840 N   0  0  0  0  0  0  0  0  0  0  0  0
   36.4230   29.2060   39.4050 H   0  0  0  0  0  0  0  0  0  0  0  0
   35.9060   24.4250   39.1220 C   0  0  0  0  0  0  0  0  0  0  0  0
   36.8300   24.7930   40.0680 C   0  0  0  0  0  0  0  0  0  0  0  0
   37.7060   23.8730   40.6730 C   0  0  0  0  0  0  0  0  0  0  0  0
   37.6590   22.5310   40.3210 C   0  0  0  0  0  0  0  0  0  0  0  0
   38.3150   21.3940   40.6720 N   0  0  0  0  0  0  0  0  0  0  0  0
   37.7870   20.3630   39.9410 C   0  0  0  0  0  0  0  0  0  0  0  0
   36.8110   20.8810   39.1500 N   0  0  0  0  0  0  0  0  0  0  0  0
   36.7200   22.2000   39.3680 C   0  0  0  0  0  0  0  0  0  0  0  0
   35.8470   23.0820   38.7550 C   0  0  0  0  0  0  0  0  0  0  0  0
   35.2470   25.1400   38.6700 H   0  0  0  0  0  0  0  0  0  0  0  0
   38.4360   24.1650   41.4220 H   0  0  0  0  0  0  0  0  0  0  0  0
   39.0710   21.4840   41.3980 H   0  0  0  0  0  0  0  0  0  0  0  0
   38.2530   19.4210   40.1590 H   0  0  0  0  0  0  0  0  0  0  0  0
   35.1320   22.7540   38.0130 H   0  0  0  0  0  0  0  0  0  0  0  0
   38.0790   27.9850   43.5760 C   0  0  0  0  0  0  0  0  0  0  0  0
   37.1090   28.6300   44.3550 F   0  0  0  0  0  0  0  0  0  0  0  0
   38.3660   26.8070   44.2230 F   0  0  0  0  0  0  0  0  0  0  0  0
   39.1870   28.7900   43.4630 F   0  0  0  0  0  0  0  0  0  0  0  0
   37.3060   30.0750   41.7640 O   0  0  0  0  0  0  0  0  0  0  0  0
   38.0980   30.9770   41.1010 C   0  0  0  0  0  0  0  0  0  0  0  0
   39.2750   30.2710   40.8810 C   0  0  0  0  0  0  0  0  0  0  0  0
   40.3310   31.4970   39.9880 S   0  0  0  0  0  0  0  0  0  0  0  0
   38.9610   32.7710   40.0760 C   0  0  0  0  0  0  0  0  0  0  0  0
   38.2040   32.1720   40.6110 N   0  0  0  0  0  0  0  0  0  0  0  0
   39.8710   29.2730   41.0090 H   0  0  0  0  0  0  0  0  0  0  0  0
   39.1960   34.0570   39.4980 N   0  0  0  0  0  0  0  0  0  0  0  0
   38.4020   34.3950   38.9290 H   0  0  0  0  0  0  0  0  0  0  0  0
   40.6290   34.9540   39.7150 S   0  0  0  0  0  0  0  0  0  0  0  0
   40.2610   36.4100   39.6550 O   0  0  0  0  0  1  0  0  0  0  0  0
   41.6430   34.6310   38.6560 O   0  0  0  0  0  1  0  0  0  0  0  0
   41.3050   34.5670   41.2120 O   0  0  0  0  0  0  0  0  0  0  0  0
   42.0670   33.9460   41.0850 H   0  0  0  0  0  0  0  0  0  0  0  0
  1  2  1  0  0  0  0
  2 26  1  0  0  0  0
  2  3  2  0  0  0  0
  3 22  1  0  0  0  0
  4  3  1  0  0  0  0
  5  4  2  0  0  0  0
  6  1  2  0  0  0  0
  6  5  1  0  0  0  0
  7  1  1  0  0  0  0
  8  9  1  0  0  0  0
  9  5  1  0  0  0  0
  9 10  2  0  0  0  0
 10 18  1  0  0  0  0
 11 12  1  0  0  0  0
 11 10  1  0  0  0  0
 12 19  1  0  0  0  0
 13 20  1  0  0  0  0
 13 12  1  0  0  0  0
 14 15  1  0  0  0  0
 14 13  2  0  0  0  0
 15 11  2  0  0  0  0
 16  8  2  0  0  0  0
 16 15  1  0  0  0  0
 17  8  1  0  0  0  0
 21 16  1  0  0  0  0
 22 24  1  0  0  0  0
 22 23  1  0  0  0  0
 25 22  1  0  0  0  0
 27 26  1  0  0  0  0
 28 32  1  0  0  0  0
 28 27  2  0  0  0  0
 29 30  1  0  0  0  0
 29 28  1  0  0  0  0
 30 31  2  0  0  0  0
 31 27  1  0  0  0  0
 33 35  1  0  0  0  0
 33 30  1  0  0  0  0
 34 33  1  0  0  0  0
 35 38  1  0  0  0  0
 36 35  1  0  0  0  0
 37 35  1  0  0  0  0
 39 38  1  0  0  0  0
M  END
>  <minimizedAffinity>
-7.00871277

$$$$

 OpenBabel03242513103D

 39 42  0  0  0  0  0  0  0  0999 V2000
   38.9880   27.7780   40.5080 C   0  0  0  0  0  0  0  0  0  0  0  0
   38.5050   27.3130   41.7350 C   0  0  0  0  0  0  0  0  0  0  0  0
   37.9480   28.2500   42.5890 C   0  0  0  0  0  0  0  0  0  0  0  0
   37.9180   29.5450   42.1660 N   0  0  0  0  0  0  0  0  0  0  0  0
   38.3850   29.9730   40.9900 C   0  0  0  0  0  0  0  0  0  0  0  0
   38.9280   29.0820   40.1470 N   0  0  0  0  0  0  0  0  0  0  0  0
   39.4400   27.1310   39.7710 H   0  0  0  0  0  0  0  0  0  0  0  0
   37.2340   31.8610   39.9280 C   0  0  0  0  0  0  0  0  0  0  0  0
   38.2990   31.3750   40.6440 C   0  0  0  0  0  0  0  0  0  0  0  0
   39.3580   32.1930   41.0800 C   0  0  0  0  0  0  0  0  0  0  0  0
   39.3550   33.5510   40.7910 C   0  0  0  0  0  0  0  0  0  0  0  0
   40.1650   34.6140   41.0320 N   0  0  0  0  0  0  0  0  0  0  0  0
   39.5860   35.7190   40.4660 C   0  0  0  0  0  0  0  0  0  0  0  0
   38.4260   35.3190   39.8830 N   0  0  0  0  0  0  0  0  0  0  0  0
   38.2690   34.0020   40.0710 C   0  0  0  0  0  0  0  0  0  0  0  0
   37.2140   33.2220   39.6290 C   0  0  0  0  0  0  0  0  0  0  0  0
   36.4360   31.2230   39.6030 H   0  0  0  0  0  0  0  0  0  0  0  0
   40.2010   31.8090   41.6460 H   0  0  0  0  0  0  0  0  0  0  0  0
   41.0450   34.4300   41.5780 H   0  0  0  0  0  0  0  0  0  0  0  0
   40.1660   36.6110   40.6110 H   0  0  0  0  0  0  0  0  0  0  0  0
   36.3910   33.6410   39.0670 H   0  0  0  0  0  0  0  0  0  0  0  0
   37.4190   27.8170   43.9030 C   0  0  0  0  0  0  0  0  0  0  0  0
   37.0420   28.9250   44.6740 F   0  0  0  0  0  0  0  0  0  0  0  0
   36.2820   27.0640   43.7370 F   0  0  0  0  0  0  0  0  0  0  0  0
   38.4060   27.1180   44.5550 F   0  0  0  0  0  0  0  0  0  0  0  0
   38.6010   25.9910   42.0280 O   0  0  0  0  0  0  0  0  0  0  0  0
   37.8800   25.0290   41.3670 C   0  0  0  0  0  0  0  0  0  0  0  0
   38.7960   23.9980   41.2000 C   0  0  0  0  0  0  0  0  0  0  0  0
   37.8130   22.7100   40.3110 S   0  0  0  0  0  0  0  0  0  0  0  0
   36.3070   23.8230   40.3250 C   0  0  0  0  0  0  0  0  0  0  0  0
   36.7400   24.6910   40.8520 N   0  0  0  0  0  0  0  0  0  0  0  0
   39.8830   23.6000   41.3700 H   0  0  0  0  0  0  0  0  0  0  0  0
   35.1030   23.3390   39.7240 N   0  0  0  0  0  0  0  0  0  0  0  0
   34.2640   23.5170   40.3020 H   0  0  0  0  0  0  0  0  0  0  0  0
   35.0400   22.5530   38.2140 S   0  0  0  0  0  0  0  0  0  0  0  0
   33.6550   22.7510   37.6620 O   0  0  0  0  0  1  0  0  0  0  0  0
   35.3400   21.0880   38.3460 O   0  0  0  0  0  1  0  0  0  0  0  0
   36.1980   23.2270   37.1870 O   0  0  0  0  0  0  0  0  0  0  0  0
   36.9850   22.6270   37.1300 H   0  0  0  0  0  0  0  0  0  0  0  0
  1  2  1  0  0  0  0
  2 26  1  0  0  0  0
  2  3  2  0  0  0  0
  3 22  1  0  0  0  0
  4  3  1  0  0  0  0
  5  4  2  0  0  0  0
  6  1  2  0  0  0  0
  6  5  1  0  0  0  0
  7  1  1  0  0  0  0
  8  9  1  0  0  0  0
  9  5  1  0  0  0  0
  9 10  2  0  0  0  0
 10 18  1  0  0  0  0
 11 12  1  0  0  0  0
 11 10  1  0  0  0  0
 12 19  1  0  0  0  0
 13 20  1  0  0  0  0
 13 12  1  0  0  0  0
 14 15  1  0  0  0  0
 14 13  2  0  0  0  0
 15 11  2  0  0  0  0
 16  8  2  0  0  0  0
 16 15  1  0  0  0  0
 17  8  1  0  0  0  0
 21 16  1  0  0  0  0
 22 25  1  0  0  0  0
 22 23  1  0  0  0  0
 24 22  1  0  0  0  0
 27 26  1  0  0  0  0
 28 27  2  0  0  0  0
 28 32  1  0  0  0  0
 29 30  1  0  0  0  0
 29 28  1  0  0  0  0
 30 31  2  0  0  0  0
 31 27  1  0  0  0  0
 33 34  1  0  0  0  0
 33 30  1  0  0  0  0
 35 37  1  0  0  0  0
 35 33  1  0  0  0  0
 36 35  1  0  0  0  0
 38 35  1  0  0  0  0
 39 38  1  0  0  0  0
M  END
>  <minimizedAffinity>
-6.90604115

$$$$

 OpenBabel03242513103D

 39 42  0  0  0  0  0  0  0  0999 V2000
   39.2730   27.8760   40.8260 C   0  0  0  0  0  0  0  0  0  0  0  0
   38.6700   27.4170   42.0020 C   0  0  0  0  0  0  0  0  0  0  0  0
   37.9590   28.3430   42.7460 C   0  0  0  0  0  0  0  0  0  0  0  0
   37.9040   29.6200   42.2750 N   0  0  0  0  0  0  0  0  0  0  0  0
   38.4870   30.0410   41.1500 C   0  0  0  0  0  0  0  0  0  0  0  0
   39.1810   29.1630   40.4130 N   0  0  0  0  0  0  0  0  0  0  0  0
   39.8500   27.2370   40.1740 H   0  0  0  0  0  0  0  0  0  0  0  0
   37.2790   31.8520   40.0180 C   0  0  0  0  0  0  0  0  0  0  0  0
   38.3620   31.4250   40.7440 C   0  0  0  0  0  0  0  0  0  0  0  0
   39.4030   32.2880   41.1350 C   0  0  0  0  0  0  0  0  0  0  0  0
   39.3620   33.6320   40.7880 C   0  0  0  0  0  0  0  0  0  0  0  0
   40.1460   34.7250   40.9750 N   0  0  0  0  0  0  0  0  0  0  0  0
   39.5340   35.7890   40.3680 C   0  0  0  0  0  0  0  0  0  0  0  0
   38.3800   35.3340   39.8130 N   0  0  0  0  0  0  0  0  0  0  0  0
   38.2580   34.0230   40.0590 C   0  0  0  0  0  0  0  0  0  0  0  0
   37.2210   33.1980   39.6620 C   0  0  0  0  0  0  0  0  0  0  0  0
   36.4940   31.1800   39.7290 H   0  0  0  0  0  0  0  0  0  0  0  0
   40.2600   31.9500   41.7090 H   0  0  0  0  0  0  0  0  0  0  0  0
   41.0350   34.5860   41.5200 H   0  0  0  0  0  0  0  0  0  0  0  0
   40.0920   36.7000   40.4690 H   0  0  0  0  0  0  0  0  0  0  0  0
   36.3830   33.5710   39.0900 H   0  0  0  0  0  0  0  0  0  0  0  0
   37.2980   27.9160   44.0020 C   0  0  0  0  0  0  0  0  0  0  0  0
   38.1630   27.1320   44.7760 F   0  0  0  0  0  0  0  0  0  0  0  0
   36.9820   29.0090   44.7720 F   0  0  0  0  0  0  0  0  0  0  0  0
   36.1830   27.1830   43.6730 F   0  0  0  0  0  0  0  0  0  0  0  0
   38.8070   26.1130   42.3520 O   0  0  0  0  0  0  0  0  0  0  0  0
   38.5600   25.0800   41.4840 C   0  0  0  0  0  0  0  0  0  0  0  0
   37.1810   24.9200   41.5600 C   0  0  0  0  0  0  0  0  0  0  0  0
   36.8620   23.5280   40.3860 S   0  0  0  0  0  0  0  0  0  0  0  0
   38.6910   23.4110   39.9980 C   0  0  0  0  0  0  0  0  0  0  0  0
   39.0570   24.2210   40.6520 N   0  0  0  0  0  0  0  0  0  0  0  0
   36.1660   25.2680   42.0250 H   0  0  0  0  0  0  0  0  0  0  0  0
   39.1210   22.4200   39.0610 N   0  0  0  0  0  0  0  0  0  0  0  0
   39.8010   22.7850   38.3730 H   0  0  0  0  0  0  0  0  0  0  0  0
   38.5800   20.8050   39.0630 S   0  0  0  0  0  0  0  0  0  0  0  0
   39.6550   19.9700   38.4250 O   0  0  0  0  0  1  0  0  0  0  0  0
   37.2920   20.6570   38.3080 O   0  0  0  0  0  1  0  0  0  0  0  0
   38.3030   20.3140   40.6550 O   0  0  0  0  0  0  0  0  0  0  0  0
   37.3310   20.3260   40.8450 H   0  0  0  0  0  0  0  0  0  0  0  0
  1  2  1  0  0  0  0
  2 26  1  0  0  0  0
  2  3  2  0  0  0  0
  3 22  1  0  0  0  0
  4  3  1  0  0  0  0
  5  4  2  0  0  0  0
  6  1  2  0  0  0  0
  6  5  1  0  0  0  0
  7  1  1  0  0  0  0
  8  9  1  0  0  0  0
  9 10  2  0  0  0  0
  9  5  1  0  0  0  0
 10 18  1  0  0  0  0
 11 12  1  0  0  0  0
 11 10  1  0  0  0  0
 12 19  1  0  0  0  0
 13 20  1  0  0  0  0
 13 12  1  0  0  0  0
 14 15  1  0  0  0  0
 14 13  2  0  0  0  0
 15 11  2  0  0  0  0
 16  8  2  0  0  0  0
 16 15  1  0  0  0  0
 17  8  1  0  0  0  0
 21 16  1  0  0  0  0
 22 24  1  0  0  0  0
 22 23  1  0  0  0  0
 25 22  1  0  0  0  0
 27 28  2  0  0  0  0
 27 26  1  0  0  0  0
 28 32  1  0  0  0  0
 29 28  1  0  0  0  0
 30 29  1  0  0  0  0
 30 31  2  0  0  0  0
 31 27  1  0  0  0  0
 33 35  1  0  0  0  0
 33 30  1  0  0  0  0
 34 33  1  0  0  0  0
 35 38  1  0  0  0  0
 36 35  1  0  0  0  0
 37 35  1  0  0  0  0
 38 39  1  0  0  0  0
M  END
>  <minimizedAffinity>
-6.89771557

$$$$

 OpenBabel03242513103D

 39 42  0  0  0  0  0  0  0  0999 V2000
   36.7560   28.4290   39.9130 C   0  0  0  0  0  0  0  0  0  0  0  0
   37.3260   28.7800   41.1410 C   0  0  0  0  0  0  0  0  0  0  0  0
   37.7120   27.7440   41.9750 C   0  0  0  0  0  0  0  0  0  0  0  0
   37.5050   26.4720   41.5330 N   0  0  0  0  0  0  0  0  0  0  0  0
   36.9590   26.1540   40.3560 C   0  0  0  0  0  0  0  0  0  0  0  0
   36.5780   27.1410   39.5330 N   0  0  0  0  0  0  0  0  0  0  0  0
   36.4210   29.1580   39.1900 H   0  0  0  0  0  0  0  0  0  0  0  0
   35.7860   24.3800   39.1340 C   0  0  0  0  0  0  0  0  0  0  0  0
   36.7870   24.7640   39.9900 C   0  0  0  0  0  0  0  0  0  0  0  0
   37.6960   23.8510   40.5560 C   0  0  0  0  0  0  0  0  0  0  0  0
   37.6020   22.4980   40.2570 C   0  0  0  0  0  0  0  0  0  0  0  0
   38.2680   21.3640   40.5950 N   0  0  0  0  0  0  0  0  0  0  0  0
   37.6680   20.3170   39.9460 C   0  0  0  0  0  0  0  0  0  0  0  0
   36.6400   20.8240   39.2160 N   0  0  0  0  0  0  0  0  0  0  0  0
   36.5850   22.1510   39.3940 C   0  0  0  0  0  0  0  0  0  0  0  0
   35.6780   23.0260   38.8220 C   0  0  0  0  0  0  0  0  0  0  0  0
   35.1030   25.0900   38.7110 H   0  0  0  0  0  0  0  0  0  0  0  0
   38.4880   24.1560   41.2330 H   0  0  0  0  0  0  0  0  0  0  0  0
   39.0810   21.4660   41.2550 H   0  0  0  0  0  0  0  0  0  0  0  0
   38.1360   19.3750   40.1590 H   0  0  0  0  0  0  0  0  0  0  0  0
   34.9020   22.6850   38.1510 H   0  0  0  0  0  0  0  0  0  0  0  0
   38.3220   28.0540   43.2890 C   0  0  0  0  0  0  0  0  0  0  0  0
   39.4930   28.8040   43.1270 F   0  0  0  0  0  0  0  0  0  0  0  0
   37.4730   28.8300   44.0400 F   0  0  0  0  0  0  0  0  0  0  0  0
   38.6190   26.8670   43.9150 F   0  0  0  0  0  0  0  0  0  0  0  0
   37.4720   30.0930   41.4530 O   0  0  0  0  0  0  0  0  0  0  0  0
   38.3630   30.9150   40.8110 C   0  0  0  0  0  0  0  0  0  0  0  0
   37.6510   32.0980   40.6520 C   0  0  0  0  0  0  0  0  0  0  0  0
   38.8620   33.1960   39.7880 S   0  0  0  0  0  0  0  0  0  0  0  0
   40.1390   31.8260   39.7990 C   0  0  0  0  0  0  0  0  0  0  0  0
   39.5500   31.0450   40.3090 N   0  0  0  0  0  0  0  0  0  0  0  0
   36.6540   32.6860   40.8190 H   0  0  0  0  0  0  0  0  0  0  0  0
   41.4170   32.0890   39.2130 N   0  0  0  0  0  0  0  0  0  0  0  0
   42.2040   31.7550   39.7950 H   0  0  0  0  0  0  0  0  0  0  0  0
   41.6380   32.8700   37.7150 S   0  0  0  0  0  0  0  0  0  0  0  0
   42.8860   32.3060   37.0940 O   0  0  0  0  0  1  0  0  0  0  0  0
   41.7700   34.3550   37.8850 O   0  0  0  0  0  1  0  0  0  0  0  0
   40.2950   32.5800   36.7340 O   0  0  0  0  0  0  0  0  0  0  0  0
   39.7090   33.3790   36.7240 H   0  0  0  0  0  0  0  0  0  0  0  0
  1  2  1  0  0  0  0
  2 26  1  0  0  0  0
  2  3  2  0  0  0  0
  3 22  1  0  0  0  0
  4  3  1  0  0  0  0
  5  4  2  0  0  0  0
  6  1  2  0  0  0  0
  6  5  1  0  0  0  0
  7  1  1  0  0  0  0
  8  9  1  0  0  0  0
  9  5  1  0  0  0  0
  9 10  2  0  0  0  0
 10 18  1  0  0  0  0
 11 10  1  0  0  0  0
 11 12  1  0  0  0  0
 12 19  1  0  0  0  0
 13 20  1  0  0  0  0
 13 12  1  0  0  0  0
 14 15  1  0  0  0  0
 14 13  2  0  0  0  0
 15 11  2  0  0  0  0
 16  8  2  0  0  0  0
 16 15  1  0  0  0  0
 17  8  1  0  0  0  0
 21 16  1  0  0  0  0
 22 25  1  0  0  0  0
 22 24  1  0  0  0  0
 23 22  1  0  0  0  0
 27 26  1  0  0  0  0
 28 27  2  0  0  0  0
 28 32  1  0  0  0  0
 29 30  1  0  0  0  0
 29 28  1  0  0  0  0
 30 31  2  0  0  0  0
 31 27  1  0  0  0  0
 33 34  1  0  0  0  0
 33 30  1  0  0  0  0
 35 37  1  0  0  0  0
 35 33  1  0  0  0  0
 36 35  1  0  0  0  0
 38 35  1  0  0  0  0
 39 38  1  0  0  0  0
M  END
>  <minimizedAffinity>
-6.74497461

$$$$

 OpenBabel03242513103D

 39 42  0  0  0  0  0  0  0  0999 V2000
   37.3110   28.3110   39.7450 C   0  0  0  0  0  0  0  0  0  0  0  0
   37.4670   28.6740   41.0860 C   0  0  0  0  0  0  0  0  0  0  0  0
   37.9850   27.7180   41.9420 C   0  0  0  0  0  0  0  0  0  0  0  0
   38.3010   26.5040   41.4090 N   0  0  0  0  0  0  0  0  0  0  0  0
   38.1460   26.1730   40.1250 C   0  0  0  0  0  0  0  0  0  0  0  0
   37.6460   27.0830   39.2780 N   0  0  0  0  0  0  0  0  0  0  0  0
   36.9160   28.9810   38.9960 H   0  0  0  0  0  0  0  0  0  0  0  0
   39.2540   24.6800   38.5230 C   0  0  0  0  0  0  0  0  0  0  0  0
   38.5170   24.8500   39.6680 C   0  0  0  0  0  0  0  0  0  0  0  0
   38.0810   23.7700   40.4590 C   0  0  0  0  0  0  0  0  0  0  0  0
   38.3930   22.4680   40.0930 C   0  0  0  0  0  0  0  0  0  0  0  0
   38.1600   21.2220   40.5800 N   0  0  0  0  0  0  0  0  0  0  0  0
   38.7530   20.3230   39.7340 C   0  0  0  0  0  0  0  0  0  0  0  0
   39.3440   21.0300   38.7350 N   0  0  0  0  0  0  0  0  0  0  0  0
   39.1350   22.3380   38.9380 C   0  0  0  0  0  0  0  0  0  0  0  0
   39.5770   23.3800   38.1410 C   0  0  0  0  0  0  0  0  0  0  0  0
   39.5770   25.5150   37.9330 H   0  0  0  0  0  0  0  0  0  0  0  0
   37.4980   23.9050   41.3640 H   0  0  0  0  0  0  0  0  0  0  0  0
   37.6000   21.1540   41.4690 H   0  0  0  0  0  0  0  0  0  0  0  0
   38.6160   19.3060   40.0490 H   0  0  0  0  0  0  0  0  0  0  0  0
   40.1570   23.2070   37.2450 H   0  0  0  0  0  0  0  0  0  0  0  0
   38.1730   28.0440   43.3750 C   0  0  0  0  0  0  0  0  0  0  0  0
   36.9400   28.2980   43.9900 F   0  0  0  0  0  0  0  0  0  0  0  0
   38.7190   26.9750   44.0420 F   0  0  0  0  0  0  0  0  0  0  0  0
   38.9680   29.1620   43.4600 F   0  0  0  0  0  0  0  0  0  0  0  0
   37.1090   29.9230   41.4800 O   0  0  0  0  0  0  0  0  0  0  0  0
   37.8320   31.0420   41.1520 C   0  0  0  0  0  0  0  0  0  0  0  0
   36.9220   31.8150   40.4400 C   0  0  0  0  0  0  0  0  0  0  0  0
   37.9080   33.3170   40.0060 S   0  0  0  0  0  0  0  0  0  0  0  0
   39.4040   32.6130   40.8850 C   0  0  0  0  0  0  0  0  0  0  0  0
   38.9690   31.6580   41.2270 N   0  0  0  0  0  0  0  0  0  0  0  0
   35.8410   31.9290   40.0090 H   0  0  0  0  0  0  0  0  0  0  0  0
   40.6060   33.3880   40.9000 N   0  0  0  0  0  0  0  0  0  0  0  0
   41.0550   33.4170   41.8310 H   0  0  0  0  0  0  0  0  0  0  0  0
   41.2460   34.1840   39.5360 S   0  0  0  0  0  0  0  0  0  0  0  0
   42.7420   34.1920   39.6820 O   0  0  0  0  0  1  0  0  0  0  0  0
   40.7280   35.5880   39.4290 O   0  0  0  0  0  1  0  0  0  0  0  0
   40.7830   33.3550   38.1410 O   0  0  0  0  0  0  0  0  0  0  0  0
   40.0370   33.8340   37.6980 H   0  0  0  0  0  0  0  0  0  0  0  0
  1  2  1  0  0  0  0
  2 26  1  0  0  0  0
  2  3  2  0  0  0  0
  3 22  1  0  0  0  0
  4  3  1  0  0  0  0
  5  4  2  0  0  0  0
  6  1  2  0  0  0  0
  6  5  1  0  0  0  0
  7  1  1  0  0  0  0
  8  9  1  0  0  0  0
  9  5  1  0  0  0  0
  9 10  2  0  0  0  0
 10 18  1  0  0  0  0
 11 10  1  0  0  0  0
 11 12  1  0  0  0  0
 12 19  1  0  0  0  0
 13 20  1  0  0  0  0
 13 12  1  0  0  0  0
 14 15  1  0  0  0  0
 14 13  2  0  0  0  0
 15 11  2  0  0  0  0
 16  8  2  0  0  0  0
 16 15  1  0  0  0  0
 17  8  1  0  0  0  0
 21 16  1  0  0  0  0
 22 25  1  0  0  0  0
 22 23  1  0  0  0  0
 22 24  1  0  0  0  0
 27 31  1  0  0  0  0
 27 26  1  0  0  0  0
 28 27  2  0  0  0  0
 29 28  1  0  0  0  0
 29 30  1  0  0  0  0
 30 33  1  0  0  0  0
 30 31  2  0  0  0  0
 32 28  1  0  0  0  0
 33 34  1  0  0  0  0
 35 36  1  0  0  0  0
 35 33  1  0  0  0  0
 37 35  1  0  0  0  0
 38 35  1  0  0  0  0
 39 38  1  0  0  0  0
M  END
>  <minimizedAffinity>
-6.50820827

$$$$

 OpenBabel03242513103D

 39 42  0  0  0  0  0  0  0  0999 V2000
   36.7150   28.2370   39.9560 C   0  0  0  0  0  0  0  0  0  0  0  0
   37.2950   28.6610   41.1550 C   0  0  0  0  0  0  0  0  0  0  0  0
   37.7610   27.6770   42.0110 C   0  0  0  0  0  0  0  0  0  0  0  0
   37.6170   26.3810   41.6170 N   0  0  0  0  0  0  0  0  0  0  0  0
   37.0610   25.9930   40.4660 C   0  0  0  0  0  0  0  0  0  0  0  0
   36.6030   26.9280   39.6220 N   0  0  0  0  0  0  0  0  0  0  0  0
   36.3210   28.9210   39.2190 H   0  0  0  0  0  0  0  0  0  0  0  0
   37.8590   23.6820   40.6600 C   0  0  0  0  0  0  0  0  0  0  0  0
   36.9610   24.5850   40.1490 C   0  0  0  0  0  0  0  0  0  0  0  0
   35.9050   24.2080   39.2990 C   0  0  0  0  0  0  0  0  0  0  0  0
   35.7370   22.8760   38.9440 C   0  0  0  0  0  0  0  0  0  0  0  0
   34.8740   22.1590   38.1790 N   0  0  0  0  0  0  0  0  0  0  0  0
   35.2550   20.8450   38.2360 C   0  0  0  0  0  0  0  0  0  0  0  0
   36.3510   20.7710   39.0370 N   0  0  0  0  0  0  0  0  0  0  0  0
   36.6580   21.9990   39.4780 C   0  0  0  0  0  0  0  0  0  0  0  0
   37.7050   22.3410   40.3150 C   0  0  0  0  0  0  0  0  0  0  0  0
   38.6580   23.9870   41.3070 H   0  0  0  0  0  0  0  0  0  0  0  0
   35.1950   24.9220   38.8940 H   0  0  0  0  0  0  0  0  0  0  0  0
   34.1050   22.6930   37.6990 H   0  0  0  0  0  0  0  0  0  0  0  0
   34.6210   20.2040   37.6540 H   0  0  0  0  0  0  0  0  0  0  0  0
   38.3930   21.6000   40.6990 H   0  0  0  0  0  0  0  0  0  0  0  0
   38.3850   28.0650   43.2980 C   0  0  0  0  0  0  0  0  0  0  0  0
   37.5020   28.8370   44.0640 F   0  0  0  0  0  0  0  0  0  0  0  0
   38.6660   26.9500   44.0490 F   0  0  0  0  0  0  0  0  0  0  0  0
   39.5160   28.7960   43.0250 F   0  0  0  0  0  0  0  0  0  0  0  0
   37.3720   29.9890   41.4220 O   0  0  0  0  0  0  0  0  0  0  0  0
   38.2510   30.8260   40.7810 C   0  0  0  0  0  0  0  0  0  0  0  0
   37.5030   31.9780   40.5720 C   0  0  0  0  0  0  0  0  0  0  0  0
   38.6970   33.0950   39.7100 S   0  0  0  0  0  0  0  0  0  0  0  0
   40.0210   31.7730   39.7910 C   0  0  0  0  0  0  0  0  0  0  0  0
   39.4450   30.9850   40.3070 N   0  0  0  0  0  0  0  0  0  0  0  0
   36.4820   32.5340   40.6970 H   0  0  0  0  0  0  0  0  0  0  0  0
   41.3040   32.0660   39.2320 N   0  0  0  0  0  0  0  0  0  0  0  0
   42.0860   31.7750   39.8430 H   0  0  0  0  0  0  0  0  0  0  0  0
   41.5380   32.8150   37.7190 S   0  0  0  0  0  0  0  0  0  0  0  0
   42.7660   32.2050   37.1020 O   0  0  0  0  0  1  0  0  0  0  0  0
   41.7130   34.2980   37.8640 O   0  0  0  0  0  1  0  0  0  0  0  0
   40.1820   32.5470   36.7510 O   0  0  0  0  0  0  0  0  0  0  0  0
   39.6180   33.3610   36.7310 H   0  0  0  0  0  0  0  0  0  0  0  0
  1  2  1  0  0  0  0
  2 26  1  0  0  0  0
  2  3  2  0  0  0  0
  3 22  1  0  0  0  0
  4  3  1  0  0  0  0
  5  4  2  0  0  0  0
  6  1  2  0  0  0  0
  6  5  1  0  0  0  0
  7  1  1  0  0  0  0
  8 17  1  0  0  0  0
  9  5  1  0  0  0  0
  9  8  2  0  0  0  0
 10  9  1  0  0  0  0
 11 10  2  0  0  0  0
 11 15  1  0  0  0  0
 12 13  1  0  0  0  0
 12 11  1  0  0  0  0
 13 14  2  0  0  0  0
 14 15  1  0  0  0  0
 15 16  2  0  0  0  0
 16  8  1  0  0  0  0
 16 21  1  0  0  0  0
 18 10  1  0  0  0  0
 19 12  1  0  0  0  0
 20 13  1  0  0  0  0
 22 24  1  0  0  0  0
 22 23  1  0  0  0  0
 25 22  1  0  0  0  0
 27 26  1  0  0  0  0
 28 32  1  0  0  0  0
 28 27  2  0  0  0  0
 29 30  1  0  0  0  0
 29 28  1  0  0  0  0
 30 31  2  0  0  0  0
 31 27  1  0  0  0  0
 33 30  1  0  0  0  0
 33 34  1  0  0  0  0
 35 37  1  0  0  0  0
 35 33  1  0  0  0  0
 36 35  1  0  0  0  0
 38 35  1  0  0  0  0
 39 38  1  0  0  0  0
M  END
>  <minimizedAffinity>
-6.45702171

$$$$

 OpenBabel03242513103D

 39 42  0  0  0  0  0  0  0  0999 V2000
   38.8010   30.3290   41.8200 C   0  0  0  0  0  0  0  0  0  0  0  0
   38.4600   31.1750   40.7610 C   0  0  0  0  0  0  0  0  0  0  0  0
   37.7250   30.6240   39.7250 C   0  0  0  0  0  0  0  0  0  0  0  0
   37.3950   29.3060   39.8220 N   0  0  0  0  0  0  0  0  0  0  0  0
   37.7280   28.5110   40.8430 C   0  0  0  0  0  0  0  0  0  0  0  0
   38.4400   29.0230   41.8560 N   0  0  0  0  0  0  0  0  0  0  0  0
   39.3710   30.6580   42.6760 H   0  0  0  0  0  0  0  0  0  0  0  0
   37.4450   26.3500   41.9690 C   0  0  0  0  0  0  0  0  0  0  0  0
   37.3220   27.1210   40.8410 C   0  0  0  0  0  0  0  0  0  0  0  0
   36.8020   26.6230   39.6310 C   0  0  0  0  0  0  0  0  0  0  0  0
   36.3890   25.3000   39.5430 C   0  0  0  0  0  0  0  0  0  0  0  0
   35.8580   24.4930   38.5890 N   0  0  0  0  0  0  0  0  0  0  0  0
   35.6670   23.2560   39.1440 C   0  0  0  0  0  0  0  0  0  0  0  0
   36.0850   23.3190   40.4360 N   0  0  0  0  0  0  0  0  0  0  0  0
   36.5270   24.5570   40.6960 C   0  0  0  0  0  0  0  0  0  0  0  0
   37.0330   25.0200   41.8980 C   0  0  0  0  0  0  0  0  0  0  0  0
   37.8430   26.7460   42.8820 H   0  0  0  0  0  0  0  0  0  0  0  0
   36.7060   27.2340   38.7390 H   0  0  0  0  0  0  0  0  0  0  0  0
   35.6900   24.9200   37.6420 H   0  0  0  0  0  0  0  0  0  0  0  0
   35.2470   22.5520   38.4520 H   0  0  0  0  0  0  0  0  0  0  0  0
   37.1150   24.3810   42.7670 H   0  0  0  0  0  0  0  0  0  0  0  0
   37.3340   31.4720   38.5750 C   0  0  0  0  0  0  0  0  0  0  0  0
   36.7530   32.6670   39.0150 F   0  0  0  0  0  0  0  0  0  0  0  0
   38.4430   31.8320   37.8480 F   0  0  0  0  0  0  0  0  0  0  0  0
   36.4290   30.7720   37.8130 F   0  0  0  0  0  0  0  0  0  0  0  0
   38.8580   32.4730   40.7940 O   0  0  0  0  0  0  0  0  0  0  0  0
   40.1010   32.8800   40.3830 C   0  0  0  0  0  0  0  0  0  0  0  0
   40.0340   34.2650   40.4800 C   0  0  0  0  0  0  0  0  0  0  0  0
   41.7150   34.8000   39.9250 S   0  0  0  0  0  0  0  0  0  0  0  0
   42.2150   33.0150   39.6560 C   0  0  0  0  0  0  0  0  0  0  0  0
   41.2720   32.5260   39.9580 N   0  0  0  0  0  0  0  0  0  0  0  0
   39.4020   35.2110   40.7490 H   0  0  0  0  0  0  0  0  0  0  0  0
   43.5370   32.7470   39.1830 N   0  0  0  0  0  0  0  0  0  0  0  0
   44.0010   31.9770   39.6940 H   0  0  0  0  0  0  0  0  0  0  0  0
   44.2860   33.5980   37.9100 S   0  0  0  0  0  0  0  0  0  0  0  0
   45.0180   32.5910   37.0670 O   0  0  0  0  0  1  0  0  0  0  0  0
   45.2420   34.6310   38.4300 O   0  0  0  0  0  1  0  0  0  0  0  0
   43.1050   34.3950   37.0050 O   0  0  0  0  0  0  0  0  0  0  0  0
   43.0940   35.3570   37.2420 H   0  0  0  0  0  0  0  0  0  0  0  0
  1  6  1  0  0  0  0
  1  7  1  0  0  0  0
  2 26  1  0  0  0  0
  2  1  2  0  0  0  0
  3  4  2  0  0  0  0
  3  2  1  0  0  0  0
  4  5  1  0  0  0  0
  5  6  2  0  0  0  0
  8 17  1  0  0  0  0
  9  5  1  0  0  0  0
  9  8  2  0  0  0  0
 10  9  1  0  0  0  0
 11 10  2  0  0  0  0
 11 15  1  0  0  0  0
 12 13  1  0  0  0  0
 12 11  1  0  0  0  0
 13 14  2  0  0  0  0
 14 15  1  0  0  0  0
 15 16  2  0  0  0  0
 16  8  1  0  0  0  0
 16 21  1  0  0  0  0
 18 10  1  0  0  0  0
 19 12  1  0  0  0  0
 20 13  1  0  0  0  0
 22 23  1  0  0  0  0
 22  3  1  0  0  0  0
 24 22  1  0  0  0  0
 25 22  1  0  0  0  0
 27 28  2  0  0  0  0
 27 26  1  0  0  0  0
 28 32  1  0  0  0  0
 29 28  1  0  0  0  0
 30 29  1  0  0  0  0
 30 31  2  0  0  0  0
 31 27  1  0  0  0  0
 33 30  1  0  0  0  0
 33 34  1  0  0  0  0
 35 37  1  0  0  0  0
 35 33  1  0  0  0  0
 36 35  1  0  0  0  0
 38 39  1  0  0  0  0
 38 35  1  0  0  0  0
M  END
>  <minimizedAffinity>
-6.42081022

$$$$

 OpenBabel03242513103D

 39 42  0  0  0  0  0  0  0  0999 V2000
   36.8580   28.0500   39.9950 C   0  0  0  0  0  0  0  0  0  0  0  0
   37.1370   28.5200   41.2820 C   0  0  0  0  0  0  0  0  0  0  0  0
   37.7500   27.6370   42.1550 C   0  0  0  0  0  0  0  0  0  0  0  0
   38.0290   26.3860   41.6910 N   0  0  0  0  0  0  0  0  0  0  0  0
   37.7550   25.9540   40.4570 C   0  0  0  0  0  0  0  0  0  0  0  0
   37.1630   26.7920   39.5950 N   0  0  0  0  0  0  0  0  0  0  0  0
   36.3830   28.6570   39.2380 H   0  0  0  0  0  0  0  0  0  0  0  0
   37.4140   23.5280   40.5830 C   0  0  0  0  0  0  0  0  0  0  0  0
   38.0980   24.6020   40.0710 C   0  0  0  0  0  0  0  0  0  0  0  0
   39.1570   24.4620   39.1550 C   0  0  0  0  0  0  0  0  0  0  0  0
   39.5510   23.1990   38.7330 C   0  0  0  0  0  0  0  0  0  0  0  0
   40.4890   22.6860   37.8950 N   0  0  0  0  0  0  0  0  0  0  0  0
   40.3630   21.3220   37.9100 C   0  0  0  0  0  0  0  0  0  0  0  0
   39.3460   21.0150   38.7580 N   0  0  0  0  0  0  0  0  0  0  0  0
   38.8400   22.1460   39.2680 C   0  0  0  0  0  0  0  0  0  0  0  0
   37.7950   22.2530   40.1680 C   0  0  0  0  0  0  0  0  0  0  0  0
   36.6090   23.6540   41.2800 H   0  0  0  0  0  0  0  0  0  0  0  0
   39.6990   25.3120   38.7510 H   0  0  0  0  0  0  0  0  0  0  0  0
   41.1180   23.3720   37.4050 H   0  0  0  0  0  0  0  0  0  0  0  0
   41.0720   20.8340   37.2690 H   0  0  0  0  0  0  0  0  0  0  0  0
   37.2790   21.3830   40.5500 H   0  0  0  0  0  0  0  0  0  0  0  0
   38.0700   28.0770   43.5330 C   0  0  0  0  0  0  0  0  0  0  0  0
   36.9050   28.4380   44.2210 F   0  0  0  0  0  0  0  0  0  0  0  0
   38.6310   27.0450   44.2460 F   0  0  0  0  0  0  0  0  0  0  0  0
   38.9120   29.1610   43.4530 F   0  0  0  0  0  0  0  0  0  0  0  0
   36.8020   29.7930   41.6100 O   0  0  0  0  0  0  0  0  0  0  0  0
   37.5520   30.8800   41.2360 C   0  0  0  0  0  0  0  0  0  0  0  0
   36.6650   31.6370   40.4800 C   0  0  0  0  0  0  0  0  0  0  0  0
   37.6860   33.0960   39.9840 S   0  0  0  0  0  0  0  0  0  0  0  0
   39.1600   32.4020   40.9070 C   0  0  0  0  0  0  0  0  0  0  0  0
   38.7010   31.4740   41.2910 N   0  0  0  0  0  0  0  0  0  0  0  0
   35.5900   31.7540   40.0350 H   0  0  0  0  0  0  0  0  0  0  0  0
   40.3790   33.1500   40.8960 N   0  0  0  0  0  0  0  0  0  0  0  0
   40.8210   33.2150   41.8280 H   0  0  0  0  0  0  0  0  0  0  0  0
   41.0460   33.8670   39.5010 S   0  0  0  0  0  0  0  0  0  0  0  0
   42.5410   33.7580   39.6120 O   0  0  0  0  0  1  0  0  0  0  0  0
   40.6380   35.3060   39.3760 O   0  0  0  0  0  1  0  0  0  0  0  0
   40.4840   33.0510   38.1350 O   0  0  0  0  0  0  0  0  0  0  0  0
   39.7680   33.5790   37.6990 H   0  0  0  0  0  0  0  0  0  0  0  0
  1  2  1  0  0  0  0
  2 26  1  0  0  0  0
  2  3  2  0  0  0  0
  3 22  1  0  0  0  0
  4  3  1  0  0  0  0
  5  4  2  0  0  0  0
  6  1  2  0  0  0  0
  6  5  1  0  0  0  0
  7  1  1  0  0  0  0
  8 17  1  0  0  0  0
  9  5  1  0  0  0  0
  9  8  2  0  0  0  0
 10  9  1  0  0  0  0
 11 10  2  0  0  0  0
 11 15  1  0  0  0  0
 12 13  1  0  0  0  0
 12 11  1  0  0  0  0
 13 14  2  0  0  0  0
 14 15  1  0  0  0  0
 15 16  2  0  0  0  0
 16 21  1  0  0  0  0
 16  8  1  0  0  0  0
 18 10  1  0  0  0  0
 19 12  1  0  0  0  0
 20 13  1  0  0  0  0
 22 23  1  0  0  0  0
 22 24  1  0  0  0  0
 25 22  1  0  0  0  0
 27 31  1  0  0  0  0
 27 26  1  0  0  0  0
 28 27  2  0  0  0  0
 29 28  1  0  0  0  0
 29 30  1  0  0  0  0
 30 31  2  0  0  0  0
 32 28  1  0  0  0  0
 33 30  1  0  0  0  0
 33 34  1  0  0  0  0
 35 36  1  0  0  0  0
 35 33  1  0  0  0  0
 37 35  1  0  0  0  0
 38 35  1  0  0  0  0
 39 38  1  0  0  0  0
M  END
>  <minimizedAffinity>
-6.4175396

$$$$

 OpenBabel03242513103D

 39 42  0  0  0  0  0  0  0  0999 V2000
   37.3620   27.9760   39.5100 C   0  0  0  0  0  0  0  0  0  0  0  0
   37.1680   27.4980   40.8090 C   0  0  0  0  0  0  0  0  0  0  0  0
   37.5760   28.3170   41.8480 C   0  0  0  0  0  0  0  0  0  0  0  0
   38.1320   29.5170   41.5210 N   0  0  0  0  0  0  0  0  0  0  0  0
   38.3090   29.9580   40.2730 C   0  0  0  0  0  0  0  0  0  0  0  0
   37.9210   29.1820   39.2520 N   0  0  0  0  0  0  0  0  0  0  0  0
   37.0790   27.4170   38.6300 H   0  0  0  0  0  0  0  0  0  0  0  0
   39.8490   31.4300   39.0570 C   0  0  0  0  0  0  0  0  0  0  0  0
   38.9110   31.2540   40.0420 C   0  0  0  0  0  0  0  0  0  0  0  0
   38.4800   32.3020   40.8770 C   0  0  0  0  0  0  0  0  0  0  0  0
   39.0060   33.5780   40.7230 C   0  0  0  0  0  0  0  0  0  0  0  0
   38.8460   34.7900   41.3130 N   0  0  0  0  0  0  0  0  0  0  0  0
   39.6790   35.6760   40.6840 C   0  0  0  0  0  0  0  0  0  0  0  0
   40.3430   34.9950   39.7140 N   0  0  0  0  0  0  0  0  0  0  0  0
   39.9450   33.7150   39.7230 C   0  0  0  0  0  0  0  0  0  0  0  0
   40.3880   32.7050   38.8880 C   0  0  0  0  0  0  0  0  0  0  0  0
   40.1660   30.6200   38.4300 H   0  0  0  0  0  0  0  0  0  0  0  0
   37.7380   32.1620   41.6570 H   0  0  0  0  0  0  0  0  0  0  0  0
   38.1540   34.8490   42.1040 H   0  0  0  0  0  0  0  0  0  0  0  0
   39.6140   36.6670   41.0920 H   0  0  0  0  0  0  0  0  0  0  0  0
   41.1300   32.8820   38.1210 H   0  0  0  0  0  0  0  0  0  0  0  0
   37.3980   27.8640   43.2480 C   0  0  0  0  0  0  0  0  0  0  0  0
   36.0950   27.3930   43.4540 F   0  0  0  0  0  0  0  0  0  0  0  0
   38.2330   26.8080   43.5200 F   0  0  0  0  0  0  0  0  0  0  0  0
   37.6370   28.9330   44.0790 F   0  0  0  0  0  0  0  0  0  0  0  0
   36.6010   26.2780   40.9900 O   0  0  0  0  0  0  0  0  0  0  0  0
   37.0650   25.1440   40.3740 C   0  0  0  0  0  0  0  0  0  0  0  0
   37.4790   24.3480   41.4350 C   0  0  0  0  0  0  0  0  0  0  0  0
   38.1010   22.8250   40.5910 S   0  0  0  0  0  0  0  0  0  0  0  0
   37.6790   23.5560   38.9200 C   0  0  0  0  0  0  0  0  0  0  0  0
   37.2710   24.5250   39.2540 N   0  0  0  0  0  0  0  0  0  0  0  0
   37.6040   24.2220   42.5910 H   0  0  0  0  0  0  0  0  0  0  0  0
   37.9530   22.7770   37.7520 N   0  0  0  0  0  0  0  0  0  0  0  0
   37.1740   22.7810   37.0720 H   0  0  0  0  0  0  0  0  0  0  0  0
   39.4060   21.9240   37.4930 S   0  0  0  0  0  0  0  0  0  0  0  0
   39.5650   21.7510   36.0080 O   0  0  0  0  0  1  0  0  0  0  0  0
   39.3840   20.5860   38.1720 O   0  0  0  0  0  1  0  0  0  0  0  0
   40.6910   22.8090   38.1360 O   0  0  0  0  0  0  0  0  0  0  0  0
   40.9660   22.4180   39.0040 H   0  0  0  0  0  0  0  0  0  0  0  0
  1  2  1  0  0  0  0
  2 26  1  0  0  0  0
  2  3  2  0  0  0  0
  3 22  1  0  0  0  0
  4  3  1  0  0  0  0
  5  4  2  0  0  0  0
  6  1  2  0  0  0  0
  6  5  1  0  0  0  0
  7  1  1  0  0  0  0
  8  9  1  0  0  0  0
  9  5  1  0  0  0  0
  9 10  2  0  0  0  0
 10 18  1  0  0  0  0
 11 10  1  0  0  0  0
 11 12  1  0  0  0  0
 12 19  1  0  0  0  0
 13 20  1  0  0  0  0
 13 12  1  0  0  0  0
 14 15  1  0  0  0  0
 14 13  2  0  0  0  0
 15 11  2  0  0  0  0
 16  8  2  0  0  0  0
 16 15  1  0  0  0  0
 17  8  1  0  0  0  0
 21 16  1  0  0  0  0
 22 23  1  0  0  0  0
 22 24  1  0  0  0  0
 22 25  1  0  0  0  0
 27 26  1  0  0  0  0
 27 28  2  0  0  0  0
 28 32  1  0  0  0  0
 29 28  1  0  0  0  0
 30 31  2  0  0  0  0
 30 29  1  0  0  0  0
 31 27  1  0  0  0  0
 33 30  1  0  0  0  0
 34 33  1  0  0  0  0
 35 33  1  0  0  0  0
 35 38  1  0  0  0  0
 35 37  1  0  0  0  0
 36 35  1  0  0  0  0
 38 39  1  0  0  0  0
M  END
>  <minimizedAffinity>
-6.28386497

$$$$
