
 OpenBabel03242516533D

 43 45  0  0  1  0  0  0  0  0999 V2000
   47.8370   32.9000   41.9280 C   0  0  1  0  0  0  0  0  0  0  0  0
   47.5680   32.0820   40.7460 C   0  0  0  0  0  0  0  0  0  0  0  0
   48.5580   32.5370   39.6770 C   0  0  0  0  0  0  0  0  0  0  0  0
   48.1250   33.9340   39.2530 C   0  0  0  0  0  0  0  0  0  0  0  0
   47.9910   34.9050   40.3870 C   0  0  0  0  0  0  0  0  0  0  0  0
   47.5380   34.3820   41.6820 C   0  0  1  0  0  0  0  0  0  0  0  0
   48.9560   32.9090   42.1120 H   0  0  0  0  0  0  0  0  0  0  0  0
   46.5650   32.2680   40.2860 H   0  0  0  0  0  0  0  0  0  0  0  0
   47.7610   31.0280   40.9380 H   0  0  0  0  0  0  0  0  0  0  0  0
   48.3550   31.8790   38.7950 H   0  0  0  0  0  0  0  0  0  0  0  0
   49.5880   32.4960   40.0300 H   0  0  0  0  0  0  0  0  0  0  0  0
   48.8320   34.3020   38.4990 H   0  0  0  0  0  0  0  0  0  0  0  0
   47.1390   33.8020   38.7480 H   0  0  0  0  0  0  0  0  0  0  0  0
   48.9680   35.4650   40.4600 H   0  0  0  0  0  0  0  0  0  0  0  0
   47.2670   35.6780   40.0450 H   0  0  0  0  0  0  0  0  0  0  0  0
   48.1160   34.9220   42.4920 H   0  0  0  0  0  0  0  0  0  0  0  0
   45.6400   30.9950   44.3410 C   0  0  0  0  0  0  0  0  0  0  0  0
   46.2810   31.4540   43.1860 C   0  0  0  0  0  0  0  0  0  0  0  0
   47.2270   32.4830   43.1720 C   0  0  0  0  0  0  0  0  0  0  0  0
   47.5000   33.0280   44.3580 N   0  0  0  0  0  0  0  0  0  0  0  0
   46.8880   32.5970   45.4920 C   0  0  0  0  0  0  0  0  0  0  0  0
   45.9880   31.6180   45.5060 N   0  0  0  0  0  0  0  0  0  0  0  0
   44.9240   30.2000   44.2760 H   0  0  0  0  0  0  0  0  0  0  0  0
   46.0020   30.9560   42.2660 H   0  0  0  0  0  0  0  0  0  0  0  0
   47.2000   33.1270   46.3960 H   0  0  0  0  0  0  0  0  0  0  0  0
   46.1370   34.7020   41.9540 C   0  0  0  0  0  0  0  0  0  0  0  0
   45.6260   35.2270   43.1510 C   0  0  0  0  0  0  0  0  0  0  0  0
   44.2490   35.4680   43.1710 C   0  0  0  0  0  0  0  0  0  0  0  0
   43.5210   35.1750   42.0390 C   0  0  0  0  0  0  0  0  0  0  0  0
   44.0430   34.6590   40.8730 C   0  0  0  0  0  0  0  0  0  0  0  0
   45.3850   34.4250   40.8570 N   0  0  0  0  0  0  0  0  0  0  0  0
   46.3160   35.3970   43.9300 H   0  0  0  0  0  0  0  0  0  0  0  0
   43.8380   35.8720   44.0810 H   0  0  0  0  0  0  0  0  0  0  0  0
   42.4550   35.3910   42.1310 H   0  0  0  0  0  0  0  0  0  0  0  0
   43.1880   34.3840   39.7100 C   0  0  0  0  0  0  0  0  0  0  0  0
   42.7250   35.3650   39.0710 O   0  0  0  0  0  0  0  0  0  0  0  0
   42.8850   33.0500   39.3110 N   0  0  0  0  0  0  0  0  0  0  0  0
   42.7220   32.9350   38.2860 H   0  0  0  0  0  0  0  0  0  0  0  0
   42.8550   31.9170   40.6130 S   0  0  0  0  0  0  0  0  0  0  0  0
   44.2330   31.4510   40.9750 O   0  0  0  0  0  1  0  0  0  0  0  0
   42.1230   32.4410   41.8180 O   0  0  0  0  0  1  0  0  0  0  0  0
   41.9520   30.5850   40.0630 O   0  0  0  0  0  0  0  0  0  0  0  0
   40.9870   30.7220   40.2380 H   0  0  0  0  0  0  0  0  0  0  0  0
  1  7  1  1  0  0  0
  1 19  1  0  0  0  0
  2  9  1  0  0  0  0
  2  1  1  0  0  0  0
  3 11  1  0  0  0  0
  3  2  1  0  0  0  0
  4  3  1  0  0  0  0
  4  5  1  0  0  0  0
  5 14  1  0  0  0  0
  5  6  1  0  0  0  0
  6  1  1  0  0  0  0
  6 26  1  0  0  0  0
  6 16  1  1  0  0  0
  8  2  1  0  0  0  0
 10  3  1  0  0  0  0
 12  4  1  0  0  0  0
 13  4  1  0  0  0  0
 15  5  1  0  0  0  0
 17 22  1  0  0  0  0
 18 17  2  0  0  0  0
 19 18  1  0  0  0  0
 19 20  2  0  0  0  0
 20 21  1  0  0  0  0
 21 22  2  0  0  0  0
 21 25  1  0  0  0  0
 23 17  1  0  0  0  0
 24 18  1  0  0  0  0
 26 27  1  0  0  0  0
 27 28  2  0  0  0  0
 27 32  1  0  0  0  0
 28 33  1  0  0  0  0
 29 34  1  0  0  0  0
 29 28  1  0  0  0  0
 30 29  2  0  0  0  0
 31 30  1  0  0  0  0
 31 26  2  0  0  0  0
 35 30  1  0  0  0  0
 36 35  2  0  0  0  0
 37 35  1  0  0  0  0
 37 39  1  0  0  0  0
 38 37  1  0  0  0  0
 39 40  1  0  0  0  0
 39 41  1  0  0  0  0
 42 43  1  0  0  0  0
 42 39  1  0  0  0  0
M  END
>  <minimizedAffinity>
-4.89775753

>  <minimizedRMSD>
0.658203602

$$$$
