
 OpenBabel03252508003D

 27 28  0  0  1  0  0  0  0  0999 V2000
   46.0520   34.6270   43.5010 C   0  0  0  0  0  0  0  0  0  0  0  0
   45.1400   35.6190   43.9700 C   0  0  0  0  0  0  0  0  0  0  0  0
   44.6420   35.4220   45.2580 C   0  0  0  0  0  0  0  0  0  0  0  0
   45.0420   34.3350   45.9620 N   0  0  0  0  0  0  0  0  0  0  0  0
   45.9260   33.4240   45.4340 C   0  0  0  0  0  0  0  0  0  0  0  0
   46.4380   33.5460   44.2250 N   0  0  0  0  0  0  0  0  0  0  0  0
   44.8850   36.4480   43.3310 H   0  0  0  0  0  0  0  0  0  0  0  0
   43.9480   36.1490   45.6540 H   0  0  0  0  0  0  0  0  0  0  0  0
   46.3260   32.2520   46.2680 C   0  0  1  0  0  0  0  0  0  0  0  0
   47.0510   32.4980   47.5700 C   0  0  0  0  0  0  0  0  0  0  0  0
   45.5910   32.1310   47.5470 C   0  0  1  0  0  0  0  0  0  0  0  0
   46.6520   31.3970   45.6640 H   0  0  0  0  0  0  0  0  0  0  0  0
   47.7980   31.7470   47.8370 H   0  0  0  0  0  0  0  0  0  0  0  0
   47.3870   33.5330   47.7070 H   0  0  0  0  0  0  0  0  0  0  0  0
   45.3540   31.1080   47.8620 H   0  0  0  0  0  0  0  0  0  0  0  0
   44.7540   33.2450   48.0020 N   0  0  0  0  0  0  0  0  0  0  0  0
   43.7570   32.9670   47.9090 H   0  0  0  0  0  0  0  0  0  0  0  0
   44.9850   33.5030   48.9970 H   0  0  0  0  0  0  0  0  0  0  0  0
   46.5700   34.8420   42.1610 C   0  0  0  0  0  0  0  0  0  0  0  0
   47.5380   35.6380   41.8980 O   0  0  0  0  0  0  0  0  0  0  0  0
   45.9400   34.1090   41.0950 N   0  0  0  0  0  0  0  0  0  0  0  0
   46.5090   33.4390   40.5050 H   0  0  0  0  0  0  0  0  0  0  0  0
   44.2490   34.3130   40.7670 S   0  0  0  0  0  0  0  0  0  0  0  0
   43.8740   35.7330   41.0880 O   0  0  0  0  0  1  0  0  0  0  0  0
   43.4840   33.3310   41.6280 O   0  0  0  0  0  1  0  0  0  0  0  0
   43.9390   34.0070   39.1500 O   0  0  0  0  0  0  0  0  0  0  0  0
   44.1100   34.8220   38.5960 H   0  0  0  0  0  0  0  0  0  0  0  0
  1  2  2  0  0  0  0
  1  6  1  0  0  0  0
  2  3  1  0  0  0  0
  3  8  1  0  0  0  0
  3  4  2  0  0  0  0
  5  4  1  0  0  0  0
  5  9  1  0  0  0  0
  6  5  2  0  0  0  0
  7  2  1  0  0  0  0
  9 12  1  6  0  0  0
  9 11  1  0  0  0  0
  9 10  1  0  0  0  0
 10 14  1  0  0  0  0
 10 13  1  0  0  0  0
 11 10  1  0  0  0  0
 11 15  1  1  0  0  0
 11 16  1  0  0  0  0
 16 18  1  0  0  0  0
 17 16  1  0  0  0  0
 19  1  1  0  0  0  0
 20 19  2  0  0  0  0
 21 19  1  0  0  0  0
 22 21  1  0  0  0  0
 23 24  1  0  0  0  0
 23 21  1  0  0  0  0
 23 25  1  0  0  0  0
 26 23  1  0  0  0  0
 27 26  1  0  0  0  0
M  END
>  <minimizedAffinity>
-5.40252066

>  <minimizedRMSD>
0.655804038

$$$$
