
 OpenBabel03242515013D

 35 36  0  0  0  0  0  0  0  0999 V2000
   43.5930   34.8650   40.7370 S   0  0  0  0  0  0  0  0  0  0  0  0
   44.9450   34.6010   41.8940 C   0  0  0  0  0  0  0  0  0  0  0  0
   46.2210   34.4630   41.3540 C   0  0  0  0  0  0  0  0  0  0  0  0
   47.2900   34.2590   42.2150 C   0  0  0  0  0  0  0  0  0  0  0  0
   47.0420   34.2020   43.5550 N   0  0  0  0  0  0  0  0  0  0  0  0
   45.8080   34.3380   44.0510 C   0  0  0  0  0  0  0  0  0  0  0  0
   44.7610   34.5370   43.2310 N   0  0  0  0  0  0  0  0  0  0  0  0
   46.4640   34.5000   40.2980 H   0  0  0  0  0  0  0  0  0  0  0  0
   48.2960   34.1460   41.8340 H   0  0  0  0  0  0  0  0  0  0  0  0
   45.6260   34.2650   45.5020 C   0  0  0  0  0  0  0  0  0  0  0  0
   44.5940   34.8270   45.9860 O   0  0  0  0  0  0  0  0  0  0  0  0
   46.6090   33.5770   46.2610 N   0  0  0  0  0  0  0  0  0  0  0  0
   47.6030   33.9200   46.2310 H   0  0  0  0  0  0  0  0  0  0  0  0
   46.1140   32.2220   47.1860 S   0  0  0  0  0  0  0  0  0  0  0  0
   45.7280   31.0400   46.3670 O   0  0  0  0  0  1  0  0  0  0  0  0
   44.9380   32.5560   48.0810 O   0  0  0  0  0  1  0  0  0  0  0  0
   47.4050   31.8090   48.2090 O   0  0  0  0  0  0  0  0  0  0  0  0
   48.2620   32.1500   47.8130 H   0  0  0  0  0  0  0  0  0  0  0  0
   42.0170   35.1120   41.5550 C   0  0  0  0  0  0  0  0  0  0  0  0
   42.2100   35.6050   42.5400 H   0  0  0  0  0  0  0  0  0  0  0  0
   41.4940   34.1690   41.8190 H   0  0  0  0  0  0  0  0  0  0  0  0
   41.1040   36.0240   40.8000 C   0  0  0  0  0  0  0  0  0  0  0  0
   41.7510   36.7260   40.1980 H   0  0  0  0  0  0  0  0  0  0  0  0
   40.4860   36.6860   41.4430 H   0  0  0  0  0  0  0  0  0  0  0  0
   41.8970   36.2400   37.8630 Cl  0  0  0  0  0  0  0  0  0  0  0  0
   40.5520   35.3020   38.4530 C   0  0  0  0  0  0  0  0  0  0  0  0
   40.2710   35.2690   39.8240 C   0  0  0  0  0  0  0  0  0  0  0  0
   39.1920   34.5040   40.2050 C   0  0  0  0  0  0  0  0  0  0  0  0
   38.3600   33.7690   39.3730 C   0  0  0  0  0  0  0  0  0  0  0  0
   38.6660   33.8230   38.0140 C   0  0  0  0  0  0  0  0  0  0  0  0
   37.6750   32.9260   36.8700 Cl  0  0  0  0  0  0  0  0  0  0  0  0
   39.7330   34.5710   37.5810 C   0  0  0  0  0  0  0  0  0  0  0  0
   39.0090   34.5050   41.2750 H   0  0  0  0  0  0  0  0  0  0  0  0
   37.5380   33.1980   39.7620 H   0  0  0  0  0  0  0  0  0  0  0  0
   39.9230   34.5750   36.5150 H   0  0  0  0  0  0  0  0  0  0  0  0
  1 19  1  0  0  0  0
  1  2  1  0  0  0  0
  2  7  1  0  0  0  0
  3  2  2  0  0  0  0
  3  4  1  0  0  0  0
  4  5  2  0  0  0  0
  5  6  1  0  0  0  0
  6 10  1  0  0  0  0
  7  6  2  0  0  0  0
  8  3  1  0  0  0  0
  9  4  1  0  0  0  0
 10 11  2  0  0  0  0
 10 12  1  0  0  0  0
 12 14  1  0  0  0  0
 13 12  1  0  0  0  0
 14 16  1  0  0  0  0
 14 17  1  0  0  0  0
 15 14  1  0  0  0  0
 18 17  1  0  0  0  0
 19 21  1  0  0  0  0
 19 20  1  0  0  0  0
 22 24  1  0  0  0  0
 22 19  1  0  0  0  0
 23 22  1  0  0  0  0
 25 26  1  0  0  0  0
 26 27  1  0  0  0  0
 27 28  2  0  0  0  0
 27 22  1  0  0  0  0
 28 33  1  0  0  0  0
 29 34  1  0  0  0  0
 29 28  1  0  0  0  0
 30 29  2  0  0  0  0
 31 30  1  0  0  0  0
 32 30  1  0  0  0  0
 32 26  2  0  0  0  0
 35 32  1  0  0  0  0
M  END
>  <minimizedAffinity>
-6.82488441

>  <minimizedRMSD>
0.594747484

$$$$
