
 OpenBabel03252507373D

 36 39  0  0  0  0  0  0  0  0999 V2000
   45.2810   34.5880   43.7280 C   0  0  0  0  0  0  0  0  0  0  0  0
   46.0500   33.5370   44.2840 C   0  0  0  0  0  0  0  0  0  0  0  0
   46.0130   33.3790   45.6570 C   0  0  0  0  0  0  0  0  0  0  0  0
   45.2590   34.2190   46.3960 N   0  0  0  0  0  0  0  0  0  0  0  0
   44.5270   35.2230   45.8400 C   0  0  0  0  0  0  0  0  0  0  0  0
   44.5450   35.3950   44.5270 N   0  0  0  0  0  0  0  0  0  0  0  0
   46.6490   32.8690   43.7200 H   0  0  0  0  0  0  0  0  0  0  0  0
   43.9500   35.8450   46.5280 H   0  0  0  0  0  0  0  0  0  0  0  0
   47.1310   32.6260   47.6880 C   0  0  0  0  0  0  0  0  0  0  0  0
   46.7440   32.3490   46.3810 C   0  0  0  0  0  0  0  0  0  0  0  0
   47.0700   31.1230   45.8520 C   0  0  0  0  0  0  0  0  0  0  0  0
   47.7600   30.1690   46.5660 C   0  0  0  0  0  0  0  0  0  0  0  0
   48.1790   28.9180   46.2530 N   0  0  0  0  0  0  0  0  0  0  0  0
   48.8260   28.4150   47.3590 C   0  0  0  0  0  0  0  0  0  0  0  0
   48.7930   29.3490   48.3150 N   0  0  0  0  0  0  0  0  0  0  0  0
   48.1450   30.4350   47.8550 C   0  0  0  0  0  0  0  0  0  0  0  0
   47.8310   31.6560   48.4100 C   0  0  0  0  0  0  0  0  0  0  0  0
   46.9430   33.5310   48.2160 H   0  0  0  0  0  0  0  0  0  0  0  0
   46.7700   30.9090   44.8400 H   0  0  0  0  0  0  0  0  0  0  0  0
   48.0060   28.4780   45.3150 H   0  0  0  0  0  0  0  0  0  0  0  0
   49.2310   27.4090   47.2840 H   0  0  0  0  0  0  0  0  0  0  0  0
   48.1480   31.8350   49.4280 H   0  0  0  0  0  0  0  0  0  0  0  0
   45.3140   34.7520   42.3440 O   0  0  0  0  0  0  0  0  0  0  0  0
   44.1420   34.7120   41.6080 C   0  0  0  0  0  0  0  0  0  0  0  0
   43.8990   33.3810   41.5740 C   0  0  0  0  0  0  0  0  0  0  0  0
   42.2790   33.3180   40.5590 S   0  0  0  0  0  0  0  0  0  0  0  0
   42.3240   35.2000   40.4180 C   0  0  0  0  0  0  0  0  0  0  0  0
   43.2450   35.4330   40.9780 N   0  0  0  0  0  0  0  0  0  0  0  0
   44.1530   32.2870   41.8330 H   0  0  0  0  0  0  0  0  0  0  0  0
   41.2480   35.8070   39.6840 N   0  0  0  0  0  0  0  0  0  0  0  0
   40.4540   36.3200   40.1230 H   0  0  0  0  0  0  0  0  0  0  0  0
   41.3070   35.6590   37.9930 S   0  0  0  0  0  0  0  0  0  0  0  0
   42.5980   35.0750   37.4990 O   0  0  0  0  0  1  0  0  0  0  0  0
   40.1780   34.7620   37.5060 O   0  0  0  0  0  1  0  0  0  0  0  0
   41.0910   37.1290   37.2070 O   0  0  0  0  0  0  0  0  0  0  0  0
   40.5850   37.7750   37.7580 H   0  0  0  0  0  0  0  0  0  0  0  0
  1  2  2  0  0  0  0
  1  6  1  0  0  0  0
  2  3  1  0  0  0  0
  3 10  1  0  0  0  0
  3  4  2  0  0  0  0
  5  4  1  0  0  0  0
  5  8  1  0  0  0  0
  6  5  2  0  0  0  0
  7  2  1  0  0  0  0
  9 18  1  0  0  0  0
  9 17  1  0  0  0  0
 10  9  2  0  0  0  0
 11 10  1  0  0  0  0
 11 12  2  0  0  0  0
 12 16  1  0  0  0  0
 13 12  1  0  0  0  0
 13 14  1  0  0  0  0
 14 15  2  0  0  0  0
 16 15  1  0  0  0  0
 16 17  2  0  0  0  0
 17 22  1  0  0  0  0
 19 11  1  0  0  0  0
 20 13  1  0  0  0  0
 21 14  1  0  0  0  0
 23  1  1  0  0  0  0
 24 23  1  0  0  0  0
 25 24  2  0  0  0  0
 25 29  1  0  0  0  0
 26 25  1  0  0  0  0
 27 26  1  0  0  0  0
 27 28  2  0  0  0  0
 28 24  1  0  0  0  0
 30 31  1  0  0  0  0
 30 27  1  0  0  0  0
 32 30  1  0  0  0  0
 33 32  1  0  0  0  0
 34 32  1  0  0  0  0
 35 36  1  0  0  0  0
 35 32  1  0  0  0  0
M  END
>  <minimizedAffinity>
-5.58881712

>  <minimizedRMSD>
0.672641516

$$$$
