
 OpenBabel03242515013D

 35 36  0  0  0  0  0  0  0  0999 V2000
   43.4140   34.8230   40.7050 S   0  0  0  0  0  0  0  0  0  0  0  0
   44.7050   34.6770   41.9480 C   0  0  0  0  0  0  0  0  0  0  0  0
   46.0230   34.7700   41.5050 C   0  0  0  0  0  0  0  0  0  0  0  0
   47.0470   34.6620   42.4360 C   0  0  0  0  0  0  0  0  0  0  0  0
   46.7160   34.4690   43.7450 N   0  0  0  0  0  0  0  0  0  0  0  0
   45.4450   34.3830   44.1460 C   0  0  0  0  0  0  0  0  0  0  0  0
   44.4400   34.4850   43.2590 N   0  0  0  0  0  0  0  0  0  0  0  0
   46.3310   34.9230   40.4780 H   0  0  0  0  0  0  0  0  0  0  0  0
   48.0820   34.7290   42.1320 H   0  0  0  0  0  0  0  0  0  0  0  0
   45.1740   34.1740   45.5700 C   0  0  0  0  0  0  0  0  0  0  0  0
   44.6980   35.1570   46.2210 O   0  0  0  0  0  0  0  0  0  0  0  0
   45.4610   32.8970   46.1210 N   0  0  0  0  0  0  0  0  0  0  0  0
   45.2720   32.7320   47.1410 H   0  0  0  0  0  0  0  0  0  0  0  0
   46.1020   31.6940   45.0830 S   0  0  0  0  0  0  0  0  0  0  0  0
   47.5130   31.9410   44.6710 O   0  0  0  0  0  1  0  0  0  0  0  0
   45.2820   31.5520   43.8180 O   0  0  0  0  0  1  0  0  0  0  0  0
   46.0010   30.2100   45.9030 O   0  0  0  0  0  0  0  0  0  0  0  0
   45.9690   30.3820   46.8910 H   0  0  0  0  0  0  0  0  0  0  0  0
   41.7760   34.9790   41.4180 C   0  0  0  0  0  0  0  0  0  0  0  0
   41.8830   35.4250   42.4380 H   0  0  0  0  0  0  0  0  0  0  0  0
   41.2690   34.0080   41.5960 H   0  0  0  0  0  0  0  0  0  0  0  0
   40.8880   35.9010   40.6460 C   0  0  0  0  0  0  0  0  0  0  0  0
   41.5550   36.6100   40.0740 H   0  0  0  0  0  0  0  0  0  0  0  0
   40.2510   36.5560   41.2780 H   0  0  0  0  0  0  0  0  0  0  0  0
   41.7290   36.2120   37.7310 Cl  0  0  0  0  0  0  0  0  0  0  0  0
   40.3900   35.2360   38.2700 C   0  0  0  0  0  0  0  0  0  0  0  0
   40.0860   35.1590   39.6350 C   0  0  0  0  0  0  0  0  0  0  0  0
   39.0140   34.3660   39.9750 C   0  0  0  0  0  0  0  0  0  0  0  0
   38.2100   33.6400   39.1090 C   0  0  0  0  0  0  0  0  0  0  0  0
   38.5380   33.7370   37.7570 C   0  0  0  0  0  0  0  0  0  0  0  0
   37.5830   32.8560   36.5720 Cl  0  0  0  0  0  0  0  0  0  0  0  0
   39.6000   34.5150   37.3650 C   0  0  0  0  0  0  0  0  0  0  0  0
   38.8130   34.3340   41.0420 H   0  0  0  0  0  0  0  0  0  0  0  0
   37.3910   33.0450   39.4680 H   0  0  0  0  0  0  0  0  0  0  0  0
   39.8080   34.5520   36.3030 H   0  0  0  0  0  0  0  0  0  0  0  0
  1 19  1  0  0  0  0
  1  2  1  0  0  0  0
  2  7  1  0  0  0  0
  3  2  2  0  0  0  0
  3  4  1  0  0  0  0
  4  5  2  0  0  0  0
  5  6  1  0  0  0  0
  6 10  1  0  0  0  0
  7  6  2  0  0  0  0
  8  3  1  0  0  0  0
  9  4  1  0  0  0  0
 10 12  1  0  0  0  0
 10 11  2  0  0  0  0
 12 13  1  0  0  0  0
 14 17  1  0  0  0  0
 14 12  1  0  0  0  0
 15 14  1  0  0  0  0
 16 14  1  0  0  0  0
 17 18  1  0  0  0  0
 19 21  1  0  0  0  0
 19 20  1  0  0  0  0
 22 24  1  0  0  0  0
 22 19  1  0  0  0  0
 23 22  1  0  0  0  0
 25 26  1  0  0  0  0
 26 27  1  0  0  0  0
 27 28  2  0  0  0  0
 27 22  1  0  0  0  0
 28 33  1  0  0  0  0
 29 34  1  0  0  0  0
 29 28  1  0  0  0  0
 30 29  2  0  0  0  0
 31 30  1  0  0  0  0
 32 30  1  0  0  0  0
 32 26  2  0  0  0  0
 35 32  1  0  0  0  0
M  END
>  <minimizedAffinity>
-6.14288473

>  <minimizedRMSD>
0.609593391

$$$$
