
 OpenBabel03242515013D

 35 36  0  0  0  0  0  0  0  0999 V2000
   43.7800   34.7120   40.7720 S   0  0  0  0  0  0  0  0  0  0  0  0
   45.0810   34.4540   41.9870 C   0  0  0  0  0  0  0  0  0  0  0  0
   46.3780   34.7880   41.6030 C   0  0  0  0  0  0  0  0  0  0  0  0
   47.4090   34.6030   42.5140 C   0  0  0  0  0  0  0  0  0  0  0  0
   47.1050   34.1030   43.7450 N   0  0  0  0  0  0  0  0  0  0  0  0
   45.8530   33.7900   44.0910 C   0  0  0  0  0  0  0  0  0  0  0  0
   44.8420   33.9630   43.2220 N   0  0  0  0  0  0  0  0  0  0  0  0
   46.6650   35.1870   40.6370 H   0  0  0  0  0  0  0  0  0  0  0  0
   48.4300   34.8500   42.2540 H   0  0  0  0  0  0  0  0  0  0  0  0
   45.6100   33.2580   45.4330 C   0  0  0  0  0  0  0  0  0  0  0  0
   45.3920   34.0990   46.3610 O   0  0  0  0  0  0  0  0  0  0  0  0
   45.6350   31.8480   45.6030 N   0  0  0  0  0  0  0  0  0  0  0  0
   45.2360   31.4380   46.4850 H   0  0  0  0  0  0  0  0  0  0  0  0
   46.3220   30.8950   44.3550 S   0  0  0  0  0  0  0  0  0  0  0  0
   47.7430   31.2270   44.0540 O   0  0  0  0  0  1  0  0  0  0  0  0
   45.5440   31.0250   43.0610 O   0  0  0  0  0  1  0  0  0  0  0  0
   46.2060   29.2710   44.8360 O   0  0  0  0  0  0  0  0  0  0  0  0
   46.1400   29.2270   45.8370 H   0  0  0  0  0  0  0  0  0  0  0  0
   42.1620   34.9160   41.5190 C   0  0  0  0  0  0  0  0  0  0  0  0
   42.3050   35.3240   42.5500 H   0  0  0  0  0  0  0  0  0  0  0  0
   41.6160   33.9620   41.6760 H   0  0  0  0  0  0  0  0  0  0  0  0
   41.3020   35.8990   40.7910 C   0  0  0  0  0  0  0  0  0  0  0  0
   41.9870   36.5580   40.1820 H   0  0  0  0  0  0  0  0  0  0  0  0
   40.7470   36.5970   41.4530 H   0  0  0  0  0  0  0  0  0  0  0  0
   42.0380   36.1030   37.8380 Cl  0  0  0  0  0  0  0  0  0  0  0  0
   40.6470   35.2500   38.4490 C   0  0  0  0  0  0  0  0  0  0  0  0
   40.3980   35.2150   39.8260 C   0  0  0  0  0  0  0  0  0  0  0  0
   39.2780   34.5200   40.2240 C   0  0  0  0  0  0  0  0  0  0  0  0
   38.3790   33.8540   39.4030 C   0  0  0  0  0  0  0  0  0  0  0  0
   38.6550   33.9080   38.0380 C   0  0  0  0  0  0  0  0  0  0  0  0
   37.5790   33.0960   36.9080 Cl  0  0  0  0  0  0  0  0  0  0  0  0
   39.7600   34.5880   37.5890 C   0  0  0  0  0  0  0  0  0  0  0  0
   39.1220   34.5170   41.2990 H   0  0  0  0  0  0  0  0  0  0  0  0
   37.5290   33.3350   39.8060 H   0  0  0  0  0  0  0  0  0  0  0  0
   39.9250   34.5950   36.5180 H   0  0  0  0  0  0  0  0  0  0  0  0
  1 19  1  0  0  0  0
  1  2  1  0  0  0  0
  2  7  1  0  0  0  0
  3  2  2  0  0  0  0
  3  4  1  0  0  0  0
  4  5  2  0  0  0  0
  5  6  1  0  0  0  0
  6 10  1  0  0  0  0
  7  6  2  0  0  0  0
  8  3  1  0  0  0  0
  9  4  1  0  0  0  0
 10 12  1  0  0  0  0
 10 11  2  0  0  0  0
 12 13  1  0  0  0  0
 14 17  1  0  0  0  0
 14 12  1  0  0  0  0
 15 14  1  0  0  0  0
 16 14  1  0  0  0  0
 17 18  1  0  0  0  0
 19 21  1  0  0  0  0
 19 20  1  0  0  0  0
 22 24  1  0  0  0  0
 22 19  1  0  0  0  0
 23 22  1  0  0  0  0
 25 26  1  0  0  0  0
 26 27  1  0  0  0  0
 27 28  2  0  0  0  0
 27 22  1  0  0  0  0
 28 33  1  0  0  0  0
 29 34  1  0  0  0  0
 29 28  1  0  0  0  0
 30 29  2  0  0  0  0
 31 30  1  0  0  0  0
 32 30  1  0  0  0  0
 32 26  2  0  0  0  0
 35 32  1  0  0  0  0
M  END
>  <minimizedAffinity>
-5.84007072

>  <minimizedRMSD>
1.13760829

$$$$
