
 OpenBabel03242516533D

 43 45  0  0  1  0  0  0  0  0999 V2000
   47.8420   32.9130   41.8850 C   0  0  1  0  0  0  0  0  0  0  0  0
   47.5620   32.1070   40.6980 C   0  0  0  0  0  0  0  0  0  0  0  0
   48.5470   32.5680   39.6270 C   0  0  0  0  0  0  0  0  0  0  0  0
   48.1150   33.9710   39.2180 C   0  0  0  0  0  0  0  0  0  0  0  0
   47.9920   34.9320   40.3610 C   0  0  0  0  0  0  0  0  0  0  0  0
   47.5470   34.3990   41.6540 C   0  0  1  0  0  0  0  0  0  0  0  0
   48.9620   32.9180   42.0620 H   0  0  0  0  0  0  0  0  0  0  0  0
   46.5570   32.3010   40.2460 H   0  0  0  0  0  0  0  0  0  0  0  0
   47.7530   31.0510   40.8790 H   0  0  0  0  0  0  0  0  0  0  0  0
   48.3360   31.9190   38.7400 H   0  0  0  0  0  0  0  0  0  0  0  0
   49.5790   32.5210   39.9710 H   0  0  0  0  0  0  0  0  0  0  0  0
   48.8180   34.3430   38.4620 H   0  0  0  0  0  0  0  0  0  0  0  0
   47.1250   33.8460   38.7180 H   0  0  0  0  0  0  0  0  0  0  0  0
   48.9720   35.4880   40.4330 H   0  0  0  0  0  0  0  0  0  0  0  0
   47.2690   35.7100   40.0310 H   0  0  0  0  0  0  0  0  0  0  0  0
   48.1320   34.9300   42.4650 H   0  0  0  0  0  0  0  0  0  0  0  0
   45.6570   30.9930   44.2970 C   0  0  0  0  0  0  0  0  0  0  0  0
   46.2910   31.4600   43.1410 C   0  0  0  0  0  0  0  0  0  0  0  0
   47.2390   32.4880   43.1300 C   0  0  0  0  0  0  0  0  0  0  0  0
   47.5200   33.0230   44.3190 N   0  0  0  0  0  0  0  0  0  0  0  0
   46.9150   32.5840   45.4520 C   0  0  0  0  0  0  0  0  0  0  0  0
   46.0130   31.6060   45.4650 N   0  0  0  0  0  0  0  0  0  0  0  0
   44.9400   30.2000   44.2300 H   0  0  0  0  0  0  0  0  0  0  0  0
   46.0050   30.9700   42.2190 H   0  0  0  0  0  0  0  0  0  0  0  0
   47.2330   33.1060   46.3580 H   0  0  0  0  0  0  0  0  0  0  0  0
   46.1480   34.7210   41.9390 C   0  0  0  0  0  0  0  0  0  0  0  0
   45.6550   35.2910   43.1220 C   0  0  0  0  0  0  0  0  0  0  0  0
   44.2770   35.5240   43.1580 C   0  0  0  0  0  0  0  0  0  0  0  0
   43.5310   35.1810   42.0520 C   0  0  0  0  0  0  0  0  0  0  0  0
   44.0350   34.6210   40.8990 C   0  0  0  0  0  0  0  0  0  0  0  0
   45.3780   34.3950   40.8680 N   0  0  0  0  0  0  0  0  0  0  0  0
   46.3580   35.4970   43.8810 H   0  0  0  0  0  0  0  0  0  0  0  0
   43.8800   35.9630   44.0580 H   0  0  0  0  0  0  0  0  0  0  0  0
   42.4660   35.3940   42.1560 H   0  0  0  0  0  0  0  0  0  0  0  0
   43.1610   34.2930   39.7640 C   0  0  0  0  0  0  0  0  0  0  0  0
   43.0140   35.1590   38.8620 O   0  0  0  0  0  0  0  0  0  0  0  0
   42.4960   33.0360   39.6790 N   0  0  0  0  0  0  0  0  0  0  0  0
   41.7240   33.0050   38.9760 H   0  0  0  0  0  0  0  0  0  0  0  0
   43.1160   31.8390   40.7580 S   0  0  0  0  0  0  0  0  0  0  0  0
   44.4950   31.4020   40.3690 O   0  0  0  0  0  1  0  0  0  0  0  0
   43.0690   32.2780   42.1950 O   0  0  0  0  0  1  0  0  0  0  0  0
   42.0650   30.5070   40.6430 O   0  0  0  0  0  0  0  0  0  0  0  0
   41.3100   30.6040   41.2780 H   0  0  0  0  0  0  0  0  0  0  0  0
  1  7  1  1  0  0  0
  1 19  1  0  0  0  0
  2  9  1  0  0  0  0
  2  1  1  0  0  0  0
  3 11  1  0  0  0  0
  3  2  1  0  0  0  0
  4  3  1  0  0  0  0
  4  5  1  0  0  0  0
  5 14  1  0  0  0  0
  5  6  1  0  0  0  0
  6  1  1  0  0  0  0
  6 26  1  0  0  0  0
  6 16  1  1  0  0  0
  8  2  1  0  0  0  0
 10  3  1  0  0  0  0
 12  4  1  0  0  0  0
 13  4  1  0  0  0  0
 15  5  1  0  0  0  0
 17 22  1  0  0  0  0
 18 17  2  0  0  0  0
 19 18  1  0  0  0  0
 19 20  2  0  0  0  0
 20 21  1  0  0  0  0
 21 22  2  0  0  0  0
 21 25  1  0  0  0  0
 23 17  1  0  0  0  0
 24 18  1  0  0  0  0
 26 27  1  0  0  0  0
 27 28  2  0  0  0  0
 27 32  1  0  0  0  0
 28 33  1  0  0  0  0
 29 34  1  0  0  0  0
 29 28  1  0  0  0  0
 30 29  2  0  0  0  0
 31 30  1  0  0  0  0
 31 26  2  0  0  0  0
 35 30  1  0  0  0  0
 36 35  2  0  0  0  0
 37 35  1  0  0  0  0
 37 39  1  0  0  0  0
 38 37  1  0  0  0  0
 39 41  1  0  0  0  0
 40 39  1  0  0  0  0
 42 39  1  0  0  0  0
 42 43  1  0  0  0  0
M  END
>  <minimizedAffinity>
-4.81084347

>  <minimizedRMSD>
1.07336497

$$$$
