
 OpenBabel03252507373D

 36 39  0  0  0  0  0  0  0  0999 V2000
   46.2460   31.9350   42.9760 C   0  0  0  0  0  0  0  0  0  0  0  0
   45.2240   32.7420   42.4220 C   0  0  0  0  0  0  0  0  0  0  0  0
   43.9450   32.2190   42.3930 C   0  0  0  0  0  0  0  0  0  0  0  0
   43.7290   30.9820   42.8850 N   0  0  0  0  0  0  0  0  0  0  0  0
   44.7270   30.2220   43.4140 C   0  0  0  0  0  0  0  0  0  0  0  0
   45.9620   30.7010   43.4540 N   0  0  0  0  0  0  0  0  0  0  0  0
   45.3740   33.7150   42.0300 H   0  0  0  0  0  0  0  0  0  0  0  0
   44.4440   29.2350   43.7860 H   0  0  0  0  0  0  0  0  0  0  0  0
   41.7070   32.1560   41.4300 C   0  0  0  0  0  0  0  0  0  0  0  0
   42.7860   32.9200   41.8580 C   0  0  0  0  0  0  0  0  0  0  0  0
   42.6970   34.2880   41.7560 C   0  0  0  0  0  0  0  0  0  0  0  0
   41.5840   34.9210   41.2480 C   0  0  0  0  0  0  0  0  0  0  0  0
   41.2830   36.2290   41.0590 N   0  0  0  0  0  0  0  0  0  0  0  0
   40.0210   36.2830   40.5140 C   0  0  0  0  0  0  0  0  0  0  0  0
   39.5760   35.0300   40.3800 N   0  0  0  0  0  0  0  0  0  0  0  0
   40.5160   34.1740   40.8230 C   0  0  0  0  0  0  0  0  0  0  0  0
   40.5790   32.8020   40.9150 C   0  0  0  0  0  0  0  0  0  0  0  0
   41.6450   31.0940   41.4530 H   0  0  0  0  0  0  0  0  0  0  0  0
   43.5340   34.8800   42.0880 H   0  0  0  0  0  0  0  0  0  0  0  0
   41.9450   37.0070   41.3070 H   0  0  0  0  0  0  0  0  0  0  0  0
   39.6150   37.2670   40.2940 H   0  0  0  0  0  0  0  0  0  0  0  0
   39.7200   32.2410   40.5720 H   0  0  0  0  0  0  0  0  0  0  0  0
   47.5380   32.4570   43.0090 O   0  0  0  0  0  0  0  0  0  0  0  0
   47.9630   33.3350   42.0260 C   0  0  0  0  0  0  0  0  0  0  0  0
   48.4020   34.3740   42.7740 C   0  0  0  0  0  0  0  0  0  0  0  0
   48.9920   35.5910   41.4210 S   0  0  0  0  0  0  0  0  0  0  0  0
   48.4770   34.3380   40.1060 C   0  0  0  0  0  0  0  0  0  0  0  0
   48.0890   33.5190   40.7340 N   0  0  0  0  0  0  0  0  0  0  0  0
   48.6020   34.8980   43.7800 H   0  0  0  0  0  0  0  0  0  0  0  0
   48.6970   34.7260   38.7400 N   0  0  0  0  0  0  0  0  0  0  0  0
   49.1140   35.6340   38.4470 H   0  0  0  0  0  0  0  0  0  0  0  0
   48.2360   33.6030   37.5510 S   0  0  0  0  0  0  0  0  0  0  0  0
   48.7680   32.2230   37.8090 O   0  0  0  0  0  1  0  0  0  0  0  0
   46.7180   33.5070   37.4820 O   0  0  0  0  0  1  0  0  0  0  0  0
   48.7340   34.0500   36.0100 O   0  0  0  0  0  0  0  0  0  0  0  0
   48.8580   35.0280   35.9280 H   0  0  0  0  0  0  0  0  0  0  0  0
  1 23  1  0  0  0  0
  1  6  1  0  0  0  0
  2  1  2  0  0  0  0
  3  2  1  0  0  0  0
  3  4  2  0  0  0  0
  4  5  1  0  0  0  0
  5  6  2  0  0  0  0
  5  8  1  0  0  0  0
  7  2  1  0  0  0  0
  9 18  1  0  0  0  0
  9 10  1  0  0  0  0
 10  3  1  0  0  0  0
 11 10  2  0  0  0  0
 11 19  1  0  0  0  0
 12 11  1  0  0  0  0
 13 12  1  0  0  0  0
 13 20  1  0  0  0  0
 14 13  1  0  0  0  0
 15 14  2  0  0  0  0
 15 16  1  0  0  0  0
 16 17  1  0  0  0  0
 16 12  2  0  0  0  0
 17  9  2  0  0  0  0
 21 14  1  0  0  0  0
 22 17  1  0  0  0  0
 24 25  2  0  0  0  0
 24 23  1  0  0  0  0
 25 29  1  0  0  0  0
 26 25  1  0  0  0  0
 27 28  2  0  0  0  0
 27 26  1  0  0  0  0
 28 24  1  0  0  0  0
 30 27  1  0  0  0  0
 31 30  1  0  0  0  0
 32 33  1  0  0  0  0
 32 30  1  0  0  0  0
 34 32  1  0  0  0  0
 35 32  1  0  0  0  0
 36 35  1  0  0  0  0
M  END
>  <minimizedAffinity>
-5.08136463

>  <minimizedRMSD>
7.78960466

$$$$
