
 OpenBabel03252501333D

 22 22  0  0  0  0  0  0  0  0999 V2000
   36.4710   28.3350   41.4210 C   0  0  0  0  0  0  0  0  0  0  0  0
   37.0290   27.9480   42.6280 C   0  0  0  0  0  0  0  0  0  0  0  0
   37.6020   26.6830   42.6770 C   0  0  0  0  0  0  0  0  0  0  0  0
   37.5750   25.9300   41.5640 N   0  0  0  0  0  0  0  0  0  0  0  0
   37.0310   26.3230   40.4110 C   0  0  0  0  0  0  0  0  0  0  0  0
   36.4640   27.5440   40.3180 N   0  0  0  0  0  0  0  0  0  0  0  0
   38.0250   26.4070   43.6170 H   0  0  0  0  0  0  0  0  0  0  0  0
   36.9990   25.7340   39.5040 H   0  0  0  0  0  0  0  0  0  0  0  0
   36.8380   30.6040   40.9810 C   0  0  0  0  0  0  0  0  0  0  0  0
   38.0040   30.1330   41.1160 O   0  0  0  0  0  0  0  0  0  0  0  0
   35.8280   29.5960   41.1460 N   0  0  0  0  0  0  0  0  0  0  0  0
   34.8350   29.8180   41.0660 H   0  0  0  0  0  0  0  0  0  0  0  0
   36.4860   31.9660   40.6960 N   0  0  0  0  0  0  0  0  0  0  0  0
   35.5690   32.3180   41.0680 H   0  0  0  0  0  0  0  0  0  0  0  0
   37.5960   32.8860   39.7770 S   0  0  0  0  0  0  0  0  0  0  0  0
   38.1200   32.0510   38.6230 O   0  0  0  0  0  1  0  0  0  0  0  0
   38.7320   33.4400   40.5820 O   0  0  0  0  0  1  0  0  0  0  0  0
   36.7610   34.1610   39.0680 O   0  0  0  0  0  0  0  0  0  0  0  0
   35.8530   33.8180   38.8650 H   0  0  0  0  0  0  0  0  0  0  0  0
   36.9520   28.8920   43.6790 N   0  0  0  0  0  0  0  0  0  0  0  0
   37.6550   29.5940   43.9330 H   0  0  0  0  0  0  0  0  0  0  0  0
   36.1150   28.9430   44.3160 H   0  0  0  0  0  0  0  0  0  0  0  0
  1  2  1  0  0  0  0
  2  3  2  0  0  0  0
  2 20  1  0  0  0  0
  3  7  1  0  0  0  0
  4  3  1  0  0  0  0
  5  4  2  0  0  0  0
  6  5  1  0  0  0  0
  6  1  2  0  0  0  0
  8  5  1  0  0  0  0
  9 10  2  0  0  0  0
  9 11  1  0  0  0  0
 11  1  1  0  0  0  0
 12 11  1  0  0  0  0
 13  9  1  0  0  0  0
 13 14  1  0  0  0  0
 15 17  1  0  0  0  0
 15 13  1  0  0  0  0
 16 15  1  0  0  0  0
 18 15  1  0  0  0  0
 19 18  1  0  0  0  0
 20 21  1  0  0  0  0
 20 22  1  0  0  0  0
M  END
>  <minimizedAffinity>
-5.42069292

$$$$

 OpenBabel03252501333D

 22 22  0  0  0  0  0  0  0  0999 V2000
   38.4890   31.4670   41.0840 C   0  0  0  0  0  0  0  0  0  0  0  0
   37.2010   31.7820   40.6840 C   0  0  0  0  0  0  0  0  0  0  0  0
   36.2110   30.8480   40.9650 C   0  0  0  0  0  0  0  0  0  0  0  0
   36.5660   29.7150   41.5970 N   0  0  0  0  0  0  0  0  0  0  0  0
   37.8140   29.4330   41.9720 C   0  0  0  0  0  0  0  0  0  0  0  0
   38.8070   30.3120   41.7210 N   0  0  0  0  0  0  0  0  0  0  0  0
   35.2270   31.1120   40.6470 H   0  0  0  0  0  0  0  0  0  0  0  0
   38.1230   28.5290   42.4810 H   0  0  0  0  0  0  0  0  0  0  0  0
   40.2770   31.9320   39.6480 C   0  0  0  0  0  0  0  0  0  0  0  0
   39.6440   31.0150   39.0510 O   0  0  0  0  0  0  0  0  0  0  0  0
   39.6620   32.2850   40.8970 N   0  0  0  0  0  0  0  0  0  0  0  0
   40.0530   33.0110   41.4990 H   0  0  0  0  0  0  0  0  0  0  0  0
   41.4710   32.5890   39.1990 N   0  0  0  0  0  0  0  0  0  0  0  0
   42.1340   32.9450   39.9310 H   0  0  0  0  0  0  0  0  0  0  0  0
   41.7000   32.7290   37.5100 S   0  0  0  0  0  0  0  0  0  0  0  0
   42.5410   31.5680   37.0100 O   0  0  0  0  0  1  0  0  0  0  0  0
   42.3060   34.0340   37.0910 O   0  0  0  0  0  1  0  0  0  0  0  0
   40.2060   32.5590   36.7610 O   0  0  0  0  0  0  0  0  0  0  0  0
   39.6920   31.9120   37.3110 H   0  0  0  0  0  0  0  0  0  0  0  0
   37.0390   33.0280   40.0330 N   0  0  0  0  0  0  0  0  0  0  0  0
   36.7930   33.9240   40.4650 H   0  0  0  0  0  0  0  0  0  0  0  0
   37.1680   33.1280   38.9920 H   0  0  0  0  0  0  0  0  0  0  0  0
  1  6  1  0  0  0  0
  2  3  1  0  0  0  0
  2  1  2  0  0  0  0
  3  4  2  0  0  0  0
  4  5  1  0  0  0  0
  5  8  1  0  0  0  0
  6  5  2  0  0  0  0
  7  3  1  0  0  0  0
  9 11  1  0  0  0  0
 10  9  2  0  0  0  0
 11  1  1  0  0  0  0
 11 12  1  0  0  0  0
 13  9  1  0  0  0  0
 13 14  1  0  0  0  0
 15 13  1  0  0  0  0
 16 15  1  0  0  0  0
 17 15  1  0  0  0  0
 18 19  1  0  0  0  0
 18 15  1  0  0  0  0
 20 21  1  0  0  0  0
 20  2  1  0  0  0  0
 22 20  1  0  0  0  0
M  END
>  <minimizedAffinity>
-4.85903883

$$$$

 OpenBabel03252501333D

 22 22  0  0  0  0  0  0  0  0999 V2000
   37.5140   31.0970   38.9540 C   0  0  0  0  0  0  0  0  0  0  0  0
   36.9180   31.5540   40.1180 C   0  0  0  0  0  0  0  0  0  0  0  0
   36.4080   30.5910   40.9810 C   0  0  0  0  0  0  0  0  0  0  0  0
   36.5260   29.2980   40.6310 N   0  0  0  0  0  0  0  0  0  0  0  0
   37.1040   28.8810   39.5040 C   0  0  0  0  0  0  0  0  0  0  0  0
   37.6130   29.7810   38.6360 N   0  0  0  0  0  0  0  0  0  0  0  0
   35.9540   30.9660   41.8700 H   0  0  0  0  0  0  0  0  0  0  0  0
   37.2090   27.8470   39.2030 H   0  0  0  0  0  0  0  0  0  0  0  0
   39.4680   32.1960   38.2820 C   0  0  0  0  0  0  0  0  0  0  0  0
   39.7870   31.6650   39.3840 O   0  0  0  0  0  0  0  0  0  0  0  0
   38.1060   31.9150   37.9230 N   0  0  0  0  0  0  0  0  0  0  0  0
   37.6960   32.2720   37.0590 H   0  0  0  0  0  0  0  0  0  0  0  0
   40.3060   32.9950   37.4350 N   0  0  0  0  0  0  0  0  0  0  0  0
   39.8430   33.7350   36.8510 H   0  0  0  0  0  0  0  0  0  0  0  0
   41.9840   32.6650   37.4570 S   0  0  0  0  0  0  0  0  0  0  0  0
   42.2640   31.3880   36.6830 O   0  0  0  0  0  1  0  0  0  0  0  0
   42.5630   32.5790   38.8370 O   0  0  0  0  0  1  0  0  0  0  0  0
   42.7720   33.8850   36.6120 O   0  0  0  0  0  0  0  0  0  0  0  0
   42.1570   34.1580   35.8830 H   0  0  0  0  0  0  0  0  0  0  0  0
   36.8970   32.9570   40.2960 N   0  0  0  0  0  0  0  0  0  0  0  0
   37.5900   33.5270   40.7930 H   0  0  0  0  0  0  0  0  0  0  0  0
   36.1210   33.5520   39.9070 H   0  0  0  0  0  0  0  0  0  0  0  0
  1  2  1  0  0  0  0
  2 20  1  0  0  0  0
  2  3  2  0  0  0  0
  3  7  1  0  0  0  0
  4  3  1  0  0  0  0
  5  4  2  0  0  0  0
  6  1  2  0  0  0  0
  6  5  1  0  0  0  0
  8  5  1  0  0  0  0
  9 10  2  0  0  0  0
 11  9  1  0  0  0  0
 11  1  1  0  0  0  0
 12 11  1  0  0  0  0
 13 15  1  0  0  0  0
 13  9  1  0  0  0  0
 14 13  1  0  0  0  0
 15 17  1  0  0  0  0
 16 15  1  0  0  0  0
 18 15  1  0  0  0  0
 19 18  1  0  0  0  0
 20 21  1  0  0  0  0
 22 20  1  0  0  0  0
M  END
>  <minimizedAffinity>
-4.83085203

$$$$

 OpenBabel03252501333D

 22 22  0  0  0  0  0  0  0  0999 V2000
   36.8780   28.5170   42.0040 C   0  0  0  0  0  0  0  0  0  0  0  0
   36.9740   27.3920   41.2010 C   0  0  0  0  0  0  0  0  0  0  0  0
   37.7280   26.3330   41.6930 C   0  0  0  0  0  0  0  0  0  0  0  0
   38.3060   26.4710   42.8990 N   0  0  0  0  0  0  0  0  0  0  0  0
   38.1990   27.5650   43.6550 C   0  0  0  0  0  0  0  0  0  0  0  0
   37.4770   28.6170   43.2170 N   0  0  0  0  0  0  0  0  0  0  0  0
   37.7880   25.4780   41.0580 H   0  0  0  0  0  0  0  0  0  0  0  0
   38.6560   27.6970   44.6270 H   0  0  0  0  0  0  0  0  0  0  0  0
   37.0620   30.6760   41.1190 C   0  0  0  0  0  0  0  0  0  0  0  0
   38.2370   30.2180   41.0360 O   0  0  0  0  0  0  0  0  0  0  0  0
   36.1520   29.7240   41.6930 N   0  0  0  0  0  0  0  0  0  0  0  0
   35.1640   29.9430   41.8270 H   0  0  0  0  0  0  0  0  0  0  0  0
   36.6130   31.9760   40.7110 N   0  0  0  0  0  0  0  0  0  0  0  0
   35.8070   32.3990   41.2350 H   0  0  0  0  0  0  0  0  0  0  0  0
   37.4350   32.7150   39.4060 S   0  0  0  0  0  0  0  0  0  0  0  0
   36.9880   34.1600   39.2720 O   0  0  0  0  0  1  0  0  0  0  0  0
   37.2690   31.9920   38.1030 O   0  0  0  0  0  1  0  0  0  0  0  0
   39.0710   32.7820   39.7850 O   0  0  0  0  0  0  0  0  0  0  0  0
   39.1220   32.9190   40.7660 H   0  0  0  0  0  0  0  0  0  0  0  0
   36.2890   27.4500   39.9640 N   0  0  0  0  0  0  0  0  0  0  0  0
   35.3350   27.1280   39.7700 H   0  0  0  0  0  0  0  0  0  0  0  0
   36.7390   27.8540   39.1020 H   0  0  0  0  0  0  0  0  0  0  0  0
  1  6  1  0  0  0  0
  2  3  1  0  0  0  0
  2  1  2  0  0  0  0
  3  4  2  0  0  0  0
  4  5  1  0  0  0  0
  5  8  1  0  0  0  0
  6  5  2  0  0  0  0
  7  3  1  0  0  0  0
  9 11  1  0  0  0  0
 10  9  2  0  0  0  0
 11 12  1  0  0  0  0
 11  1  1  0  0  0  0
 13  9  1  0  0  0  0
 13 14  1  0  0  0  0
 15 18  1  0  0  0  0
 15 13  1  0  0  0  0
 16 15  1  0  0  0  0
 17 15  1  0  0  0  0
 18 19  1  0  0  0  0
 20  2  1  0  0  0  0
 21 20  1  0  0  0  0
 22 20  1  0  0  0  0
M  END
>  <minimizedAffinity>
-4.741961

$$$$

 OpenBabel03252501333D

 22 22  0  0  0  0  0  0  0  0999 V2000
   39.0220   31.7640   39.8140 C   0  0  0  0  0  0  0  0  0  0  0  0
   38.2390   32.8510   40.1660 C   0  0  0  0  0  0  0  0  0  0  0  0
   38.8680   34.0890   40.2080 C   0  0  0  0  0  0  0  0  0  0  0  0
   40.1780   34.1470   39.9100 N   0  0  0  0  0  0  0  0  0  0  0  0
   40.9130   33.0860   39.5740 C   0  0  0  0  0  0  0  0  0  0  0  0
   40.3430   31.8640   39.5190 N   0  0  0  0  0  0  0  0  0  0  0  0
   38.2460   34.9110   40.4820 H   0  0  0  0  0  0  0  0  0  0  0  0
   41.9670   33.1100   39.3310 H   0  0  0  0  0  0  0  0  0  0  0  0
   38.7020   29.7680   40.9930 C   0  0  0  0  0  0  0  0  0  0  0  0
   39.1560   30.5620   41.8660 O   0  0  0  0  0  0  0  0  0  0  0  0
   38.5790   30.3960   39.7070 N   0  0  0  0  0  0  0  0  0  0  0  0
   38.2260   29.8860   38.8950 H   0  0  0  0  0  0  0  0  0  0  0  0
   38.3310   28.3960   41.1860 N   0  0  0  0  0  0  0  0  0  0  0  0
   38.4320   27.7450   40.3670 H   0  0  0  0  0  0  0  0  0  0  0  0
   37.7560   27.9490   42.7330 S   0  0  0  0  0  0  0  0  0  0  0  0
   38.9300   27.6450   43.6460 O   0  0  0  0  0  1  0  0  0  0  0  0
   36.7980   26.7970   42.7100 O   0  0  0  0  0  1  0  0  0  0  0  0
   36.9890   29.2800   43.4140 O   0  0  0  0  0  0  0  0  0  0  0  0
   37.4820   30.0780   43.0920 H   0  0  0  0  0  0  0  0  0  0  0  0
   36.8790   32.5740   40.4420 N   0  0  0  0  0  0  0  0  0  0  0  0
   36.0940   32.6140   39.7840 H   0  0  0  0  0  0  0  0  0  0  0  0
   36.5580   32.2900   41.4030 H   0  0  0  0  0  0  0  0  0  0  0  0
  1  2  1  0  0  0  0
  2  3  2  0  0  0  0
  2 20  1  0  0  0  0
  3  7  1  0  0  0  0
  4  3  1  0  0  0  0
  5  4  2  0  0  0  0
  6  5  1  0  0  0  0
  6  1  2  0  0  0  0
  8  5  1  0  0  0  0
  9 13  1  0  0  0  0
  9 10  2  0  0  0  0
 11  1  1  0  0  0  0
 11  9  1  0  0  0  0
 12 11  1  0  0  0  0
 13 15  1  0  0  0  0
 14 13  1  0  0  0  0
 15 18  1  0  0  0  0
 15 16  1  0  0  0  0
 17 15  1  0  0  0  0
 19 18  1  0  0  0  0
 20 22  1  0  0  0  0
 21 20  1  0  0  0  0
M  END
>  <minimizedAffinity>
-4.61735153

$$$$

 OpenBabel03252501333D

 22 22  0  0  0  0  0  0  0  0999 V2000
   37.7290   30.4170   41.9700 C   0  0  0  0  0  0  0  0  0  0  0  0
   36.9270   31.1640   41.1230 C   0  0  0  0  0  0  0  0  0  0  0  0
   37.5530   32.1610   40.3860 C   0  0  0  0  0  0  0  0  0  0  0  0
   38.8780   32.3320   40.5430 N   0  0  0  0  0  0  0  0  0  0  0  0
   39.6300   31.6010   41.3660 C   0  0  0  0  0  0  0  0  0  0  0  0
   39.0640   30.6210   42.1010 N   0  0  0  0  0  0  0  0  0  0  0  0
   36.9170   32.7240   39.7400 H   0  0  0  0  0  0  0  0  0  0  0  0
   40.6960   31.7210   41.5080 H   0  0  0  0  0  0  0  0  0  0  0  0
   37.2970   28.1180   42.0640 C   0  0  0  0  0  0  0  0  0  0  0  0
   37.6740   28.3040   40.8720 O   0  0  0  0  0  0  0  0  0  0  0  0
   37.2930   29.3390   42.8230 N   0  0  0  0  0  0  0  0  0  0  0  0
   37.0140   29.3560   43.8050 H   0  0  0  0  0  0  0  0  0  0  0  0
   36.9060   26.8740   42.6620 N   0  0  0  0  0  0  0  0  0  0  0  0
   36.1970   26.9080   43.4360 H   0  0  0  0  0  0  0  0  0  0  0  0
   37.6320   25.4510   42.0540 S   0  0  0  0  0  0  0  0  0  0  0  0
   36.6710   24.2840   42.1990 O   0  0  0  0  0  1  0  0  0  0  0  0
   38.9490   25.1270   42.6910 O   0  0  0  0  0  1  0  0  0  0  0  0
   37.8610   25.6420   40.4000 O   0  0  0  0  0  0  0  0  0  0  0  0
   37.1010   26.1910   40.0770 H   0  0  0  0  0  0  0  0  0  0  0  0
   35.5550   30.8230   41.1050 N   0  0  0  0  0  0  0  0  0  0  0  0
   35.0880   30.1700   40.4670 H   0  0  0  0  0  0  0  0  0  0  0  0
   34.8720   31.2420   41.7880 H   0  0  0  0  0  0  0  0  0  0  0  0
  1  6  1  0  0  0  0
  1 11  1  0  0  0  0
  2  1  2  0  0  0  0
  3  4  2  0  0  0  0
  3  2  1  0  0  0  0
  4  5  1  0  0  0  0
  5  8  1  0  0  0  0
  5  6  2  0  0  0  0
  7  3  1  0  0  0  0
  9 13  1  0  0  0  0
  9 11  1  0  0  0  0
 10  9  2  0  0  0  0
 11 12  1  0  0  0  0
 13 14  1  0  0  0  0
 15 16  1  0  0  0  0
 15 13  1  0  0  0  0
 15 17  1  0  0  0  0
 18 15  1  0  0  0  0
 19 18  1  0  0  0  0
 20  2  1  0  0  0  0
 20 22  1  0  0  0  0
 21 20  1  0  0  0  0
M  END
>  <minimizedAffinity>
-4.54962635

$$$$

 OpenBabel03252501333D

 22 22  0  0  0  0  0  0  0  0999 V2000
   39.6910   32.2400   39.3030 C   0  0  0  0  0  0  0  0  0  0  0  0
   39.4830   33.5220   39.7860 C   0  0  0  0  0  0  0  0  0  0  0  0
   40.5770   34.1610   40.3570 C   0  0  0  0  0  0  0  0  0  0  0  0
   41.7480   33.5000   40.4020 N   0  0  0  0  0  0  0  0  0  0  0  0
   41.9240   32.2650   39.9310 C   0  0  0  0  0  0  0  0  0  0  0  0
   40.8890   31.6070   39.3680 N   0  0  0  0  0  0  0  0  0  0  0  0
   40.3940   35.1470   40.7220 H   0  0  0  0  0  0  0  0  0  0  0  0
   42.8550   31.7150   39.9570 H   0  0  0  0  0  0  0  0  0  0  0  0
   37.9990   30.6710   39.6960 C   0  0  0  0  0  0  0  0  0  0  0  0
   38.4200   30.9540   40.8540 O   0  0  0  0  0  0  0  0  0  0  0  0
   38.7030   31.3970   38.6760 N   0  0  0  0  0  0  0  0  0  0  0  0
   38.4800   31.2810   37.6870 H   0  0  0  0  0  0  0  0  0  0  0  0
   36.9520   29.7500   39.3600 N   0  0  0  0  0  0  0  0  0  0  0  0
   37.0160   29.2580   38.4350 H   0  0  0  0  0  0  0  0  0  0  0  0
   35.6970   29.5400   40.5020 S   0  0  0  0  0  0  0  0  0  0  0  0
   36.0900   28.4690   41.5040 O   0  0  0  0  0  1  0  0  0  0  0  0
   34.3690   29.2190   39.8860 O   0  0  0  0  0  1  0  0  0  0  0  0
   35.5540   30.9580   41.3930 O   0  0  0  0  0  0  0  0  0  0  0  0
   36.4700   31.3290   41.4720 H   0  0  0  0  0  0  0  0  0  0  0  0
   38.1740   34.0370   39.6410 N   0  0  0  0  0  0  0  0  0  0  0  0
   37.8150   34.6040   38.8660 H   0  0  0  0  0  0  0  0  0  0  0  0
   37.4290   33.8630   40.3650 H   0  0  0  0  0  0  0  0  0  0  0  0
  1  6  2  0  0  0  0
  1  2  1  0  0  0  0
  2  3  2  0  0  0  0
  3  4  1  0  0  0  0
  3  7  1  0  0  0  0
  5  8  1  0  0  0  0
  5  4  2  0  0  0  0
  6  5  1  0  0  0  0
  9 10  2  0  0  0  0
 11  1  1  0  0  0  0
 11  9  1  0  0  0  0
 12 11  1  0  0  0  0
 13  9  1  0  0  0  0
 13 15  1  0  0  0  0
 14 13  1  0  0  0  0
 15 18  1  0  0  0  0
 15 16  1  0  0  0  0
 17 15  1  0  0  0  0
 18 19  1  0  0  0  0
 20  2  1  0  0  0  0
 20 22  1  0  0  0  0
 21 20  1  0  0  0  0
M  END
>  <minimizedAffinity>
-4.46804237

$$$$

 OpenBabel03252501333D

 22 22  0  0  0  0  0  0  0  0999 V2000
   38.7450   28.3130   42.3100 C   0  0  0  0  0  0  0  0  0  0  0  0
   37.5670   28.0000   42.9660 C   0  0  0  0  0  0  0  0  0  0  0  0
   37.1440   26.6780   42.9000 C   0  0  0  0  0  0  0  0  0  0  0  0
   37.8980   25.8040   42.2110 N   0  0  0  0  0  0  0  0  0  0  0  0
   39.0300   26.1280   41.5850 C   0  0  0  0  0  0  0  0  0  0  0  0
   39.4790   27.4010   41.6230 N   0  0  0  0  0  0  0  0  0  0  0  0
   36.2340   26.4600   43.4130 H   0  0  0  0  0  0  0  0  0  0  0  0
   39.6520   25.4420   41.0250 H   0  0  0  0  0  0  0  0  0  0  0  0
   38.8200   30.3340   41.1300 C   0  0  0  0  0  0  0  0  0  0  0  0
   37.9570   29.6540   40.5050 O   0  0  0  0  0  0  0  0  0  0  0  0
   39.3650   29.6140   42.2480 N   0  0  0  0  0  0  0  0  0  0  0  0
   40.0750   30.0270   42.8550 H   0  0  0  0  0  0  0  0  0  0  0  0
   39.2560   31.6660   40.8240 N   0  0  0  0  0  0  0  0  0  0  0  0
   40.2420   31.9240   41.0750 H   0  0  0  0  0  0  0  0  0  0  0  0
   38.1240   32.7080   40.0780 S   0  0  0  0  0  0  0  0  0  0  0  0
   38.0880   32.4390   38.5840 O   0  0  0  0  0  1  0  0  0  0  0  0
   38.3770   34.1610   40.3430 O   0  0  0  0  0  1  0  0  0  0  0  0
   36.5920   32.3120   40.6430 O   0  0  0  0  0  0  0  0  0  0  0  0
   36.5960   31.3310   40.7910 H   0  0  0  0  0  0  0  0  0  0  0  0
   36.9240   29.0690   43.6350 N   0  0  0  0  0  0  0  0  0  0  0  0
   37.0370   29.3410   44.6170 H   0  0  0  0  0  0  0  0  0  0  0  0
   36.2420   29.7000   43.1400 H   0  0  0  0  0  0  0  0  0  0  0  0
  1  2  1  0  0  0  0
  2 20  1  0  0  0  0
  3  2  2  0  0  0  0
  3  7  1  0  0  0  0
  4  3  1  0  0  0  0
  5  6  1  0  0  0  0
  5  4  2  0  0  0  0
  6  1  2  0  0  0  0
  8  5  1  0  0  0  0
  9 11  1  0  0  0  0
 10  9  2  0  0  0  0
 11  1  1  0  0  0  0
 11 12  1  0  0  0  0
 13 14  1  0  0  0  0
 13  9  1  0  0  0  0
 15 17  1  0  0  0  0
 15 18  1  0  0  0  0
 15 13  1  0  0  0  0
 16 15  1  0  0  0  0
 18 19  1  0  0  0  0
 20 21  1  0  0  0  0
 22 20  1  0  0  0  0
M  END
>  <minimizedAffinity>
-4.45515299

$$$$

 OpenBabel03252501333D

 22 22  0  0  0  0  0  0  0  0999 V2000
   37.1860   30.2530   39.4960 C   0  0  0  0  0  0  0  0  0  0  0  0
   36.7930   31.2900   40.3260 C   0  0  0  0  0  0  0  0  0  0  0  0
   37.4470   32.5050   40.1630 C   0  0  0  0  0  0  0  0  0  0  0  0
   38.4060   32.5910   39.2240 N   0  0  0  0  0  0  0  0  0  0  0  0
   38.7690   31.5780   38.4370 C   0  0  0  0  0  0  0  0  0  0  0  0
   38.1600   30.3790   38.5590 N   0  0  0  0  0  0  0  0  0  0  0  0
   37.1280   33.2890   40.8130 H   0  0  0  0  0  0  0  0  0  0  0  0
   39.5370   31.6240   37.6760 H   0  0  0  0  0  0  0  0  0  0  0  0
   37.3320   28.1360   40.4850 C   0  0  0  0  0  0  0  0  0  0  0  0
   38.2120   28.8120   41.0910 O   0  0  0  0  0  0  0  0  0  0  0  0
   36.6460   28.9160   39.4910 N   0  0  0  0  0  0  0  0  0  0  0  0
   35.9060   28.5140   38.9150 H   0  0  0  0  0  0  0  0  0  0  0  0
   37.0000   26.7580   40.7030 N   0  0  0  0  0  0  0  0  0  0  0  0
   36.6410   26.2080   39.8830 H   0  0  0  0  0  0  0  0  0  0  0  0
   37.2200   26.1400   42.2820 S   0  0  0  0  0  0  0  0  0  0  0  0
   36.7960   24.6830   42.3240 O   0  0  0  0  0  1  0  0  0  0  0  0
   36.5050   26.9250   43.3410 O   0  0  0  0  0  1  0  0  0  0  0  0
   38.8650   26.1410   42.6230 O   0  0  0  0  0  0  0  0  0  0  0  0
   39.3260   25.9530   41.7650 H   0  0  0  0  0  0  0  0  0  0  0  0
   35.7630   30.9920   41.2480 N   0  0  0  0  0  0  0  0  0  0  0  0
   34.7550   31.1270   41.1150 H   0  0  0  0  0  0  0  0  0  0  0  0
   35.9710   30.5840   42.1960 H   0  0  0  0  0  0  0  0  0  0  0  0
  1  2  1  0  0  0  0
  2 20  1  0  0  0  0
  3  2  2  0  0  0  0
  3  7  1  0  0  0  0
  4  3  1  0  0  0  0
  5  6  1  0  0  0  0
  5  4  2  0  0  0  0
  6  1  2  0  0  0  0
  8  5  1  0  0  0  0
  9 13  1  0  0  0  0
  9 10  2  0  0  0  0
 11  1  1  0  0  0  0
 11  9  1  0  0  0  0
 12 11  1  0  0  0  0
 13 15  1  0  0  0  0
 14 13  1  0  0  0  0
 15 16  1  0  0  0  0
 15 18  1  0  0  0  0
 15 17  1  0  0  0  0
 19 18  1  0  0  0  0
 20 22  1  0  0  0  0
 21 20  1  0  0  0  0
M  END
>  <minimizedAffinity>
-4.40797472

$$$$
