
 OpenBabel03252507373D

 36 39  0  0  0  0  0  0  0  0999 V2000
   45.4930   34.7550   43.5270 C   0  0  0  0  0  0  0  0  0  0  0  0
   46.2150   33.6860   44.1100 C   0  0  0  0  0  0  0  0  0  0  0  0
   46.0600   33.4790   45.4680 C   0  0  0  0  0  0  0  0  0  0  0  0
   45.2410   34.2900   46.1680 N   0  0  0  0  0  0  0  0  0  0  0  0
   44.5550   35.3130   45.5870 C   0  0  0  0  0  0  0  0  0  0  0  0
   44.6860   35.5320   44.2870 N   0  0  0  0  0  0  0  0  0  0  0  0
   46.8640   33.0390   43.5770 H   0  0  0  0  0  0  0  0  0  0  0  0
   43.9180   35.9090   46.2440 H   0  0  0  0  0  0  0  0  0  0  0  0
   47.0190   32.6630   47.5550 C   0  0  0  0  0  0  0  0  0  0  0  0
   46.7310   32.4250   46.2160 C   0  0  0  0  0  0  0  0  0  0  0  0
   47.0890   31.2110   45.6780 C   0  0  0  0  0  0  0  0  0  0  0  0
   47.7200   30.2330   46.4160 C   0  0  0  0  0  0  0  0  0  0  0  0
   48.1560   28.9890   46.1000 N   0  0  0  0  0  0  0  0  0  0  0  0
   48.7150   28.4520   47.2370 C   0  0  0  0  0  0  0  0  0  0  0  0
   48.6150   29.3590   48.2130 N   0  0  0  0  0  0  0  0  0  0  0  0
   48.0080   30.4620   47.7360 C   0  0  0  0  0  0  0  0  0  0  0  0
   47.6590   31.6690   48.3000 C   0  0  0  0  0  0  0  0  0  0  0  0
   46.7970   33.5550   48.0920 H   0  0  0  0  0  0  0  0  0  0  0  0
   46.8650   31.0270   44.6410 H   0  0  0  0  0  0  0  0  0  0  0  0
   48.0510   28.5760   45.1390 H   0  0  0  0  0  0  0  0  0  0  0  0
   49.1210   27.4460   47.1640 H   0  0  0  0  0  0  0  0  0  0  0  0
   47.9000   31.8180   49.3430 H   0  0  0  0  0  0  0  0  0  0  0  0
   45.6450   34.9690   42.1580 O   0  0  0  0  0  0  0  0  0  0  0  0
   44.5540   34.8760   41.3110 C   0  0  0  0  0  0  0  0  0  0  0  0
   44.9250   33.8450   40.5170 C   0  0  0  0  0  0  0  0  0  0  0  0
   43.4200   33.7090   39.3440 S   0  0  0  0  0  0  0  0  0  0  0  0
   42.6120   35.1520   40.2550 C   0  0  0  0  0  0  0  0  0  0  0  0
   43.3790   35.3790   41.0140 N   0  0  0  0  0  0  0  0  0  0  0  0
   45.6600   33.0210   40.1860 H   0  0  0  0  0  0  0  0  0  0  0  0
   41.3190   35.5590   39.7790 N   0  0  0  0  0  0  0  0  0  0  0  0
   41.0340   36.5470   39.6260 H   0  0  0  0  0  0  0  0  0  0  0  0
   40.2070   34.3140   39.4540 S   0  0  0  0  0  0  0  0  0  0  0  0
   40.3950   33.1150   40.3360 O   0  0  0  0  0  1  0  0  0  0  0  0
   38.7850   34.8180   39.6530 O   0  0  0  0  0  1  0  0  0  0  0  0
   40.2820   33.7800   37.8630 O   0  0  0  0  0  0  0  0  0  0  0  0
   40.6360   34.4740   37.2530 H   0  0  0  0  0  0  0  0  0  0  0  0
  1  2  2  0  0  0  0
  1  6  1  0  0  0  0
  2  3  1  0  0  0  0
  3  4  2  0  0  0  0
  3 10  1  0  0  0  0
  5  4  1  0  0  0  0
  5  8  1  0  0  0  0
  6  5  2  0  0  0  0
  7  2  1  0  0  0  0
  9 18  1  0  0  0  0
  9 17  1  0  0  0  0
 10  9  2  0  0  0  0
 11 10  1  0  0  0  0
 11 12  2  0  0  0  0
 12 16  1  0  0  0  0
 13 12  1  0  0  0  0
 13 14  1  0  0  0  0
 14 15  2  0  0  0  0
 16 15  1  0  0  0  0
 16 17  2  0  0  0  0
 17 22  1  0  0  0  0
 19 11  1  0  0  0  0
 20 13  1  0  0  0  0
 21 14  1  0  0  0  0
 23  1  1  0  0  0  0
 24 23  1  0  0  0  0
 25 24  2  0  0  0  0
 26 27  1  0  0  0  0
 26 25  1  0  0  0  0
 27 28  2  0  0  0  0
 28 24  1  0  0  0  0
 29 25  1  0  0  0  0
 30 27  1  0  0  0  0
 31 30  1  0  0  0  0
 32 34  1  0  0  0  0
 32 30  1  0  0  0  0
 32 33  1  0  0  0  0
 35 32  1  0  0  0  0
 36 35  1  0  0  0  0
M  END
>  <minimizedAffinity>
-6.22288322

>  <minimizedRMSD>
0.226873025

$$$$
