
 OpenBabel03252508003D

 27 28  0  0  1  0  0  0  0  0999 V2000
   46.3830   34.7650   43.1460 C   0  0  0  0  0  0  0  0  0  0  0  0
   45.4180   35.7950   43.3610 C   0  0  0  0  0  0  0  0  0  0  0  0
   44.6720   35.6890   44.5340 C   0  0  0  0  0  0  0  0  0  0  0  0
   44.9010   34.6470   45.3720 N   0  0  0  0  0  0  0  0  0  0  0  0
   45.8510   33.6950   45.0880 C   0  0  0  0  0  0  0  0  0  0  0  0
   46.5950   33.7310   44.0000 N   0  0  0  0  0  0  0  0  0  0  0  0
   45.3120   36.5810   42.6320 H   0  0  0  0  0  0  0  0  0  0  0  0
   43.9300   36.4460   44.7380 H   0  0  0  0  0  0  0  0  0  0  0  0
   46.0540   32.5780   46.0580 C   0  0  1  0  0  0  0  0  0  0  0  0
   46.8040   32.8530   47.3390 C   0  0  0  0  0  0  0  0  0  0  0  0
   45.3040   32.7250   47.3260 C   0  0  1  0  0  0  0  0  0  0  0  0
   46.2390   31.6180   45.5620 H   0  0  0  0  0  0  0  0  0  0  0  0
   47.4180   32.0280   47.7070 H   0  0  0  0  0  0  0  0  0  0  0  0
   47.3020   33.8300   47.3670 H   0  0  0  0  0  0  0  0  0  0  0  0
   44.9040   31.7960   47.7490 H   0  0  0  0  0  0  0  0  0  0  0  0
   44.6560   34.0030   47.6330 N   0  0  0  0  0  0  0  0  0  0  0  0
   43.6270   33.8800   47.5500 H   0  0  0  0  0  0  0  0  0  0  0  0
   44.9220   34.3340   48.5980 H   0  0  0  0  0  0  0  0  0  0  0  0
   47.1590   34.8850   41.9240 C   0  0  0  0  0  0  0  0  0  0  0  0
   48.2410   35.5660   41.8390 O   0  0  0  0  0  0  0  0  0  0  0  0
   46.6600   34.1920   40.7660 N   0  0  0  0  0  0  0  0  0  0  0  0
   45.6190   34.0410   40.6480 H   0  0  0  0  0  0  0  0  0  0  0  0
   47.7530   33.6000   39.5570 S   0  0  0  0  0  0  0  0  0  0  0  0
   48.8390   32.8180   40.2440 O   0  0  0  0  0  1  0  0  0  0  0  0
   48.3180   34.7910   38.8120 O   0  0  0  0  0  1  0  0  0  0  0  0
   46.9390   32.6010   38.4880 O   0  0  0  0  0  0  0  0  0  0  0  0
   46.8840   31.6680   38.8470 H   0  0  0  0  0  0  0  0  0  0  0  0
  1  2  2  0  0  0  0
  1  6  1  0  0  0  0
  2  3  1  0  0  0  0
  3  8  1  0  0  0  0
  3  4  2  0  0  0  0
  5  4  1  0  0  0  0
  5  9  1  0  0  0  0
  6  5  2  0  0  0  0
  7  2  1  0  0  0  0
  9 12  1  6  0  0  0
  9 11  1  0  0  0  0
  9 10  1  0  0  0  0
 10 14  1  0  0  0  0
 10 13  1  0  0  0  0
 11 10  1  0  0  0  0
 11 16  1  0  0  0  0
 11 15  1  1  0  0  0
 16 18  1  0  0  0  0
 17 16  1  0  0  0  0
 19  1  1  0  0  0  0
 20 19  2  0  0  0  0
 21 19  1  0  0  0  0
 22 21  1  0  0  0  0
 23 24  1  0  0  0  0
 23 21  1  0  0  0  0
 25 23  1  0  0  0  0
 26 27  1  0  0  0  0
 26 23  1  0  0  0  0
M  END
>  <minimizedAffinity>
-5.36418152

>  <minimizedRMSD>
0.447594494

$$$$
