
 OpenBabel03252507393D

 36 39  0  0  0  0  0  0  0  0999 V2000
   36.7730   28.6140   42.0220 C   0  0  0  0  0  0  0  0  0  0  0  0
   37.7640   29.6230   41.9690 C   0  0  0  0  0  0  0  0  0  0  0  0
   37.6290   30.5960   40.9950 C   0  0  0  0  0  0  0  0  0  0  0  0
   36.5770   30.5420   40.1520 N   0  0  0  0  0  0  0  0  0  0  0  0
   35.6350   29.5620   40.2220 C   0  0  0  0  0  0  0  0  0  0  0  0
   35.7410   28.6180   41.1460 N   0  0  0  0  0  0  0  0  0  0  0  0
   38.5970   29.6810   42.6200 H   0  0  0  0  0  0  0  0  0  0  0  0
   34.8230   29.6120   39.4930 H   0  0  0  0  0  0  0  0  0  0  0  0
   39.9110   31.4520   41.0250 C   0  0  0  0  0  0  0  0  0  0  0  0
   38.5600   31.7000   40.8080 C   0  0  0  0  0  0  0  0  0  0  0  0
   38.1830   32.9660   40.4280 C   0  0  0  0  0  0  0  0  0  0  0  0
   39.0900   33.9880   40.2570 C   0  0  0  0  0  0  0  0  0  0  0  0
   38.9460   35.2860   39.8940 N   0  0  0  0  0  0  0  0  0  0  0  0
   40.2020   35.8490   39.8830 C   0  0  0  0  0  0  0  0  0  0  0  0
   41.0800   34.9030   40.2340 N   0  0  0  0  0  0  0  0  0  0  0  0
   40.4230   33.7510   40.4690 C   0  0  0  0  0  0  0  0  0  0  0  0
   40.8290   32.4920   40.8500 C   0  0  0  0  0  0  0  0  0  0  0  0
   40.3360   30.5230   41.3200 H   0  0  0  0  0  0  0  0  0  0  0  0
   37.1360   33.1560   40.2600 H   0  0  0  0  0  0  0  0  0  0  0  0
   38.0120   35.7160   39.6740 H   0  0  0  0  0  0  0  0  0  0  0  0
   40.2750   36.8980   39.6110 H   0  0  0  0  0  0  0  0  0  0  0  0
   41.8870   32.3380   41.0090 H   0  0  0  0  0  0  0  0  0  0  0  0
   36.9030   27.6300   43.0010 O   0  0  0  0  0  0  0  0  0  0  0  0
   37.7860   26.5780   42.8230 C   0  0  0  0  0  0  0  0  0  0  0  0
   36.9950   25.6740   42.2010 C   0  0  0  0  0  0  0  0  0  0  0  0
   38.2090   24.2180   41.9500 S   0  0  0  0  0  0  0  0  0  0  0  0
   39.5610   25.2340   42.7880 C   0  0  0  0  0  0  0  0  0  0  0  0
   39.0150   26.1650   43.0180 N   0  0  0  0  0  0  0  0  0  0  0  0
   35.9910   25.3290   41.7520 H   0  0  0  0  0  0  0  0  0  0  0  0
   40.8470   24.6040   42.9090 N   0  0  0  0  0  0  0  0  0  0  0  0
   41.0160   23.5850   42.7770 H   0  0  0  0  0  0  0  0  0  0  0  0
   42.1540   25.6200   43.2900 S   0  0  0  0  0  0  0  0  0  0  0  0
   42.4820   26.5910   42.1930 O   0  0  0  0  0  1  0  0  0  0  0  0
   41.8430   26.4250   44.5440 O   0  0  0  0  0  1  0  0  0  0  0  0
   43.5590   24.7650   43.6350 O   0  0  0  0  0  0  0  0  0  0  0  0
   43.3680   23.8480   43.9560 H   0  0  0  0  0  0  0  0  0  0  0  0
  1 23  1  0  0  0  0
  2  1  1  0  0  0  0
  2  7  1  0  0  0  0
  3  2  2  0  0  0  0
  4  5  2  0  0  0  0
  4  3  1  0  0  0  0
  5  6  1  0  0  0  0
  6  1  2  0  0  0  0
  8  5  1  0  0  0  0
  9 18  1  0  0  0  0
 10  3  1  0  0  0  0
 10  9  2  0  0  0  0
 11 10  1  0  0  0  0
 12 11  2  0  0  0  0
 12 16  1  0  0  0  0
 13 12  1  0  0  0  0
 14 13  1  0  0  0  0
 14 15  2  0  0  0  0
 15 16  1  0  0  0  0
 16 17  2  0  0  0  0
 17 22  1  0  0  0  0
 17  9  1  0  0  0  0
 19 11  1  0  0  0  0
 20 13  1  0  0  0  0
 21 14  1  0  0  0  0
 24 23  1  0  0  0  0
 24 28  1  0  0  0  0
 25 24  2  0  0  0  0
 26 25  1  0  0  0  0
 26 27  1  0  0  0  0
 27 30  1  0  0  0  0
 27 28  2  0  0  0  0
 29 25  1  0  0  0  0
 30 32  1  0  0  0  0
 31 30  1  0  0  0  0
 32 35  1  0  0  0  0
 32 34  1  0  0  0  0
 33 32  1  0  0  0  0
 35 36  1  0  0  0  0
M  END
>  <minimizedAffinity>
-7.0230813

$$$$

 OpenBabel03252507393D

 36 39  0  0  0  0  0  0  0  0999 V2000
   37.1790   28.9100   42.1900 C   0  0  0  0  0  0  0  0  0  0  0  0
   38.5710   28.8590   42.4370 C   0  0  0  0  0  0  0  0  0  0  0  0
   39.1240   27.6230   42.7160 C   0  0  0  0  0  0  0  0  0  0  0  0
   38.3260   26.5360   42.7400 N   0  0  0  0  0  0  0  0  0  0  0  0
   36.9880   26.6070   42.4990 C   0  0  0  0  0  0  0  0  0  0  0  0
   36.4340   27.7800   42.2300 N   0  0  0  0  0  0  0  0  0  0  0  0
   39.2140   29.7020   42.4240 H   0  0  0  0  0  0  0  0  0  0  0  0
   36.4330   25.6670   42.5420 H   0  0  0  0  0  0  0  0  0  0  0  0
   41.3460   28.5190   43.1640 C   0  0  0  0  0  0  0  0  0  0  0  0
   40.5370   27.4020   42.9900 C   0  0  0  0  0  0  0  0  0  0  0  0
   41.1130   26.1580   43.0920 C   0  0  0  0  0  0  0  0  0  0  0  0
   42.4540   25.9830   43.3560 C   0  0  0  0  0  0  0  0  0  0  0  0
   43.2210   24.8740   43.4970 N   0  0  0  0  0  0  0  0  0  0  0  0
   44.5040   25.2960   43.7570 C   0  0  0  0  0  0  0  0  0  0  0  0
   44.5040   26.6330   43.7710 N   0  0  0  0  0  0  0  0  0  0  0  0
   43.2580   27.0800   43.5280 C   0  0  0  0  0  0  0  0  0  0  0  0
   42.7060   28.3380   43.4330 C   0  0  0  0  0  0  0  0  0  0  0  0
   41.0290   29.5330   43.1130 H   0  0  0  0  0  0  0  0  0  0  0  0
   40.4850   25.2930   42.9570 H   0  0  0  0  0  0  0  0  0  0  0  0
   42.8350   23.9010   43.4090 H   0  0  0  0  0  0  0  0  0  0  0  0
   45.2610   24.5290   43.9000 H   0  0  0  0  0  0  0  0  0  0  0  0
   43.3660   29.1820   43.5740 H   0  0  0  0  0  0  0  0  0  0  0  0
   36.6150   30.1530   41.9090 O   0  0  0  0  0  0  0  0  0  0  0  0
   37.1250   30.9360   40.8870 C   0  0  0  0  0  0  0  0  0  0  0  0
   36.4170   30.4800   39.8280 C   0  0  0  0  0  0  0  0  0  0  0  0
   37.1150   31.5590   38.4110 S   0  0  0  0  0  0  0  0  0  0  0  0
   38.2520   32.4100   39.6550 C   0  0  0  0  0  0  0  0  0  0  0  0
   37.9760   31.8880   40.5870 N   0  0  0  0  0  0  0  0  0  0  0  0
   35.6280   29.7930   39.3430 H   0  0  0  0  0  0  0  0  0  0  0  0
   39.1160   33.4310   39.1300 N   0  0  0  0  0  0  0  0  0  0  0  0
   39.3130   33.5700   38.1170 H   0  0  0  0  0  0  0  0  0  0  0  0
   39.8440   34.4630   40.2660 S   0  0  0  0  0  0  0  0  0  0  0  0
   41.1850   33.9730   40.7310 O   0  0  0  0  0  1  0  0  0  0  0  0
   40.0400   35.8490   39.6660 O   0  0  0  0  0  1  0  0  0  0  0  0
   38.8960   34.6910   41.6340 O   0  0  0  0  0  0  0  0  0  0  0  0
   37.9340   34.5480   41.4500 H   0  0  0  0  0  0  0  0  0  0  0  0
  1  6  2  0  0  0  0
  1  2  1  0  0  0  0
  2  3  2  0  0  0  0
  3  4  1  0  0  0  0
  3 10  1  0  0  0  0
  5  8  1  0  0  0  0
  5  4  2  0  0  0  0
  6  5  1  0  0  0  0
  7  2  1  0  0  0  0
  9 17  1  0  0  0  0
 10 11  1  0  0  0  0
 10  9  2  0  0  0  0
 11 12  2  0  0  0  0
 12 13  1  0  0  0  0
 12 16  1  0  0  0  0
 13 14  1  0  0  0  0
 14 15  2  0  0  0  0
 14 21  1  0  0  0  0
 16 15  1  0  0  0  0
 17 16  2  0  0  0  0
 17 22  1  0  0  0  0
 18  9  1  0  0  0  0
 19 11  1  0  0  0  0
 20 13  1  0  0  0  0
 23  1  1  0  0  0  0
 24 23  1  0  0  0  0
 25 24  2  0  0  0  0
 26 27  1  0  0  0  0
 26 25  1  0  0  0  0
 27 28  2  0  0  0  0
 28 24  1  0  0  0  0
 29 25  1  0  0  0  0
 30 27  1  0  0  0  0
 30 32  1  0  0  0  0
 31 30  1  0  0  0  0
 32 33  1  0  0  0  0
 32 35  1  0  0  0  0
 34 32  1  0  0  0  0
 36 35  1  0  0  0  0
M  END
>  <minimizedAffinity>
-6.80487585

$$$$

 OpenBabel03252507393D

 36 39  0  0  0  0  0  0  0  0999 V2000
   36.7010   29.1530   41.4820 C   0  0  0  0  0  0  0  0  0  0  0  0
   36.5910   27.9430   40.7560 C   0  0  0  0  0  0  0  0  0  0  0  0
   37.0850   26.7970   41.3520 C   0  0  0  0  0  0  0  0  0  0  0  0
   37.6400   26.8800   42.5790 N   0  0  0  0  0  0  0  0  0  0  0  0
   37.7350   28.0560   43.2590 C   0  0  0  0  0  0  0  0  0  0  0  0
   37.2700   29.1680   42.7090 N   0  0  0  0  0  0  0  0  0  0  0  0
   36.1590   27.8580   39.7920 H   0  0  0  0  0  0  0  0  0  0  0  0
   38.2020   28.0120   44.2450 H   0  0  0  0  0  0  0  0  0  0  0  0
   36.2840   25.3160   39.5900 C   0  0  0  0  0  0  0  0  0  0  0  0
   37.0470   25.4760   40.7400 C   0  0  0  0  0  0  0  0  0  0  0  0
   37.7240   24.3850   41.2300 C   0  0  0  0  0  0  0  0  0  0  0  0
   37.6700   23.1480   40.6240 C   0  0  0  0  0  0  0  0  0  0  0  0
   38.2440   21.9580   40.9250 N   0  0  0  0  0  0  0  0  0  0  0  0
   37.8400   21.0560   39.9670 C   0  0  0  0  0  0  0  0  0  0  0  0
   37.0400   21.6970   39.1100 N   0  0  0  0  0  0  0  0  0  0  0  0
   36.9190   22.9830   39.4900 C   0  0  0  0  0  0  0  0  0  0  0  0
   36.2310   24.0600   38.9780 C   0  0  0  0  0  0  0  0  0  0  0  0
   35.7140   26.0750   39.1080 H   0  0  0  0  0  0  0  0  0  0  0  0
   38.3160   24.5100   42.1210 H   0  0  0  0  0  0  0  0  0  0  0  0
   38.8730   21.8220   41.7570 H   0  0  0  0  0  0  0  0  0  0  0  0
   38.2110   20.0380   40.0540 H   0  0  0  0  0  0  0  0  0  0  0  0
   35.6480   23.8970   38.0820 H   0  0  0  0  0  0  0  0  0  0  0  0
   36.2050   30.3120   40.8860 O   0  0  0  0  0  0  0  0  0  0  0  0
   37.0070   31.0650   40.0450 C   0  0  0  0  0  0  0  0  0  0  0  0
   36.5740   30.6530   38.8310 C   0  0  0  0  0  0  0  0  0  0  0  0
   37.6780   31.6900   37.6630 S   0  0  0  0  0  0  0  0  0  0  0  0
   38.4990   32.4690   39.1730 C   0  0  0  0  0  0  0  0  0  0  0  0
   37.9610   31.9640   39.9930 N   0  0  0  0  0  0  0  0  0  0  0  0
   35.9000   30.0160   38.1470 H   0  0  0  0  0  0  0  0  0  0  0  0
   39.5280   33.4380   38.9080 N   0  0  0  0  0  0  0  0  0  0  0  0
   39.9890   33.5660   37.9840 H   0  0  0  0  0  0  0  0  0  0  0  0
   39.9940   34.4220   40.2110 S   0  0  0  0  0  0  0  0  0  0  0  0
   41.2510   33.9520   40.8830 O   0  0  0  0  0  1  0  0  0  0  0  0
   40.2290   35.8480   39.7330 O   0  0  0  0  0  1  0  0  0  0  0  0
   38.8080   34.5310   41.3970 O   0  0  0  0  0  0  0  0  0  0  0  0
   37.9010   34.3650   41.0340 H   0  0  0  0  0  0  0  0  0  0  0  0
  1  6  1  0  0  0  0
  2  3  1  0  0  0  0
  2  1  2  0  0  0  0
  3  4  2  0  0  0  0
  4  5  1  0  0  0  0
  5  8  1  0  0  0  0
  6  5  2  0  0  0  0
  7  2  1  0  0  0  0
  9 10  1  0  0  0  0
 10 11  2  0  0  0  0
 10  3  1  0  0  0  0
 11 19  1  0  0  0  0
 12 13  1  0  0  0  0
 12 11  1  0  0  0  0
 13 20  1  0  0  0  0
 14 21  1  0  0  0  0
 14 13  1  0  0  0  0
 15 16  1  0  0  0  0
 15 14  2  0  0  0  0
 16 12  2  0  0  0  0
 17 16  1  0  0  0  0
 17  9  2  0  0  0  0
 18  9  1  0  0  0  0
 22 17  1  0  0  0  0
 23  1  1  0  0  0  0
 24 23  1  0  0  0  0
 25 24  2  0  0  0  0
 26 25  1  0  0  0  0
 26 27  1  0  0  0  0
 27 28  2  0  0  0  0
 28 24  1  0  0  0  0
 29 25  1  0  0  0  0
 30 27  1  0  0  0  0
 30 32  1  0  0  0  0
 31 30  1  0  0  0  0
 32 33  1  0  0  0  0
 32 35  1  0  0  0  0
 34 32  1  0  0  0  0
 36 35  1  0  0  0  0
M  END
>  <minimizedAffinity>
-6.74859142

$$$$

 OpenBabel03252507393D

 36 39  0  0  0  0  0  0  0  0999 V2000
   36.9540   28.8360   42.1050 C   0  0  0  0  0  0  0  0  0  0  0  0
   37.6890   30.0350   41.9450 C   0  0  0  0  0  0  0  0  0  0  0  0
   37.2880   30.8980   40.9420 C   0  0  0  0  0  0  0  0  0  0  0  0
   36.2330   30.5650   40.1700 N   0  0  0  0  0  0  0  0  0  0  0  0
   35.5400   29.4060   40.3420 C   0  0  0  0  0  0  0  0  0  0  0  0
   35.9040   28.5630   41.2970 N   0  0  0  0  0  0  0  0  0  0  0  0
   38.5210   30.3140   42.5400 H   0  0  0  0  0  0  0  0  0  0  0  0
   34.7010   29.2340   39.6640 H   0  0  0  0  0  0  0  0  0  0  0  0
   37.2170   33.1100   39.9200 C   0  0  0  0  0  0  0  0  0  0  0  0
   37.9360   32.1690   40.6480 C   0  0  0  0  0  0  0  0  0  0  0  0
   39.2100   32.4910   41.0520 C   0  0  0  0  0  0  0  0  0  0  0  0
   39.7930   33.7050   40.7600 C   0  0  0  0  0  0  0  0  0  0  0  0
   41.0100   34.2280   41.0500 N   0  0  0  0  0  0  0  0  0  0  0  0
   41.0520   35.4910   40.5050 C   0  0  0  0  0  0  0  0  0  0  0  0
   39.8820   35.7180   39.9000 N   0  0  0  0  0  0  0  0  0  0  0  0
   39.0900   34.6380   40.0420 C   0  0  0  0  0  0  0  0  0  0  0  0
   37.8120   34.3400   39.6260 C   0  0  0  0  0  0  0  0  0  0  0  0
   36.2270   32.9890   39.5500 H   0  0  0  0  0  0  0  0  0  0  0  0
   39.7670   31.7620   41.6160 H   0  0  0  0  0  0  0  0  0  0  0  0
   41.7390   33.7040   41.5970 H   0  0  0  0  0  0  0  0  0  0  0  0
   41.9660   36.0620   40.6430 H   0  0  0  0  0  0  0  0  0  0  0  0
   37.2840   35.0970   39.0620 H   0  0  0  0  0  0  0  0  0  0  0  0
   37.3520   27.9630   43.1160 O   0  0  0  0  0  0  0  0  0  0  0  0
   38.0550   26.8100   42.8070 C   0  0  0  0  0  0  0  0  0  0  0  0
   39.0490   26.8550   43.7230 C   0  0  0  0  0  0  0  0  0  0  0  0
   40.0230   25.2630   43.3030 S   0  0  0  0  0  0  0  0  0  0  0  0
   38.7890   24.9030   41.9220 C   0  0  0  0  0  0  0  0  0  0  0  0
   38.1080   25.7660   42.0140 N   0  0  0  0  0  0  0  0  0  0  0  0
   39.6050   27.3420   44.6080 H   0  0  0  0  0  0  0  0  0  0  0  0
   39.0190   23.7060   41.1610 N   0  0  0  0  0  0  0  0  0  0  0  0
   39.9090   23.1670   41.1690 H   0  0  0  0  0  0  0  0  0  0  0  0
   37.7300   23.1630   40.1970 S   0  0  0  0  0  0  0  0  0  0  0  0
   37.8560   23.5760   38.7600 O   0  0  0  0  0  1  0  0  0  0  0  0
   37.6490   21.6430   40.2370 O   0  0  0  0  0  1  0  0  0  0  0  0
   36.2380   23.7110   40.7430 O   0  0  0  0  0  0  0  0  0  0  0  0
   36.2480   23.9180   41.7110 H   0  0  0  0  0  0  0  0  0  0  0  0
  1 23  1  0  0  0  0
  2  1  1  0  0  0  0
  2  7  1  0  0  0  0
  3  2  2  0  0  0  0
  4  5  2  0  0  0  0
  4  3  1  0  0  0  0
  5  6  1  0  0  0  0
  6  1  2  0  0  0  0
  8  5  1  0  0  0  0
  9 10  1  0  0  0  0
 10  3  1  0  0  0  0
 10 11  2  0  0  0  0
 11 19  1  0  0  0  0
 12 13  1  0  0  0  0
 12 11  1  0  0  0  0
 13 20  1  0  0  0  0
 14 21  1  0  0  0  0
 14 13  1  0  0  0  0
 15 16  1  0  0  0  0
 15 14  2  0  0  0  0
 16 12  2  0  0  0  0
 17  9  2  0  0  0  0
 17 16  1  0  0  0  0
 18  9  1  0  0  0  0
 22 17  1  0  0  0  0
 24 23  1  0  0  0  0
 24 25  2  0  0  0  0
 25 29  1  0  0  0  0
 26 25  1  0  0  0  0
 27 28  2  0  0  0  0
 27 26  1  0  0  0  0
 28 24  1  0  0  0  0
 30 31  1  0  0  0  0
 30 27  1  0  0  0  0
 32 34  1  0  0  0  0
 32 35  1  0  0  0  0
 32 30  1  0  0  0  0
 33 32  1  0  0  0  0
 35 36  1  0  0  0  0
M  END
>  <minimizedAffinity>
-6.42360163

$$$$

 OpenBabel03252507393D

 36 39  0  0  0  0  0  0  0  0999 V2000
   37.7840   32.3620   39.8300 C   0  0  0  0  0  0  0  0  0  0  0  0
   38.2330   31.4590   40.8220 C   0  0  0  0  0  0  0  0  0  0  0  0
   37.9940   30.1130   40.6130 C   0  0  0  0  0  0  0  0  0  0  0  0
   37.3530   29.7260   39.4910 N   0  0  0  0  0  0  0  0  0  0  0  0
   36.9300   30.6130   38.5490 C   0  0  0  0  0  0  0  0  0  0  0  0
   37.1470   31.9070   38.7260 N   0  0  0  0  0  0  0  0  0  0  0  0
   38.7360   31.7440   41.7100 H   0  0  0  0  0  0  0  0  0  0  0  0
   36.4230   30.1940   37.6770 H   0  0  0  0  0  0  0  0  0  0  0  0
   37.6320   28.8840   42.6860 C   0  0  0  0  0  0  0  0  0  0  0  0
   38.3910   29.0590   41.5350 C   0  0  0  0  0  0  0  0  0  0  0  0
   39.4670   28.2270   41.3310 C   0  0  0  0  0  0  0  0  0  0  0  0
   39.8140   27.2360   42.2230 C   0  0  0  0  0  0  0  0  0  0  0  0
   40.8120   26.3180   42.2260 N   0  0  0  0  0  0  0  0  0  0  0  0
   40.6780   25.5730   43.3750 C   0  0  0  0  0  0  0  0  0  0  0  0
   39.6190   26.0380   44.0460 N   0  0  0  0  0  0  0  0  0  0  0  0
   39.0700   27.0580   43.3610 C   0  0  0  0  0  0  0  0  0  0  0  0
   37.9880   27.8770   43.5890 C   0  0  0  0  0  0  0  0  0  0  0  0
   36.7790   29.4560   42.9640 H   0  0  0  0  0  0  0  0  0  0  0  0
   40.0550   28.3630   40.4390 H   0  0  0  0  0  0  0  0  0  0  0  0
   41.5240   26.2480   41.4560 H   0  0  0  0  0  0  0  0  0  0  0  0
   41.4040   24.7810   43.5430 H   0  0  0  0  0  0  0  0  0  0  0  0
   37.4210   27.7120   44.4950 H   0  0  0  0  0  0  0  0  0  0  0  0
   38.0230   33.7200   40.0350 O   0  0  0  0  0  0  0  0  0  0  0  0
   39.3110   34.2230   39.9620 C   0  0  0  0  0  0  0  0  0  0  0  0
   39.2870   35.1510   40.9460 C   0  0  0  0  0  0  0  0  0  0  0  0
   41.0660   35.8490   40.8520 S   0  0  0  0  0  0  0  0  0  0  0  0
   41.4300   34.6570   39.4330 C   0  0  0  0  0  0  0  0  0  0  0  0
   40.4620   34.1380   39.3380 N   0  0  0  0  0  0  0  0  0  0  0  0
   38.7650   35.7290   41.7960 H   0  0  0  0  0  0  0  0  0  0  0  0
   42.7550   34.7170   38.8790 N   0  0  0  0  0  0  0  0  0  0  0  0
   43.4270   35.4940   39.0460 H   0  0  0  0  0  0  0  0  0  0  0  0
   43.2210   33.4130   37.8950 S   0  0  0  0  0  0  0  0  0  0  0  0
   43.5630   32.1790   38.6760 O   0  0  0  0  0  1  0  0  0  0  0  0
   42.0970   33.0560   36.9320 O   0  0  0  0  0  1  0  0  0  0  0  0
   44.5480   33.7740   36.9280 O   0  0  0  0  0  0  0  0  0  0  0  0
   44.6310   34.7450   36.7570 H   0  0  0  0  0  0  0  0  0  0  0  0
  1 23  1  0  0  0  0
  1  2  1  0  0  0  0
  2  7  1  0  0  0  0
  3  2  2  0  0  0  0
  3 10  1  0  0  0  0
  4  3  1  0  0  0  0
  5  6  1  0  0  0  0
  5  4  2  0  0  0  0
  6  1  2  0  0  0  0
  8  5  1  0  0  0  0
  9 18  1  0  0  0  0
  9 17  1  0  0  0  0
 10  9  2  0  0  0  0
 11 10  1  0  0  0  0
 11 12  2  0  0  0  0
 12 13  1  0  0  0  0
 12 16  1  0  0  0  0
 13 14  1  0  0  0  0
 14 21  1  0  0  0  0
 14 15  2  0  0  0  0
 16 17  2  0  0  0  0
 16 15  1  0  0  0  0
 17 22  1  0  0  0  0
 19 11  1  0  0  0  0
 20 13  1  0  0  0  0
 24 23  1  0  0  0  0
 24 25  2  0  0  0  0
 25 29  1  0  0  0  0
 26 25  1  0  0  0  0
 27 26  1  0  0  0  0
 28 27  2  0  0  0  0
 28 24  1  0  0  0  0
 30 31  1  0  0  0  0
 30 27  1  0  0  0  0
 32 33  1  0  0  0  0
 32 30  1  0  0  0  0
 34 32  1  0  0  0  0
 35 32  1  0  0  0  0
 36 35  1  0  0  0  0
M  END
>  <minimizedAffinity>
-6.40232515

$$$$

 OpenBabel03252507393D

 36 39  0  0  0  0  0  0  0  0999 V2000
   37.1970   29.1640   42.1490 C   0  0  0  0  0  0  0  0  0  0  0  0
   38.5690   29.1650   42.4950 C   0  0  0  0  0  0  0  0  0  0  0  0
   39.1160   27.9730   42.9340 C   0  0  0  0  0  0  0  0  0  0  0  0
   38.3300   26.8790   43.0130 N   0  0  0  0  0  0  0  0  0  0  0  0
   37.0120   26.9010   42.6740 C   0  0  0  0  0  0  0  0  0  0  0  0
   36.4650   28.0310   42.2510 N   0  0  0  0  0  0  0  0  0  0  0  0
   39.2020   30.0130   42.4410 H   0  0  0  0  0  0  0  0  0  0  0  0
   36.4670   25.9600   42.7730 H   0  0  0  0  0  0  0  0  0  0  0  0
   40.8340   26.7040   44.1080 C   0  0  0  0  0  0  0  0  0  0  0  0
   40.5080   27.8070   43.3270 C   0  0  0  0  0  0  0  0  0  0  0  0
   41.5150   28.6710   42.9680 C   0  0  0  0  0  0  0  0  0  0  0  0
   42.8240   28.4830   43.3540 C   0  0  0  0  0  0  0  0  0  0  0  0
   43.9560   29.1910   43.1210 N   0  0  0  0  0  0  0  0  0  0  0  0
   44.9860   28.5340   43.7540 C   0  0  0  0  0  0  0  0  0  0  0  0
   44.4780   27.4530   44.3550 N   0  0  0  0  0  0  0  0  0  0  0  0
   43.1520   27.3980   44.1240 C   0  0  0  0  0  0  0  0  0  0  0  0
   42.1630   26.5160   44.4980 C   0  0  0  0  0  0  0  0  0  0  0  0
   40.1550   25.9610   44.4540 H   0  0  0  0  0  0  0  0  0  0  0  0
   41.2610   29.5250   42.3620 H   0  0  0  0  0  0  0  0  0  0  0  0
   43.9680   30.0730   42.5500 H   0  0  0  0  0  0  0  0  0  0  0  0
   45.9790   28.9680   43.6710 H   0  0  0  0  0  0  0  0  0  0  0  0
   42.4540   25.6710   45.1050 H   0  0  0  0  0  0  0  0  0  0  0  0
   36.6410   30.3630   41.7050 O   0  0  0  0  0  0  0  0  0  0  0  0
   37.2330   31.0680   40.6720 C   0  0  0  0  0  0  0  0  0  0  0  0
   36.5650   30.5780   39.6020 C   0  0  0  0  0  0  0  0  0  0  0  0
   37.3770   31.5500   38.1690 S   0  0  0  0  0  0  0  0  0  0  0  0
   38.4790   32.4290   39.4250 C   0  0  0  0  0  0  0  0  0  0  0  0
   38.1350   31.9710   40.3670 N   0  0  0  0  0  0  0  0  0  0  0  0
   35.7770   29.8930   39.1130 H   0  0  0  0  0  0  0  0  0  0  0  0
   39.4080   33.3880   38.8930 N   0  0  0  0  0  0  0  0  0  0  0  0
   39.6630   33.4630   37.8870 H   0  0  0  0  0  0  0  0  0  0  0  0
   40.1140   34.4560   40.0090 S   0  0  0  0  0  0  0  0  0  0  0  0
   41.1880   35.3130   39.4050 O   0  0  0  0  0  1  0  0  0  0  0  0
   39.0550   35.3820   40.5920 O   0  0  0  0  0  1  0  0  0  0  0  0
   40.7940   33.6610   41.3240 O   0  0  0  0  0  0  0  0  0  0  0  0
   40.3730   32.7790   41.4860 H   0  0  0  0  0  0  0  0  0  0  0  0
  1  6  2  0  0  0  0
  1  2  1  0  0  0  0
  2  3  2  0  0  0  0
  3  4  1  0  0  0  0
  3 10  1  0  0  0  0
  5  8  1  0  0  0  0
  5  4  2  0  0  0  0
  6  5  1  0  0  0  0
  7  2  1  0  0  0  0
  9 18  1  0  0  0  0
  9 17  1  0  0  0  0
 10  9  2  0  0  0  0
 11 10  1  0  0  0  0
 11 12  2  0  0  0  0
 12 16  1  0  0  0  0
 13 12  1  0  0  0  0
 13 14  1  0  0  0  0
 14 15  2  0  0  0  0
 16 15  1  0  0  0  0
 16 17  2  0  0  0  0
 17 22  1  0  0  0  0
 19 11  1  0  0  0  0
 20 13  1  0  0  0  0
 21 14  1  0  0  0  0
 23  1  1  0  0  0  0
 24 23  1  0  0  0  0
 25 24  2  0  0  0  0
 26 27  1  0  0  0  0
 26 25  1  0  0  0  0
 27 28  2  0  0  0  0
 28 24  1  0  0  0  0
 29 25  1  0  0  0  0
 30 27  1  0  0  0  0
 30 32  1  0  0  0  0
 31 30  1  0  0  0  0
 32 34  1  0  0  0  0
 32 35  1  0  0  0  0
 33 32  1  0  0  0  0
 35 36  1  0  0  0  0
M  END
>  <minimizedAffinity>
-6.38293266

$$$$

 OpenBabel03252507393D

 36 39  0  0  0  0  0  0  0  0999 V2000
   41.3540   34.3490   40.4310 C   0  0  0  0  0  0  0  0  0  0  0  0
   40.6710   33.1290   40.6500 C   0  0  0  0  0  0  0  0  0  0  0  0
   39.2890   33.1580   40.6160 C   0  0  0  0  0  0  0  0  0  0  0  0
   38.6620   34.3290   40.3790 N   0  0  0  0  0  0  0  0  0  0  0  0
   39.3390   35.4910   40.1710 C   0  0  0  0  0  0  0  0  0  0  0  0
   40.6640   35.4890   40.1990 N   0  0  0  0  0  0  0  0  0  0  0  0
   41.1460   32.2000   40.8380 H   0  0  0  0  0  0  0  0  0  0  0  0
   38.7350   36.3820   39.9870 H   0  0  0  0  0  0  0  0  0  0  0  0
   37.1560   32.0250   40.2900 C   0  0  0  0  0  0  0  0  0  0  0  0
   38.4410   31.9920   40.8200 C   0  0  0  0  0  0  0  0  0  0  0  0
   38.8370   30.8640   41.4990 C   0  0  0  0  0  0  0  0  0  0  0  0
   38.0100   29.7760   41.6720 C   0  0  0  0  0  0  0  0  0  0  0  0
   38.1860   28.5840   42.2920 N   0  0  0  0  0  0  0  0  0  0  0  0
   37.0150   27.8740   42.1520 C   0  0  0  0  0  0  0  0  0  0  0  0
   36.1560   28.6290   41.4600 N   0  0  0  0  0  0  0  0  0  0  0  0
   36.7420   29.8020   41.1530 C   0  0  0  0  0  0  0  0  0  0  0  0
   36.3200   30.9190   40.4670 C   0  0  0  0  0  0  0  0  0  0  0  0
   36.7260   32.8310   39.7450 H   0  0  0  0  0  0  0  0  0  0  0  0
   39.8330   30.8400   41.9090 H   0  0  0  0  0  0  0  0  0  0  0  0
   39.0830   28.3190   42.7730 H   0  0  0  0  0  0  0  0  0  0  0  0
   36.9790   26.8820   42.5950 H   0  0  0  0  0  0  0  0  0  0  0  0
   35.3140   30.9080   40.0700 H   0  0  0  0  0  0  0  0  0  0  0  0
   42.7480   34.3260   40.4640 O   0  0  0  0  0  0  0  0  0  0  0  0
   43.4620   33.7470   39.4290 C   0  0  0  0  0  0  0  0  0  0  0  0
   44.6640   34.3540   39.5680 C   0  0  0  0  0  0  0  0  0  0  0  0
   45.6570   33.5570   38.1400 S   0  0  0  0  0  0  0  0  0  0  0  0
   44.1320   32.5450   37.6780 C   0  0  0  0  0  0  0  0  0  0  0  0
   43.4110   32.8900   38.4370 N   0  0  0  0  0  0  0  0  0  0  0  0
   45.3870   35.0860   40.0870 H   0  0  0  0  0  0  0  0  0  0  0  0
   44.2760   31.6590   36.5560 N   0  0  0  0  0  0  0  0  0  0  0  0
   45.0560   31.7020   35.8690 H   0  0  0  0  0  0  0  0  0  0  0  0
   43.0730   30.4730   36.3720 S   0  0  0  0  0  0  0  0  0  0  0  0
   43.0890   29.8250   35.0180 O   0  0  0  0  0  1  0  0  0  0  0  0
   43.2530   29.3770   37.4130 O   0  0  0  0  0  1  0  0  0  0  0  0
   41.5240   31.0790   36.6140 O   0  0  0  0  0  0  0  0  0  0  0  0
   41.5240   31.8820   37.1940 H   0  0  0  0  0  0  0  0  0  0  0  0
  1 23  1  0  0  0  0
  1  2  1  0  0  0  0
  2  7  1  0  0  0  0
  3  2  2  0  0  0  0
  3 10  1  0  0  0  0
  4  3  1  0  0  0  0
  5  6  1  0  0  0  0
  5  4  2  0  0  0  0
  6  1  2  0  0  0  0
  8  5  1  0  0  0  0
  9 17  2  0  0  0  0
  9 10  1  0  0  0  0
 10 11  2  0  0  0  0
 11 12  1  0  0  0  0
 11 19  1  0  0  0  0
 12 13  1  0  0  0  0
 13 20  1  0  0  0  0
 14 13  1  0  0  0  0
 14 21  1  0  0  0  0
 15 14  2  0  0  0  0
 16 15  1  0  0  0  0
 16 12  2  0  0  0  0
 17 16  1  0  0  0  0
 18  9  1  0  0  0  0
 22 17  1  0  0  0  0
 24 25  2  0  0  0  0
 24 23  1  0  0  0  0
 25 29  1  0  0  0  0
 26 25  1  0  0  0  0
 27 26  1  0  0  0  0
 27 28  2  0  0  0  0
 28 24  1  0  0  0  0
 30 27  1  0  0  0  0
 31 30  1  0  0  0  0
 32 30  1  0  0  0  0
 32 35  1  0  0  0  0
 32 34  1  0  0  0  0
 33 32  1  0  0  0  0
 35 36  1  0  0  0  0
M  END
>  <minimizedAffinity>
-6.34372759

$$$$

 OpenBabel03252507393D

 36 39  0  0  0  0  0  0  0  0999 V2000
   40.9920   34.0770   39.3640 C   0  0  0  0  0  0  0  0  0  0  0  0
   40.6340   32.8240   39.9170 C   0  0  0  0  0  0  0  0  0  0  0  0
   39.4770   32.7690   40.6730 C   0  0  0  0  0  0  0  0  0  0  0  0
   38.7510   33.8930   40.8470 N   0  0  0  0  0  0  0  0  0  0  0  0
   39.1140   35.0880   40.3060 C   0  0  0  0  0  0  0  0  0  0  0  0
   40.2180   35.1670   39.5780 N   0  0  0  0  0  0  0  0  0  0  0  0
   41.1910   31.9320   39.7920 H   0  0  0  0  0  0  0  0  0  0  0  0
   38.4560   35.9360   40.5080 H   0  0  0  0  0  0  0  0  0  0  0  0
   39.7370   30.9920   42.3200 C   0  0  0  0  0  0  0  0  0  0  0  0
   38.9720   31.5600   41.3080 C   0  0  0  0  0  0  0  0  0  0  0  0
   37.7860   30.9540   40.9690 C   0  0  0  0  0  0  0  0  0  0  0  0
   37.3350   29.8110   41.5920 C   0  0  0  0  0  0  0  0  0  0  0  0
   36.2200   29.0580   41.4260 N   0  0  0  0  0  0  0  0  0  0  0  0
   36.2880   28.0220   42.3290 C   0  0  0  0  0  0  0  0  0  0  0  0
   37.4230   28.1550   43.0230 N   0  0  0  0  0  0  0  0  0  0  0  0
   38.0850   29.2450   42.5910 C   0  0  0  0  0  0  0  0  0  0  0  0
   39.2760   29.8320   42.9510 C   0  0  0  0  0  0  0  0  0  0  0  0
   40.6700   31.3580   42.6790 H   0  0  0  0  0  0  0  0  0  0  0  0
   37.1940   31.3950   40.1840 H   0  0  0  0  0  0  0  0  0  0  0  0
   35.4810   29.2860   40.7140 H   0  0  0  0  0  0  0  0  0  0  0  0
   35.4660   27.3120   42.3340 H   0  0  0  0  0  0  0  0  0  0  0  0
   39.8440   29.3620   43.7420 H   0  0  0  0  0  0  0  0  0  0  0  0
   42.1570   34.1390   38.6010 O   0  0  0  0  0  0  0  0  0  0  0  0
   43.3970   34.0950   39.2150 C   0  0  0  0  0  0  0  0  0  0  0  0
   44.2200   34.0650   38.1410 C   0  0  0  0  0  0  0  0  0  0  0  0
   45.9380   34.0060   38.9810 S   0  0  0  0  0  0  0  0  0  0  0  0
   45.0860   34.0380   40.6650 C   0  0  0  0  0  0  0  0  0  0  0  0
   44.0250   34.0750   40.3660 N   0  0  0  0  0  0  0  0  0  0  0  0
   44.4230   34.0570   37.0060 H   0  0  0  0  0  0  0  0  0  0  0  0
   45.9490   34.0090   41.8140 N   0  0  0  0  0  0  0  0  0  0  0  0
   46.9570   33.7520   41.7840 H   0  0  0  0  0  0  0  0  0  0  0  0
   45.2430   34.4290   43.3010 S   0  0  0  0  0  0  0  0  0  0  0  0
   45.6510   33.5200   44.4230 O   0  0  0  0  0  1  0  0  0  0  0  0
   45.6400   35.8480   43.6860 O   0  0  0  0  0  1  0  0  0  0  0  0
   43.5640   34.4280   43.2430 O   0  0  0  0  0  0  0  0  0  0  0  0
   43.2220   34.5780   42.3270 H   0  0  0  0  0  0  0  0  0  0  0  0
  1  6  2  0  0  0  0
  1  2  1  0  0  0  0
  2  3  2  0  0  0  0
  3  4  1  0  0  0  0
  3 10  1  0  0  0  0
  5  8  1  0  0  0  0
  5  4  2  0  0  0  0
  6  5  1  0  0  0  0
  7  2  1  0  0  0  0
  9 18  1  0  0  0  0
  9 17  1  0  0  0  0
 10  9  2  0  0  0  0
 11 10  1  0  0  0  0
 11 12  2  0  0  0  0
 12 16  1  0  0  0  0
 13 12  1  0  0  0  0
 13 14  1  0  0  0  0
 14 21  1  0  0  0  0
 14 15  2  0  0  0  0
 16 17  2  0  0  0  0
 16 15  1  0  0  0  0
 17 22  1  0  0  0  0
 19 11  1  0  0  0  0
 20 13  1  0  0  0  0
 23 24  1  0  0  0  0
 23  1  1  0  0  0  0
 24 28  1  0  0  0  0
 25 26  1  0  0  0  0
 25 24  2  0  0  0  0
 26 27  1  0  0  0  0
 27 30  1  0  0  0  0
 28 27  2  0  0  0  0
 29 25  1  0  0  0  0
 30 32  1  0  0  0  0
 31 30  1  0  0  0  0
 32 34  1  0  0  0  0
 32 33  1  0  0  0  0
 35 32  1  0  0  0  0
 36 35  1  0  0  0  0
M  END
>  <minimizedAffinity>
-6.28511953

$$$$

 OpenBabel03252507393D

 36 39  0  0  0  0  0  0  0  0999 V2000
   37.8080   31.8580   40.7300 C   0  0  0  0  0  0  0  0  0  0  0  0
   38.7860   31.0580   41.3680 C   0  0  0  0  0  0  0  0  0  0  0  0
   38.3820   29.8310   41.8590 C   0  0  0  0  0  0  0  0  0  0  0  0
   37.0940   29.4540   41.7110 N   0  0  0  0  0  0  0  0  0  0  0  0
   36.1700   30.2400   41.0940 C   0  0  0  0  0  0  0  0  0  0  0  0
   36.5320   31.4210   40.6150 N   0  0  0  0  0  0  0  0  0  0  0  0
   39.8000   31.3370   41.4940 H   0  0  0  0  0  0  0  0  0  0  0  0
   35.1560   29.8400   41.0270 H   0  0  0  0  0  0  0  0  0  0  0  0
   38.6810   27.8010   43.1750 C   0  0  0  0  0  0  0  0  0  0  0  0
   39.2630   28.8920   42.5380 C   0  0  0  0  0  0  0  0  0  0  0  0
   40.6310   29.0180   42.5830 C   0  0  0  0  0  0  0  0  0  0  0  0
   41.4370   28.1090   43.2330 C   0  0  0  0  0  0  0  0  0  0  0  0
   42.7800   28.0350   43.4020 N   0  0  0  0  0  0  0  0  0  0  0  0
   43.0370   26.9030   44.1410 C   0  0  0  0  0  0  0  0  0  0  0  0
   41.8680   26.3120   44.4090 N   0  0  0  0  0  0  0  0  0  0  0  0
   40.8700   27.0320   43.8630 C   0  0  0  0  0  0  0  0  0  0  0  0
   39.5020   26.8810   43.8330 C   0  0  0  0  0  0  0  0  0  0  0  0
   37.6400   27.5850   43.2160 H   0  0  0  0  0  0  0  0  0  0  0  0
   41.0810   29.8630   42.0900 H   0  0  0  0  0  0  0  0  0  0  0  0
   43.4430   28.7500   43.0090 H   0  0  0  0  0  0  0  0  0  0  0  0
   44.0760   26.6860   44.3730 H   0  0  0  0  0  0  0  0  0  0  0  0
   39.0850   26.0210   44.3390 H   0  0  0  0  0  0  0  0  0  0  0  0
   38.2090   33.0970   40.2320 O   0  0  0  0  0  0  0  0  0  0  0  0
   39.4190   33.2270   39.5720 C   0  0  0  0  0  0  0  0  0  0  0  0
   39.8180   34.4500   39.9930 C   0  0  0  0  0  0  0  0  0  0  0  0
   41.4920   34.6350   39.0860 S   0  0  0  0  0  0  0  0  0  0  0  0
   41.2350   32.9300   38.3180 C   0  0  0  0  0  0  0  0  0  0  0  0
   40.2610   32.6470   38.7510 N   0  0  0  0  0  0  0  0  0  0  0  0
   39.6790   35.4180   40.6020 H   0  0  0  0  0  0  0  0  0  0  0  0
   42.2740   32.4660   37.4410 N   0  0  0  0  0  0  0  0  0  0  0  0
   43.0170   33.0740   37.0370 H   0  0  0  0  0  0  0  0  0  0  0  0
   42.2590   30.8110   37.0600 S   0  0  0  0  0  0  0  0  0  0  0  0
   43.0150   30.4890   35.8040 O   0  0  0  0  0  1  0  0  0  0  0  0
   42.8810   30.0070   38.1940 O   0  0  0  0  0  1  0  0  0  0  0  0
   40.7030   30.2030   36.8740 O   0  0  0  0  0  0  0  0  0  0  0  0
   40.0330   30.7340   37.3740 H   0  0  0  0  0  0  0  0  0  0  0  0
  1  2  1  0  0  0  0
  2  7  1  0  0  0  0
  2  3  2  0  0  0  0
  3 10  1  0  0  0  0
  4  3  1  0  0  0  0
  5  4  2  0  0  0  0
  6  1  2  0  0  0  0
  6  5  1  0  0  0  0
  8  5  1  0  0  0  0
  9 18  1  0  0  0  0
  9 17  1  0  0  0  0
 10 11  1  0  0  0  0
 10  9  2  0  0  0  0
 11 12  2  0  0  0  0
 12 13  1  0  0  0  0
 12 16  1  0  0  0  0
 13 14  1  0  0  0  0
 14 21  1  0  0  0  0
 14 15  2  0  0  0  0
 16 15  1  0  0  0  0
 17 16  2  0  0  0  0
 17 22  1  0  0  0  0
 19 11  1  0  0  0  0
 20 13  1  0  0  0  0
 23  1  1  0  0  0  0
 24 25  2  0  0  0  0
 24 23  1  0  0  0  0
 25 29  1  0  0  0  0
 26 25  1  0  0  0  0
 27 28  2  0  0  0  0
 27 26  1  0  0  0  0
 28 24  1  0  0  0  0
 30 27  1  0  0  0  0
 31 30  1  0  0  0  0
 32 30  1  0  0  0  0
 32 34  1  0  0  0  0
 33 32  1  0  0  0  0
 35 32  1  0  0  0  0
 35 36  1  0  0  0  0
M  END
>  <minimizedAffinity>
-6.140306

$$$$
