
 OpenBabel03242515013D

 35 36  0  0  0  0  0  0  0  0999 V2000
   43.9660   34.8190   40.8710 S   0  0  0  0  0  0  0  0  0  0  0  0
   45.1670   34.4550   42.1590 C   0  0  0  0  0  0  0  0  0  0  0  0
   46.5130   34.5840   41.8220 C   0  0  0  0  0  0  0  0  0  0  0  0
   47.4700   34.3110   42.7900 C   0  0  0  0  0  0  0  0  0  0  0  0
   47.0480   33.9270   44.0290 N   0  0  0  0  0  0  0  0  0  0  0  0
   45.7520   33.8110   44.3290 C   0  0  0  0  0  0  0  0  0  0  0  0
   44.8110   34.0710   43.4040 N   0  0  0  0  0  0  0  0  0  0  0  0
   46.8920   34.8840   40.8530 H   0  0  0  0  0  0  0  0  0  0  0  0
   48.5250   34.3990   42.5680 H   0  0  0  0  0  0  0  0  0  0  0  0
   45.3820   33.3940   45.6830 C   0  0  0  0  0  0  0  0  0  0  0  0
   45.0570   34.3080   46.5040 O   0  0  0  0  0  0  0  0  0  0  0  0
   45.4120   32.0060   45.9820 N   0  0  0  0  0  0  0  0  0  0  0  0
   44.5450   31.4340   45.8260 H   0  0  0  0  0  0  0  0  0  0  0  0
   46.8730   31.3410   46.5860 S   0  0  0  0  0  0  0  0  0  0  0  0
   47.6450   32.2710   47.4570 O   0  0  0  0  0  1  0  0  0  0  0  0
   47.7930   30.9040   45.4650 O   0  0  0  0  0  1  0  0  0  0  0  0
   46.4700   29.9440   47.4620 O   0  0  0  0  0  0  0  0  0  0  0  0
   45.5150   30.0100   47.7670 H   0  0  0  0  0  0  0  0  0  0  0  0
   42.2740   34.7710   41.4650 C   0  0  0  0  0  0  0  0  0  0  0  0
   42.2820   35.0160   42.5560 H   0  0  0  0  0  0  0  0  0  0  0  0
   41.8090   33.7640   41.4140 H   0  0  0  0  0  0  0  0  0  0  0  0
   41.3960   35.7880   40.8100 C   0  0  0  0  0  0  0  0  0  0  0  0
   42.0640   36.4730   40.2100 H   0  0  0  0  0  0  0  0  0  0  0  0
   40.8650   36.4570   41.5210 H   0  0  0  0  0  0  0  0  0  0  0  0
   42.0890   36.0480   37.8510 Cl  0  0  0  0  0  0  0  0  0  0  0  0
   40.6870   35.2150   38.4640 C   0  0  0  0  0  0  0  0  0  0  0  0
   40.4590   35.1520   39.8440 C   0  0  0  0  0  0  0  0  0  0  0  0
   39.3290   34.4750   40.2430 C   0  0  0  0  0  0  0  0  0  0  0  0
   38.4000   33.8530   39.4220 C   0  0  0  0  0  0  0  0  0  0  0  0
   38.6550   33.9340   38.0540 C   0  0  0  0  0  0  0  0  0  0  0  0
   37.5400   33.1780   36.9220 Cl  0  0  0  0  0  0  0  0  0  0  0  0
   39.7700   34.5970   37.6030 C   0  0  0  0  0  0  0  0  0  0  0  0
   39.1900   34.4500   41.3200 H   0  0  0  0  0  0  0  0  0  0  0  0
   37.5440   33.3450   39.8260 H   0  0  0  0  0  0  0  0  0  0  0  0
   39.9160   34.6270   36.5300 H   0  0  0  0  0  0  0  0  0  0  0  0
  1 19  1  0  0  0  0
  1  2  1  0  0  0  0
  2  7  1  0  0  0  0
  3  2  2  0  0  0  0
  3  4  1  0  0  0  0
  4  5  2  0  0  0  0
  5  6  1  0  0  0  0
  6 10  1  0  0  0  0
  7  6  2  0  0  0  0
  8  3  1  0  0  0  0
  9  4  1  0  0  0  0
 10 12  1  0  0  0  0
 10 11  2  0  0  0  0
 12 14  1  0  0  0  0
 13 12  1  0  0  0  0
 14 15  1  0  0  0  0
 14 17  1  0  0  0  0
 16 14  1  0  0  0  0
 17 18  1  0  0  0  0
 19 20  1  0  0  0  0
 21 19  1  0  0  0  0
 22 19  1  0  0  0  0
 22 24  1  0  0  0  0
 23 22  1  0  0  0  0
 25 26  1  0  0  0  0
 26 27  1  0  0  0  0
 27 28  2  0  0  0  0
 27 22  1  0  0  0  0
 28 33  1  0  0  0  0
 29 34  1  0  0  0  0
 29 28  1  0  0  0  0
 30 29  2  0  0  0  0
 31 30  1  0  0  0  0
 32 30  1  0  0  0  0
 32 26  2  0  0  0  0
 35 32  1  0  0  0  0
M  END
>  <minimizedAffinity>
-6.0823555

>  <minimizedRMSD>
1.19172394

$$$$
