
 OpenBabel03252507373D

 36 39  0  0  0  0  0  0  0  0999 V2000
   45.5120   34.7430   43.8220 C   0  0  0  0  0  0  0  0  0  0  0  0
   46.2760   33.6860   44.3690 C   0  0  0  0  0  0  0  0  0  0  0  0
   46.1100   33.4090   45.7140 C   0  0  0  0  0  0  0  0  0  0  0  0
   45.2400   34.1480   46.4340 N   0  0  0  0  0  0  0  0  0  0  0  0
   44.5140   35.1610   45.8870 C   0  0  0  0  0  0  0  0  0  0  0  0
   44.6560   35.4460   44.6010 N   0  0  0  0  0  0  0  0  0  0  0  0
   46.9650   33.0960   43.8210 H   0  0  0  0  0  0  0  0  0  0  0  0
   43.8380   35.6950   46.5580 H   0  0  0  0  0  0  0  0  0  0  0  0
   47.1840   32.5990   47.7460 C   0  0  0  0  0  0  0  0  0  0  0  0
   46.8190   32.3560   46.4260 C   0  0  0  0  0  0  0  0  0  0  0  0
   47.1420   31.1400   45.8740 C   0  0  0  0  0  0  0  0  0  0  0  0
   47.8120   30.1620   46.5770 C   0  0  0  0  0  0  0  0  0  0  0  0
   48.2260   28.9160   46.2420 N   0  0  0  0  0  0  0  0  0  0  0  0
   48.8480   28.3810   47.3470 C   0  0  0  0  0  0  0  0  0  0  0  0
   48.8060   29.2920   48.3240 N   0  0  0  0  0  0  0  0  0  0  0  0
   48.1750   30.3950   47.8790 C   0  0  0  0  0  0  0  0  0  0  0  0
   47.8630   31.6050   48.4570 C   0  0  0  0  0  0  0  0  0  0  0  0
   46.9950   33.4920   48.2920 H   0  0  0  0  0  0  0  0  0  0  0  0
   46.8590   30.9530   44.8520 H   0  0  0  0  0  0  0  0  0  0  0  0
   48.0650   28.5000   45.2900 H   0  0  0  0  0  0  0  0  0  0  0  0
   49.2460   27.3740   47.2550 H   0  0  0  0  0  0  0  0  0  0  0  0
   48.1630   31.7570   49.4840 H   0  0  0  0  0  0  0  0  0  0  0  0
   45.6750   35.0270   42.4670 O   0  0  0  0  0  0  0  0  0  0  0  0
   44.5970   34.9490   41.6010 C   0  0  0  0  0  0  0  0  0  0  0  0
   45.0200   33.9950   40.7400 C   0  0  0  0  0  0  0  0  0  0  0  0
   43.5340   33.8810   39.5410 S   0  0  0  0  0  0  0  0  0  0  0  0
   42.6560   35.2170   40.5450 C   0  0  0  0  0  0  0  0  0  0  0  0
   43.4050   35.4220   41.3280 N   0  0  0  0  0  0  0  0  0  0  0  0
   45.7940   33.2300   40.3590 H   0  0  0  0  0  0  0  0  0  0  0  0
   41.3500   35.6020   40.0830 N   0  0  0  0  0  0  0  0  0  0  0  0
   40.9400   36.5500   40.2040 H   0  0  0  0  0  0  0  0  0  0  0  0
   40.4450   34.4020   39.2920 S   0  0  0  0  0  0  0  0  0  0  0  0
   40.6220   33.0380   39.8940 O   0  0  0  0  0  1  0  0  0  0  0  0
   38.9610   34.7420   39.3470 O   0  0  0  0  0  1  0  0  0  0  0  0
   40.8220   34.2780   37.6580 O   0  0  0  0  0  0  0  0  0  0  0  0
   41.1880   35.1230   37.2960 H   0  0  0  0  0  0  0  0  0  0  0  0
  1  2  2  0  0  0  0
  1  6  1  0  0  0  0
  2  3  1  0  0  0  0
  3 10  1  0  0  0  0
  3  4  2  0  0  0  0
  5  4  1  0  0  0  0
  5  8  1  0  0  0  0
  6  5  2  0  0  0  0
  7  2  1  0  0  0  0
  9 18  1  0  0  0  0
  9 17  1  0  0  0  0
 10  9  2  0  0  0  0
 11 10  1  0  0  0  0
 11 12  2  0  0  0  0
 12 16  1  0  0  0  0
 13 12  1  0  0  0  0
 13 14  1  0  0  0  0
 14 15  2  0  0  0  0
 16 15  1  0  0  0  0
 16 17  2  0  0  0  0
 17 22  1  0  0  0  0
 19 11  1  0  0  0  0
 20 13  1  0  0  0  0
 21 14  1  0  0  0  0
 23  1  1  0  0  0  0
 24 23  1  0  0  0  0
 25 24  2  0  0  0  0
 26 27  1  0  0  0  0
 26 25  1  0  0  0  0
 27 28  2  0  0  0  0
 28 24  1  0  0  0  0
 29 25  1  0  0  0  0
 30 31  1  0  0  0  0
 30 27  1  0  0  0  0
 32 34  1  0  0  0  0
 32 33  1  0  0  0  0
 32 30  1  0  0  0  0
 35 32  1  0  0  0  0
 36 35  1  0  0  0  0
M  END
>  <minimizedAffinity>
-6.28695869

>  <minimizedRMSD>
0.395979017

$$$$
