
 OpenBabel03252508003D

 27 28  0  0  1  0  0  0  0  0999 V2000
   46.2430   34.7910   43.2200 C   0  0  0  0  0  0  0  0  0  0  0  0
   45.2920   35.8190   43.4960 C   0  0  0  0  0  0  0  0  0  0  0  0
   44.6030   35.6970   44.7020 C   0  0  0  0  0  0  0  0  0  0  0  0
   44.8690   34.6430   45.5120 N   0  0  0  0  0  0  0  0  0  0  0  0
   45.8030   33.6940   45.1700 C   0  0  0  0  0  0  0  0  0  0  0  0
   46.4930   33.7440   44.0480 N   0  0  0  0  0  0  0  0  0  0  0  0
   45.1540   36.6160   42.7840 H   0  0  0  0  0  0  0  0  0  0  0  0
   43.8730   36.4530   44.9520 H   0  0  0  0  0  0  0  0  0  0  0  0
   46.0480   32.5620   46.1130 C   0  0  1  0  0  0  0  0  0  0  0  0
   46.8370   32.8230   47.3740 C   0  0  0  0  0  0  0  0  0  0  0  0
   45.3380   32.6780   47.4060 C   0  0  1  0  0  0  0  0  0  0  0  0
   46.2290   31.6140   45.5940 H   0  0  0  0  0  0  0  0  0  0  0  0
   47.4720   32.0000   47.7070 H   0  0  0  0  0  0  0  0  0  0  0  0
   47.3240   33.8060   47.4030 H   0  0  0  0  0  0  0  0  0  0  0  0
   44.9620   31.7370   47.8250 H   0  0  0  0  0  0  0  0  0  0  0  0
   44.6860   33.9430   47.7560 N   0  0  0  0  0  0  0  0  0  0  0  0
   43.6570   33.8100   47.7040 H   0  0  0  0  0  0  0  0  0  0  0  0
   44.9790   34.2600   48.7180 H   0  0  0  0  0  0  0  0  0  0  0  0
   46.9600   34.9270   41.9640 C   0  0  0  0  0  0  0  0  0  0  0  0
   48.1750   35.3250   41.8840 O   0  0  0  0  0  0  0  0  0  0  0  0
   46.2400   34.5910   40.7650 N   0  0  0  0  0  0  0  0  0  0  0  0
   46.2950   35.2260   39.9190 H   0  0  0  0  0  0  0  0  0  0  0  0
   45.2800   33.1490   40.6900 S   0  0  0  0  0  0  0  0  0  0  0  0
   44.0110   33.3860   41.4630 O   0  0  0  0  0  1  0  0  0  0  0  0
   46.0870   32.0180   41.2890 O   0  0  0  0  0  1  0  0  0  0  0  0
   44.9030   32.7930   39.0980 O   0  0  0  0  0  0  0  0  0  0  0  0
   44.0960   33.3060   38.8010 H   0  0  0  0  0  0  0  0  0  0  0  0
  1  2  2  0  0  0  0
  1  6  1  0  0  0  0
  2  3  1  0  0  0  0
  3  8  1  0  0  0  0
  3  4  2  0  0  0  0
  5  4  1  0  0  0  0
  5  9  1  0  0  0  0
  6  5  2  0  0  0  0
  7  2  1  0  0  0  0
  9 12  1  6  0  0  0
  9 10  1  0  0  0  0
  9 11  1  0  0  0  0
 10 14  1  0  0  0  0
 10 11  1  0  0  0  0
 10 13  1  0  0  0  0
 11 16  1  0  0  0  0
 11 15  1  1  0  0  0
 16 18  1  0  0  0  0
 17 16  1  0  0  0  0
 19  1  1  0  0  0  0
 20 19  2  0  0  0  0
 21 19  1  0  0  0  0
 22 21  1  0  0  0  0
 23 21  1  0  0  0  0
 23 25  1  0  0  0  0
 23 24  1  0  0  0  0
 26 23  1  0  0  0  0
 27 26  1  0  0  0  0
M  END
>  <minimizedAffinity>
-5.12390757

>  <minimizedRMSD>
0.34956339

$$$$
