
 OpenBabel03252508003D

 27 28  0  0  1  0  0  0  0  0999 V2000
   45.9780   31.8140   44.9410 C   0  0  0  0  0  0  0  0  0  0  0  0
   45.5510   30.7110   44.1420 C   0  0  0  0  0  0  0  0  0  0  0  0
   44.8050   31.0380   43.0100 C   0  0  0  0  0  0  0  0  0  0  0  0
   44.5380   32.3410   42.7470 N   0  0  0  0  0  0  0  0  0  0  0  0
   44.9880   33.3450   43.5720 C   0  0  0  0  0  0  0  0  0  0  0  0
   45.7000   33.1120   44.6570 N   0  0  0  0  0  0  0  0  0  0  0  0
   45.8150   29.7090   44.4380 H   0  0  0  0  0  0  0  0  0  0  0  0
   44.4600   30.2340   42.3760 H   0  0  0  0  0  0  0  0  0  0  0  0
   44.6620   34.7590   43.2190 C   0  0  1  0  0  0  0  0  0  0  0  0
   45.7930   35.7400   43.0220 C   0  0  0  0  0  0  0  0  0  0  0  0
   45.0560   35.1530   41.8480 C   0  0  1  0  0  0  0  0  0  0  0  0
   43.7620   35.1230   43.7280 H   0  0  0  0  0  0  0  0  0  0  0  0
   45.5840   36.7630   43.3410 H   0  0  0  0  0  0  0  0  0  0  0  0
   46.7730   35.3630   43.3370 H   0  0  0  0  0  0  0  0  0  0  0  0
   44.3640   35.8330   41.3340 H   0  0  0  0  0  0  0  0  0  0  0  0
   45.9190   34.2650   41.0650 N   0  0  0  0  0  0  0  0  0  0  0  0
   45.3510   33.8370   40.3060 H   0  0  0  0  0  0  0  0  0  0  0  0
   46.7400   34.7950   40.6710 H   0  0  0  0  0  0  0  0  0  0  0  0
   46.7590   31.4650   46.1150 C   0  0  0  0  0  0  0  0  0  0  0  0
   47.7390   30.6400   46.0920 O   0  0  0  0  0  0  0  0  0  0  0  0
   46.3880   32.0960   47.3540 N   0  0  0  0  0  0  0  0  0  0  0  0
   46.1840   33.1340   47.3790 H   0  0  0  0  0  0  0  0  0  0  0  0
   46.2710   31.1670   48.8140 S   0  0  0  0  0  0  0  0  0  0  0  0
   47.6650   30.8860   49.3070 O   0  0  0  0  0  1  0  0  0  0  0  0
   45.5310   29.8860   48.4960 O   0  0  0  0  0  1  0  0  0  0  0  0
   45.4330   32.0290   49.9770 O   0  0  0  0  0  0  0  0  0  0  0  0
   46.0430   32.6570   50.4640 H   0  0  0  0  0  0  0  0  0  0  0  0
  1 19  1  0  0  0  0
  2  7  1  0  0  0  0
  2  1  2  0  0  0  0
  3  2  1  0  0  0  0
  4  3  2  0  0  0  0
  4  5  1  0  0  0  0
  5  6  2  0  0  0  0
  6  1  1  0  0  0  0
  8  3  1  0  0  0  0
  9  5  1  0  0  0  0
  9 12  1  1  0  0  0
 10  9  1  0  0  0  0
 10 14  1  0  0  0  0
 10 13  1  0  0  0  0
 11 15  1  6  0  0  0
 11 10  1  0  0  0  0
 11  9  1  0  0  0  0
 16 11  1  0  0  0  0
 17 16  1  0  0  0  0
 18 16  1  0  0  0  0
 19 21  1  0  0  0  0
 20 19  2  0  0  0  0
 21 22  1  0  0  0  0
 21 23  1  0  0  0  0
 23 24  1  0  0  0  0
 23 26  1  0  0  0  0
 25 23  1  0  0  0  0
 26 27  1  0  0  0  0
M  END
>  <minimizedAffinity>
-4.2707448

>  <minimizedRMSD>
7.01159906

$$$$
