
 OpenBabel03242516533D

 43 45  0  0  1  0  0  0  0  0999 V2000
   47.8720   32.9250   41.8190 C   0  0  1  0  0  0  0  0  0  0  0  0
   47.5690   32.1680   40.6060 C   0  0  0  0  0  0  0  0  0  0  0  0
   48.5910   32.6070   39.5610 C   0  0  0  0  0  0  0  0  0  0  0  0
   48.2370   34.0410   39.1860 C   0  0  0  0  0  0  0  0  0  0  0  0
   48.1460   34.9750   40.3540 C   0  0  0  0  0  0  0  0  0  0  0  0
   47.6560   34.4300   41.6270 C   0  0  1  0  0  0  0  0  0  0  0  0
   48.9880   32.8680   42.0110 H   0  0  0  0  0  0  0  0  0  0  0  0
   46.5810   32.4250   40.1470 H   0  0  0  0  0  0  0  0  0  0  0  0
   47.7030   31.0990   40.7600 H   0  0  0  0  0  0  0  0  0  0  0  0
   48.3600   31.9940   38.6540 H   0  0  0  0  0  0  0  0  0  0  0  0
   49.6140   32.4970   39.9180 H   0  0  0  0  0  0  0  0  0  0  0  0
   48.9690   34.3970   38.4500 H   0  0  0  0  0  0  0  0  0  0  0  0
   47.2490   33.9800   38.6710 H   0  0  0  0  0  0  0  0  0  0  0  0
   49.1520   35.4780   40.4550 H   0  0  0  0  0  0  0  0  0  0  0  0
   47.4680   35.7980   40.0380 H   0  0  0  0  0  0  0  0  0  0  0  0
   48.2550   34.9080   42.4600 H   0  0  0  0  0  0  0  0  0  0  0  0
   45.5190   31.0950   44.1410 C   0  0  0  0  0  0  0  0  0  0  0  0
   46.1960   31.5570   43.0080 C   0  0  0  0  0  0  0  0  0  0  0  0
   47.2300   32.4970   43.0440 C   0  0  0  0  0  0  0  0  0  0  0  0
   47.5540   32.9490   44.2550 N   0  0  0  0  0  0  0  0  0  0  0  0
   46.9090   32.5130   45.3680 C   0  0  0  0  0  0  0  0  0  0  0  0
   45.9250   31.6190   45.3360 N   0  0  0  0  0  0  0  0  0  0  0  0
   44.7350   30.3720   44.0380 H   0  0  0  0  0  0  0  0  0  0  0  0
   45.8700   31.1380   42.0640 H   0  0  0  0  0  0  0  0  0  0  0  0
   47.2690   32.9620   46.2970 H   0  0  0  0  0  0  0  0  0  0  0  0
   46.2710   34.8150   41.9020 C   0  0  0  0  0  0  0  0  0  0  0  0
   45.8200   35.5410   43.0150 C   0  0  0  0  0  0  0  0  0  0  0  0
   44.4490   35.8060   43.0540 C   0  0  0  0  0  0  0  0  0  0  0  0
   43.6670   35.3410   42.0190 C   0  0  0  0  0  0  0  0  0  0  0  0
   44.1300   34.6300   40.9350 C   0  0  0  0  0  0  0  0  0  0  0  0
   45.4670   34.3730   40.9000 N   0  0  0  0  0  0  0  0  0  0  0  0
   46.5470   35.8250   43.7240 H   0  0  0  0  0  0  0  0  0  0  0  0
   44.0840   36.3620   43.9010 H   0  0  0  0  0  0  0  0  0  0  0  0
   42.6090   35.5880   42.1210 H   0  0  0  0  0  0  0  0  0  0  0  0
   43.2200   34.1800   39.8720 C   0  0  0  0  0  0  0  0  0  0  0  0
   42.6190   35.0570   39.1980 O   0  0  0  0  0  0  0  0  0  0  0  0
   43.0170   32.7940   39.6060 N   0  0  0  0  0  0  0  0  0  0  0  0
   42.4180   32.3050   40.3070 H   0  0  0  0  0  0  0  0  0  0  0  0
   43.8090   32.2310   38.1790 S   0  0  0  0  0  0  0  0  0  0  0  0
   42.8340   31.6630   37.1910 O   0  0  0  0  0  1  0  0  0  0  0  0
   44.6740   33.2840   37.5450 O   0  0  0  0  0  1  0  0  0  0  0  0
   44.8650   30.9950   38.6780 O   0  0  0  0  0  0  0  0  0  0  0  0
   45.7420   31.3740   38.9430 H   0  0  0  0  0  0  0  0  0  0  0  0
  1  7  1  1  0  0  0
  1 19  1  0  0  0  0
  2  9  1  0  0  0  0
  2  1  1  0  0  0  0
  3 11  1  0  0  0  0
  3  2  1  0  0  0  0
  4  3  1  0  0  0  0
  4  5  1  0  0  0  0
  5 14  1  0  0  0  0
  5  6  1  0  0  0  0
  6  1  1  0  0  0  0
  6 26  1  0  0  0  0
  6 16  1  1  0  0  0
  8  2  1  0  0  0  0
 10  3  1  0  0  0  0
 12  4  1  0  0  0  0
 13  4  1  0  0  0  0
 15  5  1  0  0  0  0
 17 22  1  0  0  0  0
 18 19  1  0  0  0  0
 18 17  2  0  0  0  0
 19 20  2  0  0  0  0
 20 21  1  0  0  0  0
 21 25  1  0  0  0  0
 22 21  2  0  0  0  0
 23 17  1  0  0  0  0
 24 18  1  0  0  0  0
 26 27  1  0  0  0  0
 27 28  2  0  0  0  0
 27 32  1  0  0  0  0
 28 33  1  0  0  0  0
 29 34  1  0  0  0  0
 29 28  1  0  0  0  0
 30 29  2  0  0  0  0
 31 30  1  0  0  0  0
 31 26  2  0  0  0  0
 35 30  1  0  0  0  0
 36 35  2  0  0  0  0
 37 35  1  0  0  0  0
 37 38  1  0  0  0  0
 39 42  1  0  0  0  0
 39 37  1  0  0  0  0
 40 39  1  0  0  0  0
 41 39  1  0  0  0  0
 42 43  1  0  0  0  0
M  END
>  <minimizedAffinity>
-5.19671488

>  <minimizedRMSD>
0.64199394

$$$$
