
 OpenBabel03252508013D

 27 28  0  0  1  0  0  0  0  0999 V2000
   46.2740   34.8260   43.2000 C   0  0  0  0  0  0  0  0  0  0  0  0
   45.3100   35.8450   43.4650 C   0  0  0  0  0  0  0  0  0  0  0  0
   44.5990   35.7090   44.6570 C   0  0  0  0  0  0  0  0  0  0  0  0
   44.8580   34.6500   45.4640 N   0  0  0  0  0  0  0  0  0  0  0  0
   45.8050   33.7110   45.1320 C   0  0  0  0  0  0  0  0  0  0  0  0
   46.5160   33.7750   44.0240 N   0  0  0  0  0  0  0  0  0  0  0  0
   45.1790   36.6470   42.7570 H   0  0  0  0  0  0  0  0  0  0  0  0
   43.8580   36.4570   44.8980 H   0  0  0  0  0  0  0  0  0  0  0  0
   46.0410   32.5730   46.0710 C   0  0  1  0  0  0  0  0  0  0  0  0
   46.8290   32.8240   47.3340 C   0  0  0  0  0  0  0  0  0  0  0  0
   45.3300   32.6900   47.3640 C   0  0  1  0  0  0  0  0  0  0  0  0
   46.2150   31.6260   45.5490 H   0  0  0  0  0  0  0  0  0  0  0  0
   47.4580   31.9950   47.6650 H   0  0  0  0  0  0  0  0  0  0  0  0
   47.3230   33.8020   47.3680 H   0  0  0  0  0  0  0  0  0  0  0  0
   44.9460   31.7490   47.7780 H   0  0  0  0  0  0  0  0  0  0  0  0
   44.6860   33.9580   47.7180 N   0  0  0  0  0  0  0  0  0  0  0  0
   43.6560   33.8310   47.6640 H   0  0  0  0  0  0  0  0  0  0  0  0
   44.9800   34.2680   48.6810 H   0  0  0  0  0  0  0  0  0  0  0  0
   47.0130   34.9780   41.9590 C   0  0  0  0  0  0  0  0  0  0  0  0
   48.1790   35.5050   41.8920 O   0  0  0  0  0  0  0  0  0  0  0  0
   46.3770   34.5020   40.7600 N   0  0  0  0  0  0  0  0  0  0  0  0
   45.3580   34.7250   40.5760 H   0  0  0  0  0  0  0  0  0  0  0  0
   47.2660   33.5610   39.6060 S   0  0  0  0  0  0  0  0  0  0  0  0
   48.0540   32.5190   40.3520 O   0  0  0  0  0  1  0  0  0  0  0  0
   48.1760   34.4970   38.8400 O   0  0  0  0  0  1  0  0  0  0  0  0
   46.2120   32.8080   38.5460 O   0  0  0  0  0  0  0  0  0  0  0  0
   45.8720   31.9490   38.9330 H   0  0  0  0  0  0  0  0  0  0  0  0
  1  2  2  0  0  0  0
  1  6  1  0  0  0  0
  2  3  1  0  0  0  0
  3  8  1  0  0  0  0
  3  4  2  0  0  0  0
  5  4  1  0  0  0  0
  5  9  1  0  0  0  0
  6  5  2  0  0  0  0
  7  2  1  0  0  0  0
  9 12  1  6  0  0  0
  9 10  1  0  0  0  0
  9 11  1  0  0  0  0
 10 11  1  0  0  0  0
 10 14  1  0  0  0  0
 10 13  1  0  0  0  0
 11 16  1  0  0  0  0
 11 15  1  1  0  0  0
 16 18  1  0  0  0  0
 17 16  1  0  0  0  0
 19  1  1  0  0  0  0
 20 19  2  0  0  0  0
 21 19  1  0  0  0  0
 22 21  1  0  0  0  0
 23 24  1  0  0  0  0
 23 21  1  0  0  0  0
 25 23  1  0  0  0  0
 26 27  1  0  0  0  0
 26 23  1  0  0  0  0
M  END
>  <minimizedAffinity>
-5.4528861

>  <minimizedRMSD>
0.217950121

$$$$
