
 OpenBabel03242516533D

 43 45  0  0  1  0  0  0  0  0999 V2000
   47.8450   32.8930   41.8100 C   0  0  1  0  0  0  0  0  0  0  0  0
   47.5130   32.1650   40.5870 C   0  0  0  0  0  0  0  0  0  0  0  0
   48.5230   32.6140   39.5350 C   0  0  0  0  0  0  0  0  0  0  0  0
   48.1810   34.0600   39.1960 C   0  0  0  0  0  0  0  0  0  0  0  0
   48.1210   34.9700   40.3850 C   0  0  0  0  0  0  0  0  0  0  0  0
   47.6440   34.4040   41.6540 C   0  0  1  0  0  0  0  0  0  0  0  0
   48.9640   32.8170   41.9820 H   0  0  0  0  0  0  0  0  0  0  0  0
   46.5210   32.4440   40.1500 H   0  0  0  0  0  0  0  0  0  0  0  0
   47.6360   31.0920   40.7150 H   0  0  0  0  0  0  0  0  0  0  0  0
   48.2690   32.0240   38.6180 H   0  0  0  0  0  0  0  0  0  0  0  0
   49.5500   32.4850   39.8720 H   0  0  0  0  0  0  0  0  0  0  0  0
   48.9050   34.4230   38.4560 H   0  0  0  0  0  0  0  0  0  0  0  0
   47.1840   34.0230   38.6960 H   0  0  0  0  0  0  0  0  0  0  0  0
   49.1340   35.4580   40.4800 H   0  0  0  0  0  0  0  0  0  0  0  0
   47.4480   35.8080   40.0980 H   0  0  0  0  0  0  0  0  0  0  0  0
   48.2630   34.8560   42.4870 H   0  0  0  0  0  0  0  0  0  0  0  0
   45.5300   31.0170   44.1340 C   0  0  0  0  0  0  0  0  0  0  0  0
   46.1920   31.4970   42.9990 C   0  0  0  0  0  0  0  0  0  0  0  0
   47.2180   32.4460   43.0360 C   0  0  0  0  0  0  0  0  0  0  0  0
   47.5480   32.8890   44.2500 N   0  0  0  0  0  0  0  0  0  0  0  0
   46.9170   32.4350   45.3630 C   0  0  0  0  0  0  0  0  0  0  0  0
   45.9410   31.5330   45.3310 N   0  0  0  0  0  0  0  0  0  0  0  0
   44.7510   30.2880   44.0300 H   0  0  0  0  0  0  0  0  0  0  0  0
   45.8620   31.0850   42.0540 H   0  0  0  0  0  0  0  0  0  0  0  0
   47.2820   32.8780   46.2940 H   0  0  0  0  0  0  0  0  0  0  0  0
   46.2690   34.8000   41.9600 C   0  0  0  0  0  0  0  0  0  0  0  0
   45.8530   35.5490   43.0710 C   0  0  0  0  0  0  0  0  0  0  0  0
   44.4830   35.8200   43.1430 C   0  0  0  0  0  0  0  0  0  0  0  0
   43.6710   35.3380   42.1400 C   0  0  0  0  0  0  0  0  0  0  0  0
   44.1010   34.6030   41.0570 C   0  0  0  0  0  0  0  0  0  0  0  0
   45.4360   34.3410   40.9900 N   0  0  0  0  0  0  0  0  0  0  0  0
   46.6000   35.8450   43.7540 H   0  0  0  0  0  0  0  0  0  0  0  0
   44.1440   36.3940   43.9890 H   0  0  0  0  0  0  0  0  0  0  0  0
   42.6170   35.5910   42.2660 H   0  0  0  0  0  0  0  0  0  0  0  0
   43.1610   34.1360   40.0290 C   0  0  0  0  0  0  0  0  0  0  0  0
   42.8820   34.9190   39.0830 O   0  0  0  0  0  0  0  0  0  0  0  0
   42.5750   32.8390   40.0940 N   0  0  0  0  0  0  0  0  0  0  0  0
   42.4470   32.4720   41.0620 H   0  0  0  0  0  0  0  0  0  0  0  0
   42.2060   32.1590   38.5510 S   0  0  0  0  0  0  0  0  0  0  0  0
   41.0320   32.8370   37.9110 O   0  0  0  0  0  1  0  0  0  0  0  0
   43.3930   32.1410   37.6280 O   0  0  0  0  0  1  0  0  0  0  0  0
   41.8100   30.5290   38.8320 O   0  0  0  0  0  0  0  0  0  0  0  0
   42.6260   29.9660   38.8190 H   0  0  0  0  0  0  0  0  0  0  0  0
  1  7  1  1  0  0  0
  1 19  1  0  0  0  0
  2  9  1  0  0  0  0
  2  1  1  0  0  0  0
  3 11  1  0  0  0  0
  3  2  1  0  0  0  0
  4  3  1  0  0  0  0
  4  5  1  0  0  0  0
  5 14  1  0  0  0  0
  5  6  1  0  0  0  0
  6  1  1  0  0  0  0
  6 26  1  0  0  0  0
  6 16  1  1  0  0  0
  8  2  1  0  0  0  0
 10  3  1  0  0  0  0
 12  4  1  0  0  0  0
 13  4  1  0  0  0  0
 15  5  1  0  0  0  0
 17 22  1  0  0  0  0
 18 19  1  0  0  0  0
 18 17  2  0  0  0  0
 19 20  2  0  0  0  0
 20 21  1  0  0  0  0
 21 25  1  0  0  0  0
 22 21  2  0  0  0  0
 23 17  1  0  0  0  0
 24 18  1  0  0  0  0
 26 27  1  0  0  0  0
 27 28  2  0  0  0  0
 27 32  1  0  0  0  0
 28 33  1  0  0  0  0
 29 34  1  0  0  0  0
 29 28  1  0  0  0  0
 30 29  2  0  0  0  0
 31 30  1  0  0  0  0
 31 26  2  0  0  0  0
 35 37  1  0  0  0  0
 35 30  1  0  0  0  0
 36 35  2  0  0  0  0
 37 38  1  0  0  0  0
 39 42  1  0  0  0  0
 39 37  1  0  0  0  0
 40 39  1  0  0  0  0
 41 39  1  0  0  0  0
 43 42  1  0  0  0  0
M  END
>  <minimizedAffinity>
-5.19994068

>  <minimizedRMSD>
0.739023745

$$$$
