
 OpenBabel03242515013D

 35 36  0  0  0  0  0  0  0  0999 V2000
   43.2340   34.2900   40.8790 S   0  0  0  0  0  0  0  0  0  0  0  0
   44.6880   34.3610   41.9350 C   0  0  0  0  0  0  0  0  0  0  0  0
   45.9160   34.5560   41.3070 C   0  0  0  0  0  0  0  0  0  0  0  0
   47.0610   34.6170   42.0880 C   0  0  0  0  0  0  0  0  0  0  0  0
   46.9320   34.4830   43.4400 N   0  0  0  0  0  0  0  0  0  0  0  0
   45.7430   34.2970   44.0200 C   0  0  0  0  0  0  0  0  0  0  0  0
   44.6240   34.2360   43.2780 N   0  0  0  0  0  0  0  0  0  0  0  0
   46.0650   34.6670   40.2390 H   0  0  0  0  0  0  0  0  0  0  0  0
   48.0330   34.7660   41.6390 H   0  0  0  0  0  0  0  0  0  0  0  0
   45.6900   34.1630   45.4770 C   0  0  0  0  0  0  0  0  0  0  0  0
   44.7280   34.7350   46.0790 O   0  0  0  0  0  0  0  0  0  0  0  0
   46.7110   33.4070   46.1120 N   0  0  0  0  0  0  0  0  0  0  0  0
   47.3210   33.8800   46.8250 H   0  0  0  0  0  0  0  0  0  0  0  0
   46.8880   31.7600   45.6760 S   0  0  0  0  0  0  0  0  0  0  0  0
   47.7390   31.5430   44.4720 O   0  0  0  0  0  1  0  0  0  0  0  0
   45.5490   31.1050   45.4070 O   0  0  0  0  0  1  0  0  0  0  0  0
   47.5700   30.9530   47.0060 O   0  0  0  0  0  0  0  0  0  0  0  0
   48.0630   31.6170   47.5760 H   0  0  0  0  0  0  0  0  0  0  0  0
   41.7830   35.0140   41.6450 C   0  0  0  0  0  0  0  0  0  0  0  0
   42.1190   35.6130   42.5280 H   0  0  0  0  0  0  0  0  0  0  0  0
   41.0800   34.2690   42.0710 H   0  0  0  0  0  0  0  0  0  0  0  0
   41.0590   35.9630   40.7430 C   0  0  0  0  0  0  0  0  0  0  0  0
   41.8390   36.5360   40.1620 H   0  0  0  0  0  0  0  0  0  0  0  0
   40.4710   36.7390   41.2770 H   0  0  0  0  0  0  0  0  0  0  0  0
   41.9180   36.1860   37.8260 Cl  0  0  0  0  0  0  0  0  0  0  0  0
   40.5420   35.2720   38.3790 C   0  0  0  0  0  0  0  0  0  0  0  0
   40.2320   35.2330   39.7440 C   0  0  0  0  0  0  0  0  0  0  0  0
   39.1290   34.4880   40.0950 C   0  0  0  0  0  0  0  0  0  0  0  0
   38.3000   33.7780   39.2390 C   0  0  0  0  0  0  0  0  0  0  0  0
   38.6350   33.8370   37.8880 C   0  0  0  0  0  0  0  0  0  0  0  0
   37.6490   32.9710   36.7160 Cl  0  0  0  0  0  0  0  0  0  0  0  0
   39.7260   34.5660   37.4840 C   0  0  0  0  0  0  0  0  0  0  0  0
   38.9240   34.4840   41.1620 H   0  0  0  0  0  0  0  0  0  0  0  0
   37.4570   33.2220   39.6070 H   0  0  0  0  0  0  0  0  0  0  0  0
   39.9390   34.5750   36.4220 H   0  0  0  0  0  0  0  0  0  0  0  0
  1 19  1  0  0  0  0
  1  2  1  0  0  0  0
  2  7  1  0  0  0  0
  3  2  2  0  0  0  0
  3  4  1  0  0  0  0
  4  5  2  0  0  0  0
  5  6  1  0  0  0  0
  6 10  1  0  0  0  0
  7  6  2  0  0  0  0
  8  3  1  0  0  0  0
  9  4  1  0  0  0  0
 10 11  2  0  0  0  0
 10 12  1  0  0  0  0
 12 13  1  0  0  0  0
 14 12  1  0  0  0  0
 14 17  1  0  0  0  0
 15 14  1  0  0  0  0
 16 14  1  0  0  0  0
 17 18  1  0  0  0  0
 19 21  1  0  0  0  0
 19 20  1  0  0  0  0
 22 24  1  0  0  0  0
 22 19  1  0  0  0  0
 23 22  1  0  0  0  0
 25 26  1  0  0  0  0
 26 27  1  0  0  0  0
 27 28  2  0  0  0  0
 27 22  1  0  0  0  0
 28 33  1  0  0  0  0
 29 34  1  0  0  0  0
 29 28  1  0  0  0  0
 30 29  2  0  0  0  0
 31 30  1  0  0  0  0
 32 30  1  0  0  0  0
 32 26  2  0  0  0  0
 35 32  1  0  0  0  0
M  END
>  <minimizedAffinity>
-6.37116861

>  <minimizedRMSD>
0.656131446

$$$$
