
 OpenBabel03242515013D

 35 36  0  0  0  0  0  0  0  0999 V2000
   43.5020   34.8970   40.7210 S   0  0  0  0  0  0  0  0  0  0  0  0
   44.7900   34.7020   41.9600 C   0  0  0  0  0  0  0  0  0  0  0  0
   46.1090   34.7780   41.5190 C   0  0  0  0  0  0  0  0  0  0  0  0
   47.1310   34.6330   42.4460 C   0  0  0  0  0  0  0  0  0  0  0  0
   46.7970   34.4210   43.7520 N   0  0  0  0  0  0  0  0  0  0  0  0
   45.5240   34.3530   44.1520 C   0  0  0  0  0  0  0  0  0  0  0  0
   44.5210   34.4910   43.2670 N   0  0  0  0  0  0  0  0  0  0  0  0
   46.4200   34.9440   40.4940 H   0  0  0  0  0  0  0  0  0  0  0  0
   48.1680   34.6850   42.1430 H   0  0  0  0  0  0  0  0  0  0  0  0
   45.2490   34.1230   45.5720 C   0  0  0  0  0  0  0  0  0  0  0  0
   44.6500   35.0480   46.2050 O   0  0  0  0  0  0  0  0  0  0  0  0
   45.6700   32.8910   46.1390 N   0  0  0  0  0  0  0  0  0  0  0  0
   45.7020   32.8000   47.1860 H   0  0  0  0  0  0  0  0  0  0  0  0
   46.1030   31.6170   45.0770 S   0  0  0  0  0  0  0  0  0  0  0  0
   47.4960   31.7120   44.5570 O   0  0  0  0  0  1  0  0  0  0  0  0
   45.1790   31.5500   43.8800 O   0  0  0  0  0  1  0  0  0  0  0  0
   45.9110   30.1610   45.9270 O   0  0  0  0  0  0  0  0  0  0  0  0
   45.9720   30.3440   46.9130 H   0  0  0  0  0  0  0  0  0  0  0  0
   41.8590   34.9900   41.4340 C   0  0  0  0  0  0  0  0  0  0  0  0
   41.9520   35.4080   42.4670 H   0  0  0  0  0  0  0  0  0  0  0  0
   41.3760   34.0020   41.5810 H   0  0  0  0  0  0  0  0  0  0  0  0
   40.9500   35.9130   40.6860 C   0  0  0  0  0  0  0  0  0  0  0  0
   41.6000   36.6330   40.1100 H   0  0  0  0  0  0  0  0  0  0  0  0
   40.3180   36.5540   41.3360 H   0  0  0  0  0  0  0  0  0  0  0  0
   41.7660   36.2230   37.7640 Cl  0  0  0  0  0  0  0  0  0  0  0  0
   40.4300   35.2500   38.3150 C   0  0  0  0  0  0  0  0  0  0  0  0
   40.1370   35.1740   39.6820 C   0  0  0  0  0  0  0  0  0  0  0  0
   39.0660   34.3830   40.0310 C   0  0  0  0  0  0  0  0  0  0  0  0
   38.2520   33.6600   39.1700 C   0  0  0  0  0  0  0  0  0  0  0  0
   38.5690   33.7580   37.8160 C   0  0  0  0  0  0  0  0  0  0  0  0
   37.6020   32.8800   36.6380 Cl  0  0  0  0  0  0  0  0  0  0  0  0
   39.6300   34.5330   37.4150 C   0  0  0  0  0  0  0  0  0  0  0  0
   38.8730   34.3510   41.0990 H   0  0  0  0  0  0  0  0  0  0  0  0
   37.4350   33.0670   39.5350 H   0  0  0  0  0  0  0  0  0  0  0  0
   39.8290   34.5700   36.3510 H   0  0  0  0  0  0  0  0  0  0  0  0
  1 19  1  0  0  0  0
  1  2  1  0  0  0  0
  2  7  1  0  0  0  0
  3  2  2  0  0  0  0
  3  4  1  0  0  0  0
  4  5  2  0  0  0  0
  5  6  1  0  0  0  0
  6 10  1  0  0  0  0
  7  6  2  0  0  0  0
  8  3  1  0  0  0  0
  9  4  1  0  0  0  0
 10 12  1  0  0  0  0
 10 11  2  0  0  0  0
 12 13  1  0  0  0  0
 14 17  1  0  0  0  0
 14 12  1  0  0  0  0
 15 14  1  0  0  0  0
 16 14  1  0  0  0  0
 17 18  1  0  0  0  0
 19 21  1  0  0  0  0
 19 20  1  0  0  0  0
 22 24  1  0  0  0  0
 22 19  1  0  0  0  0
 23 22  1  0  0  0  0
 25 26  1  0  0  0  0
 26 27  1  0  0  0  0
 27 28  2  0  0  0  0
 27 22  1  0  0  0  0
 28 33  1  0  0  0  0
 29 34  1  0  0  0  0
 29 28  1  0  0  0  0
 30 29  2  0  0  0  0
 31 30  1  0  0  0  0
 32 30  1  0  0  0  0
 32 26  2  0  0  0  0
 35 32  1  0  0  0  0
M  END
>  <minimizedAffinity>
-6.22830963

>  <minimizedRMSD>
0.494055331

$$$$
