
 OpenBabel03252508003D

 27 28  0  0  1  0  0  0  0  0999 V2000
   46.2080   34.7770   43.2480 C   0  0  0  0  0  0  0  0  0  0  0  0
   45.2650   35.8080   43.5390 C   0  0  0  0  0  0  0  0  0  0  0  0
   44.5970   35.6880   44.7580 C   0  0  0  0  0  0  0  0  0  0  0  0
   44.8750   34.6340   45.5630 N   0  0  0  0  0  0  0  0  0  0  0  0
   45.8000   33.6820   45.2050 C   0  0  0  0  0  0  0  0  0  0  0  0
   46.4710   33.7310   44.0710 N   0  0  0  0  0  0  0  0  0  0  0  0
   45.1160   36.6060   42.8310 H   0  0  0  0  0  0  0  0  0  0  0  0
   43.8730   36.4460   45.0200 H   0  0  0  0  0  0  0  0  0  0  0  0
   46.0590   32.5500   46.1440 C   0  0  1  0  0  0  0  0  0  0  0  0
   46.8530   32.8140   47.4010 C   0  0  0  0  0  0  0  0  0  0  0  0
   45.3560   32.6580   47.4420 C   0  0  1  0  0  0  0  0  0  0  0  0
   46.2430   31.6040   45.6220 H   0  0  0  0  0  0  0  0  0  0  0  0
   47.4960   31.9940   47.7280 H   0  0  0  0  0  0  0  0  0  0  0  0
   47.3330   33.8000   47.4300 H   0  0  0  0  0  0  0  0  0  0  0  0
   44.9890   31.7130   47.8600 H   0  0  0  0  0  0  0  0  0  0  0  0
   44.6970   33.9170   47.7990 N   0  0  0  0  0  0  0  0  0  0  0  0
   43.6680   33.7760   47.7520 H   0  0  0  0  0  0  0  0  0  0  0  0
   44.9930   34.2340   48.7590 H   0  0  0  0  0  0  0  0  0  0  0  0
   46.9040   34.9120   41.9790 C   0  0  0  0  0  0  0  0  0  0  0  0
   48.1270   35.2820   41.8800 O   0  0  0  0  0  0  0  0  0  0  0  0
   46.1530   34.6080   40.7910 N   0  0  0  0  0  0  0  0  0  0  0  0
   46.0110   35.3500   40.0490 H   0  0  0  0  0  0  0  0  0  0  0  0
   45.4750   33.0280   40.5590 S   0  0  0  0  0  0  0  0  0  0  0  0
   44.1780   32.9560   41.3180 O   0  0  0  0  0  1  0  0  0  0  0  0
   46.4710   32.0110   41.0720 O   0  0  0  0  0  1  0  0  0  0  0  0
   45.1830   32.7630   38.9320 O   0  0  0  0  0  0  0  0  0  0  0  0
   44.2970   33.1460   38.6630 H   0  0  0  0  0  0  0  0  0  0  0  0
  1  2  2  0  0  0  0
  1  6  1  0  0  0  0
  2  3  1  0  0  0  0
  3  8  1  0  0  0  0
  3  4  2  0  0  0  0
  5  4  1  0  0  0  0
  5  9  1  0  0  0  0
  6  5  2  0  0  0  0
  7  2  1  0  0  0  0
  9 12  1  6  0  0  0
  9 10  1  0  0  0  0
  9 11  1  0  0  0  0
 10 14  1  0  0  0  0
 10 11  1  0  0  0  0
 10 13  1  0  0  0  0
 11 16  1  0  0  0  0
 11 15  1  1  0  0  0
 16 18  1  0  0  0  0
 17 16  1  0  0  0  0
 19  1  1  0  0  0  0
 20 19  2  0  0  0  0
 21 19  1  0  0  0  0
 22 21  1  0  0  0  0
 23 21  1  0  0  0  0
 23 25  1  0  0  0  0
 23 24  1  0  0  0  0
 26 23  1  0  0  0  0
 27 26  1  0  0  0  0
M  END
>  <minimizedAffinity>
-5.08880854

>  <minimizedRMSD>
0.420223266

$$$$
