
 OpenBabel03242515013D

 35 36  0  0  0  0  0  0  0  0999 V2000
   43.8400   34.3850   40.6950 S   0  0  0  0  0  0  0  0  0  0  0  0
   45.2630   34.3240   41.7920 C   0  0  0  0  0  0  0  0  0  0  0  0
   46.4880   34.7230   41.2620 C   0  0  0  0  0  0  0  0  0  0  0  0
   47.6100   34.6900   42.0780 C   0  0  0  0  0  0  0  0  0  0  0  0
   47.4620   34.2670   43.3660 N   0  0  0  0  0  0  0  0  0  0  0  0
   46.2770   33.8890   43.8540 C   0  0  0  0  0  0  0  0  0  0  0  0
   45.1800   33.9150   43.0770 N   0  0  0  0  0  0  0  0  0  0  0  0
   46.6520   35.0640   40.2460 H   0  0  0  0  0  0  0  0  0  0  0  0
   48.5790   34.9910   41.7030 H   0  0  0  0  0  0  0  0  0  0  0  0
   46.2020   33.4490   45.2480 C   0  0  0  0  0  0  0  0  0  0  0  0
   45.2990   33.9690   45.9750 O   0  0  0  0  0  0  0  0  0  0  0  0
   47.1390   32.4760   45.6880 N   0  0  0  0  0  0  0  0  0  0  0  0
   47.9850   32.2840   45.0960 H   0  0  0  0  0  0  0  0  0  0  0  0
   46.8320   31.6700   47.1690 S   0  0  0  0  0  0  0  0  0  0  0  0
   45.4460   31.1350   47.2900 O   0  0  0  0  0  1  0  0  0  0  0  0
   47.0710   32.5760   48.3590 O   0  0  0  0  0  1  0  0  0  0  0  0
   47.9460   30.3940   47.2930 O   0  0  0  0  0  0  0  0  0  0  0  0
   48.2590   30.1410   46.3730 H   0  0  0  0  0  0  0  0  0  0  0  0
   42.3190   34.7950   41.5520 C   0  0  0  0  0  0  0  0  0  0  0  0
   42.5870   35.2430   42.5400 H   0  0  0  0  0  0  0  0  0  0  0  0
   41.6970   33.9120   41.8110 H   0  0  0  0  0  0  0  0  0  0  0  0
   41.5010   35.8190   40.8320 C   0  0  0  0  0  0  0  0  0  0  0  0
   42.2100   36.4390   40.2100 H   0  0  0  0  0  0  0  0  0  0  0  0
   40.9950   36.5480   41.5000 H   0  0  0  0  0  0  0  0  0  0  0  0
   42.1340   36.0830   37.8600 Cl  0  0  0  0  0  0  0  0  0  0  0  0
   40.7460   35.2460   38.5010 C   0  0  0  0  0  0  0  0  0  0  0  0
   40.5460   35.1810   39.8850 C   0  0  0  0  0  0  0  0  0  0  0  0
   39.4260   34.5010   40.3070 C   0  0  0  0  0  0  0  0  0  0  0  0
   38.4830   33.8770   39.5030 C   0  0  0  0  0  0  0  0  0  0  0  0
   38.7100   33.9590   38.1310 C   0  0  0  0  0  0  0  0  0  0  0  0
   37.5740   33.2020   37.0210 Cl  0  0  0  0  0  0  0  0  0  0  0  0
   39.8140   34.6270   37.6580 C   0  0  0  0  0  0  0  0  0  0  0  0
   39.3090   34.4740   41.3860 H   0  0  0  0  0  0  0  0  0  0  0  0
   37.6360   33.3670   39.9240 H   0  0  0  0  0  0  0  0  0  0  0  0
   39.9390   34.6570   36.5830 H   0  0  0  0  0  0  0  0  0  0  0  0
  1 19  1  0  0  0  0
  1  2  1  0  0  0  0
  2  7  1  0  0  0  0
  3  2  2  0  0  0  0
  3  4  1  0  0  0  0
  4  5  2  0  0  0  0
  5  6  1  0  0  0  0
  6 10  1  0  0  0  0
  7  6  2  0  0  0  0
  8  3  1  0  0  0  0
  9  4  1  0  0  0  0
 10 12  1  0  0  0  0
 10 11  2  0  0  0  0
 12 14  1  0  0  0  0
 13 12  1  0  0  0  0
 14 15  1  0  0  0  0
 14 17  1  0  0  0  0
 14 16  1  0  0  0  0
 18 17  1  0  0  0  0
 19 21  1  0  0  0  0
 19 20  1  0  0  0  0
 22 24  1  0  0  0  0
 22 19  1  0  0  0  0
 23 22  1  0  0  0  0
 25 26  1  0  0  0  0
 26 27  1  0  0  0  0
 27 28  2  0  0  0  0
 27 22  1  0  0  0  0
 28 33  1  0  0  0  0
 29 34  1  0  0  0  0
 29 28  1  0  0  0  0
 30 29  2  0  0  0  0
 31 30  1  0  0  0  0
 32 30  1  0  0  0  0
 32 26  2  0  0  0  0
 35 32  1  0  0  0  0
M  END
>  <minimizedAffinity>
-6.31094599

>  <minimizedRMSD>
1.06985986

$$$$
