
 OpenBabel03242515013D

 35 36  0  0  0  0  0  0  0  0999 V2000
   43.8080   34.5070   40.7630 S   0  0  0  0  0  0  0  0  0  0  0  0
   45.1500   34.3320   41.9470 C   0  0  0  0  0  0  0  0  0  0  0  0
   46.4370   34.6020   41.4880 C   0  0  0  0  0  0  0  0  0  0  0  0
   47.5000   34.4780   42.3730 C   0  0  0  0  0  0  0  0  0  0  0  0
   47.2340   34.0950   43.6550 N   0  0  0  0  0  0  0  0  0  0  0  0
   45.9910   33.8410   44.0730 C   0  0  0  0  0  0  0  0  0  0  0  0
   44.9500   33.9570   43.2300 N   0  0  0  0  0  0  0  0  0  0  0  0
   46.6940   34.9080   40.4810 H   0  0  0  0  0  0  0  0  0  0  0  0
   48.5140   34.6790   42.0550 H   0  0  0  0  0  0  0  0  0  0  0  0
   45.7910   33.4360   45.4660 C   0  0  0  0  0  0  0  0  0  0  0  0
   45.1420   34.2310   46.2150 O   0  0  0  0  0  0  0  0  0  0  0  0
   46.3330   32.1900   45.8790 N   0  0  0  0  0  0  0  0  0  0  0  0
   46.8550   31.6070   45.1790 H   0  0  0  0  0  0  0  0  0  0  0  0
   46.1020   31.7080   47.5090 S   0  0  0  0  0  0  0  0  0  0  0  0
   44.7080   31.8890   48.0000 O   0  0  0  0  0  1  0  0  0  0  0  0
   47.0140   32.4680   48.4500 O   0  0  0  0  0  1  0  0  0  0  0  0
   46.5380   30.0720   47.6200 O   0  0  0  0  0  0  0  0  0  0  0  0
   46.4580   29.6480   46.7130 H   0  0  0  0  0  0  0  0  0  0  0  0
   42.2250   34.8130   41.5480 C   0  0  0  0  0  0  0  0  0  0  0  0
   42.4170   35.2340   42.5660 H   0  0  0  0  0  0  0  0  0  0  0  0
   41.6320   33.8940   41.7390 H   0  0  0  0  0  0  0  0  0  0  0  0
   41.4000   35.8270   40.8220 C   0  0  0  0  0  0  0  0  0  0  0  0
   42.1060   36.4610   40.2110 H   0  0  0  0  0  0  0  0  0  0  0  0
   40.8730   36.5450   41.4860 H   0  0  0  0  0  0  0  0  0  0  0  0
   42.0880   36.0790   37.8610 Cl  0  0  0  0  0  0  0  0  0  0  0  0
   40.6940   35.2360   38.4800 C   0  0  0  0  0  0  0  0  0  0  0  0
   40.4680   35.1770   39.8600 C   0  0  0  0  0  0  0  0  0  0  0  0
   39.3450   34.4920   40.2630 C   0  0  0  0  0  0  0  0  0  0  0  0
   38.4210   33.8570   39.4460 C   0  0  0  0  0  0  0  0  0  0  0  0
   38.6750   33.9330   38.0770 C   0  0  0  0  0  0  0  0  0  0  0  0
   37.5660   33.1610   36.9500 Cl  0  0  0  0  0  0  0  0  0  0  0  0
   39.7830   34.6050   37.6220 C   0  0  0  0  0  0  0  0  0  0  0  0
   39.2070   34.4700   41.3400 H   0  0  0  0  0  0  0  0  0  0  0  0
   37.5700   33.3430   39.8530 H   0  0  0  0  0  0  0  0  0  0  0  0
   39.9280   34.6310   36.5490 H   0  0  0  0  0  0  0  0  0  0  0  0
  1 19  1  0  0  0  0
  1  2  1  0  0  0  0
  2  7  1  0  0  0  0
  3  2  2  0  0  0  0
  3  4  1  0  0  0  0
  4  5  2  0  0  0  0
  5  6  1  0  0  0  0
  6 10  1  0  0  0  0
  7  6  2  0  0  0  0
  8  3  1  0  0  0  0
  9  4  1  0  0  0  0
 10 12  1  0  0  0  0
 10 11  2  0  0  0  0
 12 14  1  0  0  0  0
 13 12  1  0  0  0  0
 14 17  1  0  0  0  0
 14 15  1  0  0  0  0
 14 16  1  0  0  0  0
 18 17  1  0  0  0  0
 19 21  1  0  0  0  0
 19 20  1  0  0  0  0
 22 24  1  0  0  0  0
 22 19  1  0  0  0  0
 23 22  1  0  0  0  0
 25 26  1  0  0  0  0
 26 27  1  0  0  0  0
 27 28  2  0  0  0  0
 27 22  1  0  0  0  0
 28 33  1  0  0  0  0
 29 34  1  0  0  0  0
 29 28  1  0  0  0  0
 30 29  2  0  0  0  0
 31 30  1  0  0  0  0
 32 30  1  0  0  0  0
 32 26  2  0  0  0  0
 35 32  1  0  0  0  0
M  END
>  <minimizedAffinity>
-6.34133625

>  <minimizedRMSD>
0.838763595

$$$$
