
 OpenBabel03252508003D

 27 28  0  0  1  0  0  0  0  0999 V2000
   47.5310   32.3540   43.9370 C   0  0  0  0  0  0  0  0  0  0  0  0
   46.8760   33.5540   43.5280 C   0  0  0  0  0  0  0  0  0  0  0  0
   45.9160   34.0490   44.4100 C   0  0  0  0  0  0  0  0  0  0  0  0
   45.6710   33.3810   45.5640 N   0  0  0  0  0  0  0  0  0  0  0  0
   46.3490   32.2280   45.8820 C   0  0  0  0  0  0  0  0  0  0  0  0
   47.2700   31.7020   45.0980 N   0  0  0  0  0  0  0  0  0  0  0  0
   47.1420   34.0090   42.5880 H   0  0  0  0  0  0  0  0  0  0  0  0
   45.3940   34.9560   44.1410 H   0  0  0  0  0  0  0  0  0  0  0  0
   46.0320   31.5470   47.1730 C   0  0  1  0  0  0  0  0  0  0  0  0
   46.5180   32.1660   48.4610 C   0  0  0  0  0  0  0  0  0  0  0  0
   45.0790   32.2820   48.0340 C   0  0  1  0  0  0  0  0  0  0  0  0
   46.0710   30.4540   47.0930 H   0  0  0  0  0  0  0  0  0  0  0  0
   46.7990   31.4570   49.2430 H   0  0  0  0  0  0  0  0  0  0  0  0
   47.2310   32.9880   48.3230 H   0  0  0  0  0  0  0  0  0  0  0  0
   44.3670   31.6590   48.5910 H   0  0  0  0  0  0  0  0  0  0  0  0
   44.7300   33.6650   47.7010 N   0  0  0  0  0  0  0  0  0  0  0  0
   43.7500   33.6840   47.3540 H   0  0  0  0  0  0  0  0  0  0  0  0
   44.8460   34.2920   48.5410 H   0  0  0  0  0  0  0  0  0  0  0  0
   48.5330   31.8480   43.0150 C   0  0  0  0  0  0  0  0  0  0  0  0
   49.3080   30.8630   43.2840 O   0  0  0  0  0  0  0  0  0  0  0  0
   48.6370   32.5080   41.7410 N   0  0  0  0  0  0  0  0  0  0  0  0
   47.9990   33.3220   41.5120 H   0  0  0  0  0  0  0  0  0  0  0  0
   49.8010   31.9790   40.5680 S   0  0  0  0  0  0  0  0  0  0  0  0
   49.5620   30.5210   40.2890 O   0  0  0  0  0  1  0  0  0  0  0  0
   51.1820   32.2120   41.1430 O   0  0  0  0  0  1  0  0  0  0  0  0
   49.6250   32.8540   39.1520 O   0  0  0  0  0  0  0  0  0  0  0  0
   48.9120   32.4530   38.5740 H   0  0  0  0  0  0  0  0  0  0  0  0
  1  6  1  0  0  0  0
  2  1  2  0  0  0  0
  2  3  1  0  0  0  0
  3  4  2  0  0  0  0
  4  5  1  0  0  0  0
  5  9  1  0  0  0  0
  6  5  2  0  0  0  0
  7  2  1  0  0  0  0
  8  3  1  0  0  0  0
  9 12  1  6  0  0  0
  9 11  1  0  0  0  0
  9 10  1  0  0  0  0
 10 13  1  0  0  0  0
 11 10  1  0  0  0  0
 11 15  1  1  0  0  0
 14 10  1  0  0  0  0
 16 11  1  0  0  0  0
 16 18  1  0  0  0  0
 17 16  1  0  0  0  0
 19 20  2  0  0  0  0
 19  1  1  0  0  0  0
 21 19  1  0  0  0  0
 22 21  1  0  0  0  0
 23 25  1  0  0  0  0
 23 21  1  0  0  0  0
 24 23  1  0  0  0  0
 26 23  1  0  0  0  0
 27 26  1  0  0  0  0
M  END
>  <minimizedAffinity>
-4.43153715

>  <minimizedRMSD>
3.10456538

$$$$
