
 OpenBabel03242516543D

 43 45  0  0  1  0  0  0  0  0999 V2000
   47.8450   32.8930   41.8440 C   0  0  1  0  0  0  0  0  0  0  0  0
   47.5510   32.2760   40.5510 C   0  0  0  0  0  0  0  0  0  0  0  0
   48.5890   32.8190   39.5730 C   0  0  0  0  0  0  0  0  0  0  0  0
   48.2500   34.2880   39.3540 C   0  0  0  0  0  0  0  0  0  0  0  0
   48.1510   35.0890   40.6170 C   0  0  0  0  0  0  0  0  0  0  0  0
   47.6410   34.4120   41.8160 C   0  0  1  0  0  0  0  0  0  0  0  0
   48.9590   32.8060   42.0400 H   0  0  0  0  0  0  0  0  0  0  0  0
   46.5710   32.5900   40.1120 H   0  0  0  0  0  0  0  0  0  0  0  0
   47.6760   31.1960   40.5880 H   0  0  0  0  0  0  0  0  0  0  0  0
   48.3650   32.3120   38.6010 H   0  0  0  0  0  0  0  0  0  0  0  0
   49.6070   32.6620   39.9270 H   0  0  0  0  0  0  0  0  0  0  0  0
   48.9930   34.7170   38.6700 H   0  0  0  0  0  0  0  0  0  0  0  0
   47.2680   34.2930   38.8240 H   0  0  0  0  0  0  0  0  0  0  0  0
   49.1590   35.5690   40.7830 H   0  0  0  0  0  0  0  0  0  0  0  0
   47.4830   35.9480   40.3850 H   0  0  0  0  0  0  0  0  0  0  0  0
   48.2340   34.7900   42.7030 H   0  0  0  0  0  0  0  0  0  0  0  0
   45.3940   30.9080   43.9240 C   0  0  0  0  0  0  0  0  0  0  0  0
   46.0910   31.4820   42.8560 C   0  0  0  0  0  0  0  0  0  0  0  0
   47.1850   32.3380   43.0060 C   0  0  0  0  0  0  0  0  0  0  0  0
   47.5470   32.5920   44.2640 N   0  0  0  0  0  0  0  0  0  0  0  0
   46.8830   32.0460   45.3150 C   0  0  0  0  0  0  0  0  0  0  0  0
   45.8420   31.2310   45.1740 N   0  0  0  0  0  0  0  0  0  0  0  0
   44.5620   30.2590   43.7330 H   0  0  0  0  0  0  0  0  0  0  0  0
   45.7310   31.2220   41.8680 H   0  0  0  0  0  0  0  0  0  0  0  0
   47.2790   32.3340   46.2920 H   0  0  0  0  0  0  0  0  0  0  0  0
   46.2560   34.7760   42.1160 C   0  0  0  0  0  0  0  0  0  0  0  0
   45.7890   35.3270   43.3180 C   0  0  0  0  0  0  0  0  0  0  0  0
   44.4200   35.6090   43.3670 C   0  0  0  0  0  0  0  0  0  0  0  0
   43.6580   35.3270   42.2540 C   0  0  0  0  0  0  0  0  0  0  0  0
   44.1380   34.7850   41.0830 C   0  0  0  0  0  0  0  0  0  0  0  0
   45.4720   34.5110   41.0380 N   0  0  0  0  0  0  0  0  0  0  0  0
   46.5010   35.4830   44.0800 H   0  0  0  0  0  0  0  0  0  0  0  0
   44.0430   36.0330   44.2820 H   0  0  0  0  0  0  0  0  0  0  0  0
   42.6020   35.5750   42.3690 H   0  0  0  0  0  0  0  0  0  0  0  0
   43.2500   34.5240   39.9420 C   0  0  0  0  0  0  0  0  0  0  0  0
   42.3760   35.3870   39.6630 O   0  0  0  0  0  0  0  0  0  0  0  0
   43.3650   33.3330   39.1680 N   0  0  0  0  0  0  0  0  0  0  0  0
   44.2930   33.2070   38.7080 H   0  0  0  0  0  0  0  0  0  0  0  0
   41.9390   32.3580   39.1640 S   0  0  0  0  0  0  0  0  0  0  0  0
   41.2860   32.3240   40.5130 O   0  0  0  0  0  1  0  0  0  0  0  0
   40.9630   32.7680   38.0970 O   0  0  0  0  0  1  0  0  0  0  0  0
   42.4410   30.7850   38.7570 O   0  0  0  0  0  0  0  0  0  0  0  0
   42.4520   30.6680   37.7730 H   0  0  0  0  0  0  0  0  0  0  0  0
  1  7  1  1  0  0  0
  1 19  1  0  0  0  0
  2  9  1  0  0  0  0
  2  1  1  0  0  0  0
  3 11  1  0  0  0  0
  3  2  1  0  0  0  0
  4  3  1  0  0  0  0
  4  5  1  0  0  0  0
  5 14  1  0  0  0  0
  5  6  1  0  0  0  0
  6  1  1  0  0  0  0
  6 26  1  0  0  0  0
  6 16  1  1  0  0  0
  8  2  1  0  0  0  0
 10  3  1  0  0  0  0
 12  4  1  0  0  0  0
 13  4  1  0  0  0  0
 15  5  1  0  0  0  0
 17 22  1  0  0  0  0
 18 19  1  0  0  0  0
 18 17  2  0  0  0  0
 19 20  2  0  0  0  0
 20 21  1  0  0  0  0
 21 25  1  0  0  0  0
 22 21  2  0  0  0  0
 23 17  1  0  0  0  0
 24 18  1  0  0  0  0
 26 27  1  0  0  0  0
 27 28  2  0  0  0  0
 27 32  1  0  0  0  0
 28 33  1  0  0  0  0
 29 34  1  0  0  0  0
 29 28  1  0  0  0  0
 30 29  2  0  0  0  0
 31 30  1  0  0  0  0
 31 26  2  0  0  0  0
 35 30  1  0  0  0  0
 36 35  2  0  0  0  0
 37 35  1  0  0  0  0
 38 37  1  0  0  0  0
 39 37  1  0  0  0  0
 39 40  1  0  0  0  0
 41 39  1  0  0  0  0
 42 39  1  0  0  0  0
 43 42  1  0  0  0  0
M  END
>  <minimizedAffinity>
-5.24924088

>  <minimizedRMSD>
0.322191

$$$$
