
 OpenBabel03242515013D

 35 36  0  0  0  0  0  0  0  0999 V2000
   43.5680   35.0870   40.9620 S   0  0  0  0  0  0  0  0  0  0  0  0
   44.7640   34.7610   42.2660 C   0  0  0  0  0  0  0  0  0  0  0  0
   46.1070   34.7360   41.9000 C   0  0  0  0  0  0  0  0  0  0  0  0
   47.0600   34.4880   42.8790 C   0  0  0  0  0  0  0  0  0  0  0  0
   46.6350   34.2790   44.1580 N   0  0  0  0  0  0  0  0  0  0  0  0
   45.3400   34.3080   44.4860 C   0  0  0  0  0  0  0  0  0  0  0  0
   44.4050   34.5470   43.5510 N   0  0  0  0  0  0  0  0  0  0  0  0
   46.4890   34.8970   40.8980 H   0  0  0  0  0  0  0  0  0  0  0  0
   48.1130   34.4610   42.6340 H   0  0  0  0  0  0  0  0  0  0  0  0
   44.9680   34.0730   45.8820 C   0  0  0  0  0  0  0  0  0  0  0  0
   44.6590   35.0900   46.5800 O   0  0  0  0  0  0  0  0  0  0  0  0
   44.9770   32.7340   46.3570 N   0  0  0  0  0  0  0  0  0  0  0  0
   44.0840   32.3200   46.7240 H   0  0  0  0  0  0  0  0  0  0  0  0
   46.4560   31.8690   46.3030 S   0  0  0  0  0  0  0  0  0  0  0  0
   47.6150   32.6160   46.8670 O   0  0  0  0  0  1  0  0  0  0  0  0
   46.8200   31.4730   44.8870 O   0  0  0  0  0  1  0  0  0  0  0  0
   46.2310   30.4280   47.1710 O   0  0  0  0  0  0  0  0  0  0  0  0
   45.4790   30.5510   47.8250 H   0  0  0  0  0  0  0  0  0  0  0  0
   41.8820   35.1600   41.5680 C   0  0  0  0  0  0  0  0  0  0  0  0
   41.9020   35.5900   42.6000 H   0  0  0  0  0  0  0  0  0  0  0  0
   41.4060   34.1660   41.6950 H   0  0  0  0  0  0  0  0  0  0  0  0
   41.0080   36.0600   40.7540 C   0  0  0  0  0  0  0  0  0  0  0  0
   41.6850   36.7240   40.1430 H   0  0  0  0  0  0  0  0  0  0  0  0
   40.3880   36.7580   41.3550 H   0  0  0  0  0  0  0  0  0  0  0  0
   41.8480   36.1880   37.8250 Cl  0  0  0  0  0  0  0  0  0  0  0  0
   40.4870   35.2770   38.4190 C   0  0  0  0  0  0  0  0  0  0  0  0
   40.1850   35.2830   39.7870 C   0  0  0  0  0  0  0  0  0  0  0  0
   39.0940   34.5370   40.1720 C   0  0  0  0  0  0  0  0  0  0  0  0
   38.2700   33.7850   39.3470 C   0  0  0  0  0  0  0  0  0  0  0  0
   38.5970   33.7990   37.9920 C   0  0  0  0  0  0  0  0  0  0  0  0
   37.6170   32.8780   36.8590 Cl  0  0  0  0  0  0  0  0  0  0  0  0
   39.6760   34.5280   37.5560 C   0  0  0  0  0  0  0  0  0  0  0  0
   38.8950   34.5690   41.2390 H   0  0  0  0  0  0  0  0  0  0  0  0
   37.4380   33.2310   39.7400 H   0  0  0  0  0  0  0  0  0  0  0  0
   39.8820   34.5010   36.4930 H   0  0  0  0  0  0  0  0  0  0  0  0
  1 19  1  0  0  0  0
  1  2  1  0  0  0  0
  2  7  1  0  0  0  0
  3  2  2  0  0  0  0
  3  4  1  0  0  0  0
  4  5  2  0  0  0  0
  5  6  1  0  0  0  0
  6 10  1  0  0  0  0
  7  6  2  0  0  0  0
  8  3  1  0  0  0  0
  9  4  1  0  0  0  0
 10 12  1  0  0  0  0
 10 11  2  0  0  0  0
 12 13  1  0  0  0  0
 14 12  1  0  0  0  0
 14 15  1  0  0  0  0
 14 17  1  0  0  0  0
 16 14  1  0  0  0  0
 17 18  1  0  0  0  0
 19 21  1  0  0  0  0
 19 20  1  0  0  0  0
 22 24  1  0  0  0  0
 22 19  1  0  0  0  0
 23 22  1  0  0  0  0
 25 26  1  0  0  0  0
 26 27  1  0  0  0  0
 27 28  2  0  0  0  0
 27 22  1  0  0  0  0
 28 33  1  0  0  0  0
 29 34  1  0  0  0  0
 29 28  1  0  0  0  0
 30 29  2  0  0  0  0
 31 30  1  0  0  0  0
 32 30  1  0  0  0  0
 32 26  2  0  0  0  0
 35 32  1  0  0  0  0
M  END
>  <minimizedAffinity>
-5.2791357

>  <minimizedRMSD>
0.908030152

$$$$
