
 OpenBabel03252501053D

 38 40  0  0  1  0  0  0  0  0999 V2000
   48.5420   32.3730   38.0430 O   0  0  0  0  0  0  0  0  0  0  0  0
   48.0950   33.8220   38.2370 P   0  0  2  0  0  0  0  0  0  0  0  0
   49.3320   34.7680   37.5760 O   0  0  0  0  0  0  0  0  0  0  0  0
   49.2790   34.8150   36.5950 H   0  0  0  0  0  0  0  0  0  0  0  0
   47.7280   34.1580   39.7950 O   0  0  0  0  0  0  0  0  0  0  0  0
   48.0850   35.4540   41.8100 C   0  0  1  0  0  0  0  0  0  0  0  0
   49.3120   34.6590   41.6680 C   0  0  0  0  0  0  0  0  0  0  0  0
   48.4690   35.0780   40.4500 C   0  0  1  0  0  0  0  0  0  0  0  0
   48.0680   36.5360   42.0830 H   0  0  0  0  0  0  0  0  0  0  0  0
   50.2530   35.2010   41.8790 H   0  0  0  0  0  0  0  0  0  0  0  0
   49.2890   33.5720   41.8450 H   0  0  0  0  0  0  0  0  0  0  0  0
   49.0410   35.7900   39.8270 H   0  0  0  0  0  0  0  0  0  0  0  0
   46.0350   32.9470   43.7730 C   0  0  0  0  0  0  0  0  0  0  0  0
   47.1330   33.6210   43.2500 C   0  0  0  0  0  0  0  0  0  0  0  0
   46.9130   34.7210   42.3990 C   0  0  0  0  0  0  0  0  0  0  0  0
   45.6400   35.0930   42.1130 N   0  0  0  0  0  0  0  0  0  0  0  0
   44.5860   34.4160   42.6410 C   0  0  0  0  0  0  0  0  0  0  0  0
   44.7860   33.3430   43.4700 N   0  0  0  0  0  0  0  0  0  0  0  0
   46.2200   32.1050   44.4250 H   0  0  0  0  0  0  0  0  0  0  0  0
   48.1050   33.2820   43.5130 H   0  0  0  0  0  0  0  0  0  0  0  0
   43.5970   34.7710   42.3680 H   0  0  0  0  0  0  0  0  0  0  0  0
   46.7530   33.9950   37.2440 O   0  0  0  0  0  0  0  0  0  0  0  0
   45.7140   33.0710   37.1620 C   0  0  0  0  0  0  0  0  0  0  0  0
   45.5360   32.0680   36.2310 C   0  0  0  0  0  0  0  0  0  0  0  0
   44.4670   31.2320   36.2700 C   0  0  0  0  0  0  0  0  0  0  0  0
   43.5320   31.3780   37.2580 C   0  0  0  0  0  0  0  0  0  0  0  0
   43.7360   32.3940   38.1770 C   0  0  0  0  0  0  0  0  0  0  0  0
   44.8080   33.2160   38.1210 N   0  0  0  0  0  0  0  0  0  0  0  0
   46.3230   32.0150   35.4780 H   0  0  0  0  0  0  0  0  0  0  0  0
   44.3990   30.4690   35.5040 H   0  0  0  0  0  0  0  0  0  0  0  0
   42.6980   30.7190   37.2780 H   0  0  0  0  0  0  0  0  0  0  0  0
   42.8240   32.6250   39.2350 N   0  0  0  0  0  0  0  0  0  0  0  0
   42.4870   33.5530   39.5050 H   0  0  0  0  0  0  0  0  0  0  0  0
   41.9920   31.6480   40.3680 S   0  0  0  0  0  0  0  0  0  0  0  0
   41.8640   32.3130   41.7280 O   0  0  0  0  0  1  0  0  0  0  0  0
   42.7690   30.3840   40.5830 O   0  0  0  0  0  1  0  0  0  0  0  0
   40.4460   31.2830   39.7690 O   0  0  0  0  0  0  0  0  0  0  0  0
   39.8570   31.2260   40.5630 H   0  0  0  0  0  0  0  0  0  0  0  0
  2  1  2  6  0  0  0
  2  5  1  0  0  0  0
  3  2  1  0  0  0  0
  4  3  1  0  0  0  0
  5  8  1  0  0  0  0
  6  9  1  1  0  0  0
  6 15  1  0  0  0  0
  7  6  1  0  0  0  0
  7 11  1  0  0  0  0
  7 10  1  0  0  0  0
  8 12  1  6  0  0  0
  8  7  1  0  0  0  0
  8  6  1  0  0  0  0
 13 19  1  0  0  0  0
 14 20  1  0  0  0  0
 14 13  2  0  0  0  0
 15 14  1  0  0  0  0
 16 15  2  0  0  0  0
 16 17  1  0  0  0  0
 17 18  2  0  0  0  0
 18 13  1  0  0  0  0
 21 17  1  0  0  0  0
 22  2  1  0  0  0  0
 23 22  1  0  0  0  0
 23 28  1  0  0  0  0
 24 25  1  0  0  0  0
 24 23  2  0  0  0  0
 25 26  2  0  0  0  0
 26 31  1  0  0  0  0
 26 27  1  0  0  0  0
 27 32  1  0  0  0  0
 28 27  2  0  0  0  0
 29 24  1  0  0  0  0
 30 25  1  0  0  0  0
 32 33  1  0  0  0  0
 32 34  1  0  0  0  0
 34 36  1  0  0  0  0
 34 35  1  0  0  0  0
 37 34  1  0  0  0  0
 37 38  1  0  0  0  0
M  END
>  <minimizedAffinity>
-4.65048695

>  <minimizedRMSD>
0.603460789

$$$$
