
 OpenBabel03242515013D

 35 36  0  0  0  0  0  0  0  0999 V2000
   43.4190   34.8350   40.7050 S   0  0  0  0  0  0  0  0  0  0  0  0
   44.7660   34.6720   41.8860 C   0  0  0  0  0  0  0  0  0  0  0  0
   46.0600   34.6500   41.3690 C   0  0  0  0  0  0  0  0  0  0  0  0
   47.1260   34.5260   42.2490 C   0  0  0  0  0  0  0  0  0  0  0  0
   46.8580   34.4310   43.5830 N   0  0  0  0  0  0  0  0  0  0  0  0
   45.6090   34.4550   44.0560 C   0  0  0  0  0  0  0  0  0  0  0  0
   44.5640   34.5750   43.2180 N   0  0  0  0  0  0  0  0  0  0  0  0
   46.3180   34.7220   40.3190 H   0  0  0  0  0  0  0  0  0  0  0  0
   48.1450   34.5040   41.8870 H   0  0  0  0  0  0  0  0  0  0  0  0
   45.4060   34.3480   45.5020 C   0  0  0  0  0  0  0  0  0  0  0  0
   44.5540   35.1290   46.0290 O   0  0  0  0  0  0  0  0  0  0  0  0
   46.1720   33.3840   46.2100 N   0  0  0  0  0  0  0  0  0  0  0  0
   46.6240   33.6640   47.1170 H   0  0  0  0  0  0  0  0  0  0  0  0
   46.3150   31.8130   45.5400 S   0  0  0  0  0  0  0  0  0  0  0  0
   47.6320   31.5500   44.8950 O   0  0  0  0  0  1  0  0  0  0  0  0
   45.2430   31.5490   44.5040 O   0  0  0  0  0  1  0  0  0  0  0  0
   46.0640   30.7010   46.7990 O   0  0  0  0  0  0  0  0  0  0  0  0
   46.2720   31.1440   47.6760 H   0  0  0  0  0  0  0  0  0  0  0  0
   41.8330   35.1150   41.4950 C   0  0  0  0  0  0  0  0  0  0  0  0
   42.0170   35.6330   42.4690 H   0  0  0  0  0  0  0  0  0  0  0  0
   41.3000   34.1830   41.7770 H   0  0  0  0  0  0  0  0  0  0  0  0
   40.9370   36.0120   40.7030 C   0  0  0  0  0  0  0  0  0  0  0  0
   41.5970   36.7150   40.1160 H   0  0  0  0  0  0  0  0  0  0  0  0
   40.2930   36.6740   41.3210 H   0  0  0  0  0  0  0  0  0  0  0  0
   41.7740   36.2710   37.7820 Cl  0  0  0  0  0  0  0  0  0  0  0  0
   40.4460   35.2920   38.3420 C   0  0  0  0  0  0  0  0  0  0  0  0
   40.1430   35.2410   39.7080 C   0  0  0  0  0  0  0  0  0  0  0  0
   39.0790   34.4440   40.0650 C   0  0  0  0  0  0  0  0  0  0  0  0
   38.2830   33.6920   39.2130 C   0  0  0  0  0  0  0  0  0  0  0  0
   38.6100   33.7650   37.8600 C   0  0  0  0  0  0  0  0  0  0  0  0
   37.6640   32.8490   36.6930 Cl  0  0  0  0  0  0  0  0  0  0  0  0
   39.6630   34.5450   37.4510 C   0  0  0  0  0  0  0  0  0  0  0  0
   38.8780   34.4320   41.1320 H   0  0  0  0  0  0  0  0  0  0  0  0
   37.4700   33.0960   39.5840 H   0  0  0  0  0  0  0  0  0  0  0  0
   39.8710   34.5620   36.3890 H   0  0  0  0  0  0  0  0  0  0  0  0
  1 19  1  0  0  0  0
  1  2  1  0  0  0  0
  2  7  1  0  0  0  0
  3  2  2  0  0  0  0
  3  4  1  0  0  0  0
  4  5  2  0  0  0  0
  5  6  1  0  0  0  0
  6 10  1  0  0  0  0
  7  6  2  0  0  0  0
  8  3  1  0  0  0  0
  9  4  1  0  0  0  0
 10 11  2  0  0  0  0
 10 12  1  0  0  0  0
 12 13  1  0  0  0  0
 14 12  1  0  0  0  0
 14 17  1  0  0  0  0
 15 14  1  0  0  0  0
 16 14  1  0  0  0  0
 17 18  1  0  0  0  0
 19 21  1  0  0  0  0
 19 20  1  0  0  0  0
 22 24  1  0  0  0  0
 22 19  1  0  0  0  0
 23 22  1  0  0  0  0
 25 26  1  0  0  0  0
 26 27  1  0  0  0  0
 27 28  2  0  0  0  0
 27 22  1  0  0  0  0
 28 33  1  0  0  0  0
 29 34  1  0  0  0  0
 29 28  1  0  0  0  0
 30 29  2  0  0  0  0
 31 30  1  0  0  0  0
 32 30  1  0  0  0  0
 32 26  2  0  0  0  0
 35 32  1  0  0  0  0
M  END
>  <minimizedAffinity>
-6.31120777

>  <minimizedRMSD>
0.427724034

$$$$
