
 OpenBabel03252507373D

 36 39  0  0  0  0  0  0  0  0999 V2000
   45.6180   34.6940   43.5040 C   0  0  0  0  0  0  0  0  0  0  0  0
   46.3400   33.6410   44.1160 C   0  0  0  0  0  0  0  0  0  0  0  0
   46.1410   33.4360   45.4680 C   0  0  0  0  0  0  0  0  0  0  0  0
   45.2810   34.2330   46.1360 N   0  0  0  0  0  0  0  0  0  0  0  0
   44.5970   35.2400   45.5260 C   0  0  0  0  0  0  0  0  0  0  0  0
   44.7700   35.4580   44.2310 N   0  0  0  0  0  0  0  0  0  0  0  0
   47.0200   33.0060   43.6100 H   0  0  0  0  0  0  0  0  0  0  0  0
   43.9250   35.8260   46.1580 H   0  0  0  0  0  0  0  0  0  0  0  0
   47.0440   32.6490   47.5910 C   0  0  0  0  0  0  0  0  0  0  0  0
   46.8050   32.3980   46.2450 C   0  0  0  0  0  0  0  0  0  0  0  0
   47.2020   31.1880   45.7260 C   0  0  0  0  0  0  0  0  0  0  0  0
   47.8260   30.2260   46.4890 C   0  0  0  0  0  0  0  0  0  0  0  0
   48.2940   28.9880   46.1960 N   0  0  0  0  0  0  0  0  0  0  0  0
   48.8250   28.4670   47.3530 C   0  0  0  0  0  0  0  0  0  0  0  0
   48.6770   29.3770   48.3210 N   0  0  0  0  0  0  0  0  0  0  0  0
   48.0660   30.4660   47.8180 C   0  0  0  0  0  0  0  0  0  0  0  0
   47.6770   31.6690   48.3620 C   0  0  0  0  0  0  0  0  0  0  0  0
   46.7890   33.5380   48.1160 H   0  0  0  0  0  0  0  0  0  0  0  0
   47.0160   30.9950   44.6830 H   0  0  0  0  0  0  0  0  0  0  0  0
   48.2290   28.5680   45.2340 H   0  0  0  0  0  0  0  0  0  0  0  0
   49.2510   27.4680   47.3000 H   0  0  0  0  0  0  0  0  0  0  0  0
   47.8800   31.8280   49.4120 H   0  0  0  0  0  0  0  0  0  0  0  0
   45.8150   34.9060   42.1400 O   0  0  0  0  0  0  0  0  0  0  0  0
   44.7760   34.7100   41.2450 C   0  0  0  0  0  0  0  0  0  0  0  0
   45.0710   33.4800   40.7650 C   0  0  0  0  0  0  0  0  0  0  0  0
   43.6380   33.2020   39.5290 S   0  0  0  0  0  0  0  0  0  0  0  0
   42.9520   34.9010   39.9830 C   0  0  0  0  0  0  0  0  0  0  0  0
   43.6910   35.2360   40.7300 N   0  0  0  0  0  0  0  0  0  0  0  0
   45.7220   32.5310   40.7130 H   0  0  0  0  0  0  0  0  0  0  0  0
   41.7490   35.3010   39.3050 N   0  0  0  0  0  0  0  0  0  0  0  0
   41.7090   35.6160   38.3140 H   0  0  0  0  0  0  0  0  0  0  0  0
   40.3150   35.2420   40.2150 S   0  0  0  0  0  0  0  0  0  0  0  0
   40.4110   34.3330   41.4060 O   0  0  0  0  0  1  0  0  0  0  0  0
   39.9590   36.6330   40.7220 O   0  0  0  0  0  1  0  0  0  0  0  0
   38.9930   34.7380   39.3090 O   0  0  0  0  0  0  0  0  0  0  0  0
   39.1120   34.9220   38.3440 H   0  0  0  0  0  0  0  0  0  0  0  0
  1  2  2  0  0  0  0
  1  6  1  0  0  0  0
  2  3  1  0  0  0  0
  3  4  2  0  0  0  0
  3 10  1  0  0  0  0
  5  4  1  0  0  0  0
  5  8  1  0  0  0  0
  6  5  2  0  0  0  0
  7  2  1  0  0  0  0
  9 18  1  0  0  0  0
  9 17  1  0  0  0  0
 10  9  2  0  0  0  0
 11 10  1  0  0  0  0
 11 12  2  0  0  0  0
 12 16  1  0  0  0  0
 13 12  1  0  0  0  0
 13 14  1  0  0  0  0
 14 15  2  0  0  0  0
 16 15  1  0  0  0  0
 16 17  2  0  0  0  0
 17 22  1  0  0  0  0
 19 11  1  0  0  0  0
 20 13  1  0  0  0  0
 21 14  1  0  0  0  0
 23  1  1  0  0  0  0
 24 23  1  0  0  0  0
 25 24  2  0  0  0  0
 26 27  1  0  0  0  0
 26 25  1  0  0  0  0
 27 28  2  0  0  0  0
 28 24  1  0  0  0  0
 29 25  1  0  0  0  0
 30 27  1  0  0  0  0
 30 32  1  0  0  0  0
 31 30  1  0  0  0  0
 32 34  1  0  0  0  0
 32 33  1  0  0  0  0
 35 32  1  0  0  0  0
 36 35  1  0  0  0  0
M  END
>  <minimizedAffinity>
-6.41042185

>  <minimizedRMSD>
0.320999831

$$$$
