
 OpenBabel03242516533D

 43 45  0  0  1  0  0  0  0  0999 V2000
   47.7110   32.6670   41.4480 C   0  0  1  0  0  0  0  0  0  0  0  0
   47.1920   32.0140   40.2470 C   0  0  0  0  0  0  0  0  0  0  0  0
   48.1470   32.3800   39.1150 C   0  0  0  0  0  0  0  0  0  0  0  0
   47.9380   33.8630   38.8360 C   0  0  0  0  0  0  0  0  0  0  0  0
   48.0860   34.7400   40.0420 C   0  0  0  0  0  0  0  0  0  0  0  0
   47.6640   34.1940   41.3380 C   0  0  1  0  0  0  0  0  0  0  0  0
   48.8250   32.4660   41.5150 H   0  0  0  0  0  0  0  0  0  0  0  0
   46.2020   32.4110   39.9080 H   0  0  0  0  0  0  0  0  0  0  0  0
   47.2070   30.9300   40.3450 H   0  0  0  0  0  0  0  0  0  0  0  0
   47.7500   31.8470   38.2150 H   0  0  0  0  0  0  0  0  0  0  0  0
   49.1800   32.1310   39.3540 H   0  0  0  0  0  0  0  0  0  0  0  0
   48.6290   34.1670   38.0390 H   0  0  0  0  0  0  0  0  0  0  0  0
   46.9030   33.9480   38.4290 H   0  0  0  0  0  0  0  0  0  0  0  0
   49.1510   35.1130   40.0520 H   0  0  0  0  0  0  0  0  0  0  0  0
   47.4860   35.6540   39.8320 H   0  0  0  0  0  0  0  0  0  0  0  0
   48.4010   34.5530   42.1190 H   0  0  0  0  0  0  0  0  0  0  0  0
   45.3890   31.0290   43.9400 C   0  0  0  0  0  0  0  0  0  0  0  0
   45.9980   31.4640   42.7590 C   0  0  0  0  0  0  0  0  0  0  0  0
   47.1500   32.2560   42.7180 C   0  0  0  0  0  0  0  0  0  0  0  0
   47.6590   32.5910   43.9040 N   0  0  0  0  0  0  0  0  0  0  0  0
   47.0830   32.1800   45.0620 C   0  0  0  0  0  0  0  0  0  0  0  0
   45.9880   31.4260   45.1030 N   0  0  0  0  0  0  0  0  0  0  0  0
   44.5070   30.4230   43.8960 H   0  0  0  0  0  0  0  0  0  0  0  0
   45.5200   31.1460   41.8410 H   0  0  0  0  0  0  0  0  0  0  0  0
   47.5980   32.5230   45.9630 H   0  0  0  0  0  0  0  0  0  0  0  0
   46.3740   34.7280   41.7770 C   0  0  0  0  0  0  0  0  0  0  0  0
   46.1500   35.5150   42.9150 C   0  0  0  0  0  0  0  0  0  0  0  0
   44.8290   35.9240   43.1220 C   0  0  0  0  0  0  0  0  0  0  0  0
   43.8760   35.5270   42.2100 C   0  0  0  0  0  0  0  0  0  0  0  0
   44.1170   34.7530   41.0980 C   0  0  0  0  0  0  0  0  0  0  0  0
   45.4060   34.3550   40.8990 N   0  0  0  0  0  0  0  0  0  0  0  0
   46.9880   35.7340   43.5170 H   0  0  0  0  0  0  0  0  0  0  0  0
   44.6370   36.5310   43.9910 H   0  0  0  0  0  0  0  0  0  0  0  0
   42.8710   35.8860   42.4390 H   0  0  0  0  0  0  0  0  0  0  0  0
   43.0360   34.3830   40.1740 C   0  0  0  0  0  0  0  0  0  0  0  0
   42.7600   35.1780   39.2380 O   0  0  0  0  0  0  0  0  0  0  0  0
   42.3140   33.1640   40.3270 N   0  0  0  0  0  0  0  0  0  0  0  0
   42.7670   32.4730   40.9640 H   0  0  0  0  0  0  0  0  0  0  0  0
   40.8450   33.1010   39.4220 S   0  0  0  0  0  0  0  0  0  0  0  0
   39.9470   34.2600   39.7360 O   0  0  0  0  0  1  0  0  0  0  0  0
   41.0830   32.9840   37.9410 O   0  0  0  0  0  1  0  0  0  0  0  0
   40.0640   31.6620   39.8830 O   0  0  0  0  0  0  0  0  0  0  0  0
   40.3710   30.9050   39.3240 H   0  0  0  0  0  0  0  0  0  0  0  0
  1  7  1  1  0  0  0
  1 19  1  0  0  0  0
  2  9  1  0  0  0  0
  2  1  1  0  0  0  0
  3 11  1  0  0  0  0
  3  2  1  0  0  0  0
  4  3  1  0  0  0  0
  4  5  1  0  0  0  0
  5 14  1  0  0  0  0
  5  6  1  0  0  0  0
  6  1  1  0  0  0  0
  6 26  1  0  0  0  0
  6 16  1  1  0  0  0
  8  2  1  0  0  0  0
 10  3  1  0  0  0  0
 12  4  1  0  0  0  0
 13  4  1  0  0  0  0
 15  5  1  0  0  0  0
 17 22  1  0  0  0  0
 18 17  2  0  0  0  0
 19 18  1  0  0  0  0
 19 20  2  0  0  0  0
 20 21  1  0  0  0  0
 21 22  2  0  0  0  0
 21 25  1  0  0  0  0
 23 17  1  0  0  0  0
 24 18  1  0  0  0  0
 26 27  1  0  0  0  0
 27 28  2  0  0  0  0
 27 32  1  0  0  0  0
 28 33  1  0  0  0  0
 29 34  1  0  0  0  0
 29 28  1  0  0  0  0
 30 29  2  0  0  0  0
 31 30  1  0  0  0  0
 31 26  2  0  0  0  0
 35 37  1  0  0  0  0
 35 30  1  0  0  0  0
 36 35  2  0  0  0  0
 37 38  1  0  0  0  0
 39 40  1  0  0  0  0
 39 42  1  0  0  0  0
 39 37  1  0  0  0  0
 41 39  1  0  0  0  0
 43 42  1  0  0  0  0
M  END
>  <minimizedAffinity>
-5.34702587

>  <minimizedRMSD>
0.991437376

$$$$
