
 OpenBabel03252501323D

 22 22  0  0  0  0  0  0  0  0999 V2000
   45.5680   34.8600   43.7240 C   0  0  0  0  0  0  0  0  0  0  0  0
   45.2990   34.5460   45.0460 C   0  0  0  0  0  0  0  0  0  0  0  0
   46.1250   33.6040   45.6470 C   0  0  0  0  0  0  0  0  0  0  0  0
   47.1160   33.0670   44.9130 N   0  0  0  0  0  0  0  0  0  0  0  0
   47.3560   33.3850   43.6400 C   0  0  0  0  0  0  0  0  0  0  0  0
   46.5790   34.2950   43.0170 N   0  0  0  0  0  0  0  0  0  0  0  0
   45.8990   33.3780   46.6650 H   0  0  0  0  0  0  0  0  0  0  0  0
   48.1460   32.9650   43.0320 H   0  0  0  0  0  0  0  0  0  0  0  0
   43.7630   35.1190   42.2570 C   0  0  0  0  0  0  0  0  0  0  0  0
   43.7290   33.8920   42.5590 O   0  0  0  0  0  0  0  0  0  0  0  0
   44.8440   35.8050   42.9100 N   0  0  0  0  0  0  0  0  0  0  0  0
   45.0060   36.8030   42.7690 H   0  0  0  0  0  0  0  0  0  0  0  0
   42.8690   35.8160   41.3770 N   0  0  0  0  0  0  0  0  0  0  0  0
   42.6920   36.8330   41.5700 H   0  0  0  0  0  0  0  0  0  0  0  0
   42.1730   34.9200   40.0970 S   0  0  0  0  0  0  0  0  0  0  0  0
   41.2010   33.8990   40.6580 O   0  0  0  0  0  1  0  0  0  0  0  0
   43.1820   34.2540   39.2110 O   0  0  0  0  0  1  0  0  0  0  0  0
   41.2420   35.9670   39.1690 O   0  0  0  0  0  0  0  0  0  0  0  0
   40.8620   36.6320   39.7990 H   0  0  0  0  0  0  0  0  0  0  0  0
   44.2090   35.2260   45.6370 N   0  0  0  0  0  0  0  0  0  0  0  0
   44.2420   36.0990   46.1740 H   0  0  0  0  0  0  0  0  0  0  0  0
   43.2240   34.8600   45.5630 H   0  0  0  0  0  0  0  0  0  0  0  0
  1  2  1  0  0  0  0
  2 20  1  0  0  0  0
  2  3  2  0  0  0  0
  3  7  1  0  0  0  0
  4  3  1  0  0  0  0
  5  4  2  0  0  0  0
  6  5  1  0  0  0  0
  6  1  2  0  0  0  0
  8  5  1  0  0  0  0
  9 10  2  0  0  0  0
  9 11  1  0  0  0  0
 11  1  1  0  0  0  0
 12 11  1  0  0  0  0
 13 14  1  0  0  0  0
 13  9  1  0  0  0  0
 15 16  1  0  0  0  0
 15 13  1  0  0  0  0
 17 15  1  0  0  0  0
 18 19  1  0  0  0  0
 18 15  1  0  0  0  0
 20 21  1  0  0  0  0
 22 20  1  0  0  0  0
M  END
>  <minimizedAffinity>
-4.4304018

>  <minimizedRMSD>
1.60122192

$$$$
