
 OpenBabel03252501293D

 36 37  0  0  0  0  0  0  0  0999 V2000
   46.3480   31.4290   46.9010 C   0  0  0  0  0  0  0  0  0  0  0  0
   45.3640   31.5100   47.8540 C   0  0  0  0  0  0  0  0  0  0  0  0
   44.8600   30.4450   48.5280 C   0  0  0  0  0  0  0  0  0  0  0  0
   45.3660   29.2030   48.2400 C   0  0  0  0  0  0  0  0  0  0  0  0
   46.3590   29.0930   47.2850 C   0  0  0  0  0  0  0  0  0  0  0  0
   46.8500   30.2000   46.6160 C   0  0  0  0  0  0  0  0  0  0  0  0
   45.0030   32.5360   48.0350 H   0  0  0  0  0  0  0  0  0  0  0  0
   44.0870   30.6770   49.2480 H   0  0  0  0  0  0  0  0  0  0  0  0
   46.6340   28.0350   47.1920 H   0  0  0  0  0  0  0  0  0  0  0  0
   49.1210   29.4170   46.3440 C   0  0  0  0  0  0  0  0  0  0  0  0
   49.7290   29.5270   47.4710 O   0  0  0  0  0  0  0  0  0  0  0  0
   47.8590   29.7050   45.7280 N   0  0  0  0  0  0  0  0  0  0  0  0
   49.9950   28.9500   45.8760 H   0  0  0  0  0  0  0  0  0  0  0  0
   47.8970   29.4970   44.7070 H   0  0  0  0  0  0  0  0  0  0  0  0
   46.9630   32.4920   46.1070 C   0  0  0  0  0  0  0  0  0  0  0  0
   46.7890   33.4570   46.6470 H   0  0  0  0  0  0  0  0  0  0  0  0
   48.0820   32.3950   46.0970 H   0  0  0  0  0  0  0  0  0  0  0  0
   46.4300   32.5110   44.6970 C   0  0  0  0  0  0  0  0  0  0  0  0
   45.6270   31.7480   44.5610 H   0  0  0  0  0  0  0  0  0  0  0  0
   47.2490   32.2590   43.9890 H   0  0  0  0  0  0  0  0  0  0  0  0
   44.5790   35.6600   45.0890 C   0  0  0  0  0  0  0  0  0  0  0  0
   44.8330   36.3170   43.8580 C   0  0  0  0  0  0  0  0  0  0  0  0
   45.6420   35.6350   42.9380 C   0  0  0  0  0  0  0  0  0  0  0  0
   46.1300   34.4270   43.2460 N   0  0  0  0  0  0  0  0  0  0  0  0
   45.8520   33.8500   44.4380 C   0  0  0  0  0  0  0  0  0  0  0  0
   45.1020   34.4380   45.3380 N   0  0  0  0  0  0  0  0  0  0  0  0
   43.9560   36.1410   45.8420 H   0  0  0  0  0  0  0  0  0  0  0  0
   44.3740   37.2800   43.7570 H   0  0  0  0  0  0  0  0  0  0  0  0
   45.8150   36.1530   42.0240 H   0  0  0  0  0  0  0  0  0  0  0  0
   44.7820   28.1230   48.9940 N   0  0  0  0  0  0  0  0  0  0  0  0
   44.6520   28.4930   49.9590 H   0  0  0  0  0  0  0  0  0  0  0  0
   44.4210   26.5920   48.3380 S   0  0  0  0  0  0  0  0  0  0  0  0
   45.7140   25.8110   48.2140 O   0  0  0  0  0  0  0  0  0  0  0  0
   43.8630   26.7840   46.9790 O   0  0  0  0  0  0  0  0  0  0  0  0
   43.3630   25.7000   49.2750 O   0  0  0  0  0  0  0  0  0  0  0  0
   42.9120   25.0170   48.7160 H   0  0  0  0  0  0  0  0  0  0  0  0
  1  2  1  0  0  0  0
  2  7  1  0  0  0  0
  2  3  2  0  0  0  0
  3  8  1  0  0  0  0
  4  3  1  0  0  0  0
  4 30  1  0  0  0  0
  5  4  2  0  0  0  0
  6  1  2  0  0  0  0
  6  5  1  0  0  0  0
  9  5  1  0  0  0  0
 10 11  2  0  0  0  0
 12 10  1  0  0  0  0
 12  6  1  0  0  0  0
 13 10  1  0  0  0  0
 14 12  1  0  0  0  0
 15 16  1  0  0  0  0
 15  1  1  0  0  0  0
 17 15  1  0  0  0  0
 18 15  1  0  0  0  0
 19 18  1  0  0  0  0
 20 18  1  0  0  0  0
 21 26  1  0  0  0  0
 21 27  1  0  0  0  0
 22 21  2  0  0  0  0
 23 24  2  0  0  0  0
 23 22  1  0  0  0  0
 24 25  1  0  0  0  0
 25 18  1  0  0  0  0
 25 26  2  0  0  0  0
 28 22  1  0  0  0  0
 29 23  1  0  0  0  0
 30 31  1  0  0  0  0
 32 30  1  0  0  0  0
 32 35  1  0  0  0  0
 33 32  1  0  0  0  0
 34 32  1  0  0  0  0
 36 35  1  0  0  0  0
M  END
>  <minimizedAffinity>
-4.87198782

>  <minimizedRMSD>
1.28694308

$$$$
