
 OpenBabel03252508373D

 39 41  0  0  0  0  0  0  0  0999 V2000
   44.9680   34.0130   40.8200 C   0  0  0  0  0  0  0  0  0  0  0  0
   43.9280   33.5990   40.0250 C   0  0  0  0  0  0  0  0  0  0  0  0
   44.2300   32.9720   38.8570 C   0  0  0  0  0  0  0  0  0  0  0  0
   45.5130   32.7290   38.4270 C   0  0  0  0  0  0  0  0  0  0  0  0
   46.5390   33.1500   39.2350 C   0  0  0  0  0  0  0  0  0  0  0  0
   46.2840   33.7950   40.4370 C   0  0  0  0  0  0  0  0  0  0  0  0
   43.4030   32.6480   38.2350 H   0  0  0  0  0  0  0  0  0  0  0  0
   45.6580   32.2210   37.4780 H   0  0  0  0  0  0  0  0  0  0  0  0
   47.5430   32.9460   38.8720 H   0  0  0  0  0  0  0  0  0  0  0  0
   40.6880   35.3800   40.8260 C   0  0  0  0  0  0  0  0  0  0  0  0
   41.9900   35.1430   40.3400 C   0  0  0  0  0  0  0  0  0  0  0  0
   42.5900   33.8750   40.5150 C   0  0  0  0  0  0  0  0  0  0  0  0
   41.8310   32.9690   41.1580 N   0  0  0  0  0  0  0  0  0  0  0  0
   40.6050   33.2010   41.6140 C   0  0  0  0  0  0  0  0  0  0  0  0
   40.0310   34.4010   41.4520 N   0  0  0  0  0  0  0  0  0  0  0  0
   40.1340   36.6580   40.6280 N   0  0  0  0  0  0  0  0  0  0  0  0
   42.5200   35.9260   39.8380 H   0  0  0  0  0  0  0  0  0  0  0  0
   40.0360   32.4440   42.1230 H   0  0  0  0  0  0  0  0  0  0  0  0
   39.9300   36.9360   39.6230 H   0  0  0  0  0  0  0  0  0  0  0  0
   39.8680   37.4270   41.2820 H   0  0  0  0  0  0  0  0  0  0  0  0
   47.4380   34.2010   41.2100 C   0  0  0  0  0  0  0  0  0  0  0  0
   48.1080   35.3110   40.7930 C   0  0  0  0  0  0  0  0  0  0  0  0
   49.2290   35.8510   41.4010 C   0  0  0  0  0  0  0  0  0  0  0  0
   49.7000   35.2090   42.5180 C   0  0  0  0  0  0  0  0  0  0  0  0
   49.0540   34.0860   42.9710 C   0  0  0  0  0  0  0  0  0  0  0  0
   47.9400   33.5910   42.3280 C   0  0  0  0  0  0  0  0  0  0  0  0
   47.7770   35.8680   39.9040 H   0  0  0  0  0  0  0  0  0  0  0  0
   49.7220   36.7350   41.0270 H   0  0  0  0  0  0  0  0  0  0  0  0
   50.5760   35.6070   43.0170 H   0  0  0  0  0  0  0  0  0  0  0  0
   49.4710   33.6260   43.8550 H   0  0  0  0  0  0  0  0  0  0  0  0
   47.2690   32.4260   42.7990 N   0  0  0  0  0  0  0  0  0  0  0  0
   47.2080   31.5660   42.1960 H   0  0  0  0  0  0  0  0  0  0  0  0
   46.4540   32.0320   44.2330 S   0  0  0  0  0  0  0  0  0  0  0  0
   47.0240   30.7560   44.8390 O   0  0  0  0  0  1  0  0  0  0  0  0
   46.4990   33.1280   45.2360 O   0  0  0  0  0  1  0  0  0  0  0  0
   44.8490   31.6560   43.8130 O   0  0  0  0  0  0  0  0  0  0  0  0
   44.4660   32.5470   43.5360 H   0  0  0  0  0  0  0  0  0  0  0  0
   44.5550   35.2330   43.0860 N   0  0  0  0  0  0  0  0  0  0  0  0
   44.7430   34.6840   42.0720 C   0  0  0  0  0  0  0  0  0  0  0  0
  1 39  1  0  0  0  0
  2 12  1  0  0  0  0
  2  1  2  0  0  0  0
  3  2  1  0  0  0  0
  4  3  2  0  0  0  0
  4  5  1  0  0  0  0
  5  6  2  0  0  0  0
  6  1  1  0  0  0  0
  6 21  1  0  0  0  0
  7  3  1  0  0  0  0
  8  4  1  0  0  0  0
  9  5  1  0  0  0  0
 10 15  1  0  0  0  0
 11 12  1  0  0  0  0
 11 10  2  0  0  0  0
 12 13  2  0  0  0  0
 13 14  1  0  0  0  0
 14 18  1  0  0  0  0
 15 14  2  0  0  0  0
 16 10  1  0  0  0  0
 16 20  1  0  0  0  0
 17 11  1  0  0  0  0
 19 16  1  0  0  0  0
 21 26  1  0  0  0  0
 22 21  2  0  0  0  0
 22 23  1  0  0  0  0
 23 24  2  0  0  0  0
 24 25  1  0  0  0  0
 24 29  1  0  0  0  0
 25 30  1  0  0  0  0
 26 31  1  0  0  0  0
 26 25  2  0  0  0  0
 27 22  1  0  0  0  0
 28 23  1  0  0  0  0
 31 33  1  0  0  0  0
 32 31  1  0  0  0  0
 33 34  1  0  0  0  0
 33 35  1  0  0  0  0
 36 33  1  0  0  0  0
 37 36  1  0  0  0  0
 39 38  3  0  0  0  0
M  END
>  <minimizedAffinity>
-6.03950024

>  <minimizedRMSD>
0.888678372

$$$$
