
 OpenBabel03252508373D

 39 41  0  0  0  0  0  0  0  0999 V2000
   45.0950   33.9810   40.7400 C   0  0  0  0  0  0  0  0  0  0  0  0
   44.0560   33.6320   39.9150 C   0  0  0  0  0  0  0  0  0  0  0  0
   44.3590   33.1110   38.6960 C   0  0  0  0  0  0  0  0  0  0  0  0
   45.6420   32.9140   38.2440 C   0  0  0  0  0  0  0  0  0  0  0  0
   46.6680   33.2700   39.0830 C   0  0  0  0  0  0  0  0  0  0  0  0
   46.4110   33.8060   40.3370 C   0  0  0  0  0  0  0  0  0  0  0  0
   43.5320   32.8360   38.0490 H   0  0  0  0  0  0  0  0  0  0  0  0
   45.7880   32.4910   37.2530 H   0  0  0  0  0  0  0  0  0  0  0  0
   47.6720   33.1050   38.7010 H   0  0  0  0  0  0  0  0  0  0  0  0
   40.7750   35.2930   40.8010 C   0  0  0  0  0  0  0  0  0  0  0  0
   42.0760   35.1070   40.2910 C   0  0  0  0  0  0  0  0  0  0  0  0
   42.7180   33.8550   40.4300 C   0  0  0  0  0  0  0  0  0  0  0  0
   41.9960   32.9120   41.0630 N   0  0  0  0  0  0  0  0  0  0  0  0
   40.7700   33.0960   41.5410 C   0  0  0  0  0  0  0  0  0  0  0  0
   40.1580   34.2810   41.4130 N   0  0  0  0  0  0  0  0  0  0  0  0
   40.1780   36.5570   40.6390 N   0  0  0  0  0  0  0  0  0  0  0  0
   42.5740   35.9170   39.7990 H   0  0  0  0  0  0  0  0  0  0  0  0
   40.2320   32.3110   42.0410 H   0  0  0  0  0  0  0  0  0  0  0  0
   39.9510   36.8510   39.6430 H   0  0  0  0  0  0  0  0  0  0  0  0
   39.8990   37.3030   41.3140 H   0  0  0  0  0  0  0  0  0  0  0  0
   47.5650   34.1510   41.1400 C   0  0  0  0  0  0  0  0  0  0  0  0
   48.1520   35.3570   40.9020 C   0  0  0  0  0  0  0  0  0  0  0  0
   49.2580   35.8580   41.5650 C   0  0  0  0  0  0  0  0  0  0  0  0
   49.8050   35.0710   42.5460 C   0  0  0  0  0  0  0  0  0  0  0  0
   49.2440   33.8470   42.8170 C   0  0  0  0  0  0  0  0  0  0  0  0
   48.1410   33.3960   42.1260 C   0  0  0  0  0  0  0  0  0  0  0  0
   47.7570   36.0330   40.1280 H   0  0  0  0  0  0  0  0  0  0  0  0
   49.6850   36.8240   41.3350 H   0  0  0  0  0  0  0  0  0  0  0  0
   50.6730   35.4350   43.0840 H   0  0  0  0  0  0  0  0  0  0  0  0
   49.7190   33.2740   43.6000 H   0  0  0  0  0  0  0  0  0  0  0  0
   47.5580   32.1270   42.4080 N   0  0  0  0  0  0  0  0  0  0  0  0
   47.6930   31.3190   41.7490 H   0  0  0  0  0  0  0  0  0  0  0  0
   46.5970   31.5250   43.6690 S   0  0  0  0  0  0  0  0  0  0  0  0
   47.1350   30.1880   44.1600 O   0  0  0  0  0  1  0  0  0  0  0  0
   46.4900   32.4730   44.8100 O   0  0  0  0  0  1  0  0  0  0  0  0
   45.0640   31.1840   43.0150 O   0  0  0  0  0  0  0  0  0  0  0  0
   44.6850   32.0980   42.8170 H   0  0  0  0  0  0  0  0  0  0  0  0
   44.6800   34.9980   43.1040 N   0  0  0  0  0  0  0  0  0  0  0  0
   44.8690   34.5400   42.0460 C   0  0  0  0  0  0  0  0  0  0  0  0
  1 39  1  0  0  0  0
  2 12  1  0  0  0  0
  2  1  2  0  0  0  0
  3  2  1  0  0  0  0
  4  3  2  0  0  0  0
  4  5  1  0  0  0  0
  5  6  2  0  0  0  0
  6  1  1  0  0  0  0
  6 21  1  0  0  0  0
  7  3  1  0  0  0  0
  8  4  1  0  0  0  0
  9  5  1  0  0  0  0
 10 15  1  0  0  0  0
 11 12  1  0  0  0  0
 11 10  2  0  0  0  0
 12 13  2  0  0  0  0
 13 14  1  0  0  0  0
 14 18  1  0  0  0  0
 15 14  2  0  0  0  0
 16 10  1  0  0  0  0
 16 20  1  0  0  0  0
 17 11  1  0  0  0  0
 19 16  1  0  0  0  0
 21 26  1  0  0  0  0
 22 21  2  0  0  0  0
 22 23  1  0  0  0  0
 23 24  2  0  0  0  0
 24 25  1  0  0  0  0
 24 29  1  0  0  0  0
 25 30  1  0  0  0  0
 26 31  1  0  0  0  0
 26 25  2  0  0  0  0
 27 22  1  0  0  0  0
 28 23  1  0  0  0  0
 31 33  1  0  0  0  0
 32 31  1  0  0  0  0
 33 34  1  0  0  0  0
 33 35  1  0  0  0  0
 36 33  1  0  0  0  0
 37 36  1  0  0  0  0
 39 38  3  0  0  0  0
M  END
>  <minimizedAffinity>
-5.80078506

>  <minimizedRMSD>
0.429084629

$$$$
