
 OpenBabel03252508373D

 39 41  0  0  0  0  0  0  0  0999 V2000
   44.9640   34.0220   40.8020 C   0  0  0  0  0  0  0  0  0  0  0  0
   43.9280   33.6290   39.9920 C   0  0  0  0  0  0  0  0  0  0  0  0
   44.2360   33.0290   38.8110 C   0  0  0  0  0  0  0  0  0  0  0  0
   45.5210   32.7960   38.3830 C   0  0  0  0  0  0  0  0  0  0  0  0
   46.5430   33.1970   39.2050 C   0  0  0  0  0  0  0  0  0  0  0  0
   46.2810   33.8130   40.4210 C   0  0  0  0  0  0  0  0  0  0  0  0
   43.4120   32.7200   38.1770 H   0  0  0  0  0  0  0  0  0  0  0  0
   45.6700   32.3090   37.4220 H   0  0  0  0  0  0  0  0  0  0  0  0
   47.5480   33.0000   38.8420 H   0  0  0  0  0  0  0  0  0  0  0  0
   40.6830   35.3910   40.8120 C   0  0  0  0  0  0  0  0  0  0  0  0
   41.9860   35.1640   40.3270 C   0  0  0  0  0  0  0  0  0  0  0  0
   42.5880   33.8940   40.4820 C   0  0  0  0  0  0  0  0  0  0  0  0
   41.8280   32.9760   41.1060 N   0  0  0  0  0  0  0  0  0  0  0  0
   40.5990   33.1980   41.5610 C   0  0  0  0  0  0  0  0  0  0  0  0
   40.0240   34.4000   41.4170 N   0  0  0  0  0  0  0  0  0  0  0  0
   40.1270   36.6700   40.6340 N   0  0  0  0  0  0  0  0  0  0  0  0
   42.5170   35.9570   39.8410 H   0  0  0  0  0  0  0  0  0  0  0  0
   40.0290   32.4310   42.0540 H   0  0  0  0  0  0  0  0  0  0  0  0
   39.9260   36.9660   39.6340 H   0  0  0  0  0  0  0  0  0  0  0  0
   39.8570   37.4280   41.3010 H   0  0  0  0  0  0  0  0  0  0  0  0
   47.4320   34.2000   41.2090 C   0  0  0  0  0  0  0  0  0  0  0  0
   48.1110   35.3130   40.8160 C   0  0  0  0  0  0  0  0  0  0  0  0
   49.2300   35.8360   41.4410 C   0  0  0  0  0  0  0  0  0  0  0  0
   49.6890   35.1740   42.5500 C   0  0  0  0  0  0  0  0  0  0  0  0
   49.0340   34.0460   42.9800 C   0  0  0  0  0  0  0  0  0  0  0  0
   47.9230   33.5680   42.3210 C   0  0  0  0  0  0  0  0  0  0  0  0
   47.7900   35.8860   39.9330 H   0  0  0  0  0  0  0  0  0  0  0  0
   49.7310   36.7240   41.0850 H   0  0  0  0  0  0  0  0  0  0  0  0
   50.5640   35.5580   43.0630 H   0  0  0  0  0  0  0  0  0  0  0  0
   49.4420   33.5690   43.8590 H   0  0  0  0  0  0  0  0  0  0  0  0
   47.2420   32.3990   42.7670 N   0  0  0  0  0  0  0  0  0  0  0  0
   47.1790   31.5500   42.1490 H   0  0  0  0  0  0  0  0  0  0  0  0
   46.4160   31.9850   44.1890 S   0  0  0  0  0  0  0  0  0  0  0  0
   46.9890   30.7080   44.7870 O   0  0  0  0  0  1  0  0  0  0  0  0
   46.4430   33.0710   45.2030 O   0  0  0  0  0  1  0  0  0  0  0  0
   44.8170   31.6020   43.7500 O   0  0  0  0  0  0  0  0  0  0  0  0
   44.4300   32.4930   43.4770 H   0  0  0  0  0  0  0  0  0  0  0  0
   44.5400   35.1900   43.0940 N   0  0  0  0  0  0  0  0  0  0  0  0
   44.7330   34.6650   42.0680 C   0  0  0  0  0  0  0  0  0  0  0  0
  1 39  1  0  0  0  0
  2 12  1  0  0  0  0
  2  1  2  0  0  0  0
  3  2  1  0  0  0  0
  4  3  2  0  0  0  0
  4  5  1  0  0  0  0
  5  6  2  0  0  0  0
  6  1  1  0  0  0  0
  6 21  1  0  0  0  0
  7  3  1  0  0  0  0
  8  4  1  0  0  0  0
  9  5  1  0  0  0  0
 10 15  1  0  0  0  0
 11 12  1  0  0  0  0
 11 10  2  0  0  0  0
 12 13  2  0  0  0  0
 13 14  1  0  0  0  0
 14 18  1  0  0  0  0
 15 14  2  0  0  0  0
 16 10  1  0  0  0  0
 16 20  1  0  0  0  0
 17 11  1  0  0  0  0
 19 16  1  0  0  0  0
 21 26  1  0  0  0  0
 22 21  2  0  0  0  0
 22 23  1  0  0  0  0
 23 24  2  0  0  0  0
 24 25  1  0  0  0  0
 24 29  1  0  0  0  0
 25 30  1  0  0  0  0
 26 31  1  0  0  0  0
 26 25  2  0  0  0  0
 27 22  1  0  0  0  0
 28 23  1  0  0  0  0
 31 33  1  0  0  0  0
 32 31  1  0  0  0  0
 33 34  1  0  0  0  0
 33 35  1  0  0  0  0
 36 33  1  0  0  0  0
 37 36  1  0  0  0  0
 39 38  3  0  0  0  0
M  END
>  <minimizedAffinity>
-6.05369902

>  <minimizedRMSD>
0.724019289

$$$$
