
 OpenBabel03242522533D

 38 39  0  0  1  0  0  0  0  0999 V2000
   48.4680   31.4240   48.6700 C   0  0  0  0  0  0  0  0  0  0  0  0
   49.4380   32.0060   49.2490 O   0  0  0  0  0  0  0  0  0  0  0  0
   49.1760   30.1960   48.7700 N   0  0  0  0  0  0  0  0  0  0  0  0
   48.7800   29.3620   47.6260 C   0  0  0  0  0  0  0  0  0  0  0  0
   49.4790   28.0380   47.8160 C   0  0  0  0  0  0  0  0  0  0  0  0
   49.3490   27.6210   49.2300 N   0  0  0  0  0  0  0  0  0  0  0  0
   50.3560   28.3550   49.9200 C   0  0  0  0  0  0  0  0  0  0  0  0
   50.1170   29.8260   49.8050 C   0  0  2  0  0  0  0  0  0  0  0  0
   49.1750   29.8940   46.7350 H   0  0  0  0  0  0  0  0  0  0  0  0
   47.6920   29.1920   47.6150 H   0  0  0  0  0  0  0  0  0  0  0  0
   50.5420   28.1770   47.5630 H   0  0  0  0  0  0  0  0  0  0  0  0
   49.0000   27.2780   47.1610 H   0  0  0  0  0  0  0  0  0  0  0  0
   49.4940   26.5970   49.3380 H   0  0  0  0  0  0  0  0  0  0  0  0
   50.3260   28.0370   50.9880 H   0  0  0  0  0  0  0  0  0  0  0  0
   51.3350   28.0390   49.5270 H   0  0  0  0  0  0  0  0  0  0  0  0
   51.1120   30.2650   49.4860 H   0  0  0  0  0  0  0  0  0  0  0  0
   49.8270   30.3680   51.0740 N   0  0  0  0  0  0  0  0  0  0  0  0
   48.9230   30.4050   51.4700 H   0  0  0  0  0  0  0  0  0  0  0  0
   51.2020   30.8840   51.9120 S   0  0  0  0  0  0  0  0  0  0  0  0
   52.4570   30.4980   51.1470 O   0  0  0  0  0  0  0  0  0  0  0  0
   51.1940   32.3650   52.2240 O   0  0  0  0  0  0  0  0  0  0  0  0
   51.3570   30.1210   53.4210 O   0  0  0  0  0  0  0  0  0  0  0  0
   50.4840   29.8790   53.8100 H   0  0  0  0  0  0  0  0  0  0  0  0
   47.4530   32.2740   48.3510 O   0  0  0  0  0  0  0  0  0  0  0  0
   45.4190   30.7900   47.5640 O   0  0  0  0  0  0  0  0  0  0  0  0
   45.8150   32.0490   48.3660 P   0  0  1  0  0  0  0  0  0  0  0  0
   45.2450   31.7910   49.9220 O   0  0  0  0  0  0  0  0  0  0  0  0
   45.1980   32.6050   50.4770 H   0  0  0  0  0  0  0  0  0  0  0  0
   45.0360   33.3730   47.6600 O   0  0  0  0  0  0  0  0  0  0  0  0
   46.6890   33.5010   44.4350 C   0  0  0  0  0  0  0  0  0  0  0  0
   46.3290   33.1080   45.7470 C   0  0  0  0  0  0  0  0  0  0  0  0
   45.3360   33.8010   46.3950 C   0  0  0  0  0  0  0  0  0  0  0  0
   44.7330   34.8430   45.7500 N   0  0  0  0  0  0  0  0  0  0  0  0
   45.0910   35.1960   44.5100 C   0  0  0  0  0  0  0  0  0  0  0  0
   46.0590   34.5420   43.8390 N   0  0  0  0  0  0  0  0  0  0  0  0
   47.4580   33.0050   43.8640 H   0  0  0  0  0  0  0  0  0  0  0  0
   46.9060   32.2790   46.0820 H   0  0  0  0  0  0  0  0  0  0  0  0
   44.5230   36.0360   44.1370 H   0  0  0  0  0  0  0  0  0  0  0  0
  1  3  1  0  0  0  0
  1  2  2  0  0  0  0
  3  8  1  0  0  0  0
  4  5  1  0  0  0  0
  4  3  1  0  0  0  0
  5  6  1  0  0  0  0
  6 13  1  0  0  0  0
  6  7  1  0  0  0  0
  7 14  1  0  0  0  0
  8 16  1  6  0  0  0
  8  7  1  0  0  0  0
  8 17  1  0  0  0  0
  9  4  1  0  0  0  0
 10  4  1  0  0  0  0
 11  5  1  0  0  0  0
 12  5  1  0  0  0  0
 15  7  1  0  0  0  0
 17 18  1  0  0  0  0
 17 19  1  0  0  0  0
 19 21  1  0  0  0  0
 19 22  1  0  0  0  0
 20 19  1  0  0  0  0
 22 23  1  0  0  0  0
 24 26  1  0  0  0  0
 24  1  1  0  0  0  0
 26 25  2  6  0  0  0
 26 27  1  0  0  0  0
 27 28  1  0  0  0  0
 29 26  1  0  0  0  0
 30 31  1  0  0  0  0
 31 37  1  0  0  0  0
 31 32  2  0  0  0  0
 32 29  1  0  0  0  0
 33 32  1  0  0  0  0
 34 33  2  0  0  0  0
 35 30  2  0  0  0  0
 35 34  1  0  0  0  0
 36 30  1  0  0  0  0
 38 34  1  0  0  0  0
M  END
>  <minimizedAffinity>
-6.04387665

>  <minimizedRMSD>
0.561824501

$$$$
