
 OpenBabel03252508413D

 26 27  0  0  0  0  0  0  0  0999 V2000
   44.9930   33.3600   39.2620 C   0  0  0  0  0  0  0  0  0  0  0  0
   46.1350   33.4170   40.0060 C   0  0  0  0  0  0  0  0  0  0  0  0
   47.3800   33.2220   39.4410 C   0  0  0  0  0  0  0  0  0  0  0  0
   47.4410   32.9660   38.0930 C   0  0  0  0  0  0  0  0  0  0  0  0
   46.3320   32.8960   37.2870 C   0  0  0  0  0  0  0  0  0  0  0  0
   45.1320   33.1060   37.9500 C   0  0  0  0  0  0  0  0  0  0  0  0
   48.3200   33.2540   39.9730 H   0  0  0  0  0  0  0  0  0  0  0  0
   48.4050   32.8080   37.6170 H   0  0  0  0  0  0  0  0  0  0  0  0
   46.3560   32.6950   36.2240 H   0  0  0  0  0  0  0  0  0  0  0  0
   44.2220   33.0560   37.3330 H   0  0  0  0  0  0  0  0  0  0  0  0
   41.8030   34.8730   40.5920 C   0  0  0  0  0  0  0  0  0  0  0  0
   43.0200   34.7820   39.8640 C   0  0  0  0  0  0  0  0  0  0  0  0
   43.7290   33.5780   39.9470 C   0  0  0  0  0  0  0  0  0  0  0  0
   43.2300   32.5590   40.7090 N   0  0  0  0  0  0  0  0  0  0  0  0
   42.0690   32.6840   41.3860 C   0  0  0  0  0  0  0  0  0  0  0  0
   41.3520   33.8390   41.3310 N   0  0  0  0  0  0  0  0  0  0  0  0
   41.2630   35.7950   40.5280 H   0  0  0  0  0  0  0  0  0  0  0  0
   43.4270   35.5620   39.2650 H   0  0  0  0  0  0  0  0  0  0  0  0
   41.7830   31.8080   41.9520 H   0  0  0  0  0  0  0  0  0  0  0  0
   46.0520   33.6830   41.4000 N   0  0  0  0  0  0  0  0  0  0  0  0
   45.4250   33.1040   42.0180 H   0  0  0  0  0  0  0  0  0  0  0  0
   46.7690   34.8060   42.4700 S   0  0  0  0  0  0  0  0  0  0  0  0
   45.7510   35.8180   42.9630 O   0  0  0  0  0  1  0  0  0  0  0  0
   47.9230   35.5500   41.8620 O   0  0  0  0  0  1  0  0  0  0  0  0
   47.3790   34.0250   43.8390 O   0  0  0  0  0  0  0  0  0  0  0  0
   46.8420   33.2000   44.0520 H   0  0  0  0  0  0  0  0  0  0  0  0
  1 13  1  0  0  0  0
  1  2  1  0  0  0  0
  2 20  1  0  0  0  0
  3  7  1  0  0  0  0
  3  2  2  0  0  0  0
  4  3  1  0  0  0  0
  5  6  1  0  0  0  0
  5  4  2  0  0  0  0
  6  1  2  0  0  0  0
  8  4  1  0  0  0  0
  9  5  1  0  0  0  0
 10  6  1  0  0  0  0
 11 16  1  0  0  0  0
 12 13  1  0  0  0  0
 12 11  2  0  0  0  0
 13 14  2  0  0  0  0
 14 15  1  0  0  0  0
 15 19  1  0  0  0  0
 16 15  2  0  0  0  0
 17 11  1  0  0  0  0
 18 12  1  0  0  0  0
 20 21  1  0  0  0  0
 20 22  1  0  0  0  0
 22 23  1  0  0  0  0
 22 25  1  0  0  0  0
 24 22  1  0  0  0  0
 25 26  1  0  0  0  0
M  END
>  <minimizedAffinity>
-3.70455074

>  <minimizedRMSD>
4.06099558

$$$$
