
 OpenBabel03252500063D

 47 49  0  0  0  0  0  0  0  0999 V2000
   44.6440   35.2750   45.2290 C   0  0  0  0  0  0  0  0  0  0  0  0
   45.2250   35.4180   43.9720 C   0  0  0  0  0  0  0  0  0  0  0  0
   46.2370   34.5410   43.5860 C   0  0  0  0  0  0  0  0  0  0  0  0
   46.5550   33.6110   44.5150 N   0  0  0  0  0  0  0  0  0  0  0  0
   46.0040   33.4800   45.6970 C   0  0  0  0  0  0  0  0  0  0  0  0
   45.0510   34.3190   46.0390 N   0  0  0  0  0  0  0  0  0  0  0  0
   43.8620   35.9670   45.5050 H   0  0  0  0  0  0  0  0  0  0  0  0
   46.9270   34.5550   42.3450 C   0  0  0  0  0  0  0  0  0  0  0  0
   47.9670   35.4710   42.2210 C   0  0  0  0  0  0  0  0  0  0  0  0
   48.7440   35.6260   41.0920 C   0  0  0  0  0  0  0  0  0  0  0  0
   48.5190   34.8580   40.0070 C   0  0  0  0  0  0  0  0  0  0  0  0
   47.5020   33.9270   40.0580 C   0  0  0  0  0  0  0  0  0  0  0  0
   47.2220   33.1210   39.0000 C   0  0  0  0  0  0  0  0  0  0  0  0
   46.2140   32.1820   39.0170 C   0  0  0  0  0  0  0  0  0  0  0  0
   45.4610   32.0730   40.1910 C   0  0  0  0  0  0  0  0  0  0  0  0
   45.7870   32.9170   41.2420 C   0  0  0  0  0  0  0  0  0  0  0  0
   46.7580   33.8200   41.2200 C   0  0  0  0  0  0  0  0  0  0  0  0
   48.2380   36.1510   43.0460 H   0  0  0  0  0  0  0  0  0  0  0  0
   49.5430   36.3530   41.0420 H   0  0  0  0  0  0  0  0  0  0  0  0
   49.1080   34.9520   39.1060 H   0  0  0  0  0  0  0  0  0  0  0  0
   47.8190   33.2200   38.0940 H   0  0  0  0  0  0  0  0  0  0  0  0
   46.0280   31.5620   38.1500 H   0  0  0  0  0  0  0  0  0  0  0  0
   44.6980   31.3360   40.1530 H   0  0  0  0  0  0  0  0  0  0  0  0
   44.8980   32.6680   42.3430 N   0  0  0  0  0  0  0  0  0  0  0  0
   44.8840   31.9560   43.1040 H   0  0  0  0  0  0  0  0  0  0  0  0
   44.0240   33.1270   42.6730 H   0  0  0  0  0  0  0  0  0  0  0  0
   46.5550   32.3520   46.5210 C   0  0  0  0  0  0  0  0  0  0  0  0
   45.5530   31.5960   47.0730 F   0  0  0  0  0  0  0  0  0  0  0  0
   47.3900   32.8240   47.4980 F   0  0  0  0  0  0  0  0  0  0  0  0
   47.3890   31.5570   45.7050 F   0  0  0  0  0  0  0  0  0  0  0  0
   44.8550   36.4330   42.9930 C   0  0  0  0  0  0  0  0  0  0  0  0
   44.2720   37.2300   43.5070 H   0  0  0  0  0  0  0  0  0  0  0  0
   45.7810   36.9250   42.6160 H   0  0  0  0  0  0  0  0  0  0  0  0
   44.0700   35.9780   41.8350 C   0  0  0  0  0  0  0  0  0  0  0  0
   44.4850   35.4650   41.0180 H   0  0  0  0  0  0  0  0  0  0  0  0
   43.6490   36.9390   41.3850 H   0  0  0  0  0  0  0  0  0  0  0  0
   41.7390   35.0900   41.4880 C   0  0  0  0  0  0  0  0  0  0  0  0
   41.8880   35.2900   40.2280 O   0  0  0  0  0  0  0  0  0  0  0  0
   42.8160   35.3780   42.3770 N   0  0  0  0  0  0  0  0  0  0  0  0
   42.6180   35.1260   43.3820 H   0  0  0  0  0  0  0  0  0  0  0  0
   40.5050   34.5920   41.9310 N   0  0  0  0  0  0  0  0  0  0  0  0
   40.0630   35.0350   42.7780 H   0  0  0  0  0  0  0  0  0  0  0  0
   39.7070   33.2770   41.1200 S   0  0  0  0  0  0  0  0  0  0  0  0
   38.4420   33.7290   40.4550 O   0  0  0  0  0  1  0  0  0  0  0  0
   39.4950   32.1020   42.0200 O   0  0  0  0  0  1  0  0  0  0  0  0
   40.7520   32.7660   39.8890 O   0  0  0  0  0  0  0  0  0  0  0  0
   41.5060   32.2370   40.2870 H   0  0  0  0  0  0  0  0  0  0  0  0
  1  7  1  0  0  0  0
  1  6  1  0  0  0  0
  2  1  2  0  0  0  0
  3  2  1  0  0  0  0
  3  4  2  0  0  0  0
  4  5  1  0  0  0  0
  5  6  2  0  0  0  0
  5 27  1  0  0  0  0
  8  3  1  0  0  0  0
  9  8  1  0  0  0  0
  9 18  1  0  0  0  0
 10  9  2  0  0  0  0
 11 12  2  0  0  0  0
 11 10  1  0  0  0  0
 12 17  1  0  0  0  0
 13 14  2  0  0  0  0
 13 12  1  0  0  0  0
 14 15  1  0  0  0  0
 15 16  2  0  0  0  0
 16 24  1  0  0  0  0
 17 16  1  0  0  0  0
 17  8  2  0  0  0  0
 19 10  1  0  0  0  0
 20 11  1  0  0  0  0
 21 13  1  0  0  0  0
 22 14  1  0  0  0  0
 23 15  1  0  0  0  0
 24 26  1  0  0  0  0
 24 25  1  0  0  0  0
 27 28  1  0  0  0  0
 27 29  1  0  0  0  0
 30 27  1  0  0  0  0
 31 32  1  0  0  0  0
 31  2  1  0  0  0  0
 33 31  1  0  0  0  0
 34 39  1  0  0  0  0
 34 31  1  0  0  0  0
 35 34  1  0  0  0  0
 36 34  1  0  0  0  0
 37 41  1  0  0  0  0
 37 39  1  0  0  0  0
 38 37  2  0  0  0  0
 39 40  1  0  0  0  0
 41 42  1  0  0  0  0
 43 41  1  0  0  0  0
 43 45  1  0  0  0  0
 44 43  1  0  0  0  0
 46 47  1  0  0  0  0
 46 43  1  0  0  0  0
M  END
>  <minimizedAffinity>
-7.75135088

>  <minimizedRMSD>
0.571933389

$$$$
