
 OpenBabel03252500063D

 47 49  0  0  0  0  0  0  0  0999 V2000
   44.6590   35.2590   45.2490 C   0  0  0  0  0  0  0  0  0  0  0  0
   45.2400   35.4210   43.9940 C   0  0  0  0  0  0  0  0  0  0  0  0
   46.2400   34.5400   43.5870 C   0  0  0  0  0  0  0  0  0  0  0  0
   46.5480   33.5860   44.4960 N   0  0  0  0  0  0  0  0  0  0  0  0
   45.9980   33.4380   45.6760 C   0  0  0  0  0  0  0  0  0  0  0  0
   45.0570   34.2810   46.0370 N   0  0  0  0  0  0  0  0  0  0  0  0
   43.8860   35.9550   45.5410 H   0  0  0  0  0  0  0  0  0  0  0  0
   46.9270   34.5710   42.3450 C   0  0  0  0  0  0  0  0  0  0  0  0
   47.9640   35.4910   42.2300 C   0  0  0  0  0  0  0  0  0  0  0  0
   48.7380   35.6620   41.1020 C   0  0  0  0  0  0  0  0  0  0  0  0
   48.5140   34.9060   40.0080 C   0  0  0  0  0  0  0  0  0  0  0  0
   47.4990   33.9720   40.0490 C   0  0  0  0  0  0  0  0  0  0  0  0
   47.2190   33.1790   38.9820 C   0  0  0  0  0  0  0  0  0  0  0  0
   46.2140   32.2370   38.9890 C   0  0  0  0  0  0  0  0  0  0  0  0
   45.4630   32.1110   40.1640 C   0  0  0  0  0  0  0  0  0  0  0  0
   45.7890   32.9440   41.2240 C   0  0  0  0  0  0  0  0  0  0  0  0
   46.7580   33.8500   41.2110 C   0  0  0  0  0  0  0  0  0  0  0  0
   48.2360   36.1610   43.0630 H   0  0  0  0  0  0  0  0  0  0  0  0
   49.5350   36.3920   41.0580 H   0  0  0  0  0  0  0  0  0  0  0  0
   49.1000   35.0130   39.1060 H   0  0  0  0  0  0  0  0  0  0  0  0
   47.8140   33.2910   38.0760 H   0  0  0  0  0  0  0  0  0  0  0  0
   46.0270   31.6270   38.1150 H   0  0  0  0  0  0  0  0  0  0  0  0
   44.7020   31.3730   40.1180 H   0  0  0  0  0  0  0  0  0  0  0  0
   44.9030   32.6790   42.3230 N   0  0  0  0  0  0  0  0  0  0  0  0
   44.8930   31.9570   43.0750 H   0  0  0  0  0  0  0  0  0  0  0  0
   44.0280   33.1320   42.6610 H   0  0  0  0  0  0  0  0  0  0  0  0
   46.5370   32.2870   46.4750 C   0  0  0  0  0  0  0  0  0  0  0  0
   45.5270   31.5310   47.0130 F   0  0  0  0  0  0  0  0  0  0  0  0
   47.3790   32.7280   47.4600 F   0  0  0  0  0  0  0  0  0  0  0  0
   47.3600   31.4990   45.6410 F   0  0  0  0  0  0  0  0  0  0  0  0
   44.8800   36.4600   43.0370 C   0  0  0  0  0  0  0  0  0  0  0  0
   44.2670   37.2300   43.5580 H   0  0  0  0  0  0  0  0  0  0  0  0
   45.8080   36.9810   42.7040 H   0  0  0  0  0  0  0  0  0  0  0  0
   44.1390   36.0290   41.8400 C   0  0  0  0  0  0  0  0  0  0  0  0
   44.6030   35.6760   40.9670 H   0  0  0  0  0  0  0  0  0  0  0  0
   43.5760   36.9640   41.5070 H   0  0  0  0  0  0  0  0  0  0  0  0
   41.8210   35.1000   41.5220 C   0  0  0  0  0  0  0  0  0  0  0  0
   41.7870   35.6740   40.3730 O   0  0  0  0  0  0  0  0  0  0  0  0
   42.9980   35.1980   42.3200 N   0  0  0  0  0  0  0  0  0  0  0  0
   42.9500   34.6460   43.2190 H   0  0  0  0  0  0  0  0  0  0  0  0
   40.6800   34.3970   41.9370 N   0  0  0  0  0  0  0  0  0  0  0  0
   39.9430   34.9190   42.4790 H   0  0  0  0  0  0  0  0  0  0  0  0
   40.4660   32.7090   41.5770 S   0  0  0  0  0  0  0  0  0  0  0  0
   39.6920   32.5120   40.3090 O   0  0  0  0  0  1  0  0  0  0  0  0
   39.8840   31.9540   42.7290 O   0  0  0  0  0  1  0  0  0  0  0  0
   42.0130   32.0750   41.3100 O   0  0  0  0  0  0  0  0  0  0  0  0
   42.4870   31.9630   42.1880 H   0  0  0  0  0  0  0  0  0  0  0  0
  1  7  1  0  0  0  0
  1  6  1  0  0  0  0
  2  1  2  0  0  0  0
  3  2  1  0  0  0  0
  3  4  2  0  0  0  0
  4  5  1  0  0  0  0
  5  6  2  0  0  0  0
  5 27  1  0  0  0  0
  8  3  1  0  0  0  0
  9  8  1  0  0  0  0
  9 18  1  0  0  0  0
 10  9  2  0  0  0  0
 11 12  2  0  0  0  0
 11 10  1  0  0  0  0
 12 17  1  0  0  0  0
 13 14  2  0  0  0  0
 13 12  1  0  0  0  0
 14 15  1  0  0  0  0
 15 16  2  0  0  0  0
 16 24  1  0  0  0  0
 17 16  1  0  0  0  0
 17  8  2  0  0  0  0
 19 10  1  0  0  0  0
 20 11  1  0  0  0  0
 21 13  1  0  0  0  0
 22 14  1  0  0  0  0
 23 15  1  0  0  0  0
 24 26  1  0  0  0  0
 24 25  1  0  0  0  0
 27 28  1  0  0  0  0
 27 29  1  0  0  0  0
 30 27  1  0  0  0  0
 31 32  1  0  0  0  0
 31  2  1  0  0  0  0
 33 31  1  0  0  0  0
 34 39  1  0  0  0  0
 34 31  1  0  0  0  0
 35 34  1  0  0  0  0
 36 34  1  0  0  0  0
 37 41  1  0  0  0  0
 37 39  1  0  0  0  0
 38 37  2  0  0  0  0
 39 40  1  0  0  0  0
 41 42  1  0  0  0  0
 43 41  1  0  0  0  0
 43 45  1  0  0  0  0
 44 43  1  0  0  0  0
 46 43  1  0  0  0  0
 46 47  1  0  0  0  0
M  END
>  <minimizedAffinity>
-7.19870138

>  <minimizedRMSD>
0.841964602

$$$$
