
 OpenBabel03252507233D

 45 47  0  0  1  0  0  0  0  0999 V2000
   39.0560   29.2310   40.4360 C   0  0  0  0  0  0  0  0  0  0  0  0
   39.6490   28.7270   39.4270 O   0  0  0  0  0  0  0  0  0  0  0  0
   38.5590   28.4500   41.5130 N   0  0  0  0  0  0  0  0  0  0  0  0
   38.6490   28.6710   42.9650 C   0  0  0  0  0  0  0  0  0  0  0  0
   37.2610   28.5590   43.5800 C   0  0  0  0  0  0  0  0  0  0  0  0
   36.7060   27.1810   43.3950 C   0  0  0  0  0  0  0  0  0  0  0  0
   37.5710   26.4190   42.3990 C   0  0  0  0  0  0  0  0  0  0  0  0
   37.8490   27.2400   41.1870 C   0  0  2  0  0  0  0  0  0  0  0  0
   38.9730   29.7440   43.0950 H   0  0  0  0  0  0  0  0  0  0  0  0
   39.3940   28.0260   43.4280 H   0  0  0  0  0  0  0  0  0  0  0  0
   37.3810   28.7880   44.6460 H   0  0  0  0  0  0  0  0  0  0  0  0
   36.6410   29.3380   43.0870 H   0  0  0  0  0  0  0  0  0  0  0  0
   36.7850   26.6010   44.3440 H   0  0  0  0  0  0  0  0  0  0  0  0
   35.6470   27.1780   43.1180 H   0  0  0  0  0  0  0  0  0  0  0  0
   37.0880   25.4670   42.0950 H   0  0  0  0  0  0  0  0  0  0  0  0
   38.5550   26.2380   42.9230 H   0  0  0  0  0  0  0  0  0  0  0  0
   36.8760   27.5830   40.7270 H   0  0  0  0  0  0  0  0  0  0  0  0
   39.9800   31.4340   40.9390 C   0  0  0  0  0  0  0  0  0  0  0  0
   38.8890   30.6610   40.4760 C   0  0  0  0  0  0  0  0  0  0  0  0
   37.7110   31.2780   40.0780 C   0  0  0  0  0  0  0  0  0  0  0  0
   37.6610   32.6260   40.1560 N   0  0  0  0  0  0  0  0  0  0  0  0
   38.6980   33.3880   40.5990 C   0  0  0  0  0  0  0  0  0  0  0  0
   39.8410   32.7730   40.9830 N   0  0  0  0  0  0  0  0  0  0  0  0
   40.8970   30.9510   41.2480 H   0  0  0  0  0  0  0  0  0  0  0  0
   38.4990   34.4370   40.5990 H   0  0  0  0  0  0  0  0  0  0  0  0
   36.6250   30.4570   39.6150 C   0  0  0  0  0  0  0  0  0  0  0  0
   35.6640   30.0240   40.4640 C   0  0  0  0  0  0  0  0  0  0  0  0
   34.6380   29.2390   39.9810 C   0  0  0  0  0  0  0  0  0  0  0  0
   34.5400   28.8650   38.6450 C   0  0  0  0  0  0  0  0  0  0  0  0
   35.5450   29.3310   37.8170 C   0  0  0  0  0  0  0  0  0  0  0  0
   36.5270   30.0910   38.3160 N   0  0  0  0  0  0  0  0  0  0  0  0
   35.6230   30.2410   41.5160 H   0  0  0  0  0  0  0  0  0  0  0  0
   33.8500   28.8740   40.6370 H   0  0  0  0  0  0  0  0  0  0  0  0
   33.7180   28.2490   38.3200 H   0  0  0  0  0  0  0  0  0  0  0  0
   35.5090   29.0610   36.7570 H   0  0  0  0  0  0  0  0  0  0  0  0
   38.5170   26.4050   40.1400 C   0  0  0  0  0  0  0  0  0  0  0  0
   37.6710   26.0190   39.4880 H   0  0  0  0  0  0  0  0  0  0  0  0
   39.1760   26.9330   39.4490 H   0  0  0  0  0  0  0  0  0  0  0  0
   39.0630   25.2300   40.7640 N   0  0  0  0  0  0  0  0  0  0  0  0
   38.6460   25.1840   41.7420 H   0  0  0  0  0  0  0  0  0  0  0  0
   38.5570   23.7800   39.9780 S   0  0  0  0  0  0  0  0  0  0  0  0
   37.2760   23.9680   39.2320 O   0  0  0  0  0  1  0  0  0  0  0  0
   39.6730   23.3210   39.0820 O   0  0  0  0  0  1  0  0  0  0  0  0
   38.2970   22.5590   41.1120 O   0  0  0  0  0  0  0  0  0  0  0  0
   38.4310   21.6990   40.6310 H   0  0  0  0  0  0  0  0  0  0  0  0
  1 19  1  0  0  0  0
  1  3  1  0  0  0  0
  2  1  2  0  0  0  0
  3  4  1  0  0  0  0
  4  9  1  0  0  0  0
  4 10  1  0  0  0  0
  4  5  1  0  0  0  0
  5 11  1  0  0  0  0
  6  5  1  0  0  0  0
  6 13  1  0  0  0  0
  7 16  1  0  0  0  0
  7  6  1  0  0  0  0
  8 17  1  6  0  0  0
  8  3  1  0  0  0  0
  8  7  1  0  0  0  0
 12  5  1  0  0  0  0
 14  6  1  0  0  0  0
 15  7  1  0  0  0  0
 18 23  1  0  0  0  0
 18 24  1  0  0  0  0
 19 18  2  0  0  0  0
 20 21  2  0  0  0  0
 20 19  1  0  0  0  0
 21 22  1  0  0  0  0
 22 23  2  0  0  0  0
 25 22  1  0  0  0  0
 26 20  1  0  0  0  0
 26 27  1  0  0  0  0
 27 32  1  0  0  0  0
 28 27  2  0  0  0  0
 28 33  1  0  0  0  0
 29 28  1  0  0  0  0
 30 31  1  0  0  0  0
 30 29  2  0  0  0  0
 31 26  2  0  0  0  0
 34 29  1  0  0  0  0
 35 30  1  0  0  0  0
 36 39  1  0  0  0  0
 36  8  1  0  0  0  0
 37 36  1  0  0  0  0
 38 36  1  0  0  0  0
 39 40  1  0  0  0  0
 41 39  1  0  0  0  0
 41 44  1  0  0  0  0
 42 41  1  0  0  0  0
 43 41  1  0  0  0  0
 45 44  1  0  0  0  0
M  END
>  <minimizedAffinity>
-5.90484524

$$$$

 OpenBabel03252507233D

 45 47  0  0  1  0  0  0  0  0999 V2000
   38.6830   28.7150   39.1470 C   0  0  0  0  0  0  0  0  0  0  0  0
   39.5310   28.3170   38.2810 O   0  0  0  0  0  0  0  0  0  0  0  0
   38.1070   30.0130   39.1270 N   0  0  0  0  0  0  0  0  0  0  0  0
   36.7120   30.4340   39.3280 C   0  0  0  0  0  0  0  0  0  0  0  0
   36.6630   31.5370   40.3770 C   0  0  0  0  0  0  0  0  0  0  0  0
   37.4080   32.7490   39.9090 C   0  0  0  0  0  0  0  0  0  0  0  0
   38.2230   32.3930   38.6720 C   0  0  0  0  0  0  0  0  0  0  0  0
   38.9830   31.1280   38.8720 C   0  0  2  0  0  0  0  0  0  0  0  0
   36.1820   29.5430   39.7740 H   0  0  0  0  0  0  0  0  0  0  0  0
   36.2260   30.6910   38.3890 H   0  0  0  0  0  0  0  0  0  0  0  0
   35.6010   31.7690   40.5250 H   0  0  0  0  0  0  0  0  0  0  0  0
   37.0950   31.1020   41.3030 H   0  0  0  0  0  0  0  0  0  0  0  0
   36.6940   33.5330   39.5640 H   0  0  0  0  0  0  0  0  0  0  0  0
   38.0160   33.2080   40.6940 H   0  0  0  0  0  0  0  0  0  0  0  0
   38.9300   33.2080   38.4110 H   0  0  0  0  0  0  0  0  0  0  0  0
   37.4710   32.2140   37.8500 H   0  0  0  0  0  0  0  0  0  0  0  0
   39.6300   31.2120   39.7960 H   0  0  0  0  0  0  0  0  0  0  0  0
   37.4050   26.7550   39.8430 C   0  0  0  0  0  0  0  0  0  0  0  0
   38.2990   27.7960   40.1870 C   0  0  0  0  0  0  0  0  0  0  0  0
   38.7770   27.9100   41.4850 C   0  0  0  0  0  0  0  0  0  0  0  0
   38.3530   26.9940   42.3840 N   0  0  0  0  0  0  0  0  0  0  0  0
   37.4930   25.9860   42.0740 C   0  0  0  0  0  0  0  0  0  0  0  0
   37.0360   25.8870   40.8040 N   0  0  0  0  0  0  0  0  0  0  0  0
   37.0340   26.6690   38.8300 H   0  0  0  0  0  0  0  0  0  0  0  0
   37.2560   25.3470   42.8960 H   0  0  0  0  0  0  0  0  0  0  0  0
   39.6840   28.9830   41.7950 C   0  0  0  0  0  0  0  0  0  0  0  0
   39.2690   30.0710   42.4830 C   0  0  0  0  0  0  0  0  0  0  0  0
   40.1690   31.0800   42.7620 C   0  0  0  0  0  0  0  0  0  0  0  0
   41.5010   31.0310   42.3640 C   0  0  0  0  0  0  0  0  0  0  0  0
   41.8770   29.9000   41.6640 C   0  0  0  0  0  0  0  0  0  0  0  0
   40.9800   28.9390   41.4090 N   0  0  0  0  0  0  0  0  0  0  0  0
   38.2700   30.2310   42.8460 H   0  0  0  0  0  0  0  0  0  0  0  0
   39.8670   31.9680   43.3130 H   0  0  0  0  0  0  0  0  0  0  0  0
   42.1610   31.8460   42.6080 H   0  0  0  0  0  0  0  0  0  0  0  0
   42.9160   29.8190   41.3300 H   0  0  0  0  0  0  0  0  0  0  0  0
   39.9320   30.9100   37.7360 C   0  0  0  0  0  0  0  0  0  0  0  0
   40.8940   30.5490   38.2210 H   0  0  0  0  0  0  0  0  0  0  0  0
   39.6690   30.1190   37.0320 H   0  0  0  0  0  0  0  0  0  0  0  0
   40.2670   32.1840   37.1620 N   0  0  0  0  0  0  0  0  0  0  0  0
   39.7360   32.9180   37.7210 H   0  0  0  0  0  0  0  0  0  0  0  0
   41.9370   32.5710   37.3640 S   0  0  0  0  0  0  0  0  0  0  0  0
   42.3200   32.6500   38.8060 O   0  0  0  0  0  1  0  0  0  0  0  0
   42.7470   31.5490   36.6160 O   0  0  0  0  0  1  0  0  0  0  0  0
   42.2770   34.0730   36.6770 O   0  0  0  0  0  0  0  0  0  0  0  0
   43.2420   34.0590   36.4390 H   0  0  0  0  0  0  0  0  0  0  0  0
  1 19  1  0  0  0  0
  2  1  2  0  0  0  0
  3  1  1  0  0  0  0
  3  4  1  0  0  0  0
  4  9  1  0  0  0  0
  4  5  1  0  0  0  0
  5 11  1  0  0  0  0
  5 12  1  0  0  0  0
  6  5  1  0  0  0  0
  6 14  1  0  0  0  0
  7  8  1  0  0  0  0
  7  6  1  0  0  0  0
  8  3  1  0  0  0  0
  8 17  1  1  0  0  0
 10  4  1  0  0  0  0
 13  6  1  0  0  0  0
 15  7  1  0  0  0  0
 16  7  1  0  0  0  0
 18 19  2  0  0  0  0
 18 23  1  0  0  0  0
 19 20  1  0  0  0  0
 20 26  1  0  0  0  0
 20 21  2  0  0  0  0
 22 21  1  0  0  0  0
 22 25  1  0  0  0  0
 23 22  2  0  0  0  0
 24 18  1  0  0  0  0
 26 27  1  0  0  0  0
 27 28  2  0  0  0  0
 27 32  1  0  0  0  0
 28 33  1  0  0  0  0
 29 34  1  0  0  0  0
 29 28  1  0  0  0  0
 30 29  2  0  0  0  0
 31 30  1  0  0  0  0
 31 26  2  0  0  0  0
 35 30  1  0  0  0  0
 36 37  1  0  0  0  0
 36  8  1  0  0  0  0
 38 36  1  0  0  0  0
 39 41  1  0  0  0  0
 39 40  1  0  0  0  0
 39 36  1  0  0  0  0
 41 42  1  0  0  0  0
 43 41  1  0  0  0  0
 44 41  1  0  0  0  0
 45 44  1  0  0  0  0
M  END
>  <minimizedAffinity>
-5.82733774

$$$$

 OpenBabel03252507233D

 45 47  0  0  1  0  0  0  0  0999 V2000
   37.8300   28.4480   41.6510 C   0  0  0  0  0  0  0  0  0  0  0  0
   37.8960   29.2200   42.6640 O   0  0  0  0  0  0  0  0  0  0  0  0
   37.5630   28.9160   40.3370 N   0  0  0  0  0  0  0  0  0  0  0  0
   38.2010   28.5650   39.0580 C   0  0  0  0  0  0  0  0  0  0  0  0
   37.1280   28.1860   38.0460 C   0  0  0  0  0  0  0  0  0  0  0  0
   36.2270   29.3480   37.7650 C   0  0  0  0  0  0  0  0  0  0  0  0
   36.4830   30.4430   38.7920 C   0  0  0  0  0  0  0  0  0  0  0  0
   36.5140   29.8890   40.1750 C   0  0  2  0  0  0  0  0  0  0  0  0
   38.7990   27.6290   39.2580 H   0  0  0  0  0  0  0  0  0  0  0  0
   38.8800   29.3430   38.7160 H   0  0  0  0  0  0  0  0  0  0  0  0
   37.6620   27.8810   37.1370 H   0  0  0  0  0  0  0  0  0  0  0  0
   36.5850   27.3200   38.4810 H   0  0  0  0  0  0  0  0  0  0  0  0
   36.4880   29.8110   36.7840 H   0  0  0  0  0  0  0  0  0  0  0  0
   35.1720   29.0670   37.7050 H   0  0  0  0  0  0  0  0  0  0  0  0
   35.7080   31.2360   38.7330 H   0  0  0  0  0  0  0  0  0  0  0  0
   37.5120   30.8470   38.5620 H   0  0  0  0  0  0  0  0  0  0  0  0
   35.5550   29.3270   40.3840 H   0  0  0  0  0  0  0  0  0  0  0  0
   36.9000   26.2000   41.8540 C   0  0  0  0  0  0  0  0  0  0  0  0
   38.0390   27.0400   41.8620 C   0  0  0  0  0  0  0  0  0  0  0  0
   39.3030   26.5040   42.0680 C   0  0  0  0  0  0  0  0  0  0  0  0
   39.3870   25.1690   42.2570 N   0  0  0  0  0  0  0  0  0  0  0  0
   38.3050   24.3440   42.2540 C   0  0  0  0  0  0  0  0  0  0  0  0
   37.0790   24.8790   42.0500 N   0  0  0  0  0  0  0  0  0  0  0  0
   35.9160   26.6200   41.6930 H   0  0  0  0  0  0  0  0  0  0  0  0
   38.5400   23.3150   42.4160 H   0  0  0  0  0  0  0  0  0  0  0  0
   40.4360   27.3910   42.0710 C   0  0  0  0  0  0  0  0  0  0  0  0
   40.9610   27.8500   43.2310 C   0  0  0  0  0  0  0  0  0  0  0  0
   42.0480   28.6990   43.1920 C   0  0  0  0  0  0  0  0  0  0  0  0
   42.6400   29.1110   42.0030 C   0  0  0  0  0  0  0  0  0  0  0  0
   42.0680   28.6160   40.8450 C   0  0  0  0  0  0  0  0  0  0  0  0
   41.0140   27.7940   40.9170 N   0  0  0  0  0  0  0  0  0  0  0  0
   40.5990   27.6090   44.2130 H   0  0  0  0  0  0  0  0  0  0  0  0
   42.4940   29.0860   44.1060 H   0  0  0  0  0  0  0  0  0  0  0  0
   43.4870   29.7750   42.0290 H   0  0  0  0  0  0  0  0  0  0  0  0
   42.5010   28.9130   39.8850 H   0  0  0  0  0  0  0  0  0  0  0  0
   36.5550   31.0010   41.1760 C   0  0  0  0  0  0  0  0  0  0  0  0
   35.4820   31.1140   41.5340 H   0  0  0  0  0  0  0  0  0  0  0  0
   37.1270   30.8110   42.0860 H   0  0  0  0  0  0  0  0  0  0  0  0
   36.8440   32.2310   40.4900 N   0  0  0  0  0  0  0  0  0  0  0  0
   36.2960   32.9930   40.9910 H   0  0  0  0  0  0  0  0  0  0  0  0
   38.5020   32.6840   40.6350 S   0  0  0  0  0  0  0  0  0  0  0  0
   39.2870   31.6830   41.4180 O   0  0  0  0  0  1  0  0  0  0  0  0
   39.0540   32.8800   39.2500 O   0  0  0  0  0  1  0  0  0  0  0  0
   38.6380   34.1610   41.4370 O   0  0  0  0  0  0  0  0  0  0  0  0
   39.4930   34.5660   41.1310 H   0  0  0  0  0  0  0  0  0  0  0  0
  1 19  1  0  0  0  0
  1  2  2  0  0  0  0
  3  1  1  0  0  0  0
  4  9  1  0  0  0  0
  4  3  1  0  0  0  0
  5 12  1  0  0  0  0
  5  4  1  0  0  0  0
  6  5  1  0  0  0  0
  6  7  1  0  0  0  0
  7  8  1  0  0  0  0
  8  3  1  0  0  0  0
  8 17  1  1  0  0  0
  8 36  1  0  0  0  0
 10  4  1  0  0  0  0
 11  5  1  0  0  0  0
 13  6  1  0  0  0  0
 14  6  1  0  0  0  0
 15  7  1  0  0  0  0
 16  7  1  0  0  0  0
 18 19  2  0  0  0  0
 18 23  1  0  0  0  0
 19 20  1  0  0  0  0
 20 26  1  0  0  0  0
 20 21  2  0  0  0  0
 22 21  1  0  0  0  0
 22 25  1  0  0  0  0
 23 22  2  0  0  0  0
 24 18  1  0  0  0  0
 26 27  1  0  0  0  0
 27 32  1  0  0  0  0
 28 27  2  0  0  0  0
 28 33  1  0  0  0  0
 29 34  1  0  0  0  0
 29 28  1  0  0  0  0
 30 31  1  0  0  0  0
 30 29  2  0  0  0  0
 31 26  2  0  0  0  0
 35 30  1  0  0  0  0
 36 37  1  0  0  0  0
 36 38  1  0  0  0  0
 39 41  1  0  0  0  0
 39 40  1  0  0  0  0
 39 36  1  0  0  0  0
 41 42  1  0  0  0  0
 41 44  1  0  0  0  0
 43 41  1  0  0  0  0
 45 44  1  0  0  0  0
M  END
>  <minimizedAffinity>
-5.77556944

$$$$

 OpenBabel03252507233D

 45 47  0  0  1  0  0  0  0  0999 V2000
   39.2710   28.7570   40.2220 C   0  0  0  0  0  0  0  0  0  0  0  0
   40.5260   28.9740   40.2750 O   0  0  0  0  0  0  0  0  0  0  0  0
   38.4710   28.5490   41.3770 N   0  0  0  0  0  0  0  0  0  0  0  0
   37.1490   29.0920   41.7240 C   0  0  0  0  0  0  0  0  0  0  0  0
   36.2230   27.9510   42.1240 C   0  0  0  0  0  0  0  0  0  0  0  0
   36.7310   27.2570   43.3490 C   0  0  0  0  0  0  0  0  0  0  0  0
   38.1560   27.7160   43.6330 C   0  0  0  0  0  0  0  0  0  0  0  0
   38.9910   27.6790   42.4000 C   0  0  2  0  0  0  0  0  0  0  0  0
   36.7320   29.5250   40.7700 H   0  0  0  0  0  0  0  0  0  0  0  0
   37.2180   29.8880   42.4640 H   0  0  0  0  0  0  0  0  0  0  0  0
   35.2440   28.4070   42.3150 H   0  0  0  0  0  0  0  0  0  0  0  0
   36.1680   27.2760   41.2430 H   0  0  0  0  0  0  0  0  0  0  0  0
   36.1460   27.5730   44.2440 H   0  0  0  0  0  0  0  0  0  0  0  0
   36.6450   26.1680   43.2920 H   0  0  0  0  0  0  0  0  0  0  0  0
   38.6300   27.0880   44.4160 H   0  0  0  0  0  0  0  0  0  0  0  0
   38.0720   28.7940   43.9580 H   0  0  0  0  0  0  0  0  0  0  0  0
   38.9620   26.6430   41.9500 H   0  0  0  0  0  0  0  0  0  0  0  0
   38.4480   27.4610   38.3240 C   0  0  0  0  0  0  0  0  0  0  0  0
   38.6470   28.7270   38.9250 C   0  0  0  0  0  0  0  0  0  0  0  0
   38.2470   29.8840   38.2710 C   0  0  0  0  0  0  0  0  0  0  0  0
   37.6710   29.7420   37.0560 N   0  0  0  0  0  0  0  0  0  0  0  0
   37.4710   28.5350   36.4600 C   0  0  0  0  0  0  0  0  0  0  0  0
   37.8660   27.4150   37.1100 N   0  0  0  0  0  0  0  0  0  0  0  0
   38.7610   26.5610   38.8360 H   0  0  0  0  0  0  0  0  0  0  0  0
   37.0040   28.5930   35.5030 H   0  0  0  0  0  0  0  0  0  0  0  0
   38.4670   31.1520   38.9140 C   0  0  0  0  0  0  0  0  0  0  0  0
   37.4570   31.8050   39.5340 C   0  0  0  0  0  0  0  0  0  0  0  0
   37.7090   33.0190   40.1410 C   0  0  0  0  0  0  0  0  0  0  0  0
   38.9670   33.6120   40.1460 C   0  0  0  0  0  0  0  0  0  0  0  0
   39.9660   32.9060   39.5000 C   0  0  0  0  0  0  0  0  0  0  0  0
   39.6890   31.7310   38.9210 N   0  0  0  0  0  0  0  0  0  0  0  0
   36.4430   31.4580   39.6010 H   0  0  0  0  0  0  0  0  0  0  0  0
   36.9190   33.5700   40.6470 H   0  0  0  0  0  0  0  0  0  0  0  0
   39.1090   34.5610   40.6340 H   0  0  0  0  0  0  0  0  0  0  0  0
   40.9720   33.3340   39.4790 H   0  0  0  0  0  0  0  0  0  0  0  0
   40.4270   27.9290   42.7410 C   0  0  0  0  0  0  0  0  0  0  0  0
   40.9970   27.7270   41.7790 H   0  0  0  0  0  0  0  0  0  0  0  0
   40.6900   28.9550   43.0020 H   0  0  0  0  0  0  0  0  0  0  0  0
   40.8710   26.9080   43.6500 N   0  0  0  0  0  0  0  0  0  0  0  0
   40.0270   26.6390   44.2400 H   0  0  0  0  0  0  0  0  0  0  0  0
   41.3390   25.4640   42.8310 S   0  0  0  0  0  0  0  0  0  0  0  0
   40.2890   24.4050   42.9240 O   0  0  0  0  0  1  0  0  0  0  0  0
   41.6630   25.8190   41.4070 O   0  0  0  0  0  1  0  0  0  0  0  0
   42.7440   24.8310   43.5160 O   0  0  0  0  0  0  0  0  0  0  0  0
   43.1890   24.3020   42.8010 H   0  0  0  0  0  0  0  0  0  0  0  0
  1  2  2  0  0  0  0
  1  3  1  0  0  0  0
  3  4  1  0  0  0  0
  3  8  1  0  0  0  0
  4  5  1  0  0  0  0
  4 10  1  0  0  0  0
  5 11  1  0  0  0  0
  5  6  1  0  0  0  0
  6  7  1  0  0  0  0
  6 13  1  0  0  0  0
  7 16  1  0  0  0  0
  7 15  1  0  0  0  0
  8 17  1  6  0  0  0
  8 36  1  0  0  0  0
  8  7  1  0  0  0  0
  9  4  1  0  0  0  0
 12  5  1  0  0  0  0
 14  6  1  0  0  0  0
 18 24  1  0  0  0  0
 18 19  1  0  0  0  0
 19  1  1  0  0  0  0
 20 26  1  0  0  0  0
 20 19  2  0  0  0  0
 21 20  1  0  0  0  0
 22 21  2  0  0  0  0
 22 23  1  0  0  0  0
 23 18  2  0  0  0  0
 25 22  1  0  0  0  0
 26 31  2  0  0  0  0
 26 27  1  0  0  0  0
 27 32  1  0  0  0  0
 27 28  2  0  0  0  0
 28 29  1  0  0  0  0
 28 33  1  0  0  0  0
 29 34  1  0  0  0  0
 30 29  2  0  0  0  0
 31 30  1  0  0  0  0
 35 30  1  0  0  0  0
 36 38  1  0  0  0  0
 36 39  1  0  0  0  0
 37 36  1  0  0  0  0
 39 40  1  0  0  0  0
 41 42  1  0  0  0  0
 41 44  1  0  0  0  0
 41 39  1  0  0  0  0
 43 41  1  0  0  0  0
 45 44  1  0  0  0  0
M  END
>  <minimizedAffinity>
-5.71593571

$$$$

 OpenBabel03252507233D

 45 47  0  0  1  0  0  0  0  0999 V2000
   38.9620   29.4840   39.6540 C   0  0  0  0  0  0  0  0  0  0  0  0
   38.3470   28.6410   38.9210 O   0  0  0  0  0  0  0  0  0  0  0  0
   38.4750   30.7940   39.9060 N   0  0  0  0  0  0  0  0  0  0  0  0
   38.4090   31.5550   41.1620 C   0  0  0  0  0  0  0  0  0  0  0  0
   39.0350   32.9280   40.9540 C   0  0  0  0  0  0  0  0  0  0  0  0
   38.2660   33.7160   39.9400 C   0  0  0  0  0  0  0  0  0  0  0  0
   37.2850   32.7950   39.2250 C   0  0  0  0  0  0  0  0  0  0  0  0
   37.9480   31.5350   38.7880 C   0  0  2  0  0  0  0  0  0  0  0  0
   39.0720   31.0070   41.8910 H   0  0  0  0  0  0  0  0  0  0  0  0
   37.3990   31.5850   41.5670 H   0  0  0  0  0  0  0  0  0  0  0  0
   39.0100   33.4250   41.9320 H   0  0  0  0  0  0  0  0  0  0  0  0
   40.0860   32.7440   40.6440 H   0  0  0  0  0  0  0  0  0  0  0  0
   37.6260   34.4770   40.4460 H   0  0  0  0  0  0  0  0  0  0  0  0
   38.9090   34.2640   39.2450 H   0  0  0  0  0  0  0  0  0  0  0  0
   36.8350   33.2970   38.3440 H   0  0  0  0  0  0  0  0  0  0  0  0
   36.5040   32.5230   39.9940 H   0  0  0  0  0  0  0  0  0  0  0  0
   38.8460   31.7780   38.1460 H   0  0  0  0  0  0  0  0  0  0  0  0
   41.4020   29.4500   39.5940 C   0  0  0  0  0  0  0  0  0  0  0  0
   40.2070   29.0750   40.2520 C   0  0  0  0  0  0  0  0  0  0  0  0
   40.2550   28.3400   41.4280 C   0  0  0  0  0  0  0  0  0  0  0  0
   41.4760   28.0090   41.9030 N   0  0  0  0  0  0  0  0  0  0  0  0
   42.6380   28.3590   41.2860 C   0  0  0  0  0  0  0  0  0  0  0  0
   42.5760   29.0760   40.1400 N   0  0  0  0  0  0  0  0  0  0  0  0
   41.3630   30.0230   38.6780 H   0  0  0  0  0  0  0  0  0  0  0  0
   43.5170   28.0210   41.7880 H   0  0  0  0  0  0  0  0  0  0  0  0
   39.0170   27.9770   42.0660 C   0  0  0  0  0  0  0  0  0  0  0  0
   38.3540   26.8510   41.7130 C   0  0  0  0  0  0  0  0  0  0  0  0
   37.1700   26.5370   42.3490 C   0  0  0  0  0  0  0  0  0  0  0  0
   36.6170   27.3310   43.3470 C   0  0  0  0  0  0  0  0  0  0  0  0
   37.3310   28.4710   43.6720 C   0  0  0  0  0  0  0  0  0  0  0  0
   38.4770   28.7480   43.0370 N   0  0  0  0  0  0  0  0  0  0  0  0
   38.6720   26.1550   40.9600 H   0  0  0  0  0  0  0  0  0  0  0  0
   36.6130   25.6390   42.0890 H   0  0  0  0  0  0  0  0  0  0  0  0
   35.6900   27.0400   43.8110 H   0  0  0  0  0  0  0  0  0  0  0  0
   36.9330   29.1260   44.4530 H   0  0  0  0  0  0  0  0  0  0  0  0
   37.0290   30.7440   37.9120 C   0  0  0  0  0  0  0  0  0  0  0  0
   37.0500   29.6910   38.3370 H   0  0  0  0  0  0  0  0  0  0  0  0
   35.9750   31.0270   37.9360 H   0  0  0  0  0  0  0  0  0  0  0  0
   37.6230   30.6230   36.6080 N   0  0  0  0  0  0  0  0  0  0  0  0
   38.6190   30.2800   36.7590 H   0  0  0  0  0  0  0  0  0  0  0  0
   36.8570   29.4070   35.6530 S   0  0  0  0  0  0  0  0  0  0  0  0
   37.6140   28.1190   35.6800 O   0  0  0  0  0  1  0  0  0  0  0  0
   35.4460   29.2470   36.1450 O   0  0  0  0  0  1  0  0  0  0  0  0
   36.7690   29.8980   34.0420 O   0  0  0  0  0  0  0  0  0  0  0  0
   35.9950   29.4150   33.6460 H   0  0  0  0  0  0  0  0  0  0  0  0
  1  3  1  0  0  0  0
  1 19  1  0  0  0  0
  2  1  2  0  0  0  0
  3  4  1  0  0  0  0
  4 10  1  0  0  0  0
  4  9  1  0  0  0  0
  5  4  1  0  0  0  0
  5 11  1  0  0  0  0
  6 13  1  0  0  0  0
  6  5  1  0  0  0  0
  7  6  1  0  0  0  0
  7 16  1  0  0  0  0
  8 17  1  6  0  0  0
  8  7  1  0  0  0  0
  8  3  1  0  0  0  0
 12  5  1  0  0  0  0
 14  6  1  0  0  0  0
 15  7  1  0  0  0  0
 18 23  2  0  0  0  0
 18 19  1  0  0  0  0
 19 20  2  0  0  0  0
 20 21  1  0  0  0  0
 20 26  1  0  0  0  0
 22 25  1  0  0  0  0
 22 21  2  0  0  0  0
 23 22  1  0  0  0  0
 24 18  1  0  0  0  0
 26 31  1  0  0  0  0
 27 26  2  0  0  0  0
 27 28  1  0  0  0  0
 28 29  2  0  0  0  0
 29 30  1  0  0  0  0
 29 34  1  0  0  0  0
 30 35  1  0  0  0  0
 31 30  2  0  0  0  0
 32 27  1  0  0  0  0
 33 28  1  0  0  0  0
 36 38  1  0  0  0  0
 36 37  1  0  0  0  0
 36  8  1  0  0  0  0
 39 40  1  0  0  0  0
 39 36  1  0  0  0  0
 41 42  1  0  0  0  0
 41 43  1  0  0  0  0
 41 39  1  0  0  0  0
 44 41  1  0  0  0  0
 45 44  1  0  0  0  0
M  END
>  <minimizedAffinity>
-5.50995779

$$$$

 OpenBabel03252507233D

 45 47  0  0  1  0  0  0  0  0999 V2000
   38.4240   30.0120   41.4080 C   0  0  0  0  0  0  0  0  0  0  0  0
   37.6620   29.6780   42.3750 O   0  0  0  0  0  0  0  0  0  0  0  0
   39.3810   29.1320   40.8360 N   0  0  0  0  0  0  0  0  0  0  0  0
   39.7040   28.8720   39.4250 C   0  0  0  0  0  0  0  0  0  0  0  0
   41.2070   29.0040   39.2180 C   0  0  0  0  0  0  0  0  0  0  0  0
   41.9460   27.9780   40.0180 C   0  0  0  0  0  0  0  0  0  0  0  0
   40.9900   27.3250   41.0070 C   0  0  0  0  0  0  0  0  0  0  0  0
   40.1860   28.3460   41.7360 C   0  0  2  0  0  0  0  0  0  0  0  0
   39.2240   29.7080   38.8390 H   0  0  0  0  0  0  0  0  0  0  0  0
   39.2890   27.9260   39.0810 H   0  0  0  0  0  0  0  0  0  0  0  0
   41.3800   28.8570   38.1450 H   0  0  0  0  0  0  0  0  0  0  0  0
   41.4680   30.0430   39.5110 H   0  0  0  0  0  0  0  0  0  0  0  0
   42.2870   27.1450   39.3590 H   0  0  0  0  0  0  0  0  0  0  0  0
   42.8430   28.3760   40.5030 H   0  0  0  0  0  0  0  0  0  0  0  0
   41.5380   26.6990   41.7420 H   0  0  0  0  0  0  0  0  0  0  0  0
   40.2770   26.7090   40.3850 H   0  0  0  0  0  0  0  0  0  0  0  0
   40.8750   29.0870   42.2390 H   0  0  0  0  0  0  0  0  0  0  0  0
   39.1950   32.3280   41.3600 C   0  0  0  0  0  0  0  0  0  0  0  0
   38.2970   31.3450   40.8800 C   0  0  0  0  0  0  0  0  0  0  0  0
   37.3370   31.6760   39.9340 C   0  0  0  0  0  0  0  0  0  0  0  0
   37.3040   32.9570   39.5050 N   0  0  0  0  0  0  0  0  0  0  0  0
   38.1580   33.9170   39.9540 C   0  0  0  0  0  0  0  0  0  0  0  0
   39.0900   33.5810   40.8760 N   0  0  0  0  0  0  0  0  0  0  0  0
   39.9430   32.0680   42.0980 H   0  0  0  0  0  0  0  0  0  0  0  0
   38.0020   34.8790   39.5160 H   0  0  0  0  0  0  0  0  0  0  0  0
   36.4420   30.6490   39.4710 C   0  0  0  0  0  0  0  0  0  0  0  0
   36.5320   30.1580   38.2140 C   0  0  0  0  0  0  0  0  0  0  0  0
   35.6560   29.1720   37.8070 C   0  0  0  0  0  0  0  0  0  0  0  0
   34.6700   28.6520   38.6390 C   0  0  0  0  0  0  0  0  0  0  0  0
   34.6160   29.1860   39.9130 C   0  0  0  0  0  0  0  0  0  0  0  0
   35.4820   30.1410   40.2770 N   0  0  0  0  0  0  0  0  0  0  0  0
   37.2470   30.4720   37.4750 H   0  0  0  0  0  0  0  0  0  0  0  0
   35.7020   28.7560   36.8030 H   0  0  0  0  0  0  0  0  0  0  0  0
   34.0110   27.8840   38.2710 H   0  0  0  0  0  0  0  0  0  0  0  0
   33.8560   28.8070   40.6030 H   0  0  0  0  0  0  0  0  0  0  0  0
   39.4110   27.7020   42.8420 C   0  0  0  0  0  0  0  0  0  0  0  0
   40.1630   27.5540   43.6800 H   0  0  0  0  0  0  0  0  0  0  0  0
   38.6180   28.3020   43.2900 H   0  0  0  0  0  0  0  0  0  0  0  0
   39.0470   26.3710   42.4380 N   0  0  0  0  0  0  0  0  0  0  0  0
   39.2330   25.7390   43.2730 H   0  0  0  0  0  0  0  0  0  0  0  0
   37.3580   26.2250   42.1170 S   0  0  0  0  0  0  0  0  0  0  0  0
   37.0060   26.7190   40.7520 O   0  0  0  0  0  1  0  0  0  0  0  0
   36.9670   24.7880   42.3190 O   0  0  0  0  0  1  0  0  0  0  0  0
   36.4710   27.1410   43.2210 O   0  0  0  0  0  0  0  0  0  0  0  0
   35.5750   26.7140   43.2800 H   0  0  0  0  0  0  0  0  0  0  0  0
  1  2  2  0  0  0  0
  3  1  1  0  0  0  0
  3  8  1  0  0  0  0
  4  3  1  0  0  0  0
  5  4  1  0  0  0  0
  5 12  1  0  0  0  0
  5  6  1  0  0  0  0
  6 14  1  0  0  0  0
  6  7  1  0  0  0  0
  7  8  1  0  0  0  0
  7 15  1  0  0  0  0
  8 17  1  1  0  0  0
  8 36  1  0  0  0  0
  9  4  1  0  0  0  0
 10  4  1  0  0  0  0
 11  5  1  0  0  0  0
 13  6  1  0  0  0  0
 16  7  1  0  0  0  0
 18 24  1  0  0  0  0
 19 18  1  0  0  0  0
 19  1  1  0  0  0  0
 20 19  2  0  0  0  0
 21 20  1  0  0  0  0
 21 22  2  0  0  0  0
 22 23  1  0  0  0  0
 23 18  2  0  0  0  0
 25 22  1  0  0  0  0
 26 20  1  0  0  0  0
 26 31  1  0  0  0  0
 27 26  2  0  0  0  0
 28 27  1  0  0  0  0
 28 29  2  0  0  0  0
 29 30  1  0  0  0  0
 30 31  2  0  0  0  0
 30 35  1  0  0  0  0
 32 27  1  0  0  0  0
 33 28  1  0  0  0  0
 34 29  1  0  0  0  0
 36 38  1  0  0  0  0
 36 37  1  0  0  0  0
 39 36  1  0  0  0  0
 39 40  1  0  0  0  0
 41 43  1  0  0  0  0
 41 39  1  0  0  0  0
 41 44  1  0  0  0  0
 42 41  1  0  0  0  0
 44 45  1  0  0  0  0
M  END
>  <minimizedAffinity>
-5.43355274

$$$$

 OpenBabel03252507233D

 45 47  0  0  1  0  0  0  0  0999 V2000
   39.2270   29.6690   40.2560 C   0  0  0  0  0  0  0  0  0  0  0  0
   39.8490   29.2200   39.2370 O   0  0  0  0  0  0  0  0  0  0  0  0
   38.8370   28.8500   41.3490 N   0  0  0  0  0  0  0  0  0  0  0  0
   38.9340   29.0930   42.7960 C   0  0  0  0  0  0  0  0  0  0  0  0
   37.5790   28.8420   43.4430 C   0  0  0  0  0  0  0  0  0  0  0  0
   37.1680   27.4120   43.2800 C   0  0  0  0  0  0  0  0  0  0  0  0
   38.0870   26.7360   42.2710 C   0  0  0  0  0  0  0  0  0  0  0  0
   38.2520   27.5690   41.0470 C   0  0  2  0  0  0  0  0  0  0  0  0
   39.1460   30.1950   42.9110 H   0  0  0  0  0  0  0  0  0  0  0  0
   39.7520   28.5350   43.2480 H   0  0  0  0  0  0  0  0  0  0  0  0
   37.6970   29.0930   44.5040 H   0  0  0  0  0  0  0  0  0  0  0  0
   36.8700   29.5470   42.9570 H   0  0  0  0  0  0  0  0  0  0  0  0
   37.3280   26.8530   44.2310 H   0  0  0  0  0  0  0  0  0  0  0  0
   36.1100   27.2960   43.0260 H   0  0  0  0  0  0  0  0  0  0  0  0
   37.7000   25.7360   41.9840 H   0  0  0  0  0  0  0  0  0  0  0  0
   39.0950   26.6640   42.7750 H   0  0  0  0  0  0  0  0  0  0  0  0
   37.2390   27.8040   40.6060 H   0  0  0  0  0  0  0  0  0  0  0  0
   39.9370   31.9650   40.6860 C   0  0  0  0  0  0  0  0  0  0  0  0
   38.9120   31.0730   40.2880 C   0  0  0  0  0  0  0  0  0  0  0  0
   37.6570   31.5560   39.9460 C   0  0  0  0  0  0  0  0  0  0  0  0
   37.4680   32.8930   40.0110 N   0  0  0  0  0  0  0  0  0  0  0  0
   38.4390   33.7670   40.3910 C   0  0  0  0  0  0  0  0  0  0  0  0
   39.6590   33.2820   40.7220 N   0  0  0  0  0  0  0  0  0  0  0  0
   40.9150   31.5860   40.9520 H   0  0  0  0  0  0  0  0  0  0  0  0
   38.1310   34.7890   40.3900 H   0  0  0  0  0  0  0  0  0  0  0  0
   36.6410   30.6180   39.5480 C   0  0  0  0  0  0  0  0  0  0  0  0
   35.7510   30.1310   40.4430 C   0  0  0  0  0  0  0  0  0  0  0  0
   34.7920   29.2330   40.0230 C   0  0  0  0  0  0  0  0  0  0  0  0
   34.6930   28.7980   38.7050 C   0  0  0  0  0  0  0  0  0  0  0  0
   35.6250   29.3230   37.8280 C   0  0  0  0  0  0  0  0  0  0  0  0
   36.5430   30.1930   38.2680 N   0  0  0  0  0  0  0  0  0  0  0  0
   35.7200   30.3850   41.4860 H   0  0  0  0  0  0  0  0  0  0  0  0
   34.0620   28.8220   40.7170 H   0  0  0  0  0  0  0  0  0  0  0  0
   33.9250   28.0950   38.4300 H   0  0  0  0  0  0  0  0  0  0  0  0
   35.5850   29.0090   36.7810 H   0  0  0  0  0  0  0  0  0  0  0  0
   38.9830   26.7990   39.9920 C   0  0  0  0  0  0  0  0  0  0  0  0
   38.1840   26.1780   39.4750 H   0  0  0  0  0  0  0  0  0  0  0  0
   39.4330   27.3850   39.1900 H   0  0  0  0  0  0  0  0  0  0  0  0
   39.8370   25.8360   40.6310 N   0  0  0  0  0  0  0  0  0  0  0  0
   39.7740   24.9440   40.0540 H   0  0  0  0  0  0  0  0  0  0  0  0
   41.4980   26.3010   40.5780 S   0  0  0  0  0  0  0  0  0  0  0  0
   41.8530   27.2290   41.6930 O   0  0  0  0  0  1  0  0  0  0  0  0
   42.3340   25.0510   40.5920 O   0  0  0  0  0  1  0  0  0  0  0  0
   41.8350   27.1060   39.1350 O   0  0  0  0  0  0  0  0  0  0  0  0
   42.8040   26.9730   38.9610 H   0  0  0  0  0  0  0  0  0  0  0  0
  1 19  1  0  0  0  0
  1  3  1  0  0  0  0
  2  1  2  0  0  0  0
  3  4  1  0  0  0  0
  4  9  1  0  0  0  0
  4 10  1  0  0  0  0
  4  5  1  0  0  0  0
  5 11  1  0  0  0  0
  6  5  1  0  0  0  0
  6 13  1  0  0  0  0
  7 16  1  0  0  0  0
  7  6  1  0  0  0  0
  8 17  1  6  0  0  0
  8  3  1  0  0  0  0
  8  7  1  0  0  0  0
 12  5  1  0  0  0  0
 14  6  1  0  0  0  0
 15  7  1  0  0  0  0
 18 23  1  0  0  0  0
 18 24  1  0  0  0  0
 19 18  2  0  0  0  0
 20 21  2  0  0  0  0
 20 19  1  0  0  0  0
 21 22  1  0  0  0  0
 22 23  2  0  0  0  0
 25 22  1  0  0  0  0
 26 20  1  0  0  0  0
 26 27  1  0  0  0  0
 27 32  1  0  0  0  0
 28 27  2  0  0  0  0
 28 33  1  0  0  0  0
 29 28  1  0  0  0  0
 30 31  1  0  0  0  0
 30 29  2  0  0  0  0
 31 26  2  0  0  0  0
 34 29  1  0  0  0  0
 35 30  1  0  0  0  0
 36 39  1  0  0  0  0
 36  8  1  0  0  0  0
 37 36  1  0  0  0  0
 38 36  1  0  0  0  0
 40 39  1  0  0  0  0
 41 43  1  0  0  0  0
 41 39  1  0  0  0  0
 41 42  1  0  0  0  0
 44 41  1  0  0  0  0
 45 44  1  0  0  0  0
M  END
>  <minimizedAffinity>
-5.41148901

$$$$

 OpenBabel03252507233D

 45 47  0  0  1  0  0  0  0  0999 V2000
   38.7780   29.8820   38.1580 C   0  0  0  0  0  0  0  0  0  0  0  0
   39.8340   29.3710   37.6600 O   0  0  0  0  0  0  0  0  0  0  0  0
   38.7300   31.1990   38.6870 N   0  0  0  0  0  0  0  0  0  0  0  0
   37.7170   32.2530   38.5160 C   0  0  0  0  0  0  0  0  0  0  0  0
   37.3040   32.7820   39.8830 C   0  0  0  0  0  0  0  0  0  0  0  0
   38.4650   33.4190   40.5810 C   0  0  0  0  0  0  0  0  0  0  0  0
   39.7490   33.0760   39.8370 C   0  0  0  0  0  0  0  0  0  0  0  0
   39.8210   31.6210   39.5280 C   0  0  2  0  0  0  0  0  0  0  0  0
   36.8100   31.7420   38.0810 H   0  0  0  0  0  0  0  0  0  0  0  0
   38.0460   33.0240   37.8220 H   0  0  0  0  0  0  0  0  0  0  0  0
   36.5120   33.5190   39.6970 H   0  0  0  0  0  0  0  0  0  0  0  0
   36.8960   31.9120   40.4410 H   0  0  0  0  0  0  0  0  0  0  0  0
   38.3890   34.5310   40.5220 H   0  0  0  0  0  0  0  0  0  0  0  0
   38.5160   33.1690   41.6440 H   0  0  0  0  0  0  0  0  0  0  0  0
   40.6430   33.3700   40.4260 H   0  0  0  0  0  0  0  0  0  0  0  0
   39.6950   33.6330   38.8570 H   0  0  0  0  0  0  0  0  0  0  0  0
   39.7090   31.0210   40.4790 H   0  0  0  0  0  0  0  0  0  0  0  0
   36.8630   28.9470   36.9680 C   0  0  0  0  0  0  0  0  0  0  0  0
   37.5840   29.0780   38.1780 C   0  0  0  0  0  0  0  0  0  0  0  0
   37.1400   28.4450   39.3310 C   0  0  0  0  0  0  0  0  0  0  0  0
   36.0070   27.7140   39.2390 N   0  0  0  0  0  0  0  0  0  0  0  0
   35.2980   27.5760   38.0860 C   0  0  0  0  0  0  0  0  0  0  0  0
   35.7430   28.1980   36.9690 N   0  0  0  0  0  0  0  0  0  0  0  0
   37.2110   29.4410   36.0700 H   0  0  0  0  0  0  0  0  0  0  0  0
   34.4270   26.9660   38.1790 H   0  0  0  0  0  0  0  0  0  0  0  0
   37.9000   28.6040   40.5420 C   0  0  0  0  0  0  0  0  0  0  0  0
   37.4870   29.4420   41.5210 C   0  0  0  0  0  0  0  0  0  0  0  0
   38.2440   29.5660   42.6680 C   0  0  0  0  0  0  0  0  0  0  0  0
   39.4270   28.8630   42.8700 C   0  0  0  0  0  0  0  0  0  0  0  0
   39.8070   28.0200   41.8420 C   0  0  0  0  0  0  0  0  0  0  0  0
   39.0500   27.9220   40.7410 N   0  0  0  0  0  0  0  0  0  0  0  0
   36.5960   30.0410   41.4890 H   0  0  0  0  0  0  0  0  0  0  0  0
   37.9410   30.2310   43.4740 H   0  0  0  0  0  0  0  0  0  0  0  0
   39.9800   28.9970   43.7850 H   0  0  0  0  0  0  0  0  0  0  0  0
   40.7310   27.4460   41.9570 H   0  0  0  0  0  0  0  0  0  0  0  0
   41.1740   31.2730   38.9900 C   0  0  0  0  0  0  0  0  0  0  0  0
   41.6550   30.6340   39.7960 H   0  0  0  0  0  0  0  0  0  0  0  0
   41.1920   30.6460   38.0970 H   0  0  0  0  0  0  0  0  0  0  0  0
   41.9740   32.4670   38.9430 N   0  0  0  0  0  0  0  0  0  0  0  0
   42.7320   32.3530   39.6810 H   0  0  0  0  0  0  0  0  0  0  0  0
   42.8120   32.6320   37.4440 S   0  0  0  0  0  0  0  0  0  0  0  0
   44.2930   32.6770   37.6360 O   0  0  0  0  0  1  0  0  0  0  0  0
   42.3900   31.5020   36.5470 O   0  0  0  0  0  1  0  0  0  0  0  0
   42.3660   34.0670   36.6780 O   0  0  0  0  0  0  0  0  0  0  0  0
   42.5130   33.9210   35.7060 H   0  0  0  0  0  0  0  0  0  0  0  0
  1 19  1  0  0  0  0
  1  3  1  0  0  0  0
  2  1  2  0  0  0  0
  3  8  1  0  0  0  0
  4  3  1  0  0  0  0
  4  5  1  0  0  0  0
  5 12  1  0  0  0  0
  5  6  1  0  0  0  0
  6 14  1  0  0  0  0
  7 15  1  0  0  0  0
  7  6  1  0  0  0  0
  8  7  1  0  0  0  0
  8 17  1  1  0  0  0
  9  4  1  0  0  0  0
 10  4  1  0  0  0  0
 11  5  1  0  0  0  0
 13  6  1  0  0  0  0
 16  7  1  0  0  0  0
 18 23  2  0  0  0  0
 18 19  1  0  0  0  0
 19 20  2  0  0  0  0
 20 26  1  0  0  0  0
 21 20  1  0  0  0  0
 22 25  1  0  0  0  0
 22 21  2  0  0  0  0
 23 22  1  0  0  0  0
 24 18  1  0  0  0  0
 26 31  2  0  0  0  0
 26 27  1  0  0  0  0
 27 28  2  0  0  0  0
 28 29  1  0  0  0  0
 28 33  1  0  0  0  0
 29 34  1  0  0  0  0
 30 35  1  0  0  0  0
 30 29  2  0  0  0  0
 31 30  1  0  0  0  0
 32 27  1  0  0  0  0
 36  8  1  0  0  0  0
 36 37  1  0  0  0  0
 38 36  1  0  0  0  0
 39 36  1  0  0  0  0
 39 40  1  0  0  0  0
 41 42  1  0  0  0  0
 41 39  1  0  0  0  0
 43 41  1  0  0  0  0
 44 41  1  0  0  0  0
 45 44  1  0  0  0  0
M  END
>  <minimizedAffinity>
-5.38606501

$$$$

 OpenBabel03252507233D

 45 47  0  0  1  0  0  0  0  0999 V2000
   39.3910   29.9650   39.7540 C   0  0  0  0  0  0  0  0  0  0  0  0
   39.9460   29.6070   38.6640 O   0  0  0  0  0  0  0  0  0  0  0  0
   39.1530   29.0720   40.8330 N   0  0  0  0  0  0  0  0  0  0  0  0
   39.3640   29.2540   42.2770 C   0  0  0  0  0  0  0  0  0  0  0  0
   38.0900   28.8830   43.0240 C   0  0  0  0  0  0  0  0  0  0  0  0
   37.7570   27.4370   42.8230 C   0  0  0  0  0  0  0  0  0  0  0  0
   38.6230   26.8720   41.7050 C   0  0  0  0  0  0  0  0  0  0  0  0
   38.6250   27.7700   40.5170 C   0  0  2  0  0  0  0  0  0  0  0  0
   39.5160   30.3610   42.4310 H   0  0  0  0  0  0  0  0  0  0  0  0
   40.2530   28.7320   42.6270 H   0  0  0  0  0  0  0  0  0  0  0  0
   38.2870   29.0910   44.0840 H   0  0  0  0  0  0  0  0  0  0  0  0
   37.2980   29.5610   42.6400 H   0  0  0  0  0  0  0  0  0  0  0  0
   38.0370   26.8460   43.7270 H   0  0  0  0  0  0  0  0  0  0  0  0
   36.6900   27.2620   42.6570 H   0  0  0  0  0  0  0  0  0  0  0  0
   38.2760   25.8620   41.4010 H   0  0  0  0  0  0  0  0  0  0  0  0
   39.6750   26.8440   42.1150 H   0  0  0  0  0  0  0  0  0  0  0  0
   37.5630   27.9570   40.1770 H   0  0  0  0  0  0  0  0  0  0  0  0
   40.0010   32.2890   40.1850 C   0  0  0  0  0  0  0  0  0  0  0  0
   38.9930   31.3420   39.8870 C   0  0  0  0  0  0  0  0  0  0  0  0
   37.6740   31.7480   39.7320 C   0  0  0  0  0  0  0  0  0  0  0  0
   37.4090   33.0650   39.8790 N   0  0  0  0  0  0  0  0  0  0  0  0
   38.3630   33.9920   40.1650 C   0  0  0  0  0  0  0  0  0  0  0  0
   39.6450   33.5830   40.3130 N   0  0  0  0  0  0  0  0  0  0  0  0
   41.0280   31.9710   40.3050 H   0  0  0  0  0  0  0  0  0  0  0  0
   37.9920   34.9890   40.2480 H   0  0  0  0  0  0  0  0  0  0  0  0
   36.6780   30.7540   39.4310 C   0  0  0  0  0  0  0  0  0  0  0  0
   35.8690   30.2610   40.3980 C   0  0  0  0  0  0  0  0  0  0  0  0
   34.9250   29.3090   40.0690 C   0  0  0  0  0  0  0  0  0  0  0  0
   34.7620   28.8260   38.7750 C   0  0  0  0  0  0  0  0  0  0  0  0
   35.6120   29.3600   37.8230 C   0  0  0  0  0  0  0  0  0  0  0  0
   36.5170   30.2820   38.1740 N   0  0  0  0  0  0  0  0  0  0  0  0
   35.8930   30.5490   41.4320 H   0  0  0  0  0  0  0  0  0  0  0  0
   34.2600   28.8920   40.8220 H   0  0  0  0  0  0  0  0  0  0  0  0
   34.0100   28.0820   38.5730 H   0  0  0  0  0  0  0  0  0  0  0  0
   35.5200   29.0080   36.7910 H   0  0  0  0  0  0  0  0  0  0  0  0
   39.3050   27.1010   39.3640 C   0  0  0  0  0  0  0  0  0  0  0  0
   39.9440   27.9110   38.8890 H   0  0  0  0  0  0  0  0  0  0  0  0
   40.0100   26.3070   39.6130 H   0  0  0  0  0  0  0  0  0  0  0  0
   38.3180   26.7830   38.3670 N   0  0  0  0  0  0  0  0  0  0  0  0
   37.5300   27.4870   38.4850 H   0  0  0  0  0  0  0  0  0  0  0  0
   38.9110   27.0210   36.7640 S   0  0  0  0  0  0  0  0  0  0  0  0
   40.3810   26.7670   36.6710 O   0  0  0  0  0  1  0  0  0  0  0  0
   38.1230   26.1360   35.8390 O   0  0  0  0  0  1  0  0  0  0  0  0
   38.6490   28.6120   36.2720 O   0  0  0  0  0  0  0  0  0  0  0  0
   38.5990   28.5920   35.2790 H   0  0  0  0  0  0  0  0  0  0  0  0
  1 19  1  0  0  0  0
  1  3  1  0  0  0  0
  2  1  2  0  0  0  0
  3  4  1  0  0  0  0
  4  9  1  0  0  0  0
  4 10  1  0  0  0  0
  4  5  1  0  0  0  0
  5 11  1  0  0  0  0
  6  5  1  0  0  0  0
  6 13  1  0  0  0  0
  7 16  1  0  0  0  0
  7  6  1  0  0  0  0
  8 17  1  6  0  0  0
  8  3  1  0  0  0  0
  8  7  1  0  0  0  0
 12  5  1  0  0  0  0
 14  6  1  0  0  0  0
 15  7  1  0  0  0  0
 18 24  1  0  0  0  0
 18 23  1  0  0  0  0
 19 18  2  0  0  0  0
 20 21  2  0  0  0  0
 20 19  1  0  0  0  0
 21 22  1  0  0  0  0
 22 25  1  0  0  0  0
 22 23  2  0  0  0  0
 26 20  1  0  0  0  0
 26 27  1  0  0  0  0
 27 32  1  0  0  0  0
 28 27  2  0  0  0  0
 28 33  1  0  0  0  0
 29 28  1  0  0  0  0
 30 31  1  0  0  0  0
 30 29  2  0  0  0  0
 31 26  2  0  0  0  0
 34 29  1  0  0  0  0
 35 30  1  0  0  0  0
 36 38  1  0  0  0  0
 36  8  1  0  0  0  0
 37 36  1  0  0  0  0
 39 40  1  0  0  0  0
 39 36  1  0  0  0  0
 41 39  1  0  0  0  0
 42 41  1  0  0  0  0
 43 41  1  0  0  0  0
 44 41  1  0  0  0  0
 45 44  1  0  0  0  0
M  END
>  <minimizedAffinity>
-5.38562965

$$$$
