
 OpenBabel03252500063D

 47 49  0  0  0  0  0  0  0  0999 V2000
   44.6510   35.2720   45.2430 C   0  0  0  0  0  0  0  0  0  0  0  0
   45.2290   35.4190   43.9850 C   0  0  0  0  0  0  0  0  0  0  0  0
   46.2360   34.5400   43.5920 C   0  0  0  0  0  0  0  0  0  0  0  0
   46.5530   33.6050   44.5160 N   0  0  0  0  0  0  0  0  0  0  0  0
   46.0070   33.4710   45.6990 C   0  0  0  0  0  0  0  0  0  0  0  0
   45.0570   34.3120   46.0470 N   0  0  0  0  0  0  0  0  0  0  0  0
   43.8720   35.9670   45.5240 H   0  0  0  0  0  0  0  0  0  0  0  0
   46.9220   34.5570   42.3480 C   0  0  0  0  0  0  0  0  0  0  0  0
   47.9680   35.4670   42.2270 C   0  0  0  0  0  0  0  0  0  0  0  0
   48.7420   35.6240   41.0960 C   0  0  0  0  0  0  0  0  0  0  0  0
   48.5090   34.8630   40.0070 C   0  0  0  0  0  0  0  0  0  0  0  0
   47.4860   33.9380   40.0560 C   0  0  0  0  0  0  0  0  0  0  0  0
   47.1960   33.1410   38.9940 C   0  0  0  0  0  0  0  0  0  0  0  0
   46.1830   32.2090   39.0090 C   0  0  0  0  0  0  0  0  0  0  0  0
   45.4320   32.0970   40.1850 C   0  0  0  0  0  0  0  0  0  0  0  0
   45.7680   32.9330   41.2390 C   0  0  0  0  0  0  0  0  0  0  0  0
   46.7450   33.8300   41.2200 C   0  0  0  0  0  0  0  0  0  0  0  0
   48.2460   36.1400   43.0550 H   0  0  0  0  0  0  0  0  0  0  0  0
   49.5450   36.3460   41.0470 H   0  0  0  0  0  0  0  0  0  0  0  0
   49.0950   34.9580   39.1050 H   0  0  0  0  0  0  0  0  0  0  0  0
   47.7920   33.2420   38.0870 H   0  0  0  0  0  0  0  0  0  0  0  0
   45.9900   31.5950   38.1380 H   0  0  0  0  0  0  0  0  0  0  0  0
   44.6650   31.3660   40.1450 H   0  0  0  0  0  0  0  0  0  0  0  0
   44.8800   32.6840   42.3420 N   0  0  0  0  0  0  0  0  0  0  0  0
   44.8650   31.9670   43.0980 H   0  0  0  0  0  0  0  0  0  0  0  0
   44.0100   33.1470   42.6780 H   0  0  0  0  0  0  0  0  0  0  0  0
   46.5560   32.3380   46.5160 C   0  0  0  0  0  0  0  0  0  0  0  0
   45.5530   31.5800   47.0650 F   0  0  0  0  0  0  0  0  0  0  0  0
   47.3930   32.8030   47.4950 F   0  0  0  0  0  0  0  0  0  0  0  0
   47.3870   31.5460   45.6950 F   0  0  0  0  0  0  0  0  0  0  0  0
   44.8590   36.4390   43.0110 C   0  0  0  0  0  0  0  0  0  0  0  0
   44.2730   37.2320   43.5290 H   0  0  0  0  0  0  0  0  0  0  0  0
   45.7850   36.9360   42.6400 H   0  0  0  0  0  0  0  0  0  0  0  0
   44.0780   35.9900   41.8480 C   0  0  0  0  0  0  0  0  0  0  0  0
   44.4950   35.4760   41.0330 H   0  0  0  0  0  0  0  0  0  0  0  0
   43.6660   36.9540   41.3970 H   0  0  0  0  0  0  0  0  0  0  0  0
   41.7880   35.0120   41.4740 C   0  0  0  0  0  0  0  0  0  0  0  0
   41.9870   35.1200   40.2090 O   0  0  0  0  0  0  0  0  0  0  0  0
   42.8180   35.3970   42.3820 N   0  0  0  0  0  0  0  0  0  0  0  0
   42.5820   35.2170   43.3940 H   0  0  0  0  0  0  0  0  0  0  0  0
   40.5490   34.5130   41.9020 N   0  0  0  0  0  0  0  0  0  0  0  0
   40.1730   34.8410   42.8300 H   0  0  0  0  0  0  0  0  0  0  0  0
   39.6390   33.3820   40.9450 S   0  0  0  0  0  0  0  0  0  0  0  0
   38.5420   34.0630   40.1860 O   0  0  0  0  0  1  0  0  0  0  0  0
   39.1470   32.2240   41.7530 O   0  0  0  0  0  1  0  0  0  0  0  0
   40.7130   32.7530   39.7960 O   0  0  0  0  0  0  0  0  0  0  0  0
   41.3260   32.0900   40.2340 H   0  0  0  0  0  0  0  0  0  0  0  0
  1  7  1  0  0  0  0
  1  6  1  0  0  0  0
  2  1  2  0  0  0  0
  3  2  1  0  0  0  0
  3  4  2  0  0  0  0
  4  5  1  0  0  0  0
  5  6  2  0  0  0  0
  5 27  1  0  0  0  0
  8  3  1  0  0  0  0
  9  8  1  0  0  0  0
  9 18  1  0  0  0  0
 10  9  2  0  0  0  0
 11 12  2  0  0  0  0
 11 10  1  0  0  0  0
 12 17  1  0  0  0  0
 13 14  2  0  0  0  0
 13 12  1  0  0  0  0
 14 15  1  0  0  0  0
 15 16  2  0  0  0  0
 16 24  1  0  0  0  0
 17 16  1  0  0  0  0
 17  8  2  0  0  0  0
 19 10  1  0  0  0  0
 20 11  1  0  0  0  0
 21 13  1  0  0  0  0
 22 14  1  0  0  0  0
 23 15  1  0  0  0  0
 24 26  1  0  0  0  0
 24 25  1  0  0  0  0
 27 28  1  0  0  0  0
 27 29  1  0  0  0  0
 30 27  1  0  0  0  0
 31 32  1  0  0  0  0
 31  2  1  0  0  0  0
 33 31  1  0  0  0  0
 34 39  1  0  0  0  0
 34 31  1  0  0  0  0
 35 34  1  0  0  0  0
 36 34  1  0  0  0  0
 37 41  1  0  0  0  0
 37 39  1  0  0  0  0
 38 37  2  0  0  0  0
 39 40  1  0  0  0  0
 41 42  1  0  0  0  0
 43 45  1  0  0  0  0
 43 41  1  0  0  0  0
 44 43  1  0  0  0  0
 46 47  1  0  0  0  0
 46 43  1  0  0  0  0
M  END
>  <minimizedAffinity>
-7.70902872

>  <minimizedRMSD>
0.63297838

$$$$
