
 OpenBabel03242519003D

 33 35  0  0  1  0  0  0  0  0999 V2000
   37.8860   26.6350   42.5330 C   0  0  0  0  0  0  0  0  0  0  0  0
   39.2120   26.5660   42.9080 C   0  0  0  0  0  0  0  0  0  0  0  0
   40.0040   27.6740   43.1290 C   0  0  0  0  0  0  0  0  0  0  0  0
   39.4830   28.9160   42.9800 C   0  0  0  0  0  0  0  0  0  0  0  0
   38.1480   29.0440   42.6030 C   0  0  0  0  0  0  0  0  0  0  0  0
   37.4060   27.8990   42.3970 C   0  0  0  0  0  0  0  0  0  0  0  0
   39.6100   25.5420   43.0210 H   0  0  0  0  0  0  0  0  0  0  0  0
   41.0050   27.4440   43.4120 H   0  0  0  0  0  0  0  0  0  0  0  0
   40.2210   29.6960   43.1860 H   0  0  0  0  0  0  0  0  0  0  0  0
   37.9060   30.1020   42.5320 H   0  0  0  0  0  0  0  0  0  0  0  0
   36.7950   24.8050   41.0010 C   0  0  1  0  0  0  0  0  0  0  0  0
   37.6380   24.2030   42.1140 C   0  0  0  0  0  0  0  0  0  0  0  0
   37.0390   25.4560   42.3130 C   0  0  1  0  0  0  0  0  0  0  0  0
   35.8070   24.3760   40.7890 H   0  0  0  0  0  0  0  0  0  0  0  0
   38.5560   23.7930   41.7520 H   0  0  0  0  0  0  0  0  0  0  0  0
   37.0700   23.3170   42.6230 H   0  0  0  0  0  0  0  0  0  0  0  0
   36.0180   25.6550   42.7570 H   0  0  0  0  0  0  0  0  0  0  0  0
   37.5030   25.2330   39.7790 C   0  0  0  0  0  0  0  0  0  0  0  0
   36.7960   26.1490   38.9420 C   0  0  0  0  0  0  0  0  0  0  0  0
   37.4900   26.5490   37.7840 C   0  0  0  0  0  0  0  0  0  0  0  0
   38.7390   26.0500   37.5550 N   0  0  0  0  0  0  0  0  0  0  0  0
   39.3520   25.1760   38.4030 C   0  0  0  0  0  0  0  0  0  0  0  0
   38.7350   24.7520   39.5370 N   0  0  0  0  0  0  0  0  0  0  0  0
   35.8190   26.4720   39.2250 H   0  0  0  0  0  0  0  0  0  0  0  0
   37.0020   27.2310   37.1320 H   0  0  0  0  0  0  0  0  0  0  0  0
   40.3340   24.9020   38.0430 H   0  0  0  0  0  0  0  0  0  0  0  0
   36.1090   28.3870   42.0820 N   0  0  0  0  0  0  0  0  0  0  0  0
   35.1210   28.3480   42.3970 H   0  0  0  0  0  0  0  0  0  0  0  0
   35.8850   29.4960   40.7800 S   0  0  0  0  0  0  0  0  0  0  0  0
   34.6060   29.1020   40.0560 O   0  0  0  0  0  1  0  0  0  0  0  0
   36.9860   29.4520   39.7940 O   0  0  0  0  0  1  0  0  0  0  0  0
   35.6150   31.0560   41.3570 O   0  0  0  0  0  0  0  0  0  0  0  0
   35.2350   31.6090   40.6350 H   0  0  0  0  0  0  0  0  0  0  0  0
  1  2  1  0  0  0  0
  2  7  1  0  0  0  0
  2  3  2  0  0  0  0
  3  8  1  0  0  0  0
  4  3  1  0  0  0  0
  4  9  1  0  0  0  0
  5  4  2  0  0  0  0
  6  1  2  0  0  0  0
  6  5  1  0  0  0  0
 10  5  1  0  0  0  0
 11 14  1  6  0  0  0
 11 12  1  0  0  0  0
 11 13  1  0  0  0  0
 12 13  1  0  0  0  0
 12 16  1  0  0  0  0
 13  1  1  0  0  0  0
 13 17  1  1  0  0  0
 15 12  1  0  0  0  0
 18 11  1  0  0  0  0
 19 24  1  0  0  0  0
 19 18  2  0  0  0  0
 20 19  1  0  0  0  0
 21 20  2  0  0  0  0
 21 22  1  0  0  0  0
 22 23  2  0  0  0  0
 23 18  1  0  0  0  0
 25 20  1  0  0  0  0
 26 22  1  0  0  0  0
 27 28  1  0  0  0  0
 27  6  1  0  0  0  0
 29 32  1  0  0  0  0
 29 27  1  0  0  0  0
 30 29  1  0  0  0  0
 31 29  1  0  0  0  0
 33 32  1  0  0  0  0
M  END
>  <minimizedAffinity>
-5.49906635

$$$$

 OpenBabel03242519003D

 33 35  0  0  1  0  0  0  0  0999 V2000
   36.8230   29.2010   41.3960 C   0  0  0  0  0  0  0  0  0  0  0  0
   36.5620   27.9950   40.7800 C   0  0  0  0  0  0  0  0  0  0  0  0
   35.9320   27.8790   39.5570 C   0  0  0  0  0  0  0  0  0  0  0  0
   35.5350   28.9930   38.8960 C   0  0  0  0  0  0  0  0  0  0  0  0
   35.7750   30.2380   39.4730 C   0  0  0  0  0  0  0  0  0  0  0  0
   36.4090   30.2900   40.6970 C   0  0  0  0  0  0  0  0  0  0  0  0
   36.8960   27.1040   41.3420 H   0  0  0  0  0  0  0  0  0  0  0  0
   35.8080   26.8760   39.2240 H   0  0  0  0  0  0  0  0  0  0  0  0
   35.0530   28.7540   37.9450 H   0  0  0  0  0  0  0  0  0  0  0  0
   35.3920   31.0100   38.8090 H   0  0  0  0  0  0  0  0  0  0  0  0
   38.5870   28.4310   43.1800 C   0  0  1  0  0  0  0  0  0  0  0  0
   38.7980   29.8710   42.7400 C   0  0  0  0  0  0  0  0  0  0  0  0
   37.5070   29.3230   42.6900 C   0  0  1  0  0  0  0  0  0  0  0  0
   38.6400   28.1870   44.2490 H   0  0  0  0  0  0  0  0  0  0  0  0
   39.6550   29.9820   42.1110 H   0  0  0  0  0  0  0  0  0  0  0  0
   38.9900   30.5580   43.6660 H   0  0  0  0  0  0  0  0  0  0  0  0
   36.7290   29.3510   43.5110 H   0  0  0  0  0  0  0  0  0  0  0  0
   39.1690   27.3760   42.3270 C   0  0  0  0  0  0  0  0  0  0  0  0
   38.7090   26.0480   42.5830 C   0  0  0  0  0  0  0  0  0  0  0  0
   39.2710   25.0570   41.7560 C   0  0  0  0  0  0  0  0  0  0  0  0
   40.1810   25.4240   40.8080 N   0  0  0  0  0  0  0  0  0  0  0  0
   40.5730   26.7160   40.6220 C   0  0  0  0  0  0  0  0  0  0  0  0
   40.0670   27.7190   41.3870 N   0  0  0  0  0  0  0  0  0  0  0  0
   37.9910   25.8820   43.3560 H   0  0  0  0  0  0  0  0  0  0  0  0
   38.9560   24.0550   41.9120 H   0  0  0  0  0  0  0  0  0  0  0  0
   41.2980   26.7960   39.8240 H   0  0  0  0  0  0  0  0  0  0  0  0
   36.5350   31.6810   40.9580 N   0  0  0  0  0  0  0  0  0  0  0  0
   36.1210   32.4500   41.5170 H   0  0  0  0  0  0  0  0  0  0  0  0
   37.7990   32.5960   40.2220 S   0  0  0  0  0  0  0  0  0  0  0  0
   37.1560   33.5390   39.2140 O   0  0  0  0  0  1  0  0  0  0  0  0
   38.7660   31.7520   39.4870 O   0  0  0  0  0  1  0  0  0  0  0  0
   38.5580   33.5910   41.3500 O   0  0  0  0  0  0  0  0  0  0  0  0
   39.0800   34.2800   40.8770 H   0  0  0  0  0  0  0  0  0  0  0  0
  1 13  1  0  0  0  0
  2  7  1  0  0  0  0
  2  1  1  0  0  0  0
  3  2  2  0  0  0  0
  4  5  2  0  0  0  0
  4  3  1  0  0  0  0
  5  6  1  0  0  0  0
  6 27  1  0  0  0  0
  6  1  2  0  0  0  0
  8  3  1  0  0  0  0
  9  4  1  0  0  0  0
 10  5  1  0  0  0  0
 11 14  1  1  0  0  0
 12 11  1  0  0  0  0
 12 16  1  0  0  0  0
 13 12  1  0  0  0  0
 13 11  1  0  0  0  0
 13 17  1  1  0  0  0
 15 12  1  0  0  0  0
 18 19  1  0  0  0  0
 18 11  1  0  0  0  0
 19 24  1  0  0  0  0
 20 25  1  0  0  0  0
 20 19  2  0  0  0  0
 21 20  1  0  0  0  0
 22 21  2  0  0  0  0
 22 23  1  0  0  0  0
 23 18  2  0  0  0  0
 26 22  1  0  0  0  0
 27 28  1  0  0  0  0
 29 27  1  0  0  0  0
 29 32  1  0  0  0  0
 30 29  1  0  0  0  0
 31 29  1  0  0  0  0
 33 32  1  0  0  0  0
M  END
>  <minimizedAffinity>
-5.30374002

$$$$

 OpenBabel03242519003D

 33 35  0  0  1  0  0  0  0  0999 V2000
   38.1800   26.2130   42.7150 C   0  0  0  0  0  0  0  0  0  0  0  0
   37.0730   26.0580   41.9070 C   0  0  0  0  0  0  0  0  0  0  0  0
   36.8410   24.9410   41.1310 C   0  0  0  0  0  0  0  0  0  0  0  0
   37.7300   23.9190   41.1380 C   0  0  0  0  0  0  0  0  0  0  0  0
   38.8660   24.0220   41.9380 C   0  0  0  0  0  0  0  0  0  0  0  0
   39.0430   25.1630   42.6920 C   0  0  0  0  0  0  0  0  0  0  0  0
   36.3660   26.9070   41.9200 H   0  0  0  0  0  0  0  0  0  0  0  0
   35.9400   24.9830   40.5660 H   0  0  0  0  0  0  0  0  0  0  0  0
   37.4210   23.1030   40.4800 H   0  0  0  0  0  0  0  0  0  0  0  0
   39.4600   23.1190   41.8180 H   0  0  0  0  0  0  0  0  0  0  0  0
   38.7550   28.7510   43.0520 C   0  0  1  0  0  0  0  0  0  0  0  0
   37.4190   28.3720   43.6700 C   0  0  0  0  0  0  0  0  0  0  0  0
   38.4190   27.3950   43.5540 C   0  0  1  0  0  0  0  0  0  0  0  0
   39.4490   29.3800   43.6260 H   0  0  0  0  0  0  0  0  0  0  0  0
   36.5910   28.7530   43.1130 H   0  0  0  0  0  0  0  0  0  0  0  0
   37.3200   28.8280   44.7420 H   0  0  0  0  0  0  0  0  0  0  0  0
   39.2100   27.1410   44.3220 H   0  0  0  0  0  0  0  0  0  0  0  0
   38.7640   29.0650   41.6100 C   0  0  0  0  0  0  0  0  0  0  0  0
   39.8700   28.5480   40.8690 C   0  0  0  0  0  0  0  0  0  0  0  0
   39.8570   28.8540   39.4950 C   0  0  0  0  0  0  0  0  0  0  0  0
   38.8280   29.5950   38.9920 N   0  0  0  0  0  0  0  0  0  0  0  0
   37.8030   30.0560   39.7630 C   0  0  0  0  0  0  0  0  0  0  0  0
   37.7580   29.7940   41.0960 N   0  0  0  0  0  0  0  0  0  0  0  0
   40.6190   27.9790   41.3740 H   0  0  0  0  0  0  0  0  0  0  0  0
   40.6620   28.4890   38.9060 H   0  0  0  0  0  0  0  0  0  0  0  0
   37.0910   30.6190   39.1760 H   0  0  0  0  0  0  0  0  0  0  0  0
   40.2470   24.9170   43.4060 N   0  0  0  0  0  0  0  0  0  0  0  0
   40.6190   24.4210   44.2380 H   0  0  0  0  0  0  0  0  0  0  0  0
   41.7500   25.5250   42.8180 S   0  0  0  0  0  0  0  0  0  0  0  0
   41.8860   26.9610   43.3040 O   0  0  0  0  0  1  0  0  0  0  0  0
   41.8230   25.5460   41.3420 O   0  0  0  0  0  1  0  0  0  0  0  0
   43.0460   24.6930   43.5030 O   0  0  0  0  0  0  0  0  0  0  0  0
   43.8740   25.2120   43.3680 H   0  0  0  0  0  0  0  0  0  0  0  0
  1 13  1  0  0  0  0
  2  7  1  0  0  0  0
  2  1  2  0  0  0  0
  3  4  2  0  0  0  0
  3  2  1  0  0  0  0
  4  5  1  0  0  0  0
  5  6  2  0  0  0  0
  6  1  1  0  0  0  0
  6 27  1  0  0  0  0
  8  3  1  0  0  0  0
  9  4  1  0  0  0  0
 10  5  1  0  0  0  0
 11 13  1  0  0  0  0
 11 14  1  1  0  0  0
 11 12  1  0  0  0  0
 12 16  1  0  0  0  0
 13 12  1  0  0  0  0
 13 17  1  1  0  0  0
 15 12  1  0  0  0  0
 18 11  1  0  0  0  0
 19 24  1  0  0  0  0
 19 18  2  0  0  0  0
 20 19  1  0  0  0  0
 21 20  2  0  0  0  0
 21 22  1  0  0  0  0
 22 23  2  0  0  0  0
 23 18  1  0  0  0  0
 25 20  1  0  0  0  0
 26 22  1  0  0  0  0
 27 28  1  0  0  0  0
 29 30  1  0  0  0  0
 29 27  1  0  0  0  0
 29 32  1  0  0  0  0
 31 29  1  0  0  0  0
 33 32  1  0  0  0  0
M  END
>  <minimizedAffinity>
-5.27901506

$$$$

 OpenBabel03242519003D

 33 35  0  0  1  0  0  0  0  0999 V2000
   37.0780   31.4010   39.4150 C   0  0  0  0  0  0  0  0  0  0  0  0
   37.3030   31.4620   38.0560 C   0  0  0  0  0  0  0  0  0  0  0  0
   36.9710   30.4500   37.1780 C   0  0  0  0  0  0  0  0  0  0  0  0
   36.3890   29.3180   37.6440 C   0  0  0  0  0  0  0  0  0  0  0  0
   36.1390   29.2040   39.0100 C   0  0  0  0  0  0  0  0  0  0  0  0
   36.4920   30.2500   39.8370 C   0  0  0  0  0  0  0  0  0  0  0  0
   37.7780   32.3960   37.7050 H   0  0  0  0  0  0  0  0  0  0  0  0
   37.2120   30.6580   36.1630 H   0  0  0  0  0  0  0  0  0  0  0  0
   36.1820   28.6050   36.8420 H   0  0  0  0  0  0  0  0  0  0  0  0
   35.6740   28.2390   39.1990 H   0  0  0  0  0  0  0  0  0  0  0  0
   38.7860   32.9900   40.6180 C   0  0  1  0  0  0  0  0  0  0  0  0
   37.7270   33.7570   39.8420 C   0  0  0  0  0  0  0  0  0  0  0  0
   37.4170   32.4850   40.3470 C   0  0  1  0  0  0  0  0  0  0  0  0
   39.0480   33.3180   41.6320 H   0  0  0  0  0  0  0  0  0  0  0  0
   38.1170   34.2020   38.9530 H   0  0  0  0  0  0  0  0  0  0  0  0
   37.3100   34.6400   40.4850 H   0  0  0  0  0  0  0  0  0  0  0  0
   36.9660   32.2500   41.3570 H   0  0  0  0  0  0  0  0  0  0  0  0
   39.9560   32.5060   39.8570 C   0  0  0  0  0  0  0  0  0  0  0  0
   40.5220   31.2740   40.3090 C   0  0  0  0  0  0  0  0  0  0  0  0
   41.6330   30.8280   39.5680 C   0  0  0  0  0  0  0  0  0  0  0  0
   42.0700   31.5760   38.5150 N   0  0  0  0  0  0  0  0  0  0  0  0
   41.4770   32.7450   38.1420 C   0  0  0  0  0  0  0  0  0  0  0  0
   40.4020   33.2300   38.8160 N   0  0  0  0  0  0  0  0  0  0  0  0
   40.0910   30.7760   41.1490 H   0  0  0  0  0  0  0  0  0  0  0  0
   42.0850   29.9150   39.8690 H   0  0  0  0  0  0  0  0  0  0  0  0
   41.9730   33.1830   37.2870 H   0  0  0  0  0  0  0  0  0  0  0  0
   36.0580   29.8290   41.1230 N   0  0  0  0  0  0  0  0  0  0  0  0
   35.2630   29.9050   41.7840 H   0  0  0  0  0  0  0  0  0  0  0  0
   37.0300   28.7600   42.0650 S   0  0  0  0  0  0  0  0  0  0  0  0
   38.4640   28.8850   41.5690 O   0  0  0  0  0  1  0  0  0  0  0  0
   36.6320   27.3430   41.9210 O   0  0  0  0  0  1  0  0  0  0  0  0
   37.0680   29.2440   43.6790 O   0  0  0  0  0  0  0  0  0  0  0  0
   37.8180   28.7960   44.1360 H   0  0  0  0  0  0  0  0  0  0  0  0
  1  6  1  0  0  0  0
  1 13  1  0  0  0  0
  2  1  2  0  0  0  0
  3  4  2  0  0  0  0
  3  2  1  0  0  0  0
  4  5  1  0  0  0  0
  5 10  1  0  0  0  0
  5  6  2  0  0  0  0
  6 27  1  0  0  0  0
  7  2  1  0  0  0  0
  8  3  1  0  0  0  0
  9  4  1  0  0  0  0
 11 14  1  1  0  0  0
 12 13  1  0  0  0  0
 12 16  1  0  0  0  0
 12 11  1  0  0  0  0
 13 11  1  0  0  0  0
 13 17  1  1  0  0  0
 15 12  1  0  0  0  0
 18 19  1  0  0  0  0
 18 11  1  0  0  0  0
 19 24  1  0  0  0  0
 20 25  1  0  0  0  0
 20 19  2  0  0  0  0
 21 20  1  0  0  0  0
 22 21  2  0  0  0  0
 22 23  1  0  0  0  0
 23 18  2  0  0  0  0
 26 22  1  0  0  0  0
 27 28  1  0  0  0  0
 27 29  1  0  0  0  0
 29 32  1  0  0  0  0
 30 29  1  0  0  0  0
 31 29  1  0  0  0  0
 32 33  1  0  0  0  0
M  END
>  <minimizedAffinity>
-5.23621464

$$$$

 OpenBabel03242519003D

 33 35  0  0  1  0  0  0  0  0999 V2000
   38.7170   28.9970   42.2030 C   0  0  0  0  0  0  0  0  0  0  0  0
   39.8360   28.6830   42.9460 C   0  0  0  0  0  0  0  0  0  0  0  0
   41.1260   28.9530   42.5380 C   0  0  0  0  0  0  0  0  0  0  0  0
   41.3440   29.5600   41.3460 C   0  0  0  0  0  0  0  0  0  0  0  0
   40.2480   29.8990   40.5560 C   0  0  0  0  0  0  0  0  0  0  0  0
   38.9820   29.6040   41.0180 C   0  0  0  0  0  0  0  0  0  0  0  0
   39.6290   28.1890   43.9120 H   0  0  0  0  0  0  0  0  0  0  0  0
   41.8750   28.6460   43.2300 H   0  0  0  0  0  0  0  0  0  0  0  0
   42.4090   29.7110   41.1530 H   0  0  0  0  0  0  0  0  0  0  0  0
   40.6090   30.3720   39.6460 H   0  0  0  0  0  0  0  0  0  0  0  0
   36.5500   27.5180   42.2950 C   0  0  1  0  0  0  0  0  0  0  0  0
   37.1200   27.7990   43.6760 C   0  0  0  0  0  0  0  0  0  0  0  0
   37.3430   28.7230   42.6450 C   0  0  1  0  0  0  0  0  0  0  0  0
   35.4690   27.6130   42.1350 H   0  0  0  0  0  0  0  0  0  0  0  0
   37.5850   26.9390   44.1070 H   0  0  0  0  0  0  0  0  0  0  0  0
   36.2680   28.1050   44.4160 H   0  0  0  0  0  0  0  0  0  0  0  0
   36.6940   29.6120   42.3810 H   0  0  0  0  0  0  0  0  0  0  0  0
   37.1400   26.3940   41.5410 C   0  0  0  0  0  0  0  0  0  0  0  0
   37.1090   26.5180   40.1190 C   0  0  0  0  0  0  0  0  0  0  0  0
   37.6800   25.4380   39.4180 C   0  0  0  0  0  0  0  0  0  0  0  0
   38.2010   24.3930   40.1240 N   0  0  0  0  0  0  0  0  0  0  0  0
   38.1940   24.3440   41.4860 C   0  0  0  0  0  0  0  0  0  0  0  0
   37.6580   25.3550   42.2190 N   0  0  0  0  0  0  0  0  0  0  0  0
   36.6730   27.3870   39.6770 H   0  0  0  0  0  0  0  0  0  0  0  0
   37.6790   25.4890   38.3580 H   0  0  0  0  0  0  0  0  0  0  0  0
   38.6530   23.4360   41.8490 H   0  0  0  0  0  0  0  0  0  0  0  0
   38.1230   30.1210   40.0100 N   0  0  0  0  0  0  0  0  0  0  0  0
   37.7130   29.8900   39.0860 H   0  0  0  0  0  0  0  0  0  0  0  0
   37.3360   31.6400   40.2300 S   0  0  0  0  0  0  0  0  0  0  0  0
   37.0010   32.1880   38.8490 O   0  0  0  0  0  1  0  0  0  0  0  0
   38.1910   32.6380   40.9080 O   0  0  0  0  0  1  0  0  0  0  0  0
   35.8540   31.4450   41.0080 O   0  0  0  0  0  0  0  0  0  0  0  0
   35.3140   32.2600   40.8890 H   0  0  0  0  0  0  0  0  0  0  0  0
  1 13  1  0  0  0  0
  1  2  1  0  0  0  0
  2  7  1  0  0  0  0
  3  2  2  0  0  0  0
  3  8  1  0  0  0  0
  4  3  1  0  0  0  0
  5  6  1  0  0  0  0
  5  4  2  0  0  0  0
  6  1  2  0  0  0  0
  9  4  1  0  0  0  0
 10  5  1  0  0  0  0
 11 14  1  6  0  0  0
 11 13  1  0  0  0  0
 11 12  1  0  0  0  0
 12 15  1  0  0  0  0
 12 16  1  0  0  0  0
 13 17  1  1  0  0  0
 13 12  1  0  0  0  0
 18 23  1  0  0  0  0
 18 11  1  0  0  0  0
 19 18  2  0  0  0  0
 20 19  1  0  0  0  0
 20 21  2  0  0  0  0
 21 22  1  0  0  0  0
 22 26  1  0  0  0  0
 22 23  2  0  0  0  0
 24 19  1  0  0  0  0
 25 20  1  0  0  0  0
 27 29  1  0  0  0  0
 27  6  1  0  0  0  0
 28 27  1  0  0  0  0
 29 31  1  0  0  0  0
 29 32  1  0  0  0  0
 30 29  1  0  0  0  0
 33 32  1  0  0  0  0
M  END
>  <minimizedAffinity>
-5.08448219

$$$$

 OpenBabel03242519003D

 33 35  0  0  1  0  0  0  0  0999 V2000
   37.5140   31.2340   39.1650 C   0  0  0  0  0  0  0  0  0  0  0  0
   37.2710   31.3860   37.8160 C   0  0  0  0  0  0  0  0  0  0  0  0
   37.3830   30.3620   36.8980 C   0  0  0  0  0  0  0  0  0  0  0  0
   37.7510   29.1240   37.3090 C   0  0  0  0  0  0  0  0  0  0  0  0
   38.0090   28.9160   38.6620 C   0  0  0  0  0  0  0  0  0  0  0  0
   37.8790   29.9780   39.5330 C   0  0  0  0  0  0  0  0  0  0  0  0
   36.9730   32.4040   37.5090 H   0  0  0  0  0  0  0  0  0  0  0  0
   37.1590   30.6480   35.8970 H   0  0  0  0  0  0  0  0  0  0  0  0
   37.8000   28.4150   36.4790 H   0  0  0  0  0  0  0  0  0  0  0  0
   38.2880   27.8740   38.8070 H   0  0  0  0  0  0  0  0  0  0  0  0
   38.5000   33.1040   40.7210 C   0  0  1  0  0  0  0  0  0  0  0  0
   37.4970   33.6520   39.7190 C   0  0  0  0  0  0  0  0  0  0  0  0
   37.3790   32.3210   40.1450 C   0  0  1  0  0  0  0  0  0  0  0  0
   38.4450   33.4330   41.7670 H   0  0  0  0  0  0  0  0  0  0  0  0
   37.9650   34.2150   38.9420 H   0  0  0  0  0  0  0  0  0  0  0  0
   36.7550   34.3880   40.2450 H   0  0  0  0  0  0  0  0  0  0  0  0
   36.7770   31.9420   41.0250 H   0  0  0  0  0  0  0  0  0  0  0  0
   39.8890   32.9290   40.2530 C   0  0  0  0  0  0  0  0  0  0  0  0
   40.4280   34.0120   39.4930 C   0  0  0  0  0  0  0  0  0  0  0  0
   41.7550   33.8280   39.0600 C   0  0  0  0  0  0  0  0  0  0  0  0
   42.4040   32.6730   39.3860 N   0  0  0  0  0  0  0  0  0  0  0  0
   41.8220   31.6800   40.1170 C   0  0  0  0  0  0  0  0  0  0  0  0
   40.5450   31.7970   40.5640 N   0  0  0  0  0  0  0  0  0  0  0  0
   39.8220   34.8700   39.3010 H   0  0  0  0  0  0  0  0  0  0  0  0
   42.1960   34.6100   38.4920 H   0  0  0  0  0  0  0  0  0  0  0  0
   42.5010   30.8520   40.2660 H   0  0  0  0  0  0  0  0  0  0  0  0
   38.1590   29.4120   40.8060 N   0  0  0  0  0  0  0  0  0  0  0  0
   38.9290   29.2690   41.4870 H   0  0  0  0  0  0  0  0  0  0  0  0
   36.8960   28.7060   41.7450 S   0  0  0  0  0  0  0  0  0  0  0  0
   37.1670   27.2110   41.8300 O   0  0  0  0  0  1  0  0  0  0  0  0
   35.5610   28.8820   41.1350 O   0  0  0  0  0  1  0  0  0  0  0  0
   36.9430   29.2640   43.3340 O   0  0  0  0  0  0  0  0  0  0  0  0
   36.4020   28.6690   43.9040 H   0  0  0  0  0  0  0  0  0  0  0  0
  1  6  1  0  0  0  0
  1 13  1  0  0  0  0
  2  1  2  0  0  0  0
  3  4  2  0  0  0  0
  3  2  1  0  0  0  0
  4  5  1  0  0  0  0
  5 10  1  0  0  0  0
  5  6  2  0  0  0  0
  6 27  1  0  0  0  0
  7  2  1  0  0  0  0
  8  3  1  0  0  0  0
  9  4  1  0  0  0  0
 11 14  1  1  0  0  0
 12 13  1  0  0  0  0
 12 16  1  0  0  0  0
 12 11  1  0  0  0  0
 13 11  1  0  0  0  0
 13 17  1  1  0  0  0
 15 12  1  0  0  0  0
 18 23  1  0  0  0  0
 18 11  1  0  0  0  0
 19 18  2  0  0  0  0
 20 21  2  0  0  0  0
 20 19  1  0  0  0  0
 21 22  1  0  0  0  0
 22 26  1  0  0  0  0
 22 23  2  0  0  0  0
 24 19  1  0  0  0  0
 25 20  1  0  0  0  0
 27 28  1  0  0  0  0
 27 29  1  0  0  0  0
 29 30  1  0  0  0  0
 29 32  1  0  0  0  0
 31 29  1  0  0  0  0
 32 33  1  0  0  0  0
M  END
>  <minimizedAffinity>
-5.00646114

$$$$

 OpenBabel03242519003D

 33 35  0  0  1  0  0  0  0  0999 V2000
   36.7430   27.3010   41.2420 C   0  0  0  0  0  0  0  0  0  0  0  0
   35.9060   28.3550   40.9400 C   0  0  0  0  0  0  0  0  0  0  0  0
   35.5680   28.7200   39.6520 C   0  0  0  0  0  0  0  0  0  0  0  0
   36.0680   28.0250   38.6020 C   0  0  0  0  0  0  0  0  0  0  0  0
   36.9180   26.9500   38.8510 C   0  0  0  0  0  0  0  0  0  0  0  0
   37.2190   26.6330   40.1590 C   0  0  0  0  0  0  0  0  0  0  0  0
   35.5140   28.9030   41.8150 H   0  0  0  0  0  0  0  0  0  0  0  0
   34.9110   29.5560   39.5950 H   0  0  0  0  0  0  0  0  0  0  0  0
   35.7180   28.4220   37.6460 H   0  0  0  0  0  0  0  0  0  0  0  0
   37.2190   26.5160   37.9000 H   0  0  0  0  0  0  0  0  0  0  0  0
   38.2460   27.4150   43.3910 C   0  0  1  0  0  0  0  0  0  0  0  0
   36.7960   27.7690   43.6780 C   0  0  0  0  0  0  0  0  0  0  0  0
   37.0900   26.9040   42.6140 C   0  0  1  0  0  0  0  0  0  0  0  0
   38.7770   26.7400   44.0740 H   0  0  0  0  0  0  0  0  0  0  0  0
   36.6590   28.8120   43.8600 H   0  0  0  0  0  0  0  0  0  0  0  0
   36.4270   27.2250   44.6460 H   0  0  0  0  0  0  0  0  0  0  0  0
   37.1590   25.7750   42.6570 H   0  0  0  0  0  0  0  0  0  0  0  0
   39.1110   28.4960   42.8750 C   0  0  0  0  0  0  0  0  0  0  0  0
   40.2940   28.0720   42.1970 C   0  0  0  0  0  0  0  0  0  0  0  0
   41.1030   29.1160   41.7090 C   0  0  0  0  0  0  0  0  0  0  0  0
   40.7110   30.4070   41.9130 N   0  0  0  0  0  0  0  0  0  0  0  0
   39.5640   30.7360   42.5720 C   0  0  0  0  0  0  0  0  0  0  0  0
   38.7410   29.7740   43.0670 N   0  0  0  0  0  0  0  0  0  0  0  0
   40.4970   27.0280   42.0980 H   0  0  0  0  0  0  0  0  0  0  0  0
   41.9930   28.8460   41.1970 H   0  0  0  0  0  0  0  0  0  0  0  0
   39.4350   31.8080   42.6270 H   0  0  0  0  0  0  0  0  0  0  0  0
   38.0480   25.4850   40.0500 N   0  0  0  0  0  0  0  0  0  0  0  0
   39.0220   25.1940   39.8380 H   0  0  0  0  0  0  0  0  0  0  0  0
   37.4200   23.9180   40.4060 S   0  0  0  0  0  0  0  0  0  0  0  0
   37.8460   22.9860   39.2800 O   0  0  0  0  0  1  0  0  0  0  0  0
   35.9430   23.8920   40.4700 O   0  0  0  0  0  1  0  0  0  0  0  0
   38.1240   23.2890   41.8020 O   0  0  0  0  0  0  0  0  0  0  0  0
   37.9600   22.3180   41.8410 H   0  0  0  0  0  0  0  0  0  0  0  0
  1 13  1  0  0  0  0
  2  1  1  0  0  0  0
  2  7  1  0  0  0  0
  3  2  2  0  0  0  0
  4  5  2  0  0  0  0
  4  3  1  0  0  0  0
  5  6  1  0  0  0  0
  6  1  2  0  0  0  0
  8  3  1  0  0  0  0
  9  4  1  0  0  0  0
 10  5  1  0  0  0  0
 11 12  1  0  0  0  0
 11 14  1  1  0  0  0
 12 15  1  0  0  0  0
 12 16  1  0  0  0  0
 13 17  1  1  0  0  0
 13 11  1  0  0  0  0
 13 12  1  0  0  0  0
 18 23  1  0  0  0  0
 18 11  1  0  0  0  0
 19 18  2  0  0  0  0
 20 21  2  0  0  0  0
 20 19  1  0  0  0  0
 21 22  1  0  0  0  0
 22 26  1  0  0  0  0
 22 23  2  0  0  0  0
 24 19  1  0  0  0  0
 25 20  1  0  0  0  0
 27  6  1  0  0  0  0
 27 29  1  0  0  0  0
 28 27  1  0  0  0  0
 29 31  1  0  0  0  0
 29 32  1  0  0  0  0
 30 29  1  0  0  0  0
 32 33  1  0  0  0  0
M  END
>  <minimizedAffinity>
-4.99303246

$$$$

 OpenBabel03242519003D

 33 35  0  0  1  0  0  0  0  0999 V2000
   37.1090   26.8540   41.4020 C   0  0  0  0  0  0  0  0  0  0  0  0
   36.9990   25.4970   41.1800 C   0  0  0  0  0  0  0  0  0  0  0  0
   37.0280   24.9210   39.9270 C   0  0  0  0  0  0  0  0  0  0  0  0
   37.1720   25.7020   38.8290 C   0  0  0  0  0  0  0  0  0  0  0  0
   37.2880   27.0800   38.9960 C   0  0  0  0  0  0  0  0  0  0  0  0
   37.2520   27.5980   40.2740 C   0  0  0  0  0  0  0  0  0  0  0  0
   36.8830   24.8850   42.0930 H   0  0  0  0  0  0  0  0  0  0  0  0
   36.9320   23.8610   39.9330 H   0  0  0  0  0  0  0  0  0  0  0  0
   37.1790   25.1140   37.9080 H   0  0  0  0  0  0  0  0  0  0  0  0
   37.3940   27.5420   38.0160 H   0  0  0  0  0  0  0  0  0  0  0  0
   38.2500   27.5390   43.6640 C   0  0  1  0  0  0  0  0  0  0  0  0
   37.6660   28.7320   42.9240 C   0  0  0  0  0  0  0  0  0  0  0  0
   37.0930   27.4660   42.7380 C   0  0  1  0  0  0  0  0  0  0  0  0
   38.0820   27.4470   44.7440 H   0  0  0  0  0  0  0  0  0  0  0  0
   38.4210   29.3510   42.4900 H   0  0  0  0  0  0  0  0  0  0  0  0
   37.0740   29.4200   43.6610 H   0  0  0  0  0  0  0  0  0  0  0  0
   36.2440   27.0120   43.3340 H   0  0  0  0  0  0  0  0  0  0  0  0
   39.5980   27.0920   43.2580 C   0  0  0  0  0  0  0  0  0  0  0  0
   39.9130   25.7310   43.5530 C   0  0  0  0  0  0  0  0  0  0  0  0
   41.2010   25.3220   43.1540 C   0  0  0  0  0  0  0  0  0  0  0  0
   42.0210   26.2240   42.5410 N   0  0  0  0  0  0  0  0  0  0  0  0
   41.6490   27.5110   42.2930 C   0  0  0  0  0  0  0  0  0  0  0  0
   40.4200   27.9660   42.6520 N   0  0  0  0  0  0  0  0  0  0  0  0
   39.1870   25.1170   44.0390 H   0  0  0  0  0  0  0  0  0  0  0  0
   41.4770   24.3170   43.3530 H   0  0  0  0  0  0  0  0  0  0  0  0
   42.4380   28.0610   41.8000 H   0  0  0  0  0  0  0  0  0  0  0  0
   37.4430   28.9930   40.0820 N   0  0  0  0  0  0  0  0  0  0  0  0
   38.1840   29.7150   40.0080 H   0  0  0  0  0  0  0  0  0  0  0  0
   36.0930   30.0280   39.8000 S   0  0  0  0  0  0  0  0  0  0  0  0
   35.8800   30.1050   38.2950 O   0  0  0  0  0  1  0  0  0  0  0  0
   36.3140   31.4060   40.2890 O   0  0  0  0  0  1  0  0  0  0  0  0
   34.6780   29.3560   40.4210 O   0  0  0  0  0  0  0  0  0  0  0  0
   33.8990   29.8160   40.0290 H   0  0  0  0  0  0  0  0  0  0  0  0
  1 13  1  0  0  0  0
  2  1  1  0  0  0  0
  2  7  1  0  0  0  0
  3  8  1  0  0  0  0
  3  2  2  0  0  0  0
  4  5  2  0  0  0  0
  4  3  1  0  0  0  0
  5  6  1  0  0  0  0
  6  1  2  0  0  0  0
  9  4  1  0  0  0  0
 10  5  1  0  0  0  0
 11 14  1  1  0  0  0
 12 16  1  0  0  0  0
 12 11  1  0  0  0  0
 13 12  1  0  0  0  0
 13 17  1  1  0  0  0
 13 11  1  0  0  0  0
 15 12  1  0  0  0  0
 18 19  1  0  0  0  0
 18 11  1  0  0  0  0
 19 24  1  0  0  0  0
 20 25  1  0  0  0  0
 20 19  2  0  0  0  0
 21 20  1  0  0  0  0
 22 21  2  0  0  0  0
 22 23  1  0  0  0  0
 23 18  2  0  0  0  0
 26 22  1  0  0  0  0
 27  6  1  0  0  0  0
 28 27  1  0  0  0  0
 29 27  1  0  0  0  0
 29 31  1  0  0  0  0
 29 32  1  0  0  0  0
 30 29  1  0  0  0  0
 33 32  1  0  0  0  0
M  END
>  <minimizedAffinity>
-4.94625902

$$$$

 OpenBabel03242519003D

 33 35  0  0  1  0  0  0  0  0999 V2000
   36.8340   28.1980   38.6840 C   0  0  0  0  0  0  0  0  0  0  0  0
   37.4550   26.9780   38.8550 C   0  0  0  0  0  0  0  0  0  0  0  0
   38.5680   26.5790   38.1440 C   0  0  0  0  0  0  0  0  0  0  0  0
   39.1090   27.4060   37.2180 C   0  0  0  0  0  0  0  0  0  0  0  0
   38.5220   28.6510   37.0050 C   0  0  0  0  0  0  0  0  0  0  0  0
   37.4100   28.9950   37.7460 C   0  0  0  0  0  0  0  0  0  0  0  0
   36.9920   26.3250   39.6160 H   0  0  0  0  0  0  0  0  0  0  0  0
   38.9220   25.6070   38.4000 H   0  0  0  0  0  0  0  0  0  0  0  0
   39.9820   26.9620   36.7340 H   0  0  0  0  0  0  0  0  0  0  0  0
   39.0830   29.1730   36.2330 H   0  0  0  0  0  0  0  0  0  0  0  0
   35.5980   28.7680   40.9280 C   0  0  1  0  0  0  0  0  0  0  0  0
   35.6050   29.9370   39.9560 C   0  0  0  0  0  0  0  0  0  0  0  0
   35.6580   28.6290   39.4520 C   0  0  1  0  0  0  0  0  0  0  0  0
   34.6680   28.5170   41.4550 H   0  0  0  0  0  0  0  0  0  0  0  0
   36.2700   30.7150   40.2610 H   0  0  0  0  0  0  0  0  0  0  0  0
   34.5440   30.4270   39.9000 H   0  0  0  0  0  0  0  0  0  0  0  0
   34.7780   27.9780   39.1630 H   0  0  0  0  0  0  0  0  0  0  0  0
   36.7960   28.5910   41.7730 C   0  0  0  0  0  0  0  0  0  0  0  0
   36.9400   27.3070   42.3820 C   0  0  0  0  0  0  0  0  0  0  0  0
   38.0910   27.1560   43.1800 C   0  0  0  0  0  0  0  0  0  0  0  0
   38.9490   28.2080   43.3080 N   0  0  0  0  0  0  0  0  0  0  0  0
   38.7450   29.4080   42.6940 C   0  0  0  0  0  0  0  0  0  0  0  0
   37.6540   29.6160   41.9110 N   0  0  0  0  0  0  0  0  0  0  0  0
   36.2000   26.5570   42.2080 H   0  0  0  0  0  0  0  0  0  0  0  0
   38.2380   26.2160   43.6520 H   0  0  0  0  0  0  0  0  0  0  0  0
   39.5380   30.1070   42.9210 H   0  0  0  0  0  0  0  0  0  0  0  0
   37.1110   30.3160   37.3190 N   0  0  0  0  0  0  0  0  0  0  0  0
   36.4390   30.8590   36.7440 H   0  0  0  0  0  0  0  0  0  0  0  0
   38.0460   31.6500   37.8860 S   0  0  0  0  0  0  0  0  0  0  0  0
   38.9640   31.1330   38.9850 O   0  0  0  0  0  1  0  0  0  0  0  0
   37.2170   32.7260   38.4700 O   0  0  0  0  0  1  0  0  0  0  0  0
   39.0710   32.2260   36.6780 O   0  0  0  0  0  0  0  0  0  0  0  0
   39.7670   32.7930   37.0850 H   0  0  0  0  0  0  0  0  0  0  0  0
  1  2  1  0  0  0  0
  1 13  1  0  0  0  0
  2  7  1  0  0  0  0
  3  8  1  0  0  0  0
  3  2  2  0  0  0  0
  4  3  1  0  0  0  0
  5  4  2  0  0  0  0
  5  6  1  0  0  0  0
  6  1  2  0  0  0  0
  9  4  1  0  0  0  0
 10  5  1  0  0  0  0
 11 14  1  1  0  0  0
 11 18  1  0  0  0  0
 12 15  1  0  0  0  0
 12 11  1  0  0  0  0
 13 17  1  6  0  0  0
 13 12  1  0  0  0  0
 13 11  1  0  0  0  0
 16 12  1  0  0  0  0
 18 23  2  0  0  0  0
 18 19  1  0  0  0  0
 19 20  2  0  0  0  0
 20 21  1  0  0  0  0
 20 25  1  0  0  0  0
 22 26  1  0  0  0  0
 22 21  2  0  0  0  0
 23 22  1  0  0  0  0
 24 19  1  0  0  0  0
 27  6  1  0  0  0  0
 27 29  1  0  0  0  0
 28 27  1  0  0  0  0
 29 31  1  0  0  0  0
 29 30  1  0  0  0  0
 32 33  1  0  0  0  0
 32 29  1  0  0  0  0
M  END
>  <minimizedAffinity>
-4.94389343

$$$$
