
 OpenBabel03252500053D

 43 45  0  0  0  0  0  0  0  0999 V2000
   37.4300   29.4750   42.2620 C   0  0  0  0  0  0  0  0  0  0  0  0
   36.7170   29.7440   41.1040 C   0  0  0  0  0  0  0  0  0  0  0  0
   36.2680   28.6920   40.3100 C   0  0  0  0  0  0  0  0  0  0  0  0
   36.6010   27.4610   40.7910 N   0  0  0  0  0  0  0  0  0  0  0  0
   37.2770   27.2090   41.8880 C   0  0  0  0  0  0  0  0  0  0  0  0
   37.6840   28.2280   42.6130 N   0  0  0  0  0  0  0  0  0  0  0  0
   37.7580   30.3290   42.8470 H   0  0  0  0  0  0  0  0  0  0  0  0
   35.5250   28.7960   39.1040 C   0  0  0  0  0  0  0  0  0  0  0  0
   34.1540   28.9580   39.2280 C   0  0  0  0  0  0  0  0  0  0  0  0
   33.2790   29.0770   38.1700 C   0  0  0  0  0  0  0  0  0  0  0  0
   33.7460   29.0390   36.8980 C   0  0  0  0  0  0  0  0  0  0  0  0
   35.1000   28.8800   36.6980 C   0  0  0  0  0  0  0  0  0  0  0  0
   35.6400   28.8320   35.4440 C   0  0  0  0  0  0  0  0  0  0  0  0
   36.9790   28.6750   35.2090 C   0  0  0  0  0  0  0  0  0  0  0  0
   37.8030   28.5620   36.3190 C   0  0  0  0  0  0  0  0  0  0  0  0
   37.2290   28.6130   37.5840 C   0  0  0  0  0  0  0  0  0  0  0  0
   35.9180   28.7670   37.7940 C   0  0  0  0  0  0  0  0  0  0  0  0
   33.6660   29.0040   40.2060 H   0  0  0  0  0  0  0  0  0  0  0  0
   32.2130   29.2020   38.3050 H   0  0  0  0  0  0  0  0  0  0  0  0
   33.0960   29.1280   36.0380 H   0  0  0  0  0  0  0  0  0  0  0  0
   34.9590   28.9240   34.6020 H   0  0  0  0  0  0  0  0  0  0  0  0
   37.3610   28.6430   34.1990 H   0  0  0  0  0  0  0  0  0  0  0  0
   38.8550   28.4390   36.0980 H   0  0  0  0  0  0  0  0  0  0  0  0
   38.2270   28.4760   38.5970 N   0  0  0  0  0  0  0  0  0  0  0  0
   38.8870   29.1300   39.0720 H   0  0  0  0  0  0  0  0  0  0  0  0
   38.5970   27.6780   39.1570 H   0  0  0  0  0  0  0  0  0  0  0  0
   37.4950   25.7520   42.1690 C   0  0  0  0  0  0  0  0  0  0  0  0
   36.3970   25.1750   42.7360 F   0  0  0  0  0  0  0  0  0  0  0  0
   38.6100   25.5730   42.9650 F   0  0  0  0  0  0  0  0  0  0  0  0
   37.8470   25.1000   40.9590 F   0  0  0  0  0  0  0  0  0  0  0  0
   36.3790   31.0930   40.6210 C   0  0  0  0  0  0  0  0  0  0  0  0
   35.6580   31.0490   39.7700 H   0  0  0  0  0  0  0  0  0  0  0  0
   35.8130   31.6570   41.4150 H   0  0  0  0  0  0  0  0  0  0  0  0
   37.5490   31.9100   40.2090 C   0  0  0  0  0  0  0  0  0  0  0  0
   38.4570   31.8190   40.7970 H   0  0  0  0  0  0  0  0  0  0  0  0
   37.2280   32.9880   40.3430 H   0  0  0  0  0  0  0  0  0  0  0  0
   37.7340   31.7830   38.7690 N   0  0  0  0  0  0  0  0  0  0  0  0
   37.3570   30.9240   38.3620 H   0  0  0  0  0  0  0  0  0  0  0  0
   39.3870   32.0150   38.3550 S   0  0  0  0  0  0  0  0  0  0  0  0
   40.1500   30.7320   38.6290 O   0  0  0  0  0  1  0  0  0  0  0  0
   40.0150   33.0740   39.1880 O   0  0  0  0  0  1  0  0  0  0  0  0
   39.5160   32.3150   36.7140 O   0  0  0  0  0  0  0  0  0  0  0  0
   40.1330   33.0830   36.5140 H   0  0  0  0  0  0  0  0  0  0  0  0
  1  6  1  0  0  0  0
  1  7  1  0  0  0  0
  2  1  2  0  0  0  0
  3  4  2  0  0  0  0
  3  2  1  0  0  0  0
  4  5  1  0  0  0  0
  5 27  1  0  0  0  0
  5  6  2  0  0  0  0
  8  9  1  0  0  0  0
  8  3  1  0  0  0  0
  9 18  1  0  0  0  0
 10 19  1  0  0  0  0
 10  9  2  0  0  0  0
 11 10  1  0  0  0  0
 12 11  2  0  0  0  0
 12 17  1  0  0  0  0
 13 12  1  0  0  0  0
 14 13  2  0  0  0  0
 14 15  1  0  0  0  0
 15 16  2  0  0  0  0
 16 17  1  0  0  0  0
 16 24  1  0  0  0  0
 17  8  2  0  0  0  0
 20 11  1  0  0  0  0
 21 13  1  0  0  0  0
 22 14  1  0  0  0  0
 23 15  1  0  0  0  0
 24 25  1  0  0  0  0
 24 26  1  0  0  0  0
 27 28  1  0  0  0  0
 27 29  1  0  0  0  0
 30 27  1  0  0  0  0
 31  2  1  0  0  0  0
 31 33  1  0  0  0  0
 32 31  1  0  0  0  0
 34 36  1  0  0  0  0
 34 31  1  0  0  0  0
 34 35  1  0  0  0  0
 37 34  1  0  0  0  0
 38 37  1  0  0  0  0
 39 40  1  0  0  0  0
 39 37  1  0  0  0  0
 39 41  1  0  0  0  0
 42 39  1  0  0  0  0
 43 42  1  0  0  0  0
M  END
>  <minimizedAffinity>
-6.31651354

$$$$

 OpenBabel03252500053D

 43 45  0  0  0  0  0  0  0  0999 V2000
   37.2120   30.6310   41.5650 C   0  0  0  0  0  0  0  0  0  0  0  0
   36.9970   30.5040   40.2010 C   0  0  0  0  0  0  0  0  0  0  0  0
   36.8130   29.2400   39.6460 C   0  0  0  0  0  0  0  0  0  0  0  0
   36.8700   28.2280   40.5560 N   0  0  0  0  0  0  0  0  0  0  0  0
   37.0750   28.3510   41.8470 C   0  0  0  0  0  0  0  0  0  0  0  0
   37.2430   29.5600   42.3360 N   0  0  0  0  0  0  0  0  0  0  0  0
   37.3490   31.6370   41.9490 H   0  0  0  0  0  0  0  0  0  0  0  0
   36.5780   28.9400   38.2780 C   0  0  0  0  0  0  0  0  0  0  0  0
   37.6950   28.7390   37.4820 C   0  0  0  0  0  0  0  0  0  0  0  0
   37.6570   28.4400   36.1370 C   0  0  0  0  0  0  0  0  0  0  0  0
   36.4650   28.3240   35.5030 C   0  0  0  0  0  0  0  0  0  0  0  0
   35.3100   28.5110   36.2320 C   0  0  0  0  0  0  0  0  0  0  0  0
   34.0750   28.4090   35.6580 C   0  0  0  0  0  0  0  0  0  0  0  0
   32.9080   28.5890   36.3510 C   0  0  0  0  0  0  0  0  0  0  0  0
   33.0190   28.8880   37.7010 C   0  0  0  0  0  0  0  0  0  0  0  0
   34.2870   28.9860   38.2610 C   0  0  0  0  0  0  0  0  0  0  0  0
   35.4160   28.8060   37.5680 C   0  0  0  0  0  0  0  0  0  0  0  0
   38.7090   28.8080   37.8870 H   0  0  0  0  0  0  0  0  0  0  0  0
   38.5510   28.2900   35.5470 H   0  0  0  0  0  0  0  0  0  0  0  0
   36.3880   28.0910   34.4500 H   0  0  0  0  0  0  0  0  0  0  0  0
   34.0330   28.1750   34.5980 H   0  0  0  0  0  0  0  0  0  0  0  0
   31.9530   28.4990   35.8550 H   0  0  0  0  0  0  0  0  0  0  0  0
   32.0780   29.0230   38.2190 H   0  0  0  0  0  0  0  0  0  0  0  0
   34.2020   29.3020   39.6510 N   0  0  0  0  0  0  0  0  0  0  0  0
   34.0620   28.7480   40.5240 H   0  0  0  0  0  0  0  0  0  0  0  0
   34.2480   30.1840   40.2060 H   0  0  0  0  0  0  0  0  0  0  0  0
   37.0870   27.0570   42.6060 C   0  0  0  0  0  0  0  0  0  0  0  0
   38.2940   26.8280   43.1990 F   0  0  0  0  0  0  0  0  0  0  0  0
   36.7390   26.0060   41.7810 F   0  0  0  0  0  0  0  0  0  0  0  0
   36.0430   27.0810   43.5670 F   0  0  0  0  0  0  0  0  0  0  0  0
   36.9420   31.6280   39.2510 C   0  0  0  0  0  0  0  0  0  0  0  0
   37.4770   31.3830   38.3040 H   0  0  0  0  0  0  0  0  0  0  0  0
   35.8800   31.7990   38.9160 H   0  0  0  0  0  0  0  0  0  0  0  0
   37.4780   32.9080   39.7820 C   0  0  0  0  0  0  0  0  0  0  0  0
   37.5610   33.0090   40.8590 H   0  0  0  0  0  0  0  0  0  0  0  0
   36.7290   33.7000   39.4760 H   0  0  0  0  0  0  0  0  0  0  0  0
   38.6780   33.2650   39.0370 N   0  0  0  0  0  0  0  0  0  0  0  0
   38.7240   32.8860   38.0880 H   0  0  0  0  0  0  0  0  0  0  0  0
   40.0860   32.8790   39.9470 S   0  0  0  0  0  0  0  0  0  0  0  0
   41.1720   33.8900   39.6320 O   0  0  0  0  0  1  0  0  0  0  0  0
   40.6240   31.5420   39.5780 O   0  0  0  0  0  1  0  0  0  0  0  0
   39.7510   33.0180   41.5810 O   0  0  0  0  0  0  0  0  0  0  0  0
   40.1060   32.2400   42.1100 H   0  0  0  0  0  0  0  0  0  0  0  0
  1  7  1  0  0  0  0
  1  6  1  0  0  0  0
  2  1  2  0  0  0  0
  3  2  1  0  0  0  0
  3  4  2  0  0  0  0
  4  5  1  0  0  0  0
  5  6  2  0  0  0  0
  5 27  1  0  0  0  0
  8  3  1  0  0  0  0
  9 18  1  0  0  0  0
  9  8  2  0  0  0  0
 10  9  1  0  0  0  0
 11 10  2  0  0  0  0
 11 12  1  0  0  0  0
 12 17  1  0  0  0  0
 13 12  2  0  0  0  0
 13 14  1  0  0  0  0
 14 15  2  0  0  0  0
 15 23  1  0  0  0  0
 15 16  1  0  0  0  0
 16 24  1  0  0  0  0
 17 16  2  0  0  0  0
 17  8  1  0  0  0  0
 19 10  1  0  0  0  0
 20 11  1  0  0  0  0
 21 13  1  0  0  0  0
 22 14  1  0  0  0  0
 24 26  1  0  0  0  0
 24 25  1  0  0  0  0
 27 28  1  0  0  0  0
 27 30  1  0  0  0  0
 29 27  1  0  0  0  0
 31 34  1  0  0  0  0
 31  2  1  0  0  0  0
 32 31  1  0  0  0  0
 33 31  1  0  0  0  0
 34 35  1  0  0  0  0
 36 34  1  0  0  0  0
 37 34  1  0  0  0  0
 37 39  1  0  0  0  0
 38 37  1  0  0  0  0
 39 42  1  0  0  0  0
 40 39  1  0  0  0  0
 41 39  1  0  0  0  0
 42 43  1  0  0  0  0
M  END
>  <minimizedAffinity>
-6.18179989

$$$$

 OpenBabel03252500053D

 43 45  0  0  0  0  0  0  0  0999 V2000
   37.1060   29.6090   37.3000 C   0  0  0  0  0  0  0  0  0  0  0  0
   37.4450   28.9880   38.4930 C   0  0  0  0  0  0  0  0  0  0  0  0
   36.4640   28.3320   39.2320 C   0  0  0  0  0  0  0  0  0  0  0  0
   35.2260   28.3800   38.6660 N   0  0  0  0  0  0  0  0  0  0  0  0
   34.9080   28.9690   37.5370 C   0  0  0  0  0  0  0  0  0  0  0  0
   35.8600   29.5780   36.8650 N   0  0  0  0  0  0  0  0  0  0  0  0
   37.9060   30.1070   36.7610 H   0  0  0  0  0  0  0  0  0  0  0  0
   36.6460   27.6460   40.4630 C   0  0  0  0  0  0  0  0  0  0  0  0
   36.5610   28.4070   41.6190 C   0  0  0  0  0  0  0  0  0  0  0  0
   36.7090   27.9130   42.8970 C   0  0  0  0  0  0  0  0  0  0  0  0
   36.9590   26.5940   43.0870 C   0  0  0  0  0  0  0  0  0  0  0  0
   37.0570   25.7750   41.9820 C   0  0  0  0  0  0  0  0  0  0  0  0
   37.3060   24.4380   42.1000 C   0  0  0  0  0  0  0  0  0  0  0  0
   37.4110   23.5960   41.0250 C   0  0  0  0  0  0  0  0  0  0  0  0
   37.2500   24.1610   39.7680 C   0  0  0  0  0  0  0  0  0  0  0  0
   36.9980   25.5240   39.6760 C   0  0  0  0  0  0  0  0  0  0  0  0
   36.8990   26.3300   40.7370 C   0  0  0  0  0  0  0  0  0  0  0  0
   36.3630   29.4830   41.5870 H   0  0  0  0  0  0  0  0  0  0  0  0
   36.6370   28.5370   43.7770 H   0  0  0  0  0  0  0  0  0  0  0  0
   37.0830   26.1630   44.0710 H   0  0  0  0  0  0  0  0  0  0  0  0
   37.4260   24.0370   43.1030 H   0  0  0  0  0  0  0  0  0  0  0  0
   37.6100   22.5440   41.1660 H   0  0  0  0  0  0  0  0  0  0  0  0
   37.3380   23.4680   38.9410 H   0  0  0  0  0  0  0  0  0  0  0  0
   36.8670   25.9220   38.3100 N   0  0  0  0  0  0  0  0  0  0  0  0
   36.0890   25.9180   37.6150 H   0  0  0  0  0  0  0  0  0  0  0  0
   37.5140   26.3270   37.6000 H   0  0  0  0  0  0  0  0  0  0  0  0
   33.4600   28.8600   37.1590 C   0  0  0  0  0  0  0  0  0  0  0  0
   33.1740   29.5780   36.0350 F   0  0  0  0  0  0  0  0  0  0  0  0
   32.6530   29.2500   38.2090 F   0  0  0  0  0  0  0  0  0  0  0  0
   33.1350   27.4890   36.9850 F   0  0  0  0  0  0  0  0  0  0  0  0
   38.8000   28.9600   39.0700 C   0  0  0  0  0  0  0  0  0  0  0  0
   38.8140   28.4090   40.0400 H   0  0  0  0  0  0  0  0  0  0  0  0
   39.4860   28.3540   38.4130 H   0  0  0  0  0  0  0  0  0  0  0  0
   39.4090   30.2990   39.2740 C   0  0  0  0  0  0  0  0  0  0  0  0
   39.3700   31.0000   38.4470 H   0  0  0  0  0  0  0  0  0  0  0  0
   40.5130   30.1080   39.4360 H   0  0  0  0  0  0  0  0  0  0  0  0
   38.9620   30.8330   40.5540 N   0  0  0  0  0  0  0  0  0  0  0  0
   38.4640   30.1660   41.1480 H   0  0  0  0  0  0  0  0  0  0  0  0
   38.0570   32.2770   40.3170 S   0  0  0  0  0  0  0  0  0  0  0  0
   38.0600   32.6260   38.8400 O   0  0  0  0  0  1  0  0  0  0  0  0
   38.6690   33.4280   41.0320 O   0  0  0  0  0  1  0  0  0  0  0  0
   36.4620   32.0150   40.7500 O   0  0  0  0  0  0  0  0  0  0  0  0
   36.0920   32.7630   41.3110 H   0  0  0  0  0  0  0  0  0  0  0  0
  1  2  1  0  0  0  0
  2 31  1  0  0  0  0
  2  3  2  0  0  0  0
  3  8  1  0  0  0  0
  4  3  1  0  0  0  0
  5  4  2  0  0  0  0
  6  1  2  0  0  0  0
  6  5  1  0  0  0  0
  7  1  1  0  0  0  0
  8 17  2  0  0  0  0
  8  9  1  0  0  0  0
  9 10  2  0  0  0  0
 10 11  1  0  0  0  0
 10 19  1  0  0  0  0
 11 20  1  0  0  0  0
 12 13  1  0  0  0  0
 12 11  2  0  0  0  0
 13 21  1  0  0  0  0
 14 22  1  0  0  0  0
 14 13  2  0  0  0  0
 15 14  1  0  0  0  0
 16 15  2  0  0  0  0
 16 17  1  0  0  0  0
 17 12  1  0  0  0  0
 18  9  1  0  0  0  0
 23 15  1  0  0  0  0
 24 16  1  0  0  0  0
 25 24  1  0  0  0  0
 26 24  1  0  0  0  0
 27  5  1  0  0  0  0
 27 29  1  0  0  0  0
 28 27  1  0  0  0  0
 30 27  1  0  0  0  0
 31 34  1  0  0  0  0
 31 32  1  0  0  0  0
 33 31  1  0  0  0  0
 34 36  1  0  0  0  0
 34 37  1  0  0  0  0
 35 34  1  0  0  0  0
 37 38  1  0  0  0  0
 39 37  1  0  0  0  0
 39 42  1  0  0  0  0
 39 41  1  0  0  0  0
 40 39  1  0  0  0  0
 42 43  1  0  0  0  0
M  END
>  <minimizedAffinity>
-6.11103058

$$$$

 OpenBabel03252500053D

 43 45  0  0  0  0  0  0  0  0999 V2000
   37.0570   29.5250   37.3260 C   0  0  0  0  0  0  0  0  0  0  0  0
   37.4080   28.8920   38.5090 C   0  0  0  0  0  0  0  0  0  0  0  0
   36.4350   28.2200   39.2450 C   0  0  0  0  0  0  0  0  0  0  0  0
   35.1930   28.2700   38.6880 N   0  0  0  0  0  0  0  0  0  0  0  0
   34.8640   28.8710   37.5680 C   0  0  0  0  0  0  0  0  0  0  0  0
   35.8090   29.4940   36.8990 N   0  0  0  0  0  0  0  0  0  0  0  0
   37.8520   30.0340   36.7880 H   0  0  0  0  0  0  0  0  0  0  0  0
   36.6290   27.5200   40.4660 C   0  0  0  0  0  0  0  0  0  0  0  0
   36.5190   28.2600   41.6330 C   0  0  0  0  0  0  0  0  0  0  0  0
   36.6740   27.7490   42.9040 C   0  0  0  0  0  0  0  0  0  0  0  0
   36.9560   26.4340   43.0750 C   0  0  0  0  0  0  0  0  0  0  0  0
   37.0800   25.6360   41.9580 C   0  0  0  0  0  0  0  0  0  0  0  0
   37.3630   24.3040   42.0550 C   0  0  0  0  0  0  0  0  0  0  0  0
   37.4940   23.4820   40.9680 C   0  0  0  0  0  0  0  0  0  0  0  0
   37.3240   24.0630   39.7190 C   0  0  0  0  0  0  0  0  0  0  0  0
   37.0380   25.4200   39.6470 C   0  0  0  0  0  0  0  0  0  0  0  0
   36.9130   26.2070   40.7210 C   0  0  0  0  0  0  0  0  0  0  0  0
   36.2940   29.3310   41.6170 H   0  0  0  0  0  0  0  0  0  0  0  0
   36.5810   28.3570   43.7940 H   0  0  0  0  0  0  0  0  0  0  0  0
   37.0860   25.9910   44.0530 H   0  0  0  0  0  0  0  0  0  0  0  0
   37.4880   23.8900   43.0520 H   0  0  0  0  0  0  0  0  0  0  0  0
   37.7180   22.4340   41.0930 H   0  0  0  0  0  0  0  0  0  0  0  0
   37.4340   23.3860   38.8820 H   0  0  0  0  0  0  0  0  0  0  0  0
   36.9030   25.8370   38.2870 N   0  0  0  0  0  0  0  0  0  0  0  0
   36.1280   25.8240   37.5880 H   0  0  0  0  0  0  0  0  0  0  0  0
   37.5430   26.2690   37.5870 H   0  0  0  0  0  0  0  0  0  0  0  0
   33.4150   28.7590   37.1980 C   0  0  0  0  0  0  0  0  0  0  0  0
   33.0590   27.4700   36.9270 F   0  0  0  0  0  0  0  0  0  0  0  0
   33.1210   29.5850   36.1310 F   0  0  0  0  0  0  0  0  0  0  0  0
   32.6310   29.2940   38.2530 F   0  0  0  0  0  0  0  0  0  0  0  0
   38.7660   28.8630   39.0760 C   0  0  0  0  0  0  0  0  0  0  0  0
   38.8860   28.0180   39.7940 H   0  0  0  0  0  0  0  0  0  0  0  0
   39.5170   28.6300   38.2690 H   0  0  0  0  0  0  0  0  0  0  0  0
   39.1780   30.1210   39.7500 C   0  0  0  0  0  0  0  0  0  0  0  0
   39.3730   30.0790   40.8160 H   0  0  0  0  0  0  0  0  0  0  0  0
   38.2950   30.8220   39.6470 H   0  0  0  0  0  0  0  0  0  0  0  0
   40.2200   30.7640   38.9590 N   0  0  0  0  0  0  0  0  0  0  0  0
   41.1310   30.8260   39.4190 H   0  0  0  0  0  0  0  0  0  0  0  0
   39.6830   32.2970   38.3940 S   0  0  0  0  0  0  0  0  0  0  0  0
   40.6420   33.3680   38.8810 O   0  0  0  0  0  1  0  0  0  0  0  0
   38.3430   32.6410   38.9410 O   0  0  0  0  0  1  0  0  0  0  0  0
   39.7310   32.3260   36.7220 O   0  0  0  0  0  0  0  0  0  0  0  0
   38.8980   32.7230   36.3230 H   0  0  0  0  0  0  0  0  0  0  0  0
  1  2  1  0  0  0  0
  2 31  1  0  0  0  0
  2  3  2  0  0  0  0
  3  8  1  0  0  0  0
  4  3  1  0  0  0  0
  5  4  2  0  0  0  0
  6  1  2  0  0  0  0
  6  5  1  0  0  0  0
  7  1  1  0  0  0  0
  8 17  2  0  0  0  0
  8  9  1  0  0  0  0
  9 10  2  0  0  0  0
 10 11  1  0  0  0  0
 10 19  1  0  0  0  0
 11 20  1  0  0  0  0
 12 13  1  0  0  0  0
 12 11  2  0  0  0  0
 13 21  1  0  0  0  0
 14 22  1  0  0  0  0
 14 13  2  0  0  0  0
 15 14  1  0  0  0  0
 16 15  2  0  0  0  0
 16 17  1  0  0  0  0
 17 12  1  0  0  0  0
 18  9  1  0  0  0  0
 23 15  1  0  0  0  0
 24 16  1  0  0  0  0
 25 24  1  0  0  0  0
 26 24  1  0  0  0  0
 27  5  1  0  0  0  0
 27 30  1  0  0  0  0
 28 27  1  0  0  0  0
 29 27  1  0  0  0  0
 31 34  1  0  0  0  0
 31 32  1  0  0  0  0
 33 31  1  0  0  0  0
 34 35  1  0  0  0  0
 36 34  1  0  0  0  0
 37 38  1  0  0  0  0
 37 34  1  0  0  0  0
 39 40  1  0  0  0  0
 39 41  1  0  0  0  0
 39 37  1  0  0  0  0
 42 39  1  0  0  0  0
 43 42  1  0  0  0  0
M  END
>  <minimizedAffinity>
-6.06700087

$$$$

 OpenBabel03252500053D

 43 45  0  0  0  0  0  0  0  0999 V2000
   36.7040   29.1950   36.5730 C   0  0  0  0  0  0  0  0  0  0  0  0
   37.1810   28.4790   37.6600 C   0  0  0  0  0  0  0  0  0  0  0  0
   36.2830   27.9210   38.5660 C   0  0  0  0  0  0  0  0  0  0  0  0
   34.9770   28.1590   38.2620 N   0  0  0  0  0  0  0  0  0  0  0  0
   34.5280   28.8390   37.2320 C   0  0  0  0  0  0  0  0  0  0  0  0
   35.4050   29.3500   36.3970 N   0  0  0  0  0  0  0  0  0  0  0  0
   37.4440   29.6100   35.8950 H   0  0  0  0  0  0  0  0  0  0  0  0
   36.6070   27.1590   39.7210 C   0  0  0  0  0  0  0  0  0  0  0  0
   36.6380   25.7820   39.5710 C   0  0  0  0  0  0  0  0  0  0  0  0
   36.9330   24.8890   40.5780 C   0  0  0  0  0  0  0  0  0  0  0  0
   37.2180   25.3430   41.8230 C   0  0  0  0  0  0  0  0  0  0  0  0
   37.2060   26.7030   42.0470 C   0  0  0  0  0  0  0  0  0  0  0  0
   37.4840   27.2310   43.2760 C   0  0  0  0  0  0  0  0  0  0  0  0
   37.4810   28.5760   43.5340 C   0  0  0  0  0  0  0  0  0  0  0  0
   37.1760   29.4170   42.4730 C   0  0  0  0  0  0  0  0  0  0  0  0
   36.8970   28.8550   41.2340 C   0  0  0  0  0  0  0  0  0  0  0  0
   36.9050   27.5390   41.0010 C   0  0  0  0  0  0  0  0  0  0  0  0
   36.4240   25.3030   38.6110 H   0  0  0  0  0  0  0  0  0  0  0  0
   36.9470   23.8180   40.4240 H   0  0  0  0  0  0  0  0  0  0  0  0
   37.4540   24.6790   42.6440 H   0  0  0  0  0  0  0  0  0  0  0  0
   37.7170   26.5360   44.0780 H   0  0  0  0  0  0  0  0  0  0  0  0
   37.7070   28.9480   44.5220 H   0  0  0  0  0  0  0  0  0  0  0  0
   37.1820   30.4730   42.7110 H   0  0  0  0  0  0  0  0  0  0  0  0
   36.6040   29.8710   40.2730 N   0  0  0  0  0  0  0  0  0  0  0  0
   37.1770   30.4880   39.6580 H   0  0  0  0  0  0  0  0  0  0  0  0
   35.7280   30.3030   39.9080 H   0  0  0  0  0  0  0  0  0  0  0  0
   33.0330   28.9380   37.1500 C   0  0  0  0  0  0  0  0  0  0  0  0
   32.4700   27.7740   36.7170 F   0  0  0  0  0  0  0  0  0  0  0  0
   32.6610   29.9940   36.3420 F   0  0  0  0  0  0  0  0  0  0  0  0
   32.5290   29.3060   38.4250 F   0  0  0  0  0  0  0  0  0  0  0  0
   38.6060   28.2450   37.9520 C   0  0  0  0  0  0  0  0  0  0  0  0
   38.7520   27.9090   39.0050 H   0  0  0  0  0  0  0  0  0  0  0  0
   38.9870   27.3780   37.3430 H   0  0  0  0  0  0  0  0  0  0  0  0
   39.4850   29.4160   37.7000 C   0  0  0  0  0  0  0  0  0  0  0  0
   39.4350   29.8800   36.7210 H   0  0  0  0  0  0  0  0  0  0  0  0
   40.5430   29.0220   37.7780 H   0  0  0  0  0  0  0  0  0  0  0  0
   39.3790   30.3390   38.8240 N   0  0  0  0  0  0  0  0  0  0  0  0
   38.7820   30.0170   39.5890 H   0  0  0  0  0  0  0  0  0  0  0  0
   38.9260   31.9040   38.2730 S   0  0  0  0  0  0  0  0  0  0  0  0
   39.5470   32.9470   39.1830 O   0  0  0  0  0  1  0  0  0  0  0  0
   37.4530   32.0990   38.3390 O   0  0  0  0  0  1  0  0  0  0  0  0
   39.5490   32.1610   36.7420 O   0  0  0  0  0  0  0  0  0  0  0  0
   38.8720   32.5640   36.1170 H   0  0  0  0  0  0  0  0  0  0  0  0
  1  2  1  0  0  0  0
  2 31  1  0  0  0  0
  2  3  2  0  0  0  0
  3  8  1  0  0  0  0
  4  3  1  0  0  0  0
  5  4  2  0  0  0  0
  6  1  2  0  0  0  0
  6  5  1  0  0  0  0
  7  1  1  0  0  0  0
  8 17  1  0  0  0  0
  9  8  2  0  0  0  0
  9 10  1  0  0  0  0
 10 11  2  0  0  0  0
 11 12  1  0  0  0  0
 11 20  1  0  0  0  0
 12 13  1  0  0  0  0
 13 14  2  0  0  0  0
 13 21  1  0  0  0  0
 14 22  1  0  0  0  0
 15 23  1  0  0  0  0
 15 14  1  0  0  0  0
 16 15  2  0  0  0  0
 17 16  1  0  0  0  0
 17 12  2  0  0  0  0
 18  9  1  0  0  0  0
 19 10  1  0  0  0  0
 24 16  1  0  0  0  0
 25 24  1  0  0  0  0
 26 24  1  0  0  0  0
 27  5  1  0  0  0  0
 27 30  1  0  0  0  0
 28 27  1  0  0  0  0
 29 27  1  0  0  0  0
 31 32  1  0  0  0  0
 33 31  1  0  0  0  0
 34 36  1  0  0  0  0
 34 31  1  0  0  0  0
 34 37  1  0  0  0  0
 35 34  1  0  0  0  0
 37 38  1  0  0  0  0
 39 41  1  0  0  0  0
 39 37  1  0  0  0  0
 39 40  1  0  0  0  0
 42 39  1  0  0  0  0
 43 42  1  0  0  0  0
M  END
>  <minimizedAffinity>
-6.06113148

$$$$

 OpenBabel03252500053D

 43 45  0  0  0  0  0  0  0  0999 V2000
   37.4910   30.2790   37.7940 C   0  0  0  0  0  0  0  0  0  0  0  0
   38.0220   29.7950   38.9800 C   0  0  0  0  0  0  0  0  0  0  0  0
   37.2420   28.9900   39.8070 C   0  0  0  0  0  0  0  0  0  0  0  0
   35.9870   28.7650   39.3280 N   0  0  0  0  0  0  0  0  0  0  0  0
   35.4870   29.2260   38.2050 C   0  0  0  0  0  0  0  0  0  0  0  0
   36.2530   29.9810   37.4490 N   0  0  0  0  0  0  0  0  0  0  0  0
   38.1390   30.9010   37.1840 H   0  0  0  0  0  0  0  0  0  0  0  0
   37.6350   28.4130   41.0440 C   0  0  0  0  0  0  0  0  0  0  0  0
   37.4970   29.2040   42.1740 C   0  0  0  0  0  0  0  0  0  0  0  0
   37.8250   28.8100   43.4530 C   0  0  0  0  0  0  0  0  0  0  0  0
   38.3250   27.5690   43.6720 C   0  0  0  0  0  0  0  0  0  0  0  0
   38.4900   26.7260   42.5930 C   0  0  0  0  0  0  0  0  0  0  0  0
   38.9880   25.4620   42.7400 C   0  0  0  0  0  0  0  0  0  0  0  0
   39.1660   24.6000   41.6920 C   0  0  0  0  0  0  0  0  0  0  0  0
   38.8140   25.0610   40.4320 C   0  0  0  0  0  0  0  0  0  0  0  0
   38.3110   26.3500   40.3100 C   0  0  0  0  0  0  0  0  0  0  0  0
   38.1430   27.1790   41.3450 C   0  0  0  0  0  0  0  0  0  0  0  0
   37.1040   30.2230   42.1180 H   0  0  0  0  0  0  0  0  0  0  0  0
   37.7040   29.4550   44.3120 H   0  0  0  0  0  0  0  0  0  0  0  0
   38.5970   27.2180   44.6580 H   0  0  0  0  0  0  0  0  0  0  0  0
   39.2520   25.1420   43.7440 H   0  0  0  0  0  0  0  0  0  0  0  0
   39.5630   23.6090   41.8550 H   0  0  0  0  0  0  0  0  0  0  0  0
   38.9670   24.3540   39.6270 H   0  0  0  0  0  0  0  0  0  0  0  0
   38.0100   26.6480   38.9460 N   0  0  0  0  0  0  0  0  0  0  0  0
   37.1980   26.4690   38.3160 H   0  0  0  0  0  0  0  0  0  0  0  0
   38.5190   27.1260   38.1710 H   0  0  0  0  0  0  0  0  0  0  0  0
   34.0700   28.8130   37.9340 C   0  0  0  0  0  0  0  0  0  0  0  0
   33.5720   29.4140   36.8150 F   0  0  0  0  0  0  0  0  0  0  0  0
   33.2700   29.0740   39.0290 F   0  0  0  0  0  0  0  0  0  0  0  0
   34.0200   27.3990   37.8190 F   0  0  0  0  0  0  0  0  0  0  0  0
   39.3880   30.0630   39.4600 C   0  0  0  0  0  0  0  0  0  0  0  0
   39.5310   29.6880   40.5010 H   0  0  0  0  0  0  0  0  0  0  0  0
   40.1320   29.4670   38.8610 H   0  0  0  0  0  0  0  0  0  0  0  0
   39.7860   31.4940   39.4120 C   0  0  0  0  0  0  0  0  0  0  0  0
   39.4560   32.1350   40.2220 H   0  0  0  0  0  0  0  0  0  0  0  0
   39.2850   31.9160   38.4890 H   0  0  0  0  0  0  0  0  0  0  0  0
   41.2070   31.5800   39.1010 N   0  0  0  0  0  0  0  0  0  0  0  0
   41.7310   32.2520   39.6670 H   0  0  0  0  0  0  0  0  0  0  0  0
   41.4370   31.8480   37.4170 S   0  0  0  0  0  0  0  0  0  0  0  0
   41.7740   30.5290   36.7480 O   0  0  0  0  0  1  0  0  0  0  0  0
   42.5810   32.7630   37.1620 O   0  0  0  0  0  1  0  0  0  0  0  0
   40.0070   32.3870   36.7360 O   0  0  0  0  0  0  0  0  0  0  0  0
   40.1490   33.1680   36.1180 H   0  0  0  0  0  0  0  0  0  0  0  0
  1  2  1  0  0  0  0
  2 31  1  0  0  0  0
  2  3  2  0  0  0  0
  3  8  1  0  0  0  0
  4  3  1  0  0  0  0
  5  4  2  0  0  0  0
  6  1  2  0  0  0  0
  6  5  1  0  0  0  0
  7  1  1  0  0  0  0
  8 17  2  0  0  0  0
  8  9  1  0  0  0  0
  9 10  2  0  0  0  0
 10 11  1  0  0  0  0
 10 19  1  0  0  0  0
 11 20  1  0  0  0  0
 12 13  1  0  0  0  0
 12 11  2  0  0  0  0
 13 21  1  0  0  0  0
 14 22  1  0  0  0  0
 14 13  2  0  0  0  0
 15 14  1  0  0  0  0
 16 15  2  0  0  0  0
 16 17  1  0  0  0  0
 17 12  1  0  0  0  0
 18  9  1  0  0  0  0
 23 15  1  0  0  0  0
 24 16  1  0  0  0  0
 25 24  1  0  0  0  0
 26 24  1  0  0  0  0
 27  5  1  0  0  0  0
 27 29  1  0  0  0  0
 28 27  1  0  0  0  0
 30 27  1  0  0  0  0
 31 32  1  0  0  0  0
 33 31  1  0  0  0  0
 34 31  1  0  0  0  0
 34 35  1  0  0  0  0
 36 34  1  0  0  0  0
 37 34  1  0  0  0  0
 37 38  1  0  0  0  0
 39 37  1  0  0  0  0
 40 39  1  0  0  0  0
 41 39  1  0  0  0  0
 42 39  1  0  0  0  0
 43 42  1  0  0  0  0
M  END
>  <minimizedAffinity>
-6.04062128

$$$$

 OpenBabel03252500053D

 43 45  0  0  0  0  0  0  0  0999 V2000
   37.7500   27.6920   38.8920 C   0  0  0  0  0  0  0  0  0  0  0  0
   38.0120   29.0490   38.7730 C   0  0  0  0  0  0  0  0  0  0  0  0
   38.0410   29.8480   39.9130 C   0  0  0  0  0  0  0  0  0  0  0  0
   37.7940   29.1660   41.0670 N   0  0  0  0  0  0  0  0  0  0  0  0
   37.5450   27.8820   41.1760 C   0  0  0  0  0  0  0  0  0  0  0  0
   37.5270   27.1590   40.0780 N   0  0  0  0  0  0  0  0  0  0  0  0
   37.7390   27.1120   37.9740 H   0  0  0  0  0  0  0  0  0  0  0  0
   38.2980   31.2440   39.9650 C   0  0  0  0  0  0  0  0  0  0  0  0
   37.2230   32.0850   39.7280 C   0  0  0  0  0  0  0  0  0  0  0  0
   37.2870   33.4620   39.7380 C   0  0  0  0  0  0  0  0  0  0  0  0
   38.4650   34.0840   39.9920 C   0  0  0  0  0  0  0  0  0  0  0  0
   39.5780   33.3090   40.2370 C   0  0  0  0  0  0  0  0  0  0  0  0
   40.7970   33.8670   40.4990 C   0  0  0  0  0  0  0  0  0  0  0  0
   41.9230   33.1290   40.7450 C   0  0  0  0  0  0  0  0  0  0  0  0
   41.7870   31.7480   40.7200 C   0  0  0  0  0  0  0  0  0  0  0  0
   40.5370   31.2060   40.4500 C   0  0  0  0  0  0  0  0  0  0  0  0
   39.4480   31.9430   40.2120 C   0  0  0  0  0  0  0  0  0  0  0  0
   36.2230   31.6960   39.5130 H   0  0  0  0  0  0  0  0  0  0  0  0
   36.4250   34.0880   39.5490 H   0  0  0  0  0  0  0  0  0  0  0  0
   38.5610   35.1600   40.0090 H   0  0  0  0  0  0  0  0  0  0  0  0
   40.8590   34.9520   40.5080 H   0  0  0  0  0  0  0  0  0  0  0  0
   42.8670   33.6140   40.9480 H   0  0  0  0  0  0  0  0  0  0  0  0
   42.6960   31.1950   40.9190 H   0  0  0  0  0  0  0  0  0  0  0  0
   40.5920   29.7780   40.4620 N   0  0  0  0  0  0  0  0  0  0  0  0
   40.5450   29.0470   41.2050 H   0  0  0  0  0  0  0  0  0  0  0  0
   40.7060   29.0440   39.7310 H   0  0  0  0  0  0  0  0  0  0  0  0
   37.3100   27.4060   42.5790 C   0  0  0  0  0  0  0  0  0  0  0  0
   38.2250   27.9210   43.4500 F   0  0  0  0  0  0  0  0  0  0  0  0
   37.3080   26.0250   42.6290 F   0  0  0  0  0  0  0  0  0  0  0  0
   35.9880   27.7510   42.9640 F   0  0  0  0  0  0  0  0  0  0  0  0
   38.2740   29.7460   37.5030 C   0  0  0  0  0  0  0  0  0  0  0  0
   38.6070   30.7950   37.6800 H   0  0  0  0  0  0  0  0  0  0  0  0
   39.1540   29.2760   36.9790 H   0  0  0  0  0  0  0  0  0  0  0  0
   37.1240   29.7640   36.5630 C   0  0  0  0  0  0  0  0  0  0  0  0
   36.6760   30.7260   36.3370 H   0  0  0  0  0  0  0  0  0  0  0  0
   36.3030   29.1790   37.0780 H   0  0  0  0  0  0  0  0  0  0  0  0
   37.4480   28.9480   35.4000 N   0  0  0  0  0  0  0  0  0  0  0  0
   37.5750   29.4710   34.5300 H   0  0  0  0  0  0  0  0  0  0  0  0
   36.3020   27.6790   35.2200 S   0  0  0  0  0  0  0  0  0  0  0  0
   35.5350   27.8830   33.9270 O   0  0  0  0  0  1  0  0  0  0  0  0
   35.3000   27.6890   36.3190 O   0  0  0  0  0  1  0  0  0  0  0  0
   37.1030   26.2160   35.0840 O   0  0  0  0  0  0  0  0  0  0  0  0
   36.6900   25.5000   35.6550 H   0  0  0  0  0  0  0  0  0  0  0  0
  1  6  1  0  0  0  0
  2  1  2  0  0  0  0
  2  3  1  0  0  0  0
  3  8  1  0  0  0  0
  3  4  2  0  0  0  0
  4  5  1  0  0  0  0
  5 27  1  0  0  0  0
  6  5  2  0  0  0  0
  7  1  1  0  0  0  0
  8 17  1  0  0  0  0
  9 10  1  0  0  0  0
  9  8  2  0  0  0  0
 10 11  2  0  0  0  0
 11 20  1  0  0  0  0
 11 12  1  0  0  0  0
 12 13  1  0  0  0  0
 13 21  1  0  0  0  0
 13 14  2  0  0  0  0
 14 22  1  0  0  0  0
 15 14  1  0  0  0  0
 15 23  1  0  0  0  0
 16 24  1  0  0  0  0
 16 15  2  0  0  0  0
 17 12  2  0  0  0  0
 17 16  1  0  0  0  0
 18  9  1  0  0  0  0
 19 10  1  0  0  0  0
 24 25  1  0  0  0  0
 26 24  1  0  0  0  0
 27 29  1  0  0  0  0
 27 30  1  0  0  0  0
 27 28  1  0  0  0  0
 31 32  1  0  0  0  0
 31  2  1  0  0  0  0
 33 31  1  0  0  0  0
 34 36  1  0  0  0  0
 34 31  1  0  0  0  0
 35 34  1  0  0  0  0
 37 34  1  0  0  0  0
 38 37  1  0  0  0  0
 39 37  1  0  0  0  0
 39 41  1  0  0  0  0
 40 39  1  0  0  0  0
 42 39  1  0  0  0  0
 42 43  1  0  0  0  0
M  END
>  <minimizedAffinity>
-5.58340311

$$$$

 OpenBabel03252500053D

 43 45  0  0  0  0  0  0  0  0999 V2000
   36.9330   28.9090   36.5340 C   0  0  0  0  0  0  0  0  0  0  0  0
   37.3530   28.2200   37.6610 C   0  0  0  0  0  0  0  0  0  0  0  0
   36.4120   27.7650   38.5820 C   0  0  0  0  0  0  0  0  0  0  0  0
   35.1260   28.0690   38.2480 N   0  0  0  0  0  0  0  0  0  0  0  0
   34.7320   28.7230   37.1800 C   0  0  0  0  0  0  0  0  0  0  0  0
   35.6490   29.1360   36.3320 N   0  0  0  0  0  0  0  0  0  0  0  0
   37.7050   29.2420   35.8460 H   0  0  0  0  0  0  0  0  0  0  0  0
   36.6740   27.0430   39.7770 C   0  0  0  0  0  0  0  0  0  0  0  0
   36.6530   25.6600   39.6870 C   0  0  0  0  0  0  0  0  0  0  0  0
   36.8850   24.8020   40.7400 C   0  0  0  0  0  0  0  0  0  0  0  0
   37.1570   25.3000   41.9720 C   0  0  0  0  0  0  0  0  0  0  0  0
   37.1950   26.6680   42.1360 C   0  0  0  0  0  0  0  0  0  0  0  0
   37.4630   27.2380   43.3470 C   0  0  0  0  0  0  0  0  0  0  0  0
   37.5070   28.5920   43.5460 C   0  0  0  0  0  0  0  0  0  0  0  0
   37.2650   29.3970   42.4430 C   0  0  0  0  0  0  0  0  0  0  0  0
   36.9950   28.7920   41.2220 C   0  0  0  0  0  0  0  0  0  0  0  0
   36.9550   27.4680   41.0470 C   0  0  0  0  0  0  0  0  0  0  0  0
   36.4450   25.1480   38.7430 H   0  0  0  0  0  0  0  0  0  0  0  0
   36.8600   23.7260   40.6330 H   0  0  0  0  0  0  0  0  0  0  0  0
   37.3450   24.6640   42.8260 H   0  0  0  0  0  0  0  0  0  0  0  0
   37.6460   26.5710   44.1850 H   0  0  0  0  0  0  0  0  0  0  0  0
   37.7230   28.9980   44.5230 H   0  0  0  0  0  0  0  0  0  0  0  0
   37.3080   30.4610   42.6350 H   0  0  0  0  0  0  0  0  0  0  0  0
   36.7680   29.7750   40.2100 N   0  0  0  0  0  0  0  0  0  0  0  0
   37.3820   30.3410   39.5850 H   0  0  0  0  0  0  0  0  0  0  0  0
   35.9200   30.2250   39.8030 H   0  0  0  0  0  0  0  0  0  0  0  0
   33.2480   28.9120   37.0730 C   0  0  0  0  0  0  0  0  0  0  0  0
   32.9220   29.8600   36.1480 F   0  0  0  0  0  0  0  0  0  0  0  0
   32.7080   29.2230   38.3050 F   0  0  0  0  0  0  0  0  0  0  0  0
   32.6490   27.6640   36.7570 F   0  0  0  0  0  0  0  0  0  0  0  0
   38.7560   27.9120   37.9830 C   0  0  0  0  0  0  0  0  0  0  0  0
   39.1750   28.6500   38.7080 H   0  0  0  0  0  0  0  0  0  0  0  0
   38.8200   26.9340   38.5380 H   0  0  0  0  0  0  0  0  0  0  0  0
   39.6570   27.8410   36.8040 C   0  0  0  0  0  0  0  0  0  0  0  0
   39.2190   27.5490   35.8550 H   0  0  0  0  0  0  0  0  0  0  0  0
   40.4010   27.0220   37.0410 H   0  0  0  0  0  0  0  0  0  0  0  0
   40.4750   29.0460   36.7580 N   0  0  0  0  0  0  0  0  0  0  0  0
   40.1850   29.7360   36.0610 H   0  0  0  0  0  0  0  0  0  0  0  0
   42.1370   28.6360   36.5980 S   0  0  0  0  0  0  0  0  0  0  0  0
   42.8250   28.8240   37.9380 O   0  0  0  0  0  1  0  0  0  0  0  0
   42.8290   29.5300   35.6320 O   0  0  0  0  0  1  0  0  0  0  0  0
   42.2790   27.0160   36.2030 O   0  0  0  0  0  0  0  0  0  0  0  0
   42.9400   26.8610   35.4620 H   0  0  0  0  0  0  0  0  0  0  0  0
  1  2  1  0  0  0  0
  2 31  1  0  0  0  0
  2  3  2  0  0  0  0
  3  8  1  0  0  0  0
  4  3  1  0  0  0  0
  5  4  2  0  0  0  0
  6  1  2  0  0  0  0
  6  5  1  0  0  0  0
  7  1  1  0  0  0  0
  8 17  1  0  0  0  0
  9  8  2  0  0  0  0
  9 10  1  0  0  0  0
 10 11  2  0  0  0  0
 11 12  1  0  0  0  0
 11 20  1  0  0  0  0
 12 13  1  0  0  0  0
 13 14  2  0  0  0  0
 13 21  1  0  0  0  0
 14 22  1  0  0  0  0
 15 23  1  0  0  0  0
 15 14  1  0  0  0  0
 16 15  2  0  0  0  0
 17 16  1  0  0  0  0
 17 12  2  0  0  0  0
 18  9  1  0  0  0  0
 19 10  1  0  0  0  0
 24 16  1  0  0  0  0
 25 24  1  0  0  0  0
 26 24  1  0  0  0  0
 27  5  1  0  0  0  0
 27 29  1  0  0  0  0
 28 27  1  0  0  0  0
 30 27  1  0  0  0  0
 31 33  1  0  0  0  0
 31 32  1  0  0  0  0
 34 36  1  0  0  0  0
 34 31  1  0  0  0  0
 35 34  1  0  0  0  0
 37 34  1  0  0  0  0
 38 37  1  0  0  0  0
 39 37  1  0  0  0  0
 39 40  1  0  0  0  0
 41 39  1  0  0  0  0
 42 39  1  0  0  0  0
 43 42  1  0  0  0  0
M  END
>  <minimizedAffinity>
-5.54069662

$$$$

 OpenBabel03252500053D

 43 45  0  0  0  0  0  0  0  0999 V2000
   40.8000   30.2780   37.6970 C   0  0  0  0  0  0  0  0  0  0  0  0
   39.7350   29.5890   38.2570 C   0  0  0  0  0  0  0  0  0  0  0  0
   38.9770   30.1890   39.2590 C   0  0  0  0  0  0  0  0  0  0  0  0
   39.3940   31.4440   39.5870 N   0  0  0  0  0  0  0  0  0  0  0  0
   40.4040   32.0930   39.0550 C   0  0  0  0  0  0  0  0  0  0  0  0
   41.0960   31.4950   38.1100 N   0  0  0  0  0  0  0  0  0  0  0  0
   41.3600   29.7670   36.9190 H   0  0  0  0  0  0  0  0  0  0  0  0
   37.8570   29.6250   39.9280 C   0  0  0  0  0  0  0  0  0  0  0  0
   36.6170   29.8160   39.3390 C   0  0  0  0  0  0  0  0  0  0  0  0
   35.4260   29.3410   39.8450 C   0  0  0  0  0  0  0  0  0  0  0  0
   35.4170   28.6320   41.0000 C   0  0  0  0  0  0  0  0  0  0  0  0
   36.6150   28.4030   41.6430 C   0  0  0  0  0  0  0  0  0  0  0  0
   36.6790   27.6980   42.8100 C   0  0  0  0  0  0  0  0  0  0  0  0
   37.8510   27.4520   43.4750 C   0  0  0  0  0  0  0  0  0  0  0  0
   39.0120   27.9590   42.9090 C   0  0  0  0  0  0  0  0  0  0  0  0
   38.9190   28.6740   41.7220 C   0  0  0  0  0  0  0  0  0  0  0  0
   37.7650   28.9030   41.0860 C   0  0  0  0  0  0  0  0  0  0  0  0
   36.5040   30.3730   38.4040 H   0  0  0  0  0  0  0  0  0  0  0  0
   34.4760   29.5100   39.3570 H   0  0  0  0  0  0  0  0  0  0  0  0
   34.5060   28.2420   41.4340 H   0  0  0  0  0  0  0  0  0  0  0  0
   35.7460   27.3200   43.2190 H   0  0  0  0  0  0  0  0  0  0  0  0
   37.8540   26.8890   44.3960 H   0  0  0  0  0  0  0  0  0  0  0  0
   39.9190   27.7470   43.4600 H   0  0  0  0  0  0  0  0  0  0  0  0
   40.2080   29.1170   41.2970 N   0  0  0  0  0  0  0  0  0  0  0  0
   40.9940   28.6870   40.7610 H   0  0  0  0  0  0  0  0  0  0  0  0
   40.7510   30.0010   41.4040 H   0  0  0  0  0  0  0  0  0  0  0  0
   40.6320   33.4660   39.6150 C   0  0  0  0  0  0  0  0  0  0  0  0
   41.5680   34.1550   38.9020 F   0  0  0  0  0  0  0  0  0  0  0  0
   40.9850   33.3940   40.9480 F   0  0  0  0  0  0  0  0  0  0  0  0
   39.3950   34.1610   39.6390 F   0  0  0  0  0  0  0  0  0  0  0  0
   39.3170   28.2310   37.8720 C   0  0  0  0  0  0  0  0  0  0  0  0
   40.1460   27.4980   38.0140 H   0  0  0  0  0  0  0  0  0  0  0  0
   38.5160   27.8600   38.5720 H   0  0  0  0  0  0  0  0  0  0  0  0
   38.8130   28.1140   36.4790 C   0  0  0  0  0  0  0  0  0  0  0  0
   39.3430   27.4470   35.8080 H   0  0  0  0  0  0  0  0  0  0  0  0
   38.9430   29.1420   36.0240 H   0  0  0  0  0  0  0  0  0  0  0  0
   37.3670   27.9330   36.5120 N   0  0  0  0  0  0  0  0  0  0  0  0
   37.0480   26.9870   36.2900 H   0  0  0  0  0  0  0  0  0  0  0  0
   36.5940   29.1150   35.5300 S   0  0  0  0  0  0  0  0  0  0  0  0
   36.9920   30.4970   36.0140 O   0  0  0  0  0  1  0  0  0  0  0  0
   35.1130   29.0310   35.6420 O   0  0  0  0  0  1  0  0  0  0  0  0
   37.1370   28.9760   33.9540 O   0  0  0  0  0  0  0  0  0  0  0  0
   36.3860   29.0150   33.2870 H   0  0  0  0  0  0  0  0  0  0  0  0
  1  6  2  0  0  0  0
  1  2  1  0  0  0  0
  2  3  2  0  0  0  0
  3  4  1  0  0  0  0
  3  8  1  0  0  0  0
  5  4  2  0  0  0  0
  5 27  1  0  0  0  0
  6  5  1  0  0  0  0
  7  1  1  0  0  0  0
  8 17  1  0  0  0  0
  9 10  1  0  0  0  0
  9  8  2  0  0  0  0
 10 11  2  0  0  0  0
 11 20  1  0  0  0  0
 11 12  1  0  0  0  0
 12 13  1  0  0  0  0
 13 21  1  0  0  0  0
 13 14  2  0  0  0  0
 14 22  1  0  0  0  0
 15 23  1  0  0  0  0
 15 14  1  0  0  0  0
 16 15  2  0  0  0  0
 17 12  2  0  0  0  0
 17 16  1  0  0  0  0
 18  9  1  0  0  0  0
 19 10  1  0  0  0  0
 24 26  1  0  0  0  0
 24 16  1  0  0  0  0
 25 24  1  0  0  0  0
 27 30  1  0  0  0  0
 27 29  1  0  0  0  0
 28 27  1  0  0  0  0
 31 32  1  0  0  0  0
 31  2  1  0  0  0  0
 31 33  1  0  0  0  0
 34 37  1  0  0  0  0
 34 31  1  0  0  0  0
 35 34  1  0  0  0  0
 36 34  1  0  0  0  0
 38 37  1  0  0  0  0
 39 41  1  0  0  0  0
 39 40  1  0  0  0  0
 39 37  1  0  0  0  0
 42 39  1  0  0  0  0
 43 42  1  0  0  0  0
M  END
>  <minimizedAffinity>
-5.5186944

$$$$
