
 OpenBabel03242514163D

 39 40  0  0  0  0  0  0  0  0999 V2000
   46.1220   34.5930   43.5970 C   0  0  0  0  0  0  0  0  0  0  0  0
   46.1560   33.8360   44.7560 C   0  0  0  0  0  0  0  0  0  0  0  0
   45.3310   34.2360   45.7790 C   0  0  0  0  0  0  0  0  0  0  0  0
   44.5360   35.3320   45.6090 N   0  0  0  0  0  0  0  0  0  0  0  0
   44.5130   36.0470   44.4910 C   0  0  0  0  0  0  0  0  0  0  0  0
   45.3090   35.6610   43.5070 N   0  0  0  0  0  0  0  0  0  0  0  0
   45.1660   33.8420   46.7650 H   0  0  0  0  0  0  0  0  0  0  0  0
   43.8930   36.9180   44.3300 H   0  0  0  0  0  0  0  0  0  0  0  0
   47.0390   34.1760   42.5390 C   0  0  0  0  0  0  0  0  0  0  0  0
   48.3960   34.6950   42.6150 C   0  0  0  0  0  0  0  0  0  0  0  0
   48.7280   35.6190   41.5140 C   0  0  0  0  0  0  0  0  0  0  0  0
   48.5550   34.9310   40.1650 C   0  0  0  0  0  0  0  0  0  0  0  0
   47.3050   34.1270   40.0690 C   0  0  0  0  0  0  0  0  0  0  0  0
   46.3490   34.4340   41.2060 C   0  0  0  0  0  0  0  0  0  0  0  0
   47.1090   33.0450   42.5050 H   0  0  0  0  0  0  0  0  0  0  0  0
   48.5170   35.2750   43.5750 H   0  0  0  0  0  0  0  0  0  0  0  0
   49.2170   33.9330   42.6860 H   0  0  0  0  0  0  0  0  0  0  0  0
   48.1960   36.5950   41.5560 H   0  0  0  0  0  0  0  0  0  0  0  0
   49.8150   35.8840   41.5720 H   0  0  0  0  0  0  0  0  0  0  0  0
   49.4200   34.3020   39.9350 H   0  0  0  0  0  0  0  0  0  0  0  0
   48.5170   35.7270   39.3940 H   0  0  0  0  0  0  0  0  0  0  0  0
   46.7670   34.3250   39.1140 H   0  0  0  0  0  0  0  0  0  0  0  0
   47.5130   33.0340   40.0950 H   0  0  0  0  0  0  0  0  0  0  0  0
   45.4610   33.8040   41.1440 H   0  0  0  0  0  0  0  0  0  0  0  0
   46.0350   35.4890   41.1070 H   0  0  0  0  0  0  0  0  0  0  0  0
   46.8370   32.7610   45.1140 O   0  0  0  0  0  0  0  0  0  0  0  0
   47.1790   32.1800   46.3010 C   0  0  0  0  0  0  0  0  0  0  0  0
   46.4390   32.4300   47.0880 H   0  0  0  0  0  0  0  0  0  0  0  0
   48.1660   32.5020   46.7070 H   0  0  0  0  0  0  0  0  0  0  0  0
   47.2160   30.6620   46.2710 C   0  0  0  0  0  0  0  0  0  0  0  0
   48.0440   30.3900   45.5660 H   0  0  0  0  0  0  0  0  0  0  0  0
   47.3830   30.2770   47.2810 H   0  0  0  0  0  0  0  0  0  0  0  0
   46.0020   30.0860   45.7410 N   0  0  0  0  0  0  0  0  0  0  0  0
   46.2170   29.3550   45.0120 H   0  0  0  0  0  0  0  0  0  0  0  0
   45.1720   29.3250   47.0730 S   0  0  0  0  0  0  0  0  0  0  0  0
   44.0440   28.4810   46.5930 O   0  0  0  0  0  0  0  0  0  0  0  0
   44.6700   30.4210   47.9640 O   0  0  0  0  0  0  0  0  0  0  0  0
   46.2330   28.3810   47.9700 O   0  0  0  0  0  0  0  0  0  0  0  0
   46.8850   28.9340   48.4700 H   0  0  0  0  0  0  0  0  0  0  0  0
  1  2  1  0  0  0  0
  2 26  1  0  0  0  0
  2  3  2  0  0  0  0
  3  7  1  0  0  0  0
  4  3  1  0  0  0  0
  5  4  2  0  0  0  0
  6  1  2  0  0  0  0
  6  5  1  0  0  0  0
  8  5  1  0  0  0  0
  9 10  1  0  0  0  0
  9  1  1  0  0  0  0
 10 17  1  0  0  0  0
 10 16  1  0  0  0  0
 11 18  1  0  0  0  0
 11 19  1  0  0  0  0
 11 10  1  0  0  0  0
 12 11  1  0  0  0  0
 13 23  1  0  0  0  0
 13 12  1  0  0  0  0
 13 14  1  0  0  0  0
 14  9  1  0  0  0  0
 15  9  1  0  0  0  0
 20 12  1  0  0  0  0
 21 12  1  0  0  0  0
 22 13  1  0  0  0  0
 24 14  1  0  0  0  0
 25 14  1  0  0  0  0
 26 27  1  0  0  0  0
 27 29  1  0  0  0  0
 27 28  1  0  0  0  0
 30 27  1  0  0  0  0
 30 32  1  0  0  0  0
 31 30  1  0  0  0  0
 33 30  1  0  0  0  0
 33 35  1  0  0  0  0
 34 33  1  0  0  0  0
 35 37  1  0  0  0  0
 35 38  1  0  0  0  0
 36 35  1  0  0  0  0
 38 39  1  0  0  0  0
M  END
>  <minimizedAffinity>
-5.34003973

>  <minimizedRMSD>
1.70009983

$$$$
