
 OpenBabel03252508373D

 39 41  0  0  0  0  0  0  0  0999 V2000
   45.0510   34.0000   40.7690 C   0  0  0  0  0  0  0  0  0  0  0  0
   44.0120   33.6390   39.9490 C   0  0  0  0  0  0  0  0  0  0  0  0
   44.3150   33.0950   38.7400 C   0  0  0  0  0  0  0  0  0  0  0  0
   45.5980   32.8860   38.2940 C   0  0  0  0  0  0  0  0  0  0  0  0
   46.6230   33.2530   39.1280 C   0  0  0  0  0  0  0  0  0  0  0  0
   46.3670   33.8120   40.3720 C   0  0  0  0  0  0  0  0  0  0  0  0
   43.4890   32.8120   38.0970 H   0  0  0  0  0  0  0  0  0  0  0  0
   45.7440   32.4440   37.3120 H   0  0  0  0  0  0  0  0  0  0  0  0
   47.6280   33.0770   38.7520 H   0  0  0  0  0  0  0  0  0  0  0  0
   40.7420   35.3340   40.8140 C   0  0  0  0  0  0  0  0  0  0  0  0
   42.0430   35.1340   40.3110 C   0  0  0  0  0  0  0  0  0  0  0  0
   42.6730   33.8770   40.4570 C   0  0  0  0  0  0  0  0  0  0  0  0
   41.9410   32.9430   41.0920 N   0  0  0  0  0  0  0  0  0  0  0  0
   40.7150   33.1400   41.5640 C   0  0  0  0  0  0  0  0  0  0  0  0
   40.1130   34.3300   41.4280 N   0  0  0  0  0  0  0  0  0  0  0  0
   40.1580   36.6020   40.6440 N   0  0  0  0  0  0  0  0  0  0  0  0
   42.5510   35.9370   39.8170 H   0  0  0  0  0  0  0  0  0  0  0  0
   40.1680   32.3620   42.0660 H   0  0  0  0  0  0  0  0  0  0  0  0
   39.9370   36.8930   39.6460 H   0  0  0  0  0  0  0  0  0  0  0  0
   39.8820   37.3540   41.3140 H   0  0  0  0  0  0  0  0  0  0  0  0
   47.5200   34.1670   41.1710 C   0  0  0  0  0  0  0  0  0  0  0  0
   48.1390   35.3460   40.8820 C   0  0  0  0  0  0  0  0  0  0  0  0
   49.2510   35.8520   41.5340 C   0  0  0  0  0  0  0  0  0  0  0  0
   49.7680   35.0990   42.5570 C   0  0  0  0  0  0  0  0  0  0  0  0
   49.1750   33.9040   42.8790 C   0  0  0  0  0  0  0  0  0  0  0  0
   48.0680   33.4460   42.1980 C   0  0  0  0  0  0  0  0  0  0  0  0
   47.7700   35.9930   40.0730 H   0  0  0  0  0  0  0  0  0  0  0  0
   49.7030   36.7950   41.2630 H   0  0  0  0  0  0  0  0  0  0  0  0
   50.6390   35.4680   43.0870 H   0  0  0  0  0  0  0  0  0  0  0  0
   49.6270   33.3570   43.6940 H   0  0  0  0  0  0  0  0  0  0  0  0
   47.4510   32.2070   42.5330 N   0  0  0  0  0  0  0  0  0  0  0  0
   47.5360   31.3790   41.8910 H   0  0  0  0  0  0  0  0  0  0  0  0
   46.5130   31.6710   43.8420 S   0  0  0  0  0  0  0  0  0  0  0  0
   47.0670   30.3660   44.3970 O   0  0  0  0  0  1  0  0  0  0  0  0
   46.4180   32.6810   44.9280 O   0  0  0  0  0  1  0  0  0  0  0  0
   44.9720   31.2880   43.2320 O   0  0  0  0  0  0  0  0  0  0  0  0
   44.5850   32.1870   42.9890 H   0  0  0  0  0  0  0  0  0  0  0  0
   44.6350   35.0600   43.1140 N   0  0  0  0  0  0  0  0  0  0  0  0
   44.8250   34.5830   42.0650 C   0  0  0  0  0  0  0  0  0  0  0  0
  1 39  1  0  0  0  0
  2 12  1  0  0  0  0
  2  1  2  0  0  0  0
  3  2  1  0  0  0  0
  4  3  2  0  0  0  0
  4  5  1  0  0  0  0
  5  6  2  0  0  0  0
  6  1  1  0  0  0  0
  6 21  1  0  0  0  0
  7  3  1  0  0  0  0
  8  4  1  0  0  0  0
  9  5  1  0  0  0  0
 10 15  1  0  0  0  0
 11 12  1  0  0  0  0
 11 10  2  0  0  0  0
 12 13  2  0  0  0  0
 13 14  1  0  0  0  0
 14 18  1  0  0  0  0
 15 14  2  0  0  0  0
 16 10  1  0  0  0  0
 16 20  1  0  0  0  0
 17 11  1  0  0  0  0
 19 16  1  0  0  0  0
 21 26  1  0  0  0  0
 22 21  2  0  0  0  0
 22 23  1  0  0  0  0
 23 24  2  0  0  0  0
 24 25  1  0  0  0  0
 24 29  1  0  0  0  0
 25 30  1  0  0  0  0
 26 31  1  0  0  0  0
 26 25  2  0  0  0  0
 27 22  1  0  0  0  0
 28 23  1  0  0  0  0
 31 33  1  0  0  0  0
 32 31  1  0  0  0  0
 33 34  1  0  0  0  0
 33 35  1  0  0  0  0
 36 33  1  0  0  0  0
 37 36  1  0  0  0  0
 39 38  3  0  0  0  0
M  END
>  <minimizedAffinity>
-5.83692741

>  <minimizedRMSD>
0.398596764

$$$$
