
 OpenBabel03252501303D

 36 37  0  0  0  0  0  0  0  0999 V2000
   38.2310   29.7430   42.1840 C   0  0  0  0  0  0  0  0  0  0  0  0
   39.5290   30.1170   41.9400 C   0  0  0  0  0  0  0  0  0  0  0  0
   39.9050   30.9930   40.9740 C   0  0  0  0  0  0  0  0  0  0  0  0
   38.9240   31.5430   40.1870 C   0  0  0  0  0  0  0  0  0  0  0  0
   37.6090   31.1840   40.4130 C   0  0  0  0  0  0  0  0  0  0  0  0
   37.2610   30.2870   41.4060 C   0  0  0  0  0  0  0  0  0  0  0  0
   40.2640   29.6380   42.6080 H   0  0  0  0  0  0  0  0  0  0  0  0
   40.9680   31.1830   40.9100 H   0  0  0  0  0  0  0  0  0  0  0  0
   36.9770   31.7200   39.6940 H   0  0  0  0  0  0  0  0  0  0  0  0
   35.3430   29.1020   40.5340 C   0  0  0  0  0  0  0  0  0  0  0  0
   35.7570   28.1960   39.7220 O   0  0  0  0  0  0  0  0  0  0  0  0
   35.8340   30.1740   41.3490 N   0  0  0  0  0  0  0  0  0  0  0  0
   34.3020   28.7800   40.4210 H   0  0  0  0  0  0  0  0  0  0  0  0
   35.0410   30.7030   41.7720 H   0  0  0  0  0  0  0  0  0  0  0  0
   37.7050   28.8110   43.1810 C   0  0  0  0  0  0  0  0  0  0  0  0
   37.2800   29.4210   44.0180 H   0  0  0  0  0  0  0  0  0  0  0  0
   36.8140   28.2530   42.7840 H   0  0  0  0  0  0  0  0  0  0  0  0
   38.7610   27.8410   43.6470 C   0  0  0  0  0  0  0  0  0  0  0  0
   38.7360   27.7240   44.7570 H   0  0  0  0  0  0  0  0  0  0  0  0
   39.7660   28.2330   43.3790 H   0  0  0  0  0  0  0  0  0  0  0  0
   39.1260   24.3780   42.4800 C   0  0  0  0  0  0  0  0  0  0  0  0
   37.8720   24.1310   41.8640 C   0  0  0  0  0  0  0  0  0  0  0  0
   36.9470   25.1830   41.8820 C   0  0  0  0  0  0  0  0  0  0  0  0
   37.2700   26.3460   42.4610 N   0  0  0  0  0  0  0  0  0  0  0  0
   38.4850   26.5230   43.0320 C   0  0  0  0  0  0  0  0  0  0  0  0
   39.3910   25.5760   43.0470 N   0  0  0  0  0  0  0  0  0  0  0  0
   39.8850   23.5970   42.4960 H   0  0  0  0  0  0  0  0  0  0  0  0
   37.7610   23.1510   41.4440 H   0  0  0  0  0  0  0  0  0  0  0  0
   36.0150   24.9690   41.4130 H   0  0  0  0  0  0  0  0  0  0  0  0
   39.4000   32.4620   39.1850 N   0  0  0  0  0  0  0  0  0  0  0  0
   39.3360   33.4080   39.6170 H   0  0  0  0  0  0  0  0  0  0  0  0
   39.9340   31.9870   37.6370 S   0  0  0  0  0  0  0  0  0  0  0  0
   40.1380   30.4860   37.6450 O   0  0  0  0  0  1  0  0  0  0  0  0
   41.2400   32.6330   37.3730 O   0  0  0  0  0  1  0  0  0  0  0  0
   38.8510   32.3570   36.4180 O   0  0  0  0  0  0  0  0  0  0  0  0
   39.3260   32.4040   35.5500 H   0  0  0  0  0  0  0  0  0  0  0  0
  1 15  1  0  0  0  0
  2  1  1  0  0  0  0
  2  7  1  0  0  0  0
  3  2  2  0  0  0  0
  4  5  2  0  0  0  0
  4  3  1  0  0  0  0
  5  6  1  0  0  0  0
  6  1  2  0  0  0  0
  8  3  1  0  0  0  0
  9  5  1  0  0  0  0
 10 12  1  0  0  0  0
 11 10  2  0  0  0  0
 12  6  1  0  0  0  0
 12 14  1  0  0  0  0
 13 10  1  0  0  0  0
 15 18  1  0  0  0  0
 15 16  1  0  0  0  0
 17 15  1  0  0  0  0
 18 19  1  0  0  0  0
 20 18  1  0  0  0  0
 21 27  1  0  0  0  0
 21 26  1  0  0  0  0
 22 23  1  0  0  0  0
 22 21  2  0  0  0  0
 23 24  2  0  0  0  0
 24 25  1  0  0  0  0
 25 26  2  0  0  0  0
 25 18  1  0  0  0  0
 28 22  1  0  0  0  0
 29 23  1  0  0  0  0
 30 31  1  0  0  0  0
 30  4  1  0  0  0  0
 32 33  1  0  0  0  0
 32 30  1  0  0  0  0
 34 32  1  0  0  0  0
 35 32  1  0  0  0  0
 36 35  1  0  0  0  0
M  END
>  <minimizedAffinity>
-5.65784883

$$$$

 OpenBabel03252501303D

 36 37  0  0  0  0  0  0  0  0999 V2000
   37.0570   29.8560   38.6870 C   0  0  0  0  0  0  0  0  0  0  0  0
   36.8880   31.1930   38.4310 C   0  0  0  0  0  0  0  0  0  0  0  0
   37.8260   31.9870   37.8540 C   0  0  0  0  0  0  0  0  0  0  0  0
   39.0240   31.4180   37.5010 C   0  0  0  0  0  0  0  0  0  0  0  0
   39.2190   30.0720   37.7480 C   0  0  0  0  0  0  0  0  0  0  0  0
   38.2420   29.2920   38.3390 C   0  0  0  0  0  0  0  0  0  0  0  0
   35.9050   31.5860   38.7390 H   0  0  0  0  0  0  0  0  0  0  0  0
   37.5380   33.0210   37.7200 H   0  0  0  0  0  0  0  0  0  0  0  0
   40.2240   29.8000   37.4020 H   0  0  0  0  0  0  0  0  0  0  0  0
   39.6290   27.7310   39.5570 C   0  0  0  0  0  0  0  0  0  0  0  0
   40.1580   28.3460   40.5530 O   0  0  0  0  0  0  0  0  0  0  0  0
   38.7910   27.9710   38.4190 N   0  0  0  0  0  0  0  0  0  0  0  0
   40.0750   26.7770   39.8610 H   0  0  0  0  0  0  0  0  0  0  0  0
   38.7240   27.1140   37.8280 H   0  0  0  0  0  0  0  0  0  0  0  0
   36.1350   28.9050   39.3060 C   0  0  0  0  0  0  0  0  0  0  0  0
   35.2680   28.7780   38.6090 H   0  0  0  0  0  0  0  0  0  0  0  0
   36.5850   27.8770   39.3560 H   0  0  0  0  0  0  0  0  0  0  0  0
   35.7120   29.3550   40.6820 C   0  0  0  0  0  0  0  0  0  0  0  0
   34.6740   29.0180   40.9120 H   0  0  0  0  0  0  0  0  0  0  0  0
   35.7180   30.4660   40.7240 H   0  0  0  0  0  0  0  0  0  0  0  0
   38.1710   28.9330   43.3780 C   0  0  0  0  0  0  0  0  0  0  0  0
   38.2980   27.5230   43.4560 C   0  0  0  0  0  0  0  0  0  0  0  0
   37.5180   26.7730   42.5640 C   0  0  0  0  0  0  0  0  0  0  0  0
   36.7080   27.3960   41.6990 N   0  0  0  0  0  0  0  0  0  0  0  0
   36.6310   28.7470   41.6710 C   0  0  0  0  0  0  0  0  0  0  0  0
   37.3350   29.5010   42.4800 N   0  0  0  0  0  0  0  0  0  0  0  0
   38.7530   29.5680   44.0450 H   0  0  0  0  0  0  0  0  0  0  0  0
   38.9860   27.1710   44.1990 H   0  0  0  0  0  0  0  0  0  0  0  0
   37.6340   25.7170   42.6460 H   0  0  0  0  0  0  0  0  0  0  0  0
   39.9670   32.3220   36.8950 N   0  0  0  0  0  0  0  0  0  0  0  0
   39.6130   32.4930   35.9310 H   0  0  0  0  0  0  0  0  0  0  0  0
   41.3500   32.9250   37.6890 S   0  0  0  0  0  0  0  0  0  0  0  0
   42.2410   31.7530   38.0470 O   0  0  0  0  0  1  0  0  0  0  0  0
   40.9200   33.5820   38.9450 O   0  0  0  0  0  1  0  0  0  0  0  0
   42.2410   33.9880   36.7570 O   0  0  0  0  0  0  0  0  0  0  0  0
   42.7900   34.5690   37.3420 H   0  0  0  0  0  0  0  0  0  0  0  0
  1 15  1  0  0  0  0
  2  1  1  0  0  0  0
  2  7  1  0  0  0  0
  3  2  2  0  0  0  0
  4  5  2  0  0  0  0
  4  3  1  0  0  0  0
  5  6  1  0  0  0  0
  6 12  1  0  0  0  0
  6  1  2  0  0  0  0
  8  3  1  0  0  0  0
  9  5  1  0  0  0  0
 10 13  1  0  0  0  0
 10 11  2  0  0  0  0
 12 10  1  0  0  0  0
 14 12  1  0  0  0  0
 15 17  1  0  0  0  0
 15 18  1  0  0  0  0
 16 15  1  0  0  0  0
 18 20  1  0  0  0  0
 18 19  1  0  0  0  0
 18 25  1  0  0  0  0
 21 22  1  0  0  0  0
 21 27  1  0  0  0  0
 22 28  1  0  0  0  0
 23 29  1  0  0  0  0
 23 22  2  0  0  0  0
 24 23  1  0  0  0  0
 25 24  2  0  0  0  0
 25 26  1  0  0  0  0
 26 21  2  0  0  0  0
 30  4  1  0  0  0  0
 30 32  1  0  0  0  0
 31 30  1  0  0  0  0
 32 33  1  0  0  0  0
 32 34  1  0  0  0  0
 35 36  1  0  0  0  0
 35 32  1  0  0  0  0
M  END
>  <minimizedAffinity>
-5.56358194

$$$$

 OpenBabel03252501303D

 36 37  0  0  0  0  0  0  0  0999 V2000
   36.7340   27.9710   41.9550 C   0  0  0  0  0  0  0  0  0  0  0  0
   35.7730   28.4360   41.0930 C   0  0  0  0  0  0  0  0  0  0  0  0
   35.6910   29.7180   40.6560 C   0  0  0  0  0  0  0  0  0  0  0  0
   36.6310   30.6120   41.1040 C   0  0  0  0  0  0  0  0  0  0  0  0
   37.6110   30.1700   41.9720 C   0  0  0  0  0  0  0  0  0  0  0  0
   37.6650   28.8550   42.3980 C   0  0  0  0  0  0  0  0  0  0  0  0
   35.0500   27.6660   40.7740 H   0  0  0  0  0  0  0  0  0  0  0  0
   34.8730   29.9250   39.9790 H   0  0  0  0  0  0  0  0  0  0  0  0
   38.2630   31.0170   42.2170 H   0  0  0  0  0  0  0  0  0  0  0  0
   40.0730   28.8360   42.6030 C   0  0  0  0  0  0  0  0  0  0  0  0
   40.5850   28.8690   41.4250 O   0  0  0  0  0  0  0  0  0  0  0  0
   38.8030   28.7700   43.2630 N   0  0  0  0  0  0  0  0  0  0  0  0
   41.0620   28.8810   43.0740 H   0  0  0  0  0  0  0  0  0  0  0  0
   38.9330   28.6690   44.2940 H   0  0  0  0  0  0  0  0  0  0  0  0
   36.9220   26.6270   42.5000 C   0  0  0  0  0  0  0  0  0  0  0  0
   37.6030   26.7170   43.3850 H   0  0  0  0  0  0  0  0  0  0  0  0
   35.9680   26.2310   42.9410 H   0  0  0  0  0  0  0  0  0  0  0  0
   37.4490   25.6730   41.4580 C   0  0  0  0  0  0  0  0  0  0  0  0
   37.2780   26.0690   40.4290 H   0  0  0  0  0  0  0  0  0  0  0  0
   36.9050   24.7060   41.5350 H   0  0  0  0  0  0  0  0  0  0  0  0
   41.0600   25.3950   40.8460 C   0  0  0  0  0  0  0  0  0  0  0  0
   41.5780   25.2250   42.1550 C   0  0  0  0  0  0  0  0  0  0  0  0
   40.6450   25.2150   43.2020 C   0  0  0  0  0  0  0  0  0  0  0  0
   39.3420   25.3620   42.9360 N   0  0  0  0  0  0  0  0  0  0  0  0
   38.9070   25.5200   41.6630 C   0  0  0  0  0  0  0  0  0  0  0  0
   39.7310   25.5370   40.6440 N   0  0  0  0  0  0  0  0  0  0  0  0
   41.7370   25.4100   39.9930 H   0  0  0  0  0  0  0  0  0  0  0  0
   42.6430   25.1200   42.2100 H   0  0  0  0  0  0  0  0  0  0  0  0
   41.0630   25.0860   44.1730 H   0  0  0  0  0  0  0  0  0  0  0  0
   36.4780   31.9530   40.5980 N   0  0  0  0  0  0  0  0  0  0  0  0
   35.4540   32.1400   40.6030 H   0  0  0  0  0  0  0  0  0  0  0  0
   37.7820   32.9400   40.1170 S   0  0  0  0  0  0  0  0  0  0  0  0
   37.2190   34.1610   39.4170 O   0  0  0  0  0  1  0  0  0  0  0  0
   38.6070   32.1870   39.1450 O   0  0  0  0  0  1  0  0  0  0  0  0
   38.7260   33.4620   41.3930 O   0  0  0  0  0  0  0  0  0  0  0  0
   39.6300   33.7050   41.0650 H   0  0  0  0  0  0  0  0  0  0  0  0
  1  6  1  0  0  0  0
  1 15  1  0  0  0  0
  2  1  2  0  0  0  0
  3  2  1  0  0  0  0
  3  4  2  0  0  0  0
  4  5  1  0  0  0  0
  5  9  1  0  0  0  0
  5  6  2  0  0  0  0
  6 12  1  0  0  0  0
  7  2  1  0  0  0  0
  8  3  1  0  0  0  0
 10 13  1  0  0  0  0
 10 12  1  0  0  0  0
 11 10  2  0  0  0  0
 12 14  1  0  0  0  0
 15 17  1  0  0  0  0
 15 16  1  0  0  0  0
 18 20  1  0  0  0  0
 18 25  1  0  0  0  0
 18 15  1  0  0  0  0
 19 18  1  0  0  0  0
 21 22  1  0  0  0  0
 22 28  1  0  0  0  0
 22 23  2  0  0  0  0
 23 29  1  0  0  0  0
 24 23  1  0  0  0  0
 25 24  2  0  0  0  0
 26 21  2  0  0  0  0
 26 25  1  0  0  0  0
 27 21  1  0  0  0  0
 30 31  1  0  0  0  0
 30  4  1  0  0  0  0
 32 30  1  0  0  0  0
 32 35  1  0  0  0  0
 33 32  1  0  0  0  0
 34 32  1  0  0  0  0
 36 35  1  0  0  0  0
M  END
>  <minimizedAffinity>
-5.49223995

$$$$

 OpenBabel03252501303D

 36 37  0  0  0  0  0  0  0  0999 V2000
   37.2980   27.6000   42.1320 C   0  0  0  0  0  0  0  0  0  0  0  0
   37.5060   26.2550   41.9550 C   0  0  0  0  0  0  0  0  0  0  0  0
   38.5880   25.5800   42.4170 C   0  0  0  0  0  0  0  0  0  0  0  0
   39.5410   26.2860   43.1080 C   0  0  0  0  0  0  0  0  0  0  0  0
   39.3550   27.6420   43.3020 C   0  0  0  0  0  0  0  0  0  0  0  0
   38.2390   28.2990   42.8170 C   0  0  0  0  0  0  0  0  0  0  0  0
   36.7030   25.7510   41.3910 H   0  0  0  0  0  0  0  0  0  0  0  0
   38.6040   24.5220   42.1930 H   0  0  0  0  0  0  0  0  0  0  0  0
   40.2100   28.0300   43.8690 H   0  0  0  0  0  0  0  0  0  0  0  0
   39.1500   30.4820   42.3200 C   0  0  0  0  0  0  0  0  0  0  0  0
   39.8620   30.3950   41.2530 O   0  0  0  0  0  0  0  0  0  0  0  0
   38.3860   29.6670   43.2170 N   0  0  0  0  0  0  0  0  0  0  0  0
   39.3100   31.5640   42.3830 H   0  0  0  0  0  0  0  0  0  0  0  0
   38.0580   30.2300   44.0320 H   0  0  0  0  0  0  0  0  0  0  0  0
   36.1860   28.4360   41.6800 C   0  0  0  0  0  0  0  0  0  0  0  0
   35.2640   28.0800   42.2060 H   0  0  0  0  0  0  0  0  0  0  0  0
   36.3020   29.4940   42.0400 H   0  0  0  0  0  0  0  0  0  0  0  0
   36.0450   28.4090   40.1790 C   0  0  0  0  0  0  0  0  0  0  0  0
   34.9730   28.3390   39.8780 H   0  0  0  0  0  0  0  0  0  0  0  0
   36.5610   27.5100   39.7760 H   0  0  0  0  0  0  0  0  0  0  0  0
   36.8920   31.9560   39.7370 C   0  0  0  0  0  0  0  0  0  0  0  0
   37.6720   31.9370   38.5530 C   0  0  0  0  0  0  0  0  0  0  0  0
   37.8730   30.6860   37.9550 C   0  0  0  0  0  0  0  0  0  0  0  0
   37.3390   29.5890   38.5060 N   0  0  0  0  0  0  0  0  0  0  0  0
   36.6010   29.6700   39.6380 C   0  0  0  0  0  0  0  0  0  0  0  0
   36.3790   30.8110   40.2430 N   0  0  0  0  0  0  0  0  0  0  0  0
   36.7010   32.9000   40.2460 H   0  0  0  0  0  0  0  0  0  0  0  0
   38.0320   32.8950   38.2340 H   0  0  0  0  0  0  0  0  0  0  0  0
   38.4630   30.7030   37.0680 H   0  0  0  0  0  0  0  0  0  0  0  0
   40.6600   25.5020   43.5660 N   0  0  0  0  0  0  0  0  0  0  0  0
   40.3070   24.9600   44.3820 H   0  0  0  0  0  0  0  0  0  0  0  0
   42.2030   25.5360   42.8430 S   0  0  0  0  0  0  0  0  0  0  0  0
   42.7100   26.9640   42.8730 O   0  0  0  0  0  1  0  0  0  0  0  0
   42.0660   25.1210   41.4280 O   0  0  0  0  0  1  0  0  0  0  0  0
   43.3230   24.5710   43.6210 O   0  0  0  0  0  0  0  0  0  0  0  0
   44.0570   24.3360   42.9970 H   0  0  0  0  0  0  0  0  0  0  0  0
  1  6  1  0  0  0  0
  2  1  2  0  0  0  0
  2  3  1  0  0  0  0
  3  4  2  0  0  0  0
  4  5  1  0  0  0  0
  4 30  1  0  0  0  0
  5  9  1  0  0  0  0
  6 12  1  0  0  0  0
  6  5  2  0  0  0  0
  7  2  1  0  0  0  0
  8  3  1  0  0  0  0
 10 13  1  0  0  0  0
 10 12  1  0  0  0  0
 11 10  2  0  0  0  0
 12 14  1  0  0  0  0
 15 17  1  0  0  0  0
 15  1  1  0  0  0  0
 15 16  1  0  0  0  0
 18 15  1  0  0  0  0
 19 18  1  0  0  0  0
 20 18  1  0  0  0  0
 21 26  1  0  0  0  0
 21 27  1  0  0  0  0
 22 21  2  0  0  0  0
 23 24  2  0  0  0  0
 23 22  1  0  0  0  0
 24 25  1  0  0  0  0
 25 18  1  0  0  0  0
 25 26  2  0  0  0  0
 28 22  1  0  0  0  0
 29 23  1  0  0  0  0
 30 31  1  0  0  0  0
 32 33  1  0  0  0  0
 32 30  1  0  0  0  0
 32 35  1  0  0  0  0
 34 32  1  0  0  0  0
 36 35  1  0  0  0  0
M  END
>  <minimizedAffinity>
-5.31206512

$$$$

 OpenBabel03252501303D

 36 37  0  0  0  0  0  0  0  0999 V2000
   38.6850   28.3210   42.7870 C   0  0  0  0  0  0  0  0  0  0  0  0
   39.6680   27.3740   42.9250 C   0  0  0  0  0  0  0  0  0  0  0  0
   39.4740   26.0400   42.7720 C   0  0  0  0  0  0  0  0  0  0  0  0
   38.2100   25.6050   42.4570 C   0  0  0  0  0  0  0  0  0  0  0  0
   37.2020   26.5390   42.3110 C   0  0  0  0  0  0  0  0  0  0  0  0
   37.4350   27.8930   42.4750 C   0  0  0  0  0  0  0  0  0  0  0  0
   40.6570   27.7920   43.1790 H   0  0  0  0  0  0  0  0  0  0  0  0
   40.3520   25.4250   42.9150 H   0  0  0  0  0  0  0  0  0  0  0  0
   36.2740   26.0090   42.0620 H   0  0  0  0  0  0  0  0  0  0  0  0
   35.8390   28.7120   40.8550 C   0  0  0  0  0  0  0  0  0  0  0  0
   36.3320   28.5530   39.6790 O   0  0  0  0  0  0  0  0  0  0  0  0
   36.1790   28.5380   42.2360 N   0  0  0  0  0  0  0  0  0  0  0  0
   34.8960   29.0960   40.4490 H   0  0  0  0  0  0  0  0  0  0  0  0
   35.4270   28.9240   42.8480 H   0  0  0  0  0  0  0  0  0  0  0  0
   38.7670   29.7740   42.9340 C   0  0  0  0  0  0  0  0  0  0  0  0
   37.7300   30.1810   42.8250 H   0  0  0  0  0  0  0  0  0  0  0  0
   39.0530   30.0600   43.9820 H   0  0  0  0  0  0  0  0  0  0  0  0
   39.7340   30.3790   41.9470 C   0  0  0  0  0  0  0  0  0  0  0  0
   40.4780   29.6230   41.6000 H   0  0  0  0  0  0  0  0  0  0  0  0
   40.3010   31.1980   42.4410 H   0  0  0  0  0  0  0  0  0  0  0  0
   38.5960   30.9280   38.4980 C   0  0  0  0  0  0  0  0  0  0  0  0
   37.4790   31.7820   38.6790 C   0  0  0  0  0  0  0  0  0  0  0  0
   37.1650   32.1320   39.9990 C   0  0  0  0  0  0  0  0  0  0  0  0
   37.9070   31.6630   41.0090 N   0  0  0  0  0  0  0  0  0  0  0  0
   38.9650   30.8510   40.7730 C   0  0  0  0  0  0  0  0  0  0  0  0
   39.3070   30.4880   39.5610 N   0  0  0  0  0  0  0  0  0  0  0  0
   38.8890   30.6220   37.4940 H   0  0  0  0  0  0  0  0  0  0  0  0
   36.9830   32.0740   37.7750 H   0  0  0  0  0  0  0  0  0  0  0  0
   36.3210   32.7740   40.1040 H   0  0  0  0  0  0  0  0  0  0  0  0
   38.0820   24.1780   42.3110 N   0  0  0  0  0  0  0  0  0  0  0  0
   38.2670   23.7810   43.2560 H   0  0  0  0  0  0  0  0  0  0  0  0
   37.7010   23.4040   40.8400 S   0  0  0  0  0  0  0  0  0  0  0  0
   38.4510   24.1070   39.7260 O   0  0  0  0  0  1  0  0  0  0  0  0
   36.2490   23.5570   40.5920 O   0  0  0  0  0  1  0  0  0  0  0  0
   38.1250   21.7880   40.8110 O   0  0  0  0  0  0  0  0  0  0  0  0
   37.5850   21.3110   40.1300 H   0  0  0  0  0  0  0  0  0  0  0  0
  1  2  1  0  0  0  0
  1 15  1  0  0  0  0
  2  7  1  0  0  0  0
  3  8  1  0  0  0  0
  3  2  2  0  0  0  0
  4  3  1  0  0  0  0
  5  4  2  0  0  0  0
  5  6  1  0  0  0  0
  6  1  2  0  0  0  0
  9  5  1  0  0  0  0
 10 12  1  0  0  0  0
 11 10  2  0  0  0  0
 12  6  1  0  0  0  0
 12 14  1  0  0  0  0
 13 10  1  0  0  0  0
 15 17  1  0  0  0  0
 16 15  1  0  0  0  0
 18 20  1  0  0  0  0
 18 15  1  0  0  0  0
 19 18  1  0  0  0  0
 21 22  2  0  0  0  0
 21 26  1  0  0  0  0
 22 23  1  0  0  0  0
 23 29  1  0  0  0  0
 23 24  2  0  0  0  0
 25 24  1  0  0  0  0
 25 18  1  0  0  0  0
 26 25  2  0  0  0  0
 27 21  1  0  0  0  0
 28 22  1  0  0  0  0
 30  4  1  0  0  0  0
 30 31  1  0  0  0  0
 32 30  1  0  0  0  0
 33 32  1  0  0  0  0
 34 32  1  0  0  0  0
 35 32  1  0  0  0  0
 36 35  1  0  0  0  0
M  END
>  <minimizedAffinity>
-5.23654795

$$$$

 OpenBabel03252501303D

 36 37  0  0  0  0  0  0  0  0999 V2000
   37.1680   31.1010   39.7180 C   0  0  0  0  0  0  0  0  0  0  0  0
   37.0610   31.0100   38.3530 C   0  0  0  0  0  0  0  0  0  0  0  0
   38.0270   31.3960   37.4820 C   0  0  0  0  0  0  0  0  0  0  0  0
   39.1900   31.9110   37.9970 C   0  0  0  0  0  0  0  0  0  0  0  0
   39.3240   32.0120   39.3690 C   0  0  0  0  0  0  0  0  0  0  0  0
   38.3180   31.6100   40.2290 C   0  0  0  0  0  0  0  0  0  0  0  0
   36.1020   30.5880   38.0080 H   0  0  0  0  0  0  0  0  0  0  0  0
   37.7880   31.2590   36.4360 H   0  0  0  0  0  0  0  0  0  0  0  0
   40.3090   32.4420   39.5890 H   0  0  0  0  0  0  0  0  0  0  0  0
   39.7530   30.8800   42.0320 C   0  0  0  0  0  0  0  0  0  0  0  0
   40.2820   29.7560   41.7050 O   0  0  0  0  0  0  0  0  0  0  0  0
   38.8140   31.8500   41.5510 N   0  0  0  0  0  0  0  0  0  0  0  0
   40.3200   30.9170   42.9690 H   0  0  0  0  0  0  0  0  0  0  0  0
   38.6510   32.5880   42.2710 H   0  0  0  0  0  0  0  0  0  0  0  0
   36.2030   30.7300   40.7530 C   0  0  0  0  0  0  0  0  0  0  0  0
   36.6470   31.0100   41.7410 H   0  0  0  0  0  0  0  0  0  0  0  0
   35.2780   31.3640   40.6910 H   0  0  0  0  0  0  0  0  0  0  0  0
   35.8380   29.2680   40.6740 C   0  0  0  0  0  0  0  0  0  0  0  0
   35.9670   28.8780   39.6360 H   0  0  0  0  0  0  0  0  0  0  0  0
   34.7670   29.1410   40.9450 H   0  0  0  0  0  0  0  0  0  0  0  0
   37.7150   28.1740   43.6350 C   0  0  0  0  0  0  0  0  0  0  0  0
   38.4390   27.0590   43.1410 C   0  0  0  0  0  0  0  0  0  0  0  0
   38.2430   26.7320   41.7920 C   0  0  0  0  0  0  0  0  0  0  0  0
   37.4060   27.4600   41.0440 N   0  0  0  0  0  0  0  0  0  0  0  0
   36.7420   28.5150   41.5720 C   0  0  0  0  0  0  0  0  0  0  0  0
   36.8850   28.8690   42.8260 N   0  0  0  0  0  0  0  0  0  0  0  0
   37.8280   28.4760   44.6760 H   0  0  0  0  0  0  0  0  0  0  0  0
   39.0700   26.5760   43.8600 H   0  0  0  0  0  0  0  0  0  0  0  0
   38.7990   25.8900   41.4500 H   0  0  0  0  0  0  0  0  0  0  0  0
   40.1670   32.2990   37.0110 N   0  0  0  0  0  0  0  0  0  0  0  0
   39.6230   32.5480   36.1590 H   0  0  0  0  0  0  0  0  0  0  0  0
   41.8480   32.3070   37.2930 S   0  0  0  0  0  0  0  0  0  0  0  0
   42.3640   33.7100   37.0420 O   0  0  0  0  0  1  0  0  0  0  0  0
   42.4910   31.3950   36.3200 O   0  0  0  0  0  1  0  0  0  0  0  0
   42.2630   31.8730   38.8530 O   0  0  0  0  0  0  0  0  0  0  0  0
   43.1980   31.5460   38.8730 H   0  0  0  0  0  0  0  0  0  0  0  0
  1  6  1  0  0  0  0
  1 15  1  0  0  0  0
  2  1  2  0  0  0  0
  3  4  2  0  0  0  0
  3  2  1  0  0  0  0
  4  5  1  0  0  0  0
  5  9  1  0  0  0  0
  5  6  2  0  0  0  0
  6 12  1  0  0  0  0
  7  2  1  0  0  0  0
  8  3  1  0  0  0  0
 10 13  1  0  0  0  0
 11 10  2  0  0  0  0
 12 10  1  0  0  0  0
 12 14  1  0  0  0  0
 15 16  1  0  0  0  0
 17 15  1  0  0  0  0
 18 15  1  0  0  0  0
 18 20  1  0  0  0  0
 18 25  1  0  0  0  0
 19 18  1  0  0  0  0
 21 27  1  0  0  0  0
 22 21  1  0  0  0  0
 22 28  1  0  0  0  0
 23 22  2  0  0  0  0
 24 25  2  0  0  0  0
 24 23  1  0  0  0  0
 25 26  1  0  0  0  0
 26 21  2  0  0  0  0
 29 23  1  0  0  0  0
 30 32  1  0  0  0  0
 30  4  1  0  0  0  0
 31 30  1  0  0  0  0
 32 35  1  0  0  0  0
 33 32  1  0  0  0  0
 34 32  1  0  0  0  0
 35 36  1  0  0  0  0
M  END
>  <minimizedAffinity>
-5.19744349

$$$$

 OpenBabel03252501303D

 36 37  0  0  0  0  0  0  0  0999 V2000
   36.8980   27.6850   41.6140 C   0  0  0  0  0  0  0  0  0  0  0  0
   36.0200   28.1830   40.6840 C   0  0  0  0  0  0  0  0  0  0  0  0
   35.8760   29.5010   40.3960 C   0  0  0  0  0  0  0  0  0  0  0  0
   36.6580   30.3990   41.0780 C   0  0  0  0  0  0  0  0  0  0  0  0
   37.5510   29.9240   42.0200 C   0  0  0  0  0  0  0  0  0  0  0  0
   37.6720   28.5730   42.2890 C   0  0  0  0  0  0  0  0  0  0  0  0
   35.4240   27.4080   40.1740 H   0  0  0  0  0  0  0  0  0  0  0  0
   35.1410   29.7310   39.6370 H   0  0  0  0  0  0  0  0  0  0  0  0
   38.0810   30.7800   42.4560 H   0  0  0  0  0  0  0  0  0  0  0  0
   40.0260   28.3550   42.7960 C   0  0  0  0  0  0  0  0  0  0  0  0
   40.6720   28.2340   41.6910 O   0  0  0  0  0  0  0  0  0  0  0  0
   38.6870   28.4640   43.2940 N   0  0  0  0  0  0  0  0  0  0  0  0
   40.9520   28.3520   43.3810 H   0  0  0  0  0  0  0  0  0  0  0  0
   38.6840   28.4450   44.3380 H   0  0  0  0  0  0  0  0  0  0  0  0
   37.1380   26.3000   42.0170 C   0  0  0  0  0  0  0  0  0  0  0  0
   37.4820   26.3160   43.0830 H   0  0  0  0  0  0  0  0  0  0  0  0
   36.1790   25.7180   42.0590 H   0  0  0  0  0  0  0  0  0  0  0  0
   38.1210   25.6170   41.1000 C   0  0  0  0  0  0  0  0  0  0  0  0
   38.8070   24.9490   41.6740 H   0  0  0  0  0  0  0  0  0  0  0  0
   38.7500   26.3840   40.5970 H   0  0  0  0  0  0  0  0  0  0  0  0
   37.0620   23.9050   38.0280 C   0  0  0  0  0  0  0  0  0  0  0  0
   35.8780   23.2430   38.4420 C   0  0  0  0  0  0  0  0  0  0  0  0
   35.4960   23.4180   39.7790 C   0  0  0  0  0  0  0  0  0  0  0  0
   36.2390   24.1810   40.5910 N   0  0  0  0  0  0  0  0  0  0  0  0
   37.3600   24.7900   40.1370 C   0  0  0  0  0  0  0  0  0  0  0  0
   37.7680   24.6620   38.8980 N   0  0  0  0  0  0  0  0  0  0  0  0
   37.4080   23.8050   37.0000 H   0  0  0  0  0  0  0  0  0  0  0  0
   35.3920   22.6680   37.6790 H   0  0  0  0  0  0  0  0  0  0  0  0
   34.6040   22.9090   40.0610 H   0  0  0  0  0  0  0  0  0  0  0  0
   36.4480   31.7790   40.7180 N   0  0  0  0  0  0  0  0  0  0  0  0
   35.6500   32.1030   41.3040 H   0  0  0  0  0  0  0  0  0  0  0  0
   37.3770   32.6090   39.5550 S   0  0  0  0  0  0  0  0  0  0  0  0
   37.3180   31.8310   38.2560 O   0  0  0  0  0  1  0  0  0  0  0  0
   38.7850   32.6390   40.0150 O   0  0  0  0  0  1  0  0  0  0  0  0
   36.8350   34.1610   39.2560 O   0  0  0  0  0  0  0  0  0  0  0  0
   37.5710   34.7080   38.8800 H   0  0  0  0  0  0  0  0  0  0  0  0
  1 15  1  0  0  0  0
  1  6  1  0  0  0  0
  2  1  2  0  0  0  0
  3  2  1  0  0  0  0
  3  4  2  0  0  0  0
  4  5  1  0  0  0  0
  5  6  2  0  0  0  0
  5  9  1  0  0  0  0
  6 12  1  0  0  0  0
  7  2  1  0  0  0  0
  8  3  1  0  0  0  0
 10 12  1  0  0  0  0
 10 13  1  0  0  0  0
 11 10  2  0  0  0  0
 12 14  1  0  0  0  0
 15 17  1  0  0  0  0
 15 16  1  0  0  0  0
 18 19  1  0  0  0  0
 18 15  1  0  0  0  0
 20 18  1  0  0  0  0
 21 22  2  0  0  0  0
 21 26  1  0  0  0  0
 22 23  1  0  0  0  0
 23 29  1  0  0  0  0
 23 24  2  0  0  0  0
 25 24  1  0  0  0  0
 25 18  1  0  0  0  0
 26 25  2  0  0  0  0
 27 21  1  0  0  0  0
 28 22  1  0  0  0  0
 30  4  1  0  0  0  0
 30 31  1  0  0  0  0
 32 34  1  0  0  0  0
 32 30  1  0  0  0  0
 33 32  1  0  0  0  0
 35 32  1  0  0  0  0
 36 35  1  0  0  0  0
M  END
>  <minimizedAffinity>
-5.16960812

$$$$

 OpenBabel03252501303D

 36 37  0  0  0  0  0  0  0  0999 V2000
   38.0870   27.4700   42.5300 C   0  0  0  0  0  0  0  0  0  0  0  0
   39.3970   27.7270   42.8480 C   0  0  0  0  0  0  0  0  0  0  0  0
   39.9630   28.9610   42.8310 C   0  0  0  0  0  0  0  0  0  0  0  0
   39.1740   30.0250   42.4710 C   0  0  0  0  0  0  0  0  0  0  0  0
   37.8510   29.7940   42.1480 C   0  0  0  0  0  0  0  0  0  0  0  0
   37.3070   28.5230   42.1760 C   0  0  0  0  0  0  0  0  0  0  0  0
   39.9730   26.8280   43.1270 H   0  0  0  0  0  0  0  0  0  0  0  0
   41.0080   28.9950   43.1070 H   0  0  0  0  0  0  0  0  0  0  0  0
   37.3860   30.7540   41.8900 H   0  0  0  0  0  0  0  0  0  0  0  0
   35.6850   28.6570   40.3880 C   0  0  0  0  0  0  0  0  0  0  0  0
   36.3100   28.6260   39.2660 O   0  0  0  0  0  0  0  0  0  0  0  0
   35.9330   28.6770   41.7990 N   0  0  0  0  0  0  0  0  0  0  0  0
   34.7100   28.6670   39.8870 H   0  0  0  0  0  0  0  0  0  0  0  0
   35.0400   28.8040   42.3240 H   0  0  0  0  0  0  0  0  0  0  0  0
   37.3700   26.1970   42.5040 C   0  0  0  0  0  0  0  0  0  0  0  0
   36.7640   26.1340   43.4440 H   0  0  0  0  0  0  0  0  0  0  0  0
   36.5960   26.1840   41.6910 H   0  0  0  0  0  0  0  0  0  0  0  0
   38.3130   25.0310   42.3440 C   0  0  0  0  0  0  0  0  0  0  0  0
   38.4150   24.4630   43.2990 H   0  0  0  0  0  0  0  0  0  0  0  0
   39.3230   25.4080   42.0730 H   0  0  0  0  0  0  0  0  0  0  0  0
   37.9460   22.3020   39.9130 C   0  0  0  0  0  0  0  0  0  0  0  0
   36.6310   22.5060   39.4220 C   0  0  0  0  0  0  0  0  0  0  0  0
   35.9220   23.5890   39.9610 C   0  0  0  0  0  0  0  0  0  0  0  0
   36.4940   24.3660   40.8890 N   0  0  0  0  0  0  0  0  0  0  0  0
   37.7550   24.1210   41.3170 C   0  0  0  0  0  0  0  0  0  0  0  0
   38.4670   23.1240   40.8510 N   0  0  0  0  0  0  0  0  0  0  0  0
   38.5460   21.4760   39.5310 H   0  0  0  0  0  0  0  0  0  0  0  0
   36.3110   21.8020   38.6810 H   0  0  0  0  0  0  0  0  0  0  0  0
   34.9380   23.7170   39.5740 H   0  0  0  0  0  0  0  0  0  0  0  0
   39.8440   31.3010   42.4750 N   0  0  0  0  0  0  0  0  0  0  0  0
   40.2040   31.4260   43.4450 H   0  0  0  0  0  0  0  0  0  0  0  0
   39.9610   32.3170   41.1120 S   0  0  0  0  0  0  0  0  0  0  0  0
   38.6580   33.0800   40.9750 O   0  0  0  0  0  1  0  0  0  0  0  0
   40.1310   31.4690   39.9090 O   0  0  0  0  0  1  0  0  0  0  0  0
   41.2050   33.4280   41.2150 O   0  0  0  0  0  0  0  0  0  0  0  0
   41.4630   33.7300   40.3070 H   0  0  0  0  0  0  0  0  0  0  0  0
  1  2  1  0  0  0  0
  2  7  1  0  0  0  0
  3  2  2  0  0  0  0
  3  8  1  0  0  0  0
  4 30  1  0  0  0  0
  4  3  1  0  0  0  0
  5  6  1  0  0  0  0
  5  4  2  0  0  0  0
  6  1  2  0  0  0  0
  9  5  1  0  0  0  0
 10 12  1  0  0  0  0
 11 10  2  0  0  0  0
 12  6  1  0  0  0  0
 12 14  1  0  0  0  0
 13 10  1  0  0  0  0
 15  1  1  0  0  0  0
 15 16  1  0  0  0  0
 17 15  1  0  0  0  0
 18 15  1  0  0  0  0
 18 19  1  0  0  0  0
 20 18  1  0  0  0  0
 21 26  1  0  0  0  0
 22 21  2  0  0  0  0
 22 23  1  0  0  0  0
 23 24  2  0  0  0  0
 24 25  1  0  0  0  0
 25 18  1  0  0  0  0
 26 25  2  0  0  0  0
 27 21  1  0  0  0  0
 28 22  1  0  0  0  0
 29 23  1  0  0  0  0
 30 31  1  0  0  0  0
 32 35  1  0  0  0  0
 32 30  1  0  0  0  0
 33 32  1  0  0  0  0
 34 32  1  0  0  0  0
 36 35  1  0  0  0  0
M  END
>  <minimizedAffinity>
-5.09302187

$$$$

 OpenBabel03252501303D

 36 37  0  0  0  0  0  0  0  0999 V2000
   36.6190   27.6950   41.5640 C   0  0  0  0  0  0  0  0  0  0  0  0
   36.8420   26.5630   40.8210 C   0  0  0  0  0  0  0  0  0  0  0  0
   36.5440   26.4400   39.5030 C   0  0  0  0  0  0  0  0  0  0  0  0
   35.9830   27.5190   38.8660 C   0  0  0  0  0  0  0  0  0  0  0  0
   35.7500   28.6720   39.5910 C   0  0  0  0  0  0  0  0  0  0  0  0
   36.0650   28.7630   40.9350 C   0  0  0  0  0  0  0  0  0  0  0  0
   37.2930   25.7350   41.3940 H   0  0  0  0  0  0  0  0  0  0  0  0
   36.7800   25.4810   39.0630 H   0  0  0  0  0  0  0  0  0  0  0  0
   35.3020   29.4170   38.9210 H   0  0  0  0  0  0  0  0  0  0  0  0
   36.4860   31.1370   40.7540 C   0  0  0  0  0  0  0  0  0  0  0  0
   37.5210   31.3130   40.0130 O   0  0  0  0  0  0  0  0  0  0  0  0
   35.6990   30.0890   41.3340 N   0  0  0  0  0  0  0  0  0  0  0  0
   36.3230   32.2160   40.8480 H   0  0  0  0  0  0  0  0  0  0  0  0
   34.9720   30.4880   41.9670 H   0  0  0  0  0  0  0  0  0  0  0  0
   36.8870   27.9460   42.9790 C   0  0  0  0  0  0  0  0  0  0  0  0
   36.7230   29.0380   43.1630 H   0  0  0  0  0  0  0  0  0  0  0  0
   36.1180   27.4510   43.6310 H   0  0  0  0  0  0  0  0  0  0  0  0
   38.2710   27.4920   43.3720 C   0  0  0  0  0  0  0  0  0  0  0  0
   38.5660   26.5730   42.8120 H   0  0  0  0  0  0  0  0  0  0  0  0
   38.2820   27.2380   44.4540 H   0  0  0  0  0  0  0  0  0  0  0  0
   39.7170   30.7990   42.6920 C   0  0  0  0  0  0  0  0  0  0  0  0
   41.0680   30.4860   42.3990 C   0  0  0  0  0  0  0  0  0  0  0  0
   41.4230   29.1310   42.4520 C   0  0  0  0  0  0  0  0  0  0  0  0
   40.5030   28.2120   42.7670 N   0  0  0  0  0  0  0  0  0  0  0  0
   39.2260   28.5720   43.0350 C   0  0  0  0  0  0  0  0  0  0  0  0
   38.8340   29.8230   43.0020 N   0  0  0  0  0  0  0  0  0  0  0  0
   39.3820   31.8360   42.6660 H   0  0  0  0  0  0  0  0  0  0  0  0
   41.6870   31.3290   42.1650 H   0  0  0  0  0  0  0  0  0  0  0  0
   42.4440   28.9260   42.2280 H   0  0  0  0  0  0  0  0  0  0  0  0
   35.6940   27.3130   37.4700 N   0  0  0  0  0  0  0  0  0  0  0  0
   36.6130   27.3670   36.9830 H   0  0  0  0  0  0  0  0  0  0  0  0
   34.1280   27.0450   36.8530 S   0  0  0  0  0  0  0  0  0  0  0  0
   33.7110   25.6330   37.2140 O   0  0  0  0  0  1  0  0  0  0  0  0
   34.1810   27.1500   35.3770 O   0  0  0  0  0  1  0  0  0  0  0  0
   32.9830   28.0970   37.4660 O   0  0  0  0  0  0  0  0  0  0  0  0
   32.2120   28.1530   36.8460 H   0  0  0  0  0  0  0  0  0  0  0  0
  1 15  1  0  0  0  0
  2  7  1  0  0  0  0
  2  1  2  0  0  0  0
  3  2  1  0  0  0  0
  4  3  2  0  0  0  0
  4  5  1  0  0  0  0
  5  6  2  0  0  0  0
  6 12  1  0  0  0  0
  6  1  1  0  0  0  0
  8  3  1  0  0  0  0
  9  5  1  0  0  0  0
 10 13  1  0  0  0  0
 10 12  1  0  0  0  0
 11 10  2  0  0  0  0
 12 14  1  0  0  0  0
 15 16  1  0  0  0  0
 15 18  1  0  0  0  0
 15 17  1  0  0  0  0
 18 20  1  0  0  0  0
 19 18  1  0  0  0  0
 21 26  1  0  0  0  0
 22 23  1  0  0  0  0
 22 21  2  0  0  0  0
 23 24  2  0  0  0  0
 24 25  1  0  0  0  0
 25 18  1  0  0  0  0
 26 25  2  0  0  0  0
 27 21  1  0  0  0  0
 28 22  1  0  0  0  0
 29 23  1  0  0  0  0
 30  4  1  0  0  0  0
 31 30  1  0  0  0  0
 32 33  1  0  0  0  0
 32 35  1  0  0  0  0
 32 30  1  0  0  0  0
 34 32  1  0  0  0  0
 36 35  1  0  0  0  0
M  END
>  <minimizedAffinity>
-5.07190943

$$$$
