
 OpenBabel03242521413D

 32 33  0  0  1  0  0  0  0  0999 V2000
   45.3160   34.8720   43.6080 C   0  0  0  0  0  0  0  0  0  0  0  0
   46.4220   34.2050   43.0970 C   0  0  0  0  0  0  0  0  0  0  0  0
   47.1450   33.3740   43.9530 C   0  0  0  0  0  0  0  0  0  0  0  0
   46.7360   33.2610   45.2380 N   0  0  0  0  0  0  0  0  0  0  0  0
   45.6480   33.9290   45.7040 C   0  0  0  0  0  0  0  0  0  0  0  0
   44.9390   34.7320   44.8960 N   0  0  0  0  0  0  0  0  0  0  0  0
   46.6780   34.3880   42.0780 H   0  0  0  0  0  0  0  0  0  0  0  0
   45.3250   33.7410   46.7260 H   0  0  0  0  0  0  0  0  0  0  0  0
   49.1630   33.5400   42.5090 C   0  0  2  0  0  0  0  0  0  0  0  0
   48.3010   32.6730   43.4060 C   0  0  2  0  0  0  0  0  0  0  0  0
   47.9880   31.6460   42.5180 O   0  0  0  0  0  0  0  0  0  0  0  0
   49.1960   31.2750   41.9760 C   0  0  0  0  0  0  0  0  0  0  0  0
   50.1350   32.4530   42.0280 C   0  0  1  0  0  0  0  0  0  0  0  0
   48.6450   33.8780   41.6020 H   0  0  0  0  0  0  0  0  0  0  0  0
   48.9780   32.3050   44.2160 H   0  0  0  0  0  0  0  0  0  0  0  0
   49.6060   30.4080   42.5480 H   0  0  0  0  0  0  0  0  0  0  0  0
   49.0840   30.9110   40.9310 H   0  0  0  0  0  0  0  0  0  0  0  0
   50.8820   32.3090   42.8240 H   0  0  0  0  0  0  0  0  0  0  0  0
   49.8060   34.5470   43.2080 O   0  0  0  0  0  0  0  0  0  0  0  0
   49.7000   34.3500   44.1670 H   0  0  0  0  0  0  0  0  0  0  0  0
   50.6550   32.8150   40.8070 O   0  0  0  0  0  0  0  0  0  0  0  0
   51.0770   32.0180   40.3790 H   0  0  0  0  0  0  0  0  0  0  0  0
   44.5260   35.8010   42.7140 C   0  0  0  0  0  0  0  0  0  0  0  0
   44.7880   35.5190   41.6650 H   0  0  0  0  0  0  0  0  0  0  0  0
   44.9170   36.8060   42.9010 H   0  0  0  0  0  0  0  0  0  0  0  0
   43.1140   35.7060   42.9960 N   0  0  0  0  0  0  0  0  0  0  0  0
   42.9820   34.9240   43.7090 H   0  0  0  0  0  0  0  0  0  0  0  0
   42.3360   35.1300   41.5500 S   0  0  0  0  0  0  0  0  0  0  0  0
   43.3340   35.2080   40.4060 O   0  0  0  0  0  0  0  0  0  0  0  0
   41.1190   35.9610   41.2180 O   0  0  0  0  0  0  0  0  0  0  0  0
   41.8190   33.5420   41.7000 O   0  0  0  0  0  0  0  0  0  0  0  0
   42.1930   32.9880   40.9610 H   0  0  0  0  0  0  0  0  0  0  0  0
  1  6  1  0  0  0  0
  2  1  2  0  0  0  0
  2  3  1  0  0  0  0
  3  4  2  0  0  0  0
  4  5  1  0  0  0  0
  5  8  1  0  0  0  0
  6  5  2  0  0  0  0
  7  2  1  0  0  0  0
  9 14  1  6  0  0  0
  9 19  1  0  0  0  0
  9 10  1  0  0  0  0
 10  3  1  0  0  0  0
 10 15  1  1  0  0  0
 11 10  1  0  0  0  0
 12 13  1  0  0  0  0
 12 11  1  0  0  0  0
 12 16  1  0  0  0  0
 13  9  1  0  0  0  0
 13 18  1  1  0  0  0
 17 12  1  0  0  0  0
 19 20  1  0  0  0  0
 21 13  1  0  0  0  0
 22 21  1  0  0  0  0
 23 25  1  0  0  0  0
 23 26  1  0  0  0  0
 23  1  1  0  0  0  0
 24 23  1  0  0  0  0
 26 27  1  0  0  0  0
 28 31  1  0  0  0  0
 28 26  1  0  0  0  0
 29 28  1  0  0  0  0
 30 28  1  0  0  0  0
 32 31  1  0  0  0  0
M  END
>  <minimizedAffinity>
-5.39369154

>  <minimizedRMSD>
1.24631882

$$$$
