
 OpenBabel03252508423D

 29 30  0  0  0  0  0  0  0  0999 V2000
   42.2070   34.1730   40.1950 C   0  0  0  0  0  0  0  0  0  0  0  0
   42.2900   35.1400   41.1900 C   0  0  0  0  0  0  0  0  0  0  0  0
   41.2380   36.0210   41.3430 C   0  0  0  0  0  0  0  0  0  0  0  0
   40.1470   35.9320   40.5290 C   0  0  0  0  0  0  0  0  0  0  0  0
   40.0340   34.9960   39.5430 C   0  0  0  0  0  0  0  0  0  0  0  0
   41.1120   34.1300   39.4200 C   0  0  0  0  0  0  0  0  0  0  0  0
   41.2400   36.7950   42.0970 H   0  0  0  0  0  0  0  0  0  0  0  0
   39.3170   36.6240   40.6460 H   0  0  0  0  0  0  0  0  0  0  0  0
   39.2090   34.8560   38.8560 H   0  0  0  0  0  0  0  0  0  0  0  0
   41.1260   33.3410   38.6640 H   0  0  0  0  0  0  0  0  0  0  0  0
   44.6140   31.2930   40.5930 C   0  0  0  0  0  0  0  0  0  0  0  0
   43.4700   32.0920   40.7870 C   0  0  0  0  0  0  0  0  0  0  0  0
   43.3440   33.2690   40.0740 C   0  0  0  0  0  0  0  0  0  0  0  0
   44.3440   33.5930   39.2170 N   0  0  0  0  0  0  0  0  0  0  0  0
   45.4380   32.8180   39.0380 C   0  0  0  0  0  0  0  0  0  0  0  0
   45.5700   31.6720   39.7250 N   0  0  0  0  0  0  0  0  0  0  0  0
   44.5650   30.4120   41.2170 H   0  0  0  0  0  0  0  0  0  0  0  0
   42.6530   31.8850   41.4500 H   0  0  0  0  0  0  0  0  0  0  0  0
   46.2260   33.0870   38.3520 H   0  0  0  0  0  0  0  0  0  0  0  0
   43.4910   35.2160   42.0680 C   0  0  0  0  0  0  0  0  0  0  0  0
   44.1590   35.9800   41.5950 H   0  0  0  0  0  0  0  0  0  0  0  0
   44.0110   34.2580   42.0540 H   0  0  0  0  0  0  0  0  0  0  0  0
   43.2190   35.6690   43.4010 N   0  0  0  0  0  0  0  0  0  0  0  0
   42.5720   36.4470   43.4770 H   0  0  0  0  0  0  0  0  0  0  0  0
   44.6490   35.8470   44.3410 S   0  0  0  0  0  0  0  0  0  0  0  0
   45.8210   35.2090   43.6530 O   0  0  0  0  0  1  0  0  0  0  0  0
   44.4870   35.3040   45.7100 O   0  0  0  0  0  1  0  0  0  0  0  0
   44.9380   37.5120   44.4390 O   0  0  0  0  0  0  0  0  0  0  0  0
   44.9270   37.9320   43.5400 H   0  0  0  0  0  0  0  0  0  0  0  0
  1  2  1  0  0  0  0
  2  3  2  0  0  0  0
  2 20  1  0  0  0  0
  3  7  1  0  0  0  0
  4  8  1  0  0  0  0
  4  3  1  0  0  0  0
  5  4  2  0  0  0  0
  6  5  1  0  0  0  0
  6  1  2  0  0  0  0
  9  5  1  0  0  0  0
 10  6  1  0  0  0  0
 11 12  1  0  0  0  0
 11 17  1  0  0  0  0
 12 18  1  0  0  0  0
 13  1  1  0  0  0  0
 13 12  2  0  0  0  0
 14 13  1  0  0  0  0
 15 14  2  0  0  0  0
 15 16  1  0  0  0  0
 16 11  2  0  0  0  0
 19 15  1  0  0  0  0
 20 23  1  0  0  0  0
 21 20  1  0  0  0  0
 22 20  1  0  0  0  0
 23 24  1  0  0  0  0
 23 25  1  0  0  0  0
 25 28  1  0  0  0  0
 25 27  1  0  0  0  0
 26 25  1  0  0  0  0
 29 28  1  0  0  0  0
M  END
>  <minimizedAffinity>
-5.21024036

>  <minimizedRMSD>
6.23218632

$$$$
