
 OpenBabel03242513323D

 35 37  0  0  0  0  0  0  0  0999 V2000
   38.6780   31.6140   41.2890 C   0  0  0  0  0  0  0  0  0  0  0  0
   37.9650   30.4290   41.1900 C   0  0  0  0  0  0  0  0  0  0  0  0
   36.9690   30.3810   40.2740 C   0  0  0  0  0  0  0  0  0  0  0  0
   36.6540   31.4610   39.4550 C   0  0  0  0  0  0  0  0  0  0  0  0
   37.3700   32.6350   39.5630 C   0  0  0  0  0  0  0  0  0  0  0  0
   38.4060   32.7240   40.4970 C   0  0  0  0  0  0  0  0  0  0  0  0
   36.4130   29.4630   40.1930 H   0  0  0  0  0  0  0  0  0  0  0  0
   35.8590   31.4270   38.7230 H   0  0  0  0  0  0  0  0  0  0  0  0
   37.2010   33.5270   38.9730 H   0  0  0  0  0  0  0  0  0  0  0  0
   37.8530   27.7150   43.7930 C   0  0  0  0  0  0  0  0  0  0  0  0
   37.4680   28.7710   42.9620 C   0  0  0  0  0  0  0  0  0  0  0  0
   38.3290   29.3400   42.0600 C   0  0  0  0  0  0  0  0  0  0  0  0
   39.5800   28.7930   42.0420 N   0  0  0  0  0  0  0  0  0  0  0  0
   39.9750   27.7770   42.8310 C   0  0  0  0  0  0  0  0  0  0  0  0
   39.1060   27.2390   43.7080 N   0  0  0  0  0  0  0  0  0  0  0  0
   37.1750   27.2700   44.5000 H   0  0  0  0  0  0  0  0  0  0  0  0
   36.4460   29.1410   43.0480 H   0  0  0  0  0  0  0  0  0  0  0  0
   40.9820   27.3880   42.7680 H   0  0  0  0  0  0  0  0  0  0  0  0
   39.7050   31.7160   42.2090 O   0  0  0  0  0  0  0  0  0  0  0  0
   39.5830   32.3590   42.9910 H   0  0  0  0  0  0  0  0  0  0  0  0
   39.1490   33.8650   40.6450 O   0  0  0  0  0  0  0  0  0  0  0  0
   40.1580   34.2640   39.8450 C   0  0  0  0  0  0  0  0  0  0  0  0
   40.7180   35.5050   39.6400 C   0  0  0  0  0  0  0  0  0  0  0  0
   41.7400   35.6280   38.7650 C   0  0  0  0  0  0  0  0  0  0  0  0
   42.1840   34.4530   38.1000 C   0  0  0  0  0  0  0  0  0  0  0  0
   41.0810   33.1600   38.7740 S   0  0  0  0  0  0  0  0  0  0  0  0
   40.3140   36.3420   40.1900 H   0  0  0  0  0  0  0  0  0  0  0  0
   42.2550   36.5270   38.5200 H   0  0  0  0  0  0  0  0  0  0  0  0
   43.1940   34.2750   37.1670 N   0  0  0  0  0  0  0  0  0  0  0  0
   43.0400   34.6310   36.1780 H   0  0  0  0  0  0  0  0  0  0  0  0
   44.7370   33.5200   37.4080 S   0  0  0  0  0  0  0  0  0  0  0  0
   44.4690   32.0490   37.5940 O   0  0  0  0  0  1  0  0  0  0  0  0
   45.2950   34.0760   38.6920 O   0  0  0  0  0  1  0  0  0  0  0  0
   45.7890   33.8020   36.1350 O   0  0  0  0  0  0  0  0  0  0  0  0
   46.6970   33.9030   36.5440 H   0  0  0  0  0  0  0  0  0  0  0  0
  1 19  1  0  0  0  0
  2  1  1  0  0  0  0
  2 12  1  0  0  0  0
  3  2  2  0  0  0  0
  4  5  2  0  0  0  0
  4  3  1  0  0  0  0
  5  6  1  0  0  0  0
  6 21  1  0  0  0  0
  6  1  2  0  0  0  0
  7  3  1  0  0  0  0
  8  4  1  0  0  0  0
  9  5  1  0  0  0  0
 10 16  1  0  0  0  0
 11 17  1  0  0  0  0
 11 10  2  0  0  0  0
 12 11  1  0  0  0  0
 13 12  2  0  0  0  0
 13 14  1  0  0  0  0
 14 15  2  0  0  0  0
 15 10  1  0  0  0  0
 18 14  1  0  0  0  0
 19 20  1  0  0  0  0
 22 21  1  0  0  0  0
 23 22  2  0  0  0  0
 23 27  1  0  0  0  0
 24 23  1  0  0  0  0
 25 24  2  0  0  0  0
 25 26  1  0  0  0  0
 26 22  1  0  0  0  0
 28 24  1  0  0  0  0
 29 31  1  0  0  0  0
 29 25  1  0  0  0  0
 30 29  1  0  0  0  0
 31 32  1  0  0  0  0
 31 33  1  0  0  0  0
 34 35  1  0  0  0  0
 34 31  1  0  0  0  0
M  END
>  <minimizedAffinity>
-6.2513504

$$$$

 OpenBabel03242513323D

 35 37  0  0  0  0  0  0  0  0999 V2000
   38.5360   31.2520   41.6170 C   0  0  0  0  0  0  0  0  0  0  0  0
   38.1520   32.0970   40.5880 C   0  0  0  0  0  0  0  0  0  0  0  0
   36.9960   31.8060   39.9470 C   0  0  0  0  0  0  0  0  0  0  0  0
   36.2080   30.7110   40.2880 C   0  0  0  0  0  0  0  0  0  0  0  0
   36.6000   29.8770   41.3140 C   0  0  0  0  0  0  0  0  0  0  0  0
   37.7880   30.1440   42.0000 C   0  0  0  0  0  0  0  0  0  0  0  0
   36.6940   32.4590   39.1470 H   0  0  0  0  0  0  0  0  0  0  0  0
   35.2840   30.4740   39.7790 H   0  0  0  0  0  0  0  0  0  0  0  0
   36.0570   29.0030   41.6520 H   0  0  0  0  0  0  0  0  0  0  0  0
   39.4690   35.5890   40.1100 C   0  0  0  0  0  0  0  0  0  0  0  0
   38.6200   34.5240   40.4270 C   0  0  0  0  0  0  0  0  0  0  0  0
   39.0020   33.2170   40.2730 C   0  0  0  0  0  0  0  0  0  0  0  0
   40.2670   33.0450   39.7900 N   0  0  0  0  0  0  0  0  0  0  0  0
   41.1030   34.0520   39.4780 C   0  0  0  0  0  0  0  0  0  0  0  0
   40.6990   35.3270   39.6400 N   0  0  0  0  0  0  0  0  0  0  0  0
   39.1670   36.6140   40.2320 H   0  0  0  0  0  0  0  0  0  0  0  0
   37.6260   34.7600   40.8070 H   0  0  0  0  0  0  0  0  0  0  0  0
   42.0960   33.8480   39.0990 H   0  0  0  0  0  0  0  0  0  0  0  0
   39.7090   31.5050   42.3040 O   0  0  0  0  0  0  0  0  0  0  0  0
   40.4750   30.8380   42.2030 H   0  0  0  0  0  0  0  0  0  0  0  0
   38.2240   29.3490   43.0270 O   0  0  0  0  0  0  0  0  0  0  0  0
   38.6040   28.0590   42.9250 C   0  0  0  0  0  0  0  0  0  0  0  0
   39.8210   27.4520   43.1380 C   0  0  0  0  0  0  0  0  0  0  0  0
   39.9280   26.1170   42.9610 C   0  0  0  0  0  0  0  0  0  0  0  0
   38.7620   25.4080   42.5630 C   0  0  0  0  0  0  0  0  0  0  0  0
   37.5010   26.7270   42.4470 S   0  0  0  0  0  0  0  0  0  0  0  0
   40.6520   28.0720   43.4390 H   0  0  0  0  0  0  0  0  0  0  0  0
   40.8080   25.5320   43.0930 H   0  0  0  0  0  0  0  0  0  0  0  0
   38.5730   24.0580   42.3100 N   0  0  0  0  0  0  0  0  0  0  0  0
   38.8040   23.3600   43.0770 H   0  0  0  0  0  0  0  0  0  0  0  0
   37.9840   23.3270   40.8510 S   0  0  0  0  0  0  0  0  0  0  0  0
   38.7030   24.0040   39.7140 O   0  0  0  0  0  1  0  0  0  0  0  0
   36.5180   23.6580   40.7620 O   0  0  0  0  0  1  0  0  0  0  0  0
   38.2180   21.6680   40.8320 O   0  0  0  0  0  0  0  0  0  0  0  0
   37.4180   21.2810   40.3730 H   0  0  0  0  0  0  0  0  0  0  0  0
  1  6  1  0  0  0  0
  1 19  1  0  0  0  0
  2  1  2  0  0  0  0
  3  4  2  0  0  0  0
  3  2  1  0  0  0  0
  4  5  1  0  0  0  0
  5  9  1  0  0  0  0
  5  6  2  0  0  0  0
  6 21  1  0  0  0  0
  7  3  1  0  0  0  0
  8  4  1  0  0  0  0
 10 16  1  0  0  0  0
 10 11  1  0  0  0  0
 11 17  1  0  0  0  0
 12 11  2  0  0  0  0
 12  2  1  0  0  0  0
 13 12  1  0  0  0  0
 14 15  1  0  0  0  0
 14 13  2  0  0  0  0
 15 10  2  0  0  0  0
 18 14  1  0  0  0  0
 20 19  1  0  0  0  0
 22 21  1  0  0  0  0
 22 23  2  0  0  0  0
 23 27  1  0  0  0  0
 24 28  1  0  0  0  0
 24 23  1  0  0  0  0
 25 24  2  0  0  0  0
 26 25  1  0  0  0  0
 26 22  1  0  0  0  0
 29 25  1  0  0  0  0
 29 30  1  0  0  0  0
 31 29  1  0  0  0  0
 32 31  1  0  0  0  0
 33 31  1  0  0  0  0
 34 31  1  0  0  0  0
 35 34  1  0  0  0  0
M  END
>  <minimizedAffinity>
-6.21451902

$$$$

 OpenBabel03242513323D

 35 37  0  0  0  0  0  0  0  0999 V2000
   37.5550   30.3870   40.6420 C   0  0  0  0  0  0  0  0  0  0  0  0
   37.2390   29.1710   40.0570 C   0  0  0  0  0  0  0  0  0  0  0  0
   36.7770   29.1980   38.7840 C   0  0  0  0  0  0  0  0  0  0  0  0
   36.6190   30.3830   38.0720 C   0  0  0  0  0  0  0  0  0  0  0  0
   36.9370   31.5870   38.6650 C   0  0  0  0  0  0  0  0  0  0  0  0
   37.4160   31.6000   39.9780 C   0  0  0  0  0  0  0  0  0  0  0  0
   36.5310   28.2570   38.3260 H   0  0  0  0  0  0  0  0  0  0  0  0
   36.2510   30.4100   37.0560 H   0  0  0  0  0  0  0  0  0  0  0  0
   36.8490   32.5580   38.1950 H   0  0  0  0  0  0  0  0  0  0  0  0
   38.3690   25.7770   41.2220 C   0  0  0  0  0  0  0  0  0  0  0  0
   38.2160   26.9280   40.4430 C   0  0  0  0  0  0  0  0  0  0  0  0
   37.4200   27.9720   40.8360 C   0  0  0  0  0  0  0  0  0  0  0  0
   36.7970   27.7950   42.0370 N   0  0  0  0  0  0  0  0  0  0  0  0
   36.9270   26.6970   42.8050 C   0  0  0  0  0  0  0  0  0  0  0  0
   37.7170   25.6880   42.3930 N   0  0  0  0  0  0  0  0  0  0  0  0
   38.9950   24.9590   40.9130 H   0  0  0  0  0  0  0  0  0  0  0  0
   38.7550   26.9790   39.4970 H   0  0  0  0  0  0  0  0  0  0  0  0
   36.4050   26.6190   43.7490 H   0  0  0  0  0  0  0  0  0  0  0  0
   38.0290   30.4150   41.9400 O   0  0  0  0  0  0  0  0  0  0  0  0
   37.4400   30.8430   42.6550 H   0  0  0  0  0  0  0  0  0  0  0  0
   37.7470   32.7670   40.6140 O   0  0  0  0  0  0  0  0  0  0  0  0
   38.8270   33.5320   40.3570 C   0  0  0  0  0  0  0  0  0  0  0  0
   38.9950   34.8990   40.3660 C   0  0  0  0  0  0  0  0  0  0  0  0
   40.2080   35.4130   40.0650 C   0  0  0  0  0  0  0  0  0  0  0  0
   41.2520   34.5020   39.7520 C   0  0  0  0  0  0  0  0  0  0  0  0
   40.4340   32.8740   39.9050 S   0  0  0  0  0  0  0  0  0  0  0  0
   38.1430   35.5130   40.6160 H   0  0  0  0  0  0  0  0  0  0  0  0
   40.4650   36.4460   40.0380 H   0  0  0  0  0  0  0  0  0  0  0  0
   42.5760   34.7340   39.4100 N   0  0  0  0  0  0  0  0  0  0  0  0
   43.1370   35.4220   39.9920 H   0  0  0  0  0  0  0  0  0  0  0  0
   43.4730   34.0190   38.1080 S   0  0  0  0  0  0  0  0  0  0  0  0
   43.3970   32.5270   38.3050 O   0  0  0  0  0  1  0  0  0  0  0  0
   44.9040   34.4570   38.2760 O   0  0  0  0  0  1  0  0  0  0  0  0
   42.8860   34.4770   36.6070 O   0  0  0  0  0  0  0  0  0  0  0  0
   43.6870   34.5700   36.0140 H   0  0  0  0  0  0  0  0  0  0  0  0
  1 19  1  0  0  0  0
  2  1  1  0  0  0  0
  2 12  1  0  0  0  0
  3  2  2  0  0  0  0
  4  5  2  0  0  0  0
  4  3  1  0  0  0  0
  5  6  1  0  0  0  0
  6 21  1  0  0  0  0
  6  1  2  0  0  0  0
  7  3  1  0  0  0  0
  8  4  1  0  0  0  0
  9  5  1  0  0  0  0
 10 15  1  0  0  0  0
 11 12  1  0  0  0  0
 11 10  2  0  0  0  0
 12 13  2  0  0  0  0
 13 14  1  0  0  0  0
 14 18  1  0  0  0  0
 15 14  2  0  0  0  0
 16 10  1  0  0  0  0
 17 11  1  0  0  0  0
 19 20  1  0  0  0  0
 22 23  2  0  0  0  0
 22 21  1  0  0  0  0
 23 27  1  0  0  0  0
 24 23  1  0  0  0  0
 25 26  1  0  0  0  0
 25 24  2  0  0  0  0
 26 22  1  0  0  0  0
 28 24  1  0  0  0  0
 29 25  1  0  0  0  0
 29 30  1  0  0  0  0
 31 33  1  0  0  0  0
 31 32  1  0  0  0  0
 31 29  1  0  0  0  0
 34 31  1  0  0  0  0
 35 34  1  0  0  0  0
M  END
>  <minimizedAffinity>
-6.18415642

$$$$

 OpenBabel03242513323D

 35 37  0  0  0  0  0  0  0  0999 V2000
   36.8590   27.4300   40.7120 C   0  0  0  0  0  0  0  0  0  0  0  0
   37.3270   26.4290   41.5480 C   0  0  0  0  0  0  0  0  0  0  0  0
   37.7130   26.7940   42.7930 C   0  0  0  0  0  0  0  0  0  0  0  0
   37.6520   28.1110   43.2390 C   0  0  0  0  0  0  0  0  0  0  0  0
   37.1840   29.0980   42.3970 C   0  0  0  0  0  0  0  0  0  0  0  0
   36.7770   28.7620   41.1040 C   0  0  0  0  0  0  0  0  0  0  0  0
   38.0770   26.0210   43.4470 H   0  0  0  0  0  0  0  0  0  0  0  0
   37.9590   28.4070   44.2320 H   0  0  0  0  0  0  0  0  0  0  0  0
   37.0990   30.1480   42.6510 H   0  0  0  0  0  0  0  0  0  0  0  0
   38.4930   22.9780   40.6080 C   0  0  0  0  0  0  0  0  0  0  0  0
   38.4820   24.2820   41.1110 C   0  0  0  0  0  0  0  0  0  0  0  0
   37.3710   25.0810   41.0400 C   0  0  0  0  0  0  0  0  0  0  0  0
   36.2880   24.5020   40.4450 N   0  0  0  0  0  0  0  0  0  0  0  0
   36.2730   23.2500   39.9530 C   0  0  0  0  0  0  0  0  0  0  0  0
   37.3800   22.4880   40.0370 N   0  0  0  0  0  0  0  0  0  0  0  0
   39.3650   22.3530   40.6640 H   0  0  0  0  0  0  0  0  0  0  0  0
   39.3960   24.6590   41.5700 H   0  0  0  0  0  0  0  0  0  0  0  0
   35.3800   22.8490   39.4920 H   0  0  0  0  0  0  0  0  0  0  0  0
   36.4520   27.1110   39.4290 O   0  0  0  0  0  0  0  0  0  0  0  0
   37.0040   27.4700   38.6500 H   0  0  0  0  0  0  0  0  0  0  0  0
   36.3040   29.7020   40.2270 O   0  0  0  0  0  0  0  0  0  0  0  0
   37.0480   30.5970   39.5470 C   0  0  0  0  0  0  0  0  0  0  0  0
   37.0520   31.9750   39.5640 C   0  0  0  0  0  0  0  0  0  0  0  0
   37.9180   32.6380   38.7670 C   0  0  0  0  0  0  0  0  0  0  0  0
   38.7860   31.8660   37.9480 C   0  0  0  0  0  0  0  0  0  0  0  0
   38.3160   30.1480   38.3600 S   0  0  0  0  0  0  0  0  0  0  0  0
   36.3550   32.4760   40.2190 H   0  0  0  0  0  0  0  0  0  0  0  0
   38.0190   33.6950   38.6900 H   0  0  0  0  0  0  0  0  0  0  0  0
   39.7610   32.2640   37.0460 N   0  0  0  0  0  0  0  0  0  0  0  0
   39.4640   32.5330   36.0630 H   0  0  0  0  0  0  0  0  0  0  0  0
   41.4700   32.3880   37.3220 S   0  0  0  0  0  0  0  0  0  0  0  0
   42.0990   31.1990   36.6430 O   0  0  0  0  0  1  0  0  0  0  0  0
   41.6790   32.2640   38.8070 O   0  0  0  0  0  1  0  0  0  0  0  0
   42.1010   33.8320   36.7540 O   0  0  0  0  0  0  0  0  0  0  0  0
   42.8100   34.1000   37.4080 H   0  0  0  0  0  0  0  0  0  0  0  0
  1  6  2  0  0  0  0
  1  2  1  0  0  0  0
  2  3  2  0  0  0  0
  3  4  1  0  0  0  0
  3  7  1  0  0  0  0
  4  8  1  0  0  0  0
  5  9  1  0  0  0  0
  5  4  2  0  0  0  0
  6  5  1  0  0  0  0
 10 16  1  0  0  0  0
 10 11  1  0  0  0  0
 11 17  1  0  0  0  0
 12 11  2  0  0  0  0
 12  2  1  0  0  0  0
 13 12  1  0  0  0  0
 14 15  1  0  0  0  0
 14 13  2  0  0  0  0
 15 10  2  0  0  0  0
 18 14  1  0  0  0  0
 19  1  1  0  0  0  0
 20 19  1  0  0  0  0
 21  6  1  0  0  0  0
 22 23  2  0  0  0  0
 22 21  1  0  0  0  0
 23 27  1  0  0  0  0
 24 23  1  0  0  0  0
 25 26  1  0  0  0  0
 25 24  2  0  0  0  0
 26 22  1  0  0  0  0
 28 24  1  0  0  0  0
 29 31  1  0  0  0  0
 29 25  1  0  0  0  0
 30 29  1  0  0  0  0
 31 33  1  0  0  0  0
 32 31  1  0  0  0  0
 34 31  1  0  0  0  0
 34 35  1  0  0  0  0
M  END
>  <minimizedAffinity>
-6.05541229

$$$$

 OpenBabel03242513323D

 35 37  0  0  0  0  0  0  0  0999 V2000
   37.3530   30.0960   40.9450 C   0  0  0  0  0  0  0  0  0  0  0  0
   37.3160   30.9720   39.8730 C   0  0  0  0  0  0  0  0  0  0  0  0
   36.5350   30.6300   38.8210 C   0  0  0  0  0  0  0  0  0  0  0  0
   35.7910   29.4550   38.7940 C   0  0  0  0  0  0  0  0  0  0  0  0
   35.8360   28.5900   39.8680 C   0  0  0  0  0  0  0  0  0  0  0  0
   36.6310   28.9080   40.9720 C   0  0  0  0  0  0  0  0  0  0  0  0
   36.5020   31.3070   37.9860 H   0  0  0  0  0  0  0  0  0  0  0  0
   35.1650   29.1770   37.9570 H   0  0  0  0  0  0  0  0  0  0  0  0
   35.2950   27.6550   39.9410 H   0  0  0  0  0  0  0  0  0  0  0  0
   38.3600   34.5850   39.9910 C   0  0  0  0  0  0  0  0  0  0  0  0
   37.5660   33.4360   39.9170 C   0  0  0  0  0  0  0  0  0  0  0  0
   38.1040   32.1760   39.9480 C   0  0  0  0  0  0  0  0  0  0  0  0
   39.4650   32.1390   40.0560 N   0  0  0  0  0  0  0  0  0  0  0  0
   40.2500   33.2290   40.1280 C   0  0  0  0  0  0  0  0  0  0  0  0
   39.6920   34.4540   40.0960 N   0  0  0  0  0  0  0  0  0  0  0  0
   37.9360   35.5730   39.9670 H   0  0  0  0  0  0  0  0  0  0  0  0
   36.4880   33.5660   39.8330 H   0  0  0  0  0  0  0  0  0  0  0  0
   41.3240   33.1300   40.2130 H   0  0  0  0  0  0  0  0  0  0  0  0
   38.1360   30.3980   42.0440 O   0  0  0  0  0  0  0  0  0  0  0  0
   38.9440   29.8040   42.2330 H   0  0  0  0  0  0  0  0  0  0  0  0
   36.7120   28.0860   42.0650 O   0  0  0  0  0  0  0  0  0  0  0  0
   37.5890   27.0760   42.2340 C   0  0  0  0  0  0  0  0  0  0  0  0
   37.5700   25.7720   41.7910 C   0  0  0  0  0  0  0  0  0  0  0  0
   38.5970   24.9540   42.1100 C   0  0  0  0  0  0  0  0  0  0  0  0
   39.6520   25.4960   42.8940 C   0  0  0  0  0  0  0  0  0  0  0  0
   39.1180   27.2240   43.1610 S   0  0  0  0  0  0  0  0  0  0  0  0
   36.7250   25.4490   41.2000 H   0  0  0  0  0  0  0  0  0  0  0  0
   38.6990   23.9330   41.8290 H   0  0  0  0  0  0  0  0  0  0  0  0
   40.8150   24.9060   43.3660 N   0  0  0  0  0  0  0  0  0  0  0  0
   40.7830   23.8860   43.6600 H   0  0  0  0  0  0  0  0  0  0  0  0
   42.3760   25.6410   43.5460 S   0  0  0  0  0  0  0  0  0  0  0  0
   42.3170   26.4650   44.8060 O   0  0  0  0  0  1  0  0  0  0  0  0
   42.5570   26.5650   42.3710 O   0  0  0  0  0  1  0  0  0  0  0  0
   43.6090   24.5080   43.6030 O   0  0  0  0  0  0  0  0  0  0  0  0
   44.3830   24.9180   43.1200 H   0  0  0  0  0  0  0  0  0  0  0  0
  1  6  1  0  0  0  0
  1 19  1  0  0  0  0
  2 12  1  0  0  0  0
  2  1  2  0  0  0  0
  3  2  1  0  0  0  0
  4  3  2  0  0  0  0
  4  5  1  0  0  0  0
  5  9  1  0  0  0  0
  5  6  2  0  0  0  0
  6 21  1  0  0  0  0
  7  3  1  0  0  0  0
  8  4  1  0  0  0  0
 10 15  1  0  0  0  0
 11 12  1  0  0  0  0
 11 10  2  0  0  0  0
 12 13  2  0  0  0  0
 13 14  1  0  0  0  0
 14 18  1  0  0  0  0
 15 14  2  0  0  0  0
 16 10  1  0  0  0  0
 17 11  1  0  0  0  0
 19 20  1  0  0  0  0
 21 22  1  0  0  0  0
 22 26  1  0  0  0  0
 23 24  1  0  0  0  0
 23 22  2  0  0  0  0
 24 25  2  0  0  0  0
 25 26  1  0  0  0  0
 25 29  1  0  0  0  0
 27 23  1  0  0  0  0
 28 24  1  0  0  0  0
 29 31  1  0  0  0  0
 29 30  1  0  0  0  0
 31 34  1  0  0  0  0
 31 32  1  0  0  0  0
 33 31  1  0  0  0  0
 35 34  1  0  0  0  0
M  END
>  <minimizedAffinity>
-6.00415182

$$$$

 OpenBabel03242513323D

 35 37  0  0  0  0  0  0  0  0999 V2000
   37.3160   27.4710   41.2240 C   0  0  0  0  0  0  0  0  0  0  0  0
   37.9570   26.4040   41.8320 C   0  0  0  0  0  0  0  0  0  0  0  0
   38.3810   26.5820   43.1060 C   0  0  0  0  0  0  0  0  0  0  0  0
   38.1950   27.7750   43.7960 C   0  0  0  0  0  0  0  0  0  0  0  0
   37.5550   28.8310   43.1790 C   0  0  0  0  0  0  0  0  0  0  0  0
   37.1030   28.6860   41.8660 C   0  0  0  0  0  0  0  0  0  0  0  0
   38.8790   25.7560   43.5830 H   0  0  0  0  0  0  0  0  0  0  0  0
   38.5320   27.9220   44.8130 H   0  0  0  0  0  0  0  0  0  0  0  0
   37.3630   29.7960   43.6320 H   0  0  0  0  0  0  0  0  0  0  0  0
   37.6420   22.8640   40.5960 C   0  0  0  0  0  0  0  0  0  0  0  0
   37.4530   24.0270   41.3490 C   0  0  0  0  0  0  0  0  0  0  0  0
   38.1270   25.1890   41.0760 C   0  0  0  0  0  0  0  0  0  0  0  0
   38.9870   25.1150   40.0190 N   0  0  0  0  0  0  0  0  0  0  0  0
   39.1860   24.0090   39.2790 C   0  0  0  0  0  0  0  0  0  0  0  0
   38.5090   22.8830   39.5710 N   0  0  0  0  0  0  0  0  0  0  0  0
   37.1120   21.9540   40.8120 H   0  0  0  0  0  0  0  0  0  0  0  0
   36.7440   23.9900   42.1760 H   0  0  0  0  0  0  0  0  0  0  0  0
   39.8840   24.0170   38.4520 H   0  0  0  0  0  0  0  0  0  0  0  0
   36.8630   27.3420   39.9240 O   0  0  0  0  0  0  0  0  0  0  0  0
   37.3140   27.9060   39.2030 H   0  0  0  0  0  0  0  0  0  0  0  0
   36.4620   29.7020   41.2060 O   0  0  0  0  0  0  0  0  0  0  0  0
   37.0470   30.6420   40.4370 C   0  0  0  0  0  0  0  0  0  0  0  0
   36.7180   31.1310   39.1920 C   0  0  0  0  0  0  0  0  0  0  0  0
   37.4900   32.0920   38.6390 C   0  0  0  0  0  0  0  0  0  0  0  0
   38.6110   32.5480   39.3850 C   0  0  0  0  0  0  0  0  0  0  0  0
   38.5220   31.5470   40.9120 S   0  0  0  0  0  0  0  0  0  0  0  0
   35.8470   30.7240   38.7010 H   0  0  0  0  0  0  0  0  0  0  0  0
   37.3420   32.5500   37.6900 H   0  0  0  0  0  0  0  0  0  0  0  0
   39.5660   33.5060   39.0780 N   0  0  0  0  0  0  0  0  0  0  0  0
   39.9020   33.5840   38.0740 H   0  0  0  0  0  0  0  0  0  0  0  0
   40.3110   34.6400   40.1590 S   0  0  0  0  0  0  0  0  0  0  0  0
   39.1910   35.3660   40.8560 O   0  0  0  0  0  1  0  0  0  0  0  0
   41.0650   35.6230   39.3020 O   0  0  0  0  0  1  0  0  0  0  0  0
   41.3410   33.8950   41.2500 O   0  0  0  0  0  0  0  0  0  0  0  0
   42.1090   34.5230   41.3780 H   0  0  0  0  0  0  0  0  0  0  0  0
  1  2  2  0  0  0  0
  1  6  1  0  0  0  0
  2  3  1  0  0  0  0
  3  7  1  0  0  0  0
  3  4  2  0  0  0  0
  4  8  1  0  0  0  0
  5  9  1  0  0  0  0
  5  4  1  0  0  0  0
  6  5  2  0  0  0  0
 10 16  1  0  0  0  0
 10 11  1  0  0  0  0
 11 17  1  0  0  0  0
 12 11  2  0  0  0  0
 12  2  1  0  0  0  0
 13 12  1  0  0  0  0
 14 15  1  0  0  0  0
 14 13  2  0  0  0  0
 15 10  2  0  0  0  0
 18 14  1  0  0  0  0
 19  1  1  0  0  0  0
 20 19  1  0  0  0  0
 21  6  1  0  0  0  0
 22 26  1  0  0  0  0
 22 21  1  0  0  0  0
 23 22  2  0  0  0  0
 24 23  1  0  0  0  0
 24 25  2  0  0  0  0
 25 26  1  0  0  0  0
 27 23  1  0  0  0  0
 28 24  1  0  0  0  0
 29 25  1  0  0  0  0
 29 31  1  0  0  0  0
 30 29  1  0  0  0  0
 31 32  1  0  0  0  0
 31 34  1  0  0  0  0
 33 31  1  0  0  0  0
 34 35  1  0  0  0  0
M  END
>  <minimizedAffinity>
-5.986516

$$$$

 OpenBabel03242513323D

 35 37  0  0  0  0  0  0  0  0999 V2000
   38.6240   31.3180   41.6550 C   0  0  0  0  0  0  0  0  0  0  0  0
   38.3340   32.1340   40.5730 C   0  0  0  0  0  0  0  0  0  0  0  0
   37.2700   31.7930   39.8080 C   0  0  0  0  0  0  0  0  0  0  0  0
   36.4840   30.6760   40.0760 C   0  0  0  0  0  0  0  0  0  0  0  0
   36.7830   29.8720   41.1570 C   0  0  0  0  0  0  0  0  0  0  0  0
   37.8740   30.1900   41.9690 C   0  0  0  0  0  0  0  0  0  0  0  0
   37.0410   32.4230   38.9670 H   0  0  0  0  0  0  0  0  0  0  0  0
   35.6340   30.3990   39.4690 H   0  0  0  0  0  0  0  0  0  0  0  0
   36.2340   28.9840   41.4460 H   0  0  0  0  0  0  0  0  0  0  0  0
   39.5560   35.6560   40.0650 C   0  0  0  0  0  0  0  0  0  0  0  0
   38.7110   34.5670   40.2980 C   0  0  0  0  0  0  0  0  0  0  0  0
   39.1770   33.2780   40.3360 C   0  0  0  0  0  0  0  0  0  0  0  0
   40.5210   33.1510   40.1300 N   0  0  0  0  0  0  0  0  0  0  0  0
   41.3540   34.1830   39.9030 C   0  0  0  0  0  0  0  0  0  0  0  0
   40.8670   35.4370   39.8720 N   0  0  0  0  0  0  0  0  0  0  0  0
   39.1880   36.6660   40.0350 H   0  0  0  0  0  0  0  0  0  0  0  0
   37.6510   34.7680   40.4520 H   0  0  0  0  0  0  0  0  0  0  0  0
   42.4110   34.0140   39.7480 H   0  0  0  0  0  0  0  0  0  0  0  0
   39.7010   31.6220   42.4670 O   0  0  0  0  0  0  0  0  0  0  0  0
   40.4950   30.9820   42.4670 H   0  0  0  0  0  0  0  0  0  0  0  0
   38.2150   29.4270   43.0540 O   0  0  0  0  0  0  0  0  0  0  0  0
   38.9590   28.3030   43.0310 C   0  0  0  0  0  0  0  0  0  0  0  0
   38.8360   27.1170   43.7200 C   0  0  0  0  0  0  0  0  0  0  0  0
   39.7370   26.1340   43.5030 C   0  0  0  0  0  0  0  0  0  0  0  0
   40.7720   26.3850   42.5620 C   0  0  0  0  0  0  0  0  0  0  0  0
   40.4100   28.0860   41.9980 S   0  0  0  0  0  0  0  0  0  0  0  0
   38.0160   27.0170   44.4160 H   0  0  0  0  0  0  0  0  0  0  0  0
   39.7500   25.1780   43.9700 H   0  0  0  0  0  0  0  0  0  0  0  0
   41.8200   25.5790   42.1420 N   0  0  0  0  0  0  0  0  0  0  0  0
   41.6120   24.7910   41.4600 H   0  0  0  0  0  0  0  0  0  0  0  0
   43.4900   25.6910   42.5980 S   0  0  0  0  0  0  0  0  0  0  0  0
   43.6860   27.0730   43.1640 O   0  0  0  0  0  1  0  0  0  0  0  0
   44.2940   25.5690   41.3310 O   0  0  0  0  0  1  0  0  0  0  0  0
   43.9300   24.5040   43.6950 O   0  0  0  0  0  0  0  0  0  0  0  0
   44.8650   24.2400   43.4560 H   0  0  0  0  0  0  0  0  0  0  0  0
  1  6  1  0  0  0  0
  1 19  1  0  0  0  0
  2  1  2  0  0  0  0
  3  4  2  0  0  0  0
  3  2  1  0  0  0  0
  4  5  1  0  0  0  0
  5  9  1  0  0  0  0
  5  6  2  0  0  0  0
  6 21  1  0  0  0  0
  7  3  1  0  0  0  0
  8  4  1  0  0  0  0
 10 11  1  0  0  0  0
 11 12  2  0  0  0  0
 11 17  1  0  0  0  0
 12  2  1  0  0  0  0
 13 12  1  0  0  0  0
 14 13  2  0  0  0  0
 15 14  1  0  0  0  0
 15 10  2  0  0  0  0
 16 10  1  0  0  0  0
 18 14  1  0  0  0  0
 19 20  1  0  0  0  0
 22 21  1  0  0  0  0
 22 23  2  0  0  0  0
 23 27  1  0  0  0  0
 24 23  1  0  0  0  0
 24 28  1  0  0  0  0
 25 24  2  0  0  0  0
 26 25  1  0  0  0  0
 26 22  1  0  0  0  0
 29 25  1  0  0  0  0
 29 31  1  0  0  0  0
 30 29  1  0  0  0  0
 31 32  1  0  0  0  0
 31 34  1  0  0  0  0
 33 31  1  0  0  0  0
 35 34  1  0  0  0  0
M  END
>  <minimizedAffinity>
-5.88390446

$$$$

 OpenBabel03242513323D

 35 37  0  0  0  0  0  0  0  0999 V2000
   38.4860   27.6900   41.7350 C   0  0  0  0  0  0  0  0  0  0  0  0
   37.4170   26.8550   42.0170 C   0  0  0  0  0  0  0  0  0  0  0  0
   36.6920   27.1310   43.1270 C   0  0  0  0  0  0  0  0  0  0  0  0
   36.9870   28.2020   43.9650 C   0  0  0  0  0  0  0  0  0  0  0  0
   38.0540   29.0260   43.6730 C   0  0  0  0  0  0  0  0  0  0  0  0
   38.8260   28.7740   42.5370 C   0  0  0  0  0  0  0  0  0  0  0  0
   35.8600   26.4860   43.3500 H   0  0  0  0  0  0  0  0  0  0  0  0
   36.4120   28.4270   44.8520 H   0  0  0  0  0  0  0  0  0  0  0  0
   38.3620   29.8820   44.2620 H   0  0  0  0  0  0  0  0  0  0  0  0
   36.9460   23.4020   40.5970 C   0  0  0  0  0  0  0  0  0  0  0  0
   37.2090   24.4430   41.4940 C   0  0  0  0  0  0  0  0  0  0  0  0
   37.1510   25.7590   41.1190 C   0  0  0  0  0  0  0  0  0  0  0  0
   36.8190   25.9660   39.8110 N   0  0  0  0  0  0  0  0  0  0  0  0
   36.5620   24.9840   38.9290 C   0  0  0  0  0  0  0  0  0  0  0  0
   36.6260   23.6990   39.3270 N   0  0  0  0  0  0  0  0  0  0  0  0
   36.9920   22.3700   40.8940 H   0  0  0  0  0  0  0  0  0  0  0  0
   37.4660   24.1790   42.5200 H   0  0  0  0  0  0  0  0  0  0  0  0
   36.3040   25.2150   37.9050 H   0  0  0  0  0  0  0  0  0  0  0  0
   39.2580   27.4520   40.6130 O   0  0  0  0  0  0  0  0  0  0  0  0
   40.2260   27.1610   40.7530 H   0  0  0  0  0  0  0  0  0  0  0  0
   39.8960   29.5600   42.2000 O   0  0  0  0  0  0  0  0  0  0  0  0
   39.8800   30.5920   41.3330 C   0  0  0  0  0  0  0  0  0  0  0  0
   38.8740   31.4630   40.9750 C   0  0  0  0  0  0  0  0  0  0  0  0
   39.1330   32.4250   40.0630 C   0  0  0  0  0  0  0  0  0  0  0  0
   40.4450   32.4840   39.5200 C   0  0  0  0  0  0  0  0  0  0  0  0
   41.3000   31.1060   40.3640 S   0  0  0  0  0  0  0  0  0  0  0  0
   37.9080   31.3410   41.4410 H   0  0  0  0  0  0  0  0  0  0  0  0
   38.4450   33.1550   39.7050 H   0  0  0  0  0  0  0  0  0  0  0  0
   40.9920   33.3480   38.5830 N   0  0  0  0  0  0  0  0  0  0  0  0
   40.5270   34.2900   38.4280 H   0  0  0  0  0  0  0  0  0  0  0  0
   42.3920   33.0840   37.5910 S   0  0  0  0  0  0  0  0  0  0  0  0
   42.1380   31.8140   36.8230 O   0  0  0  0  0  1  0  0  0  0  0  0
   43.5490   32.8600   38.5280 O   0  0  0  0  0  1  0  0  0  0  0  0
   42.6990   34.3760   36.5700 O   0  0  0  0  0  0  0  0  0  0  0  0
   43.6950   34.4570   36.5180 H   0  0  0  0  0  0  0  0  0  0  0  0
  1  2  2  0  0  0  0
  1  6  1  0  0  0  0
  2  3  1  0  0  0  0
  3  7  1  0  0  0  0
  3  4  2  0  0  0  0
  4  8  1  0  0  0  0
  5  4  1  0  0  0  0
  5  9  1  0  0  0  0
  6  5  2  0  0  0  0
 10 16  1  0  0  0  0
 10 11  1  0  0  0  0
 11 17  1  0  0  0  0
 12 11  2  0  0  0  0
 12  2  1  0  0  0  0
 13 12  1  0  0  0  0
 14 15  1  0  0  0  0
 14 13  2  0  0  0  0
 15 10  2  0  0  0  0
 18 14  1  0  0  0  0
 19 20  1  0  0  0  0
 19  1  1  0  0  0  0
 21  6  1  0  0  0  0
 22 21  1  0  0  0  0
 23 22  2  0  0  0  0
 23 27  1  0  0  0  0
 24 23  1  0  0  0  0
 25 24  2  0  0  0  0
 25 26  1  0  0  0  0
 26 22  1  0  0  0  0
 28 24  1  0  0  0  0
 29 25  1  0  0  0  0
 30 29  1  0  0  0  0
 31 33  1  0  0  0  0
 31 29  1  0  0  0  0
 32 31  1  0  0  0  0
 34 31  1  0  0  0  0
 35 34  1  0  0  0  0
M  END
>  <minimizedAffinity>
-5.74390364

$$$$

 OpenBabel03242513323D

 35 37  0  0  0  0  0  0  0  0999 V2000
   36.1710   28.7200   39.8200 C   0  0  0  0  0  0  0  0  0  0  0  0
   36.2650   29.7870   38.9420 C   0  0  0  0  0  0  0  0  0  0  0  0
   36.6950   30.9680   39.4480 C   0  0  0  0  0  0  0  0  0  0  0  0
   37.0350   31.1280   40.7870 C   0  0  0  0  0  0  0  0  0  0  0  0
   36.9370   30.0580   41.6520 C   0  0  0  0  0  0  0  0  0  0  0  0
   36.4970   28.8230   41.1680 C   0  0  0  0  0  0  0  0  0  0  0  0
   36.7690   31.8000   38.7700 H   0  0  0  0  0  0  0  0  0  0  0  0
   37.3780   32.0680   41.1950 H   0  0  0  0  0  0  0  0  0  0  0  0
   37.1780   30.0820   42.7070 H   0  0  0  0  0  0  0  0  0  0  0  0
   36.3720   29.5620   35.1880 C   0  0  0  0  0  0  0  0  0  0  0  0
   36.7570   29.7800   36.5150 C   0  0  0  0  0  0  0  0  0  0  0  0
   35.9010   29.5720   37.5650 C   0  0  0  0  0  0  0  0  0  0  0  0
   34.6560   29.1390   37.2100 N   0  0  0  0  0  0  0  0  0  0  0  0
   34.2620   28.9220   35.9420 C   0  0  0  0  0  0  0  0  0  0  0  0
   35.1250   29.1350   34.9310 N   0  0  0  0  0  0  0  0  0  0  0  0
   37.0450   29.7250   34.3660 H   0  0  0  0  0  0  0  0  0  0  0  0
   37.7730   30.1260   36.7000 H   0  0  0  0  0  0  0  0  0  0  0  0
   33.2590   28.5770   35.7270 H   0  0  0  0  0  0  0  0  0  0  0  0
   35.7370   27.4920   39.3560 O   0  0  0  0  0  0  0  0  0  0  0  0
   34.8390   27.1440   39.6930 H   0  0  0  0  0  0  0  0  0  0  0  0
   36.3820   27.7270   41.9830 O   0  0  0  0  0  0  0  0  0  0  0  0
   37.3130   26.7690   42.1590 C   0  0  0  0  0  0  0  0  0  0  0  0
   37.3520   25.4540   41.7500 C   0  0  0  0  0  0  0  0  0  0  0  0
   38.4270   24.6990   42.0680 C   0  0  0  0  0  0  0  0  0  0  0  0
   39.4690   25.3150   42.8120 C   0  0  0  0  0  0  0  0  0  0  0  0
   38.8530   27.0200   43.0460 S   0  0  0  0  0  0  0  0  0  0  0  0
   36.5130   25.0720   41.1880 H   0  0  0  0  0  0  0  0  0  0  0  0
   38.5760   23.6760   41.8110 H   0  0  0  0  0  0  0  0  0  0  0  0
   40.6710   24.7990   43.2740 N   0  0  0  0  0  0  0  0  0  0  0  0
   40.7000   23.7850   43.5880 H   0  0  0  0  0  0  0  0  0  0  0  0
   42.1920   25.6210   43.4100 S   0  0  0  0  0  0  0  0  0  0  0  0
   42.0770   26.5400   44.5980 O   0  0  0  0  0  1  0  0  0  0  0  0
   42.3460   26.4560   42.1660 O   0  0  0  0  0  1  0  0  0  0  0  0
   43.4760   24.5580   43.5710 O   0  0  0  0  0  0  0  0  0  0  0  0
   44.2380   24.9650   43.0640 H   0  0  0  0  0  0  0  0  0  0  0  0
  1  6  1  0  0  0  0
  2  3  1  0  0  0  0
  2  1  2  0  0  0  0
  3  4  2  0  0  0  0
  4  8  1  0  0  0  0
  4  5  1  0  0  0  0
  5  9  1  0  0  0  0
  6  5  2  0  0  0  0
  6 21  1  0  0  0  0
  7  3  1  0  0  0  0
 10 11  1  0  0  0  0
 11 17  1  0  0  0  0
 11 12  2  0  0  0  0
 12  2  1  0  0  0  0
 13 12  1  0  0  0  0
 14 13  2  0  0  0  0
 15 10  2  0  0  0  0
 15 14  1  0  0  0  0
 16 10  1  0  0  0  0
 18 14  1  0  0  0  0
 19 20  1  0  0  0  0
 19  1  1  0  0  0  0
 21 22  1  0  0  0  0
 22 26  1  0  0  0  0
 23 24  1  0  0  0  0
 23 22  2  0  0  0  0
 24 25  2  0  0  0  0
 25 26  1  0  0  0  0
 25 29  1  0  0  0  0
 27 23  1  0  0  0  0
 28 24  1  0  0  0  0
 29 31  1  0  0  0  0
 29 30  1  0  0  0  0
 31 34  1  0  0  0  0
 31 32  1  0  0  0  0
 33 31  1  0  0  0  0
 35 34  1  0  0  0  0
M  END
>  <minimizedAffinity>
-5.74298

$$$$
