
 OpenBabel03252507423D

 29 30  0  0  0  0  0  0  0  0999 V2000
   45.6820   34.5280   41.6540 C   0  0  0  0  0  0  0  0  0  0  0  0
   45.9440   35.4770   42.1890 H   0  0  0  0  0  0  0  0  0  0  0  0
   45.7040   33.7180   42.4170 H   0  0  0  0  0  0  0  0  0  0  0  0
   44.3240   34.6680   41.0620 C   0  0  0  0  0  0  0  0  0  0  0  0
   43.3790   35.5790   41.6530 C   0  0  0  0  0  0  0  0  0  0  0  0
   41.9050   35.3670   40.5530 S   0  0  0  0  0  0  0  0  0  0  0  0
   42.8400   34.1020   39.5170 C   0  0  0  0  0  0  0  0  0  0  0  0
   43.8510   34.0370   40.0120 N   0  0  0  0  0  0  0  0  0  0  0  0
   43.5810   36.2080   42.5450 H   0  0  0  0  0  0  0  0  0  0  0  0
   42.1080   33.5370   38.4020 N   0  0  0  0  0  0  0  0  0  0  0  0
   42.7170   33.2670   37.6110 H   0  0  0  0  0  0  0  0  0  0  0  0
   40.4170   33.3140   38.3420 S   0  0  0  0  0  0  0  0  0  0  0  0
   40.0580   32.0920   37.5270 O   0  0  0  0  0  1  0  0  0  0  0  0
   39.8010   33.1550   39.6900 O   0  0  0  0  0  1  0  0  0  0  0  0
   39.7510   34.6210   37.4900 O   0  0  0  0  0  0  0  0  0  0  0  0
   39.2570   35.2100   38.1220 H   0  0  0  0  0  0  0  0  0  0  0  0
   46.7590   34.2420   40.6460 C   0  0  0  0  0  0  0  0  0  0  0  0
   46.4880   33.3630   40.0710 H   0  0  0  0  0  0  0  0  0  0  0  0
   46.7760   35.0870   39.8990 H   0  0  0  0  0  0  0  0  0  0  0  0
   48.1070   34.1170   41.2580 C   0  0  0  0  0  0  0  0  0  0  0  0
   48.7890   32.9140   41.0550 C   0  0  0  0  0  0  0  0  0  0  0  0
   50.0470   32.7500   41.6060 C   0  0  0  0  0  0  0  0  0  0  0  0
   50.5770   33.7830   42.3350 N   0  0  0  0  0  0  0  0  0  0  0  0
   49.8890   34.9300   42.5100 C   0  0  0  0  0  0  0  0  0  0  0  0
   48.6880   35.0690   41.9760 N   0  0  0  0  0  0  0  0  0  0  0  0
   50.5970   31.8360   41.4670 H   0  0  0  0  0  0  0  0  0  0  0  0
   50.3520   35.7150   43.0940 H   0  0  0  0  0  0  0  0  0  0  0  0
   48.0290   31.5980   40.0830 S   0  0  0  0  0  0  0  0  0  0  0  0
   47.4560   30.6290   40.9130 H   0  0  0  0  0  0  0  0  0  0  0  0
  1  2  1  0  0  0  0
  1  3  1  0  0  0  0
  4  5  2  0  0  0  0
  4  1  1  0  0  0  0
  5  9  1  0  0  0  0
  6  5  1  0  0  0  0
  7  8  2  0  0  0  0
  7  6  1  0  0  0  0
  8  4  1  0  0  0  0
 10  7  1  0  0  0  0
 11 10  1  0  0  0  0
 12 10  1  0  0  0  0
 12 14  1  0  0  0  0
 13 12  1  0  0  0  0
 15 16  1  0  0  0  0
 15 12  1  0  0  0  0
 17 20  1  0  0  0  0
 17  1  1  0  0  0  0
 18 17  1  0  0  0  0
 19 17  1  0  0  0  0
 20 25  1  0  0  0  0
 21 20  2  0  0  0  0
 21 22  1  0  0  0  0
 22 23  2  0  0  0  0
 23 24  1  0  0  0  0
 24 27  1  0  0  0  0
 25 24  2  0  0  0  0
 26 22  1  0  0  0  0
 28 29  1  0  0  0  0
 28 21  1  0  0  0  0
M  END
>  <minimizedAffinity>
-4.50626516

>  <minimizedRMSD>
0.239350125

$$$$
