
 OpenBabel03252500413D

 26 27  0  0  1  0  0  0  0  0999 V2000
   47.4140   34.7220   41.4540 C   0  0  1  0  0  0  0  0  0  0  0  0
   48.6990   35.3940   41.0410 C   0  0  0  0  0  0  0  0  0  0  0  0
   48.1860   34.2140   40.2800 C   0  0  2  0  0  0  0  0  0  0  0  0
   46.5630   35.3960   41.2130 H   0  0  0  0  0  0  0  0  0  0  0  0
   49.6020   35.2090   41.6910 H   0  0  0  0  0  0  0  0  0  0  0  0
   48.7410   36.3670   40.5630 H   0  0  0  0  0  0  0  0  0  0  0  0
   48.7230   33.2390   40.4550 H   0  0  0  0  0  0  0  0  0  0  0  0
   47.4700   33.9360   42.7260 C   0  0  0  0  0  0  0  0  0  0  0  0
   47.1950   32.8750   42.4610 H   0  0  0  0  0  0  0  0  0  0  0  0
   48.4780   33.9030   43.1650 H   0  0  0  0  0  0  0  0  0  0  0  0
   46.4410   34.3700   43.6950 C   0  0  0  0  0  0  0  0  0  0  0  0
   45.7090   35.4590   43.2770 C   0  0  0  0  0  0  0  0  0  0  0  0
   44.6990   36.0100   44.0920 C   0  0  0  0  0  0  0  0  0  0  0  0
   44.5190   35.3860   45.2940 N   0  0  0  0  0  0  0  0  0  0  0  0
   45.2530   34.3110   45.6840 C   0  0  0  0  0  0  0  0  0  0  0  0
   46.2040   33.8030   44.9020 N   0  0  0  0  0  0  0  0  0  0  0  0
   45.6480   36.0980   42.4100 H   0  0  0  0  0  0  0  0  0  0  0  0
   44.0240   36.8180   43.9990 H   0  0  0  0  0  0  0  0  0  0  0  0
   45.1020   33.8280   46.6290 H   0  0  0  0  0  0  0  0  0  0  0  0
   47.5330   34.2960   39.0300 N   0  0  0  0  0  0  0  0  0  0  0  0
   47.2080   35.2310   38.7670 H   0  0  0  0  0  0  0  0  0  0  0  0
   48.3740   33.5970   37.7190 S   0  0  0  0  0  0  0  0  0  0  0  0
   48.8730   32.2490   38.2260 O   0  0  0  0  0  0  0  0  0  0  0  0
   47.4750   33.2750   36.5650 O   0  0  0  0  0  0  0  0  0  0  0  0
   49.7030   34.4420   37.2090 O   0  0  0  0  0  0  0  0  0  0  0  0
   49.7010   35.3620   37.5680 H   0  0  0  0  0  0  0  0  0  0  0  0
  1  4  1  6  0  0  0
  1  8  1  0  0  0  0
  2  1  1  0  0  0  0
  2  5  1  0  0  0  0
  3  7  1  1  0  0  0
  3  2  1  0  0  0  0
  3  1  1  0  0  0  0
  6  2  1  0  0  0  0
  8 10  1  0  0  0  0
  8 11  1  0  0  0  0
  9  8  1  0  0  0  0
 11 16  1  0  0  0  0
 12 11  2  0  0  0  0
 12 13  1  0  0  0  0
 13 14  2  0  0  0  0
 14 15  1  0  0  0  0
 15 19  1  0  0  0  0
 16 15  2  0  0  0  0
 17 12  1  0  0  0  0
 18 13  1  0  0  0  0
 20  3  1  0  0  0  0
 21 20  1  0  0  0  0
 22 23  1  0  0  0  0
 22 20  1  0  0  0  0
 24 22  1  0  0  0  0
 25 26  1  0  0  0  0
 25 22  1  0  0  0  0
M  END
>  <minimizedAffinity>
-4.92535734

>  <minimizedRMSD>
1.39197457

$$$$
