
 OpenBabel03252509353D

 42 43  0  0  1  0  0  0  0  0999 V2000
   44.8860   35.2440   44.8540 O   0  0  0  0  0  0  0  0  0  0  0  0
   45.6560   34.1410   44.1530 P   0  0  1  0  0  0  0  0  0  0  0  0
   44.5970   33.0510   43.4040 O   0  0  0  0  0  0  0  0  0  0  0  0
   43.8170   33.5890   43.0950 H   0  0  0  0  0  0  0  0  0  0  0  0
   46.6470   34.8490   43.0110 O   0  0  0  0  0  0  0  0  0  0  0  0
   46.9610   33.9150   42.0150 C   0  0  1  0  0  0  0  0  0  0  0  0
   46.1680   34.2260   40.7430 C   0  0  0  0  0  0  0  0  0  0  0  0
   46.8630   33.3290   39.7550 C   0  0  0  0  0  0  0  0  0  0  0  0
   48.2860   33.1730   40.2590 C   0  0  0  0  0  0  0  0  0  0  0  0
   48.3610   34.0390   41.5010 C   0  0  1  0  0  0  0  0  0  0  0  0
   46.7250   32.8870   42.2830 H   0  0  0  0  0  0  0  0  0  0  0  0
   46.1360   35.2800   40.4890 H   0  0  0  0  0  0  0  0  0  0  0  0
   45.1340   33.8580   40.8520 H   0  0  0  0  0  0  0  0  0  0  0  0
   46.3630   32.3270   39.7300 H   0  0  0  0  0  0  0  0  0  0  0  0
   46.7990   33.7510   38.7470 H   0  0  0  0  0  0  0  0  0  0  0  0
   48.4950   32.1100   40.5500 H   0  0  0  0  0  0  0  0  0  0  0  0
   49.0230   33.4720   39.4980 H   0  0  0  0  0  0  0  0  0  0  0  0
   49.0790   33.5700   42.2200 H   0  0  0  0  0  0  0  0  0  0  0  0
   48.7390   35.4580   41.1660 C   0  0  0  0  0  0  0  0  0  0  0  0
   49.1940   35.4780   40.1390 H   0  0  0  0  0  0  0  0  0  0  0  0
   47.8770   36.1560   41.1140 H   0  0  0  0  0  0  0  0  0  0  0  0
   49.6140   36.0000   42.0820 O   0  0  0  0  0  0  0  0  0  0  0  0
   50.5320   35.9410   41.6870 H   0  0  0  0  0  0  0  0  0  0  0  0
   46.5490   33.2550   45.2480 O   0  0  0  0  0  0  0  0  0  0  0  0
   45.9830   32.0280   45.3950 C   0  0  0  0  0  0  0  0  0  0  0  0
   45.0530   31.8200   44.8760 H   0  0  0  0  0  0  0  0  0  0  0  0
   46.7220   31.2730   44.9890 H   0  0  0  0  0  0  0  0  0  0  0  0
   45.7460   32.2630   49.1000 C   0  0  0  0  0  0  0  0  0  0  0  0
   45.9310   32.6570   47.7700 C   0  0  0  0  0  0  0  0  0  0  0  0
   45.7920   31.6540   46.8060 C   0  0  0  0  0  0  0  0  0  0  0  0
   45.4920   30.3780   47.2010 N   0  0  0  0  0  0  0  0  0  0  0  0
   45.3220   30.0390   48.4970 C   0  0  0  0  0  0  0  0  0  0  0  0
   45.4490   30.9750   49.4290 N   0  0  0  0  0  0  0  0  0  0  0  0
   45.8510   33.0350   49.8610 H   0  0  0  0  0  0  0  0  0  0  0  0
   46.1640   33.6770   47.5530 H   0  0  0  0  0  0  0  0  0  0  0  0
   45.0110   28.6920   48.8330 N   0  0  0  0  0  0  0  0  0  0  0  0
   44.6490   28.4540   49.7830 H   0  0  0  0  0  0  0  0  0  0  0  0
   45.2180   27.4090   47.6930 S   0  0  0  0  0  0  0  0  0  0  0  0
   46.5330   27.5600   46.9820 O   0  0  0  0  0  1  0  0  0  0  0  0
   45.1540   26.1160   48.4530 O   0  0  0  0  0  1  0  0  0  0  0  0
   43.9590   27.5070   46.5680 O   0  0  0  0  0  0  0  0  0  0  0  0
   43.7570   28.4610   46.3620 H   0  0  0  0  0  0  0  0  0  0  0  0
  2  1  2  1  0  0  0
  2 24  1  0  0  0  0
  3  2  1  0  0  0  0
  4  3  1  0  0  0  0
  5  2  1  0  0  0  0
  6 11  1  1  0  0  0
  6  5  1  0  0  0  0
  7 13  1  0  0  0  0
  7  6  1  0  0  0  0
  8  9  1  0  0  0  0
  8  7  1  0  0  0  0
  9 16  1  0  0  0  0
  9 10  1  0  0  0  0
 10  6  1  0  0  0  0
 10 18  1  1  0  0  0
 12  7  1  0  0  0  0
 14  8  1  0  0  0  0
 15  8  1  0  0  0  0
 17  9  1  0  0  0  0
 19 10  1  0  0  0  0
 19 22  1  0  0  0  0
 20 19  1  0  0  0  0
 21 19  1  0  0  0  0
 23 22  1  0  0  0  0
 24 25  1  0  0  0  0
 25 30  1  0  0  0  0
 26 25  1  0  0  0  0
 27 25  1  0  0  0  0
 28 33  1  0  0  0  0
 28 34  1  0  0  0  0
 29 28  2  0  0  0  0
 30 31  2  0  0  0  0
 30 29  1  0  0  0  0
 31 32  1  0  0  0  0
 32 36  1  0  0  0  0
 32 33  2  0  0  0  0
 35 29  1  0  0  0  0
 36 37  1  0  0  0  0
 38 40  1  0  0  0  0
 38 36  1  0  0  0  0
 39 38  1  0  0  0  0
 41 38  1  0  0  0  0
 42 41  1  0  0  0  0
M  END
>  <minimizedAffinity>
-5.36075687

>  <minimizedRMSD>
0.514211178

$$$$
