
 OpenBabel03252500163D

 36 38  0  0  0  0  0  0  0  0999 V2000
   39.7400   31.3990   41.9290 Cl  0  0  0  0  0  0  0  0  0  0  0  0
   38.5270   31.1860   40.7040 C   0  0  0  0  0  0  0  0  0  0  0  0
   37.7400   30.0730   40.6920 C   0  0  0  0  0  0  0  0  0  0  0  0
   36.7630   29.8780   39.7270 C   0  0  0  0  0  0  0  0  0  0  0  0
   36.6300   30.8740   38.7740 C   0  0  0  0  0  0  0  0  0  0  0  0
   37.4310   31.9950   38.7950 C   0  0  0  0  0  0  0  0  0  0  0  0
   38.3750   32.1640   39.7440 C   0  0  0  0  0  0  0  0  0  0  0  0
   36.1330   29.0000   39.7070 H   0  0  0  0  0  0  0  0  0  0  0  0
   35.8830   30.7590   38.0070 H   0  0  0  0  0  0  0  0  0  0  0  0
   37.3070   32.7570   38.0390 H   0  0  0  0  0  0  0  0  0  0  0  0
   37.4360   28.2040   43.8510 C   0  0  0  0  0  0  0  0  0  0  0  0
   38.2960   27.0990   43.6410 C   0  0  0  0  0  0  0  0  0  0  0  0
   38.9630   27.0150   42.4200 C   0  0  0  0  0  0  0  0  0  0  0  0
   38.7520   28.0020   41.4960 N   0  0  0  0  0  0  0  0  0  0  0  0
   37.9230   29.0460   41.7280 C   0  0  0  0  0  0  0  0  0  0  0  0
   37.2740   29.1340   42.9070 N   0  0  0  0  0  0  0  0  0  0  0  0
   36.9430   28.2220   44.8140 H   0  0  0  0  0  0  0  0  0  0  0  0
   38.4990   26.3060   44.3170 H   0  0  0  0  0  0  0  0  0  0  0  0
   39.8910   25.8990   42.0900 C   0  0  0  0  0  0  0  0  0  0  0  0
   40.6500   25.5650   43.1870 F   0  0  0  0  0  0  0  0  0  0  0  0
   39.1390   24.7940   41.7180 F   0  0  0  0  0  0  0  0  0  0  0  0
   40.6630   26.3020   41.0410 F   0  0  0  0  0  0  0  0  0  0  0  0
   39.2300   33.3490   39.7750 C   0  0  0  0  0  0  0  0  0  0  0  0
   38.8300   34.5920   40.2550 C   0  0  0  0  0  0  0  0  0  0  0  0
   39.8830   35.4710   40.1340 C   0  0  0  0  0  0  0  0  0  0  0  0
   40.8820   34.7050   39.5770 C   0  0  0  0  0  0  0  0  0  0  0  0
   40.4640   33.4690   39.3810 O   0  0  0  0  0  0  0  0  0  0  0  0
   37.8650   34.9050   40.6760 H   0  0  0  0  0  0  0  0  0  0  0  0
   40.0140   36.5160   40.3770 H   0  0  0  0  0  0  0  0  0  0  0  0
   42.2210   35.0040   39.1960 N   0  0  0  0  0  0  0  0  0  0  0  0
   42.7620   35.8380   39.5110 H   0  0  0  0  0  0  0  0  0  0  0  0
   43.2530   34.0890   38.1520 S   0  0  0  0  0  0  0  0  0  0  0  0
   43.0910   32.6280   38.4260 O   0  0  0  0  0  1  0  0  0  0  0  0
   44.6960   34.4650   38.3440 O   0  0  0  0  0  1  0  0  0  0  0  0
   42.7890   34.4670   36.5630 O   0  0  0  0  0  0  0  0  0  0  0  0
   43.4970   34.9950   36.1110 H   0  0  0  0  0  0  0  0  0  0  0  0
  2  1  1  0  0  0  0
  3  2  1  0  0  0  0
  3 15  1  0  0  0  0
  4  3  2  0  0  0  0
  5  6  2  0  0  0  0
  5  4  1  0  0  0  0
  6  7  1  0  0  0  0
  7 23  1  0  0  0  0
  7  2  2  0  0  0  0
  8  4  1  0  0  0  0
  9  5  1  0  0  0  0
 10  6  1  0  0  0  0
 11 17  1  0  0  0  0
 12 11  1  0  0  0  0
 12 18  1  0  0  0  0
 13 12  2  0  0  0  0
 14 15  2  0  0  0  0
 14 13  1  0  0  0  0
 15 16  1  0  0  0  0
 16 11  2  0  0  0  0
 19 13  1  0  0  0  0
 19 20  1  0  0  0  0
 21 19  1  0  0  0  0
 22 19  1  0  0  0  0
 23 24  2  0  0  0  0
 24 28  1  0  0  0  0
 25 24  1  0  0  0  0
 25 29  1  0  0  0  0
 26 25  2  0  0  0  0
 27 26  1  0  0  0  0
 27 23  1  0  0  0  0
 30 31  1  0  0  0  0
 30 26  1  0  0  0  0
 32 34  1  0  0  0  0
 32 33  1  0  0  0  0
 32 30  1  0  0  0  0
 35 32  1  0  0  0  0
 36 35  1  0  0  0  0
M  END
>  <minimizedAffinity>
-6.93957901

$$$$

 OpenBabel03252500163D

 36 38  0  0  0  0  0  0  0  0999 V2000
   39.6090   31.2960   42.1340 Cl  0  0  0  0  0  0  0  0  0  0  0  0
   38.4330   30.9690   40.8980 C   0  0  0  0  0  0  0  0  0  0  0  0
   38.2010   31.8720   39.9040 C   0  0  0  0  0  0  0  0  0  0  0  0
   37.2690   31.6370   38.9050 C   0  0  0  0  0  0  0  0  0  0  0  0
   36.5830   30.4350   38.9710 C   0  0  0  0  0  0  0  0  0  0  0  0
   36.8250   29.5290   39.9810 C   0  0  0  0  0  0  0  0  0  0  0  0
   37.7380   29.7790   40.9420 C   0  0  0  0  0  0  0  0  0  0  0  0
   37.0760   32.3450   38.1110 H   0  0  0  0  0  0  0  0  0  0  0  0
   35.8510   30.2160   38.2130 H   0  0  0  0  0  0  0  0  0  0  0  0
   36.2760   28.5990   40.0090 H   0  0  0  0  0  0  0  0  0  0  0  0
   39.1090   35.4110   40.3690 C   0  0  0  0  0  0  0  0  0  0  0  0
   40.4100   35.4730   39.8140 C   0  0  0  0  0  0  0  0  0  0  0  0
   40.9520   34.3000   39.2900 C   0  0  0  0  0  0  0  0  0  0  0  0
   40.1990   33.1580   39.3420 N   0  0  0  0  0  0  0  0  0  0  0  0
   38.9570   33.1330   39.8810 C   0  0  0  0  0  0  0  0  0  0  0  0
   38.4270   34.2630   40.3880 N   0  0  0  0  0  0  0  0  0  0  0  0
   38.7350   36.3480   40.7610 H   0  0  0  0  0  0  0  0  0  0  0  0
   41.0400   36.3250   39.7460 H   0  0  0  0  0  0  0  0  0  0  0  0
   42.3090   34.2460   38.6820 C   0  0  0  0  0  0  0  0  0  0  0  0
   42.4530   35.2410   37.7420 F   0  0  0  0  0  0  0  0  0  0  0  0
   43.2500   34.4420   39.6830 F   0  0  0  0  0  0  0  0  0  0  0  0
   42.4680   33.0060   38.1380 F   0  0  0  0  0  0  0  0  0  0  0  0
   38.0010   28.8260   42.0180 C   0  0  0  0  0  0  0  0  0  0  0  0
   37.1270   28.5690   43.0690 C   0  0  0  0  0  0  0  0  0  0  0  0
   37.6940   27.6210   43.8930 C   0  0  0  0  0  0  0  0  0  0  0  0
   38.9010   27.3480   43.2890 C   0  0  0  0  0  0  0  0  0  0  0  0
   39.0460   28.0710   42.1950 O   0  0  0  0  0  0  0  0  0  0  0  0
   36.1390   28.9990   43.2820 H   0  0  0  0  0  0  0  0  0  0  0  0
   37.3730   27.1380   44.8040 H   0  0  0  0  0  0  0  0  0  0  0  0
   39.9640   26.4640   43.6270 N   0  0  0  0  0  0  0  0  0  0  0  0
   40.5630   26.5440   44.4780 H   0  0  0  0  0  0  0  0  0  0  0  0
   40.5130   25.0820   42.7430 S   0  0  0  0  0  0  0  0  0  0  0  0
   41.9850   24.9060   42.9340 O   0  0  0  0  0  1  0  0  0  0  0  0
   40.2240   25.2240   41.2740 O   0  0  0  0  0  1  0  0  0  0  0  0
   39.6550   23.7490   43.3510 O   0  0  0  0  0  0  0  0  0  0  0  0
   39.0160   23.4090   42.6730 H   0  0  0  0  0  0  0  0  0  0  0  0
  2  7  1  0  0  0  0
  2  1  1  0  0  0  0
  3  2  2  0  0  0  0
  4  5  2  0  0  0  0
  4  3  1  0  0  0  0
  5  6  1  0  0  0  0
  6 10  1  0  0  0  0
  6  7  2  0  0  0  0
  7 23  1  0  0  0  0
  8  4  1  0  0  0  0
  9  5  1  0  0  0  0
 11 16  1  0  0  0  0
 11 17  1  0  0  0  0
 12 11  2  0  0  0  0
 13 14  2  0  0  0  0
 13 12  1  0  0  0  0
 14 15  1  0  0  0  0
 15  3  1  0  0  0  0
 15 16  2  0  0  0  0
 18 12  1  0  0  0  0
 19 13  1  0  0  0  0
 19 21  1  0  0  0  0
 20 19  1  0  0  0  0
 22 19  1  0  0  0  0
 23 27  1  0  0  0  0
 23 24  2  0  0  0  0
 24 28  1  0  0  0  0
 24 25  1  0  0  0  0
 25 29  1  0  0  0  0
 26 30  1  0  0  0  0
 26 25  2  0  0  0  0
 27 26  1  0  0  0  0
 30 31  1  0  0  0  0
 32 33  1  0  0  0  0
 32 35  1  0  0  0  0
 32 30  1  0  0  0  0
 34 32  1  0  0  0  0
 36 35  1  0  0  0  0
M  END
>  <minimizedAffinity>
-6.78363609

$$$$

 OpenBabel03252500163D

 36 38  0  0  0  0  0  0  0  0999 V2000
   38.2110   27.5760   38.5330 Cl  0  0  0  0  0  0  0  0  0  0  0  0
   37.8940   28.2390   40.1080 C   0  0  0  0  0  0  0  0  0  0  0  0
   37.6640   27.4190   41.1730 C   0  0  0  0  0  0  0  0  0  0  0  0
   37.4100   27.9210   42.4410 C   0  0  0  0  0  0  0  0  0  0  0  0
   37.4010   29.3000   42.5680 C   0  0  0  0  0  0  0  0  0  0  0  0
   37.6340   30.1190   41.4850 C   0  0  0  0  0  0  0  0  0  0  0  0
   37.8800   29.6090   40.2600 C   0  0  0  0  0  0  0  0  0  0  0  0
   37.2270   27.2810   43.2930 H   0  0  0  0  0  0  0  0  0  0  0  0
   37.2060   29.7280   43.5360 H   0  0  0  0  0  0  0  0  0  0  0  0
   37.6200   31.1920   41.6120 H   0  0  0  0  0  0  0  0  0  0  0  0
   38.7610   23.9040   41.2340 C   0  0  0  0  0  0  0  0  0  0  0  0
   37.6860   23.2320   40.6040 C   0  0  0  0  0  0  0  0  0  0  0  0
   36.6040   23.9980   40.1700 C   0  0  0  0  0  0  0  0  0  0  0  0
   36.6420   25.3500   40.3760 N   0  0  0  0  0  0  0  0  0  0  0  0
   37.6870   25.9610   40.9820 C   0  0  0  0  0  0  0  0  0  0  0  0
   38.7360   25.2280   41.4040 N   0  0  0  0  0  0  0  0  0  0  0  0
   39.5750   23.2650   41.5510 H   0  0  0  0  0  0  0  0  0  0  0  0
   37.6000   22.1910   40.4170 H   0  0  0  0  0  0  0  0  0  0  0  0
   35.4190   23.4000   39.4960 C   0  0  0  0  0  0  0  0  0  0  0  0
   35.7540   22.2000   38.9120 F   0  0  0  0  0  0  0  0  0  0  0  0
   34.4370   23.1710   40.4490 F   0  0  0  0  0  0  0  0  0  0  0  0
   34.9680   24.3030   38.5800 F   0  0  0  0  0  0  0  0  0  0  0  0
   38.1280   30.4690   39.1060 C   0  0  0  0  0  0  0  0  0  0  0  0
   37.1370   30.9270   38.2430 C   0  0  0  0  0  0  0  0  0  0  0  0
   37.7250   31.7090   37.2720 C   0  0  0  0  0  0  0  0  0  0  0  0
   39.0620   31.6830   37.6010 C   0  0  0  0  0  0  0  0  0  0  0  0
   39.2590   30.9480   38.6790 O   0  0  0  0  0  0  0  0  0  0  0  0
   36.0540   30.7480   38.2590 H   0  0  0  0  0  0  0  0  0  0  0  0
   37.3430   32.2540   36.4220 H   0  0  0  0  0  0  0  0  0  0  0  0
   40.2070   32.2830   37.0070 N   0  0  0  0  0  0  0  0  0  0  0  0
   40.3860   32.3500   35.9810 H   0  0  0  0  0  0  0  0  0  0  0  0
   41.5460   33.0300   37.8090 S   0  0  0  0  0  0  0  0  0  0  0  0
   42.4960   31.9830   38.2970 O   0  0  0  0  0  1  0  0  0  0  0  0
   41.0900   33.8590   38.9780 O   0  0  0  0  0  1  0  0  0  0  0  0
   42.2900   34.0420   36.6670 O   0  0  0  0  0  0  0  0  0  0  0  0
   42.1530   34.9950   36.9070 H   0  0  0  0  0  0  0  0  0  0  0  0
  1  2  1  0  0  0  0
  2  7  2  0  0  0  0
  2  3  1  0  0  0  0
  3  4  2  0  0  0  0
  4  5  1  0  0  0  0
  4  8  1  0  0  0  0
  5  9  1  0  0  0  0
  6 10  1  0  0  0  0
  6  5  2  0  0  0  0
  7  6  1  0  0  0  0
 11 16  1  0  0  0  0
 11 17  1  0  0  0  0
 12 11  2  0  0  0  0
 13 14  2  0  0  0  0
 13 12  1  0  0  0  0
 14 15  1  0  0  0  0
 15  3  1  0  0  0  0
 15 16  2  0  0  0  0
 18 12  1  0  0  0  0
 19 13  1  0  0  0  0
 19 21  1  0  0  0  0
 20 19  1  0  0  0  0
 22 19  1  0  0  0  0
 23  7  1  0  0  0  0
 24 28  1  0  0  0  0
 24 23  2  0  0  0  0
 25 26  2  0  0  0  0
 25 24  1  0  0  0  0
 26 27  1  0  0  0  0
 27 23  1  0  0  0  0
 29 25  1  0  0  0  0
 30 26  1  0  0  0  0
 30 32  1  0  0  0  0
 31 30  1  0  0  0  0
 32 33  1  0  0  0  0
 32 34  1  0  0  0  0
 35 36  1  0  0  0  0
 35 32  1  0  0  0  0
M  END
>  <minimizedAffinity>
-6.45775318

$$$$

 OpenBabel03252500163D

 36 38  0  0  0  0  0  0  0  0999 V2000
   39.4000   31.1820   42.0450 Cl  0  0  0  0  0  0  0  0  0  0  0  0
   38.4490   31.0660   40.5950 C   0  0  0  0  0  0  0  0  0  0  0  0
   37.7310   29.9410   40.3250 C   0  0  0  0  0  0  0  0  0  0  0  0
   36.9630   29.8210   39.1760 C   0  0  0  0  0  0  0  0  0  0  0  0
   36.9650   30.9080   38.3160 C   0  0  0  0  0  0  0  0  0  0  0  0
   37.6960   32.0410   38.6000 C   0  0  0  0  0  0  0  0  0  0  0  0
   38.4350   32.1350   39.7240 C   0  0  0  0  0  0  0  0  0  0  0  0
   36.3880   28.9330   38.9500 H   0  0  0  0  0  0  0  0  0  0  0  0
   36.3820   30.8530   37.4140 H   0  0  0  0  0  0  0  0  0  0  0  0
   37.6800   32.8740   37.9120 H   0  0  0  0  0  0  0  0  0  0  0  0
   36.9280   27.7460   43.1710 C   0  0  0  0  0  0  0  0  0  0  0  0
   37.8590   26.6900   43.0210 C   0  0  0  0  0  0  0  0  0  0  0  0
   38.7450   26.7500   41.9460 C   0  0  0  0  0  0  0  0  0  0  0  0
   38.6660   27.8220   41.0990 N   0  0  0  0  0  0  0  0  0  0  0  0
   37.7630   28.8160   41.2710 C   0  0  0  0  0  0  0  0  0  0  0  0
   36.9030   28.7650   42.3090 N   0  0  0  0  0  0  0  0  0  0  0  0
   36.2650   27.6510   44.0210 H   0  0  0  0  0  0  0  0  0  0  0  0
   37.9680   25.8360   43.6430 H   0  0  0  0  0  0  0  0  0  0  0  0
   39.7660   25.6980   41.6900 C   0  0  0  0  0  0  0  0  0  0  0  0
   39.4030   24.5180   42.2990 F   0  0  0  0  0  0  0  0  0  0  0  0
   39.8460   25.4840   40.3210 F   0  0  0  0  0  0  0  0  0  0  0  0
   40.9610   26.1620   42.1520 F   0  0  0  0  0  0  0  0  0  0  0  0
   39.2140   33.3320   40.0340 C   0  0  0  0  0  0  0  0  0  0  0  0
   38.6600   34.5830   40.2890 C   0  0  0  0  0  0  0  0  0  0  0  0
   39.6800   35.4740   40.5420 C   0  0  0  0  0  0  0  0  0  0  0  0
   40.8170   34.7060   40.4230 C   0  0  0  0  0  0  0  0  0  0  0  0
   40.5050   33.4590   40.1260 O   0  0  0  0  0  0  0  0  0  0  0  0
   37.6070   34.8940   40.3090 H   0  0  0  0  0  0  0  0  0  0  0  0
   39.7080   36.5270   40.7810 H   0  0  0  0  0  0  0  0  0  0  0  0
   42.2000   35.0130   40.5600 N   0  0  0  0  0  0  0  0  0  0  0  0
   42.7390   35.6480   39.9320 H   0  0  0  0  0  0  0  0  0  0  0  0
   43.2990   34.4300   41.7620 S   0  0  0  0  0  0  0  0  0  0  0  0
   43.5070   35.4740   42.8130 O   0  0  0  0  0  1  0  0  0  0  0  0
   44.6300   34.0720   41.1590 O   0  0  0  0  0  1  0  0  0  0  0  0
   42.5960   33.0320   42.4220 O   0  0  0  0  0  0  0  0  0  0  0  0
   43.1120   32.2270   42.1590 H   0  0  0  0  0  0  0  0  0  0  0  0
  2  1  1  0  0  0  0
  3  2  1  0  0  0  0
  3 15  1  0  0  0  0
  4  3  2  0  0  0  0
  5  6  2  0  0  0  0
  5  4  1  0  0  0  0
  6  7  1  0  0  0  0
  7 23  1  0  0  0  0
  7  2  2  0  0  0  0
  8  4  1  0  0  0  0
  9  5  1  0  0  0  0
 10  6  1  0  0  0  0
 11 17  1  0  0  0  0
 12 11  1  0  0  0  0
 12 18  1  0  0  0  0
 13 12  2  0  0  0  0
 14 15  2  0  0  0  0
 14 13  1  0  0  0  0
 15 16  1  0  0  0  0
 16 11  2  0  0  0  0
 19 13  1  0  0  0  0
 19 22  1  0  0  0  0
 19 20  1  0  0  0  0
 21 19  1  0  0  0  0
 23 27  1  0  0  0  0
 23 24  2  0  0  0  0
 24 28  1  0  0  0  0
 24 25  1  0  0  0  0
 25 29  1  0  0  0  0
 26 25  2  0  0  0  0
 26 30  1  0  0  0  0
 27 26  1  0  0  0  0
 30 32  1  0  0  0  0
 31 30  1  0  0  0  0
 32 35  1  0  0  0  0
 32 33  1  0  0  0  0
 34 32  1  0  0  0  0
 36 35  1  0  0  0  0
M  END
>  <minimizedAffinity>
-6.40056562

$$$$

 OpenBabel03252500163D

 36 38  0  0  0  0  0  0  0  0999 V2000
   40.5740   28.7920   40.0430 Cl  0  0  0  0  0  0  0  0  0  0  0  0
   39.1990   29.5610   39.3080 C   0  0  0  0  0  0  0  0  0  0  0  0
   37.9690   29.4880   39.8900 C   0  0  0  0  0  0  0  0  0  0  0  0
   36.8560   30.0920   39.3250 C   0  0  0  0  0  0  0  0  0  0  0  0
   37.0590   30.7730   38.1370 C   0  0  0  0  0  0  0  0  0  0  0  0
   38.3080   30.8400   37.5560 C   0  0  0  0  0  0  0  0  0  0  0  0
   39.3770   30.2450   38.1240 C   0  0  0  0  0  0  0  0  0  0  0  0
   35.8750   30.0420   39.7780 H   0  0  0  0  0  0  0  0  0  0  0  0
   36.2200   31.2550   37.6670 H   0  0  0  0  0  0  0  0  0  0  0  0
   38.4390   31.3770   36.6290 H   0  0  0  0  0  0  0  0  0  0  0  0
   37.6190   28.7450   43.4800 C   0  0  0  0  0  0  0  0  0  0  0  0
   37.5070   27.3340   43.4950 C   0  0  0  0  0  0  0  0  0  0  0  0
   37.5530   26.6630   42.2740 C   0  0  0  0  0  0  0  0  0  0  0  0
   37.7040   27.4030   41.1330 N   0  0  0  0  0  0  0  0  0  0  0  0
   37.8080   28.7530   41.1530 C   0  0  0  0  0  0  0  0  0  0  0  0
   37.7650   29.4080   42.3300 N   0  0  0  0  0  0  0  0  0  0  0  0
   37.5780   29.2160   44.4530 H   0  0  0  0  0  0  0  0  0  0  0  0
   37.3880   26.7080   44.3450 H   0  0  0  0  0  0  0  0  0  0  0  0
   37.4450   25.1820   42.1690 C   0  0  0  0  0  0  0  0  0  0  0  0
   38.5130   24.5780   42.7900 F   0  0  0  0  0  0  0  0  0  0  0  0
   36.2770   24.7780   42.8010 F   0  0  0  0  0  0  0  0  0  0  0  0
   37.3820   24.8670   40.8430 F   0  0  0  0  0  0  0  0  0  0  0  0
   40.7040   30.3090   37.5170 C   0  0  0  0  0  0  0  0  0  0  0  0
   41.3000   29.2610   36.8220 C   0  0  0  0  0  0  0  0  0  0  0  0
   42.5430   29.6690   36.3890 C   0  0  0  0  0  0  0  0  0  0  0  0
   42.6380   30.9620   36.8520 C   0  0  0  0  0  0  0  0  0  0  0  0
   41.5440   31.3020   37.5060 O   0  0  0  0  0  0  0  0  0  0  0  0
   40.9180   28.2540   36.6080 H   0  0  0  0  0  0  0  0  0  0  0  0
   43.3300   29.1900   35.8260 H   0  0  0  0  0  0  0  0  0  0  0  0
   43.6630   31.9440   36.7490 N   0  0  0  0  0  0  0  0  0  0  0  0
   44.5040   31.8720   36.1340 H   0  0  0  0  0  0  0  0  0  0  0  0
   43.7710   33.4540   37.5870 S   0  0  0  0  0  0  0  0  0  0  0  0
   45.1910   33.9220   37.6150 O   0  0  0  0  0  1  0  0  0  0  0  0
   43.2690   33.3310   38.9990 O   0  0  0  0  0  1  0  0  0  0  0  0
   42.7850   34.5470   36.7410 O   0  0  0  0  0  0  0  0  0  0  0  0
   41.9860   34.7820   37.2790 H   0  0  0  0  0  0  0  0  0  0  0  0
  2  3  1  0  0  0  0
  2  1  1  0  0  0  0
  3 15  1  0  0  0  0
  4  8  1  0  0  0  0
  4  3  2  0  0  0  0
  5  4  1  0  0  0  0
  6  7  1  0  0  0  0
  6  5  2  0  0  0  0
  7  2  2  0  0  0  0
  9  5  1  0  0  0  0
 10  6  1  0  0  0  0
 11 12  1  0  0  0  0
 11 17  1  0  0  0  0
 12 18  1  0  0  0  0
 13 12  2  0  0  0  0
 14 15  2  0  0  0  0
 14 13  1  0  0  0  0
 15 16  1  0  0  0  0
 16 11  2  0  0  0  0
 19 13  1  0  0  0  0
 19 20  1  0  0  0  0
 19 21  1  0  0  0  0
 22 19  1  0  0  0  0
 23  7  1  0  0  0  0
 24 23  2  0  0  0  0
 25 24  1  0  0  0  0
 25 26  2  0  0  0  0
 26 27  1  0  0  0  0
 27 23  1  0  0  0  0
 28 24  1  0  0  0  0
 29 25  1  0  0  0  0
 30 26  1  0  0  0  0
 30 32  1  0  0  0  0
 31 30  1  0  0  0  0
 32 33  1  0  0  0  0
 32 34  1  0  0  0  0
 35 36  1  0  0  0  0
 35 32  1  0  0  0  0
M  END
>  <minimizedAffinity>
-6.32924843

$$$$

 OpenBabel03252500163D

 36 38  0  0  0  0  0  0  0  0999 V2000
   40.0430   28.4260   40.4450 Cl  0  0  0  0  0  0  0  0  0  0  0  0
   38.3460   28.7720   40.5900 C   0  0  0  0  0  0  0  0  0  0  0  0
   37.8370   29.9520   40.1360 C   0  0  0  0  0  0  0  0  0  0  0  0
   36.4870   30.2540   40.2370 C   0  0  0  0  0  0  0  0  0  0  0  0
   35.6820   29.2920   40.8260 C   0  0  0  0  0  0  0  0  0  0  0  0
   36.2080   28.1030   41.2820 C   0  0  0  0  0  0  0  0  0  0  0  0
   37.5240   27.8300   41.1720 C   0  0  0  0  0  0  0  0  0  0  0  0
   36.0720   31.1860   39.8800 H   0  0  0  0  0  0  0  0  0  0  0  0
   34.6290   29.4900   40.9230 H   0  0  0  0  0  0  0  0  0  0  0  0
   35.5570   27.3700   41.7370 H   0  0  0  0  0  0  0  0  0  0  0  0
   40.1520   31.5710   37.7730 C   0  0  0  0  0  0  0  0  0  0  0  0
   40.4130   32.8150   38.3980 C   0  0  0  0  0  0  0  0  0  0  0  0
   39.7890   33.0750   39.6180 C   0  0  0  0  0  0  0  0  0  0  0  0
   38.9640   32.1170   40.1410 N   0  0  0  0  0  0  0  0  0  0  0  0
   38.7360   30.9380   39.5180 C   0  0  0  0  0  0  0  0  0  0  0  0
   39.3350   30.6790   38.3390 N   0  0  0  0  0  0  0  0  0  0  0  0
   40.6610   31.4190   36.8300 H   0  0  0  0  0  0  0  0  0  0  0  0
   41.0410   33.5940   38.0420 H   0  0  0  0  0  0  0  0  0  0  0  0
   39.9900   34.3470   40.3640 C   0  0  0  0  0  0  0  0  0  0  0  0
   41.2040   34.3380   41.0110 F   0  0  0  0  0  0  0  0  0  0  0  0
   39.9770   35.3980   39.4580 F   0  0  0  0  0  0  0  0  0  0  0  0
   38.9500   34.4810   41.2360 F   0  0  0  0  0  0  0  0  0  0  0  0
   38.0910   26.5720   41.6520 C   0  0  0  0  0  0  0  0  0  0  0  0
   37.4290   25.3490   41.6130 C   0  0  0  0  0  0  0  0  0  0  0  0
   38.2550   24.3830   42.1450 C   0  0  0  0  0  0  0  0  0  0  0  0
   39.3920   25.0810   42.4860 C   0  0  0  0  0  0  0  0  0  0  0  0
   39.2590   26.3580   42.1830 O   0  0  0  0  0  0  0  0  0  0  0  0
   36.4250   25.1050   41.2400 H   0  0  0  0  0  0  0  0  0  0  0  0
   38.1510   23.3200   42.3080 H   0  0  0  0  0  0  0  0  0  0  0  0
   40.6220   24.6800   43.0780 N   0  0  0  0  0  0  0  0  0  0  0  0
   40.8280   23.7260   43.4470 H   0  0  0  0  0  0  0  0  0  0  0  0
   42.0390   25.6410   43.3280 S   0  0  0  0  0  0  0  0  0  0  0  0
   41.8440   26.5410   44.5050 O   0  0  0  0  0  1  0  0  0  0  0  0
   42.3510   26.4790   42.1180 O   0  0  0  0  0  1  0  0  0  0  0  0
   43.3180   24.5560   43.5940 O   0  0  0  0  0  0  0  0  0  0  0  0
   43.9500   24.5710   42.8300 H   0  0  0  0  0  0  0  0  0  0  0  0
  1  2  1  0  0  0  0
  2  7  1  0  0  0  0
  3  4  1  0  0  0  0
  3  2  2  0  0  0  0
  4  5  2  0  0  0  0
  5  9  1  0  0  0  0
  5  6  1  0  0  0  0
  6 10  1  0  0  0  0
  7  6  2  0  0  0  0
  7 23  1  0  0  0  0
  8  4  1  0  0  0  0
 11 16  2  0  0  0  0
 11 12  1  0  0  0  0
 12 13  2  0  0  0  0
 13 14  1  0  0  0  0
 13 19  1  0  0  0  0
 15  3  1  0  0  0  0
 15 14  2  0  0  0  0
 16 15  1  0  0  0  0
 17 11  1  0  0  0  0
 18 12  1  0  0  0  0
 19 20  1  0  0  0  0
 19 22  1  0  0  0  0
 21 19  1  0  0  0  0
 23 27  1  0  0  0  0
 24 23  2  0  0  0  0
 24 25  1  0  0  0  0
 25 29  1  0  0  0  0
 25 26  2  0  0  0  0
 26 30  1  0  0  0  0
 27 26  1  0  0  0  0
 28 24  1  0  0  0  0
 30 32  1  0  0  0  0
 30 31  1  0  0  0  0
 32 35  1  0  0  0  0
 32 33  1  0  0  0  0
 34 32  1  0  0  0  0
 36 35  1  0  0  0  0
M  END
>  <minimizedAffinity>
-6.31449652

$$$$

 OpenBabel03252500163D

 36 38  0  0  0  0  0  0  0  0999 V2000
   37.7860   27.8740   39.1650 Cl  0  0  0  0  0  0  0  0  0  0  0  0
   37.6010   27.9420   40.8910 C   0  0  0  0  0  0  0  0  0  0  0  0
   37.5340   26.7980   41.6280 C   0  0  0  0  0  0  0  0  0  0  0  0
   37.3870   26.8220   43.0070 C   0  0  0  0  0  0  0  0  0  0  0  0
   37.3110   28.0730   43.5970 C   0  0  0  0  0  0  0  0  0  0  0  0
   37.3790   29.2240   42.8420 C   0  0  0  0  0  0  0  0  0  0  0  0
   37.5230   29.1760   41.5010 C   0  0  0  0  0  0  0  0  0  0  0  0
   37.3330   25.9210   43.6020 H   0  0  0  0  0  0  0  0  0  0  0  0
   37.1970   28.1350   44.6650 H   0  0  0  0  0  0  0  0  0  0  0  0
   37.3180   30.1880   43.3270 H   0  0  0  0  0  0  0  0  0  0  0  0
   38.8920   23.6930   40.1850 C   0  0  0  0  0  0  0  0  0  0  0  0
   37.7350   23.0550   39.6760 C   0  0  0  0  0  0  0  0  0  0  0  0
   36.5100   23.7020   39.8380 C   0  0  0  0  0  0  0  0  0  0  0  0
   36.4950   24.9120   40.4760 N   0  0  0  0  0  0  0  0  0  0  0  0
   37.6200   25.4950   40.9510 C   0  0  0  0  0  0  0  0  0  0  0  0
   38.8080   24.8760   40.7990 N   0  0  0  0  0  0  0  0  0  0  0  0
   39.8150   23.1500   40.0340 H   0  0  0  0  0  0  0  0  0  0  0  0
   37.6840   22.1210   39.1740 H   0  0  0  0  0  0  0  0  0  0  0  0
   35.2290   23.1260   39.3430 C   0  0  0  0  0  0  0  0  0  0  0  0
   35.4230   21.8410   38.8910 F   0  0  0  0  0  0  0  0  0  0  0  0
   34.3240   23.0950   40.3940 F   0  0  0  0  0  0  0  0  0  0  0  0
   34.7620   23.9470   38.3590 F   0  0  0  0  0  0  0  0  0  0  0  0
   37.5960   30.3900   40.6930 C   0  0  0  0  0  0  0  0  0  0  0  0
   36.5100   30.9640   40.0400 C   0  0  0  0  0  0  0  0  0  0  0  0
   36.9390   32.0920   39.3760 C   0  0  0  0  0  0  0  0  0  0  0  0
   38.2850   32.1440   39.6630 C   0  0  0  0  0  0  0  0  0  0  0  0
   38.6330   31.1330   40.4360 O   0  0  0  0  0  0  0  0  0  0  0  0
   35.4600   30.6420   40.0080 H   0  0  0  0  0  0  0  0  0  0  0  0
   36.4450   32.8260   38.7570 H   0  0  0  0  0  0  0  0  0  0  0  0
   39.3110   33.0570   39.2880 N   0  0  0  0  0  0  0  0  0  0  0  0
   39.7490   33.1120   38.3430 H   0  0  0  0  0  0  0  0  0  0  0  0
   40.0650   34.2630   40.2720 S   0  0  0  0  0  0  0  0  0  0  0  0
   40.3710   35.4740   39.4500 O   0  0  0  0  0  1  0  0  0  0  0  0
   41.3410   33.7510   40.8830 O   0  0  0  0  0  1  0  0  0  0  0  0
   38.9660   34.6310   41.5130 O   0  0  0  0  0  0  0  0  0  0  0  0
   39.3050   34.3040   42.3850 H   0  0  0  0  0  0  0  0  0  0  0  0
  1  2  1  0  0  0  0
  2  7  2  0  0  0  0
  2  3  1  0  0  0  0
  3  4  2  0  0  0  0
  4  5  1  0  0  0  0
  4  8  1  0  0  0  0
  5  9  1  0  0  0  0
  6 10  1  0  0  0  0
  6  5  2  0  0  0  0
  7  6  1  0  0  0  0
 11 16  1  0  0  0  0
 12 13  1  0  0  0  0
 12 11  2  0  0  0  0
 13 14  2  0  0  0  0
 14 15  1  0  0  0  0
 15  3  1  0  0  0  0
 16 15  2  0  0  0  0
 17 11  1  0  0  0  0
 18 12  1  0  0  0  0
 19 13  1  0  0  0  0
 19 21  1  0  0  0  0
 20 19  1  0  0  0  0
 22 19  1  0  0  0  0
 23  7  1  0  0  0  0
 24 23  2  0  0  0  0
 25 26  2  0  0  0  0
 25 24  1  0  0  0  0
 26 27  1  0  0  0  0
 27 23  1  0  0  0  0
 28 24  1  0  0  0  0
 29 25  1  0  0  0  0
 30 26  1  0  0  0  0
 30 32  1  0  0  0  0
 31 30  1  0  0  0  0
 32 34  1  0  0  0  0
 32 35  1  0  0  0  0
 33 32  1  0  0  0  0
 35 36  1  0  0  0  0
M  END
>  <minimizedAffinity>
-6.29986286

$$$$

 OpenBabel03252500163D

 36 38  0  0  0  0  0  0  0  0999 V2000
   40.0850   29.6290   41.1590 Cl  0  0  0  0  0  0  0  0  0  0  0  0
   38.3600   29.6900   40.9550 C   0  0  0  0  0  0  0  0  0  0  0  0
   37.5920   28.5930   41.2090 C   0  0  0  0  0  0  0  0  0  0  0  0
   36.2140   28.6140   41.0560 C   0  0  0  0  0  0  0  0  0  0  0  0
   35.6590   29.8090   40.6280 C   0  0  0  0  0  0  0  0  0  0  0  0
   36.4450   30.9110   40.3730 C   0  0  0  0  0  0  0  0  0  0  0  0
   37.7840   30.8680   40.5300 C   0  0  0  0  0  0  0  0  0  0  0  0
   35.5940   27.7510   41.2550 H   0  0  0  0  0  0  0  0  0  0  0  0
   34.5920   29.8650   40.4960 H   0  0  0  0  0  0  0  0  0  0  0  0
   35.9860   31.8310   40.0400 H   0  0  0  0  0  0  0  0  0  0  0  0
   39.3120   26.1190   43.3270 C   0  0  0  0  0  0  0  0  0  0  0  0
   39.4260   25.0000   42.4670 C   0  0  0  0  0  0  0  0  0  0  0  0
   38.9100   25.1150   41.1760 C   0  0  0  0  0  0  0  0  0  0  0  0
   38.3250   26.2980   40.8140 N   0  0  0  0  0  0  0  0  0  0  0  0
   38.2330   27.3500   41.6620 C   0  0  0  0  0  0  0  0  0  0  0  0
   38.7300   27.2460   42.9110 N   0  0  0  0  0  0  0  0  0  0  0  0
   39.7280   25.9780   44.3160 H   0  0  0  0  0  0  0  0  0  0  0  0
   39.8660   24.0600   42.6900 H   0  0  0  0  0  0  0  0  0  0  0  0
   38.9730   24.0050   40.1870 C   0  0  0  0  0  0  0  0  0  0  0  0
   40.2300   23.9250   39.6340 F   0  0  0  0  0  0  0  0  0  0  0  0
   38.7000   22.8130   40.8430 F   0  0  0  0  0  0  0  0  0  0  0  0
   38.0160   24.2390   39.2440 F   0  0  0  0  0  0  0  0  0  0  0  0
   38.6270   32.0310   40.2620 C   0  0  0  0  0  0  0  0  0  0  0  0
   38.8450   33.0660   41.1660 C   0  0  0  0  0  0  0  0  0  0  0  0
   39.6850   33.9900   40.5850 C   0  0  0  0  0  0  0  0  0  0  0  0
   39.9370   33.4600   39.3390 C   0  0  0  0  0  0  0  0  0  0  0  0
   39.3010   32.3140   39.1860 O   0  0  0  0  0  0  0  0  0  0  0  0
   38.4570   33.2030   42.1850 H   0  0  0  0  0  0  0  0  0  0  0  0
   40.1080   34.9270   40.9180 H   0  0  0  0  0  0  0  0  0  0  0  0
   40.7260   33.9140   38.2450 N   0  0  0  0  0  0  0  0  0  0  0  0
   40.5270   34.7650   37.6750 H   0  0  0  0  0  0  0  0  0  0  0  0
   42.1630   33.1940   37.6060 S   0  0  0  0  0  0  0  0  0  0  0  0
   41.8210   31.9410   36.8670 O   0  0  0  0  0  1  0  0  0  0  0  0
   43.1410   32.8640   38.7000 O   0  0  0  0  0  1  0  0  0  0  0  0
   42.8590   34.3440   36.5680 O   0  0  0  0  0  0  0  0  0  0  0  0
   43.7040   34.6910   36.9530 H   0  0  0  0  0  0  0  0  0  0  0  0
  2  1  1  0  0  0  0
  2  3  1  0  0  0  0
  3 15  1  0  0  0  0
  4  3  2  0  0  0  0
  4  8  1  0  0  0  0
  5  4  1  0  0  0  0
  6  7  1  0  0  0  0
  6  5  2  0  0  0  0
  7  2  2  0  0  0  0
  9  5  1  0  0  0  0
 10  6  1  0  0  0  0
 11 17  1  0  0  0  0
 12 18  1  0  0  0  0
 12 11  2  0  0  0  0
 13 12  1  0  0  0  0
 14 13  2  0  0  0  0
 14 15  1  0  0  0  0
 15 16  2  0  0  0  0
 16 11  1  0  0  0  0
 19 21  1  0  0  0  0
 19 13  1  0  0  0  0
 20 19  1  0  0  0  0
 22 19  1  0  0  0  0
 23  7  1  0  0  0  0
 23 24  2  0  0  0  0
 24 28  1  0  0  0  0
 25 29  1  0  0  0  0
 25 24  1  0  0  0  0
 26 25  2  0  0  0  0
 27 26  1  0  0  0  0
 27 23  1  0  0  0  0
 30 26  1  0  0  0  0
 31 30  1  0  0  0  0
 32 30  1  0  0  0  0
 32 34  1  0  0  0  0
 33 32  1  0  0  0  0
 35 36  1  0  0  0  0
 35 32  1  0  0  0  0
M  END
>  <minimizedAffinity>
-6.0894208

$$$$

 OpenBabel03252500163D

 36 38  0  0  0  0  0  0  0  0999 V2000
   38.6370   29.0650   41.5550 Cl  0  0  0  0  0  0  0  0  0  0  0  0
   37.7320   29.0430   40.0720 C   0  0  0  0  0  0  0  0  0  0  0  0
   37.1740   27.8860   39.6170 C   0  0  0  0  0  0  0  0  0  0  0  0
   36.4450   27.8400   38.4370 C   0  0  0  0  0  0  0  0  0  0  0  0
   36.3150   29.0330   37.7450 C   0  0  0  0  0  0  0  0  0  0  0  0
   36.8840   30.1970   38.2150 C   0  0  0  0  0  0  0  0  0  0  0  0
   37.5880   30.2190   39.3660 C   0  0  0  0  0  0  0  0  0  0  0  0
   35.9980   26.9290   38.0660 H   0  0  0  0  0  0  0  0  0  0  0  0
   35.7580   29.0390   36.8250 H   0  0  0  0  0  0  0  0  0  0  0  0
   36.7680   31.1140   37.6560 H   0  0  0  0  0  0  0  0  0  0  0  0
   36.6810   24.4620   40.8800 C   0  0  0  0  0  0  0  0  0  0  0  0
   37.6910   24.3460   41.8650 C   0  0  0  0  0  0  0  0  0  0  0  0
   38.5230   25.4450   42.0770 C   0  0  0  0  0  0  0  0  0  0  0  0
   38.3170   26.5700   41.3250 N   0  0  0  0  0  0  0  0  0  0  0  0
   37.3410   26.6470   40.3910 C   0  0  0  0  0  0  0  0  0  0  0  0
   36.5330   25.5900   40.1800 N   0  0  0  0  0  0  0  0  0  0  0  0
   36.0630   23.5830   40.7550 H   0  0  0  0  0  0  0  0  0  0  0  0
   37.8990   23.5040   42.4770 H   0  0  0  0  0  0  0  0  0  0  0  0
   39.6180   25.4380   43.0860 C   0  0  0  0  0  0  0  0  0  0  0  0
   39.3360   26.3140   44.1080 F   0  0  0  0  0  0  0  0  0  0  0  0
   39.7230   24.1590   43.6140 F   0  0  0  0  0  0  0  0  0  0  0  0
   40.7740   25.7640   42.4410 F   0  0  0  0  0  0  0  0  0  0  0  0
   38.1950   31.4470   39.8730 C   0  0  0  0  0  0  0  0  0  0  0  0
   37.5020   32.6350   40.0830 C   0  0  0  0  0  0  0  0  0  0  0  0
   38.3820   33.5800   40.5630 C   0  0  0  0  0  0  0  0  0  0  0  0
   39.5820   32.9060   40.6180 C   0  0  0  0  0  0  0  0  0  0  0  0
   39.4340   31.6620   40.2070 O   0  0  0  0  0  0  0  0  0  0  0  0
   36.4400   32.8660   39.9240 H   0  0  0  0  0  0  0  0  0  0  0  0
   38.2790   34.6150   40.8560 H   0  0  0  0  0  0  0  0  0  0  0  0
   40.8880   33.3040   41.0230 N   0  0  0  0  0  0  0  0  0  0  0  0
   41.4430   32.8550   41.7830 H   0  0  0  0  0  0  0  0  0  0  0  0
   41.8490   34.5900   40.3780 S   0  0  0  0  0  0  0  0  0  0  0  0
   42.3270   35.4740   41.4850 O   0  0  0  0  0  1  0  0  0  0  0  0
   41.0670   35.4180   39.3960 O   0  0  0  0  0  1  0  0  0  0  0  0
   43.1540   33.8600   39.5730 O   0  0  0  0  0  0  0  0  0  0  0  0
   43.0730   33.9900   38.5930 H   0  0  0  0  0  0  0  0  0  0  0  0
  2  1  1  0  0  0  0
  3  2  1  0  0  0  0
  3 15  1  0  0  0  0
  4  3  2  0  0  0  0
  5  6  2  0  0  0  0
  5  4  1  0  0  0  0
  6  7  1  0  0  0  0
  7 23  1  0  0  0  0
  7  2  2  0  0  0  0
  8  4  1  0  0  0  0
  9  5  1  0  0  0  0
 10  6  1  0  0  0  0
 11 12  1  0  0  0  0
 12 13  2  0  0  0  0
 12 18  1  0  0  0  0
 13 19  1  0  0  0  0
 14 13  1  0  0  0  0
 15 14  2  0  0  0  0
 16 15  1  0  0  0  0
 16 11  2  0  0  0  0
 17 11  1  0  0  0  0
 19 21  1  0  0  0  0
 19 20  1  0  0  0  0
 22 19  1  0  0  0  0
 23 24  2  0  0  0  0
 23 27  1  0  0  0  0
 24 25  1  0  0  0  0
 25 26  2  0  0  0  0
 25 29  1  0  0  0  0
 26 30  1  0  0  0  0
 27 26  1  0  0  0  0
 28 24  1  0  0  0  0
 30 31  1  0  0  0  0
 32 30  1  0  0  0  0
 32 33  1  0  0  0  0
 34 32  1  0  0  0  0
 35 32  1  0  0  0  0
 36 35  1  0  0  0  0
M  END
>  <minimizedAffinity>
-6.05246544

$$$$
