
 OpenBabel03252503003D

 20 20  0  0  0  0  0  0  0  0999 V2000
   35.6150   29.2690   40.4650 S   0  0  0  0  0  0  0  0  0  0  0  0
   36.9920   27.0620   41.4160 C   0  0  0  0  0  0  0  0  0  0  0  0
   36.7370   28.4160   41.5970 C   0  0  0  0  0  0  0  0  0  0  0  0
   37.3360   29.1280   42.6430 C   0  0  0  0  0  0  0  0  0  0  0  0
   38.1710   28.4150   43.4550 N   0  0  0  0  0  0  0  0  0  0  0  0
   38.3880   27.1170   43.2450 C   0  0  0  0  0  0  0  0  0  0  0  0
   37.8370   26.4120   42.2640 N   0  0  0  0  0  0  0  0  0  0  0  0
   36.5020   26.5580   40.5920 H   0  0  0  0  0  0  0  0  0  0  0  0
   37.1200   30.1800   42.7600 H   0  0  0  0  0  0  0  0  0  0  0  0
   39.0620   26.6200   43.9310 H   0  0  0  0  0  0  0  0  0  0  0  0
   36.5170   30.5460   39.5900 C   0  0  0  0  0  0  0  0  0  0  0  0
   37.5450   30.2500   39.3140 H   0  0  0  0  0  0  0  0  0  0  0  0
   35.9960   30.7910   38.6410 H   0  0  0  0  0  0  0  0  0  0  0  0
   36.5370   31.7330   40.4490 N   0  0  0  0  0  0  0  0  0  0  0  0
   36.7120   31.4510   41.4290 H   0  0  0  0  0  0  0  0  0  0  0  0
   37.6890   32.8920   39.8890 S   0  0  0  0  0  0  0  0  0  0  0  0
   38.6080   33.3370   40.9600 O   0  0  0  0  0  1  0  0  0  0  0  0
   38.4500   32.2020   38.7700 O   0  0  0  0  0  1  0  0  0  0  0  0
   36.8700   34.1600   39.1520 O   0  0  0  0  0  0  0  0  0  0  0  0
   36.9160   34.9640   39.7470 H   0  0  0  0  0  0  0  0  0  0  0  0
  1  3  1  0  0  0  0
  2  3  2  0  0  0  0
  2  7  1  0  0  0  0
  3  4  1  0  0  0  0
  4  9  1  0  0  0  0
  4  5  2  0  0  0  0
  6  5  1  0  0  0  0
  6 10  1  0  0  0  0
  7  6  2  0  0  0  0
  8  2  1  0  0  0  0
 11 14  1  0  0  0  0
 11  1  1  0  0  0  0
 12 11  1  0  0  0  0
 13 11  1  0  0  0  0
 14 15  1  0  0  0  0
 16 14  1  0  0  0  0
 16 17  1  0  0  0  0
 18 16  1  0  0  0  0
 19 20  1  0  0  0  0
 19 16  1  0  0  0  0
M  END
>  <minimizedAffinity>
-3.98838329

$$$$

 OpenBabel03252503003D

 20 20  0  0  0  0  0  0  0  0999 V2000
   37.3940   28.3770   42.9470 S   0  0  0  0  0  0  0  0  0  0  0  0
   37.9050   25.7380   42.2790 C   0  0  0  0  0  0  0  0  0  0  0  0
   38.3660   26.8530   42.9690 C   0  0  0  0  0  0  0  0  0  0  0  0
   39.5710   26.8110   43.6800 C   0  0  0  0  0  0  0  0  0  0  0  0
   40.2480   25.6260   43.6490 N   0  0  0  0  0  0  0  0  0  0  0  0
   39.7700   24.5810   42.9730 C   0  0  0  0  0  0  0  0  0  0  0  0
   38.6320   24.5850   42.2890 N   0  0  0  0  0  0  0  0  0  0  0  0
   36.9660   25.8230   41.7450 H   0  0  0  0  0  0  0  0  0  0  0  0
   39.9060   27.6930   44.2080 H   0  0  0  0  0  0  0  0  0  0  0  0
   40.3620   23.6760   42.9960 H   0  0  0  0  0  0  0  0  0  0  0  0
   38.3800   29.6950   42.2390 C   0  0  0  0  0  0  0  0  0  0  0  0
   38.2250   30.6740   42.7290 H   0  0  0  0  0  0  0  0  0  0  0  0
   39.4590   29.4580   42.3490 H   0  0  0  0  0  0  0  0  0  0  0  0
   38.0460   29.7750   40.8150 N   0  0  0  0  0  0  0  0  0  0  0  0
   37.6150   28.8850   40.5080 H   0  0  0  0  0  0  0  0  0  0  0  0
   37.0350   31.1350   40.4830 S   0  0  0  0  0  0  0  0  0  0  0  0
   37.7390   32.4220   40.6770 O   0  0  0  0  0  1  0  0  0  0  0  0
   36.5900   30.9690   39.0400 O   0  0  0  0  0  1  0  0  0  0  0  0
   35.6310   31.0060   41.3970 O   0  0  0  0  0  0  0  0  0  0  0  0
   35.6600   31.6860   42.1320 H   0  0  0  0  0  0  0  0  0  0  0  0
  1  3  1  0  0  0  0
  2  7  2  0  0  0  0
  2  3  1  0  0  0  0
  3  4  2  0  0  0  0
  4  9  1  0  0  0  0
  5  4  1  0  0  0  0
  6 10  1  0  0  0  0
  6  5  2  0  0  0  0
  7  6  1  0  0  0  0
  8  2  1  0  0  0  0
 11 13  1  0  0  0  0
 11 12  1  0  0  0  0
 11  1  1  0  0  0  0
 14 11  1  0  0  0  0
 15 14  1  0  0  0  0
 16 17  1  0  0  0  0
 16 14  1  0  0  0  0
 16 19  1  0  0  0  0
 18 16  1  0  0  0  0
 19 20  1  0  0  0  0
M  END
>  <minimizedAffinity>
-3.97749448

$$$$

 OpenBabel03252503003D

 20 20  0  0  0  0  0  0  0  0999 V2000
   38.5850   27.2470   43.4860 S   0  0  0  0  0  0  0  0  0  0  0  0
   37.1370   25.2510   42.2270 C   0  0  0  0  0  0  0  0  0  0  0  0
   38.0990   26.2400   42.0650 C   0  0  0  0  0  0  0  0  0  0  0  0
   38.6960   26.4660   40.8200 C   0  0  0  0  0  0  0  0  0  0  0  0
   38.2770   25.6660   39.7970 N   0  0  0  0  0  0  0  0  0  0  0  0
   37.3500   24.7290   39.9950 C   0  0  0  0  0  0  0  0  0  0  0  0
   36.7630   24.4870   41.1610 N   0  0  0  0  0  0  0  0  0  0  0  0
   36.7060   25.1160   43.2120 H   0  0  0  0  0  0  0  0  0  0  0  0
   39.4420   27.2420   40.7230 H   0  0  0  0  0  0  0  0  0  0  0  0
   37.0700   24.1330   39.1360 H   0  0  0  0  0  0  0  0  0  0  0  0
   38.5070   28.9800   43.0350 C   0  0  0  0  0  0  0  0  0  0  0  0
   39.0530   29.6420   43.7310 H   0  0  0  0  0  0  0  0  0  0  0  0
   38.9650   29.1290   42.0350 H   0  0  0  0  0  0  0  0  0  0  0  0
   37.0910   29.3530   42.9770 N   0  0  0  0  0  0  0  0  0  0  0  0
   36.9110   30.1400   43.6250 H   0  0  0  0  0  0  0  0  0  0  0  0
   36.6040   29.7170   41.3600 S   0  0  0  0  0  0  0  0  0  0  0  0
   37.7560   29.8560   40.4420 O   0  0  0  0  0  1  0  0  0  0  0  0
   35.7060   28.5670   40.9370 O   0  0  0  0  0  1  0  0  0  0  0  0
   35.6100   31.0700   41.3830 O   0  0  0  0  0  0  0  0  0  0  0  0
   36.1130   31.8490   41.0040 H   0  0  0  0  0  0  0  0  0  0  0  0
  2  8  1  0  0  0  0
  3  2  1  0  0  0  0
  3  1  1  0  0  0  0
  4  3  2  0  0  0  0
  5  6  2  0  0  0  0
  5  4  1  0  0  0  0
  6  7  1  0  0  0  0
  7  2  2  0  0  0  0
  9  4  1  0  0  0  0
 10  6  1  0  0  0  0
 11  1  1  0  0  0  0
 11 12  1  0  0  0  0
 13 11  1  0  0  0  0
 14 11  1  0  0  0  0
 14 15  1  0  0  0  0
 16 19  1  0  0  0  0
 16 14  1  0  0  0  0
 17 16  1  0  0  0  0
 18 16  1  0  0  0  0
 20 19  1  0  0  0  0
M  END
>  <minimizedAffinity>
-3.94044399

$$$$

 OpenBabel03252503003D

 20 20  0  0  0  0  0  0  0  0999 V2000
   38.8630   30.3870   38.1480 S   0  0  0  0  0  0  0  0  0  0  0  0
   37.3400   28.9780   39.9810 C   0  0  0  0  0  0  0  0  0  0  0  0
   38.3310   29.9370   39.8160 C   0  0  0  0  0  0  0  0  0  0  0  0
   38.9230   30.5590   40.9210 C   0  0  0  0  0  0  0  0  0  0  0  0
   38.4680   30.1660   42.1470 N   0  0  0  0  0  0  0  0  0  0  0  0
   37.5150   29.2410   42.2610 C   0  0  0  0  0  0  0  0  0  0  0  0
   36.9330   28.6310   41.2350 N   0  0  0  0  0  0  0  0  0  0  0  0
   36.9140   28.5270   39.0920 H   0  0  0  0  0  0  0  0  0  0  0  0
   39.6910   31.3010   40.7630 H   0  0  0  0  0  0  0  0  0  0  0  0
   37.2060   28.9820   43.2650 H   0  0  0  0  0  0  0  0  0  0  0  0
   39.2930   32.1260   38.1140 C   0  0  0  0  0  0  0  0  0  0  0  0
   38.4150   32.7970   38.1010 H   0  0  0  0  0  0  0  0  0  0  0  0
   39.8740   32.3870   39.0240 H   0  0  0  0  0  0  0  0  0  0  0  0
   40.1270   32.3480   36.9300 N   0  0  0  0  0  0  0  0  0  0  0  0
   39.7480   33.1390   36.3800 H   0  0  0  0  0  0  0  0  0  0  0  0
   41.7810   32.5900   37.3640 S   0  0  0  0  0  0  0  0  0  0  0  0
   41.9970   32.5240   38.8260 O   0  0  0  0  0  1  0  0  0  0  0  0
   42.5540   31.4960   36.6480 O   0  0  0  0  0  1  0  0  0  0  0  0
   42.3170   34.0290   36.6820 O   0  0  0  0  0  0  0  0  0  0  0  0
   42.4210   34.7130   37.4070 H   0  0  0  0  0  0  0  0  0  0  0  0
  1  3  1  0  0  0  0
  2  7  1  0  0  0  0
  3  2  2  0  0  0  0
  3  4  1  0  0  0  0
  4  5  2  0  0  0  0
  5  6  1  0  0  0  0
  6 10  1  0  0  0  0
  7  6  2  0  0  0  0
  8  2  1  0  0  0  0
  9  4  1  0  0  0  0
 11  1  1  0  0  0  0
 11 13  1  0  0  0  0
 12 11  1  0  0  0  0
 14 16  1  0  0  0  0
 14 11  1  0  0  0  0
 15 14  1  0  0  0  0
 16 17  1  0  0  0  0
 18 16  1  0  0  0  0
 19 16  1  0  0  0  0
 19 20  1  0  0  0  0
M  END
>  <minimizedAffinity>
-3.7882719

$$$$

 OpenBabel03252503003D

 20 20  0  0  0  0  0  0  0  0999 V2000
   36.1860   30.4720   40.4750 S   0  0  0  0  0  0  0  0  0  0  0  0
   38.4340   29.9100   41.9910 C   0  0  0  0  0  0  0  0  0  0  0  0
   37.1760   29.4660   41.6040 C   0  0  0  0  0  0  0  0  0  0  0  0
   36.6660   28.2510   42.0750 C   0  0  0  0  0  0  0  0  0  0  0  0
   37.4720   27.5470   42.9230 N   0  0  0  0  0  0  0  0  0  0  0  0
   38.6730   28.0110   43.2700 C   0  0  0  0  0  0  0  0  0  0  0  0
   39.1870   29.1580   42.8430 N   0  0  0  0  0  0  0  0  0  0  0  0
   38.7830   30.8580   41.5980 H   0  0  0  0  0  0  0  0  0  0  0  0
   35.6840   27.9290   41.7570 H   0  0  0  0  0  0  0  0  0  0  0  0
   39.2540   27.3980   43.9460 H   0  0  0  0  0  0  0  0  0  0  0  0
   37.0910   31.9640   40.0660 C   0  0  0  0  0  0  0  0  0  0  0  0
   36.5920   32.8900   40.4050 H   0  0  0  0  0  0  0  0  0  0  0  0
   38.0860   31.9460   40.5580 H   0  0  0  0  0  0  0  0  0  0  0  0
   37.2730   31.9810   38.6130 N   0  0  0  0  0  0  0  0  0  0  0  0
   36.9220   32.8760   38.2280 H   0  0  0  0  0  0  0  0  0  0  0  0
   38.9200   31.6900   38.1830 S   0  0  0  0  0  0  0  0  0  0  0  0
   39.8670   32.2040   39.1960 O   0  0  0  0  0  1  0  0  0  0  0  0
   39.0420   30.1820   38.0370 O   0  0  0  0  0  1  0  0  0  0  0  0
   39.1980   32.3070   36.6450 O   0  0  0  0  0  0  0  0  0  0  0  0
   39.7600   33.1320   36.7240 H   0  0  0  0  0  0  0  0  0  0  0  0
  1  3  1  0  0  0  0
  2  7  1  0  0  0  0
  3  2  2  0  0  0  0
  3  4  1  0  0  0  0
  4  5  2  0  0  0  0
  5  6  1  0  0  0  0
  6 10  1  0  0  0  0
  7  6  2  0  0  0  0
  8  2  1  0  0  0  0
  9  4  1  0  0  0  0
 11 12  1  0  0  0  0
 11  1  1  0  0  0  0
 11 13  1  0  0  0  0
 14 11  1  0  0  0  0
 15 14  1  0  0  0  0
 16 14  1  0  0  0  0
 16 17  1  0  0  0  0
 18 16  1  0  0  0  0
 19 20  1  0  0  0  0
 19 16  1  0  0  0  0
M  END
>  <minimizedAffinity>
-3.67271209

$$$$

 OpenBabel03252503003D

 20 20  0  0  0  0  0  0  0  0999 V2000
   36.3590   27.5770   39.6490 S   0  0  0  0  0  0  0  0  0  0  0  0
   38.6740   27.3870   41.1580 C   0  0  0  0  0  0  0  0  0  0  0  0
   37.3010   27.5940   41.1930 C   0  0  0  0  0  0  0  0  0  0  0  0
   36.6370   27.8160   42.4050 C   0  0  0  0  0  0  0  0  0  0  0  0
   37.4150   27.8140   43.5260 N   0  0  0  0  0  0  0  0  0  0  0  0
   38.7310   27.6120   43.4480 C   0  0  0  0  0  0  0  0  0  0  0  0
   39.3920   27.3990   42.3160 N   0  0  0  0  0  0  0  0  0  0  0  0
   39.1390   27.2200   40.1930 H   0  0  0  0  0  0  0  0  0  0  0  0
   35.5680   27.9740   42.4030 H   0  0  0  0  0  0  0  0  0  0  0  0
   39.2810   27.6250   44.3790 H   0  0  0  0  0  0  0  0  0  0  0  0
   35.8410   29.2460   39.2550 C   0  0  0  0  0  0  0  0  0  0  0  0
   35.2910   29.3240   38.3000 H   0  0  0  0  0  0  0  0  0  0  0  0
   35.1560   29.6230   40.0430 H   0  0  0  0  0  0  0  0  0  0  0  0
   37.0440   30.0820   39.2240 N   0  0  0  0  0  0  0  0  0  0  0  0
   37.1100   30.5650   38.3100 H   0  0  0  0  0  0  0  0  0  0  0  0
   37.0740   31.1890   40.5490 S   0  0  0  0  0  0  0  0  0  0  0  0
   38.2640   31.0070   41.4090 O   0  0  0  0  0  1  0  0  0  0  0  0
   37.0600   32.5730   39.9230 O   0  0  0  0  0  1  0  0  0  0  0  0
   35.6260   31.0680   41.3910 O   0  0  0  0  0  0  0  0  0  0  0  0
   35.7960   30.6080   42.2640 H   0  0  0  0  0  0  0  0  0  0  0  0
  1  3  1  0  0  0  0
  2  3  2  0  0  0  0
  2  7  1  0  0  0  0
  3  4  1  0  0  0  0
  4  5  2  0  0  0  0
  6  5  1  0  0  0  0
  6 10  1  0  0  0  0
  7  6  2  0  0  0  0
  8  2  1  0  0  0  0
  9  4  1  0  0  0  0
 11  1  1  0  0  0  0
 11 13  1  0  0  0  0
 12 11  1  0  0  0  0
 14 11  1  0  0  0  0
 14 16  1  0  0  0  0
 15 14  1  0  0  0  0
 16 19  1  0  0  0  0
 16 17  1  0  0  0  0
 18 16  1  0  0  0  0
 19 20  1  0  0  0  0
M  END
>  <minimizedAffinity>
-3.64421988

$$$$

 OpenBabel03252503003D

 20 20  0  0  0  0  0  0  0  0999 V2000
   38.2970   29.1170   39.3010 S   0  0  0  0  0  0  0  0  0  0  0  0
   38.6570   29.4260   42.0290 C   0  0  0  0  0  0  0  0  0  0  0  0
   37.9010   28.8120   41.0380 C   0  0  0  0  0  0  0  0  0  0  0  0
   36.8390   27.9620   41.3660 C   0  0  0  0  0  0  0  0  0  0  0  0
   36.6010   27.7820   42.6990 N   0  0  0  0  0  0  0  0  0  0  0  0
   37.3500   28.3910   43.6170 C   0  0  0  0  0  0  0  0  0  0  0  0
   38.3640   29.2030   43.3420 N   0  0  0  0  0  0  0  0  0  0  0  0
   39.4680   30.0750   41.7220 H   0  0  0  0  0  0  0  0  0  0  0  0
   36.2680   27.4980   40.5750 H   0  0  0  0  0  0  0  0  0  0  0  0
   37.1020   28.1990   44.6530 H   0  0  0  0  0  0  0  0  0  0  0  0
   39.1510   30.6860   39.1570 C   0  0  0  0  0  0  0  0  0  0  0  0
   39.6630   30.9960   40.0850 H   0  0  0  0  0  0  0  0  0  0  0  0
   39.9350   30.6160   38.3740 H   0  0  0  0  0  0  0  0  0  0  0  0
   38.1590   31.6880   38.7580 N   0  0  0  0  0  0  0  0  0  0  0  0
   37.3580   31.2220   38.2980 H   0  0  0  0  0  0  0  0  0  0  0  0
   37.6660   32.6520   40.1030 S   0  0  0  0  0  0  0  0  0  0  0  0
   38.7600   32.8660   41.0760 O   0  0  0  0  0  1  0  0  0  0  0  0
   37.1990   33.9700   39.5090 O   0  0  0  0  0  1  0  0  0  0  0  0
   36.2950   31.9660   40.7900 O   0  0  0  0  0  0  0  0  0  0  0  0
   36.5460   31.5490   41.6660 H   0  0  0  0  0  0  0  0  0  0  0  0
  1  3  1  0  0  0  0
  2  7  1  0  0  0  0
  3  4  1  0  0  0  0
  3  2  2  0  0  0  0
  4  5  2  0  0  0  0
  5  6  1  0  0  0  0
  6 10  1  0  0  0  0
  7  6  2  0  0  0  0
  8  2  1  0  0  0  0
  9  4  1  0  0  0  0
 11  1  1  0  0  0  0
 11 12  1  0  0  0  0
 13 11  1  0  0  0  0
 14 11  1  0  0  0  0
 14 16  1  0  0  0  0
 15 14  1  0  0  0  0
 16 19  1  0  0  0  0
 16 17  1  0  0  0  0
 18 16  1  0  0  0  0
 19 20  1  0  0  0  0
M  END
>  <minimizedAffinity>
-3.60855484

$$$$

 OpenBabel03252503003D

 20 20  0  0  0  0  0  0  0  0999 V2000
   38.4040   32.6620   40.5980 S   0  0  0  0  0  0  0  0  0  0  0  0
   39.7630   32.0300   38.2680 C   0  0  0  0  0  0  0  0  0  0  0  0
   39.7000   32.8910   39.3580 C   0  0  0  0  0  0  0  0  0  0  0  0
   40.6250   33.9300   39.5080 C   0  0  0  0  0  0  0  0  0  0  0  0
   41.5720   34.0390   38.5320 N   0  0  0  0  0  0  0  0  0  0  0  0
   41.5960   33.1920   37.5020 C   0  0  0  0  0  0  0  0  0  0  0  0
   40.7360   32.1960   37.3280 N   0  0  0  0  0  0  0  0  0  0  0  0
   39.0230   31.2420   38.1990 H   0  0  0  0  0  0  0  0  0  0  0  0
   40.5530   34.5840   40.3650 H   0  0  0  0  0  0  0  0  0  0  0  0
   42.3770   33.3410   36.7680 H   0  0  0  0  0  0  0  0  0  0  0  0
   36.9430   31.9900   39.8070 C   0  0  0  0  0  0  0  0  0  0  0  0
   36.3490   32.7460   39.2620 H   0  0  0  0  0  0  0  0  0  0  0  0
   37.2380   31.2250   39.0590 H   0  0  0  0  0  0  0  0  0  0  0  0
   36.1330   31.3570   40.8510 N   0  0  0  0  0  0  0  0  0  0  0  0
   35.1290   31.4510   40.6180 H   0  0  0  0  0  0  0  0  0  0  0  0
   36.5940   29.7100   41.0900 S   0  0  0  0  0  0  0  0  0  0  0  0
   37.2090   29.4830   42.4170 O   0  0  0  0  0  1  0  0  0  0  0  0
   35.3170   28.9030   40.9350 O   0  0  0  0  0  1  0  0  0  0  0  0
   37.5780   29.2310   39.8160 O   0  0  0  0  0  0  0  0  0  0  0  0
   38.5200   29.1470   40.1470 H   0  0  0  0  0  0  0  0  0  0  0  0
  2  3  1  0  0  0  0
  3  4  2  0  0  0  0
  3  1  1  0  0  0  0
  4  9  1  0  0  0  0
  5  4  1  0  0  0  0
  6  5  2  0  0  0  0
  7  6  1  0  0  0  0
  7  2  2  0  0  0  0
  8  2  1  0  0  0  0
 10  6  1  0  0  0  0
 11  1  1  0  0  0  0
 11 14  1  0  0  0  0
 12 11  1  0  0  0  0
 13 11  1  0  0  0  0
 14 16  1  0  0  0  0
 15 14  1  0  0  0  0
 16 17  1  0  0  0  0
 18 16  1  0  0  0  0
 19 20  1  0  0  0  0
 19 16  1  0  0  0  0
M  END
>  <minimizedAffinity>
-3.60257888

$$$$

 OpenBabel03252503003D

 20 20  0  0  0  0  0  0  0  0999 V2000
   37.9000   30.5340   37.7210 S   0  0  0  0  0  0  0  0  0  0  0  0
   37.3830   32.8220   39.1920 C   0  0  0  0  0  0  0  0  0  0  0  0
   38.3720   31.9860   38.6890 C   0  0  0  0  0  0  0  0  0  0  0  0
   39.7260   32.2520   38.9210 C   0  0  0  0  0  0  0  0  0  0  0  0
   40.0030   33.3660   39.6600 N   0  0  0  0  0  0  0  0  0  0  0  0
   39.0230   34.1410   40.1240 C   0  0  0  0  0  0  0  0  0  0  0  0
   37.7300   33.9190   39.9240 N   0  0  0  0  0  0  0  0  0  0  0  0
   36.3500   32.5720   38.9840 H   0  0  0  0  0  0  0  0  0  0  0  0
   40.4740   31.5840   38.5170 H   0  0  0  0  0  0  0  0  0  0  0  0
   39.3210   35.0070   40.7010 H   0  0  0  0  0  0  0  0  0  0  0  0
   37.7770   29.1140   38.8080 C   0  0  0  0  0  0  0  0  0  0  0  0
   37.9590   28.1510   38.2990 H   0  0  0  0  0  0  0  0  0  0  0  0
   38.5370   29.1910   39.6140 H   0  0  0  0  0  0  0  0  0  0  0  0
   36.4390   29.1350   39.4050 N   0  0  0  0  0  0  0  0  0  0  0  0
   35.9550   28.2420   39.2070 H   0  0  0  0  0  0  0  0  0  0  0  0
   36.5120   29.4740   41.0970 S   0  0  0  0  0  0  0  0  0  0  0  0
   36.1520   28.3010   41.9240 O   0  0  0  0  0  1  0  0  0  0  0  0
   37.9420   29.9110   41.3630 O   0  0  0  0  0  1  0  0  0  0  0  0
   35.5690   30.8260   41.4220 O   0  0  0  0  0  0  0  0  0  0  0  0
   34.7390   30.5350   41.9010 H   0  0  0  0  0  0  0  0  0  0  0  0
  1  3  1  0  0  0  0
  1 11  1  0  0  0  0
  2  7  1  0  0  0  0
  3  4  1  0  0  0  0
  3  2  2  0  0  0  0
  4  5  2  0  0  0  0
  5  6  1  0  0  0  0
  6 10  1  0  0  0  0
  7  6  2  0  0  0  0
  8  2  1  0  0  0  0
  9  4  1  0  0  0  0
 11 14  1  0  0  0  0
 11 13  1  0  0  0  0
 12 11  1  0  0  0  0
 14 16  1  0  0  0  0
 15 14  1  0  0  0  0
 16 18  1  0  0  0  0
 16 19  1  0  0  0  0
 16 17  1  0  0  0  0
 19 20  1  0  0  0  0
M  END
>  <minimizedAffinity>
-3.59030366

$$$$
