
 OpenBabel03242517363D

 31 32  0  0  0  0  0  0  0  0999 V2000
   43.8410   35.2510   41.5220 C   0  0  0  0  0  0  0  0  0  0  0  0
   42.6720   34.9240   41.0230 C   0  0  0  0  0  0  0  0  0  0  0  0
   44.3330   35.7530   43.9010 C   0  0  0  0  0  0  0  0  0  0  0  0
   44.3510   34.8770   42.8190 C   0  0  0  0  0  0  0  0  0  0  0  0
   44.8770   33.6230   43.0230 C   0  0  0  0  0  0  0  0  0  0  0  0
   45.3600   33.2750   44.2570 N   0  0  0  0  0  0  0  0  0  0  0  0
   45.3280   34.1530   45.2870 C   0  0  0  0  0  0  0  0  0  0  0  0
   44.8200   35.3720   45.1020 N   0  0  0  0  0  0  0  0  0  0  0  0
   43.9270   36.7420   43.7700 H   0  0  0  0  0  0  0  0  0  0  0  0
   44.9140   32.9080   42.2170 H   0  0  0  0  0  0  0  0  0  0  0  0
   45.8070   33.8620   46.5860 N   0  0  0  0  0  0  0  0  0  0  0  0
   46.1810   34.6470   47.1470 H   0  0  0  0  0  0  0  0  0  0  0  0
   45.8020   32.2820   47.2780 S   0  0  0  0  0  0  0  0  0  0  0  0
   46.9240   32.1280   48.2800 O   0  0  0  0  0  0  0  0  0  0  0  0
   45.8520   31.2250   46.2240 O   0  0  0  0  0  0  0  0  0  0  0  0
   44.3410   32.1320   48.1070 O   0  0  0  0  0  0  0  0  0  0  0  0
   43.6240   31.7840   47.4930 H   0  0  0  0  0  0  0  0  0  0  0  0
   42.2000   35.3440   39.6690 C   0  0  0  0  0  0  0  0  0  0  0  0
   42.9100   34.8510   38.9560 H   0  0  0  0  0  0  0  0  0  0  0  0
   42.2820   36.4360   39.5000 H   0  0  0  0  0  0  0  0  0  0  0  0
   40.8500   34.8000   39.3770 C   0  0  0  0  0  0  0  0  0  0  0  0
   40.4200   34.7460   38.0530 C   0  0  0  0  0  0  0  0  0  0  0  0
   39.1520   34.2360   37.7730 C   0  0  0  0  0  0  0  0  0  0  0  0
   38.3150   33.7810   38.7940 C   0  0  0  0  0  0  0  0  0  0  0  0
   38.7350   33.8310   40.1090 C   0  0  0  0  0  0  0  0  0  0  0  0
   40.0000   34.3430   40.3680 C   0  0  0  0  0  0  0  0  0  0  0  0
   41.0620   35.0950   37.2630 H   0  0  0  0  0  0  0  0  0  0  0  0
   38.8640   34.2160   36.7170 H   0  0  0  0  0  0  0  0  0  0  0  0
   37.3530   33.3960   38.5570 H   0  0  0  0  0  0  0  0  0  0  0  0
   38.1160   33.4900   40.9250 H   0  0  0  0  0  0  0  0  0  0  0  0
   40.3050   34.3720   41.4020 H   0  0  0  0  0  0  0  0  0  0  0  0
  1  4  1  0  0  0  0
  2  1  2  0  0  0  0
  3  8  1  0  0  0  0
  4  5  1  0  0  0  0
  4  3  2  0  0  0  0
  5  6  2  0  0  0  0
  6  7  1  0  0  0  0
  7 11  1  0  0  0  0
  8  7  2  0  0  0  0
  9  3  1  0  0  0  0
 10  5  1  0  0  0  0
 11 12  1  0  0  0  0
 11 13  1  0  0  0  0
 13 16  1  0  0  0  0
 13 14  1  0  0  0  0
 15 13  1  0  0  0  0
 17 16  1  0  0  0  0
 18  2  1  0  0  0  0
 19 18  1  0  0  0  0
 20 18  1  0  0  0  0
 21 18  1  0  0  0  0
 21 26  1  0  0  0  0
 22 21  2  0  0  0  0
 23 22  1  0  0  0  0
 23 24  2  0  0  0  0
 24 25  1  0  0  0  0
 25 26  2  0  0  0  0
 25 30  1  0  0  0  0
 26 31  1  0  0  0  0
 27 22  1  0  0  0  0
 28 23  1  0  0  0  0
 29 24  1  0  0  0  0
M  END
>  <minimizedAffinity>
-6.8173151

>  <minimizedRMSD>
0.414651334

$$$$
