
 OpenBabel03242517453D

 35 37  0  0  0  0  0  0  0  0999 V2000
   41.2500   33.8220   39.5040 C   0  0  0  0  0  0  0  0  0  0  0  0
   40.2020   33.8370   38.6070 C   0  0  0  0  0  0  0  0  0  0  0  0
   40.1100   34.8250   37.6490 C   0  0  0  0  0  0  0  0  0  0  0  0
   41.0620   35.8130   37.5730 C   0  0  0  0  0  0  0  0  0  0  0  0
   42.1000   35.7970   38.4630 C   0  0  0  0  0  0  0  0  0  0  0  0
   42.2140   34.8090   39.4400 C   0  0  0  0  0  0  0  0  0  0  0  0
   39.4740   33.0330   38.7070 H   0  0  0  0  0  0  0  0  0  0  0  0
   39.2630   34.7580   36.9930 H   0  0  0  0  0  0  0  0  0  0  0  0
   40.9360   36.5670   36.7950 H   0  0  0  0  0  0  0  0  0  0  0  0
   42.8370   36.5920   38.3770 H   0  0  0  0  0  0  0  0  0  0  0  0
   43.3340   34.8120   40.3810 C   0  0  0  0  0  0  0  0  0  0  0  0
   44.4710   34.0970   40.2290 C   0  0  0  0  0  0  0  0  0  0  0  0
   45.5240   34.1190   41.1440 C   0  0  0  0  0  0  0  0  0  0  0  0
   45.4110   34.8900   42.2380 N   0  0  0  0  0  0  0  0  0  0  0  0
   44.2720   35.6050   42.3900 C   0  0  0  0  0  0  0  0  0  0  0  0
   43.2640   35.5760   41.5020 N   0  0  0  0  0  0  0  0  0  0  0  0
   44.5650   33.4720   39.3420 H   0  0  0  0  0  0  0  0  0  0  0  0
   46.4130   33.5190   40.9610 H   0  0  0  0  0  0  0  0  0  0  0  0
   44.0650   36.2670   43.2390 H   0  0  0  0  0  0  0  0  0  0  0  0
   41.4460   32.5960   40.7610 S   0  0  0  0  0  0  0  0  0  0  0  0
   38.7710   32.0440   41.2010 C   0  0  0  0  0  0  0  0  0  0  0  0
   40.0350   31.5320   40.8220 C   0  0  0  0  0  0  0  0  0  0  0  0
   40.1130   30.1880   40.5080 C   0  0  0  0  0  0  0  0  0  0  0  0
   38.9860   29.4390   40.5780 N   0  0  0  0  0  0  0  0  0  0  0  0
   37.8090   29.9710   40.9430 C   0  0  0  0  0  0  0  0  0  0  0  0
   37.6670   31.2490   41.2570 N   0  0  0  0  0  0  0  0  0  0  0  0
   38.6760   33.1090   41.4570 H   0  0  0  0  0  0  0  0  0  0  0  0
   41.0330   29.7420   40.2150 H   0  0  0  0  0  0  0  0  0  0  0  0
   36.6310   29.1770   41.0150 N   0  0  0  0  0  0  0  0  0  0  0  0
   35.9380   29.1960   41.7930 H   0  0  0  0  0  0  0  0  0  0  0  0
   36.1610   28.0400   39.8000 S   0  0  0  0  0  0  0  0  0  0  0  0
   36.7610   28.3440   38.4610 O   0  0  0  0  0  0  0  0  0  0  0  0
   36.5170   26.6370   40.2640 O   0  0  0  0  0  0  0  0  0  0  0  0
   34.4760   28.0720   39.6440 O   0  0  0  0  0  0  0  0  0  0  0  0
   34.0410   28.0780   40.5260 H   0  0  0  0  0  0  0  0  0  0  0  0
  1 20  1  0  0  0  0
  2  7  1  0  0  0  0
  2  1  2  0  0  0  0
  3  2  1  0  0  0  0
  4  3  2  0  0  0  0
  4  5  1  0  0  0  0
  5  6  2  0  0  0  0
  6  1  1  0  0  0  0
  6 11  1  0  0  0  0
  8  3  1  0  0  0  0
  9  4  1  0  0  0  0
 10  5  1  0  0  0  0
 11 16  1  0  0  0  0
 12 11  2  0  0  0  0
 12 13  1  0  0  0  0
 13 14  2  0  0  0  0
 14 15  1  0  0  0  0
 15 19  1  0  0  0  0
 16 15  2  0  0  0  0
 17 12  1  0  0  0  0
 18 13  1  0  0  0  0
 20 22  1  0  0  0  0
 21 26  1  0  0  0  0
 21 27  1  0  0  0  0
 22 21  2  0  0  0  0
 23 24  2  0  0  0  0
 23 22  1  0  0  0  0
 24 25  1  0  0  0  0
 25 29  1  0  0  0  0
 25 26  2  0  0  0  0
 28 23  1  0  0  0  0
 29 30  1  0  0  0  0
 31 33  1  0  0  0  0
 31 29  1  0  0  0  0
 32 31  1  0  0  0  0
 34 31  1  0  0  0  0
 34 35  1  0  0  0  0
M  END
>  <minimizedAffinity>
-5.66506481

>  <minimizedRMSD>
2.1992557

$$$$
