
 OpenBabel03252507093D

 22 22  0  0  0  0  0  0  0  0999 V2000
   39.4250   28.1310   43.1880 C   0  0  0  0  0  0  0  0  0  0  0  0
   39.3570   29.4020   42.5590 C   0  0  0  0  0  0  0  0  0  0  0  0
   38.4250   29.5580   41.5430 C   0  0  0  0  0  0  0  0  0  0  0  0
   37.6370   28.5160   41.2020 N   0  0  0  0  0  0  0  0  0  0  0  0
   37.7230   27.3220   41.8130 C   0  0  0  0  0  0  0  0  0  0  0  0
   38.6050   27.1170   42.8000 N   0  0  0  0  0  0  0  0  0  0  0  0
   40.1730   28.0560   43.9820 H   0  0  0  0  0  0  0  0  0  0  0  0
   40.0210   30.1900   42.8870 H   0  0  0  0  0  0  0  0  0  0  0  0
   36.8640   26.2780   41.4010 N   0  0  0  0  0  0  0  0  0  0  0  0
   35.8470   26.4370   41.2310 H   0  0  0  0  0  0  0  0  0  0  0  0
   37.3200   24.6610   41.1200 S   0  0  0  0  0  0  0  0  0  0  0  0
   36.2240   23.7840   40.6410 O   0  0  0  0  0  1  0  0  0  0  0  0
   38.4150   24.6570   40.0660 O   0  0  0  0  0  1  0  0  0  0  0  0
   38.0430   23.9480   42.4790 O   0  0  0  0  0  0  0  0  0  0  0  0
   38.4360   24.6440   43.0660 H   0  0  0  0  0  0  0  0  0  0  0  0
   38.3700   30.8140   40.9340 O   0  0  0  0  0  0  0  0  0  0  0  0
   36.6170   30.9210   38.9650 O   0  0  0  0  0  0  0  0  0  0  0  0
   36.8570   31.4110   40.3850 P   0  0  0  0  0  0  0  0  0  0  0  0
   35.6680   30.9060   41.4310 O   0  0  0  0  0  0  0  0  0  0  0  0
   35.1480   31.6660   41.7870 H   0  0  0  0  0  0  0  0  0  0  0  0
   36.9710   33.1120   40.3400 O   0  0  0  0  0  0  0  0  0  0  0  0
   37.4780   33.4060   39.5470 H   0  0  0  0  0  0  0  0  0  0  0  0
  1  7  1  0  0  0  0
  2  8  1  0  0  0  0
  2  1  2  0  0  0  0
  3  2  1  0  0  0  0
  4  3  2  0  0  0  0
  4  5  1  0  0  0  0
  5  6  2  0  0  0  0
  6  1  1  0  0  0  0
  9  5  1  0  0  0  0
 10  9  1  0  0  0  0
 11  9  1  0  0  0  0
 11 14  1  0  0  0  0
 12 11  1  0  0  0  0
 13 11  1  0  0  0  0
 14 15  1  0  0  0  0
 16  3  1  0  0  0  0
 17 18  2  0  0  0  0
 18 16  1  0  0  0  0
 18 19  1  0  0  0  0
 19 20  1  0  0  0  0
 21 18  1  0  0  0  0
 22 21  1  0  0  0  0
M  END
>  <minimizedAffinity>
-5.05494213

$$$$

 OpenBabel03252507093D

 22 22  0  0  0  0  0  0  0  0999 V2000
   36.9550   27.8010   42.5910 C   0  0  0  0  0  0  0  0  0  0  0  0
   37.9330   26.8870   43.0650 C   0  0  0  0  0  0  0  0  0  0  0  0
   39.2280   27.3620   43.2110 C   0  0  0  0  0  0  0  0  0  0  0  0
   39.4990   28.6490   42.9040 N   0  0  0  0  0  0  0  0  0  0  0  0
   38.5550   29.4940   42.4570 C   0  0  0  0  0  0  0  0  0  0  0  0
   37.2890   29.0870   42.2970 N   0  0  0  0  0  0  0  0  0  0  0  0
   35.9500   27.3820   42.4920 H   0  0  0  0  0  0  0  0  0  0  0  0
   37.6400   25.8710   43.2900 H   0  0  0  0  0  0  0  0  0  0  0  0
   38.9160   30.8260   42.1560 N   0  0  0  0  0  0  0  0  0  0  0  0
   39.5200   31.3900   42.7920 H   0  0  0  0  0  0  0  0  0  0  0  0
   38.4490   31.6990   40.7690 S   0  0  0  0  0  0  0  0  0  0  0  0
   39.2160   32.9480   40.5380 O   0  0  0  0  0  1  0  0  0  0  0  0
   38.6470   30.8010   39.5590 O   0  0  0  0  0  1  0  0  0  0  0  0
   36.7920   32.0600   40.7580 O   0  0  0  0  0  0  0  0  0  0  0  0
   36.2940   31.4100   41.3180 H   0  0  0  0  0  0  0  0  0  0  0  0
   40.1780   26.4500   43.6780 O   0  0  0  0  0  0  0  0  0  0  0  0
   40.2640   25.4020   41.2580 O   0  0  0  0  0  0  0  0  0  0  0  0
   40.5690   25.0850   42.7140 P   0  0  0  0  0  0  0  0  0  0  0  0
   42.1690   24.7010   42.9500 O   0  0  0  0  0  0  0  0  0  0  0  0
   42.2810   23.7640   43.2390 H   0  0  0  0  0  0  0  0  0  0  0  0
   39.5420   23.8130   43.2000 O   0  0  0  0  0  0  0  0  0  0  0  0
   38.6380   23.9330   42.8240 H   0  0  0  0  0  0  0  0  0  0  0  0
  1  2  1  0  0  0  0
  2  3  2  0  0  0  0
  2  8  1  0  0  0  0
  3 16  1  0  0  0  0
  4  3  1  0  0  0  0
  5  4  2  0  0  0  0
  6  5  1  0  0  0  0
  6  1  2  0  0  0  0
  7  1  1  0  0  0  0
  9  5  1  0  0  0  0
  9 10  1  0  0  0  0
 11  9  1  0  0  0  0
 12 11  1  0  0  0  0
 13 11  1  0  0  0  0
 14 11  1  0  0  0  0
 14 15  1  0  0  0  0
 17 18  2  0  0  0  0
 18 19  1  0  0  0  0
 18 21  1  0  0  0  0
 18 16  1  0  0  0  0
 19 20  1  0  0  0  0
 22 21  1  0  0  0  0
M  END
>  <minimizedAffinity>
-4.87550116

$$$$

 OpenBabel03252507093D

 22 22  0  0  0  0  0  0  0  0999 V2000
   37.3260   28.3470   43.6800 C   0  0  0  0  0  0  0  0  0  0  0  0
   37.1750   26.9660   43.3870 C   0  0  0  0  0  0  0  0  0  0  0  0
   37.2980   26.5820   42.0600 C   0  0  0  0  0  0  0  0  0  0  0  0
   37.5520   27.5170   41.1200 N   0  0  0  0  0  0  0  0  0  0  0  0
   37.6890   28.8200   41.4240 C   0  0  0  0  0  0  0  0  0  0  0  0
   37.5800   29.2450   42.6890 N   0  0  0  0  0  0  0  0  0  0  0  0
   37.2210   28.6030   44.7370 H   0  0  0  0  0  0  0  0  0  0  0  0
   36.9730   26.2750   44.1940 H   0  0  0  0  0  0  0  0  0  0  0  0
   37.9540   29.7400   40.3850 N   0  0  0  0  0  0  0  0  0  0  0  0
   38.6630   29.5460   39.6450 H   0  0  0  0  0  0  0  0  0  0  0  0
   37.1960   31.2510   40.1730 S   0  0  0  0  0  0  0  0  0  0  0  0
   38.0520   32.4210   40.4880 O   0  0  0  0  0  1  0  0  0  0  0  0
   36.7710   31.3640   38.7180 O   0  0  0  0  0  1  0  0  0  0  0  0
   35.7470   31.3770   41.0450 O   0  0  0  0  0  0  0  0  0  0  0  0
   35.3700   30.4760   41.2180 H   0  0  0  0  0  0  0  0  0  0  0  0
   37.1470   25.2190   41.7890 O   0  0  0  0  0  0  0  0  0  0  0  0
   38.1400   22.9650   40.8420 O   0  0  0  0  0  0  0  0  0  0  0  0
   38.5470   24.2600   41.5290 P   0  0  0  0  0  0  0  0  0  0  0  0
   39.6360   25.1320   40.6250 O   0  0  0  0  0  0  0  0  0  0  0  0
   40.5120   25.1990   41.0750 H   0  0  0  0  0  0  0  0  0  0  0  0
   39.1800   23.8640   43.0620 O   0  0  0  0  0  0  0  0  0  0  0  0
   38.6530   23.1430   43.4800 H   0  0  0  0  0  0  0  0  0  0  0  0
  1  7  1  0  0  0  0
  2  1  1  0  0  0  0
  2  8  1  0  0  0  0
  3  2  2  0  0  0  0
  4  5  2  0  0  0  0
  4  3  1  0  0  0  0
  5  6  1  0  0  0  0
  6  1  2  0  0  0  0
  9  5  1  0  0  0  0
 10  9  1  0  0  0  0
 11  9  1  0  0  0  0
 11 12  1  0  0  0  0
 11 14  1  0  0  0  0
 13 11  1  0  0  0  0
 14 15  1  0  0  0  0
 16  3  1  0  0  0  0
 17 18  2  0  0  0  0
 18 16  1  0  0  0  0
 18 21  1  0  0  0  0
 19 20  1  0  0  0  0
 19 18  1  0  0  0  0
 21 22  1  0  0  0  0
M  END
>  <minimizedAffinity>
-4.70269775

$$$$

 OpenBabel03252507093D

 22 22  0  0  0  0  0  0  0  0999 V2000
   39.7590   30.9300   42.0140 C   0  0  0  0  0  0  0  0  0  0  0  0
   40.5530   31.7180   41.1400 C   0  0  0  0  0  0  0  0  0  0  0  0
   39.9560   32.1640   39.9700 C   0  0  0  0  0  0  0  0  0  0  0  0
   38.6710   31.8380   39.7160 N   0  0  0  0  0  0  0  0  0  0  0  0
   37.9410   31.0880   40.5610 C   0  0  0  0  0  0  0  0  0  0  0  0
   38.4680   30.6320   41.7040 N   0  0  0  0  0  0  0  0  0  0  0  0
   40.2710   30.6020   42.9230 H   0  0  0  0  0  0  0  0  0  0  0  0
   41.5760   31.9390   41.4120 H   0  0  0  0  0  0  0  0  0  0  0  0
   36.6020   30.7880   40.2260 N   0  0  0  0  0  0  0  0  0  0  0  0
   35.9500   31.5140   39.8580 H   0  0  0  0  0  0  0  0  0  0  0  0
   35.8580   29.2610   40.3590 S   0  0  0  0  0  0  0  0  0  0  0  0
   34.4300   29.2320   39.9570 O   0  0  0  0  0  1  0  0  0  0  0  0
   36.6120   28.2900   39.4650 O   0  0  0  0  0  1  0  0  0  0  0  0
   36.0060   28.6010   41.9150 O   0  0  0  0  0  0  0  0  0  0  0  0
   36.7940   28.9850   42.3780 H   0  0  0  0  0  0  0  0  0  0  0  0
   40.7500   32.9390   39.1210 O   0  0  0  0  0  0  0  0  0  0  0  0
   41.7190   31.0290   37.5790 O   0  0  0  0  0  0  0  0  0  0  0  0
   41.0440   32.3910   37.5210 P   0  0  0  0  0  0  0  0  0  0  0  0
   39.6020   32.3400   36.6960 O   0  0  0  0  0  0  0  0  0  0  0  0
   39.6370   32.8740   35.8660 H   0  0  0  0  0  0  0  0  0  0  0  0
   42.1380   33.4870   36.8050 O   0  0  0  0  0  0  0  0  0  0  0  0
   43.0550   33.3230   37.1260 H   0  0  0  0  0  0  0  0  0  0  0  0
  1  7  1  0  0  0  0
  2  8  1  0  0  0  0
  2  1  2  0  0  0  0
  3  2  1  0  0  0  0
  4  3  2  0  0  0  0
  4  5  1  0  0  0  0
  5  6  2  0  0  0  0
  6  1  1  0  0  0  0
  9 11  1  0  0  0  0
  9  5  1  0  0  0  0
 10  9  1  0  0  0  0
 11 14  1  0  0  0  0
 12 11  1  0  0  0  0
 13 11  1  0  0  0  0
 14 15  1  0  0  0  0
 16  3  1  0  0  0  0
 18 17  2  0  0  0  0
 18 16  1  0  0  0  0
 19 18  1  0  0  0  0
 20 19  1  0  0  0  0
 21 22  1  0  0  0  0
 21 18  1  0  0  0  0
M  END
>  <minimizedAffinity>
-4.66591835

$$$$

 OpenBabel03252507093D

 22 22  0  0  0  0  0  0  0  0999 V2000
   39.4800   32.1130   38.2250 C   0  0  0  0  0  0  0  0  0  0  0  0
   38.2070   31.6830   38.6870 C   0  0  0  0  0  0  0  0  0  0  0  0
   37.9200   31.8820   40.0300 C   0  0  0  0  0  0  0  0  0  0  0  0
   38.8430   32.4640   40.8260 N   0  0  0  0  0  0  0  0  0  0  0  0
   40.0410   32.8600   40.3630 C   0  0  0  0  0  0  0  0  0  0  0  0
   40.3700   32.6920   39.0760 N   0  0  0  0  0  0  0  0  0  0  0  0
   39.6610   31.9360   37.1620 H   0  0  0  0  0  0  0  0  0  0  0  0
   37.5200   31.2260   37.9900 H   0  0  0  0  0  0  0  0  0  0  0  0
   40.9550   33.4610   41.2570 N   0  0  0  0  0  0  0  0  0  0  0  0
   40.6590   34.1940   41.9370 H   0  0  0  0  0  0  0  0  0  0  0  0
   42.6180   33.1080   41.3730 S   0  0  0  0  0  0  0  0  0  0  0  0
   42.9690   31.6910   41.1100 O   0  0  0  0  0  1  0  0  0  0  0  0
   43.3530   33.9650   40.3550 O   0  0  0  0  0  1  0  0  0  0  0  0
   43.2750   33.5720   42.8660 O   0  0  0  0  0  0  0  0  0  0  0  0
   42.7320   34.2950   43.2720 H   0  0  0  0  0  0  0  0  0  0  0  0
   36.6640   31.4540   40.4690 O   0  0  0  0  0  0  0  0  0  0  0  0
   37.3590   28.9190   40.2350 O   0  0  0  0  0  0  0  0  0  0  0  0
   36.4870   29.8530   41.0600 P   0  0  0  0  0  0  0  0  0  0  0  0
   36.8930   29.8270   42.6720 O   0  0  0  0  0  0  0  0  0  0  0  0
   36.1630   29.4600   43.2260 H   0  0  0  0  0  0  0  0  0  0  0  0
   34.8600   29.4020   40.8170 O   0  0  0  0  0  0  0  0  0  0  0  0
   34.7020   29.1670   39.8720 H   0  0  0  0  0  0  0  0  0  0  0  0
  1  2  2  0  0  0  0
  1  6  1  0  0  0  0
  2  3  1  0  0  0  0
  3 16  1  0  0  0  0
  3  4  2  0  0  0  0
  5  4  1  0  0  0  0
  5  9  1  0  0  0  0
  6  5  2  0  0  0  0
  7  1  1  0  0  0  0
  8  2  1  0  0  0  0
  9 11  1  0  0  0  0
  9 10  1  0  0  0  0
 11 14  1  0  0  0  0
 12 11  1  0  0  0  0
 13 11  1  0  0  0  0
 14 15  1  0  0  0  0
 16 18  1  0  0  0  0
 17 18  2  0  0  0  0
 18 19  1  0  0  0  0
 19 20  1  0  0  0  0
 21 18  1  0  0  0  0
 22 21  1  0  0  0  0
M  END
>  <minimizedAffinity>
-4.582932

$$$$

 OpenBabel03252507093D

 22 22  0  0  0  0  0  0  0  0999 V2000
   36.2800   29.9210   38.1310 C   0  0  0  0  0  0  0  0  0  0  0  0
   36.1620   28.8800   39.0890 C   0  0  0  0  0  0  0  0  0  0  0  0
   37.1560   28.7910   40.0540 C   0  0  0  0  0  0  0  0  0  0  0  0
   38.1710   29.6810   40.0430 N   0  0  0  0  0  0  0  0  0  0  0  0
   38.2590   30.6570   39.1230 C   0  0  0  0  0  0  0  0  0  0  0  0
   37.3290   30.7880   38.1700 N   0  0  0  0  0  0  0  0  0  0  0  0
   35.4760   29.9520   37.3920 H   0  0  0  0  0  0  0  0  0  0  0  0
   35.3200   28.2050   39.0350 H   0  0  0  0  0  0  0  0  0  0  0  0
   39.3520   31.5500   39.1760 N   0  0  0  0  0  0  0  0  0  0  0  0
   39.6720   31.9770   40.0720 H   0  0  0  0  0  0  0  0  0  0  0  0
   40.2930   32.0570   37.8490 S   0  0  0  0  0  0  0  0  0  0  0  0
   41.1430   33.2440   38.1120 O   0  0  0  0  0  1  0  0  0  0  0  0
   41.2060   30.9090   37.4530 O   0  0  0  0  0  1  0  0  0  0  0  0
   39.3560   32.3460   36.4650 O   0  0  0  0  0  0  0  0  0  0  0  0
   38.5120   31.8280   36.5060 H   0  0  0  0  0  0  0  0  0  0  0  0
   37.0250   27.7620   40.9900 O   0  0  0  0  0  0  0  0  0  0  0  0
   38.6900   27.6530   43.0350 O   0  0  0  0  0  0  0  0  0  0  0  0
   37.2890   28.1050   42.6510 P   0  0  0  0  0  0  0  0  0  0  0  0
   37.0650   29.7320   42.9070 O   0  0  0  0  0  0  0  0  0  0  0  0
   36.3910   29.9020   43.6080 H   0  0  0  0  0  0  0  0  0  0  0  0
   36.1750   27.1710   43.5430 O   0  0  0  0  0  0  0  0  0  0  0  0
   36.4720   26.2320   43.5970 H   0  0  0  0  0  0  0  0  0  0  0  0
  1  6  2  0  0  0  0
  1  2  1  0  0  0  0
  2  3  2  0  0  0  0
  3 16  1  0  0  0  0
  4  3  1  0  0  0  0
  5  9  1  0  0  0  0
  5  4  2  0  0  0  0
  6  5  1  0  0  0  0
  7  1  1  0  0  0  0
  8  2  1  0  0  0  0
  9 10  1  0  0  0  0
 11 12  1  0  0  0  0
 11  9  1  0  0  0  0
 13 11  1  0  0  0  0
 14 15  1  0  0  0  0
 14 11  1  0  0  0  0
 16 18  1  0  0  0  0
 18 19  1  0  0  0  0
 18 17  2  0  0  0  0
 18 21  1  0  0  0  0
 19 20  1  0  0  0  0
 21 22  1  0  0  0  0
M  END
>  <minimizedAffinity>
-4.5042181

$$$$

 OpenBabel03252507093D

 22 22  0  0  0  0  0  0  0  0999 V2000
   36.2980   28.4170   40.0010 C   0  0  0  0  0  0  0  0  0  0  0  0
   36.5990   29.5910   40.7390 C   0  0  0  0  0  0  0  0  0  0  0  0
   36.7890   30.7620   40.0190 C   0  0  0  0  0  0  0  0  0  0  0  0
   36.6800   30.7360   38.6730 N   0  0  0  0  0  0  0  0  0  0  0  0
   36.3950   29.6090   37.9980 C   0  0  0  0  0  0  0  0  0  0  0  0
   36.2030   28.4520   38.6440 N   0  0  0  0  0  0  0  0  0  0  0  0
   36.1570   27.5200   40.6100 H   0  0  0  0  0  0  0  0  0  0  0  0
   36.6690   29.5340   41.8160 H   0  0  0  0  0  0  0  0  0  0  0  0
   36.2990   29.6620   36.5900 N   0  0  0  0  0  0  0  0  0  0  0  0
   35.7790   30.4230   36.1010 H   0  0  0  0  0  0  0  0  0  0  0  0
   36.9830   28.5450   35.5000 S   0  0  0  0  0  0  0  0  0  0  0  0
   38.3040   28.0100   35.9110 O   0  0  0  0  0  1  0  0  0  0  0  0
   36.0270   27.3720   35.3650 O   0  0  0  0  0  1  0  0  0  0  0  0
   37.1070   29.1690   33.9270 O   0  0  0  0  0  0  0  0  0  0  0  0
   36.4420   29.8910   33.7890 H   0  0  0  0  0  0  0  0  0  0  0  0
   37.0830   31.9090   40.7600 O   0  0  0  0  0  0  0  0  0  0  0  0
   39.3360   32.4610   39.5010 O   0  0  0  0  0  0  0  0  0  0  0  0
   38.0860   33.1180   40.0660 P   0  0  0  0  0  0  0  0  0  0  0  0
   37.2220   33.9270   38.8980 O   0  0  0  0  0  0  0  0  0  0  0  0
   37.2070   34.9000   39.0650 H   0  0  0  0  0  0  0  0  0  0  0  0
   38.5660   34.1610   41.3270 O   0  0  0  0  0  0  0  0  0  0  0  0
   39.2810   33.7490   41.8650 H   0  0  0  0  0  0  0  0  0  0  0  0
  1  7  1  0  0  0  0
  1  2  1  0  0  0  0
  2  8  1  0  0  0  0
  3  2  2  0  0  0  0
  3 16  1  0  0  0  0
  4  3  1  0  0  0  0
  5  6  1  0  0  0  0
  5  4  2  0  0  0  0
  6  1  2  0  0  0  0
  9  5  1  0  0  0  0
 10  9  1  0  0  0  0
 11 12  1  0  0  0  0
 11  9  1  0  0  0  0
 13 11  1  0  0  0  0
 14 11  1  0  0  0  0
 15 14  1  0  0  0  0
 17 18  2  0  0  0  0
 18 16  1  0  0  0  0
 18 21  1  0  0  0  0
 19 20  1  0  0  0  0
 19 18  1  0  0  0  0
 21 22  1  0  0  0  0
M  END
>  <minimizedAffinity>
-4.48505878

$$$$

 OpenBabel03252507093D

 22 22  0  0  0  0  0  0  0  0999 V2000
   37.1240   31.0900   38.4940 C   0  0  0  0  0  0  0  0  0  0  0  0
   38.0720   31.7560   37.6730 C   0  0  0  0  0  0  0  0  0  0  0  0
   39.4130   31.5860   37.9870 C   0  0  0  0  0  0  0  0  0  0  0  0
   39.7540   30.8100   39.0380 N   0  0  0  0  0  0  0  0  0  0  0  0
   38.8350   30.1910   39.8000 C   0  0  0  0  0  0  0  0  0  0  0  0
   37.5280   30.3210   39.5410 N   0  0  0  0  0  0  0  0  0  0  0  0
   36.0820   31.2530   38.2090 H   0  0  0  0  0  0  0  0  0  0  0  0
   37.7230   32.3610   36.8480 H   0  0  0  0  0  0  0  0  0  0  0  0
   39.2690   29.3950   40.8840 N   0  0  0  0  0  0  0  0  0  0  0  0
   40.0590   28.7210   40.7900 H   0  0  0  0  0  0  0  0  0  0  0  0
   38.6100   29.4010   42.4540 S   0  0  0  0  0  0  0  0  0  0  0  0
   38.8160   28.1450   43.2160 O   0  0  0  0  0  1  0  0  0  0  0  0
   39.2620   30.5310   43.2340 O   0  0  0  0  0  1  0  0  0  0  0  0
   36.9570   29.7850   42.4610 O   0  0  0  0  0  0  0  0  0  0  0  0
   36.7220   30.3080   41.6530 H   0  0  0  0  0  0  0  0  0  0  0  0
   40.3330   32.2480   37.1700 O   0  0  0  0  0  0  0  0  0  0  0  0
   41.0270   34.1010   38.9160 O   0  0  0  0  0  0  0  0  0  0  0  0
   41.6110   33.1330   37.8980 P   0  0  0  0  0  0  0  0  0  0  0  0
   42.6800   32.0650   38.5900 O   0  0  0  0  0  0  0  0  0  0  0  0
   43.5980   32.1970   38.2530 H   0  0  0  0  0  0  0  0  0  0  0  0
   42.3530   34.0530   36.6670 O   0  0  0  0  0  0  0  0  0  0  0  0
   41.8070   34.8440   36.4480 H   0  0  0  0  0  0  0  0  0  0  0  0
  1  6  1  0  0  0  0
  2  3  1  0  0  0  0
  2  1  2  0  0  0  0
  3  4  2  0  0  0  0
  4  5  1  0  0  0  0
  5  9  1  0  0  0  0
  6  5  2  0  0  0  0
  7  1  1  0  0  0  0
  8  2  1  0  0  0  0
  9 11  1  0  0  0  0
 10  9  1  0  0  0  0
 11 14  1  0  0  0  0
 11 12  1  0  0  0  0
 11 13  1  0  0  0  0
 15 14  1  0  0  0  0
 16 18  1  0  0  0  0
 16  3  1  0  0  0  0
 18 19  1  0  0  0  0
 18 17  2  0  0  0  0
 20 19  1  0  0  0  0
 21 18  1  0  0  0  0
 22 21  1  0  0  0  0
M  END
>  <minimizedAffinity>
-4.45889997

$$$$

 OpenBabel03252507093D

 22 22  0  0  0  0  0  0  0  0999 V2000
   36.5220   29.1830   38.3490 C   0  0  0  0  0  0  0  0  0  0  0  0
   36.5110   28.0680   39.2270 C   0  0  0  0  0  0  0  0  0  0  0  0
   36.6170   28.3290   40.5860 C   0  0  0  0  0  0  0  0  0  0  0  0
   36.7230   29.6080   41.0070 N   0  0  0  0  0  0  0  0  0  0  0  0
   36.7320   30.6460   40.1540 C   0  0  0  0  0  0  0  0  0  0  0  0
   36.6330   30.4500   38.8330 N   0  0  0  0  0  0  0  0  0  0  0  0
   36.4370   28.9280   37.2890 H   0  0  0  0  0  0  0  0  0  0  0  0
   36.4230   27.0720   38.8150 H   0  0  0  0  0  0  0  0  0  0  0  0
   36.8460   31.9560   40.6710 N   0  0  0  0  0  0  0  0  0  0  0  0
   36.2920   32.2730   41.4950 H   0  0  0  0  0  0  0  0  0  0  0  0
   37.8620   33.1830   40.0670 S   0  0  0  0  0  0  0  0  0  0  0  0
   38.9420   32.7050   39.1690 O   0  0  0  0  0  1  0  0  0  0  0  0
   37.0040   34.1610   39.2820 O   0  0  0  0  0  1  0  0  0  0  0  0
   38.5480   34.1220   41.3020 O   0  0  0  0  0  0  0  0  0  0  0  0
   37.9840   34.0840   42.1170 H   0  0  0  0  0  0  0  0  0  0  0  0
   36.6040   27.2210   41.4370 O   0  0  0  0  0  0  0  0  0  0  0  0
   37.9950   27.2490   43.6800 O   0  0  0  0  0  0  0  0  0  0  0  0
   38.0530   26.7670   42.2380 P   0  0  0  0  0  0  0  0  0  0  0  0
   38.2290   25.1170   42.1360 O   0  0  0  0  0  0  0  0  0  0  0  0
   39.0950   24.8670   41.7330 H   0  0  0  0  0  0  0  0  0  0  0  0
   39.3350   27.5830   41.4640 O   0  0  0  0  0  0  0  0  0  0  0  0
   39.3670   28.5270   41.7470 H   0  0  0  0  0  0  0  0  0  0  0  0
  1  6  2  0  0  0  0
  1  2  1  0  0  0  0
  2  3  2  0  0  0  0
  3  4  1  0  0  0  0
  3 16  1  0  0  0  0
  5  9  1  0  0  0  0
  5  4  2  0  0  0  0
  6  5  1  0  0  0  0
  7  1  1  0  0  0  0
  8  2  1  0  0  0  0
  9 10  1  0  0  0  0
 11  9  1  0  0  0  0
 11 14  1  0  0  0  0
 12 11  1  0  0  0  0
 13 11  1  0  0  0  0
 14 15  1  0  0  0  0
 16 18  1  0  0  0  0
 18 17  2  0  0  0  0
 19 18  1  0  0  0  0
 20 19  1  0  0  0  0
 21 22  1  0  0  0  0
 21 18  1  0  0  0  0
M  END
>  <minimizedAffinity>
-4.41979265

$$$$
