
 OpenBabel03252505453D

 23 24  0  0  1  0  0  0  0  0999 V2000
   37.2880   27.9950   43.2670 C   0  0  1  0  0  0  0  0  0  0  0  0
   36.3730   27.9440   42.0300 C   0  0  2  0  0  0  0  0  0  0  0  0
   36.9860   26.7300   42.6350 C   0  0  0  0  0  0  0  0  0  0  0  0
   36.7560   28.2840   44.2140 H   0  0  0  0  0  0  0  0  0  0  0  0
   35.2760   28.0640   42.2450 H   0  0  0  0  0  0  0  0  0  0  0  0
   37.7870   26.2690   42.0140 H   0  0  0  0  0  0  0  0  0  0  0  0
   36.3530   25.9720   43.1360 H   0  0  0  0  0  0  0  0  0  0  0  0
   38.5640   28.7090   43.0300 C   0  0  0  0  0  0  0  0  0  0  0  0
   39.7770   27.9570   43.0830 C   0  0  0  0  0  0  0  0  0  0  0  0
   40.9740   28.6200   42.8450 C   0  0  0  0  0  0  0  0  0  0  0  0
   40.9040   29.9700   42.5710 N   0  0  0  0  0  0  0  0  0  0  0  0
   39.7350   30.6360   42.5330 C   0  0  0  0  0  0  0  0  0  0  0  0
   38.5760   30.0220   42.7580 N   0  0  0  0  0  0  0  0  0  0  0  0
   39.7800   26.8980   43.3020 H   0  0  0  0  0  0  0  0  0  0  0  0
   41.9350   28.1280   42.8660 H   0  0  0  0  0  0  0  0  0  0  0  0
   39.7570   31.7050   42.3100 H   0  0  0  0  0  0  0  0  0  0  0  0
   36.7900   28.4750   40.7900 N   0  0  0  0  0  0  0  0  0  0  0  0
   37.7810   28.6180   40.6190 H   0  0  0  0  0  0  0  0  0  0  0  0
   35.7540   29.7260   40.2800 S   0  0  0  0  0  0  0  0  0  0  0  0
   34.3710   29.2380   39.9620 O   0  0  0  0  0  1  0  0  0  0  0  0
   36.3940   30.3690   39.0710 O   0  0  0  0  0  1  0  0  0  0  0  0
   35.6870   30.9280   41.4410 O   0  0  0  0  0  0  0  0  0  0  0  0
   35.0100   30.7250   42.1250 H   0  0  0  0  0  0  0  0  0  0  0  0
  1  4  1  1  0  0  0
  2  5  1  1  0  0  0
  2  3  1  0  0  0  0
  2  1  1  0  0  0  0
  3  7  1  0  0  0  0
  3  1  1  0  0  0  0
  6  3  1  0  0  0  0
  8  9  1  0  0  0  0
  8  1  1  0  0  0  0
  9 14  1  0  0  0  0
 10 15  1  0  0  0  0
 10  9  2  0  0  0  0
 11 10  1  0  0  0  0
 12 11  2  0  0  0  0
 12 13  1  0  0  0  0
 13  8  2  0  0  0  0
 16 12  1  0  0  0  0
 17  2  1  0  0  0  0
 18 17  1  0  0  0  0
 19 17  1  0  0  0  0
 19 22  1  0  0  0  0
 20 19  1  0  0  0  0
 21 19  1  0  0  0  0
 22 23  1  0  0  0  0
M  END
>  <minimizedAffinity>
-4.54001427

$$$$

 OpenBabel03252505453D

 23 24  0  0  1  0  0  0  0  0999 V2000
   38.3150   27.4040   42.4140 C   0  0  1  0  0  0  0  0  0  0  0  0
   37.2620   28.5240   42.5080 C   0  0  2  0  0  0  0  0  0  0  0  0
   37.6620   27.6870   43.6730 C   0  0  0  0  0  0  0  0  0  0  0  0
   39.3600   27.7780   42.2340 H   0  0  0  0  0  0  0  0  0  0  0  0
   37.6780   29.5680   42.5250 H   0  0  0  0  0  0  0  0  0  0  0  0
   36.8770   26.9720   44.0090 H   0  0  0  0  0  0  0  0  0  0  0  0
   38.2150   28.1330   44.5220 H   0  0  0  0  0  0  0  0  0  0  0  0
   37.9020   26.2760   41.5480 C   0  0  0  0  0  0  0  0  0  0  0  0
   37.4380   25.0800   42.1750 C   0  0  0  0  0  0  0  0  0  0  0  0
   37.0340   24.0250   41.3670 C   0  0  0  0  0  0  0  0  0  0  0  0
   37.1110   24.2110   40.0020 N   0  0  0  0  0  0  0  0  0  0  0  0
   37.5570   25.3590   39.4570 C   0  0  0  0  0  0  0  0  0  0  0  0
   37.9490   26.3810   40.2120 N   0  0  0  0  0  0  0  0  0  0  0  0
   37.3960   24.9820   43.2520 H   0  0  0  0  0  0  0  0  0  0  0  0
   36.6710   23.0870   41.7580 H   0  0  0  0  0  0  0  0  0  0  0  0
   37.5900   25.4340   38.3680 H   0  0  0  0  0  0  0  0  0  0  0  0
   36.0070   28.4020   41.8730 N   0  0  0  0  0  0  0  0  0  0  0  0
   35.6520   27.4780   41.6480 H   0  0  0  0  0  0  0  0  0  0  0  0
   35.8100   29.5930   40.6730 S   0  0  0  0  0  0  0  0  0  0  0  0
   34.6560   29.3080   39.7590 O   0  0  0  0  0  1  0  0  0  0  0  0
   37.1090   29.6680   39.9020 O   0  0  0  0  0  1  0  0  0  0  0  0
   35.6250   31.0970   41.3810 O   0  0  0  0  0  0  0  0  0  0  0  0
   34.6860   31.2660   41.6200 H   0  0  0  0  0  0  0  0  0  0  0  0
  1  4  1  6  0  0  0
  1  2  1  0  0  0  0
  1  3  1  0  0  0  0
  2  5  1  1  0  0  0
  2  3  1  0  0  0  0
  3  6  1  0  0  0  0
  3  7  1  0  0  0  0
  8  9  1  0  0  0  0
  8  1  1  0  0  0  0
  9 14  1  0  0  0  0
 10 15  1  0  0  0  0
 10  9  2  0  0  0  0
 11 10  1  0  0  0  0
 12 11  2  0  0  0  0
 12 13  1  0  0  0  0
 13  8  2  0  0  0  0
 16 12  1  0  0  0  0
 17  2  1  0  0  0  0
 18 17  1  0  0  0  0
 19 22  1  0  0  0  0
 19 17  1  0  0  0  0
 20 19  1  0  0  0  0
 21 19  1  0  0  0  0
 22 23  1  0  0  0  0
M  END
>  <minimizedAffinity>
-4.43352032

$$$$

 OpenBabel03252505453D

 23 24  0  0  1  0  0  0  0  0999 V2000
   35.9920   29.8960   40.7790 C   0  0  1  0  0  0  0  0  0  0  0  0
   36.5540   31.2940   40.4630 C   0  0  2  0  0  0  0  0  0  0  0  0
   36.1940   30.3090   39.4070 C   0  0  0  0  0  0  0  0  0  0  0  0
   34.9580   29.9100   41.2170 H   0  0  0  0  0  0  0  0  0  0  0  0
   35.8210   32.1380   40.5780 H   0  0  0  0  0  0  0  0  0  0  0  0
   37.0700   29.8780   38.8710 H   0  0  0  0  0  0  0  0  0  0  0  0
   35.3380   30.4980   38.7310 H   0  0  0  0  0  0  0  0  0  0  0  0
   36.9530   29.0180   41.4870 C   0  0  0  0  0  0  0  0  0  0  0  0
   37.4650   27.8800   40.7920 C   0  0  0  0  0  0  0  0  0  0  0  0
   38.3780   27.0640   41.4470 C   0  0  0  0  0  0  0  0  0  0  0  0
   38.7300   27.4160   42.7320 N   0  0  0  0  0  0  0  0  0  0  0  0
   38.2200   28.5000   43.3460 C   0  0  0  0  0  0  0  0  0  0  0  0
   37.3440   29.2960   42.7390 N   0  0  0  0  0  0  0  0  0  0  0  0
   37.1570   27.6450   39.7820 H   0  0  0  0  0  0  0  0  0  0  0  0
   38.8130   26.1850   40.9950 H   0  0  0  0  0  0  0  0  0  0  0  0
   38.5450   28.7170   44.3660 H   0  0  0  0  0  0  0  0  0  0  0  0
   37.8900   31.6310   40.7720 N   0  0  0  0  0  0  0  0  0  0  0  0
   38.2690   31.3810   41.6790 H   0  0  0  0  0  0  0  0  0  0  0  0
   38.2750   33.1890   40.2030 S   0  0  0  0  0  0  0  0  0  0  0  0
   37.1370   33.8340   39.4680 O   0  0  0  0  0  1  0  0  0  0  0  0
   39.4880   33.0510   39.3110 O   0  0  0  0  0  1  0  0  0  0  0  0
   38.7640   34.1610   41.4730 O   0  0  0  0  0  0  0  0  0  0  0  0
   37.9930   34.5790   41.9200 H   0  0  0  0  0  0  0  0  0  0  0  0
  1  4  1  1  0  0  0
  1  8  1  0  0  0  0
  2  5  1  1  0  0  0
  2 17  1  0  0  0  0
  2  1  1  0  0  0  0
  3  2  1  0  0  0  0
  3  1  1  0  0  0  0
  6  3  1  0  0  0  0
  7  3  1  0  0  0  0
  8 13  1  0  0  0  0
  9 10  1  0  0  0  0
  9  8  2  0  0  0  0
 10 11  2  0  0  0  0
 11 12  1  0  0  0  0
 12 16  1  0  0  0  0
 13 12  2  0  0  0  0
 14  9  1  0  0  0  0
 15 10  1  0  0  0  0
 17 18  1  0  0  0  0
 19 17  1  0  0  0  0
 19 22  1  0  0  0  0
 20 19  1  0  0  0  0
 21 19  1  0  0  0  0
 22 23  1  0  0  0  0
M  END
>  <minimizedAffinity>
-4.31473875

$$$$

 OpenBabel03252505453D

 23 24  0  0  1  0  0  0  0  0999 V2000
   37.6910   28.0800   43.6780 C   0  0  1  0  0  0  0  0  0  0  0  0
   36.8210   28.6430   42.5380 C   0  0  2  0  0  0  0  0  0  0  0  0
   36.6010   27.2980   43.1370 C   0  0  0  0  0  0  0  0  0  0  0  0
   37.5580   28.6160   44.6570 H   0  0  0  0  0  0  0  0  0  0  0  0
   36.0700   29.4170   42.8520 H   0  0  0  0  0  0  0  0  0  0  0  0
   36.8690   26.4520   42.4640 H   0  0  0  0  0  0  0  0  0  0  0  0
   35.6910   27.0900   43.7320 H   0  0  0  0  0  0  0  0  0  0  0  0
   39.1000   27.8450   43.2860 C   0  0  0  0  0  0  0  0  0  0  0  0
   39.5920   26.5040   43.3120 C   0  0  0  0  0  0  0  0  0  0  0  0
   40.9080   26.2780   42.9300 C   0  0  0  0  0  0  0  0  0  0  0  0
   41.6510   27.3740   42.5470 N   0  0  0  0  0  0  0  0  0  0  0  0
   41.1420   28.6200   42.5390 C   0  0  0  0  0  0  0  0  0  0  0  0
   39.8850   28.8610   42.9010 N   0  0  0  0  0  0  0  0  0  0  0  0
   38.9680   25.6760   43.6210 H   0  0  0  0  0  0  0  0  0  0  0  0
   41.3590   25.2970   42.9210 H   0  0  0  0  0  0  0  0  0  0  0  0
   41.7910   29.4400   42.2230 H   0  0  0  0  0  0  0  0  0  0  0  0
   37.3470   28.8260   41.2410 N   0  0  0  0  0  0  0  0  0  0  0  0
   38.2780   28.4820   41.0290 H   0  0  0  0  0  0  0  0  0  0  0  0
   36.9630   30.3710   40.6370 S   0  0  0  0  0  0  0  0  0  0  0  0
   36.7390   30.3740   39.1540 O   0  0  0  0  0  1  0  0  0  0  0  0
   38.1000   31.2920   41.0160 O   0  0  0  0  0  1  0  0  0  0  0  0
   35.6180   30.9770   41.4240 O   0  0  0  0  0  0  0  0  0  0  0  0
   34.7860   30.6690   40.9970 H   0  0  0  0  0  0  0  0  0  0  0  0
  1  4  1  1  0  0  0
  2  5  1  1  0  0  0
  2  3  1  0  0  0  0
  2  1  1  0  0  0  0
  3  1  1  0  0  0  0
  3  7  1  0  0  0  0
  6  3  1  0  0  0  0
  8  9  1  0  0  0  0
  8  1  1  0  0  0  0
  9 14  1  0  0  0  0
 10  9  2  0  0  0  0
 11 10  1  0  0  0  0
 12 11  2  0  0  0  0
 12 13  1  0  0  0  0
 13  8  2  0  0  0  0
 15 10  1  0  0  0  0
 16 12  1  0  0  0  0
 17  2  1  0  0  0  0
 18 17  1  0  0  0  0
 19 21  1  0  0  0  0
 19 17  1  0  0  0  0
 19 22  1  0  0  0  0
 20 19  1  0  0  0  0
 23 22  1  0  0  0  0
M  END
>  <minimizedAffinity>
-4.24637413

$$$$

 OpenBabel03252505453D

 23 24  0  0  1  0  0  0  0  0999 V2000
   35.6980   29.2400   40.7120 C   0  0  1  0  0  0  0  0  0  0  0  0
   36.1890   30.6990   40.7150 C   0  0  2  0  0  0  0  0  0  0  0  0
   35.8400   29.9640   39.4680 C   0  0  0  0  0  0  0  0  0  0  0  0
   34.6770   29.1030   41.1620 H   0  0  0  0  0  0  0  0  0  0  0  0
   35.4230   31.4580   41.0330 H   0  0  0  0  0  0  0  0  0  0  0  0
   36.7170   29.7100   38.8310 H   0  0  0  0  0  0  0  0  0  0  0  0
   34.9570   30.2600   38.8700 H   0  0  0  0  0  0  0  0  0  0  0  0
   36.7170   28.2720   41.1820 C   0  0  0  0  0  0  0  0  0  0  0  0
   36.5760   27.7310   42.4960 C   0  0  0  0  0  0  0  0  0  0  0  0
   37.5200   26.8110   42.9340 C   0  0  0  0  0  0  0  0  0  0  0  0
   38.5340   26.4830   42.0590 N   0  0  0  0  0  0  0  0  0  0  0  0
   38.6250   27.0210   40.8290 C   0  0  0  0  0  0  0  0  0  0  0  0
   37.7320   27.9040   40.3880 N   0  0  0  0  0  0  0  0  0  0  0  0
   35.7610   28.0200   43.1460 H   0  0  0  0  0  0  0  0  0  0  0  0
   37.4890   26.3540   43.9120 H   0  0  0  0  0  0  0  0  0  0  0  0
   39.4560   26.7140   40.1910 H   0  0  0  0  0  0  0  0  0  0  0  0
   37.5170   31.0220   41.0660 N   0  0  0  0  0  0  0  0  0  0  0  0
   37.8070   30.9450   42.0360 H   0  0  0  0  0  0  0  0  0  0  0  0
   38.0510   32.4070   40.2310 S   0  0  0  0  0  0  0  0  0  0  0  0
   38.7390   32.0740   38.9410 O   0  0  0  0  0  1  0  0  0  0  0  0
   38.9760   33.1590   41.1620 O   0  0  0  0  0  1  0  0  0  0  0  0
   36.7670   33.4400   39.9490 O   0  0  0  0  0  0  0  0  0  0  0  0
   36.2900   33.1980   39.1230 H   0  0  0  0  0  0  0  0  0  0  0  0
  1  2  1  0  0  0  0
  1  4  1  1  0  0  0
  1  8  1  0  0  0  0
  2  5  1  1  0  0  0
  2 17  1  0  0  0  0
  3  1  1  0  0  0  0
  3  2  1  0  0  0  0
  6  3  1  0  0  0  0
  7  3  1  0  0  0  0
  8  9  1  0  0  0  0
  9 10  2  0  0  0  0
  9 14  1  0  0  0  0
 10 15  1  0  0  0  0
 11 10  1  0  0  0  0
 12 11  2  0  0  0  0
 13 12  1  0  0  0  0
 13  8  2  0  0  0  0
 16 12  1  0  0  0  0
 17 18  1  0  0  0  0
 19 17  1  0  0  0  0
 19 21  1  0  0  0  0
 20 19  1  0  0  0  0
 22 19  1  0  0  0  0
 23 22  1  0  0  0  0
M  END
>  <minimizedAffinity>
-4.20078516

$$$$

 OpenBabel03252505453D

 23 24  0  0  1  0  0  0  0  0999 V2000
   35.4660   28.9120   40.5440 C   0  0  1  0  0  0  0  0  0  0  0  0
   35.9490   29.7370   39.3370 C   0  0  2  0  0  0  0  0  0  0  0  0
   35.4490   28.3400   39.2150 C   0  0  0  0  0  0  0  0  0  0  0  0
   34.5100   29.2890   40.9990 H   0  0  0  0  0  0  0  0  0  0  0  0
   35.2270   30.5200   38.9770 H   0  0  0  0  0  0  0  0  0  0  0  0
   36.2400   27.5940   38.9740 H   0  0  0  0  0  0  0  0  0  0  0  0
   34.4970   28.1280   38.6910 H   0  0  0  0  0  0  0  0  0  0  0  0
   36.5380   28.6070   41.5190 C   0  0  0  0  0  0  0  0  0  0  0  0
   36.9490   27.2470   41.6660 C   0  0  0  0  0  0  0  0  0  0  0  0
   37.9660   26.9590   42.5670 C   0  0  0  0  0  0  0  0  0  0  0  0
   38.5110   28.0180   43.2620 N   0  0  0  0  0  0  0  0  0  0  0  0
   38.0890   29.2840   43.0900 C   0  0  0  0  0  0  0  0  0  0  0  0
   37.1170   29.5830   42.2320 N   0  0  0  0  0  0  0  0  0  0  0  0
   36.4890   26.4500   41.0960 H   0  0  0  0  0  0  0  0  0  0  0  0
   38.3360   25.9590   42.7390 H   0  0  0  0  0  0  0  0  0  0  0  0
   38.5680   30.0720   43.6760 H   0  0  0  0  0  0  0  0  0  0  0  0
   37.3110   30.0790   39.1840 N   0  0  0  0  0  0  0  0  0  0  0  0
   38.0230   29.4590   39.5560 H   0  0  0  0  0  0  0  0  0  0  0  0
   37.5570   31.7430   39.4400 S   0  0  0  0  0  0  0  0  0  0  0  0
   37.3240   32.5600   38.2030 O   0  0  0  0  0  1  0  0  0  0  0  0
   38.9720   31.9130   39.9440 O   0  0  0  0  0  1  0  0  0  0  0  0
   36.5740   32.2860   40.6800 O   0  0  0  0  0  0  0  0  0  0  0  0
   35.6810   32.5300   40.3470 H   0  0  0  0  0  0  0  0  0  0  0  0
  1  4  1  1  0  0  0
  1  8  1  0  0  0  0
  2  5  1  6  0  0  0
  2  1  1  0  0  0  0
  3  2  1  0  0  0  0
  3  1  1  0  0  0  0
  6  3  1  0  0  0  0
  7  3  1  0  0  0  0
  8  9  2  0  0  0  0
  8 13  1  0  0  0  0
  9 10  1  0  0  0  0
 10 15  1  0  0  0  0
 10 11  2  0  0  0  0
 12 11  1  0  0  0  0
 12 16  1  0  0  0  0
 13 12  2  0  0  0  0
 14  9  1  0  0  0  0
 17  2  1  0  0  0  0
 17 19  1  0  0  0  0
 17 18  1  0  0  0  0
 19 21  1  0  0  0  0
 19 22  1  0  0  0  0
 20 19  1  0  0  0  0
 23 22  1  0  0  0  0
M  END
>  <minimizedAffinity>
-4.10310936

$$$$

 OpenBabel03252505453D

 23 24  0  0  1  0  0  0  0  0999 V2000
   36.9140   29.7990   39.2940 C   0  0  1  0  0  0  0  0  0  0  0  0
   36.2850   28.9500   40.4140 C   0  0  2  0  0  0  0  0  0  0  0  0
   35.4790   29.6330   39.3640 C   0  0  0  0  0  0  0  0  0  0  0  0
   37.5080   29.2010   38.5500 H   0  0  0  0  0  0  0  0  0  0  0  0
   36.3760   27.8380   40.2760 H   0  0  0  0  0  0  0  0  0  0  0  0
   34.8860   30.4980   39.7380 H   0  0  0  0  0  0  0  0  0  0  0  0
   34.9300   29.0430   38.6050 H   0  0  0  0  0  0  0  0  0  0  0  0
   37.5910   31.0200   39.7880 C   0  0  0  0  0  0  0  0  0  0  0  0
   37.0360   32.2880   39.4350 C   0  0  0  0  0  0  0  0  0  0  0  0
   37.6590   33.4360   39.9090 C   0  0  0  0  0  0  0  0  0  0  0  0
   38.7780   33.2660   40.6960 N   0  0  0  0  0  0  0  0  0  0  0  0
   39.2650   32.0490   41.0020 C   0  0  0  0  0  0  0  0  0  0  0  0
   38.6850   30.9360   40.5580 N   0  0  0  0  0  0  0  0  0  0  0  0
   36.1540   32.3690   38.8130 H   0  0  0  0  0  0  0  0  0  0  0  0
   37.3050   34.4320   39.6900 H   0  0  0  0  0  0  0  0  0  0  0  0
   40.1560   31.9920   41.6300 H   0  0  0  0  0  0  0  0  0  0  0  0
   36.3110   29.3790   41.7580 N   0  0  0  0  0  0  0  0  0  0  0  0
   36.4850   30.3580   41.9640 H   0  0  0  0  0  0  0  0  0  0  0  0
   37.1160   28.2500   42.7460 S   0  0  0  0  0  0  0  0  0  0  0  0
   38.1530   28.8850   43.6240 O   0  0  0  0  0  1  0  0  0  0  0  0
   37.7370   27.2200   41.8300 O   0  0  0  0  0  1  0  0  0  0  0  0
   36.0100   27.4090   43.6770 O   0  0  0  0  0  0  0  0  0  0  0  0
   35.8000   27.8950   44.5060 H   0  0  0  0  0  0  0  0  0  0  0  0
  1  4  1  6  0  0  0
  1  3  1  0  0  0  0
  1  8  1  0  0  0  0
  1  2  1  0  0  0  0
  2  5  1  6  0  0  0
  2 17  1  0  0  0  0
  3  6  1  0  0  0  0
  3  2  1  0  0  0  0
  7  3  1  0  0  0  0
  8 13  1  0  0  0  0
  9  8  2  0  0  0  0
  9 10  1  0  0  0  0
 10 11  2  0  0  0  0
 11 12  1  0  0  0  0
 12 16  1  0  0  0  0
 13 12  2  0  0  0  0
 14  9  1  0  0  0  0
 15 10  1  0  0  0  0
 17 18  1  0  0  0  0
 17 19  1  0  0  0  0
 19 20  1  0  0  0  0
 19 22  1  0  0  0  0
 21 19  1  0  0  0  0
 22 23  1  0  0  0  0
M  END
>  <minimizedAffinity>
-4.07660913

$$$$

 OpenBabel03252505453D

 23 24  0  0  1  0  0  0  0  0999 V2000
   39.7560   29.8960   41.6630 C   0  0  1  0  0  0  0  0  0  0  0  0
   39.3850   31.3140   41.1890 C   0  0  2  0  0  0  0  0  0  0  0  0
   40.1170   31.0490   42.4590 C   0  0  0  0  0  0  0  0  0  0  0  0
   40.5340   29.3940   41.0260 H   0  0  0  0  0  0  0  0  0  0  0  0
   40.0280   31.7220   40.3620 H   0  0  0  0  0  0  0  0  0  0  0  0
   39.5170   31.2390   43.3770 H   0  0  0  0  0  0  0  0  0  0  0  0
   41.1730   31.3610   42.5740 H   0  0  0  0  0  0  0  0  0  0  0  0
   38.5810   29.0540   41.9840 C   0  0  0  0  0  0  0  0  0  0  0  0
   38.2990   28.7860   43.3580 C   0  0  0  0  0  0  0  0  0  0  0  0
   37.1880   28.0100   43.6640 C   0  0  0  0  0  0  0  0  0  0  0  0
   36.4300   27.5510   42.6080 N   0  0  0  0  0  0  0  0  0  0  0  0
   36.7370   27.8290   41.3270 C   0  0  0  0  0  0  0  0  0  0  0  0
   37.7950   28.5700   41.0110 N   0  0  0  0  0  0  0  0  0  0  0  0
   38.9250   29.1710   44.1520 H   0  0  0  0  0  0  0  0  0  0  0  0
   36.9040   27.7610   44.6750 H   0  0  0  0  0  0  0  0  0  0  0  0
   36.0900   27.4300   40.5430 H   0  0  0  0  0  0  0  0  0  0  0  0
   38.0420   31.7450   41.1570 N   0  0  0  0  0  0  0  0  0  0  0  0
   37.3350   31.2050   41.6470 H   0  0  0  0  0  0  0  0  0  0  0  0
   37.6160   32.3060   39.6070 S   0  0  0  0  0  0  0  0  0  0  0  0
   36.7650   31.3300   38.8510 O   0  0  0  0  0  1  0  0  0  0  0  0
   38.9040   32.5910   38.8670 O   0  0  0  0  0  1  0  0  0  0  0  0
   36.8350   33.7800   39.7240 O   0  0  0  0  0  0  0  0  0  0  0  0
   35.8710   33.6620   39.8800 H   0  0  0  0  0  0  0  0  0  0  0  0
  1  4  1  6  0  0  0
  1  8  1  0  0  0  0
  1  3  1  0  0  0  0
  2  5  1  6  0  0  0
  2  1  1  0  0  0  0
  2  3  1  0  0  0  0
  3  7  1  0  0  0  0
  3  6  1  0  0  0  0
  8  9  1  0  0  0  0
  9 10  2  0  0  0  0
  9 14  1  0  0  0  0
 10 15  1  0  0  0  0
 11 10  1  0  0  0  0
 12 11  2  0  0  0  0
 13 12  1  0  0  0  0
 13  8  2  0  0  0  0
 16 12  1  0  0  0  0
 17  2  1  0  0  0  0
 17 18  1  0  0  0  0
 19 22  1  0  0  0  0
 19 17  1  0  0  0  0
 20 19  1  0  0  0  0
 21 19  1  0  0  0  0
 22 23  1  0  0  0  0
M  END
>  <minimizedAffinity>
-3.9343152

$$$$

 OpenBabel03252505453D

 23 24  0  0  1  0  0  0  0  0999 V2000
   37.1320   27.7980   43.1140 C   0  0  1  0  0  0  0  0  0  0  0  0
   37.3920   26.3760   42.5840 C   0  0  2  0  0  0  0  0  0  0  0  0
   38.4380   27.1950   43.2550 C   0  0  0  0  0  0  0  0  0  0  0  0
   36.4370   27.8340   43.9960 H   0  0  0  0  0  0  0  0  0  0  0  0
   36.9740   25.5480   43.2190 H   0  0  0  0  0  0  0  0  0  0  0  0
   39.2400   27.5550   42.5720 H   0  0  0  0  0  0  0  0  0  0  0  0
   38.8320   26.8990   44.2470 H   0  0  0  0  0  0  0  0  0  0  0  0
   36.8290   28.7800   42.0470 C   0  0  0  0  0  0  0  0  0  0  0  0
   37.7180   29.8850   41.8750 C   0  0  0  0  0  0  0  0  0  0  0  0
   37.4470   30.7990   40.8660 C   0  0  0  0  0  0  0  0  0  0  0  0
   36.3280   30.5720   40.0930 N   0  0  0  0  0  0  0  0  0  0  0  0
   35.5180   29.5150   40.2940 C   0  0  0  0  0  0  0  0  0  0  0  0
   35.7580   28.6270   41.2550 N   0  0  0  0  0  0  0  0  0  0  0  0
   38.5850   30.0200   42.5090 H   0  0  0  0  0  0  0  0  0  0  0  0
   38.0670   31.6610   40.6680 H   0  0  0  0  0  0  0  0  0  0  0  0
   34.6490   29.4000   39.6430 H   0  0  0  0  0  0  0  0  0  0  0  0
   37.4050   26.1040   41.1990 N   0  0  0  0  0  0  0  0  0  0  0  0
   36.7770   26.6140   40.5860 H   0  0  0  0  0  0  0  0  0  0  0  0
   37.5470   24.4330   40.9050 S   0  0  0  0  0  0  0  0  0  0  0  0
   38.3800   24.1270   39.6950 O   0  0  0  0  0  1  0  0  0  0  0  0
   36.1450   23.8870   40.7510 O   0  0  0  0  0  1  0  0  0  0  0  0
   38.1790   23.6640   42.2480 O   0  0  0  0  0  0  0  0  0  0  0  0
   39.1630   23.6880   42.2430 H   0  0  0  0  0  0  0  0  0  0  0  0
  1  3  1  0  0  0  0
  1  4  1  1  0  0  0
  2  1  1  0  0  0  0
  2  5  1  1  0  0  0
  2  3  1  0  0  0  0
  3  7  1  0  0  0  0
  6  3  1  0  0  0  0
  8  1  1  0  0  0  0
  9  8  1  0  0  0  0
  9 14  1  0  0  0  0
 10  9  2  0  0  0  0
 11 12  2  0  0  0  0
 11 10  1  0  0  0  0
 12 13  1  0  0  0  0
 13  8  2  0  0  0  0
 15 10  1  0  0  0  0
 16 12  1  0  0  0  0
 17  2  1  0  0  0  0
 18 17  1  0  0  0  0
 19 17  1  0  0  0  0
 19 22  1  0  0  0  0
 20 19  1  0  0  0  0
 21 19  1  0  0  0  0
 23 22  1  0  0  0  0
M  END
>  <minimizedAffinity>
-3.93020988

$$$$
