
 OpenBabel03252509353D

 42 43  0  0  1  0  0  0  0  0999 V2000
   44.5210   35.4680   44.0470 O   0  0  0  0  0  0  0  0  0  0  0  0
   45.3820   34.2610   44.3660 P   0  0  1  0  0  0  0  0  0  0  0  0
   44.7130   32.8530   43.7010 O   0  0  0  0  0  0  0  0  0  0  0  0
   44.2800   33.1270   42.8470 H   0  0  0  0  0  0  0  0  0  0  0  0
   46.9010   34.5260   43.7270 O   0  0  0  0  0  0  0  0  0  0  0  0
   47.0320   33.8310   42.5170 C   0  0  1  0  0  0  0  0  0  0  0  0
   46.4490   34.6660   41.3740 C   0  0  0  0  0  0  0  0  0  0  0  0
   46.9550   33.8980   40.1830 C   0  0  0  0  0  0  0  0  0  0  0  0
   48.2440   33.2330   40.6290 C   0  0  0  0  0  0  0  0  0  0  0  0
   48.4510   33.6950   42.0590 C   0  0  1  0  0  0  0  0  0  0  0  0
   46.5140   32.8750   42.4990 H   0  0  0  0  0  0  0  0  0  0  0  0
   46.7150   35.7160   41.4120 H   0  0  0  0  0  0  0  0  0  0  0  0
   45.3490   34.5810   41.3780 H   0  0  0  0  0  0  0  0  0  0  0  0
   46.2120   33.1150   39.8890 H   0  0  0  0  0  0  0  0  0  0  0  0
   47.0820   34.5670   39.3250 H   0  0  0  0  0  0  0  0  0  0  0  0
   48.1420   32.1160   40.6240 H   0  0  0  0  0  0  0  0  0  0  0  0
   49.0900   33.5040   39.9790 H   0  0  0  0  0  0  0  0  0  0  0  0
   48.9620   32.8770   42.6270 H   0  0  0  0  0  0  0  0  0  0  0  0
   49.2150   34.9910   42.1180 C   0  0  0  0  0  0  0  0  0  0  0  0
   49.8310   35.0900   41.1850 H   0  0  0  0  0  0  0  0  0  0  0  0
   48.5700   35.8960   42.1360 H   0  0  0  0  0  0  0  0  0  0  0  0
   50.0210   35.0760   43.2320 O   0  0  0  0  0  0  0  0  0  0  0  0
   50.9520   34.8470   42.9430 H   0  0  0  0  0  0  0  0  0  0  0  0
   45.4640   34.0110   46.0130 O   0  0  0  0  0  0  0  0  0  0  0  0
   46.3940   33.0560   46.2740 C   0  0  0  0  0  0  0  0  0  0  0  0
   46.8480   32.5330   45.4370 H   0  0  0  0  0  0  0  0  0  0  0  0
   47.2540   33.5680   46.8010 H   0  0  0  0  0  0  0  0  0  0  0  0
   45.3330   31.4140   49.4380 C   0  0  0  0  0  0  0  0  0  0  0  0
   45.7870   32.4080   48.5650 C   0  0  0  0  0  0  0  0  0  0  0  0
   45.9160   32.0380   47.2230 C   0  0  0  0  0  0  0  0  0  0  0  0
   45.6010   30.7600   46.8440 N   0  0  0  0  0  0  0  0  0  0  0  0
   45.1660   29.8290   47.7190 C   0  0  0  0  0  0  0  0  0  0  0  0
   45.0360   30.1590   48.9980 N   0  0  0  0  0  0  0  0  0  0  0  0
   45.2270   31.6890   50.4860 H   0  0  0  0  0  0  0  0  0  0  0  0
   46.0090   33.3810   48.9480 H   0  0  0  0  0  0  0  0  0  0  0  0
   44.8580   28.5200   47.2540 N   0  0  0  0  0  0  0  0  0  0  0  0
   43.8930   28.2890   46.9280 H   0  0  0  0  0  0  0  0  0  0  0  0
   46.0570   27.2750   47.2060 S   0  0  0  0  0  0  0  0  0  0  0  0
   47.4100   27.8540   47.5070 O   0  0  0  0  0  1  0  0  0  0  0  0
   45.6680   26.2380   48.2210 O   0  0  0  0  0  1  0  0  0  0  0  0
   46.0610   26.6180   45.6490 O   0  0  0  0  0  0  0  0  0  0  0  0
   45.9220   27.3370   44.9720 H   0  0  0  0  0  0  0  0  0  0  0  0
  2  1  2  6  0  0  0
  2 24  1  0  0  0  0
  3  2  1  0  0  0  0
  4  3  1  0  0  0  0
  5  2  1  0  0  0  0
  6 11  1  1  0  0  0
  6  5  1  0  0  0  0
  7 13  1  0  0  0  0
  7 12  1  0  0  0  0
  7  6  1  0  0  0  0
  8  9  1  0  0  0  0
  8  7  1  0  0  0  0
  9 10  1  0  0  0  0
 10 19  1  0  0  0  0
 10  6  1  0  0  0  0
 10 18  1  1  0  0  0
 14  8  1  0  0  0  0
 15  8  1  0  0  0  0
 16  9  1  0  0  0  0
 17  9  1  0  0  0  0
 19 21  1  0  0  0  0
 19 22  1  0  0  0  0
 20 19  1  0  0  0  0
 23 22  1  0  0  0  0
 24 25  1  0  0  0  0
 25 27  1  0  0  0  0
 25 30  1  0  0  0  0
 26 25  1  0  0  0  0
 28 34  1  0  0  0  0
 29 35  1  0  0  0  0
 29 28  2  0  0  0  0
 30 29  1  0  0  0  0
 31 30  2  0  0  0  0
 31 32  1  0  0  0  0
 32 33  2  0  0  0  0
 33 28  1  0  0  0  0
 36 32  1  0  0  0  0
 37 36  1  0  0  0  0
 38 36  1  0  0  0  0
 38 39  1  0  0  0  0
 38 40  1  0  0  0  0
 41 38  1  0  0  0  0
 42 41  1  0  0  0  0
M  END
>  <minimizedAffinity>
-5.84475374

>  <minimizedRMSD>
0.932133138

$$$$
