
 OpenBabel03252509353D

 42 43  0  0  1  0  0  0  0  0999 V2000
   44.6820   35.4550   44.8890 O   0  0  0  0  0  0  0  0  0  0  0  0
   45.5250   34.3200   44.3380 P   0  0  1  0  0  0  0  0  0  0  0  0
   44.5450   33.1250   43.6420 O   0  0  0  0  0  0  0  0  0  0  0  0
   43.7680   33.6020   43.2420 H   0  0  0  0  0  0  0  0  0  0  0  0
   46.5560   34.9530   43.1880 O   0  0  0  0  0  0  0  0  0  0  0  0
   46.8040   33.9940   42.1980 C   0  0  1  0  0  0  0  0  0  0  0  0
   46.0990   34.3940   40.8990 C   0  0  0  0  0  0  0  0  0  0  0  0
   46.7300   33.4290   39.9310 C   0  0  0  0  0  0  0  0  0  0  0  0
   48.1070   33.1170   40.4870 C   0  0  0  0  0  0  0  0  0  0  0  0
   48.2290   33.9660   41.7380 C   0  0  1  0  0  0  0  0  0  0  0  0
   46.4470   32.9960   42.4490 H   0  0  0  0  0  0  0  0  0  0  0  0
   46.1920   35.4450   40.6510 H   0  0  0  0  0  0  0  0  0  0  0  0
   45.0280   34.1410   40.9660 H   0  0  0  0  0  0  0  0  0  0  0  0
   46.1260   32.4890   39.8800 H   0  0  0  0  0  0  0  0  0  0  0  0
   46.7510   33.8590   38.9250 H   0  0  0  0  0  0  0  0  0  0  0  0
   48.1880   32.0360   40.7780 H   0  0  0  0  0  0  0  0  0  0  0  0
   48.9020   33.3360   39.7570 H   0  0  0  0  0  0  0  0  0  0  0  0
   48.8620   33.4190   42.4800 H   0  0  0  0  0  0  0  0  0  0  0  0
   48.7720   35.3360   41.4280 C   0  0  0  0  0  0  0  0  0  0  0  0
   49.2890   35.3030   40.4310 H   0  0  0  0  0  0  0  0  0  0  0  0
   47.9910   36.1190   41.3230 H   0  0  0  0  0  0  0  0  0  0  0  0
   49.6390   35.7890   42.3970 O   0  0  0  0  0  0  0  0  0  0  0  0
   50.5690   35.6340   42.0610 H   0  0  0  0  0  0  0  0  0  0  0  0
   46.3820   33.5740   45.5590 O   0  0  0  0  0  0  0  0  0  0  0  0
   46.1580   32.2350   45.5090 C   0  0  0  0  0  0  0  0  0  0  0  0
   45.3970   31.8630   44.8290 H   0  0  0  0  0  0  0  0  0  0  0  0
   47.1210   31.7510   45.1660 H   0  0  0  0  0  0  0  0  0  0  0  0
   45.6830   31.9120   49.1840 C   0  0  0  0  0  0  0  0  0  0  0  0
   45.9410   32.5020   47.9420 C   0  0  0  0  0  0  0  0  0  0  0  0
   45.8880   31.6520   46.8330 C   0  0  0  0  0  0  0  0  0  0  0  0
   45.5950   30.3270   47.0150 N   0  0  0  0  0  0  0  0  0  0  0  0
   45.3520   29.7960   48.2320 C   0  0  0  0  0  0  0  0  0  0  0  0
   45.3970   30.5840   49.2980 N   0  0  0  0  0  0  0  0  0  0  0  0
   45.7200   32.5620   50.0550 H   0  0  0  0  0  0  0  0  0  0  0  0
   46.1610   33.5460   47.8930 H   0  0  0  0  0  0  0  0  0  0  0  0
   45.0550   28.4090   48.3440 N   0  0  0  0  0  0  0  0  0  0  0  0
   44.2680   28.0840   48.9480 H   0  0  0  0  0  0  0  0  0  0  0  0
   45.9750   27.2190   47.4920 S   0  0  0  0  0  0  0  0  0  0  0  0
   47.4440   27.4700   47.6840 O   0  0  0  0  0  1  0  0  0  0  0  0
   45.5780   25.8740   48.0270 O   0  0  0  0  0  1  0  0  0  0  0  0
   45.5950   27.3480   45.8490 O   0  0  0  0  0  0  0  0  0  0  0  0
   45.4810   28.3060   45.5970 H   0  0  0  0  0  0  0  0  0  0  0  0
  2  1  2  1  0  0  0
  2 24  1  0  0  0  0
  3  2  1  0  0  0  0
  4  3  1  0  0  0  0
  5  2  1  0  0  0  0
  6 11  1  1  0  0  0
  6  5  1  0  0  0  0
  7 13  1  0  0  0  0
  7  6  1  0  0  0  0
  8  9  1  0  0  0  0
  8  7  1  0  0  0  0
  9 16  1  0  0  0  0
  9 10  1  0  0  0  0
 10  6  1  0  0  0  0
 10 18  1  1  0  0  0
 12  7  1  0  0  0  0
 14  8  1  0  0  0  0
 15  8  1  0  0  0  0
 17  9  1  0  0  0  0
 19 10  1  0  0  0  0
 19 22  1  0  0  0  0
 20 19  1  0  0  0  0
 21 19  1  0  0  0  0
 23 22  1  0  0  0  0
 25 24  1  0  0  0  0
 25 30  1  0  0  0  0
 26 25  1  0  0  0  0
 27 25  1  0  0  0  0
 28 33  1  0  0  0  0
 28 34  1  0  0  0  0
 29 28  2  0  0  0  0
 30 31  2  0  0  0  0
 30 29  1  0  0  0  0
 31 32  1  0  0  0  0
 32 36  1  0  0  0  0
 32 33  2  0  0  0  0
 35 29  1  0  0  0  0
 36 37  1  0  0  0  0
 38 39  1  0  0  0  0
 38 40  1  0  0  0  0
 38 36  1  0  0  0  0
 41 38  1  0  0  0  0
 42 41  1  0  0  0  0
M  END
>  <minimizedAffinity>
-5.41035366

>  <minimizedRMSD>
0.45189178

$$$$
