
 OpenBabel03252505593D

 34 35  0  0  0  0  0  0  0  0999 V2000
   37.8400   26.6990   42.0400 C   0  0  0  0  0  0  0  0  0  0  0  0
   38.8720   25.9220   42.5530 C   0  0  0  0  0  0  0  0  0  0  0  0
   39.9380   26.6170   43.1170 C   0  0  0  0  0  0  0  0  0  0  0  0
   39.9670   27.9450   43.1640 N   0  0  0  0  0  0  0  0  0  0  0  0
   38.9330   28.6640   42.6500 C   0  0  0  0  0  0  0  0  0  0  0  0
   37.8980   28.0400   42.1030 N   0  0  0  0  0  0  0  0  0  0  0  0
   37.0070   26.1620   41.5990 H   0  0  0  0  0  0  0  0  0  0  0  0
   38.8030   24.4400   42.4780 C   0  0  0  0  0  0  0  0  0  0  0  0
   37.4380   24.1720   42.4920 F   0  0  0  0  0  0  0  0  0  0  0  0
   39.3530   23.9570   43.6630 F   0  0  0  0  0  0  0  0  0  0  0  0
   39.4080   23.9930   41.3640 F   0  0  0  0  0  0  0  0  0  0  0  0
   41.0450   25.9490   43.6790 N   0  0  0  0  0  0  0  0  0  0  0  0
   41.3370   25.4910   44.5570 H   0  0  0  0  0  0  0  0  0  0  0  0
   42.4780   25.7400   42.7440 S   0  0  0  0  0  0  0  0  0  0  0  0
   43.2390   27.0410   42.6320 O   0  0  0  0  0  1  0  0  0  0  0  0
   42.2040   25.2430   41.3540 O   0  0  0  0  0  1  0  0  0  0  0  0
   43.4360   24.5880   43.5420 O   0  0  0  0  0  0  0  0  0  0  0  0
   43.0850   23.6820   43.3520 H   0  0  0  0  0  0  0  0  0  0  0  0
   38.8950   30.0490   42.6630 O   0  0  0  0  0  0  0  0  0  0  0  0
   40.0740   30.8050   42.7050 C   0  0  0  0  0  0  0  0  0  0  0  0
   40.9490   30.1300   42.7760 H   0  0  0  0  0  0  0  0  0  0  0  0
   40.0630   31.3980   43.6560 H   0  0  0  0  0  0  0  0  0  0  0  0
   40.0810   31.6760   41.5270 C   0  0  0  0  0  0  0  0  0  0  0  0
   41.1290   32.3930   40.9420 C   0  0  0  0  0  0  0  0  0  0  0  0
   40.8520   33.1330   39.8350 C   0  0  0  0  0  0  0  0  0  0  0  0
   39.6380   33.1970   39.2990 N   0  0  0  0  0  0  0  0  0  0  0  0
   38.6350   32.5090   39.8610 C   0  0  0  0  0  0  0  0  0  0  0  0
   38.8440   31.7430   40.9760 N   0  0  0  0  0  0  0  0  0  0  0  0
   42.0590   32.2500   41.4800 H   0  0  0  0  0  0  0  0  0  0  0  0
   41.7100   33.6670   39.4290 H   0  0  0  0  0  0  0  0  0  0  0  0
   37.3120   32.6450   39.1880 C   0  0  0  0  0  0  0  0  0  0  0  0
   37.4030   32.3230   37.8590 F   0  0  0  0  0  0  0  0  0  0  0  0
   36.8390   33.9470   39.3350 F   0  0  0  0  0  0  0  0  0  0  0  0
   36.3760   31.7920   39.7600 F   0  0  0  0  0  0  0  0  0  0  0  0
  1  6  2  0  0  0  0
  1  2  1  0  0  0  0
  2  3  2  0  0  0  0
  3  4  1  0  0  0  0
  3 12  1  0  0  0  0
  5 19  1  0  0  0  0
  5  4  2  0  0  0  0
  6  5  1  0  0  0  0
  7  1  1  0  0  0  0
  8  9  1  0  0  0  0
  8  2  1  0  0  0  0
  8 10  1  0  0  0  0
 11  8  1  0  0  0  0
 12 13  1  0  0  0  0
 14 17  1  0  0  0  0
 14 12  1  0  0  0  0
 15 14  1  0  0  0  0
 16 14  1  0  0  0  0
 18 17  1  0  0  0  0
 19 20  1  0  0  0  0
 20 21  1  0  0  0  0
 20 22  1  0  0  0  0
 23 20  1  0  0  0  0
 24 29  1  0  0  0  0
 24 23  2  0  0  0  0
 25 24  1  0  0  0  0
 26 25  2  0  0  0  0
 26 27  1  0  0  0  0
 27 28  2  0  0  0  0
 28 23  1  0  0  0  0
 30 25  1  0  0  0  0
 31 33  1  0  0  0  0
 31 34  1  0  0  0  0
 31 27  1  0  0  0  0
 32 31  1  0  0  0  0
M  END
>  <minimizedAffinity>
-6.04117727

$$$$

 OpenBabel03252505593D

 34 35  0  0  0  0  0  0  0  0999 V2000
   36.0920   29.5930   39.8560 C   0  0  0  0  0  0  0  0  0  0  0  0
   37.1070   29.8870   38.9540 C   0  0  0  0  0  0  0  0  0  0  0  0
   38.3850   30.0120   39.4890 C   0  0  0  0  0  0  0  0  0  0  0  0
   38.6230   29.8590   40.7880 N   0  0  0  0  0  0  0  0  0  0  0  0
   37.5980   29.5710   41.6340 C   0  0  0  0  0  0  0  0  0  0  0  0
   36.3640   29.4430   41.1640 N   0  0  0  0  0  0  0  0  0  0  0  0
   35.0940   29.4960   39.4440 H   0  0  0  0  0  0  0  0  0  0  0  0
   36.8000   30.0540   37.5100 C   0  0  0  0  0  0  0  0  0  0  0  0
   35.4600   29.6950   37.4140 F   0  0  0  0  0  0  0  0  0  0  0  0
   37.5550   29.1010   36.8310 F   0  0  0  0  0  0  0  0  0  0  0  0
   37.0270   31.3210   37.1200 F   0  0  0  0  0  0  0  0  0  0  0  0
   39.5050   30.3010   38.6820 N   0  0  0  0  0  0  0  0  0  0  0  0
   40.2050   29.8250   38.0930 H   0  0  0  0  0  0  0  0  0  0  0  0
   40.0280   31.9340   38.5050 S   0  0  0  0  0  0  0  0  0  0  0  0
   41.4440   32.0990   39.0080 O   0  0  0  0  0  1  0  0  0  0  0  0
   39.1600   32.9120   39.2410 O   0  0  0  0  0  1  0  0  0  0  0  0
   39.9650   32.3060   36.8500 O   0  0  0  0  0  0  0  0  0  0  0  0
   39.0290   32.4960   36.5920 H   0  0  0  0  0  0  0  0  0  0  0  0
   37.7690   29.3970   42.9990 O   0  0  0  0  0  0  0  0  0  0  0  0
   37.2510   28.2730   43.6560 C   0  0  0  0  0  0  0  0  0  0  0  0
   36.1810   28.1480   43.3970 H   0  0  0  0  0  0  0  0  0  0  0  0
   37.2810   28.4800   44.7570 H   0  0  0  0  0  0  0  0  0  0  0  0
   38.0920   27.1280   43.2990 C   0  0  0  0  0  0  0  0  0  0  0  0
   39.4070   26.8260   43.6680 C   0  0  0  0  0  0  0  0  0  0  0  0
   39.9540   25.6780   43.1850 C   0  0  0  0  0  0  0  0  0  0  0  0
   39.2930   24.8480   42.3850 N   0  0  0  0  0  0  0  0  0  0  0  0
   38.0340   25.1390   42.0340 C   0  0  0  0  0  0  0  0  0  0  0  0
   37.4210   26.2780   42.4840 N   0  0  0  0  0  0  0  0  0  0  0  0
   39.8230   27.5860   44.3190 H   0  0  0  0  0  0  0  0  0  0  0  0
   40.9790   25.5020   43.5090 H   0  0  0  0  0  0  0  0  0  0  0  0
   37.3770   24.1480   41.1350 C   0  0  0  0  0  0  0  0  0  0  0  0
   37.9400   22.9060   41.2810 F   0  0  0  0  0  0  0  0  0  0  0  0
   37.4810   24.5690   39.8110 F   0  0  0  0  0  0  0  0  0  0  0  0
   36.0250   24.0300   41.4320 F   0  0  0  0  0  0  0  0  0  0  0  0
  1  6  1  0  0  0  0
  2  3  1  0  0  0  0
  2  1  2  0  0  0  0
  3  4  2  0  0  0  0
  4  5  1  0  0  0  0
  5 19  1  0  0  0  0
  6  5  2  0  0  0  0
  7  1  1  0  0  0  0
  8  2  1  0  0  0  0
  9  8  1  0  0  0  0
 10  8  1  0  0  0  0
 11  8  1  0  0  0  0
 12  3  1  0  0  0  0
 13 12  1  0  0  0  0
 14 12  1  0  0  0  0
 14 15  1  0  0  0  0
 14 16  1  0  0  0  0
 17 14  1  0  0  0  0
 18 17  1  0  0  0  0
 19 20  1  0  0  0  0
 20 22  1  0  0  0  0
 21 20  1  0  0  0  0
 23 20  1  0  0  0  0
 23 24  1  0  0  0  0
 24 29  1  0  0  0  0
 25 30  1  0  0  0  0
 25 24  2  0  0  0  0
 26 25  1  0  0  0  0
 27 26  2  0  0  0  0
 27 28  1  0  0  0  0
 28 23  2  0  0  0  0
 31 32  1  0  0  0  0
 31 34  1  0  0  0  0
 31 27  1  0  0  0  0
 33 31  1  0  0  0  0
M  END
>  <minimizedAffinity>
-5.82076788

$$$$

 OpenBabel03252505593D

 34 35  0  0  0  0  0  0  0  0999 V2000
   34.9240   28.9610   36.8060 C   0  0  0  0  0  0  0  0  0  0  0  0
   36.1230   29.4830   36.3360 C   0  0  0  0  0  0  0  0  0  0  0  0
   37.1400   29.6220   37.2750 C   0  0  0  0  0  0  0  0  0  0  0  0
   36.9760   29.2740   38.5470 N   0  0  0  0  0  0  0  0  0  0  0  0
   35.7850   28.7660   38.9620 C   0  0  0  0  0  0  0  0  0  0  0  0
   34.7890   28.6180   38.0980 N   0  0  0  0  0  0  0  0  0  0  0  0
   34.1270   28.8520   36.0780 H   0  0  0  0  0  0  0  0  0  0  0  0
   36.2650   29.8630   34.9060 C   0  0  0  0  0  0  0  0  0  0  0  0
   36.7060   31.1810   34.9560 F   0  0  0  0  0  0  0  0  0  0  0  0
   34.9830   29.8520   34.3630 F   0  0  0  0  0  0  0  0  0  0  0  0
   37.1360   29.0480   34.2840 F   0  0  0  0  0  0  0  0  0  0  0  0
   38.4080   30.1320   36.9280 N   0  0  0  0  0  0  0  0  0  0  0  0
   39.1840   29.9560   36.2710 H   0  0  0  0  0  0  0  0  0  0  0  0
   39.0400   31.4930   37.7760 S   0  0  0  0  0  0  0  0  0  0  0  0
   39.9710   31.0500   38.8810 O   0  0  0  0  0  1  0  0  0  0  0  0
   37.9710   32.3500   38.3890 O   0  0  0  0  0  1  0  0  0  0  0  0
   39.8970   32.4320   36.6530 O   0  0  0  0  0  0  0  0  0  0  0  0
   39.2590   32.9650   36.1150 H   0  0  0  0  0  0  0  0  0  0  0  0
   35.5410   28.3820   40.2710 O   0  0  0  0  0  0  0  0  0  0  0  0
   36.0220   29.1390   41.3490 C   0  0  0  0  0  0  0  0  0  0  0  0
   35.1790   29.4420   42.0000 H   0  0  0  0  0  0  0  0  0  0  0  0
   36.4490   30.0880   40.9330 H   0  0  0  0  0  0  0  0  0  0  0  0
   37.0460   28.3380   42.0250 C   0  0  0  0  0  0  0  0  0  0  0  0
   38.0520   28.7270   42.9150 C   0  0  0  0  0  0  0  0  0  0  0  0
   38.8780   27.7620   43.4000 C   0  0  0  0  0  0  0  0  0  0  0  0
   38.7640   26.4810   43.0640 N   0  0  0  0  0  0  0  0  0  0  0  0
   37.7980   26.1110   42.2120 C   0  0  0  0  0  0  0  0  0  0  0  0
   36.9310   27.0310   41.6850 N   0  0  0  0  0  0  0  0  0  0  0  0
   38.0300   29.7950   43.1000 H   0  0  0  0  0  0  0  0  0  0  0  0
   39.6400   28.1300   44.0870 H   0  0  0  0  0  0  0  0  0  0  0  0
   37.7500   24.6560   41.8950 C   0  0  0  0  0  0  0  0  0  0  0  0
   38.3810   24.3920   40.7070 F   0  0  0  0  0  0  0  0  0  0  0  0
   36.4260   24.2270   41.8410 F   0  0  0  0  0  0  0  0  0  0  0  0
   38.3910   23.9130   42.8800 F   0  0  0  0  0  0  0  0  0  0  0  0
  1  6  1  0  0  0  0
  2  1  2  0  0  0  0
  2  3  1  0  0  0  0
  3  4  2  0  0  0  0
  4  5  1  0  0  0  0
  5 19  1  0  0  0  0
  6  5  2  0  0  0  0
  7  1  1  0  0  0  0
  8  9  1  0  0  0  0
  8  2  1  0  0  0  0
 10  8  1  0  0  0  0
 11  8  1  0  0  0  0
 12  3  1  0  0  0  0
 12 14  1  0  0  0  0
 13 12  1  0  0  0  0
 14 16  1  0  0  0  0
 14 15  1  0  0  0  0
 17 14  1  0  0  0  0
 18 17  1  0  0  0  0
 19 20  1  0  0  0  0
 20 21  1  0  0  0  0
 20 23  1  0  0  0  0
 22 20  1  0  0  0  0
 23 24  1  0  0  0  0
 24 29  1  0  0  0  0
 24 25  2  0  0  0  0
 25 30  1  0  0  0  0
 26 25  1  0  0  0  0
 27 26  2  0  0  0  0
 28 23  2  0  0  0  0
 28 27  1  0  0  0  0
 31 27  1  0  0  0  0
 31 34  1  0  0  0  0
 32 31  1  0  0  0  0
 33 31  1  0  0  0  0
M  END
>  <minimizedAffinity>
-5.73881102

$$$$

 OpenBabel03252505593D

 34 35  0  0  0  0  0  0  0  0999 V2000
   36.5880   29.6420   39.0630 C   0  0  0  0  0  0  0  0  0  0  0  0
   37.3290   30.8150   39.1420 C   0  0  0  0  0  0  0  0  0  0  0  0
   37.8160   31.1480   40.4010 C   0  0  0  0  0  0  0  0  0  0  0  0
   37.5870   30.3900   41.4680 N   0  0  0  0  0  0  0  0  0  0  0  0
   36.8560   29.2490   41.3440 C   0  0  0  0  0  0  0  0  0  0  0  0
   36.3730   28.8960   40.1600 N   0  0  0  0  0  0  0  0  0  0  0  0
   36.2050   29.3790   38.0840 H   0  0  0  0  0  0  0  0  0  0  0  0
   37.5600   31.6370   37.9260 C   0  0  0  0  0  0  0  0  0  0  0  0
   36.9570   30.9030   36.9110 F   0  0  0  0  0  0  0  0  0  0  0  0
   38.9350   31.6390   37.7040 F   0  0  0  0  0  0  0  0  0  0  0  0
   37.0220   32.8610   38.0710 F   0  0  0  0  0  0  0  0  0  0  0  0
   38.5900   32.3080   40.6170 N   0  0  0  0  0  0  0  0  0  0  0  0
   38.4940   33.3350   40.6440 H   0  0  0  0  0  0  0  0  0  0  0  0
   40.2730   32.1580   40.9540 S   0  0  0  0  0  0  0  0  0  0  0  0
   40.9750   33.4840   40.7740 O   0  0  0  0  0  1  0  0  0  0  0  0
   40.9600   31.1500   40.0780 O   0  0  0  0  0  1  0  0  0  0  0  0
   40.4210   31.6500   42.5660 O   0  0  0  0  0  0  0  0  0  0  0  0
   40.2430   30.6780   42.6220 H   0  0  0  0  0  0  0  0  0  0  0  0
   36.5770   28.4100   42.4110 O   0  0  0  0  0  0  0  0  0  0  0  0
   37.4930   28.2430   43.4600 C   0  0  0  0  0  0  0  0  0  0  0  0
   36.9570   28.2530   44.4290 H   0  0  0  0  0  0  0  0  0  0  0  0
   38.1640   29.1410   43.4690 H   0  0  0  0  0  0  0  0  0  0  0  0
   38.2410   27.0120   43.1990 C   0  0  0  0  0  0  0  0  0  0  0  0
   39.4860   26.5940   43.6800 C   0  0  0  0  0  0  0  0  0  0  0  0
   39.9530   25.3850   43.2690 C   0  0  0  0  0  0  0  0  0  0  0  0
   39.2770   24.5970   42.4390 N   0  0  0  0  0  0  0  0  0  0  0  0
   38.0840   24.9990   41.9800 C   0  0  0  0  0  0  0  0  0  0  0  0
   37.5540   26.2050   42.3530 N   0  0  0  0  0  0  0  0  0  0  0  0
   39.9240   27.3310   44.3440 H   0  0  0  0  0  0  0  0  0  0  0  0
   40.9270   25.1200   43.6790 H   0  0  0  0  0  0  0  0  0  0  0  0
   37.4030   24.0490   41.0560 C   0  0  0  0  0  0  0  0  0  0  0  0
   37.5650   24.4360   39.7500 F   0  0  0  0  0  0  0  0  0  0  0  0
   36.0480   23.9720   41.3690 F   0  0  0  0  0  0  0  0  0  0  0  0
   37.9350   22.7710   41.1800 F   0  0  0  0  0  0  0  0  0  0  0  0
  1  2  2  0  0  0  0
  1  6  1  0  0  0  0
  2  3  1  0  0  0  0
  3 12  1  0  0  0  0
  3  4  2  0  0  0  0
  5  4  1  0  0  0  0
  5 19  1  0  0  0  0
  6  5  2  0  0  0  0
  7  1  1  0  0  0  0
  8 11  1  0  0  0  0
  8  2  1  0  0  0  0
  9  8  1  0  0  0  0
 10  8  1  0  0  0  0
 12 13  1  0  0  0  0
 12 14  1  0  0  0  0
 14 17  1  0  0  0  0
 15 14  1  0  0  0  0
 16 14  1  0  0  0  0
 17 18  1  0  0  0  0
 19 20  1  0  0  0  0
 20 22  1  0  0  0  0
 20 21  1  0  0  0  0
 23 20  1  0  0  0  0
 23 24  1  0  0  0  0
 24 29  1  0  0  0  0
 25 30  1  0  0  0  0
 25 24  2  0  0  0  0
 26 25  1  0  0  0  0
 27 28  1  0  0  0  0
 27 26  2  0  0  0  0
 28 23  2  0  0  0  0
 31 34  1  0  0  0  0
 31 33  1  0  0  0  0
 31 27  1  0  0  0  0
 32 31  1  0  0  0  0
M  END
>  <minimizedAffinity>
-5.66286755

$$$$

 OpenBabel03252505593D

 34 35  0  0  0  0  0  0  0  0999 V2000
   36.6000   31.1900   40.1710 C   0  0  0  0  0  0  0  0  0  0  0  0
   37.7570   31.9190   40.4180 C   0  0  0  0  0  0  0  0  0  0  0  0
   38.5780   31.4370   41.4330 C   0  0  0  0  0  0  0  0  0  0  0  0
   38.2740   30.3450   42.1260 N   0  0  0  0  0  0  0  0  0  0  0  0
   37.1300   29.6630   41.8490 C   0  0  0  0  0  0  0  0  0  0  0  0
   36.3200   30.0890   40.8880 N   0  0  0  0  0  0  0  0  0  0  0  0
   35.9560   31.5620   39.3810 H   0  0  0  0  0  0  0  0  0  0  0  0
   38.0600   33.1360   39.6230 C   0  0  0  0  0  0  0  0  0  0  0  0
   38.1170   34.1480   40.5760 F   0  0  0  0  0  0  0  0  0  0  0  0
   36.9530   33.3650   38.8100 F   0  0  0  0  0  0  0  0  0  0  0  0
   39.2170   32.9890   38.9530 F   0  0  0  0  0  0  0  0  0  0  0  0
   39.7860   32.0780   41.7800 N   0  0  0  0  0  0  0  0  0  0  0  0
   40.1300   32.9610   42.1860 H   0  0  0  0  0  0  0  0  0  0  0  0
   41.2850   31.2760   41.4990 S   0  0  0  0  0  0  0  0  0  0  0  0
   42.4120   31.9810   42.2180 O   0  0  0  0  0  1  0  0  0  0  0  0
   41.6450   31.1950   40.0440 O   0  0  0  0  0  1  0  0  0  0  0  0
   41.1300   29.6950   42.0980 O   0  0  0  0  0  0  0  0  0  0  0  0
   40.6250   29.1460   41.4480 H   0  0  0  0  0  0  0  0  0  0  0  0
   36.7480   28.5180   42.5290 O   0  0  0  0  0  0  0  0  0  0  0  0
   37.4350   28.0930   43.6750 C   0  0  0  0  0  0  0  0  0  0  0  0
   36.7160   27.9180   44.4990 H   0  0  0  0  0  0  0  0  0  0  0  0
   38.0900   28.9390   44.0090 H   0  0  0  0  0  0  0  0  0  0  0  0
   38.2220   26.9150   43.3040 C   0  0  0  0  0  0  0  0  0  0  0  0
   39.5160   26.5400   43.6790 C   0  0  0  0  0  0  0  0  0  0  0  0
   40.0100   25.3760   43.1790 C   0  0  0  0  0  0  0  0  0  0  0  0
   39.3170   24.5940   42.3590 N   0  0  0  0  0  0  0  0  0  0  0  0
   38.0770   24.9550   42.0010 C   0  0  0  0  0  0  0  0  0  0  0  0
   37.5170   26.1140   42.4670 N   0  0  0  0  0  0  0  0  0  0  0  0
   39.9630   27.2670   44.3480 H   0  0  0  0  0  0  0  0  0  0  0  0
   41.0220   25.1420   43.5100 H   0  0  0  0  0  0  0  0  0  0  0  0
   37.3810   24.0150   41.0780 C   0  0  0  0  0  0  0  0  0  0  0  0
   36.0280   24.0210   41.3010 F   0  0  0  0  0  0  0  0  0  0  0  0
   37.8880   22.7270   41.2420 F   0  0  0  0  0  0  0  0  0  0  0  0
   37.5850   24.3790   39.7520 F   0  0  0  0  0  0  0  0  0  0  0  0
  1  2  2  0  0  0  0
  1  6  1  0  0  0  0
  2  3  1  0  0  0  0
  3 12  1  0  0  0  0
  3  4  2  0  0  0  0
  5  4  1  0  0  0  0
  5 19  1  0  0  0  0
  6  5  2  0  0  0  0
  7  1  1  0  0  0  0
  8  2  1  0  0  0  0
  8  9  1  0  0  0  0
 10  8  1  0  0  0  0
 11  8  1  0  0  0  0
 12 13  1  0  0  0  0
 14 12  1  0  0  0  0
 14 17  1  0  0  0  0
 14 15  1  0  0  0  0
 16 14  1  0  0  0  0
 18 17  1  0  0  0  0
 19 20  1  0  0  0  0
 20 22  1  0  0  0  0
 20 21  1  0  0  0  0
 23 20  1  0  0  0  0
 23 24  1  0  0  0  0
 24 29  1  0  0  0  0
 25 30  1  0  0  0  0
 25 24  2  0  0  0  0
 26 25  1  0  0  0  0
 27 26  2  0  0  0  0
 27 28  1  0  0  0  0
 28 23  2  0  0  0  0
 31 33  1  0  0  0  0
 31 32  1  0  0  0  0
 31 27  1  0  0  0  0
 34 31  1  0  0  0  0
M  END
>  <minimizedAffinity>
-5.66108751

$$$$

 OpenBabel03252505593D

 34 35  0  0  0  0  0  0  0  0999 V2000
   36.5280   30.5540   38.3690 C   0  0  0  0  0  0  0  0  0  0  0  0
   36.0560   29.5290   39.1800 C   0  0  0  0  0  0  0  0  0  0  0  0
   36.1950   29.7200   40.5510 C   0  0  0  0  0  0  0  0  0  0  0  0
   36.7470   30.8180   41.0570 N   0  0  0  0  0  0  0  0  0  0  0  0
   37.1940   31.7970   40.2240 C   0  0  0  0  0  0  0  0  0  0  0  0
   37.0800   31.6540   38.9100 N   0  0  0  0  0  0  0  0  0  0  0  0
   36.4220   30.4100   37.3000 H   0  0  0  0  0  0  0  0  0  0  0  0
   35.4480   28.3150   38.5760 C   0  0  0  0  0  0  0  0  0  0  0  0
   35.8590   28.3670   37.2480 F   0  0  0  0  0  0  0  0  0  0  0  0
   34.0690   28.5020   38.6130 F   0  0  0  0  0  0  0  0  0  0  0  0
   35.8740   27.2070   39.2080 F   0  0  0  0  0  0  0  0  0  0  0  0
   35.7510   28.7600   41.4840 N   0  0  0  0  0  0  0  0  0  0  0  0
   34.8920   28.2660   41.7700 H   0  0  0  0  0  0  0  0  0  0  0  0
   36.8710   28.0800   42.6040 S   0  0  0  0  0  0  0  0  0  0  0  0
   38.0830   27.5350   41.8850 O   0  0  0  0  0  1  0  0  0  0  0  0
   36.2810   26.9680   43.4220 O   0  0  0  0  0  1  0  0  0  0  0  0
   37.3460   29.3220   43.6590 O   0  0  0  0  0  0  0  0  0  0  0  0
   36.6380   29.4670   44.3350 H   0  0  0  0  0  0  0  0  0  0  0  0
   37.7790   32.9680   40.6790 O   0  0  0  0  0  0  0  0  0  0  0  0
   38.6420   33.7100   39.8600 C   0  0  0  0  0  0  0  0  0  0  0  0
   38.6080   34.7780   40.1520 H   0  0  0  0  0  0  0  0  0  0  0  0
   38.2430   33.6620   38.8140 H   0  0  0  0  0  0  0  0  0  0  0  0
   39.9720   33.1030   39.9590 C   0  0  0  0  0  0  0  0  0  0  0  0
   40.5710   32.4110   41.0160 C   0  0  0  0  0  0  0  0  0  0  0  0
   41.8360   31.9470   40.8360 C   0  0  0  0  0  0  0  0  0  0  0  0
   42.5130   32.1250   39.7060 N   0  0  0  0  0  0  0  0  0  0  0  0
   41.9370   32.7880   38.6950 C   0  0  0  0  0  0  0  0  0  0  0  0
   40.6650   33.2820   38.8080 N   0  0  0  0  0  0  0  0  0  0  0  0
   39.9090   32.3400   41.8720 H   0  0  0  0  0  0  0  0  0  0  0  0
   42.2440   31.4180   41.6960 H   0  0  0  0  0  0  0  0  0  0  0  0
   42.7750   32.9380   37.4710 C   0  0  0  0  0  0  0  0  0  0  0  0
   42.5660   34.1580   36.8810 F   0  0  0  0  0  0  0  0  0  0  0  0
   42.4850   31.9140   36.5710 F   0  0  0  0  0  0  0  0  0  0  0  0
   44.1260   32.8510   37.7820 F   0  0  0  0  0  0  0  0  0  0  0  0
  1  6  2  0  0  0  0
  1  2  1  0  0  0  0
  2  3  2  0  0  0  0
  3  4  1  0  0  0  0
  3 12  1  0  0  0  0
  5 19  1  0  0  0  0
  5  4  2  0  0  0  0
  6  5  1  0  0  0  0
  7  1  1  0  0  0  0
  8 10  1  0  0  0  0
  8  2  1  0  0  0  0
  8 11  1  0  0  0  0
  9  8  1  0  0  0  0
 12 13  1  0  0  0  0
 12 14  1  0  0  0  0
 14 16  1  0  0  0  0
 14 17  1  0  0  0  0
 15 14  1  0  0  0  0
 17 18  1  0  0  0  0
 20 23  1  0  0  0  0
 20 21  1  0  0  0  0
 20 19  1  0  0  0  0
 22 20  1  0  0  0  0
 23 24  1  0  0  0  0
 24 29  1  0  0  0  0
 25 24  2  0  0  0  0
 25 30  1  0  0  0  0
 26 25  1  0  0  0  0
 27 28  1  0  0  0  0
 27 26  2  0  0  0  0
 28 23  2  0  0  0  0
 31 34  1  0  0  0  0
 31 27  1  0  0  0  0
 32 31  1  0  0  0  0
 33 31  1  0  0  0  0
M  END
>  <minimizedAffinity>
-5.60608673

$$$$

 OpenBabel03252505593D

 34 35  0  0  0  0  0  0  0  0999 V2000
   39.4500   26.5270   42.7750 C   0  0  0  0  0  0  0  0  0  0  0  0
   38.2860   27.2830   42.7050 C   0  0  0  0  0  0  0  0  0  0  0  0
   38.4520   28.6640   42.7130 C   0  0  0  0  0  0  0  0  0  0  0  0
   39.6530   29.2280   42.7820 N   0  0  0  0  0  0  0  0  0  0  0  0
   40.7650   28.4480   42.8480 C   0  0  0  0  0  0  0  0  0  0  0  0
   40.6510   27.1270   42.8440 N   0  0  0  0  0  0  0  0  0  0  0  0
   39.3260   25.4490   42.7700 H   0  0  0  0  0  0  0  0  0  0  0  0
   36.9610   26.6130   42.6320 C   0  0  0  0  0  0  0  0  0  0  0  0
   36.4230   27.0760   41.4360 F   0  0  0  0  0  0  0  0  0  0  0  0
   36.1990   27.1250   43.6790 F   0  0  0  0  0  0  0  0  0  0  0  0
   37.1040   25.2760   42.6530 F   0  0  0  0  0  0  0  0  0  0  0  0
   37.3530   29.5450   42.6390 N   0  0  0  0  0  0  0  0  0  0  0  0
   36.5480   29.8630   43.2010 H   0  0  0  0  0  0  0  0  0  0  0  0
   37.1070   30.4810   41.2130 S   0  0  0  0  0  0  0  0  0  0  0  0
   37.2360   29.6190   39.9780 O   0  0  0  0  0  1  0  0  0  0  0  0
   38.0770   31.6200   41.0840 O   0  0  0  0  0  1  0  0  0  0  0  0
   35.5390   31.1240   41.2970 O   0  0  0  0  0  0  0  0  0  0  0  0
   35.5370   31.9050   41.9050 H   0  0  0  0  0  0  0  0  0  0  0  0
   42.0490   28.9660   42.9220 O   0  0  0  0  0  0  0  0  0  0  0  0
   42.7860   29.2410   41.7620 C   0  0  0  0  0  0  0  0  0  0  0  0
   42.7360   28.3750   41.0730 H   0  0  0  0  0  0  0  0  0  0  0  0
   43.8620   29.3380   42.0590 H   0  0  0  0  0  0  0  0  0  0  0  0
   42.2670   30.4890   41.1970 C   0  0  0  0  0  0  0  0  0  0  0  0
   42.2720   31.7860   41.7200 C   0  0  0  0  0  0  0  0  0  0  0  0
   41.7130   32.7740   40.9720 C   0  0  0  0  0  0  0  0  0  0  0  0
   41.1710   32.5540   39.7790 N   0  0  0  0  0  0  0  0  0  0  0  0
   41.1680   31.3110   39.2800 C   0  0  0  0  0  0  0  0  0  0  0  0
   41.7140   30.2680   39.9790 N   0  0  0  0  0  0  0  0  0  0  0  0
   42.7430   31.8200   42.6960 H   0  0  0  0  0  0  0  0  0  0  0  0
   41.7490   33.7590   41.4360 H   0  0  0  0  0  0  0  0  0  0  0  0
   40.5380   31.1640   37.9370 C   0  0  0  0  0  0  0  0  0  0  0  0
   39.1700   31.1950   38.0320 F   0  0  0  0  0  0  0  0  0  0  0  0
   40.9510   29.9710   37.3480 F   0  0  0  0  0  0  0  0  0  0  0  0
   40.9200   32.2010   37.0940 F   0  0  0  0  0  0  0  0  0  0  0  0
  1  6  1  0  0  0  0
  2  3  1  0  0  0  0
  2  1  2  0  0  0  0
  3  4  2  0  0  0  0
  4  5  1  0  0  0  0
  5 19  1  0  0  0  0
  6  5  2  0  0  0  0
  7  1  1  0  0  0  0
  8 11  1  0  0  0  0
  8  2  1  0  0  0  0
  8 10  1  0  0  0  0
  9  8  1  0  0  0  0
 12  3  1  0  0  0  0
 12 13  1  0  0  0  0
 14 17  1  0  0  0  0
 14 12  1  0  0  0  0
 15 14  1  0  0  0  0
 16 14  1  0  0  0  0
 17 18  1  0  0  0  0
 20 22  1  0  0  0  0
 20 19  1  0  0  0  0
 21 20  1  0  0  0  0
 23 24  1  0  0  0  0
 23 20  1  0  0  0  0
 24 29  1  0  0  0  0
 25 30  1  0  0  0  0
 25 24  2  0  0  0  0
 26 25  1  0  0  0  0
 27 26  2  0  0  0  0
 27 28  1  0  0  0  0
 28 23  2  0  0  0  0
 31 32  1  0  0  0  0
 31 27  1  0  0  0  0
 33 31  1  0  0  0  0
 34 31  1  0  0  0  0
M  END
>  <minimizedAffinity>
-5.49454165

$$$$

 OpenBabel03252505593D

 34 35  0  0  0  0  0  0  0  0999 V2000
   39.0450   26.6530   43.1660 C   0  0  0  0  0  0  0  0  0  0  0  0
   38.0930   26.2430   42.2400 C   0  0  0  0  0  0  0  0  0  0  0  0
   37.4800   27.2520   41.5050 C   0  0  0  0  0  0  0  0  0  0  0  0
   37.7850   28.5340   41.6770 N   0  0  0  0  0  0  0  0  0  0  0  0
   38.7240   28.8890   42.5950 C   0  0  0  0  0  0  0  0  0  0  0  0
   39.3330   27.9570   43.3170 N   0  0  0  0  0  0  0  0  0  0  0  0
   39.5260   25.8700   43.7420 H   0  0  0  0  0  0  0  0  0  0  0  0
   37.7780   24.8000   42.0790 C   0  0  0  0  0  0  0  0  0  0  0  0
   38.6590   24.1700   42.9520 F   0  0  0  0  0  0  0  0  0  0  0  0
   38.1360   24.4580   40.7780 F   0  0  0  0  0  0  0  0  0  0  0  0
   36.4900   24.5600   42.3800 F   0  0  0  0  0  0  0  0  0  0  0  0
   36.5020   26.9710   40.5280 N   0  0  0  0  0  0  0  0  0  0  0  0
   35.5710   26.5360   40.4350 H   0  0  0  0  0  0  0  0  0  0  0  0
   36.7830   27.4250   38.8890 S   0  0  0  0  0  0  0  0  0  0  0  0
   35.4850   27.4600   38.1140 O   0  0  0  0  0  1  0  0  0  0  0  0
   37.7220   26.4970   38.1750 O   0  0  0  0  0  1  0  0  0  0  0  0
   37.4760   28.9740   38.9070 O   0  0  0  0  0  0  0  0  0  0  0  0
   38.4370   28.9000   39.1330 H   0  0  0  0  0  0  0  0  0  0  0  0
   39.0940   30.2040   42.8290 O   0  0  0  0  0  0  0  0  0  0  0  0
   40.3900   30.6530   42.5420 C   0  0  0  0  0  0  0  0  0  0  0  0
   41.0330   29.7930   42.2700 H   0  0  0  0  0  0  0  0  0  0  0  0
   40.8210   31.0740   43.4870 H   0  0  0  0  0  0  0  0  0  0  0  0
   40.2810   31.6750   41.4980 C   0  0  0  0  0  0  0  0  0  0  0  0
   41.2410   32.5600   40.9980 C   0  0  0  0  0  0  0  0  0  0  0  0
   40.8620   33.4170   40.0130 C   0  0  0  0  0  0  0  0  0  0  0  0
   39.6300   33.4430   39.5160 N   0  0  0  0  0  0  0  0  0  0  0  0
   38.7130   32.5930   39.9960 C   0  0  0  0  0  0  0  0  0  0  0  0
   39.0250   31.7030   40.9880 N   0  0  0  0  0  0  0  0  0  0  0  0
   42.1970   32.4310   41.4930 H   0  0  0  0  0  0  0  0  0  0  0  0
   41.6560   34.0800   39.6690 H   0  0  0  0  0  0  0  0  0  0  0  0
   37.3610   32.6980   39.3760 C   0  0  0  0  0  0  0  0  0  0  0  0
   37.3930   32.3070   38.0620 F   0  0  0  0  0  0  0  0  0  0  0  0
   36.8950   34.0070   39.4760 F   0  0  0  0  0  0  0  0  0  0  0  0
   36.4510   31.8780   40.0320 F   0  0  0  0  0  0  0  0  0  0  0  0
  1  6  1  0  0  0  0
  1  7  1  0  0  0  0
  2  1  2  0  0  0  0
  3  4  2  0  0  0  0
  3  2  1  0  0  0  0
  4  5  1  0  0  0  0
  5 19  1  0  0  0  0
  5  6  2  0  0  0  0
  8  2  1  0  0  0  0
  8 11  1  0  0  0  0
  8  9  1  0  0  0  0
 10  8  1  0  0  0  0
 12  3  1  0  0  0  0
 13 12  1  0  0  0  0
 14 17  1  0  0  0  0
 14 12  1  0  0  0  0
 15 14  1  0  0  0  0
 16 14  1  0  0  0  0
 17 18  1  0  0  0  0
 20 19  1  0  0  0  0
 20 22  1  0  0  0  0
 21 20  1  0  0  0  0
 23 20  1  0  0  0  0
 24 29  1  0  0  0  0
 24 23  1  0  0  0  0
 25 24  2  0  0  0  0
 26 27  2  0  0  0  0
 26 25  1  0  0  0  0
 27 28  1  0  0  0  0
 28 23  2  0  0  0  0
 30 25  1  0  0  0  0
 31 33  1  0  0  0  0
 31 27  1  0  0  0  0
 31 34  1  0  0  0  0
 32 31  1  0  0  0  0
M  END
>  <minimizedAffinity>
-5.48416233

$$$$

 OpenBabel03252505593D

 34 35  0  0  0  0  0  0  0  0999 V2000
   36.6850   30.9690   38.3750 C   0  0  0  0  0  0  0  0  0  0  0  0
   36.1870   30.1660   39.3930 C   0  0  0  0  0  0  0  0  0  0  0  0
   36.6600   30.4360   40.6730 C   0  0  0  0  0  0  0  0  0  0  0  0
   37.5380   31.4050   40.9090 N   0  0  0  0  0  0  0  0  0  0  0  0
   37.9990   32.1670   39.8810 C   0  0  0  0  0  0  0  0  0  0  0  0
   37.5720   31.9420   38.6450 N   0  0  0  0  0  0  0  0  0  0  0  0
   36.3200   30.7620   37.3750 H   0  0  0  0  0  0  0  0  0  0  0  0
   35.2080   29.0900   39.0880 C   0  0  0  0  0  0  0  0  0  0  0  0
   34.1590   29.3390   39.9650 F   0  0  0  0  0  0  0  0  0  0  0  0
   35.8100   27.8900   39.4570 F   0  0  0  0  0  0  0  0  0  0  0  0
   34.8300   29.1460   37.7980 F   0  0  0  0  0  0  0  0  0  0  0  0
   36.2290   29.7000   41.7960 N   0  0  0  0  0  0  0  0  0  0  0  0
   35.3870   29.5510   42.3750 H   0  0  0  0  0  0  0  0  0  0  0  0
   37.3350   28.6560   42.6060 S   0  0  0  0  0  0  0  0  0  0  0  0
   38.0650   27.7780   41.6160 O   0  0  0  0  0  1  0  0  0  0  0  0
   36.6700   27.7630   43.6130 O   0  0  0  0  0  1  0  0  0  0  0  0
   38.4500   29.6400   43.4240 O   0  0  0  0  0  0  0  0  0  0  0  0
   38.0380   29.9800   44.2570 H   0  0  0  0  0  0  0  0  0  0  0  0
   38.9140   33.1940   40.0510 O   0  0  0  0  0  0  0  0  0  0  0  0
   40.2320   32.9310   40.4490 C   0  0  0  0  0  0  0  0  0  0  0  0
   40.2790   31.9480   40.9580 H   0  0  0  0  0  0  0  0  0  0  0  0
   40.5110   33.6930   41.2220 H   0  0  0  0  0  0  0  0  0  0  0  0
   41.0800   33.0320   39.2590 C   0  0  0  0  0  0  0  0  0  0  0  0
   41.5690   34.1610   38.5950 C   0  0  0  0  0  0  0  0  0  0  0  0
   42.3470   33.9640   37.4970 C   0  0  0  0  0  0  0  0  0  0  0  0
   42.6530   32.7550   37.0400 N   0  0  0  0  0  0  0  0  0  0  0  0
   42.1840   31.6750   37.6790 C   0  0  0  0  0  0  0  0  0  0  0  0
   41.3950   31.7990   38.7910 N   0  0  0  0  0  0  0  0  0  0  0  0
   41.2420   35.0780   39.0720 H   0  0  0  0  0  0  0  0  0  0  0  0
   42.6950   34.8830   37.0260 H   0  0  0  0  0  0  0  0  0  0  0  0
   42.5810   30.3640   37.0920 C   0  0  0  0  0  0  0  0  0  0  0  0
   43.4630   30.5380   36.0560 F   0  0  0  0  0  0  0  0  0  0  0  0
   41.4500   29.6810   36.6490 F   0  0  0  0  0  0  0  0  0  0  0  0
   43.2070   29.5650   38.0410 F   0  0  0  0  0  0  0  0  0  0  0  0
  1  6  2  0  0  0  0
  1  2  1  0  0  0  0
  2  3  2  0  0  0  0
  3  4  1  0  0  0  0
  3 12  1  0  0  0  0
  5 19  1  0  0  0  0
  5  4  2  0  0  0  0
  6  5  1  0  0  0  0
  7  1  1  0  0  0  0
  8  2  1  0  0  0  0
  8 10  1  0  0  0  0
  8  9  1  0  0  0  0
 11  8  1  0  0  0  0
 12 13  1  0  0  0  0
 12 14  1  0  0  0  0
 14 17  1  0  0  0  0
 14 16  1  0  0  0  0
 15 14  1  0  0  0  0
 17 18  1  0  0  0  0
 19 20  1  0  0  0  0
 20 21  1  0  0  0  0
 20 22  1  0  0  0  0
 23 20  1  0  0  0  0
 24 29  1  0  0  0  0
 24 23  2  0  0  0  0
 25 24  1  0  0  0  0
 26 25  2  0  0  0  0
 26 27  1  0  0  0  0
 27 28  2  0  0  0  0
 28 23  1  0  0  0  0
 30 25  1  0  0  0  0
 31 27  1  0  0  0  0
 31 34  1  0  0  0  0
 32 31  1  0  0  0  0
 33 31  1  0  0  0  0
M  END
>  <minimizedAffinity>
-5.38760948

$$$$
