
 OpenBabel03252503423D

 32 33  0  0  1  0  0  0  0  0999 V2000
   44.8270   35.1660   45.1680 C   0  0  0  0  0  0  0  0  0  0  0  0
   45.1340   34.7770   43.8560 C   0  0  0  0  0  0  0  0  0  0  0  0
   45.6620   33.4880   43.6680 C   0  0  0  0  0  0  0  0  0  0  0  0
   45.8450   32.6950   44.7410 N   0  0  0  0  0  0  0  0  0  0  0  0
   45.5430   33.0910   45.9850 C   0  0  0  0  0  0  0  0  0  0  0  0
   45.0300   34.3310   46.2250 N   0  0  0  0  0  0  0  0  0  0  0  0
   44.4180   36.1190   45.4750 H   0  0  0  0  0  0  0  0  0  0  0  0
   45.8930   33.2030   42.6510 H   0  0  0  0  0  0  0  0  0  0  0  0
   47.2640   32.0730   47.4790 C   0  0  2  0  0  0  0  0  0  0  0  0
   45.7770   32.1290   47.0600 C   0  0  1  0  0  0  0  0  0  0  0  0
   45.2030   32.4460   48.2590 O   0  0  0  0  0  0  0  0  0  0  0  0
   45.7780   31.6550   49.2130 C   0  0  0  0  0  0  0  0  0  0  0  0
   47.0810   31.1150   48.6720 C   0  0  2  0  0  0  0  0  0  0  0  0
   47.8800   31.6360   46.7020 H   0  0  0  0  0  0  0  0  0  0  0  0
   45.4630   31.1300   46.7250 H   0  0  0  0  0  0  0  0  0  0  0  0
   46.0690   32.3380   50.0630 H   0  0  0  0  0  0  0  0  0  0  0  0
   45.0980   30.8700   49.5850 H   0  0  0  0  0  0  0  0  0  0  0  0
   46.8900   30.0820   48.3190 H   0  0  0  0  0  0  0  0  0  0  0  0
   47.6280   33.2740   47.9920 O   0  0  0  0  0  0  0  0  0  0  0  0
   48.6080   33.2790   48.1510 H   0  0  0  0  0  0  0  0  0  0  0  0
   48.1400   31.1960   49.5580 O   0  0  0  0  0  0  0  0  0  0  0  0
   48.0500   30.4440   50.1720 H   0  0  0  0  0  0  0  0  0  0  0  0
   44.8780   35.7520   42.7930 C   0  0  0  0  0  0  0  0  0  0  0  0
   44.0470   36.4490   43.0860 H   0  0  0  0  0  0  0  0  0  0  0  0
   45.7640   36.4220   42.6780 H   0  0  0  0  0  0  0  0  0  0  0  0
   44.4970   35.1320   41.5640 N   0  0  0  0  0  0  0  0  0  0  0  0
   44.9790   35.4360   40.7170 H   0  0  0  0  0  0  0  0  0  0  0  0
   42.8030   34.9040   41.4250 S   0  0  0  0  0  0  0  0  0  0  0  0
   42.5400   33.4310   41.5670 O   0  0  0  0  0  0  0  0  0  0  0  0
   42.3010   35.4350   40.1210 O   0  0  0  0  0  0  0  0  0  0  0  0
   41.9700   35.6890   42.6610 O   0  0  0  0  0  0  0  0  0  0  0  0
   42.5250   35.8250   43.4750 H   0  0  0  0  0  0  0  0  0  0  0  0
  1  7  1  0  0  0  0
  1  6  1  0  0  0  0
  2  1  2  0  0  0  0
  3  2  1  0  0  0  0
  3  4  2  0  0  0  0
  4  5  1  0  0  0  0
  5  6  2  0  0  0  0
  5 10  1  0  0  0  0
  8  3  1  0  0  0  0
  9 14  1  6  0  0  0
  9 19  1  0  0  0  0
  9 13  1  0  0  0  0
 10 15  1  6  0  0  0
 10  9  1  0  0  0  0
 10 11  1  0  0  0  0
 11 12  1  0  0  0  0
 12 17  1  0  0  0  0
 12 16  1  0  0  0  0
 13 18  1  6  0  0  0
 13 12  1  0  0  0  0
 13 21  1  0  0  0  0
 19 20  1  0  0  0  0
 21 22  1  0  0  0  0
 23 24  1  0  0  0  0
 23  2  1  0  0  0  0
 25 23  1  0  0  0  0
 26 23  1  0  0  0  0
 27 26  1  0  0  0  0
 28 26  1  0  0  0  0
 28 29  1  0  0  0  0
 28 31  1  0  0  0  0
 30 28  1  0  0  0  0
 31 32  1  0  0  0  0
M  END
>  <minimizedAffinity>
-5.82590389

>  <minimizedRMSD>
3.0315764

$$$$
