
 OpenBabel03252508423D

 29 30  0  0  0  0  0  0  0  0999 V2000
   44.2520   33.2430   42.8500 C   0  0  0  0  0  0  0  0  0  0  0  0
   45.6310   33.2630   43.0230 C   0  0  0  0  0  0  0  0  0  0  0  0
   46.2540   34.4790   43.2210 C   0  0  0  0  0  0  0  0  0  0  0  0
   45.5190   35.6280   43.2440 C   0  0  0  0  0  0  0  0  0  0  0  0
   44.1650   35.6450   43.0770 C   0  0  0  0  0  0  0  0  0  0  0  0
   43.5760   34.4020   42.8810 C   0  0  0  0  0  0  0  0  0  0  0  0
   47.3220   34.5630   43.3610 H   0  0  0  0  0  0  0  0  0  0  0  0
   46.0060   36.5880   43.4000 H   0  0  0  0  0  0  0  0  0  0  0  0
   43.5090   36.5050   43.0820 H   0  0  0  0  0  0  0  0  0  0  0  0
   42.4980   34.2990   42.7370 H   0  0  0  0  0  0  0  0  0  0  0  0
   42.3800   29.9970   43.3020 C   0  0  0  0  0  0  0  0  0  0  0  0
   42.9240   31.2600   43.6100 C   0  0  0  0  0  0  0  0  0  0  0  0
   43.6440   31.9350   42.6430 C   0  0  0  0  0  0  0  0  0  0  0  0
   43.7880   31.3340   41.4360 N   0  0  0  0  0  0  0  0  0  0  0  0
   43.2620   30.1210   41.1500 C   0  0  0  0  0  0  0  0  0  0  0  0
   42.5600   29.4570   42.0830 N   0  0  0  0  0  0  0  0  0  0  0  0
   41.8480   29.6010   44.1560 H   0  0  0  0  0  0  0  0  0  0  0  0
   42.8410   31.7780   44.5450 H   0  0  0  0  0  0  0  0  0  0  0  0
   43.3830   29.6550   40.1850 H   0  0  0  0  0  0  0  0  0  0  0  0
   46.4120   31.9940   42.9940 C   0  0  0  0  0  0  0  0  0  0  0  0
   47.4450   32.2710   43.3240 H   0  0  0  0  0  0  0  0  0  0  0  0
   46.4710   31.6290   41.9690 H   0  0  0  0  0  0  0  0  0  0  0  0
   45.9390   30.9910   43.9030 N   0  0  0  0  0  0  0  0  0  0  0  0
   45.6550   31.3250   44.8190 H   0  0  0  0  0  0  0  0  0  0  0  0
   46.9620   29.6070   43.9450 S   0  0  0  0  0  0  0  0  0  0  0  0
   48.3990   30.0120   44.1060 O   0  0  0  0  0  1  0  0  0  0  0  0
   46.7900   28.7540   42.7460 O   0  0  0  0  0  1  0  0  0  0  0  0
   46.5040   28.7290   45.3180 O   0  0  0  0  0  0  0  0  0  0  0  0
   46.4850   29.3080   46.1230 H   0  0  0  0  0  0  0  0  0  0  0  0
  1  6  2  0  0  0  0
  1  2  1  0  0  0  0
  2  3  2  0  0  0  0
  3  4  1  0  0  0  0
  3  7  1  0  0  0  0
  4  8  1  0  0  0  0
  5  9  1  0  0  0  0
  5  4  2  0  0  0  0
  6  5  1  0  0  0  0
 10  6  1  0  0  0  0
 11 12  1  0  0  0  0
 11 17  1  0  0  0  0
 12 18  1  0  0  0  0
 13  1  1  0  0  0  0
 13 12  2  0  0  0  0
 14 13  1  0  0  0  0
 15 14  2  0  0  0  0
 15 16  1  0  0  0  0
 16 11  2  0  0  0  0
 19 15  1  0  0  0  0
 20  2  1  0  0  0  0
 20 21  1  0  0  0  0
 20 23  1  0  0  0  0
 22 20  1  0  0  0  0
 23 25  1  0  0  0  0
 23 24  1  0  0  0  0
 25 26  1  0  0  0  0
 25 28  1  0  0  0  0
 27 25  1  0  0  0  0
 28 29  1  0  0  0  0
M  END
>  <minimizedAffinity>
-0.00108592107

>  <minimizedRMSD>
6.37173414

$$$$
