
 OpenBabel03252507063D

 22 22  0  0  0  0  0  0  0  0999 V2000
   44.6890   35.7980   44.7530 C   0  0  0  0  0  0  0  0  0  0  0  0
   45.3140   35.9890   43.4930 C   0  0  0  0  0  0  0  0  0  0  0  0
   46.0780   34.9410   42.9980 C   0  0  0  0  0  0  0  0  0  0  0  0
   46.1920   33.8070   43.7210 N   0  0  0  0  0  0  0  0  0  0  0  0
   45.5910   33.6520   44.9140 C   0  0  0  0  0  0  0  0  0  0  0  0
   44.8430   34.6310   45.4370 N   0  0  0  0  0  0  0  0  0  0  0  0
   44.0990   36.6490   45.1020 H   0  0  0  0  0  0  0  0  0  0  0  0
   45.1750   36.9260   42.9720 H   0  0  0  0  0  0  0  0  0  0  0  0
   45.7580   32.4360   45.6120 N   0  0  0  0  0  0  0  0  0  0  0  0
   45.6800   31.5120   45.1340 H   0  0  0  0  0  0  0  0  0  0  0  0
   46.1010   32.2760   47.2730 S   0  0  0  0  0  0  0  0  0  0  0  0
   44.9520   32.5470   48.1700 O   0  0  0  0  0  0  0  0  0  0  0  0
   46.5610   30.8500   47.5240 O   0  0  0  0  0  0  0  0  0  0  0  0
   47.4160   33.2330   47.7570 O   0  0  0  0  0  0  0  0  0  0  0  0
   48.0070   33.4230   46.9840 H   0  0  0  0  0  0  0  0  0  0  0  0
   46.6850   35.1440   41.7560 O   0  0  0  0  0  0  0  0  0  0  0  0
   48.4200   33.3380   40.9240 O   0  0  0  0  0  0  0  0  0  0  0  0
   48.3360   34.7200   41.5550 P   0  0  0  0  0  0  0  0  0  0  0  0
   49.0800   35.8790   40.6240 O   0  0  0  0  0  0  0  0  0  0  0  0
   49.8670   36.2630   41.0800 H   0  0  0  0  0  0  0  0  0  0  0  0
   49.0270   34.6280   43.1120 O   0  0  0  0  0  0  0  0  0  0  0  0
   48.7710   33.7850   43.5560 H   0  0  0  0  0  0  0  0  0  0  0  0
  1  7  1  0  0  0  0
  1  6  1  0  0  0  0
  2  1  2  0  0  0  0
  3  2  1  0  0  0  0
  3  4  2  0  0  0  0
  4  5  1  0  0  0  0
  5  6  2  0  0  0  0
  5  9  1  0  0  0  0
  8  2  1  0  0  0  0
  9 11  1  0  0  0  0
 10  9  1  0  0  0  0
 11 13  1  0  0  0  0
 11 14  1  0  0  0  0
 11 12  1  0  0  0  0
 15 14  1  0  0  0  0
 16  3  1  0  0  0  0
 17 18  2  0  0  0  0
 18 16  1  0  0  0  0
 18 21  1  0  0  0  0
 19 20  1  0  0  0  0
 19 18  1  0  0  0  0
 21 22  1  0  0  0  0
M  END
>  <minimizedAffinity>
-5.67929792

>  <minimizedRMSD>
0.88678968

$$$$
