
 OpenBabel03252505353D

 28 29  0  0  0  0  0  0  0  0999 V2000
   36.7710   30.1750   39.2450 C   0  0  0  0  0  0  0  0  0  0  0  0
   36.3620   30.0680   37.9480 C   0  0  0  0  0  0  0  0  0  0  0  0
   35.2220   29.4150   37.5130 C   0  0  0  0  0  0  0  0  0  0  0  0
   34.4160   28.8110   38.4750 C   0  0  0  0  0  0  0  0  0  0  0  0
   34.8120   28.9080   39.7860 C   0  0  0  0  0  0  0  0  0  0  0  0
   35.9520   29.5680   40.1570 C   0  0  0  0  0  0  0  0  0  0  0  0
   36.9640   30.5280   37.1510 H   0  0  0  0  0  0  0  0  0  0  0  0
   34.9720   29.3800   36.4600 H   0  0  0  0  0  0  0  0  0  0  0  0
   33.5300   28.3090   38.0980 H   0  0  0  0  0  0  0  0  0  0  0  0
   34.1310   28.4130   40.4650 H   0  0  0  0  0  0  0  0  0  0  0  0
   40.3410   31.2780   39.5130 C   0  0  0  0  0  0  0  0  0  0  0  0
   39.2280   30.4790   39.1340 C   0  0  0  0  0  0  0  0  0  0  0  0
   37.9790   30.8810   39.5550 C   0  0  0  0  0  0  0  0  0  0  0  0
   37.8520   32.0130   40.3070 N   0  0  0  0  0  0  0  0  0  0  0  0
   38.9500   32.7480   40.6470 C   0  0  0  0  0  0  0  0  0  0  0  0
   40.1930   32.3720   40.2430 N   0  0  0  0  0  0  0  0  0  0  0  0
   38.8260   33.9320   41.4290 N   0  0  0  0  0  0  0  0  0  0  0  0
   41.3130   30.9670   39.1880 H   0  0  0  0  0  0  0  0  0  0  0  0
   39.3350   29.5830   38.5380 H   0  0  0  0  0  0  0  0  0  0  0  0
   38.0060   34.0190   42.0720 H   0  0  0  0  0  0  0  0  0  0  0  0
   39.5190   34.6890   41.3700 H   0  0  0  0  0  0  0  0  0  0  0  0
   36.3190   29.6410   41.5190 N   0  0  0  0  0  0  0  0  0  0  0  0
   35.9580   30.3880   42.1590 H   0  0  0  0  0  0  0  0  0  0  0  0
   37.3250   28.7430   42.5840 S   0  0  0  0  0  0  0  0  0  0  0  0
   38.2940   29.6340   43.3050 O   0  0  0  0  0  1  0  0  0  0  0  0
   38.0500   27.6760   41.8140 O   0  0  0  0  0  1  0  0  0  0  0  0
   36.3370   27.9170   43.6800 O   0  0  0  0  0  0  0  0  0  0  0  0
   35.5030   27.6270   43.2720 H   0  0  0  0  0  0  0  0  0  0  0  0
  1 13  1  0  0  0  0
  1  6  1  0  0  0  0
  2  1  2  0  0  0  0
  3  2  1  0  0  0  0
  3  4  2  0  0  0  0
  4  5  1  0  0  0  0
  5  6  2  0  0  0  0
  5 10  1  0  0  0  0
  6 22  1  0  0  0  0
  7  2  1  0  0  0  0
  8  3  1  0  0  0  0
  9  4  1  0  0  0  0
 11 16  1  0  0  0  0
 12 11  2  0  0  0  0
 12 13  1  0  0  0  0
 13 14  2  0  0  0  0
 14 15  1  0  0  0  0
 15 17  1  0  0  0  0
 16 15  2  0  0  0  0
 17 20  1  0  0  0  0
 18 11  1  0  0  0  0
 19 12  1  0  0  0  0
 21 17  1  0  0  0  0
 22 23  1  0  0  0  0
 22 24  1  0  0  0  0
 24 25  1  0  0  0  0
 24 27  1  0  0  0  0
 26 24  1  0  0  0  0
 28 27  1  0  0  0  0
M  END
>  <minimizedAffinity>
-5.31931734

$$$$

 OpenBabel03252505353D

 28 29  0  0  0  0  0  0  0  0999 V2000
   36.6490   30.3540   39.3180 C   0  0  0  0  0  0  0  0  0  0  0  0
   36.4210   30.2920   37.9730 C   0  0  0  0  0  0  0  0  0  0  0  0
   35.6910   29.3130   37.3240 C   0  0  0  0  0  0  0  0  0  0  0  0
   35.1360   28.2970   38.1000 C   0  0  0  0  0  0  0  0  0  0  0  0
   35.3550   28.3430   39.4540 C   0  0  0  0  0  0  0  0  0  0  0  0
   36.0870   29.3390   40.0420 C   0  0  0  0  0  0  0  0  0  0  0  0
   36.8380   31.0700   37.3180 H   0  0  0  0  0  0  0  0  0  0  0  0
   35.5600   29.3420   36.2490 H   0  0  0  0  0  0  0  0  0  0  0  0
   34.5690   27.5470   37.5570 H   0  0  0  0  0  0  0  0  0  0  0  0
   34.8900   27.5200   39.9800 H   0  0  0  0  0  0  0  0  0  0  0  0
   38.0740   33.7150   40.1540 C   0  0  0  0  0  0  0  0  0  0  0  0
   37.2280   32.7530   39.5390 C   0  0  0  0  0  0  0  0  0  0  0  0
   37.4280   31.4270   39.8590 C   0  0  0  0  0  0  0  0  0  0  0  0
   38.4140   31.0870   40.7390 N   0  0  0  0  0  0  0  0  0  0  0  0
   39.2030   32.0460   41.3040 C   0  0  0  0  0  0  0  0  0  0  0  0
   39.0240   33.3600   41.0050 N   0  0  0  0  0  0  0  0  0  0  0  0
   40.2320   31.6990   42.2260 N   0  0  0  0  0  0  0  0  0  0  0  0
   37.9210   34.7460   39.9060 H   0  0  0  0  0  0  0  0  0  0  0  0
   36.4490   33.0290   38.8420 H   0  0  0  0  0  0  0  0  0  0  0  0
   40.6540   30.7450   42.1630 H   0  0  0  0  0  0  0  0  0  0  0  0
   40.5580   32.3630   42.9400 H   0  0  0  0  0  0  0  0  0  0  0  0
   36.2850   29.3430   41.4400 N   0  0  0  0  0  0  0  0  0  0  0  0
   35.7760   30.0010   42.0780 H   0  0  0  0  0  0  0  0  0  0  0  0
   37.2510   28.4690   42.5610 S   0  0  0  0  0  0  0  0  0  0  0  0
   38.2040   27.5450   41.8590 O   0  0  0  0  0  1  0  0  0  0  0  0
   36.3640   27.7060   43.5040 O   0  0  0  0  0  1  0  0  0  0  0  0
   38.0870   29.5790   43.5230 O   0  0  0  0  0  0  0  0  0  0  0  0
   37.5630   30.3790   43.6960 H   0  0  0  0  0  0  0  0  0  0  0  0
  1 13  1  0  0  0  0
  1  6  1  0  0  0  0
  2  1  2  0  0  0  0
  3  2  1  0  0  0  0
  3  4  2  0  0  0  0
  4  5  1  0  0  0  0
  5 10  1  0  0  0  0
  5  6  2  0  0  0  0
  6 22  1  0  0  0  0
  7  2  1  0  0  0  0
  8  3  1  0  0  0  0
  9  4  1  0  0  0  0
 11 16  1  0  0  0  0
 12 13  1  0  0  0  0
 12 11  2  0  0  0  0
 13 14  2  0  0  0  0
 14 15  1  0  0  0  0
 15 17  1  0  0  0  0
 16 15  2  0  0  0  0
 17 21  1  0  0  0  0
 18 11  1  0  0  0  0
 19 12  1  0  0  0  0
 20 17  1  0  0  0  0
 22 23  1  0  0  0  0
 22 24  1  0  0  0  0
 24 26  1  0  0  0  0
 24 27  1  0  0  0  0
 25 24  1  0  0  0  0
 27 28  1  0  0  0  0
M  END
>  <minimizedAffinity>
-5.27491379

$$$$

 OpenBabel03252505353D

 28 29  0  0  0  0  0  0  0  0999 V2000
   37.1610   28.7030   40.9190 C   0  0  0  0  0  0  0  0  0  0  0  0
   36.5650   27.6830   41.6030 C   0  0  0  0  0  0  0  0  0  0  0  0
   36.7290   27.4120   42.9500 C   0  0  0  0  0  0  0  0  0  0  0  0
   37.5740   28.2460   43.6800 C   0  0  0  0  0  0  0  0  0  0  0  0
   38.1820   29.2760   43.0080 C   0  0  0  0  0  0  0  0  0  0  0  0
   37.9820   29.4960   41.6720 C   0  0  0  0  0  0  0  0  0  0  0  0
   35.8890   26.9980   41.0720 H   0  0  0  0  0  0  0  0  0  0  0  0
   36.2150   26.5790   43.4130 H   0  0  0  0  0  0  0  0  0  0  0  0
   37.6780   28.0040   44.7330 H   0  0  0  0  0  0  0  0  0  0  0  0
   38.8200   29.8730   43.6470 H   0  0  0  0  0  0  0  0  0  0  0  0
   35.5580   29.3430   37.5950 C   0  0  0  0  0  0  0  0  0  0  0  0
   35.6700   29.2110   39.0050 C   0  0  0  0  0  0  0  0  0  0  0  0
   36.9030   28.8670   39.5190 C   0  0  0  0  0  0  0  0  0  0  0  0
   37.9550   28.6680   38.6730 N   0  0  0  0  0  0  0  0  0  0  0  0
   37.7990   28.8060   37.3250 C   0  0  0  0  0  0  0  0  0  0  0  0
   36.5940   29.1450   36.7940 N   0  0  0  0  0  0  0  0  0  0  0  0
   38.8930   28.6040   36.4360 N   0  0  0  0  0  0  0  0  0  0  0  0
   34.6010   29.6090   37.1930 H   0  0  0  0  0  0  0  0  0  0  0  0
   34.8330   29.3690   39.6700 H   0  0  0  0  0  0  0  0  0  0  0  0
   39.6690   27.9740   36.7400 H   0  0  0  0  0  0  0  0  0  0  0  0
   38.9290   29.0620   35.5160 H   0  0  0  0  0  0  0  0  0  0  0  0
   38.6310   30.5700   41.0240 N   0  0  0  0  0  0  0  0  0  0  0  0
   39.6640   30.5790   40.8470 H   0  0  0  0  0  0  0  0  0  0  0  0
   38.1620   32.0790   40.3480 S   0  0  0  0  0  0  0  0  0  0  0  0
   38.4720   32.1420   38.8800 O   0  0  0  0  0  1  0  0  0  0  0  0
   38.8440   33.1960   41.0860 O   0  0  0  0  0  1  0  0  0  0  0  0
   36.5090   32.2970   40.6240 O   0  0  0  0  0  0  0  0  0  0  0  0
   36.2280   31.9200   41.4760 H   0  0  0  0  0  0  0  0  0  0  0  0
  1  2  2  0  0  0  0
  1  6  1  0  0  0  0
  2  3  1  0  0  0  0
  3  8  1  0  0  0  0
  3  4  2  0  0  0  0
  4  9  1  0  0  0  0
  5 10  1  0  0  0  0
  5  4  1  0  0  0  0
  6  5  2  0  0  0  0
  7  2  1  0  0  0  0
 11 12  1  0  0  0  0
 12 13  2  0  0  0  0
 12 19  1  0  0  0  0
 13  1  1  0  0  0  0
 14 13  1  0  0  0  0
 15 14  2  0  0  0  0
 16 15  1  0  0  0  0
 16 11  2  0  0  0  0
 17 20  1  0  0  0  0
 17 15  1  0  0  0  0
 18 11  1  0  0  0  0
 21 17  1  0  0  0  0
 22  6  1  0  0  0  0
 23 22  1  0  0  0  0
 24 27  1  0  0  0  0
 24 22  1  0  0  0  0
 24 26  1  0  0  0  0
 25 24  1  0  0  0  0
 27 28  1  0  0  0  0
M  END
>  <minimizedAffinity>
-5.25586987

$$$$

 OpenBabel03252505353D

 28 29  0  0  0  0  0  0  0  0999 V2000
   37.4670   29.3540   41.3560 C   0  0  0  0  0  0  0  0  0  0  0  0
   36.6250   28.2800   41.3670 C   0  0  0  0  0  0  0  0  0  0  0  0
   36.5040   27.3620   42.3940 C   0  0  0  0  0  0  0  0  0  0  0  0
   37.3060   27.5390   43.5200 C   0  0  0  0  0  0  0  0  0  0  0  0
   38.1590   28.6140   43.5260 C   0  0  0  0  0  0  0  0  0  0  0  0
   38.2360   29.4910   42.4780 C   0  0  0  0  0  0  0  0  0  0  0  0
   35.9720   28.0970   40.5020 H   0  0  0  0  0  0  0  0  0  0  0  0
   35.8060   26.5360   42.3190 H   0  0  0  0  0  0  0  0  0  0  0  0
   37.1830   26.8010   44.3060 H   0  0  0  0  0  0  0  0  0  0  0  0
   38.7430   28.6770   44.4350 H   0  0  0  0  0  0  0  0  0  0  0  0
   37.7630   30.7810   37.9060 C   0  0  0  0  0  0  0  0  0  0  0  0
   37.7760   29.8060   38.9390 C   0  0  0  0  0  0  0  0  0  0  0  0
   37.4930   30.2270   40.2200 C   0  0  0  0  0  0  0  0  0  0  0  0
   37.2130   31.5430   40.4520 N   0  0  0  0  0  0  0  0  0  0  0  0
   37.2130   32.4440   39.4270 C   0  0  0  0  0  0  0  0  0  0  0  0
   37.4890   32.0520   38.1550 N   0  0  0  0  0  0  0  0  0  0  0  0
   36.9190   33.8180   39.6600 N   0  0  0  0  0  0  0  0  0  0  0  0
   37.9850   30.4560   36.9090 H   0  0  0  0  0  0  0  0  0  0  0  0
   38.0000   28.7650   38.7490 H   0  0  0  0  0  0  0  0  0  0  0  0
   37.1070   34.2120   40.6090 H   0  0  0  0  0  0  0  0  0  0  0  0
   36.5300   34.4170   38.9190 H   0  0  0  0  0  0  0  0  0  0  0  0
   39.1310   30.5830   42.5310 N   0  0  0  0  0  0  0  0  0  0  0  0
   38.8950   31.4790   43.0210 H   0  0  0  0  0  0  0  0  0  0  0  0
   40.7100   30.9250   41.9460 S   0  0  0  0  0  0  0  0  0  0  0  0
   40.6640   31.7560   40.6970 O   0  0  0  0  0  1  0  0  0  0  0  0
   41.4480   29.6380   41.7060 O   0  0  0  0  0  1  0  0  0  0  0  0
   41.5700   31.7180   43.1670 O   0  0  0  0  0  0  0  0  0  0  0  0
   41.3260   31.3990   44.0520 H   0  0  0  0  0  0  0  0  0  0  0  0
  1  2  2  0  0  0  0
  1  6  1  0  0  0  0
  2  3  1  0  0  0  0
  3  4  2  0  0  0  0
  4  5  1  0  0  0  0
  4  9  1  0  0  0  0
  5 10  1  0  0  0  0
  6 22  1  0  0  0  0
  6  5  2  0  0  0  0
  7  2  1  0  0  0  0
  8  3  1  0  0  0  0
 11 16  2  0  0  0  0
 11 12  1  0  0  0  0
 12 13  2  0  0  0  0
 13 14  1  0  0  0  0
 13  1  1  0  0  0  0
 15 17  1  0  0  0  0
 15 14  2  0  0  0  0
 16 15  1  0  0  0  0
 17 20  1  0  0  0  0
 18 11  1  0  0  0  0
 19 12  1  0  0  0  0
 21 17  1  0  0  0  0
 22 23  1  0  0  0  0
 24 22  1  0  0  0  0
 24 27  1  0  0  0  0
 25 24  1  0  0  0  0
 26 24  1  0  0  0  0
 27 28  1  0  0  0  0
M  END
>  <minimizedAffinity>
-5.2495122

$$$$

 OpenBabel03252505353D

 28 29  0  0  0  0  0  0  0  0999 V2000
   38.9650   28.9970   41.8170 C   0  0  0  0  0  0  0  0  0  0  0  0
   39.5820   28.4440   42.9020 C   0  0  0  0  0  0  0  0  0  0  0  0
   39.1590   27.3160   43.5820 C   0  0  0  0  0  0  0  0  0  0  0  0
   38.0040   26.6820   43.1290 C   0  0  0  0  0  0  0  0  0  0  0  0
   37.3700   27.2240   42.0400 C   0  0  0  0  0  0  0  0  0  0  0  0
   37.8360   28.3440   41.4060 C   0  0  0  0  0  0  0  0  0  0  0  0
   40.4970   28.9080   43.2970 H   0  0  0  0  0  0  0  0  0  0  0  0
   39.7130   26.9460   44.4360 H   0  0  0  0  0  0  0  0  0  0  0  0
   37.7030   25.8000   43.6860 H   0  0  0  0  0  0  0  0  0  0  0  0
   36.4840   26.6720   41.7550 H   0  0  0  0  0  0  0  0  0  0  0  0
   41.0310   31.4000   39.8210 C   0  0  0  0  0  0  0  0  0  0  0  0
   40.5950   30.1570   40.3550 C   0  0  0  0  0  0  0  0  0  0  0  0
   39.5120   30.1720   41.2090 C   0  0  0  0  0  0  0  0  0  0  0  0
   38.9050   31.3580   41.5070 N   0  0  0  0  0  0  0  0  0  0  0  0
   39.3600   32.5270   40.9700 C   0  0  0  0  0  0  0  0  0  0  0  0
   40.4260   32.5370   40.1260 N   0  0  0  0  0  0  0  0  0  0  0  0
   38.7290   33.7670   41.2740 N   0  0  0  0  0  0  0  0  0  0  0  0
   41.8740   31.3910   39.1590 H   0  0  0  0  0  0  0  0  0  0  0  0
   41.0810   29.2220   40.1160 H   0  0  0  0  0  0  0  0  0  0  0  0
   38.2170   33.8540   42.1810 H   0  0  0  0  0  0  0  0  0  0  0  0
   38.7700   34.5630   40.6240 H   0  0  0  0  0  0  0  0  0  0  0  0
   37.1480   28.8650   40.2870 N   0  0  0  0  0  0  0  0  0  0  0  0
   37.3570   28.5600   39.3070 H   0  0  0  0  0  0  0  0  0  0  0  0
   35.8970   30.0130   40.0220 S   0  0  0  0  0  0  0  0  0  0  0  0
   34.5890   29.3390   39.7220 O   0  0  0  0  0  1  0  0  0  0  0  0
   36.2900   30.9380   38.9060 O   0  0  0  0  0  1  0  0  0  0  0  0
   35.7690   30.9890   41.3960 O   0  0  0  0  0  0  0  0  0  0  0  0
   36.6330   31.1450   41.8140 H   0  0  0  0  0  0  0  0  0  0  0  0
  1  2  1  0  0  0  0
  2  7  1  0  0  0  0
  2  3  2  0  0  0  0
  3  8  1  0  0  0  0
  4  3  1  0  0  0  0
  4  9  1  0  0  0  0
  5  4  2  0  0  0  0
  6  1  2  0  0  0  0
  6  5  1  0  0  0  0
 10  5  1  0  0  0  0
 11 16  2  0  0  0  0
 11 12  1  0  0  0  0
 12 13  2  0  0  0  0
 13 14  1  0  0  0  0
 13  1  1  0  0  0  0
 15 17  1  0  0  0  0
 15 14  2  0  0  0  0
 16 15  1  0  0  0  0
 17 20  1  0  0  0  0
 18 11  1  0  0  0  0
 19 12  1  0  0  0  0
 21 17  1  0  0  0  0
 22  6  1  0  0  0  0
 23 22  1  0  0  0  0
 24 22  1  0  0  0  0
 24 27  1  0  0  0  0
 25 24  1  0  0  0  0
 26 24  1  0  0  0  0
 27 28  1  0  0  0  0
M  END
>  <minimizedAffinity>
-5.22893238

$$$$

 OpenBabel03252505353D

 28 29  0  0  0  0  0  0  0  0999 V2000
   37.9050   29.2460   41.8060 C   0  0  0  0  0  0  0  0  0  0  0  0
   37.8600   28.9440   43.1360 C   0  0  0  0  0  0  0  0  0  0  0  0
   37.4190   27.7500   43.6780 C   0  0  0  0  0  0  0  0  0  0  0  0
   36.9800   26.7630   42.7980 C   0  0  0  0  0  0  0  0  0  0  0  0
   37.0180   27.0490   41.4560 C   0  0  0  0  0  0  0  0  0  0  0  0
   37.4650   28.2510   40.9770 C   0  0  0  0  0  0  0  0  0  0  0  0
   38.1960   29.6900   43.8710 H   0  0  0  0  0  0  0  0  0  0  0  0
   37.4190   27.5960   44.7500 H   0  0  0  0  0  0  0  0  0  0  0  0
   36.6430   25.8400   43.2580 H   0  0  0  0  0  0  0  0  0  0  0  0
   36.6600   26.2310   40.8450 H   0  0  0  0  0  0  0  0  0  0  0  0
   40.0190   32.2550   41.0970 C   0  0  0  0  0  0  0  0  0  0  0  0
   39.6800   30.9590   41.5720 C   0  0  0  0  0  0  0  0  0  0  0  0
   38.3840   30.5280   41.3820 C   0  0  0  0  0  0  0  0  0  0  0  0
   37.4860   31.3430   40.7560 N   0  0  0  0  0  0  0  0  0  0  0  0
   37.8590   32.5800   40.3180 C   0  0  0  0  0  0  0  0  0  0  0  0
   39.1310   33.0280   40.4930 N   0  0  0  0  0  0  0  0  0  0  0  0
   36.9280   33.4350   39.6610 N   0  0  0  0  0  0  0  0  0  0  0  0
   41.0250   32.5930   41.2450 H   0  0  0  0  0  0  0  0  0  0  0  0
   40.3960   30.3190   42.0680 H   0  0  0  0  0  0  0  0  0  0  0  0
   35.9110   33.3160   39.8690 H   0  0  0  0  0  0  0  0  0  0  0  0
   37.2390   34.1550   38.9950 H   0  0  0  0  0  0  0  0  0  0  0  0
   37.4840   28.4980   39.5870 N   0  0  0  0  0  0  0  0  0  0  0  0
   38.3450   28.3630   39.0040 H   0  0  0  0  0  0  0  0  0  0  0  0
   36.3580   29.0330   38.4050 S   0  0  0  0  0  0  0  0  0  0  0  0
   34.9440   28.8570   38.8750 O   0  0  0  0  0  1  0  0  0  0  0  0
   36.5890   28.2940   37.1170 O   0  0  0  0  0  1  0  0  0  0  0  0
   36.6800   30.6560   38.0580 O   0  0  0  0  0  0  0  0  0  0  0  0
   37.6300   30.8570   38.0990 H   0  0  0  0  0  0  0  0  0  0  0  0
  1  2  1  0  0  0  0
  2  3  2  0  0  0  0
  2  7  1  0  0  0  0
  3  8  1  0  0  0  0
  4  9  1  0  0  0  0
  4  3  1  0  0  0  0
  5  4  2  0  0  0  0
  6  5  1  0  0  0  0
  6  1  2  0  0  0  0
 10  5  1  0  0  0  0
 11 18  1  0  0  0  0
 11 12  1  0  0  0  0
 12 19  1  0  0  0  0
 13 12  2  0  0  0  0
 13  1  1  0  0  0  0
 14 13  1  0  0  0  0
 15 16  1  0  0  0  0
 15 14  2  0  0  0  0
 16 11  2  0  0  0  0
 17 20  1  0  0  0  0
 17 15  1  0  0  0  0
 21 17  1  0  0  0  0
 22  6  1  0  0  0  0
 23 22  1  0  0  0  0
 24 25  1  0  0  0  0
 24 22  1  0  0  0  0
 26 24  1  0  0  0  0
 27 28  1  0  0  0  0
 27 24  1  0  0  0  0
M  END
>  <minimizedAffinity>
-5.02575064

$$$$

 OpenBabel03252505353D

 28 29  0  0  0  0  0  0  0  0999 V2000
   37.0430   28.2470   39.2090 C   0  0  0  0  0  0  0  0  0  0  0  0
   36.2550   27.3890   38.4980 C   0  0  0  0  0  0  0  0  0  0  0  0
   36.0210   26.0620   38.8110 C   0  0  0  0  0  0  0  0  0  0  0  0
   36.6390   25.5460   39.9480 C   0  0  0  0  0  0  0  0  0  0  0  0
   37.4350   26.3940   40.6760 C   0  0  0  0  0  0  0  0  0  0  0  0
   37.6300   27.7010   40.3170 C   0  0  0  0  0  0  0  0  0  0  0  0
   35.7460   27.7480   37.5920 H   0  0  0  0  0  0  0  0  0  0  0  0
   35.3780   25.4520   38.1880 H   0  0  0  0  0  0  0  0  0  0  0  0
   36.4310   24.5020   40.1630 H   0  0  0  0  0  0  0  0  0  0  0  0
   37.8750   25.9150   41.5410 H   0  0  0  0  0  0  0  0  0  0  0  0
   37.6820   31.3340   37.1860 C   0  0  0  0  0  0  0  0  0  0  0  0
   37.5660   29.9490   37.4860 C   0  0  0  0  0  0  0  0  0  0  0  0
   37.2000   29.6010   38.7690 C   0  0  0  0  0  0  0  0  0  0  0  0
   36.9650   30.5780   39.6930 N   0  0  0  0  0  0  0  0  0  0  0  0
   37.0890   31.8950   39.3580 C   0  0  0  0  0  0  0  0  0  0  0  0
   37.4480   32.2630   38.0990 N   0  0  0  0  0  0  0  0  0  0  0  0
   36.8410   32.9200   40.3150 N   0  0  0  0  0  0  0  0  0  0  0  0
   37.9670   31.6070   36.1910 H   0  0  0  0  0  0  0  0  0  0  0  0
   37.7550   29.1800   36.7510 H   0  0  0  0  0  0  0  0  0  0  0  0
   36.9710   32.6960   41.3280 H   0  0  0  0  0  0  0  0  0  0  0  0
   36.5410   33.8610   40.0280 H   0  0  0  0  0  0  0  0  0  0  0  0
   38.4600   28.5350   41.0990 N   0  0  0  0  0  0  0  0  0  0  0  0
   39.2800   29.0480   40.6960 H   0  0  0  0  0  0  0  0  0  0  0  0
   38.5330   29.0230   42.7450 S   0  0  0  0  0  0  0  0  0  0  0  0
   39.3440   30.2760   42.9100 O   0  0  0  0  0  1  0  0  0  0  0  0
   39.0990   27.9070   43.5770 O   0  0  0  0  0  1  0  0  0  0  0  0
   36.9550   29.2490   43.3050 O   0  0  0  0  0  0  0  0  0  0  0  0
   36.3320   28.6190   42.9050 H   0  0  0  0  0  0  0  0  0  0  0  0
  1  6  1  0  0  0  0
  2  3  1  0  0  0  0
  2  1  2  0  0  0  0
  3  4  2  0  0  0  0
  4  9  1  0  0  0  0
  4  5  1  0  0  0  0
  5 10  1  0  0  0  0
  6  5  2  0  0  0  0
  6 22  1  0  0  0  0
  7  2  1  0  0  0  0
  8  3  1  0  0  0  0
 11 12  2  0  0  0  0
 11 16  1  0  0  0  0
 12 13  1  0  0  0  0
 13  1  1  0  0  0  0
 13 14  2  0  0  0  0
 15 14  1  0  0  0  0
 15 17  1  0  0  0  0
 16 15  2  0  0  0  0
 17 20  1  0  0  0  0
 18 11  1  0  0  0  0
 19 12  1  0  0  0  0
 21 17  1  0  0  0  0
 22 24  1  0  0  0  0
 23 22  1  0  0  0  0
 24 25  1  0  0  0  0
 24 27  1  0  0  0  0
 24 26  1  0  0  0  0
 28 27  1  0  0  0  0
M  END
>  <minimizedAffinity>
-4.96171999

$$$$

 OpenBabel03252505353D

 28 29  0  0  0  0  0  0  0  0999 V2000
   36.8800   26.4340   40.0160 C   0  0  0  0  0  0  0  0  0  0  0  0
   36.4120   25.1550   39.9250 C   0  0  0  0  0  0  0  0  0  0  0  0
   36.5420   24.1780   40.8960 C   0  0  0  0  0  0  0  0  0  0  0  0
   37.2060   24.5180   42.0720 C   0  0  0  0  0  0  0  0  0  0  0  0
   37.6830   25.8000   42.1820 C   0  0  0  0  0  0  0  0  0  0  0  0
   37.5260   26.7260   41.1860 C   0  0  0  0  0  0  0  0  0  0  0  0
   35.8810   24.8380   39.0160 H   0  0  0  0  0  0  0  0  0  0  0  0
   36.1370   23.1850   40.7390 H   0  0  0  0  0  0  0  0  0  0  0  0
   37.2870   23.7270   42.8120 H   0  0  0  0  0  0  0  0  0  0  0  0
   38.1850   25.9800   43.1240 H   0  0  0  0  0  0  0  0  0  0  0  0
   35.4310   28.8860   37.5840 C   0  0  0  0  0  0  0  0  0  0  0  0
   35.4900   28.0070   38.7000 C   0  0  0  0  0  0  0  0  0  0  0  0
   36.6780   27.3450   38.9300 C   0  0  0  0  0  0  0  0  0  0  0  0
   37.7380   27.5520   38.0960 N   0  0  0  0  0  0  0  0  0  0  0  0
   37.6340   28.4060   37.0360 C   0  0  0  0  0  0  0  0  0  0  0  0
   36.4730   29.0700   36.7890 N   0  0  0  0  0  0  0  0  0  0  0  0
   38.7370   28.6290   36.1640 N   0  0  0  0  0  0  0  0  0  0  0  0
   34.5090   29.4010   37.4030 H   0  0  0  0  0  0  0  0  0  0  0  0
   34.6470   27.8480   39.3560 H   0  0  0  0  0  0  0  0  0  0  0  0
   39.4550   27.8750   36.0690 H   0  0  0  0  0  0  0  0  0  0  0  0
   38.8340   29.5060   35.6350 H   0  0  0  0  0  0  0  0  0  0  0  0
   38.0360   28.0330   41.3450 N   0  0  0  0  0  0  0  0  0  0  0  0
   38.9450   28.3370   40.9220 H   0  0  0  0  0  0  0  0  0  0  0  0
   37.5380   29.4730   42.1410 S   0  0  0  0  0  0  0  0  0  0  0  0
   36.4840   30.1980   41.3540 O   0  0  0  0  0  1  0  0  0  0  0  0
   38.7300   30.3560   42.3780 O   0  0  0  0  0  1  0  0  0  0  0  0
   36.9660   29.0620   43.6780 O   0  0  0  0  0  0  0  0  0  0  0  0
   37.4570   28.3160   44.0620 H   0  0  0  0  0  0  0  0  0  0  0  0
  1  6  1  0  0  0  0
  2  1  2  0  0  0  0
  2  3  1  0  0  0  0
  3  4  2  0  0  0  0
  4  5  1  0  0  0  0
  4  9  1  0  0  0  0
  5 10  1  0  0  0  0
  6 22  1  0  0  0  0
  6  5  2  0  0  0  0
  7  2  1  0  0  0  0
  8  3  1  0  0  0  0
 11 12  1  0  0  0  0
 12 13  2  0  0  0  0
 12 19  1  0  0  0  0
 13  1  1  0  0  0  0
 14 13  1  0  0  0  0
 15 14  2  0  0  0  0
 16 15  1  0  0  0  0
 16 11  2  0  0  0  0
 17 15  1  0  0  0  0
 18 11  1  0  0  0  0
 20 17  1  0  0  0  0
 21 17  1  0  0  0  0
 22 24  1  0  0  0  0
 23 22  1  0  0  0  0
 24 26  1  0  0  0  0
 24 27  1  0  0  0  0
 25 24  1  0  0  0  0
 27 28  1  0  0  0  0
M  END
>  <minimizedAffinity>
-4.88745213

$$$$

 OpenBabel03252505353D

 28 29  0  0  0  0  0  0  0  0999 V2000
   37.1510   29.6590   38.7120 C   0  0  0  0  0  0  0  0  0  0  0  0
   36.2090   29.2370   37.8200 C   0  0  0  0  0  0  0  0  0  0  0  0
   34.8830   28.9720   38.1110 C   0  0  0  0  0  0  0  0  0  0  0  0
   34.4610   29.1500   39.4270 C   0  0  0  0  0  0  0  0  0  0  0  0
   35.3950   29.5750   40.3390 C   0  0  0  0  0  0  0  0  0  0  0  0
   36.6960   29.8210   39.9920 C   0  0  0  0  0  0  0  0  0  0  0  0
   36.4920   29.0810   36.7690 H   0  0  0  0  0  0  0  0  0  0  0  0
   34.2020   28.6390   37.3370 H   0  0  0  0  0  0  0  0  0  0  0  0
   33.4150   28.9340   39.6190 H   0  0  0  0  0  0  0  0  0  0  0  0
   34.9850   29.6870   41.3340 H   0  0  0  0  0  0  0  0  0  0  0  0
   40.7090   29.2660   37.6120 C   0  0  0  0  0  0  0  0  0  0  0  0
   39.4110   28.8890   38.0500 C   0  0  0  0  0  0  0  0  0  0  0  0
   38.4940   29.8940   38.2730 C   0  0  0  0  0  0  0  0  0  0  0  0
   38.8550   31.1940   38.0700 N   0  0  0  0  0  0  0  0  0  0  0  0
   40.1140   31.5090   37.6490 C   0  0  0  0  0  0  0  0  0  0  0  0
   41.0360   30.5350   37.4220 N   0  0  0  0  0  0  0  0  0  0  0  0
   40.4970   32.8630   37.4320 N   0  0  0  0  0  0  0  0  0  0  0  0
   41.4240   28.4870   37.4390 H   0  0  0  0  0  0  0  0  0  0  0  0
   39.1310   27.8570   38.2100 H   0  0  0  0  0  0  0  0  0  0  0  0
   39.9970   33.6120   37.9620 H   0  0  0  0  0  0  0  0  0  0  0  0
   41.2460   33.1090   36.7710 H   0  0  0  0  0  0  0  0  0  0  0  0
   37.6200   30.2570   40.9670 N   0  0  0  0  0  0  0  0  0  0  0  0
   38.0480   31.2130   40.9480 H   0  0  0  0  0  0  0  0  0  0  0  0
   38.3560   29.5880   42.3680 S   0  0  0  0  0  0  0  0  0  0  0  0
   39.4170   30.4970   42.9180 O   0  0  0  0  0  1  0  0  0  0  0  0
   38.9280   28.2370   42.0410 O   0  0  0  0  0  1  0  0  0  0  0  0
   37.1510   29.3030   43.5180 O   0  0  0  0  0  0  0  0  0  0  0  0
   36.3110   29.0340   43.1080 H   0  0  0  0  0  0  0  0  0  0  0  0
  1  6  1  0  0  0  0
  2  3  1  0  0  0  0
  2  1  2  0  0  0  0
  3  4  2  0  0  0  0
  4  9  1  0  0  0  0
  4  5  1  0  0  0  0
  5 10  1  0  0  0  0
  6  5  2  0  0  0  0
  6 22  1  0  0  0  0
  7  2  1  0  0  0  0
  8  3  1  0  0  0  0
 11 12  1  0  0  0  0
 12 19  1  0  0  0  0
 12 13  2  0  0  0  0
 13  1  1  0  0  0  0
 14 13  1  0  0  0  0
 15 14  2  0  0  0  0
 16 11  2  0  0  0  0
 16 15  1  0  0  0  0
 17 15  1  0  0  0  0
 17 20  1  0  0  0  0
 18 11  1  0  0  0  0
 21 17  1  0  0  0  0
 22 24  1  0  0  0  0
 23 22  1  0  0  0  0
 24 25  1  0  0  0  0
 24 27  1  0  0  0  0
 26 24  1  0  0  0  0
 28 27  1  0  0  0  0
M  END
>  <minimizedAffinity>
-4.82385492

$$$$
