
 OpenBabel03252508423D

 29 30  0  0  0  0  0  0  0  0999 V2000
   43.1860   34.6790   40.8060 C   0  0  0  0  0  0  0  0  0  0  0  0
   43.6580   33.9780   39.7030 C   0  0  0  0  0  0  0  0  0  0  0  0
   42.9170   34.0040   38.5380 C   0  0  0  0  0  0  0  0  0  0  0  0
   41.7490   34.7060   38.4870 C   0  0  0  0  0  0  0  0  0  0  0  0
   41.2570   35.4040   39.5500 C   0  0  0  0  0  0  0  0  0  0  0  0
   42.0310   35.3530   40.7030 C   0  0  0  0  0  0  0  0  0  0  0  0
   43.2290   33.4800   37.6460 H   0  0  0  0  0  0  0  0  0  0  0  0
   41.1620   34.7290   37.5710 H   0  0  0  0  0  0  0  0  0  0  0  0
   40.3440   35.9840   39.5960 H   0  0  0  0  0  0  0  0  0  0  0  0
   41.7310   35.8760   41.6130 H   0  0  0  0  0  0  0  0  0  0  0  0
   45.2840   35.5570   43.8200 C   0  0  0  0  0  0  0  0  0  0  0  0
   44.4990   35.7320   42.6610 C   0  0  0  0  0  0  0  0  0  0  0  0
   44.0050   34.6180   42.0100 C   0  0  0  0  0  0  0  0  0  0  0  0
   44.3080   33.4030   42.5300 N   0  0  0  0  0  0  0  0  0  0  0  0
   45.0620   33.2460   43.6430 C   0  0  0  0  0  0  0  0  0  0  0  0
   45.5460   34.3220   44.2830 N   0  0  0  0  0  0  0  0  0  0  0  0
   45.5920   36.5170   44.2100 H   0  0  0  0  0  0  0  0  0  0  0  0
   44.2310   36.6660   42.2090 H   0  0  0  0  0  0  0  0  0  0  0  0
   45.2940   32.2730   44.0470 H   0  0  0  0  0  0  0  0  0  0  0  0
   44.9380   33.2190   39.7830 C   0  0  0  0  0  0  0  0  0  0  0  0
   44.7900   32.3140   39.1420 H   0  0  0  0  0  0  0  0  0  0  0  0
   45.0960   32.8840   40.8080 H   0  0  0  0  0  0  0  0  0  0  0  0
   46.0730   33.9210   39.2590 N   0  0  0  0  0  0  0  0  0  0  0  0
   46.2700   33.7700   38.2740 H   0  0  0  0  0  0  0  0  0  0  0  0
   47.4540   33.7940   40.2790 S   0  0  0  0  0  0  0  0  0  0  0  0
   47.4290   32.5050   41.0490 O   0  0  0  0  0  1  0  0  0  0  0  0
   47.5750   34.9490   41.1980 O   0  0  0  0  0  1  0  0  0  0  0  0
   48.7950   33.7660   39.2470 O   0  0  0  0  0  0  0  0  0  0  0  0
   48.6880   33.0820   38.5360 H   0  0  0  0  0  0  0  0  0  0  0  0
  1 13  1  0  0  0  0
  2 20  1  0  0  0  0
  2  1  2  0  0  0  0
  3  2  1  0  0  0  0
  4  3  2  0  0  0  0
  4  5  1  0  0  0  0
  5  9  1  0  0  0  0
  5  6  2  0  0  0  0
  6  1  1  0  0  0  0
  6 10  1  0  0  0  0
  7  3  1  0  0  0  0
  8  4  1  0  0  0  0
 11 17  1  0  0  0  0
 11 16  1  0  0  0  0
 12 11  2  0  0  0  0
 13 14  2  0  0  0  0
 13 12  1  0  0  0  0
 14 15  1  0  0  0  0
 15 19  1  0  0  0  0
 15 16  2  0  0  0  0
 18 12  1  0  0  0  0
 20 22  1  0  0  0  0
 21 20  1  0  0  0  0
 23 20  1  0  0  0  0
 23 25  1  0  0  0  0
 24 23  1  0  0  0  0
 25 26  1  0  0  0  0
 25 27  1  0  0  0  0
 28 25  1  0  0  0  0
 29 28  1  0  0  0  0
M  END
>  <minimizedAffinity>
-4.52119875

>  <minimizedRMSD>
4.48985624

$$$$
