
 OpenBabel03242517393D

 31 32  0  0  0  0  0  0  0  0999 V2000
   38.1160   29.5700   41.4630 C   0  0  0  0  0  3  0  0  0  0  0  0
   38.4030   29.3530   42.7250 C   0  0  0  0  0  3  0  0  0  0  0  0
   38.4420   31.8270   40.4890 C   0  0  0  0  0  0  0  0  0  0  0  0
   38.7960   30.4840   40.5770 C   0  0  0  0  0  0  0  0  0  0  0  0
   39.8280   30.0430   39.7830 C   0  0  0  0  0  0  0  0  0  0  0  0
   40.4690   30.9160   38.9440 N   0  0  0  0  0  0  0  0  0  0  0  0
   40.0980   32.2170   38.8830 C   0  0  0  0  0  0  0  0  0  0  0  0
   39.0980   32.6570   39.6490 N   0  0  0  0  0  0  0  0  0  0  0  0
   37.6360   32.2000   41.1000 H   0  0  0  0  0  0  0  0  0  0  0  0
   40.1400   29.0120   39.8150 H   0  0  0  0  0  0  0  0  0  0  0  0
   40.7130   33.1740   38.0420 N   0  0  0  0  0  0  0  0  0  0  0  0
   40.1300   33.9570   37.6970 H   0  0  0  0  0  0  0  0  0  0  0  0
   42.3690   33.1050   37.5640 S   0  0  0  0  0  0  0  0  0  0  0  0
   42.6280   31.9020   36.6860 O   0  0  0  0  0  1  0  0  0  0  0  0
   43.2800   33.1340   38.7470 O   0  0  0  0  0  1  0  0  0  0  0  0
   42.6550   34.4900   36.6450 O   0  0  0  0  0  0  0  0  0  0  0  0
   42.9350   35.2530   37.2390 H   0  0  0  0  0  0  0  0  0  0  0  0
   37.6600   28.3900   43.5930 C   0  0  0  0  0  0  0  0  0  0  0  0
   36.5790   28.6270   43.4170 H   0  0  0  0  0  0  0  0  0  0  0  0
   37.8500   28.5450   44.6740 H   0  0  0  0  0  0  0  0  0  0  0  0
   37.8730   26.9890   43.1490 C   0  0  0  0  0  0  0  0  0  0  0  0
   39.1260   26.4100   43.3330 C   0  0  0  0  0  0  0  0  0  0  0  0
   39.3320   25.0950   42.9180 C   0  0  0  0  0  0  0  0  0  0  0  0
   38.3050   24.3550   42.3270 C   0  0  0  0  0  0  0  0  0  0  0  0
   37.0600   24.9230   42.1420 C   0  0  0  0  0  0  0  0  0  0  0  0
   36.8750   26.2340   42.5610 C   0  0  0  0  0  0  0  0  0  0  0  0
   39.9200   26.9760   43.7880 H   0  0  0  0  0  0  0  0  0  0  0  0
   40.3340   24.6870   43.0850 H   0  0  0  0  0  0  0  0  0  0  0  0
   38.4840   23.3540   42.0180 H   0  0  0  0  0  0  0  0  0  0  0  0
   36.2420   24.3840   41.6890 H   0  0  0  0  0  0  0  0  0  0  0  0
   35.8940   26.6560   42.4060 H   0  0  0  0  0  0  0  0  0  0  0  0
  1  2  2  0  0  0  0
  2 18  1  0  0  0  0
  3  4  1  0  0  0  0
  3  9  1  0  0  0  0
  4  1  1  0  0  0  0
  5 10  1  0  0  0  0
  5  4  2  0  0  0  0
  6  5  1  0  0  0  0
  7  6  2  0  0  0  0
  7  8  1  0  0  0  0
  8  3  2  0  0  0  0
 11  7  1  0  0  0  0
 12 11  1  0  0  0  0
 13 11  1  0  0  0  0
 13 15  1  0  0  0  0
 14 13  1  0  0  0  0
 16 17  1  0  0  0  0
 16 13  1  0  0  0  0
 18 20  1  0  0  0  0
 19 18  1  0  0  0  0
 21 22  1  0  0  0  0
 21 18  1  0  0  0  0
 22 27  1  0  0  0  0
 23 28  1  0  0  0  0
 23 22  2  0  0  0  0
 24 23  1  0  0  0  0
 25 24  2  0  0  0  0
 25 26  1  0  0  0  0
 26 21  2  0  0  0  0
 29 24  1  0  0  0  0
 30 25  1  0  0  0  0
 31 26  1  0  0  0  0
M  END
>  <minimizedAffinity>
-6.01588058

$$$$

 OpenBabel03242517393D

 31 32  0  0  0  0  0  0  0  0999 V2000
   34.4020   29.1150   37.7100 C   0  0  0  0  0  3  0  0  0  0  0  0
   33.2370   28.6700   37.3030 C   0  0  0  0  0  3  0  0  0  0  0  0
   35.9240   27.4380   38.7210 C   0  0  0  0  0  0  0  0  0  0  0  0
   35.1730   28.6050   38.8190 C   0  0  0  0  0  0  0  0  0  0  0  0
   35.1830   29.2730   40.0210 C   0  0  0  0  0  0  0  0  0  0  0  0
   35.9170   28.7830   41.0700 N   0  0  0  0  0  0  0  0  0  0  0  0
   36.6370   27.6430   40.9400 C   0  0  0  0  0  0  0  0  0  0  0  0
   36.6340   26.9870   39.7780 N   0  0  0  0  0  0  0  0  0  0  0  0
   35.9340   26.8950   37.7900 H   0  0  0  0  0  0  0  0  0  0  0  0
   34.6180   30.1810   40.1480 H   0  0  0  0  0  0  0  0  0  0  0  0
   37.4170   27.0800   41.9780 N   0  0  0  0  0  0  0  0  0  0  0  0
   37.5340   26.0520   41.9870 H   0  0  0  0  0  0  0  0  0  0  0  0
   38.1740   28.0090   43.2180 S   0  0  0  0  0  0  0  0  0  0  0  0
   39.1040   29.0440   42.6260 O   0  0  0  0  0  1  0  0  0  0  0  0
   38.8760   27.1340   44.2030 O   0  0  0  0  0  1  0  0  0  0  0  0
   36.9360   28.8230   44.0240 O   0  0  0  0  0  0  0  0  0  0  0  0
   36.5740   28.2570   44.7730 H   0  0  0  0  0  0  0  0  0  0  0  0
   32.4870   29.2420   36.1440 C   0  0  0  0  0  0  0  0  0  0  0  0
   31.9600   28.3650   35.6870 H   0  0  0  0  0  0  0  0  0  0  0  0
   33.1510   29.6610   35.3620 H   0  0  0  0  0  0  0  0  0  0  0  0
   31.4360   30.1880   36.5970 C   0  0  0  0  0  0  0  0  0  0  0  0
   30.8250   29.9720   37.8300 C   0  0  0  0  0  0  0  0  0  0  0  0
   29.8370   30.8580   38.2600 C   0  0  0  0  0  0  0  0  0  0  0  0
   29.4560   31.9500   37.4780 C   0  0  0  0  0  0  0  0  0  0  0  0
   30.0590   32.1710   36.2550 C   0  0  0  0  0  0  0  0  0  0  0  0
   31.0390   31.2780   35.8440 C   0  0  0  0  0  0  0  0  0  0  0  0
   31.1150   29.1310   38.4360 H   0  0  0  0  0  0  0  0  0  0  0  0
   29.3880   30.6420   39.2350 H   0  0  0  0  0  0  0  0  0  0  0  0
   28.7010   32.6130   37.8260 H   0  0  0  0  0  0  0  0  0  0  0  0
   29.7910   33.0030   35.6230 H   0  0  0  0  0  0  0  0  0  0  0  0
   31.4950   31.4700   34.8850 H   0  0  0  0  0  0  0  0  0  0  0  0
  1  4  1  0  0  0  0
  2  1  2  0  0  0  0
  3  4  2  0  0  0  0
  3  8  1  0  0  0  0
  4  5  1  0  0  0  0
  5 10  1  0  0  0  0
  5  6  2  0  0  0  0
  7  6  1  0  0  0  0
  7 11  1  0  0  0  0
  8  7  2  0  0  0  0
  9  3  1  0  0  0  0
 11 12  1  0  0  0  0
 11 13  1  0  0  0  0
 13 16  1  0  0  0  0
 13 15  1  0  0  0  0
 14 13  1  0  0  0  0
 16 17  1  0  0  0  0
 18 21  1  0  0  0  0
 18  2  1  0  0  0  0
 19 18  1  0  0  0  0
 20 18  1  0  0  0  0
 21 22  1  0  0  0  0
 22 23  2  0  0  0  0
 22 27  1  0  0  0  0
 23 28  1  0  0  0  0
 24 29  1  0  0  0  0
 24 23  1  0  0  0  0
 25 24  2  0  0  0  0
 26 25  1  0  0  0  0
 26 21  2  0  0  0  0
 30 25  1  0  0  0  0
 31 26  1  0  0  0  0
M  END
>  <minimizedAffinity>
-5.79658461

$$$$

 OpenBabel03242517393D

 31 32  0  0  0  0  0  0  0  0999 V2000
   36.9460   27.2750   42.2590 C   0  0  0  0  0  3  0  0  0  0  0  0
   37.5830   26.1330   42.1560 C   0  0  0  0  0  3  0  0  0  0  0  0
   38.7810   28.9170   42.5520 C   0  0  0  0  0  0  0  0  0  0  0  0
   37.5140   28.5900   42.0800 C   0  0  0  0  0  0  0  0  0  0  0  0
   36.8030   29.5700   41.4280 C   0  0  0  0  0  0  0  0  0  0  0  0
   37.3480   30.8160   41.2620 N   0  0  0  0  0  0  0  0  0  0  0  0
   38.5850   31.1000   41.7350 C   0  0  0  0  0  0  0  0  0  0  0  0
   39.2840   30.1580   42.3690 N   0  0  0  0  0  0  0  0  0  0  0  0
   39.3600   28.1680   43.0670 H   0  0  0  0  0  0  0  0  0  0  0  0
   35.8170   29.3660   41.0430 H   0  0  0  0  0  0  0  0  0  0  0  0
   39.2100   32.3620   41.5990 N   0  0  0  0  0  0  0  0  0  0  0  0
   39.8770   32.6500   42.3370 H   0  0  0  0  0  0  0  0  0  0  0  0
   38.9200   33.4380   40.2830 S   0  0  0  0  0  0  0  0  0  0  0  0
   39.4190   32.8470   38.9830 O   0  0  0  0  0  1  0  0  0  0  0  0
   39.5100   34.7850   40.5400 O   0  0  0  0  0  1  0  0  0  0  0  0
   37.2460   33.6080   40.1690 O   0  0  0  0  0  0  0  0  0  0  0  0
   36.9300   34.3620   40.7560 H   0  0  0  0  0  0  0  0  0  0  0  0
   36.9370   24.8000   42.3530 C   0  0  0  0  0  0  0  0  0  0  0  0
   35.8450   25.0270   42.4610 H   0  0  0  0  0  0  0  0  0  0  0  0
   37.2530   24.2980   43.2900 H   0  0  0  0  0  0  0  0  0  0  0  0
   37.0830   23.9470   41.1470 C   0  0  0  0  0  0  0  0  0  0  0  0
   35.9960   23.8090   40.2870 C   0  0  0  0  0  0  0  0  0  0  0  0
   36.1280   23.0080   39.1520 C   0  0  0  0  0  0  0  0  0  0  0  0
   37.3260   22.3500   38.8680 C   0  0  0  0  0  0  0  0  0  0  0  0
   38.4080   22.4830   39.7160 C   0  0  0  0  0  0  0  0  0  0  0  0
   38.2580   23.2830   40.8410 C   0  0  0  0  0  0  0  0  0  0  0  0
   35.0710   24.3140   40.5030 H   0  0  0  0  0  0  0  0  0  0  0  0
   35.2440   22.9330   38.5110 H   0  0  0  0  0  0  0  0  0  0  0  0
   37.4040   21.7450   37.9970 H   0  0  0  0  0  0  0  0  0  0  0  0
   39.3500   21.9900   39.5300 H   0  0  0  0  0  0  0  0  0  0  0  0
   39.1160   23.3720   41.4880 H   0  0  0  0  0  0  0  0  0  0  0  0
  2  1  2  0  0  0  0
  2 18  1  0  0  0  0
  3  9  1  0  0  0  0
  4  1  1  0  0  0  0
  4  3  2  0  0  0  0
  5  4  1  0  0  0  0
  6  5  2  0  0  0  0
  6  7  1  0  0  0  0
  7  8  2  0  0  0  0
  8  3  1  0  0  0  0
 10  5  1  0  0  0  0
 11  7  1  0  0  0  0
 11 12  1  0  0  0  0
 13 15  1  0  0  0  0
 13 11  1  0  0  0  0
 14 13  1  0  0  0  0
 16 13  1  0  0  0  0
 16 17  1  0  0  0  0
 18 19  1  0  0  0  0
 18 20  1  0  0  0  0
 21 18  1  0  0  0  0
 22 27  1  0  0  0  0
 22 21  2  0  0  0  0
 23 22  1  0  0  0  0
 24 23  2  0  0  0  0
 24 25  1  0  0  0  0
 25 26  2  0  0  0  0
 26 21  1  0  0  0  0
 26 31  1  0  0  0  0
 28 23  1  0  0  0  0
 29 24  1  0  0  0  0
 30 25  1  0  0  0  0
M  END
>  <minimizedAffinity>
-5.53457212

$$$$

 OpenBabel03242517393D

 31 32  0  0  0  0  0  0  0  0999 V2000
   33.9530   28.7680   37.9070 C   0  0  0  0  0  3  0  0  0  0  0  0
   33.7380   29.1250   36.6630 C   0  0  0  0  0  3  0  0  0  0  0  0
   36.2040   29.7720   38.1850 C   0  0  0  0  0  0  0  0  0  0  0  0
   35.1700   28.9680   38.6560 C   0  0  0  0  0  0  0  0  0  0  0  0
   35.3420   28.3580   39.8770 C   0  0  0  0  0  0  0  0  0  0  0  0
   36.5010   28.5520   40.5820 N   0  0  0  0  0  0  0  0  0  0  0  0
   37.4870   29.3410   40.0930 C   0  0  0  0  0  0  0  0  0  0  0  0
   37.3310   29.9380   38.9100 N   0  0  0  0  0  0  0  0  0  0  0  0
   36.0960   30.2620   37.2310 H   0  0  0  0  0  0  0  0  0  0  0  0
   34.5720   27.7250   40.2850 H   0  0  0  0  0  0  0  0  0  0  0  0
   38.7070   29.5860   40.7650 N   0  0  0  0  0  0  0  0  0  0  0  0
   39.5460   29.7710   40.1880 H   0  0  0  0  0  0  0  0  0  0  0  0
   38.8700   29.5930   42.4830 S   0  0  0  0  0  0  0  0  0  0  0  0
   39.5720   30.8470   42.9530 O   0  0  0  0  0  1  0  0  0  0  0  0
   39.5540   28.3590   42.9710 O   0  0  0  0  0  1  0  0  0  0  0  0
   37.3030   29.6090   43.1070 O   0  0  0  0  0  0  0  0  0  0  0  0
   36.9610   28.6700   43.2180 H   0  0  0  0  0  0  0  0  0  0  0  0
   32.4510   28.8890   35.9410 C   0  0  0  0  0  0  0  0  0  0  0  0
   31.8620   28.2240   36.6230 H   0  0  0  0  0  0  0  0  0  0  0  0
   32.5830   28.3350   34.9900 H   0  0  0  0  0  0  0  0  0  0  0  0
   31.6790   30.1480   35.7920 C   0  0  0  0  0  0  0  0  0  0  0  0
   31.7260   30.8230   34.5750 C   0  0  0  0  0  0  0  0  0  0  0  0
   31.0020   32.0070   34.4290 C   0  0  0  0  0  0  0  0  0  0  0  0
   30.2350   32.5180   35.4770 C   0  0  0  0  0  0  0  0  0  0  0  0
   30.1830   31.8520   36.6860 C   0  0  0  0  0  0  0  0  0  0  0  0
   30.9110   30.6770   36.8130 C   0  0  0  0  0  0  0  0  0  0  0  0
   32.3160   30.4330   33.7640 H   0  0  0  0  0  0  0  0  0  0  0  0
   31.0730   32.4980   33.4530 H   0  0  0  0  0  0  0  0  0  0  0  0
   29.6900   33.4210   35.3440 H   0  0  0  0  0  0  0  0  0  0  0  0
   29.6020   32.2170   37.5200 H   0  0  0  0  0  0  0  0  0  0  0  0
   30.8550   30.1750   37.7660 H   0  0  0  0  0  0  0  0  0  0  0  0
  1  4  1  0  0  0  0
  2  1  2  0  0  0  0
  3  4  2  0  0  0  0
  3  8  1  0  0  0  0
  4  5  1  0  0  0  0
  5 10  1  0  0  0  0
  5  6  2  0  0  0  0
  7  6  1  0  0  0  0
  7 11  1  0  0  0  0
  8  7  2  0  0  0  0
  9  3  1  0  0  0  0
 11 13  1  0  0  0  0
 12 11  1  0  0  0  0
 13 14  1  0  0  0  0
 13 15  1  0  0  0  0
 13 16  1  0  0  0  0
 16 17  1  0  0  0  0
 18 19  1  0  0  0  0
 18  2  1  0  0  0  0
 20 18  1  0  0  0  0
 21 18  1  0  0  0  0
 21 26  1  0  0  0  0
 22 21  2  0  0  0  0
 23 22  1  0  0  0  0
 23 24  2  0  0  0  0
 24 25  1  0  0  0  0
 25 26  2  0  0  0  0
 25 30  1  0  0  0  0
 26 31  1  0  0  0  0
 27 22  1  0  0  0  0
 28 23  1  0  0  0  0
 29 24  1  0  0  0  0
M  END
>  <minimizedAffinity>
-5.29462004

$$$$

 OpenBabel03242517393D

 31 32  0  0  0  0  0  0  0  0999 V2000
   36.7620   27.1540   41.1670 C   0  0  0  0  0  3  0  0  0  0  0  0
   37.1910   26.4330   42.1750 C   0  0  0  0  0  3  0  0  0  0  0  0
   36.0020   29.5140   41.2430 C   0  0  0  0  0  0  0  0  0  0  0  0
   36.9840   28.5660   40.9700 C   0  0  0  0  0  0  0  0  0  0  0  0
   38.1940   29.0200   40.5000 C   0  0  0  0  0  0  0  0  0  0  0  0
   38.3990   30.3620   40.3160 N   0  0  0  0  0  0  0  0  0  0  0  0
   37.4200   31.2570   40.5910 C   0  0  0  0  0  0  0  0  0  0  0  0
   36.2420   30.8290   41.0480 N   0  0  0  0  0  0  0  0  0  0  0  0
   35.0440   29.1870   41.6130 H   0  0  0  0  0  0  0  0  0  0  0  0
   38.9870   28.3260   40.2740 H   0  0  0  0  0  0  0  0  0  0  0  0
   37.5600   32.6540   40.4260 N   0  0  0  0  0  0  0  0  0  0  0  0
   36.7110   33.1990   40.1960 H   0  0  0  0  0  0  0  0  0  0  0  0
   39.0600   33.4920   40.5850 S   0  0  0  0  0  0  0  0  0  0  0  0
   38.8380   34.9090   41.0630 O   0  0  0  0  0  1  0  0  0  0  0  0
   39.8440   33.4540   39.3140 O   0  0  0  0  0  1  0  0  0  0  0  0
   39.9370   32.6740   41.7700 O   0  0  0  0  0  0  0  0  0  0  0  0
   40.4790   31.9340   41.3570 H   0  0  0  0  0  0  0  0  0  0  0  0
   36.9270   24.9700   42.3220 C   0  0  0  0  0  0  0  0  0  0  0  0
   35.8170   24.8940   42.4540 H   0  0  0  0  0  0  0  0  0  0  0  0
   37.3880   24.5350   43.2320 H   0  0  0  0  0  0  0  0  0  0  0  0
   37.2640   24.2330   41.0780 C   0  0  0  0  0  0  0  0  0  0  0  0
   36.2290   23.7150   40.3030 C   0  0  0  0  0  0  0  0  0  0  0  0
   36.5410   23.0220   39.1330 C   0  0  0  0  0  0  0  0  0  0  0  0
   37.8660   22.8440   38.7310 C   0  0  0  0  0  0  0  0  0  0  0  0
   38.8970   23.3550   39.4940 C   0  0  0  0  0  0  0  0  0  0  0  0
   38.5670   24.0410   40.6560 C   0  0  0  0  0  0  0  0  0  0  0  0
   35.2070   23.8510   40.6100 H   0  0  0  0  0  0  0  0  0  0  0  0
   35.6910   22.6360   38.5610 H   0  0  0  0  0  0  0  0  0  0  0  0
   38.0800   22.3120   37.8350 H   0  0  0  0  0  0  0  0  0  0  0  0
   39.9340   23.2360   39.2160 H   0  0  0  0  0  0  0  0  0  0  0  0
   39.3890   24.4310   41.2350 H   0  0  0  0  0  0  0  0  0  0  0  0
  1  2  2  0  0  0  0
  2 18  1  0  0  0  0
  3  9  1  0  0  0  0
  4  1  1  0  0  0  0
  4  3  2  0  0  0  0
  5  4  1  0  0  0  0
  6  5  2  0  0  0  0
  6  7  1  0  0  0  0
  7  8  2  0  0  0  0
  8  3  1  0  0  0  0
 10  5  1  0  0  0  0
 11 13  1  0  0  0  0
 11  7  1  0  0  0  0
 12 11  1  0  0  0  0
 13 14  1  0  0  0  0
 13 16  1  0  0  0  0
 15 13  1  0  0  0  0
 17 16  1  0  0  0  0
 18 19  1  0  0  0  0
 18 20  1  0  0  0  0
 21 18  1  0  0  0  0
 22 27  1  0  0  0  0
 22 21  2  0  0  0  0
 23 22  1  0  0  0  0
 24 23  2  0  0  0  0
 24 25  1  0  0  0  0
 25 26  2  0  0  0  0
 26 21  1  0  0  0  0
 26 31  1  0  0  0  0
 28 23  1  0  0  0  0
 29 24  1  0  0  0  0
 30 25  1  0  0  0  0
M  END
>  <minimizedAffinity>
-5.27647638

$$$$

 OpenBabel03242517393D

 31 32  0  0  0  0  0  0  0  0999 V2000
   34.4990   28.8810   37.1040 C   0  0  0  0  0  3  0  0  0  0  0  0
   33.2110   29.0320   36.9060 C   0  0  0  0  0  3  0  0  0  0  0  0
   34.5860   29.1570   39.5680 C   0  0  0  0  0  0  0  0  0  0  0  0
   35.1540   28.7090   38.3780 C   0  0  0  0  0  0  0  0  0  0  0  0
   36.3780   28.0870   38.4510 C   0  0  0  0  0  0  0  0  0  0  0  0
   36.9940   27.9260   39.6640 N   0  0  0  0  0  0  0  0  0  0  0  0
   36.4130   28.3750   40.8020 C   0  0  0  0  0  0  0  0  0  0  0  0
   35.2250   28.9800   40.7440 N   0  0  0  0  0  0  0  0  0  0  0  0
   33.6270   29.6480   39.5400 H   0  0  0  0  0  0  0  0  0  0  0  0
   36.8600   27.7220   37.5590 H   0  0  0  0  0  0  0  0  0  0  0  0
   36.9900   28.2440   42.0870 N   0  0  0  0  0  0  0  0  0  0  0  0
   36.7670   28.9700   42.7900 H   0  0  0  0  0  0  0  0  0  0  0  0
   38.0360   26.9500   42.5400 S   0  0  0  0  0  0  0  0  0  0  0  0
   37.3250   25.6200   42.4370 O   0  0  0  0  0  1  0  0  0  0  0  0
   38.6140   27.1650   43.9000 O   0  0  0  0  0  1  0  0  0  0  0  0
   39.3010   26.9500   41.4240 O   0  0  0  0  0  0  0  0  0  0  0  0
   40.0410   27.5580   41.7330 H   0  0  0  0  0  0  0  0  0  0  0  0
   32.5920   29.2070   35.5580 C   0  0  0  0  0  0  0  0  0  0  0  0
   31.9480   28.3000   35.4220 H   0  0  0  0  0  0  0  0  0  0  0  0
   33.3340   29.1980   34.7350 H   0  0  0  0  0  0  0  0  0  0  0  0
   31.6880   30.3850   35.5280 C   0  0  0  0  0  0  0  0  0  0  0  0
   30.9580   30.6990   36.6710 C   0  0  0  0  0  0  0  0  0  0  0  0
   30.1080   31.8050   36.6480 C   0  0  0  0  0  0  0  0  0  0  0  0
   29.9810   32.5960   35.5040 C   0  0  0  0  0  0  0  0  0  0  0  0
   30.7030   32.2890   34.3670 C   0  0  0  0  0  0  0  0  0  0  0  0
   31.5430   31.1850   34.4090 C   0  0  0  0  0  0  0  0  0  0  0  0
   31.0520   30.0930   37.5550 H   0  0  0  0  0  0  0  0  0  0  0  0
   29.5570   32.0090   37.5720 H   0  0  0  0  0  0  0  0  0  0  0  0
   29.3280   33.4340   35.5090 H   0  0  0  0  0  0  0  0  0  0  0  0
   30.6320   32.8760   33.4640 H   0  0  0  0  0  0  0  0  0  0  0  0
   32.0970   30.9650   33.5090 H   0  0  0  0  0  0  0  0  0  0  0  0
  1  4  1  0  0  0  0
  2  1  2  0  0  0  0
  3  8  1  0  0  0  0
  4  5  1  0  0  0  0
  4  3  2  0  0  0  0
  5  6  2  0  0  0  0
  6  7  1  0  0  0  0
  7 11  1  0  0  0  0
  8  7  2  0  0  0  0
  9  3  1  0  0  0  0
 10  5  1  0  0  0  0
 11 13  1  0  0  0  0
 11 12  1  0  0  0  0
 13 15  1  0  0  0  0
 14 13  1  0  0  0  0
 16 17  1  0  0  0  0
 16 13  1  0  0  0  0
 18  2  1  0  0  0  0
 19 18  1  0  0  0  0
 20 18  1  0  0  0  0
 21 18  1  0  0  0  0
 21 22  1  0  0  0  0
 22 27  1  0  0  0  0
 23 22  2  0  0  0  0
 23 28  1  0  0  0  0
 24 29  1  0  0  0  0
 24 23  1  0  0  0  0
 25 26  1  0  0  0  0
 25 24  2  0  0  0  0
 26 21  2  0  0  0  0
 30 25  1  0  0  0  0
 31 26  1  0  0  0  0
M  END
>  <minimizedAffinity>
-5.25136805

$$$$

 OpenBabel03242517393D

 31 32  0  0  0  0  0  0  0  0999 V2000
   36.8530   27.3260   40.8790 C   0  0  0  0  0  3  0  0  0  0  0  0
   36.6530   27.9760   42.0010 C   0  0  0  0  0  3  0  0  0  0  0  0
   35.3800   28.6590   39.3940 C   0  0  0  0  0  0  0  0  0  0  0  0
   36.3930   27.7210   39.5690 C   0  0  0  0  0  0  0  0  0  0  0  0
   36.9560   27.1700   38.4420 C   0  0  0  0  0  0  0  0  0  0  0  0
   36.5150   27.5500   37.2010 N   0  0  0  0  0  0  0  0  0  0  0  0
   35.5260   28.4650   37.0670 C   0  0  0  0  0  0  0  0  0  0  0  0
   34.9720   29.0060   38.1530 N   0  0  0  0  0  0  0  0  0  0  0  0
   34.9220   29.1060   40.2600 H   0  0  0  0  0  0  0  0  0  0  0  0
   37.7430   26.4400   38.5240 H   0  0  0  0  0  0  0  0  0  0  0  0
   35.0210   28.9040   35.8200 N   0  0  0  0  0  0  0  0  0  0  0  0
   34.0300   29.1980   35.7790 H   0  0  0  0  0  0  0  0  0  0  0  0
   35.9630   28.9730   34.3760 S   0  0  0  0  0  0  0  0  0  0  0  0
   35.8950   30.3490   33.7530 O   0  0  0  0  0  1  0  0  0  0  0  0
   35.5610   27.9080   33.4110 O   0  0  0  0  0  1  0  0  0  0  0  0
   37.5600   28.6900   34.8380 O   0  0  0  0  0  0  0  0  0  0  0  0
   37.7570   27.7030   34.8310 H   0  0  0  0  0  0  0  0  0  0  0  0
   37.1560   27.5140   43.3300 C   0  0  0  0  0  0  0  0  0  0  0  0
   36.8600   26.4340   43.3850 H   0  0  0  0  0  0  0  0  0  0  0  0
   36.6630   28.0240   44.1820 H   0  0  0  0  0  0  0  0  0  0  0  0
   38.6390   27.5580   43.3910 C   0  0  0  0  0  0  0  0  0  0  0  0
   39.3240   26.4460   43.8740 C   0  0  0  0  0  0  0  0  0  0  0  0
   40.7170   26.4820   43.9330 C   0  0  0  0  0  0  0  0  0  0  0  0
   41.4290   27.6090   43.5150 C   0  0  0  0  0  0  0  0  0  0  0  0
   40.7550   28.7140   43.0340 C   0  0  0  0  0  0  0  0  0  0  0  0
   39.3690   28.6600   42.9840 C   0  0  0  0  0  0  0  0  0  0  0  0
   38.7800   25.5760   44.1980 H   0  0  0  0  0  0  0  0  0  0  0  0
   41.2070   25.5830   44.3210 H   0  0  0  0  0  0  0  0  0  0  0  0
   42.4900   27.6140   43.5690 H   0  0  0  0  0  0  0  0  0  0  0  0
   41.2700   29.6030   42.7030 H   0  0  0  0  0  0  0  0  0  0  0  0
   38.8650   29.5350   42.6040 H   0  0  0  0  0  0  0  0  0  0  0  0
  1  2  2  0  0  0  0
  2 18  1  0  0  0  0
  3  4  1  0  0  0  0
  3  9  1  0  0  0  0
  4  1  1  0  0  0  0
  5 10  1  0  0  0  0
  5  4  2  0  0  0  0
  6  5  1  0  0  0  0
  7  6  2  0  0  0  0
  7  8  1  0  0  0  0
  8  3  2  0  0  0  0
 11  7  1  0  0  0  0
 12 11  1  0  0  0  0
 13 16  1  0  0  0  0
 13 11  1  0  0  0  0
 14 13  1  0  0  0  0
 15 13  1  0  0  0  0
 17 16  1  0  0  0  0
 18 19  1  0  0  0  0
 18 21  1  0  0  0  0
 18 20  1  0  0  0  0
 21 22  1  0  0  0  0
 22 23  2  0  0  0  0
 22 27  1  0  0  0  0
 23 28  1  0  0  0  0
 24 29  1  0  0  0  0
 24 23  1  0  0  0  0
 25 24  2  0  0  0  0
 26 25  1  0  0  0  0
 26 21  2  0  0  0  0
 30 25  1  0  0  0  0
 31 26  1  0  0  0  0
M  END
>  <minimizedAffinity>
-5.07083082

$$$$

 OpenBabel03242517393D

 31 32  0  0  0  0  0  0  0  0999 V2000
   37.9550   30.2550   40.8300 C   0  0  0  0  0  3  0  0  0  0  0  0
   37.6440   29.1980   41.5420 C   0  0  0  0  0  3  0  0  0  0  0  0
   38.3980   31.3710   38.6590 C   0  0  0  0  0  0  0  0  0  0  0  0
   37.6940   30.4440   39.4230 C   0  0  0  0  0  0  0  0  0  0  0  0
   36.7260   29.7000   38.7910 C   0  0  0  0  0  0  0  0  0  0  0  0
   36.4830   29.8850   37.4550 N   0  0  0  0  0  0  0  0  0  0  0  0
   37.1870   30.7960   36.7420 C   0  0  0  0  0  0  0  0  0  0  0  0
   38.1290   31.5240   37.3440 N   0  0  0  0  0  0  0  0  0  0  0  0
   39.1620   31.9670   39.1290 H   0  0  0  0  0  0  0  0  0  0  0  0
   36.1530   28.9700   39.3380 H   0  0  0  0  0  0  0  0  0  0  0  0
   36.9910   31.0400   35.3620 N   0  0  0  0  0  0  0  0  0  0  0  0
   37.1830   31.9940   35.0100 H   0  0  0  0  0  0  0  0  0  0  0  0
   36.4530   29.8410   34.2440 S   0  0  0  0  0  0  0  0  0  0  0  0
   36.7660   30.2500   32.8230 O   0  0  0  0  0  1  0  0  0  0  0  0
   35.0030   29.5360   34.4270 O   0  0  0  0  0  1  0  0  0  0  0  0
   37.3330   28.4430   34.5890 O   0  0  0  0  0  0  0  0  0  0  0  0
   36.8610   27.8960   35.2890 H   0  0  0  0  0  0  0  0  0  0  0  0
   37.9420   29.0620   43.0000 C   0  0  0  0  0  0  0  0  0  0  0  0
   37.0480   28.5360   43.4240 H   0  0  0  0  0  0  0  0  0  0  0  0
   38.0170   30.0370   43.5210 H   0  0  0  0  0  0  0  0  0  0  0  0
   39.1120   28.1770   43.2310 C   0  0  0  0  0  0  0  0  0  0  0  0
   40.3820   28.6450   42.9050 C   0  0  0  0  0  0  0  0  0  0  0  0
   41.4850   27.8180   43.1200 C   0  0  0  0  0  0  0  0  0  0  0  0
   41.3330   26.5370   43.6550 C   0  0  0  0  0  0  0  0  0  0  0  0
   40.0760   26.0660   43.9810 C   0  0  0  0  0  0  0  0  0  0  0  0
   38.9910   26.9040   43.7590 C   0  0  0  0  0  0  0  0  0  0  0  0
   40.5040   29.6320   42.4930 H   0  0  0  0  0  0  0  0  0  0  0  0
   42.4600   28.2340   42.8470 H   0  0  0  0  0  0  0  0  0  0  0  0
   42.1870   25.9230   43.8100 H   0  0  0  0  0  0  0  0  0  0  0  0
   39.9190   25.0820   44.3950 H   0  0  0  0  0  0  0  0  0  0  0  0
   38.0200   26.5150   44.0210 H   0  0  0  0  0  0  0  0  0  0  0  0
  1  2  2  0  0  0  0
  2 18  1  0  0  0  0
  3  9  1  0  0  0  0
  3  4  1  0  0  0  0
  4  1  1  0  0  0  0
  5 10  1  0  0  0  0
  5  4  2  0  0  0  0
  6  5  1  0  0  0  0
  7  8  1  0  0  0  0
  7  6  2  0  0  0  0
  8  3  2  0  0  0  0
 11  7  1  0  0  0  0
 12 11  1  0  0  0  0
 13 15  1  0  0  0  0
 13 16  1  0  0  0  0
 13 11  1  0  0  0  0
 14 13  1  0  0  0  0
 16 17  1  0  0  0  0
 18 21  1  0  0  0  0
 18 19  1  0  0  0  0
 18 20  1  0  0  0  0
 21 26  1  0  0  0  0
 22 23  1  0  0  0  0
 22 21  2  0  0  0  0
 23 24  2  0  0  0  0
 24 29  1  0  0  0  0
 24 25  1  0  0  0  0
 25 30  1  0  0  0  0
 26 25  2  0  0  0  0
 26 31  1  0  0  0  0
 27 22  1  0  0  0  0
 28 23  1  0  0  0  0
M  END
>  <minimizedAffinity>
-5.0563612

$$$$

 OpenBabel03242517393D

 31 32  0  0  0  0  0  0  0  0999 V2000
   34.3160   28.9010   38.8690 C   0  0  0  0  0  3  0  0  0  0  0  0
   34.2590   28.9160   37.5580 C   0  0  0  0  0  3  0  0  0  0  0  0
   35.7130   28.7920   40.9150 C   0  0  0  0  0  0  0  0  0  0  0  0
   35.4130   29.3650   39.6820 C   0  0  0  0  0  0  0  0  0  0  0  0
   36.2050   30.4040   39.2520 C   0  0  0  0  0  0  0  0  0  0  0  0
   37.2460   30.8390   40.0300 N   0  0  0  0  0  0  0  0  0  0  0  0
   37.5090   30.2590   41.2250 C   0  0  0  0  0  0  0  0  0  0  0  0
   36.7480   29.2510   41.6530 N   0  0  0  0  0  0  0  0  0  0  0  0
   35.1090   27.9770   41.2770 H   0  0  0  0  0  0  0  0  0  0  0  0
   36.0150   30.8810   38.3050 H   0  0  0  0  0  0  0  0  0  0  0  0
   38.5650   30.6560   42.0790 N   0  0  0  0  0  0  0  0  0  0  0  0
   38.4320   30.5310   43.0980 H   0  0  0  0  0  0  0  0  0  0  0  0
   40.0490   31.3320   41.5170 S   0  0  0  0  0  0  0  0  0  0  0  0
   39.8290   32.7160   40.9480 O   0  0  0  0  0  1  0  0  0  0  0  0
   40.7220   30.4310   40.5350 O   0  0  0  0  0  1  0  0  0  0  0  0
   41.0460   31.4780   42.8690 O   0  0  0  0  0  0  0  0  0  0  0  0
   41.5710   30.6310   43.0090 H   0  0  0  0  0  0  0  0  0  0  0  0
   33.0910   28.4190   36.7710 C   0  0  0  0  0  0  0  0  0  0  0  0
   32.4470   27.8920   37.5210 H   0  0  0  0  0  0  0  0  0  0  0  0
   33.3710   27.6670   36.0050 H   0  0  0  0  0  0  0  0  0  0  0  0
   32.2880   29.5450   36.2290 C   0  0  0  0  0  0  0  0  0  0  0  0
   32.4850   29.9330   34.9060 C   0  0  0  0  0  0  0  0  0  0  0  0
   31.7340   30.9900   34.3920 C   0  0  0  0  0  0  0  0  0  0  0  0
   30.7930   31.6570   35.1790 C   0  0  0  0  0  0  0  0  0  0  0  0
   30.5920   31.2760   36.4910 C   0  0  0  0  0  0  0  0  0  0  0  0
   31.3500   30.2230   36.9850 C   0  0  0  0  0  0  0  0  0  0  0  0
   33.2090   29.4220   34.2960 H   0  0  0  0  0  0  0  0  0  0  0  0
   31.9270   31.2560   33.3480 H   0  0  0  0  0  0  0  0  0  0  0  0
   30.2310   32.4600   34.7660 H   0  0  0  0  0  0  0  0  0  0  0  0
   29.8750   31.7680   37.1310 H   0  0  0  0  0  0  0  0  0  0  0  0
   31.1760   29.9440   38.0130 H   0  0  0  0  0  0  0  0  0  0  0  0
  1  4  1  0  0  0  0
  2  1  2  0  0  0  0
  3  9  1  0  0  0  0
  3  8  1  0  0  0  0
  4  3  2  0  0  0  0
  5  4  1  0  0  0  0
  5  6  2  0  0  0  0
  6  7  1  0  0  0  0
  7  8  2  0  0  0  0
  7 11  1  0  0  0  0
 10  5  1  0  0  0  0
 11 12  1  0  0  0  0
 13 11  1  0  0  0  0
 13 16  1  0  0  0  0
 14 13  1  0  0  0  0
 15 13  1  0  0  0  0
 16 17  1  0  0  0  0
 18 19  1  0  0  0  0
 18  2  1  0  0  0  0
 20 18  1  0  0  0  0
 21 18  1  0  0  0  0
 21 26  1  0  0  0  0
 22 21  2  0  0  0  0
 23 22  1  0  0  0  0
 23 24  2  0  0  0  0
 24 25  1  0  0  0  0
 25 26  2  0  0  0  0
 25 30  1  0  0  0  0
 26 31  1  0  0  0  0
 27 22  1  0  0  0  0
 28 23  1  0  0  0  0
 29 24  1  0  0  0  0
M  END
>  <minimizedAffinity>
-5.02142715

$$$$
