
 OpenBabel03252501453D

 26 27  0  0  1  0  0  0  0  0999 V2000
   44.2180   35.5100   43.0760 C   0  0  0  0  0  0  0  0  0  0  0  0
   43.4910   34.8260   42.1020 C   0  0  0  0  0  0  0  0  0  0  0  0
   43.7170   33.4710   41.9380 C   0  0  0  0  0  0  0  0  0  0  0  0
   44.6430   32.8630   42.7390 N   0  0  0  0  0  0  0  0  0  0  0  0
   45.3350   33.5570   43.6780 C   0  0  0  0  0  0  0  0  0  0  0  0
   45.1080   34.8570   43.8250 N   0  0  0  0  0  0  0  0  0  0  0  0
   44.0390   36.5800   43.2040 H   0  0  0  0  0  0  0  0  0  0  0  0
   43.1930   32.8490   41.1990 H   0  0  0  0  0  0  0  0  0  0  0  0
   47.7120   32.9910   43.9710 C   0  0  1  0  0  3  0  0  0  0  0  0
   46.3360   32.8220   44.5200 C   0  0  2  0  0  3  0  0  0  0  0  0
   45.9080   31.3910   44.7150 C   0  0  0  0  0  3  0  0  0  0  0  0
   44.9230   31.2430   44.2160 H   0  0  0  0  0  0  0  0  0  0  0  0
   46.8520   30.4880   44.2740 O   0  0  0  0  0  0  0  0  0  0  0  0
   47.2200   30.7360   42.9470 C   0  0  0  0  0  3  0  0  0  0  0  0
   46.3160   30.7030   42.3070 H   0  0  0  0  0  0  0  0  0  0  0  0
   47.9690   32.0390   42.8390 C   0  0  1  0  0  3  0  0  0  0  0  0
   47.8280   34.2890   43.4900 O   0  0  0  0  0  0  0  0  0  0  0  0
   48.1240   34.9530   44.1420 H   0  0  0  0  0  0  0  0  0  0  0  0
   47.5840   32.6870   41.6530 O   0  0  0  0  0  0  0  0  0  0  0  0
   48.2580   32.5100   40.9510 H   0  0  0  0  0  0  0  0  0  0  0  0
   42.5040   35.4890   41.2530 C   0  0  0  0  0  3  0  0  0  0  0  0
   41.2140   35.5620   41.4680 C   0  0  0  0  0  3  0  0  0  0  0  0
   40.2870   36.2760   40.5180 C   0  0  0  0  0  0  0  0  0  0  0  0
   39.2550   35.9580   40.6460 H   0  0  0  0  0  0  0  0  0  0  0  0
   40.3820   37.3510   40.7690 H   0  0  0  0  0  0  0  0  0  0  0  0
   40.7140   36.1370   39.5060 H   0  0  0  0  0  0  0  0  0  0  0  0
  1  7  1  0  0  0  0
  1  6  1  0  0  0  0
  2  1  2  0  0  0  0
  3  2  1  0  0  0  0
  3  4  2  0  0  0  0
  4  5  1  0  0  0  0
  5  6  2  0  0  0  0
  8  3  1  0  0  0  0
  9 17  1  6  0  0  0
  9 10  1  0  0  0  0
 10  5  1  6  0  0  0
 10 11  1  0  0  0  0
 12 11  1  0  0  0  0
 13 11  1  0  0  0  0
 14 13  1  0  0  0  0
 15 14  1  0  0  0  0
 16 19  1  6  0  0  0
 16 14  1  0  0  0  0
 16  9  1  0  0  0  0
 17 18  1  0  0  0  0
 20 19  1  0  0  0  0
 21 22  2  0  0  0  0
 21  2  1  0  0  0  0
 23 24  1  0  0  0  0
 23 25  1  0  0  0  0
 23 22  1  0  0  0  0
 26 23  1  0  0  0  0
M  END
>  <minimizedAffinity>
-4.27837515

>  <minimizedRMSD>
2.67177677

$$$$
