
 OpenBabel03242519053D

 46 49  0  0  1  0  0  0  0  0999 V2000
   48.9460   33.1790   40.4900 N   0  0  0  0  0  0  0  0  0  0  0  0
   49.9650   33.3220   40.6840 H   0  0  0  0  0  0  0  0  0  0  0  0
   47.3340   33.4130   43.6550 N   0  0  0  0  0  0  0  0  0  0  0  0
   48.1170   34.0640   42.6180 C   0  0  0  0  0  0  0  0  0  0  0  0
   47.9980   33.0240   41.5460 C   0  0  2  0  0  0  0  0  0  0  0  0
   48.3440   31.7550   42.3060 C   0  0  0  0  0  0  0  0  0  0  0  0
   47.7490   32.0160   43.6660 C   0  0  0  0  0  0  0  0  0  0  0  0
   49.1770   34.1560   42.9070 H   0  0  0  0  0  0  0  0  0  0  0  0
   47.6980   35.0300   42.2890 H   0  0  0  0  0  0  0  0  0  0  0  0
   46.9720   32.9630   41.1270 H   0  0  0  0  0  0  0  0  0  0  0  0
   49.4290   31.5560   42.3230 H   0  0  0  0  0  0  0  0  0  0  0  0
   47.8130   30.8950   41.8160 H   0  0  0  0  0  0  0  0  0  0  0  0
   48.5620   31.8980   44.4070 H   0  0  0  0  0  0  0  0  0  0  0  0
   46.9350   31.3230   43.8980 H   0  0  0  0  0  0  0  0  0  0  0  0
   44.5730   35.4080   45.1520 C   0  0  0  0  0  0  0  0  0  0  0  0
   45.5070   34.9790   44.2150 C   0  0  0  0  0  0  0  0  0  0  0  0
   46.3600   33.9230   44.5210 C   0  0  0  0  0  0  0  0  0  0  0  0
   46.2140   33.3680   45.7530 N   0  0  0  0  0  0  0  0  0  0  0  0
   45.3170   33.7720   46.6650 C   0  0  0  0  0  0  0  0  0  0  0  0
   44.4880   34.8060   46.3550 N   0  0  0  0  0  0  0  0  0  0  0  0
   43.9320   36.2330   44.8680 H   0  0  0  0  0  0  0  0  0  0  0  0
   45.6340   35.4180   43.2200 H   0  0  0  0  0  0  0  0  0  0  0  0
   45.2460   33.2900   47.6360 H   0  0  0  0  0  0  0  0  0  0  0  0
   49.2230   32.1510   38.2520 C   0  0  0  0  0  0  0  0  0  0  0  0
   48.8230   33.1860   39.0880 C   0  0  0  0  0  0  0  0  0  0  0  0
   48.2830   34.2470   38.4130 C   0  0  0  0  0  0  0  0  0  0  0  0
   48.1220   34.3460   37.0500 C   0  0  0  0  0  0  0  0  0  0  0  0
   48.5340   33.2920   36.2650 C   0  0  0  0  0  0  0  0  0  0  0  0
   49.0870   32.1910   36.8810 C   0  0  0  0  0  0  0  0  0  0  0  0
   47.9350   35.1150   38.9610 H   0  0  0  0  0  0  0  0  0  0  0  0
   47.6870   35.2100   36.5660 H   0  0  0  0  0  0  0  0  0  0  0  0
   48.4620   33.2490   35.1870 H   0  0  0  0  0  0  0  0  0  0  0  0
   49.0210   29.7930   36.8340 C   0  0  2  0  0  3  0  0  0  0  0  0
   49.5600   31.0080   36.1110 C   0  0  2  0  0  3  0  0  0  0  0  0
   51.0580   30.8690   36.0880 C   0  0  0  0  0  3  0  0  0  0  0  0
   51.3410   30.4670   35.0740 H   0  0  0  0  0  0  0  0  0  0  0  0
   51.5010   29.9120   36.9950 O   0  0  0  0  0  0  0  0  0  0  0  0
   51.1330   28.6450   36.5490 C   0  0  0  0  0  3  0  0  0  0  0  0
   51.6300   28.4910   35.5660 H   0  0  0  0  0  0  0  0  0  0  0  0
   49.6390   28.5080   36.3300 C   0  0  1  0  0  3  0  0  0  0  0  0
   47.6490   29.6640   36.7690 O   0  0  0  0  0  0  0  0  0  0  0  0
   47.1880   30.1100   37.5210 H   0  0  0  0  0  0  0  0  0  0  0  0
   49.1190   27.4810   37.1280 O   0  0  0  0  0  0  0  0  0  0  0  0
   48.2810   27.7720   37.5970 H   0  0  0  0  0  0  0  0  0  0  0  0
   50.2730   30.0360   39.3930 N   0  0  0  0  0  0  0  0  0  0  0  0
   49.8130   30.9700   38.8820 C   0  0  0  0  0  0  0  0  0  0  0  0
  1  2  1  0  0  0  0
  1  5  1  0  0  0  0
  3  7  1  0  0  0  0
  3 17  1  0  0  0  0
  4  8  1  0  0  0  0
  4  3  1  0  0  0  0
  5 10  1  6  0  0  0
  5  6  1  0  0  0  0
  5  4  1  0  0  0  0
  6 11  1  0  0  0  0
  6  7  1  0  0  0  0
  7 14  1  0  0  0  0
  7 13  1  0  0  0  0
  9  4  1  0  0  0  0
 12  6  1  0  0  0  0
 15 20  1  0  0  0  0
 16 17  1  0  0  0  0
 16 15  2  0  0  0  0
 17 18  2  0  0  0  0
 18 19  1  0  0  0  0
 19 23  1  0  0  0  0
 20 19  2  0  0  0  0
 21 15  1  0  0  0  0
 22 16  1  0  0  0  0
 24 46  1  0  0  0  0
 24 25  1  0  0  0  0
 25  1  1  0  0  0  0
 26 30  1  0  0  0  0
 26 25  2  0  0  0  0
 27 26  1  0  0  0  0
 28 29  1  0  0  0  0
 28 27  2  0  0  0  0
 29 24  2  0  0  0  0
 31 27  1  0  0  0  0
 32 28  1  0  0  0  0
 33 41  1  6  0  0  0
 34 33  1  0  0  0  0
 34 29  1  1  0  0  0
 35 34  1  0  0  0  0
 35 37  1  0  0  0  0
 36 35  1  0  0  0  0
 38 37  1  0  0  0  0
 39 38  1  0  0  0  0
 40 38  1  0  0  0  0
 40 33  1  0  0  0  0
 40 43  1  1  0  0  0
 41 42  1  0  0  0  0
 43 44  1  0  0  0  0
 46 45  3  0  0  0  0
M  END
>  <minimizedAffinity>
-4.45110273

>  <minimizedRMSD>
0.294058233

$$$$
