
 OpenBabel03252504213D

 22 23  0  0  1  0  0  0  0  0999 V2000
   45.3610   31.3760   47.8590 C   0  0  1  0  0  0  0  0  0  0  0  0
   46.4400   32.1790   47.1310 C   0  0  1  0  0  0  0  0  0  0  0  0
   47.6290   31.2450   47.0600 C   0  0  0  0  0  0  0  0  0  0  0  0
   48.4120   31.5860   46.3810 H   0  0  0  0  0  0  0  0  0  0  0  0
   48.1440   31.1660   48.3270 O   0  0  0  0  0  0  0  0  0  0  0  0
   47.3130   30.6570   49.2800 C   0  0  0  0  0  0  0  0  0  0  0  0
   47.3630   29.5350   49.3630 H   0  0  0  0  0  0  0  0  0  0  0  0
   45.8900   31.0840   49.2330 C   0  0  1  0  0  0  0  0  0  0  0  0
   45.1710   34.4000   44.5030 C   0  0  0  0  0  0  0  0  0  0  0  0
   45.1060   33.5370   43.3920 C   0  0  0  0  0  0  0  0  0  0  0  0
   45.5010   32.2000   43.5630 C   0  0  0  0  0  0  0  0  0  0  0  0
   45.9240   31.8160   44.7960 N   0  0  0  0  0  0  0  0  0  0  0  0
   45.9710   32.6710   45.8320 C   0  0  0  0  0  0  0  0  0  0  0  0
   45.6030   33.9550   45.7070 N   0  0  0  0  0  0  0  0  0  0  0  0
   44.7660   33.8780   42.4320 H   0  0  0  0  0  0  0  0  0  0  0  0
   45.4650   31.5060   42.7310 H   0  0  0  0  0  0  0  0  0  0  0  0
   44.6460   36.0880   44.1840 S   0  0  0  0  0  0  0  0  0  0  0  0
   45.7130   36.8240   43.6610 H   0  0  0  0  0  0  0  0  0  0  0  0
   44.2320   32.1950   47.9470 O   0  0  0  0  0  0  0  0  0  0  0  0
   43.4810   31.7120   48.3640 H   0  0  0  0  0  0  0  0  0  0  0  0
   45.6420   32.2030   50.0360 O   0  0  0  0  0  0  0  0  0  0  0  0
   46.1540   32.9740   49.7220 H   0  0  0  0  0  0  0  0  0  0  0  0
  1 19  1  1  0  0  0
  1  8  1  0  0  0  0
  2 13  1  6  0  0  0
  2  1  1  0  0  0  0
  3  2  1  0  0  0  0
  3  5  1  0  0  0  0
  4  3  1  0  0  0  0
  5  6  1  0  0  0  0
  6  7  1  0  0  0  0
  8  6  1  0  0  0  0
  8 21  1  1  0  0  0
  9 14  1  0  0  0  0
 10 11  1  0  0  0  0
 10  9  2  0  0  0  0
 11 12  2  0  0  0  0
 12 13  1  0  0  0  0
 14 13  2  0  0  0  0
 15 10  1  0  0  0  0
 16 11  1  0  0  0  0
 17  9  1  0  0  0  0
 18 17  1  0  0  0  0
 19 20  1  0  0  0  0
 22 21  1  0  0  0  0
M  END
>  <minimizedAffinity>
-4.91917801

>  <minimizedRMSD>
2.22234416

$$$$
