
 OpenBabel03252507373D

 41 45  0  0  1  0  0  0  0  0999 V2000
   45.6910   34.7900   43.4790 C   0  0  0  0  0  0  0  0  0  0  0  0
   46.3890   33.7190   44.0950 C   0  0  0  0  0  0  0  0  0  0  0  0
   46.1280   33.4930   45.4450 C   0  0  0  0  0  0  0  0  0  0  0  0
   45.2590   34.2710   46.0850 N   0  0  0  0  0  0  0  0  0  0  0  0
   44.6040   35.2890   45.4770 C   0  0  0  0  0  0  0  0  0  0  0  0
   44.8220   35.5390   44.1910 N   0  0  0  0  0  0  0  0  0  0  0  0
   47.0830   33.0930   43.5980 H   0  0  0  0  0  0  0  0  0  0  0  0
   43.9170   35.8620   46.0860 H   0  0  0  0  0  0  0  0  0  0  0  0
   47.0150   32.6700   47.5560 C   0  0  0  0  0  0  0  0  0  0  0  0
   46.7840   32.4170   46.2020 C   0  0  0  0  0  0  0  0  0  0  0  0
   47.1720   31.2240   45.6890 C   0  0  0  0  0  0  0  0  0  0  0  0
   47.7860   30.2440   46.4420 C   0  0  0  0  0  0  0  0  0  0  0  0
   48.2440   29.0100   46.1390 N   0  0  0  0  0  0  0  0  0  0  0  0
   48.7690   28.4760   47.3060 C   0  0  0  0  0  0  0  0  0  0  0  0
   48.6170   29.3980   48.2900 N   0  0  0  0  0  0  0  0  0  0  0  0
   48.0220   30.4710   47.7700 C   0  0  0  0  0  0  0  0  0  0  0  0
   47.6390   31.6750   48.3230 C   0  0  0  0  0  0  0  0  0  0  0  0
   46.7560   33.5830   48.0950 H   0  0  0  0  0  0  0  0  0  0  0  0
   46.9770   31.0650   44.6390 H   0  0  0  0  0  0  0  0  0  0  0  0
   48.2220   28.5210   45.2100 H   0  0  0  0  0  0  0  0  0  0  0  0
   49.2130   27.4920   47.3780 H   0  0  0  0  0  0  0  0  0  0  0  0
   47.8430   31.8160   49.3770 H   0  0  0  0  0  0  0  0  0  0  0  0
   45.9440   35.0260   42.1270 O   0  0  0  0  0  0  0  0  0  0  0  0
   45.0710   34.5310   41.1640 C   0  0  0  0  0  0  0  0  0  0  0  0
   45.8990   33.7660   40.4300 C   0  0  0  0  0  0  0  0  0  0  0  0
   44.7200   33.0760   39.1040 S   0  0  0  0  0  0  0  0  0  0  0  0
   43.2990   34.0400   39.9000 C   0  0  0  0  0  0  0  0  0  0  0  0
   43.8280   34.5300   40.7330 N   0  0  0  0  0  0  0  0  0  0  0  0
   46.9340   33.3010   40.1660 H   0  0  0  0  0  0  0  0  0  0  0  0
   41.0330   33.5070   40.4550 C   0  0  1  0  0  3  0  0  0  0  0  0
   41.9190   33.9940   39.3620 C   0  0  1  0  0  3  0  0  0  0  0  0
   41.5320   35.4040   38.9700 C   0  0  0  0  0  3  0  0  0  0  0  0
   41.4740   35.5330   37.8710 H   0  0  0  0  0  0  0  0  0  0  0  0
   40.3010   35.7690   39.5350 O   0  0  0  0  0  0  0  0  0  0  0  0
   40.4300   35.8520   40.9210 C   0  0  0  0  0  3  0  0  0  0  0  0
   39.4140   36.1270   41.2890 H   0  0  0  0  0  0  0  0  0  0  0  0
   40.8320   34.5380   41.5150 C   0  0  1  0  0  3  0  0  0  0  0  0
   39.7960   33.0800   39.9270 O   0  0  0  0  0  0  0  0  0  0  0  0
   39.3490   32.4570   40.5570 H   0  0  0  0  0  0  0  0  0  0  0  0
   39.8480   34.0500   42.3850 O   0  0  0  0  0  0  0  0  0  0  0  0
   38.9890   34.4990   42.1290 H   0  0  0  0  0  0  0  0  0  0  0  0
  1  2  2  0  0  0  0
  1  6  1  0  0  0  0
  2  3  1  0  0  0  0
  3  4  2  0  0  0  0
  3 10  1  0  0  0  0
  5  4  1  0  0  0  0
  5  8  1  0  0  0  0
  6  5  2  0  0  0  0
  7  2  1  0  0  0  0
  9 18  1  0  0  0  0
  9 17  1  0  0  0  0
 10  9  2  0  0  0  0
 11 10  1  0  0  0  0
 11 12  2  0  0  0  0
 12 16  1  0  0  0  0
 13 12  1  0  0  0  0
 13 14  1  0  0  0  0
 14 21  1  0  0  0  0
 14 15  2  0  0  0  0
 16 15  1  0  0  0  0
 16 17  2  0  0  0  0
 17 22  1  0  0  0  0
 19 11  1  0  0  0  0
 20 13  1  0  0  0  0
 23  1  1  0  0  0  0
 24 23  1  0  0  0  0
 25 24  2  0  0  0  0
 26 27  1  0  0  0  0
 26 25  1  0  0  0  0
 27 28  2  0  0  0  0
 28 24  1  0  0  0  0
 29 25  1  0  0  0  0
 30 38  1  6  0  0  0
 30 37  1  0  0  0  0
 31 27  1  1  0  0  0
 31 30  1  0  0  0  0
 32 31  1  0  0  0  0
 32 34  1  0  0  0  0
 33 32  1  0  0  0  0
 34 35  1  0  0  0  0
 35 36  1  0  0  0  0
 35 37  1  0  0  0  0
 37 40  1  1  0  0  0
 38 39  1  0  0  0  0
 41 40  1  0  0  0  0
M  END
>  <minimizedAffinity>
-7.27221584

>  <minimizedRMSD>
1.13134217

$$$$
