
 OpenBabel03252506183D

 26 27  0  0  1  0  0  0  0  0999 V2000
   44.6890   35.5200   43.5600 C   0  0  0  0  0  0  0  0  0  0  0  0
   43.8780   35.4510   42.3980 C   0  0  0  0  0  0  0  0  0  0  0  0
   43.6960   34.2040   41.8160 C   0  0  0  0  0  0  0  0  0  0  0  0
   44.2950   33.1160   42.3790 N   0  0  0  0  0  0  0  0  0  0  0  0
   45.0650   33.2170   43.4910 C   0  0  0  0  0  0  0  0  0  0  0  0
   45.2450   34.4260   44.0600 N   0  0  0  0  0  0  0  0  0  0  0  0
   43.4130   36.3200   41.9700 H   0  0  0  0  0  0  0  0  0  0  0  0
   43.0880   34.0720   40.9230 H   0  0  0  0  0  0  0  0  0  0  0  0
   46.6560   31.3390   43.0880 C   0  0  2  0  0  3  0  0  0  0  0  0
   45.6640   31.9820   44.0140 C   0  0  1  0  0  3  0  0  0  0  0  0
   46.3900   32.3040   45.3270 C   0  0  0  0  0  3  0  0  0  0  0  0
   47.4060   32.7050   45.0380 H   0  0  0  0  0  0  0  0  0  0  0  0
   46.6190   31.0430   45.8800 O   0  0  0  0  0  0  0  0  0  0  0  0
   47.6900   30.4800   45.2420 C   0  0  0  0  0  3  0  0  0  0  0  0
   47.7250   29.4050   45.5910 H   0  0  0  0  0  0  0  0  0  0  0  0
   47.7330   30.5730   43.7700 C   0  0  2  0  0  3  0  0  0  0  0  0
   47.1460   32.3730   42.2670 O   0  0  0  0  0  0  0  0  0  0  0  0
   47.7930   32.8710   42.8370 H   0  0  0  0  0  0  0  0  0  0  0  0
   48.9530   31.1860   43.4060 O   0  0  0  0  0  0  0  0  0  0  0  0
   49.4060   30.7330   42.6760 H   0  0  0  0  0  0  0  0  0  0  0  0
   44.8870   36.8350   44.1840 C   0  0  0  0  0  3  0  0  0  0  0  0
   45.2270   37.8510   43.4020 C   0  0  0  0  0  3  0  0  0  0  0  0
   45.4410   39.2070   43.9830 C   0  0  0  0  0  0  0  0  0  0  0  0
   44.4610   39.6890   44.1670 H   0  0  0  0  0  0  0  0  0  0  0  0
   45.9490   39.1540   44.9840 H   0  0  0  0  0  0  0  0  0  0  0  0
   46.0100   39.8530   43.3040 H   0  0  0  0  0  0  0  0  0  0  0  0
  1  6  1  0  0  0  0
  1 21  1  0  0  0  0
  2  1  2  0  0  0  0
  3  4  2  0  0  0  0
  3  2  1  0  0  0  0
  4  5  1  0  0  0  0
  5  6  2  0  0  0  0
  7  2  1  0  0  0  0
  8  3  1  0  0  0  0
  9 17  1  1  0  0  0
  9 16  1  0  0  0  0
  9 10  1  0  0  0  0
 10  5  1  6  0  0  0
 10 11  1  0  0  0  0
 11 13  1  0  0  0  0
 12 11  1  0  0  0  0
 14 15  1  0  0  0  0
 14 13  1  0  0  0  0
 16 19  1  1  0  0  0
 16 14  1  0  0  0  0
 17 18  1  0  0  0  0
 20 19  1  0  0  0  0
 22 23  1  0  0  0  0
 22 21  2  0  0  0  0
 23 24  1  0  0  0  0
 23 25  1  0  0  0  0
 26 23  1  0  0  0  0
M  END
>  <minimizedAffinity>
-3.42077589

>  <minimizedRMSD>
1.06251407

$$$$
