
 OpenBabel03252507433D

 34 36  0  0  1  0  0  0  0  0999 V2000
   44.2620   34.6440   41.1570 C   0  0  0  0  0  0  0  0  0  0  0  0
   43.3460   35.6430   41.6210 C   0  0  0  0  0  0  0  0  0  0  0  0
   41.8300   35.2950   40.6260 S   0  0  0  0  0  0  0  0  0  0  0  0
   42.7030   33.8620   39.7620 C   0  0  0  0  0  0  0  0  0  0  0  0
   43.7370   33.8680   40.2360 N   0  0  0  0  0  0  0  0  0  0  0  0
   43.5640   36.3880   42.3750 H   0  0  0  0  0  0  0  0  0  0  0  0
   41.0540   32.0410   39.3760 C   0  0  1  0  0  3  0  0  0  0  0  0
   42.0300   33.0220   38.7160 C   0  0  2  0  0  3  0  0  0  0  0  0
   43.0990   32.2370   38.0380 C   0  0  0  0  0  3  0  0  0  0  0  0
   43.1910   32.5990   36.9860 H   0  0  0  0  0  0  0  0  0  0  0  0
   42.6960   30.8930   37.9040 O   0  0  0  0  0  0  0  0  0  0  0  0
   41.4400   30.8010   37.3150 C   0  0  0  0  0  3  0  0  0  0  0  0
   41.3770   31.4030   36.3730 H   0  0  0  0  0  0  0  0  0  0  0  0
   40.4010   31.2410   38.2980 C   0  0  2  0  0  3  0  0  0  0  0  0
   41.7550   31.3210   40.3100 O   0  0  0  0  0  0  0  0  0  0  0  0
   41.3190   31.2680   41.1930 H   0  0  0  0  0  0  0  0  0  0  0  0
   39.4320   32.0740   37.6930 O   0  0  0  0  0  0  0  0  0  0  0  0
   39.1560   32.7710   38.3360 H   0  0  0  0  0  0  0  0  0  0  0  0
   45.6330   34.5530   41.7010 C   0  0  0  0  0  0  0  0  0  0  0  0
   45.8890   35.4840   42.2420 H   0  0  0  0  0  0  0  0  0  0  0  0
   45.6090   33.7010   42.4320 H   0  0  0  0  0  0  0  0  0  0  0  0
   46.6970   34.2560   40.7120 C   0  0  0  0  0  0  0  0  0  0  0  0
   46.7580   35.1540   40.0280 H   0  0  0  0  0  0  0  0  0  0  0  0
   46.4770   33.4190   40.0600 H   0  0  0  0  0  0  0  0  0  0  0  0
   48.0580   34.1530   41.3030 C   0  0  0  0  0  0  0  0  0  0  0  0
   48.7380   32.9470   41.1300 C   0  0  0  0  0  0  0  0  0  0  0  0
   50.0040   32.8050   41.6600 C   0  0  0  0  0  0  0  0  0  0  0  0
   50.5470   33.8630   42.3410 N   0  0  0  0  0  0  0  0  0  0  0  0
   49.8530   35.0160   42.4870 C   0  0  0  0  0  0  0  0  0  0  0  0
   48.6410   35.1480   41.9770 N   0  0  0  0  0  0  0  0  0  0  0  0
   50.5610   31.8890   41.5480 H   0  0  0  0  0  0  0  0  0  0  0  0
   50.2860   35.8570   43.0300 H   0  0  0  0  0  0  0  0  0  0  0  0
   47.9540   31.6030   40.2230 S   0  0  0  0  0  0  0  0  0  0  0  0
   47.8600   30.4580   41.0640 H   0  0  0  0  0  0  0  0  0  0  0  0
  1  2  2  0  0  0  0
  1 19  1  0  0  0  0
  2  6  1  0  0  0  0
  3  2  1  0  0  0  0
  4  5  2  0  0  0  0
  4  3  1  0  0  0  0
  5  1  1  0  0  0  0
  7 15  1  1  0  0  0
  8  7  1  0  0  0  0
  8  4  1  1  0  0  0
  9  8  1  0  0  0  0
 10  9  1  0  0  0  0
 11  9  1  0  0  0  0
 12 11  1  0  0  0  0
 12 14  1  0  0  0  0
 13 12  1  0  0  0  0
 14 17  1  6  0  0  0
 14  7  1  0  0  0  0
 15 16  1  0  0  0  0
 17 18  1  0  0  0  0
 19 20  1  0  0  0  0
 19 21  1  0  0  0  0
 22 25  1  0  0  0  0
 22 19  1  0  0  0  0
 23 22  1  0  0  0  0
 24 22  1  0  0  0  0
 25 30  1  0  0  0  0
 26 25  2  0  0  0  0
 26 27  1  0  0  0  0
 27 28  2  0  0  0  0
 28 29  1  0  0  0  0
 29 32  1  0  0  0  0
 30 29  2  0  0  0  0
 31 27  1  0  0  0  0
 33 34  1  0  0  0  0
 33 26  1  0  0  0  0
M  END
>  <minimizedAffinity>
-4.43736649

>  <minimizedRMSD>
1.13223708

$$$$
