
 OpenBabel03252500253D

 40 42  0  0  1  0  0  0  0  0999 V2000
   47.1370   30.0350   47.9860 C   0  0  2  0  0  0  0  0  0  0  0  0
   45.7010   30.2910   48.2440 C   0  0  2  0  0  0  0  0  0  0  0  0
   45.0030   29.4260   47.2600 C   0  0  0  0  0  0  0  0  0  0  0  0
   45.8080   28.3250   47.0340 O   0  0  0  0  0  0  0  0  0  0  0  0
   47.0240   28.5410   47.5960 C   0  0  0  0  0  0  0  0  0  0  0  0
   47.7080   30.4260   47.1960 H   0  0  0  0  0  0  0  0  0  0  0  0
   45.5220   29.9750   49.2920 H   0  0  0  0  0  0  0  0  0  0  0  0
   44.5360   29.8850   46.3960 H   0  0  0  0  0  0  0  0  0  0  0  0
   44.1160   28.9840   47.8120 H   0  0  0  0  0  0  0  0  0  0  0  0
   47.1130   27.9080   48.5010 H   0  0  0  0  0  0  0  0  0  0  0  0
   47.8190   28.2180   46.9210 H   0  0  0  0  0  0  0  0  0  0  0  0
   45.3440   31.6180   48.1490 O   0  0  0  0  0  0  0  0  0  0  0  0
   47.4510   32.9010   47.4330 O   0  0  0  0  0  0  0  0  0  0  0  0
   46.1690   32.3320   46.8900 P   0  0  1  0  0  0  0  0  0  0  0  0
   46.5460   31.1620   45.7250 O   0  0  0  0  0  0  0  0  0  0  0  0
   47.1930   31.5240   45.0670 H   0  0  0  0  0  0  0  0  0  0  0  0
   45.3100   33.6390   46.1990 O   0  0  0  0  0  0  0  0  0  0  0  0
   45.2530   35.8610   43.4040 C   0  0  0  0  0  0  0  0  0  0  0  0
   46.2660   35.3600   42.5440 C   0  0  0  0  0  0  0  0  0  0  0  0
   46.9660   34.2240   42.9760 C   0  0  0  0  0  0  0  0  0  0  0  0
   46.6290   33.6870   44.1750 N   0  0  0  0  0  0  0  0  0  0  0  0
   45.6610   34.1910   44.9620 C   0  0  0  0  0  0  0  0  0  0  0  0
   44.9790   35.2750   44.5700 N   0  0  0  0  0  0  0  0  0  0  0  0
   46.5070   35.8180   41.5910 H   0  0  0  0  0  0  0  0  0  0  0  0
   47.7490   33.7950   42.3680 H   0  0  0  0  0  0  0  0  0  0  0  0
   44.5670   36.9780   42.9800 O   0  0  0  0  0  0  0  0  0  0  0  0
   44.0860   37.6060   43.6060 H   0  0  0  0  0  0  0  0  0  0  0  0
   47.9380   30.2160   49.0830 O   0  0  0  0  0  0  0  0  0  0  0  0
   49.9940   29.1980   49.7910 C   0  0  2  0  0  3  0  0  0  0  0  0
   49.2640   30.3140   48.9990 C   0  0  2  0  0  3  0  0  0  0  0  0
   49.7230   31.5860   49.6710 C   0  0  0  0  0  3  0  0  0  0  0  0
   49.4930   32.5090   49.1530 H   0  0  0  0  0  0  0  0  0  0  0  0
   51.0760   31.5350   49.9990 O   0  0  0  0  0  0  0  0  0  0  0  0
   51.2810   30.7780   51.1480 C   0  0  0  0  0  3  0  0  0  0  0  0
   52.2790   30.3110   51.0270 H   0  0  0  0  0  0  0  0  0  0  0  0
   50.2610   29.6740   51.2240 C   0  0  2  0  0  3  0  0  0  0  0  0
   51.2660   28.9910   49.2590 O   0  0  0  0  0  0  0  0  0  0  0  0
   51.6100   28.1770   49.6830 H   0  0  0  0  0  0  0  0  0  0  0  0
   50.8870   28.5830   51.8420 O   0  0  0  0  0  0  0  0  0  0  0  0
   50.5040   28.3340   52.7040 H   0  0  0  0  0  0  0  0  0  0  0  0
  1  6  1  6  0  0  0
  1  2  1  0  0  0  0
  1 28  1  0  0  0  0
  2  7  1  1  0  0  0
  3  9  1  0  0  0  0
  3  2  1  0  0  0  0
  4  3  1  0  0  0  0
  4  5  1  0  0  0  0
  5  1  1  0  0  0  0
  5 10  1  0  0  0  0
  8  3  1  0  0  0  0
 11  5  1  0  0  0  0
 12  2  1  0  0  0  0
 14 13  2  1  0  0  0
 14 12  1  0  0  0  0
 15 14  1  0  0  0  0
 16 15  1  0  0  0  0
 17 14  1  0  0  0  0
 18 23  1  0  0  0  0
 19 20  1  0  0  0  0
 19 18  2  0  0  0  0
 20 21  2  0  0  0  0
 21 22  1  0  0  0  0
 22 17  1  0  0  0  0
 23 22  2  0  0  0  0
 24 19  1  0  0  0  0
 25 20  1  0  0  0  0
 26 18  1  0  0  0  0
 26 27  1  0  0  0  0
 29 37  1  6  0  0  0
 29 36  1  0  0  0  0
 30 28  1  1  0  0  0
 30 31  1  0  0  0  0
 30 29  1  0  0  0  0
 31 33  1  0  0  0  0
 32 31  1  0  0  0  0
 33 34  1  0  0  0  0
 34 36  1  0  0  0  0
 35 34  1  0  0  0  0
 36 39  1  1  0  0  0
 37 38  1  0  0  0  0
 39 40  1  0  0  0  0
M  END
>  <minimizedAffinity>
-5.5141964

>  <minimizedRMSD>
1.70062387

$$$$
