
 OpenBabel03242523463D

 22 23  0  0  1  0  0  0  0  0999 V2000
   47.9670   33.1870   41.4660 C   0  0  1  0  0  3  0  0  0  0  0  0
   47.8960   34.5190   42.1420 C   0  0  2  0  0  3  0  0  0  0  0  0
   49.2090   34.9420   42.7750 C   0  0  0  0  0  3  0  0  0  0  0  0
   49.2890   36.0420   42.6400 H   0  0  0  0  0  0  0  0  0  0  0  0
   50.3130   34.3960   42.1460 O   0  0  0  0  0  0  0  0  0  0  0  0
   50.3620   33.0110   42.2420 C   0  0  0  0  0  3  0  0  0  0  0  0
   50.9990   32.6470   41.4040 H   0  0  0  0  0  0  0  0  0  0  0  0
   49.0270   32.3480   42.1370 C   0  0  2  0  0  3  0  0  0  0  0  0
   44.8640   35.0870   44.3070 C   0  0  0  0  0  0  0  0  0  0  0  0
   45.7520   35.2210   43.2270 C   0  0  0  0  0  0  0  0  0  0  0  0
   46.9210   34.4200   43.2540 C   0  0  0  0  0  0  0  0  0  0  0  0
   47.1140   33.5820   44.3000 N   0  0  0  0  0  0  0  0  0  0  0  0
   46.2310   33.4890   45.3110 C   0  0  0  0  0  0  0  0  0  0  0  0
   45.1150   34.2310   45.3190 N   0  0  0  0  0  0  0  0  0  0  0  0
   45.5730   35.8990   42.4050 H   0  0  0  0  0  0  0  0  0  0  0  0
   46.3520   32.8270   46.1690 H   0  0  0  0  0  0  0  0  0  0  0  0
   43.7340   35.8590   44.2860 O   0  0  0  0  0  0  0  0  0  0  0  0
   43.8110   36.8320   44.5540 H   0  0  0  0  0  0  0  0  0  0  0  0
   46.7410   32.5170   41.6760 O   0  0  0  0  0  0  0  0  0  0  0  0
   46.5860   31.7790   41.0680 H   0  0  0  0  0  0  0  0  0  0  0  0
   49.1490   31.1650   41.4080 O   0  0  0  0  0  0  0  0  0  0  0  0
   48.3160   30.7080   41.2200 H   0  0  0  0  0  0  0  0  0  0  0  0
  1 19  1  1  0  0  0
  1  8  1  0  0  0  0
  1  2  1  0  0  0  0
  2  3  1  0  0  0  0
  2 11  1  1  0  0  0
  4  3  1  0  0  0  0
  5  6  1  0  0  0  0
  5  3  1  0  0  0  0
  7  6  1  0  0  0  0
  8 21  1  6  0  0  0
  8  6  1  0  0  0  0
  9 14  1  0  0  0  0
 10 11  1  0  0  0  0
 10  9  2  0  0  0  0
 11 12  2  0  0  0  0
 12 13  1  0  0  0  0
 13 14  2  0  0  0  0
 13 16  1  0  0  0  0
 15 10  1  0  0  0  0
 17  9  1  0  0  0  0
 17 18  1  0  0  0  0
 20 19  1  0  0  0  0
 22 21  1  0  0  0  0
M  END
>  <minimizedAffinity>
-4.72081327

>  <minimizedRMSD>
2.18080401

$$$$
