
 OpenBabel03242523383D

 22 23  0  0  1  0  0  0  0  0999 V2000
   46.8510   32.0630   47.5340 C   0  0  2  0  0  3  0  0  0  0  0  0
   46.7990   31.5580   46.1150 C   0  0  1  0  0  3  0  0  0  0  0  0
   45.7550   30.4890   46.0130 C   0  0  0  0  0  3  0  0  0  0  0  0
   44.7420   30.9160   45.7790 H   0  0  0  0  0  0  0  0  0  0  0  0
   45.6660   29.8780   47.2790 O   0  0  0  0  0  0  0  0  0  0  0  0
   44.8370   30.6950   48.0680 C   0  0  0  0  0  3  0  0  0  0  0  0
   44.6620   30.1810   49.0380 H   0  0  0  0  0  0  0  0  0  0  0  0
   45.4990   32.0360   48.2280 C   0  0  1  0  0  3  0  0  0  0  0  0
   45.3300   34.3820   44.1950 C   0  0  0  0  0  0  0  0  0  0  0  0
   46.3760   34.6870   43.2790 C   0  0  0  0  0  0  0  0  0  0  0  0
   47.5460   33.9190   43.3460 C   0  0  0  0  0  0  0  0  0  0  0  0
   47.6190   32.9290   44.2790 N   0  0  0  0  0  0  0  0  0  0  0  0
   46.5970   32.6700   45.1370 C   0  0  0  0  0  0  0  0  0  0  0  0
   45.4700   33.3830   45.0980 N   0  0  0  0  0  0  0  0  0  0  0  0
   44.4340   34.9820   44.1310 H   0  0  0  0  0  0  0  0  0  0  0  0
   46.2510   35.4880   42.5610 H   0  0  0  0  0  0  0  0  0  0  0  0
   48.8920   34.2520   42.2240 S   0  0  0  0  0  0  0  0  0  0  0  0
   49.0700   35.6430   42.1260 H   0  0  0  0  0  0  0  0  0  0  0  0
   47.4020   33.3190   47.6300 O   0  0  0  0  0  0  0  0  0  0  0  0
   47.0870   33.9670   46.9560 H   0  0  0  0  0  0  0  0  0  0  0  0
   45.7630   32.2210   49.5950 O   0  0  0  0  0  0  0  0  0  0  0  0
   46.5620   32.8120   49.6860 H   0  0  0  0  0  0  0  0  0  0  0  0
  1 19  1  6  0  0  0
  1  8  1  0  0  0  0
  2 13  1  6  0  0  0
  2  1  1  0  0  0  0
  3  2  1  0  0  0  0
  3  5  1  0  0  0  0
  4  3  1  0  0  0  0
  5  6  1  0  0  0  0
  6  8  1  0  0  0  0
  6  7  1  0  0  0  0
  8 21  1  1  0  0  0
  9 14  1  0  0  0  0
 10 11  1  0  0  0  0
 10  9  2  0  0  0  0
 11 12  2  0  0  0  0
 12 13  1  0  0  0  0
 14 13  2  0  0  0  0
 15  9  1  0  0  0  0
 16 10  1  0  0  0  0
 17 11  1  0  0  0  0
 18 17  1  0  0  0  0
 20 19  1  0  0  0  0
 21 22  1  0  0  0  0
M  END
>  <minimizedAffinity>
-5.00353098

>  <minimizedRMSD>
1.99695194

$$$$
