
 OpenBabel03252500253D

 40 42  0  0  1  0  0  0  0  0999 V2000
   46.5920   28.5750   47.0330 C   0  0  2  0  0  0  0  0  0  0  0  0
   45.7010   29.4850   47.7900 C   0  0  2  0  0  0  0  0  0  0  0  0
   44.8130   30.0610   46.7500 C   0  0  0  0  0  0  0  0  0  0  0  0
   44.6770   29.1140   45.7520 O   0  0  0  0  0  0  0  0  0  0  0  0
   45.5720   28.1160   45.9620 C   0  0  0  0  0  0  0  0  0  0  0  0
   47.4160   28.8560   46.4460 H   0  0  0  0  0  0  0  0  0  0  0  0
   45.1530   28.8420   48.5090 H   0  0  0  0  0  0  0  0  0  0  0  0
   44.9650   31.0890   46.4400 H   0  0  0  0  0  0  0  0  0  0  0  0
   43.7770   30.0950   47.2120 H   0  0  0  0  0  0  0  0  0  0  0  0
   45.0270   27.2210   46.3210 H   0  0  0  0  0  0  0  0  0  0  0  0
   46.0470   27.8250   45.0230 H   0  0  0  0  0  0  0  0  0  0  0  0
   46.3700   30.4400   48.5220 O   0  0  0  0  0  0  0  0  0  0  0  0
   48.0070   32.4010   48.2460 O   0  0  0  0  0  0  0  0  0  0  0  0
   46.9620   31.6170   47.5010 P   0  0  1  0  0  0  0  0  0  0  0  0
   47.6890   30.8840   46.1580 O   0  0  0  0  0  0  0  0  0  0  0  0
   48.2080   31.5500   45.6390 H   0  0  0  0  0  0  0  0  0  0  0  0
   45.7610   32.7360   47.0220 O   0  0  0  0  0  0  0  0  0  0  0  0
   44.9850   35.1820   44.5390 C   0  0  0  0  0  0  0  0  0  0  0  0
   45.9290   34.9390   43.5070 C   0  0  0  0  0  0  0  0  0  0  0  0
   46.8430   33.8950   43.7110 C   0  0  0  0  0  0  0  0  0  0  0  0
   46.7610   33.1950   44.8700 N   0  0  0  0  0  0  0  0  0  0  0  0
   45.8500   33.4560   45.8250 C   0  0  0  0  0  0  0  0  0  0  0  0
   44.9670   34.4480   45.6530 N   0  0  0  0  0  0  0  0  0  0  0  0
   45.9630   35.5220   42.5920 H   0  0  0  0  0  0  0  0  0  0  0  0
   47.5860   33.6610   42.9640 H   0  0  0  0  0  0  0  0  0  0  0  0
   44.0880   36.2090   44.3390 O   0  0  0  0  0  0  0  0  0  0  0  0
   43.6120   36.6870   45.0900 H   0  0  0  0  0  0  0  0  0  0  0  0
   47.0650   27.5220   47.7710 O   0  0  0  0  0  0  0  0  0  0  0  0
   49.2630   28.3570   47.2860 C   0  0  2  0  0  3  0  0  0  0  0  0
   48.3630   27.2380   47.8720 C   0  0  2  0  0  3  0  0  0  0  0  0
   48.6870   26.0370   47.0160 C   0  0  0  0  0  3  0  0  0  0  0  0
   48.3190   25.0830   47.3730 H   0  0  0  0  0  0  0  0  0  0  0  0
   50.0510   25.9600   46.7350 O   0  0  0  0  0  0  0  0  0  0  0  0
   50.4010   26.8530   45.7260 C   0  0  0  0  0  3  0  0  0  0  0  0
   51.4430   27.1590   45.9460 H   0  0  0  0  0  0  0  0  0  0  0  0
   49.5330   28.0790   45.8020 C   0  0  2  0  0  3  0  0  0  0  0  0
   50.5260   28.3110   47.8760 O   0  0  0  0  0  0  0  0  0  0  0  0
   50.9880   29.1270   47.5960 H   0  0  0  0  0  0  0  0  0  0  0  0
   50.3190   29.1620   45.3830 O   0  0  0  0  0  0  0  0  0  0  0  0
   50.0100   29.5890   44.5630 H   0  0  0  0  0  0  0  0  0  0  0  0
  1  6  1  6  0  0  0
  1 28  1  0  0  0  0
  1  2  1  0  0  0  0
  2  7  1  1  0  0  0
  2 12  1  0  0  0  0
  3  9  1  0  0  0  0
  3  2  1  0  0  0  0
  4  5  1  0  0  0  0
  4  3  1  0  0  0  0
  5 10  1  0  0  0  0
  5  1  1  0  0  0  0
  8  3  1  0  0  0  0
 11  5  1  0  0  0  0
 14 13  2  1  0  0  0
 14 12  1  0  0  0  0
 15 14  1  0  0  0  0
 16 15  1  0  0  0  0
 17 14  1  0  0  0  0
 18 23  1  0  0  0  0
 19 20  1  0  0  0  0
 19 18  2  0  0  0  0
 20 21  2  0  0  0  0
 21 22  1  0  0  0  0
 22 17  1  0  0  0  0
 23 22  2  0  0  0  0
 24 19  1  0  0  0  0
 25 20  1  0  0  0  0
 26 18  1  0  0  0  0
 26 27  1  0  0  0  0
 29 30  1  0  0  0  0
 29 37  1  1  0  0  0
 30 28  1  6  0  0  0
 31 32  1  0  0  0  0
 31 30  1  0  0  0  0
 33 31  1  0  0  0  0
 34 36  1  0  0  0  0
 34 35  1  0  0  0  0
 34 33  1  0  0  0  0
 36 39  1  1  0  0  0
 36 29  1  0  0  0  0
 38 37  1  0  0  0  0
 40 39  1  0  0  0  0
M  END
>  <minimizedAffinity>
-4.25408268

>  <minimizedRMSD>
2.76140928

$$$$
