
 OpenBabel03252501453D

 26 27  0  0  1  0  0  0  0  0999 V2000
   44.0740   35.4360   43.4650 C   0  0  0  0  0  0  0  0  0  0  0  0
   43.8280   35.0260   42.1550 C   0  0  0  0  0  0  0  0  0  0  0  0
   44.6360   34.0470   41.6050 C   0  0  0  0  0  0  0  0  0  0  0  0
   45.6390   33.5240   42.3720 N   0  0  0  0  0  0  0  0  0  0  0  0
   45.8530   33.9430   43.6450 C   0  0  0  0  0  0  0  0  0  0  0  0
   45.0700   34.8840   44.1600 N   0  0  0  0  0  0  0  0  0  0  0  0
   43.4360   36.2100   43.8980 H   0  0  0  0  0  0  0  0  0  0  0  0
   44.5190   33.6600   40.5830 H   0  0  0  0  0  0  0  0  0  0  0  0
   47.3960   32.0330   43.8100 C   0  0  1  0  0  3  0  0  0  0  0  0
   46.9740   33.3230   44.4260 C   0  0  2  0  0  3  0  0  0  0  0  0
   46.6090   33.2330   45.8870 C   0  0  0  0  0  3  0  0  0  0  0  0
   45.6050   33.6930   46.0310 H   0  0  0  0  0  0  0  0  0  0  0  0
   46.6620   31.9440   46.3700 O   0  0  0  0  0  0  0  0  0  0  0  0
   45.8900   31.0710   45.5940 C   0  0  0  0  0  3  0  0  0  0  0  0
   44.8440   31.4380   45.5680 H   0  0  0  0  0  0  0  0  0  0  0  0
   46.4900   30.9090   44.2220 C   0  0  1  0  0  3  0  0  0  0  0  0
   47.3260   32.1720   42.4300 O   0  0  0  0  0  0  0  0  0  0  0  0
   48.1330   32.5150   42.0010 H   0  0  0  0  0  0  0  0  0  0  0  0
   45.4520   30.8410   43.2780 O   0  0  0  0  0  0  0  0  0  0  0  0
   45.2720   29.8950   43.0570 H   0  0  0  0  0  0  0  0  0  0  0  0
   42.7520   35.5950   41.3470 C   0  0  0  0  0  3  0  0  0  0  0  0
   41.4660   35.4810   41.5700 C   0  0  0  0  0  3  0  0  0  0  0  0
   40.4410   36.1140   40.6630 C   0  0  0  0  0  0  0  0  0  0  0  0
   39.4630   35.6530   40.7770 H   0  0  0  0  0  0  0  0  0  0  0  0
   40.3940   37.1760   40.9730 H   0  0  0  0  0  0  0  0  0  0  0  0
   40.8730   36.0890   39.6440 H   0  0  0  0  0  0  0  0  0  0  0  0
  1  7  1  0  0  0  0
  1  6  1  0  0  0  0
  2  1  2  0  0  0  0
  3  2  1  0  0  0  0
  3  4  2  0  0  0  0
  4  5  1  0  0  0  0
  5  6  2  0  0  0  0
  8  3  1  0  0  0  0
  9 17  1  6  0  0  0
  9 16  1  0  0  0  0
  9 10  1  0  0  0  0
 10  5  1  6  0  0  0
 10 11  1  0  0  0  0
 11 12  1  0  0  0  0
 11 13  1  0  0  0  0
 14 13  1  0  0  0  0
 15 14  1  0  0  0  0
 16 19  1  6  0  0  0
 16 14  1  0  0  0  0
 18 17  1  0  0  0  0
 20 19  1  0  0  0  0
 21 22  2  0  0  0  0
 21  2  1  0  0  0  0
 23 24  1  0  0  0  0
 23 25  1  0  0  0  0
 23 22  1  0  0  0  0
 26 23  1  0  0  0  0
M  END
>  <minimizedAffinity>
-4.14449596

>  <minimizedRMSD>
2.71233582

$$$$
