
 OpenBabel03252507383D

 41 45  0  0  1  0  0  0  0  0999 V2000
   45.2610   34.6190   43.7880 C   0  0  0  0  0  0  0  0  0  0  0  0
   46.0280   33.5550   44.3290 C   0  0  0  0  0  0  0  0  0  0  0  0
   45.9920   33.3950   45.7130 C   0  0  0  0  0  0  0  0  0  0  0  0
   45.2590   34.2250   46.4510 N   0  0  0  0  0  0  0  0  0  0  0  0
   44.5340   35.2360   45.9120 C   0  0  0  0  0  0  0  0  0  0  0  0
   44.5400   35.4230   44.5970 N   0  0  0  0  0  0  0  0  0  0  0  0
   46.6150   32.8880   43.7540 H   0  0  0  0  0  0  0  0  0  0  0  0
   43.9720   35.8550   46.5990 H   0  0  0  0  0  0  0  0  0  0  0  0
   47.1680   32.6240   47.6970 C   0  0  0  0  0  0  0  0  0  0  0  0
   46.7400   32.3330   46.4010 C   0  0  0  0  0  0  0  0  0  0  0  0
   47.0370   31.1200   45.8750 C   0  0  0  0  0  0  0  0  0  0  0  0
   47.7450   30.1540   46.5620 C   0  0  0  0  0  0  0  0  0  0  0  0
   48.1420   28.9050   46.2350 N   0  0  0  0  0  0  0  0  0  0  0  0
   48.8260   28.4000   47.3310 C   0  0  0  0  0  0  0  0  0  0  0  0
   48.8280   29.3540   48.2960 N   0  0  0  0  0  0  0  0  0  0  0  0
   48.1740   30.4190   47.8330 C   0  0  0  0  0  0  0  0  0  0  0  0
   47.8880   31.6440   48.3970 C   0  0  0  0  0  0  0  0  0  0  0  0
   46.9990   33.5570   48.2390 H   0  0  0  0  0  0  0  0  0  0  0  0
   46.6900   30.9320   44.8700 H   0  0  0  0  0  0  0  0  0  0  0  0
   47.9800   28.3890   45.3360 H   0  0  0  0  0  0  0  0  0  0  0  0
   49.2670   27.4120   47.3690 H   0  0  0  0  0  0  0  0  0  0  0  0
   48.2440   31.8140   49.4050 H   0  0  0  0  0  0  0  0  0  0  0  0
   45.2900   34.7890   42.4020 O   0  0  0  0  0  0  0  0  0  0  0  0
   44.2370   34.3160   41.6260 C   0  0  0  0  0  0  0  0  0  0  0  0
   44.9010   33.6620   40.6570 C   0  0  0  0  0  0  0  0  0  0  0  0
   43.4750   33.0040   39.5820 S   0  0  0  0  0  0  0  0  0  0  0  0
   42.2400   33.8150   40.7650 C   0  0  0  0  0  0  0  0  0  0  0  0
   42.9290   34.2720   41.4940 N   0  0  0  0  0  0  0  0  0  0  0  0
   45.8650   33.2820   40.1220 H   0  0  0  0  0  0  0  0  0  0  0  0
   40.4110   34.7350   39.5260 C   0  0  1  0  0  3  0  0  0  0  0  0
   40.7760   33.7260   40.5570 C   0  0  1  0  0  3  0  0  0  0  0  0
   40.4690   32.3330   40.0530 C   0  0  0  0  0  3  0  0  0  0  0  0
   39.9460   31.7160   40.8100 H   0  0  0  0  0  0  0  0  0  0  0  0
   39.6900   32.3740   38.8870 O   0  0  0  0  0  0  0  0  0  0  0  0
   40.4350   32.9290   37.8470 C   0  0  0  0  0  3  0  0  0  0  0  0
   39.7430   32.9430   36.9710 H   0  0  0  0  0  0  0  0  0  0  0  0
   40.8590   34.3300   38.1620 C   0  0  1  0  0  3  0  0  0  0  0  0
   39.0190   34.9730   39.5480 O   0  0  0  0  0  0  0  0  0  0  0  0
   38.8130   35.8520   39.1350 H   0  0  0  0  0  0  0  0  0  0  0  0
   40.3070   35.2460   37.2560 O   0  0  0  0  0  0  0  0  0  0  0  0
   39.5020   34.8040   36.8550 H   0  0  0  0  0  0  0  0  0  0  0  0
  1  2  2  0  0  0  0
  1  6  1  0  0  0  0
  2  3  1  0  0  0  0
  3 10  1  0  0  0  0
  3  4  2  0  0  0  0
  5  4  1  0  0  0  0
  5  8  1  0  0  0  0
  6  5  2  0  0  0  0
  7  2  1  0  0  0  0
  9 18  1  0  0  0  0
  9 17  1  0  0  0  0
 10  9  2  0  0  0  0
 11 10  1  0  0  0  0
 11 12  2  0  0  0  0
 12 16  1  0  0  0  0
 13 12  1  0  0  0  0
 13 14  1  0  0  0  0
 14 21  1  0  0  0  0
 14 15  2  0  0  0  0
 16 15  1  0  0  0  0
 16 17  2  0  0  0  0
 17 22  1  0  0  0  0
 19 11  1  0  0  0  0
 20 13  1  0  0  0  0
 23  1  1  0  0  0  0
 24 23  1  0  0  0  0
 25 24  2  0  0  0  0
 26 25  1  0  0  0  0
 26 27  1  0  0  0  0
 27 28  2  0  0  0  0
 28 24  1  0  0  0  0
 29 25  1  0  0  0  0
 30 38  1  6  0  0  0
 30 31  1  0  0  0  0
 31 27  1  6  0  0  0
 32 31  1  0  0  0  0
 32 33  1  0  0  0  0
 34 32  1  0  0  0  0
 35 37  1  0  0  0  0
 35 34  1  0  0  0  0
 36 35  1  0  0  0  0
 37 40  1  6  0  0  0
 37 30  1  0  0  0  0
 39 38  1  0  0  0  0
 41 40  1  0  0  0  0
M  END
>  <minimizedAffinity>
-6.40750456

>  <minimizedRMSD>
1.1562196

$$$$
