
 OpenBabel03242523463D

 22 23  0  0  1  0  0  0  0  0999 V2000
   47.9580   33.1000   41.5200 C   0  0  1  0  0  3  0  0  0  0  0  0
   47.8760   34.4550   42.1510 C   0  0  2  0  0  3  0  0  0  0  0  0
   49.1890   34.9130   42.7580 C   0  0  0  0  0  3  0  0  0  0  0  0
   49.2550   36.0090   42.5860 H   0  0  0  0  0  0  0  0  0  0  0  0
   50.2940   34.3600   42.1390 O   0  0  0  0  0  0  0  0  0  0  0  0
   50.3610   32.9790   42.2800 C   0  0  0  0  0  3  0  0  0  0  0  0
   50.9940   32.5950   41.4490 H   0  0  0  0  0  0  0  0  0  0  0  0
   49.0320   32.2980   42.2100 C   0  0  2  0  0  3  0  0  0  0  0  0
   44.8680   35.0750   44.3350 C   0  0  0  0  0  0  0  0  0  0  0  0
   45.7460   35.1850   43.2450 C   0  0  0  0  0  0  0  0  0  0  0  0
   46.9120   34.3810   43.2750 C   0  0  0  0  0  0  0  0  0  0  0  0
   47.1130   33.5640   44.3360 N   0  0  0  0  0  0  0  0  0  0  0  0
   46.2410   33.4950   45.3580 C   0  0  0  0  0  0  0  0  0  0  0  0
   45.1270   34.2400   45.3620 N   0  0  0  0  0  0  0  0  0  0  0  0
   45.5600   35.8460   42.4110 H   0  0  0  0  0  0  0  0  0  0  0  0
   46.3690   32.8490   46.2270 H   0  0  0  0  0  0  0  0  0  0  0  0
   43.7400   35.8500   44.3110 O   0  0  0  0  0  0  0  0  0  0  0  0
   43.8230   36.8280   44.5580 H   0  0  0  0  0  0  0  0  0  0  0  0
   46.7410   32.4250   41.7640 O   0  0  0  0  0  0  0  0  0  0  0  0
   46.5900   31.6650   41.1820 H   0  0  0  0  0  0  0  0  0  0  0  0
   49.1620   31.0930   41.5200 O   0  0  0  0  0  0  0  0  0  0  0  0
   48.3340   30.6190   41.3550 H   0  0  0  0  0  0  0  0  0  0  0  0
  1 19  1  1  0  0  0
  1  2  1  0  0  0  0
  1  8  1  0  0  0  0
  2  3  1  0  0  0  0
  2 11  1  1  0  0  0
  4  3  1  0  0  0  0
  5  6  1  0  0  0  0
  5  3  1  0  0  0  0
  7  6  1  0  0  0  0
  8 21  1  6  0  0  0
  8  6  1  0  0  0  0
  9 14  1  0  0  0  0
 10 11  1  0  0  0  0
 10  9  2  0  0  0  0
 11 12  2  0  0  0  0
 12 13  1  0  0  0  0
 13 14  2  0  0  0  0
 13 16  1  0  0  0  0
 15 10  1  0  0  0  0
 17  9  1  0  0  0  0
 17 18  1  0  0  0  0
 20 19  1  0  0  0  0
 22 21  1  0  0  0  0
M  END
>  <minimizedAffinity>
-4.71157265

>  <minimizedRMSD>
1.79112494

$$$$
