
 OpenBabel03252507393D

 41 45  0  0  1  0  0  0  0  0999 V2000
   36.4570   28.7200   41.6620 C   0  0  0  0  0  0  0  0  0  0  0  0
   37.3070   29.8560   41.6740 C   0  0  0  0  0  0  0  0  0  0  0  0
   37.1990   30.7340   40.5980 C   0  0  0  0  0  0  0  0  0  0  0  0
   36.3260   30.4770   39.6270 N   0  0  0  0  0  0  0  0  0  0  0  0
   35.5240   29.3850   39.6350 C   0  0  0  0  0  0  0  0  0  0  0  0
   35.5940   28.5230   40.6430 N   0  0  0  0  0  0  0  0  0  0  0  0
   38.0060   30.0710   42.4400 H   0  0  0  0  0  0  0  0  0  0  0  0
   34.8480   29.2680   38.7980 H   0  0  0  0  0  0  0  0  0  0  0  0
   37.3850   33.0750   39.9630 C   0  0  0  0  0  0  0  0  0  0  0  0
   38.0200   31.9480   40.4880 C   0  0  0  0  0  0  0  0  0  0  0  0
   39.3230   32.0460   40.8520 C   0  0  0  0  0  0  0  0  0  0  0  0
   40.0530   33.2100   40.7280 C   0  0  0  0  0  0  0  0  0  0  0  0
   41.3350   33.5210   41.0230 N   0  0  0  0  0  0  0  0  0  0  0  0
   41.5140   34.8540   40.6830 C   0  0  0  0  0  0  0  0  0  0  0  0
   40.3380   35.3190   40.1910 N   0  0  0  0  0  0  0  0  0  0  0  0
   39.4510   34.3260   40.2160 C   0  0  0  0  0  0  0  0  0  0  0  0
   38.1260   34.2590   39.8370 C   0  0  0  0  0  0  0  0  0  0  0  0
   36.3470   33.1350   39.6320 H   0  0  0  0  0  0  0  0  0  0  0  0
   39.7800   31.1530   41.2530 H   0  0  0  0  0  0  0  0  0  0  0  0
   42.0740   32.8990   41.4300 H   0  0  0  0  0  0  0  0  0  0  0  0
   42.4450   35.3920   40.8050 H   0  0  0  0  0  0  0  0  0  0  0  0
   37.6860   35.1640   39.4370 H   0  0  0  0  0  0  0  0  0  0  0  0
   36.5570   27.8330   42.7360 O   0  0  0  0  0  0  0  0  0  0  0  0
   37.6920   27.0420   42.8760 C   0  0  0  0  0  0  0  0  0  0  0  0
   37.2950   25.9080   42.2710 C   0  0  0  0  0  0  0  0  0  0  0  0
   38.8390   24.8100   42.4500 S   0  0  0  0  0  0  0  0  0  0  0  0
   39.7120   26.2240   43.3550 C   0  0  0  0  0  0  0  0  0  0  0  0
   38.9200   26.9900   43.3440 N   0  0  0  0  0  0  0  0  0  0  0  0
   36.5290   25.2390   41.7030 H   0  0  0  0  0  0  0  0  0  0  0  0
   41.8250   25.1820   42.9340 C   0  0  1  0  0  3  0  0  0  0  0  0
   41.1000   26.0990   43.8570 C   0  0  1  0  0  3  0  0  0  0  0  0
   41.7280   27.4750   43.8190 C   0  0  0  0  0  3  0  0  0  0  0  0
   41.8780   27.8970   44.8330 H   0  0  0  0  0  0  0  0  0  0  0  0
   42.9600   27.4550   43.1500 O   0  0  0  0  0  0  0  0  0  0  0  0
   42.7550   27.1660   41.8010 C   0  0  0  0  0  3  0  0  0  0  0  0
   43.7750   27.1510   41.3500 H   0  0  0  0  0  0  0  0  0  0  0  0
   42.1150   25.8250   41.6190 C   0  0  1  0  0  3  0  0  0  0  0  0
   43.0120   24.7200   43.5400 O   0  0  0  0  0  0  0  0  0  0  0  0
   43.3140   23.8770   43.1070 H   0  0  0  0  0  0  0  0  0  0  0  0
   42.9500   24.9530   40.9070 O   0  0  0  0  0  0  0  0  0  0  0  0
   43.8830   25.3050   41.0080 H   0  0  0  0  0  0  0  0  0  0  0  0
  1  2  1  0  0  0  0
  1 23  1  0  0  0  0
  2  7  1  0  0  0  0
  3  2  2  0  0  0  0
  4  5  2  0  0  0  0
  4  3  1  0  0  0  0
  5  6  1  0  0  0  0
  6  1  2  0  0  0  0
  8  5  1  0  0  0  0
  9 10  1  0  0  0  0
 10  3  1  0  0  0  0
 10 11  2  0  0  0  0
 11 19  1  0  0  0  0
 12 11  1  0  0  0  0
 12 13  1  0  0  0  0
 13 20  1  0  0  0  0
 14 21  1  0  0  0  0
 14 13  1  0  0  0  0
 15 16  1  0  0  0  0
 15 14  2  0  0  0  0
 16 12  2  0  0  0  0
 17  9  2  0  0  0  0
 17 16  1  0  0  0  0
 18  9  1  0  0  0  0
 22 17  1  0  0  0  0
 23 24  1  0  0  0  0
 24 28  1  0  0  0  0
 25 26  1  0  0  0  0
 25 24  2  0  0  0  0
 26 27  1  0  0  0  0
 28 27  2  0  0  0  0
 29 25  1  0  0  0  0
 30 38  1  1  0  0  0
 30 31  1  0  0  0  0
 31 27  1  6  0  0  0
 32 31  1  0  0  0  0
 32 33  1  0  0  0  0
 34 32  1  0  0  0  0
 35 34  1  0  0  0  0
 36 35  1  0  0  0  0
 37 40  1  6  0  0  0
 37 35  1  0  0  0  0
 37 30  1  0  0  0  0
 39 38  1  0  0  0  0
 40 41  1  0  0  0  0
M  END
>  <minimizedAffinity>
-7.46245623

$$$$

 OpenBabel03252507393D

 41 45  0  0  1  0  0  0  0  0999 V2000
   37.9130   30.3590   41.3390 C   0  0  0  0  0  0  0  0  0  0  0  0
   38.1950   28.9690   41.3050 C   0  0  0  0  0  0  0  0  0  0  0  0
   37.1370   28.1210   40.9820 C   0  0  0  0  0  0  0  0  0  0  0  0
   35.9370   28.6360   40.7250 N   0  0  0  0  0  0  0  0  0  0  0  0
   35.6900   29.9680   40.7630 C   0  0  0  0  0  0  0  0  0  0  0  0
   36.6700   30.8120   41.0670 N   0  0  0  0  0  0  0  0  0  0  0  0
   39.1440   28.5470   41.5080 H   0  0  0  0  0  0  0  0  0  0  0  0
   34.6800   30.2840   40.5380 H   0  0  0  0  0  0  0  0  0  0  0  0
   37.1250   25.9670   42.1120 C   0  0  0  0  0  0  0  0  0  0  0  0
   37.2940   26.6610   40.9130 C   0  0  0  0  0  0  0  0  0  0  0  0
   37.5870   25.9580   39.7910 C   0  0  0  0  0  0  0  0  0  0  0  0
   37.7250   24.5850   39.7770 C   0  0  0  0  0  0  0  0  0  0  0  0
   38.0080   23.7040   38.7930 N   0  0  0  0  0  0  0  0  0  0  0  0
   38.0180   22.4430   39.3710 C   0  0  0  0  0  0  0  0  0  0  0  0
   37.7410   22.5890   40.6910 N   0  0  0  0  0  0  0  0  0  0  0  0
   37.5640   23.8860   40.9410 C   0  0  0  0  0  0  0  0  0  0  0  0
   37.2650   24.5710   42.1000 C   0  0  0  0  0  0  0  0  0  0  0  0
   36.8890   26.4050   43.0840 H   0  0  0  0  0  0  0  0  0  0  0  0
   37.7110   26.5300   38.8830 H   0  0  0  0  0  0  0  0  0  0  0  0
   38.1890   23.9030   37.7790 H   0  0  0  0  0  0  0  0  0  0  0  0
   38.2160   21.5280   38.8280 H   0  0  0  0  0  0  0  0  0  0  0  0
   37.1450   23.9820   43.0000 H   0  0  0  0  0  0  0  0  0  0  0  0
   38.9640   31.2190   41.6610 O   0  0  0  0  0  0  0  0  0  0  0  0
   39.5130   32.0380   40.6810 C   0  0  0  0  0  0  0  0  0  0  0  0
   39.1940   33.2570   41.1520 C   0  0  0  0  0  0  0  0  0  0  0  0
   39.9400   34.3960   39.8210 S   0  0  0  0  0  0  0  0  0  0  0  0
   40.5440   32.8670   38.8840 C   0  0  0  0  0  0  0  0  0  0  0  0
   40.1790   32.0660   39.5470 N   0  0  0  0  0  0  0  0  0  0  0  0
   38.7160   33.9880   41.9230 H   0  0  0  0  0  0  0  0  0  0  0  0
   42.2990   34.0550   37.7710 C   0  0  1  0  0  3  0  0  0  0  0  0
   41.2910   32.9700   37.6090 C   0  0  1  0  0  3  0  0  0  0  0  0
   41.9880   31.6470   37.3770 C   0  0  0  0  0  3  0  0  0  0  0  0
   41.5350   31.0740   36.5430 H   0  0  0  0  0  0  0  0  0  0  0  0
   43.3530   31.8290   37.1120 O   0  0  0  0  0  0  0  0  0  0  0  0
   43.9880   32.3230   38.2510 C   0  0  0  0  0  3  0  0  0  0  0  0
   45.0550   32.4550   37.9520 H   0  0  0  0  0  0  0  0  0  0  0  0
   43.4230   33.6460   38.6630 C   0  0  1  0  0  3  0  0  0  0  0  0
   42.7810   34.4640   36.5110 O   0  0  0  0  0  0  0  0  0  0  0  0
   43.1680   35.3780   36.5700 H   0  0  0  0  0  0  0  0  0  0  0  0
   44.3920   34.6570   38.5980 O   0  0  0  0  0  0  0  0  0  0  0  0
   45.1000   34.3350   37.9660 H   0  0  0  0  0  0  0  0  0  0  0  0
  1 23  1  0  0  0  0
  2  1  1  0  0  0  0
  2  7  1  0  0  0  0
  3  2  2  0  0  0  0
  4  5  2  0  0  0  0
  4  3  1  0  0  0  0
  5  6  1  0  0  0  0
  6  1  2  0  0  0  0
  8  5  1  0  0  0  0
  9 18  1  0  0  0  0
 10  3  1  0  0  0  0
 10  9  2  0  0  0  0
 11 10  1  0  0  0  0
 12 11  2  0  0  0  0
 12 16  1  0  0  0  0
 13 14  1  0  0  0  0
 13 12  1  0  0  0  0
 14 15  2  0  0  0  0
 15 16  1  0  0  0  0
 16 17  2  0  0  0  0
 17  9  1  0  0  0  0
 17 22  1  0  0  0  0
 19 11  1  0  0  0  0
 20 13  1  0  0  0  0
 21 14  1  0  0  0  0
 24 25  2  0  0  0  0
 24 23  1  0  0  0  0
 25 29  1  0  0  0  0
 26 25  1  0  0  0  0
 27 28  2  0  0  0  0
 27 26  1  0  0  0  0
 28 24  1  0  0  0  0
 30 38  1  6  0  0  0
 30 37  1  0  0  0  0
 31 30  1  0  0  0  0
 31 27  1  1  0  0  0
 32 31  1  0  0  0  0
 33 32  1  0  0  0  0
 34 32  1  0  0  0  0
 34 35  1  0  0  0  0
 35 37  1  0  0  0  0
 36 35  1  0  0  0  0
 37 40  1  6  0  0  0
 38 39  1  0  0  0  0
 41 40  1  0  0  0  0
M  END
>  <minimizedAffinity>
-7.2122879

$$$$

 OpenBabel03252507393D

 41 45  0  0  1  0  0  0  0  0999 V2000
   37.2990   26.6720   42.5380 C   0  0  0  0  0  0  0  0  0  0  0  0
   38.6280   27.0160   42.8960 C   0  0  0  0  0  0  0  0  0  0  0  0
   39.5480   25.9730   42.9710 C   0  0  0  0  0  0  0  0  0  0  0  0
   39.1540   24.7280   42.7120 N   0  0  0  0  0  0  0  0  0  0  0  0
   37.8780   24.4220   42.3720 C   0  0  0  0  0  0  0  0  0  0  0  0
   36.9690   25.3870   42.2880 N   0  0  0  0  0  0  0  0  0  0  0  0
   38.9540   28.0010   43.1050 H   0  0  0  0  0  0  0  0  0  0  0  0
   37.6600   23.3790   42.1810 H   0  0  0  0  0  0  0  0  0  0  0  0
   41.2680   27.4480   43.8550 C   0  0  0  0  0  0  0  0  0  0  0  0
   40.9570   26.1920   43.3320 C   0  0  0  0  0  0  0  0  0  0  0  0
   41.9510   25.2810   43.1930 C   0  0  0  0  0  0  0  0  0  0  0  0
   43.2600   25.5360   43.5460 C   0  0  0  0  0  0  0  0  0  0  0  0
   44.3840   24.7880   43.4920 N   0  0  0  0  0  0  0  0  0  0  0  0
   45.4150   25.5730   43.9850 C   0  0  0  0  0  0  0  0  0  0  0  0
   44.8930   26.7790   44.3250 N   0  0  0  0  0  0  0  0  0  0  0  0
   43.5880   26.7600   44.0600 C   0  0  0  0  0  0  0  0  0  0  0  0
   42.5990   27.7090   44.2140 C   0  0  0  0  0  0  0  0  0  0  0  0
   40.5700   28.2710   44.0190 H   0  0  0  0  0  0  0  0  0  0  0  0
   41.6710   24.3220   42.7840 H   0  0  0  0  0  0  0  0  0  0  0  0
   44.4890   23.8010   43.1500 H   0  0  0  0  0  0  0  0  0  0  0  0
   46.4430   25.2450   44.0670 H   0  0  0  0  0  0  0  0  0  0  0  0
   42.8990   28.6650   44.6250 H   0  0  0  0  0  0  0  0  0  0  0  0
   36.3670   27.7090   42.4590 O   0  0  0  0  0  0  0  0  0  0  0  0
   36.5880   28.7710   41.5890 C   0  0  0  0  0  0  0  0  0  0  0  0
   36.3130   28.1980   40.4030 C   0  0  0  0  0  0  0  0  0  0  0  0
   36.6080   29.6400   39.1960 S   0  0  0  0  0  0  0  0  0  0  0  0
   37.0610   30.7460   40.6640 C   0  0  0  0  0  0  0  0  0  0  0  0
   36.9390   30.0350   41.4970 N   0  0  0  0  0  0  0  0  0  0  0  0
   35.9960   27.3090   39.7200 H   0  0  0  0  0  0  0  0  0  0  0  0
   38.6330   32.4120   41.3560 C   0  0  1  0  0  3  0  0  0  0  0  0
   37.4480   32.1650   40.4890 C   0  0  1  0  0  3  0  0  0  0  0  0
   37.8190   32.3640   39.0360 C   0  0  0  0  0  3  0  0  0  0  0  0
   37.0690   32.9700   38.4890 H   0  0  0  0  0  0  0  0  0  0  0  0
   39.0740   32.9760   38.9090 O   0  0  0  0  0  0  0  0  0  0  0  0
   40.0650   32.1100   39.3710 C   0  0  0  0  0  3  0  0  0  0  0  0
   41.0190   32.6750   39.2530 H   0  0  0  0  0  0  0  0  0  0  0  0
   39.8670   31.7700   40.8140 C   0  0  1  0  0  3  0  0  0  0  0  0
   38.8250   33.7980   41.5360 O   0  0  0  0  0  0  0  0  0  0  0  0
   39.3650   33.9680   42.3530 H   0  0  0  0  0  0  0  0  0  0  0  0
   40.9420   32.2150   41.5960 O   0  0  0  0  0  0  0  0  0  0  0  0
   41.3900   32.9460   41.0770 H   0  0  0  0  0  0  0  0  0  0  0  0
  1  2  1  0  0  0  0
  2  3  2  0  0  0  0
  2  7  1  0  0  0  0
  3 10  1  0  0  0  0
  4  3  1  0  0  0  0
  5  4  2  0  0  0  0
  6  5  1  0  0  0  0
  6  1  2  0  0  0  0
  8  5  1  0  0  0  0
  9 18  1  0  0  0  0
  9 17  1  0  0  0  0
 10  9  2  0  0  0  0
 11 10  1  0  0  0  0
 11 12  2  0  0  0  0
 12 16  1  0  0  0  0
 13 12  1  0  0  0  0
 13 14  1  0  0  0  0
 14 21  1  0  0  0  0
 14 15  2  0  0  0  0
 16 17  2  0  0  0  0
 16 15  1  0  0  0  0
 17 22  1  0  0  0  0
 19 11  1  0  0  0  0
 20 13  1  0  0  0  0
 23  1  1  0  0  0  0
 24 23  1  0  0  0  0
 25 24  2  0  0  0  0
 26 25  1  0  0  0  0
 26 27  1  0  0  0  0
 27 28  2  0  0  0  0
 28 24  1  0  0  0  0
 29 25  1  0  0  0  0
 30 38  1  6  0  0  0
 31 27  1  6  0  0  0
 31 30  1  0  0  0  0
 32 31  1  0  0  0  0
 33 32  1  0  0  0  0
 34 32  1  0  0  0  0
 34 35  1  0  0  0  0
 35 37  1  0  0  0  0
 36 35  1  0  0  0  0
 37 30  1  0  0  0  0
 37 40  1  1  0  0  0
 38 39  1  0  0  0  0
 41 40  1  0  0  0  0
M  END
>  <minimizedAffinity>
-6.9675765

$$$$

 OpenBabel03252507393D

 41 45  0  0  1  0  0  0  0  0999 V2000
   36.6930   28.8630   41.3730 C   0  0  0  0  0  0  0  0  0  0  0  0
   37.7930   29.7370   41.1800 C   0  0  0  0  0  0  0  0  0  0  0  0
   37.7610   30.5470   40.0460 C   0  0  0  0  0  0  0  0  0  0  0  0
   36.7270   30.4680   39.2120 N   0  0  0  0  0  0  0  0  0  0  0  0
   35.6860   29.6240   39.4160 C   0  0  0  0  0  0  0  0  0  0  0  0
   35.6770   28.8350   40.4850 N   0  0  0  0  0  0  0  0  0  0  0  0
   38.6210   29.8100   41.8350 H   0  0  0  0  0  0  0  0  0  0  0  0
   34.8940   29.6370   38.6780 H   0  0  0  0  0  0  0  0  0  0  0  0
   39.3020   32.2750   40.7890 C   0  0  0  0  0  0  0  0  0  0  0  0
   38.8370   31.4960   39.7280 C   0  0  0  0  0  0  0  0  0  0  0  0
   39.3950   31.6640   38.5040 C   0  0  0  0  0  0  0  0  0  0  0  0
   40.4050   32.5720   38.2550 C   0  0  0  0  0  0  0  0  0  0  0  0
   41.0890   32.8940   37.1360 N   0  0  0  0  0  0  0  0  0  0  0  0
   41.9940   33.8850   37.4880 C   0  0  0  0  0  0  0  0  0  0  0  0
   41.8380   34.1390   38.8120 N   0  0  0  0  0  0  0  0  0  0  0  0
   40.8750   33.3450   39.2800 C   0  0  0  0  0  0  0  0  0  0  0  0
   40.3290   33.1980   40.5380 C   0  0  0  0  0  0  0  0  0  0  0  0
   38.9440   32.2440   41.8200 H   0  0  0  0  0  0  0  0  0  0  0  0
   39.0090   31.0440   37.7090 H   0  0  0  0  0  0  0  0  0  0  0  0
   40.9800   32.4930   36.1730 H   0  0  0  0  0  0  0  0  0  0  0  0
   42.6870   34.3480   36.7980 H   0  0  0  0  0  0  0  0  0  0  0  0
   40.7290   33.8290   41.3220 H   0  0  0  0  0  0  0  0  0  0  0  0
   36.7140   28.0470   42.5060 O   0  0  0  0  0  0  0  0  0  0  0  0
   37.7890   27.1930   42.7230 C   0  0  0  0  0  0  0  0  0  0  0  0
   37.3340   26.0550   42.1680 C   0  0  0  0  0  0  0  0  0  0  0  0
   38.7960   24.8700   42.4520 S   0  0  0  0  0  0  0  0  0  0  0  0
   39.7370   26.2720   43.3060 C   0  0  0  0  0  0  0  0  0  0  0  0
   38.9980   27.0870   43.2300 N   0  0  0  0  0  0  0  0  0  0  0  0
   36.5400   25.4070   41.6130 H   0  0  0  0  0  0  0  0  0  0  0  0
   41.8300   25.1740   42.9320 C   0  0  1  0  0  3  0  0  0  0  0  0
   41.0990   26.0850   43.8560 C   0  0  1  0  0  3  0  0  0  0  0  0
   41.7720   27.4400   43.8880 C   0  0  0  0  0  3  0  0  0  0  0  0
   41.8960   27.8240   44.9200 H   0  0  0  0  0  0  0  0  0  0  0  0
   43.0280   27.4000   43.2660 O   0  0  0  0  0  0  0  0  0  0  0  0
   42.8660   27.1610   41.9020 C   0  0  0  0  0  3  0  0  0  0  0  0
   43.9020   27.1260   41.4900 H   0  0  0  0  0  0  0  0  0  0  0  0
   42.1910   25.8490   41.6510 C   0  0  1  0  0  3  0  0  0  0  0  0
   42.9770   24.6540   43.5670 O   0  0  0  0  0  0  0  0  0  0  0  0
   43.2680   23.8150   43.1190 H   0  0  0  0  0  0  0  0  0  0  0  0
   43.0250   24.9720   40.9430 O   0  0  0  0  0  0  0  0  0  0  0  0
   43.9650   25.2900   41.0900 H   0  0  0  0  0  0  0  0  0  0  0  0
  1 23  1  0  0  0  0
  2  1  1  0  0  0  0
  2  7  1  0  0  0  0
  3  2  2  0  0  0  0
  4  5  2  0  0  0  0
  4  3  1  0  0  0  0
  5  6  1  0  0  0  0
  6  1  2  0  0  0  0
  8  5  1  0  0  0  0
  9 18  1  0  0  0  0
 10  3  1  0  0  0  0
 10  9  2  0  0  0  0
 11 10  1  0  0  0  0
 12 11  2  0  0  0  0
 12 16  1  0  0  0  0
 13 14  1  0  0  0  0
 13 12  1  0  0  0  0
 14 15  2  0  0  0  0
 15 16  1  0  0  0  0
 16 17  2  0  0  0  0
 17  9  1  0  0  0  0
 17 22  1  0  0  0  0
 19 11  1  0  0  0  0
 20 13  1  0  0  0  0
 21 14  1  0  0  0  0
 23 24  1  0  0  0  0
 24 28  1  0  0  0  0
 25 26  1  0  0  0  0
 25 24  2  0  0  0  0
 26 27  1  0  0  0  0
 28 27  2  0  0  0  0
 29 25  1  0  0  0  0
 30 38  1  1  0  0  0
 30 31  1  0  0  0  0
 31 27  1  6  0  0  0
 31 32  1  0  0  0  0
 32 33  1  0  0  0  0
 34 32  1  0  0  0  0
 35 34  1  0  0  0  0
 36 35  1  0  0  0  0
 37 40  1  1  0  0  0
 37 35  1  0  0  0  0
 37 30  1  0  0  0  0
 39 38  1  0  0  0  0
 40 41  1  0  0  0  0
M  END
>  <minimizedAffinity>
-6.92857933

$$$$

 OpenBabel03252507393D

 41 45  0  0  1  0  0  0  0  0999 V2000
   39.2770   27.9040   42.8590 C   0  0  0  0  0  0  0  0  0  0  0  0
   39.1130   26.7520   42.0470 C   0  0  0  0  0  0  0  0  0  0  0  0
   37.8440   26.1770   42.0200 C   0  0  0  0  0  0  0  0  0  0  0  0
   36.8630   26.7180   42.7390 N   0  0  0  0  0  0  0  0  0  0  0  0
   37.0430   27.8190   43.5090 C   0  0  0  0  0  0  0  0  0  0  0  0
   38.2360   28.3980   43.5630 N   0  0  0  0  0  0  0  0  0  0  0  0
   39.8840   26.3120   41.4710 H   0  0  0  0  0  0  0  0  0  0  0  0
   36.1800   28.1800   44.0550 H   0  0  0  0  0  0  0  0  0  0  0  0
   36.5730   25.1380   40.2260 C   0  0  0  0  0  0  0  0  0  0  0  0
   37.5400   24.9820   41.2210 C   0  0  0  0  0  0  0  0  0  0  0  0
   38.1190   23.7670   41.3800 C   0  0  0  0  0  0  0  0  0  0  0  0
   37.7980   22.6720   40.6030 C   0  0  0  0  0  0  0  0  0  0  0  0
   38.2420   21.3970   40.5920 N   0  0  0  0  0  0  0  0  0  0  0  0
   37.5540   20.7380   39.5830 C   0  0  0  0  0  0  0  0  0  0  0  0
   36.7080   21.6300   39.0070 N   0  0  0  0  0  0  0  0  0  0  0  0
   36.8530   22.8030   39.6230 C   0  0  0  0  0  0  0  0  0  0  0  0
   36.2450   24.0260   39.4350 C   0  0  0  0  0  0  0  0  0  0  0  0
   36.0290   26.0550   39.9910 H   0  0  0  0  0  0  0  0  0  0  0  0
   38.8610   23.6850   42.1590 H   0  0  0  0  0  0  0  0  0  0  0  0
   38.9670   20.9580   41.2110 H   0  0  0  0  0  0  0  0  0  0  0  0
   37.6950   19.6960   39.3320 H   0  0  0  0  0  0  0  0  0  0  0  0
   35.5030   24.0880   38.6490 H   0  0  0  0  0  0  0  0  0  0  0  0
   40.5440   28.4880   42.8940 O   0  0  0  0  0  0  0  0  0  0  0  0
   40.7860   29.6560   42.1790 C   0  0  0  0  0  0  0  0  0  0  0  0
   41.7800   30.2030   42.9020 C   0  0  0  0  0  0  0  0  0  0  0  0
   42.1290   31.8060   41.9360 S   0  0  0  0  0  0  0  0  0  0  0  0
   40.7680   31.3350   40.7080 C   0  0  0  0  0  0  0  0  0  0  0  0
   40.4330   30.3750   41.1350 N   0  0  0  0  0  0  0  0  0  0  0  0
   42.5370   30.2290   43.7880 H   0  0  0  0  0  0  0  0  0  0  0  0
   38.9360   32.2450   39.4670 C   0  0  1  0  0  3  0  0  0  0  0  0
   40.4210   32.1920   39.5510 C   0  0  1  0  0  3  0  0  0  0  0  0
   40.9740   33.5750   39.8230 C   0  0  0  0  0  3  0  0  0  0  0  0
   41.8360   33.8190   39.1710 H   0  0  0  0  0  0  0  0  0  0  0  0
   39.9890   34.5590   39.6580 O   0  0  0  0  0  0  0  0  0  0  0  0
   39.0120   34.4110   40.6430 C   0  0  0  0  0  3  0  0  0  0  0  0
   38.2660   35.2130   40.4310 H   0  0  0  0  0  0  0  0  0  0  0  0
   38.3420   33.0760   40.5550 C   0  0  1  0  0  3  0  0  0  0  0  0
   38.5360   32.7160   38.1990 O   0  0  0  0  0  0  0  0  0  0  0  0
   37.6010   32.4380   38.0070 H   0  0  0  0  0  0  0  0  0  0  0  0
   36.9750   33.2080   40.2750 O   0  0  0  0  0  0  0  0  0  0  0  0
   36.8550   34.1110   39.8560 H   0  0  0  0  0  0  0  0  0  0  0  0
  1 23  1  0  0  0  0
  1  6  1  0  0  0  0
  2  1  2  0  0  0  0
  3  2  1  0  0  0  0
  3  4  2  0  0  0  0
  4  5  1  0  0  0  0
  5  6  2  0  0  0  0
  5  8  1  0  0  0  0
  7  2  1  0  0  0  0
  9 10  1  0  0  0  0
 10 11  2  0  0  0  0
 10  3  1  0  0  0  0
 11 19  1  0  0  0  0
 12 11  1  0  0  0  0
 13 12  1  0  0  0  0
 13 20  1  0  0  0  0
 14 13  1  0  0  0  0
 15 14  2  0  0  0  0
 15 16  1  0  0  0  0
 16 12  2  0  0  0  0
 17 16  1  0  0  0  0
 17  9  2  0  0  0  0
 18  9  1  0  0  0  0
 21 14  1  0  0  0  0
 22 17  1  0  0  0  0
 24 23  1  0  0  0  0
 24 25  2  0  0  0  0
 25 29  1  0  0  0  0
 26 25  1  0  0  0  0
 27 28  2  0  0  0  0
 27 26  1  0  0  0  0
 28 24  1  0  0  0  0
 30 38  1  6  0  0  0
 30 31  1  0  0  0  0
 30 37  1  0  0  0  0
 31 32  1  0  0  0  0
 31 27  1  1  0  0  0
 33 32  1  0  0  0  0
 34 32  1  0  0  0  0
 34 35  1  0  0  0  0
 36 35  1  0  0  0  0
 37 40  1  6  0  0  0
 37 35  1  0  0  0  0
 39 38  1  0  0  0  0
 41 40  1  0  0  0  0
M  END
>  <minimizedAffinity>
-6.90408134

$$$$

 OpenBabel03252507393D

 41 45  0  0  1  0  0  0  0  0999 V2000
   37.4880   30.8680   39.9270 C   0  0  0  0  0  0  0  0  0  0  0  0
   38.5430   30.2480   40.6450 C   0  0  0  0  0  0  0  0  0  0  0  0
   38.1840   29.2630   41.5630 C   0  0  0  0  0  0  0  0  0  0  0  0
   36.9000   28.9530   41.7260 N   0  0  0  0  0  0  0  0  0  0  0  0
   35.9080   29.5600   41.0290 C   0  0  0  0  0  0  0  0  0  0  0  0
   36.2070   30.5030   40.1430 N   0  0  0  0  0  0  0  0  0  0  0  0
   39.5670   30.4850   40.5250 H   0  0  0  0  0  0  0  0  0  0  0  0
   34.8960   29.2340   41.2350 H   0  0  0  0  0  0  0  0  0  0  0  0
   38.7070   27.4410   43.0880 C   0  0  0  0  0  0  0  0  0  0  0  0
   39.1780   28.5430   42.3720 C   0  0  0  0  0  0  0  0  0  0  0  0
   40.4910   28.8680   42.4690 C   0  0  0  0  0  0  0  0  0  0  0  0
   41.3870   28.1600   43.2440 C   0  0  0  0  0  0  0  0  0  0  0  0
   42.7090   28.3080   43.4790 N   0  0  0  0  0  0  0  0  0  0  0  0
   43.0790   27.2930   44.3490 C   0  0  0  0  0  0  0  0  0  0  0  0
   41.9740   26.5550   44.6210 N   0  0  0  0  0  0  0  0  0  0  0  0
   40.9460   27.0780   43.9540 C   0  0  0  0  0  0  0  0  0  0  0  0
   39.6160   26.7200   43.8760 C   0  0  0  0  0  0  0  0  0  0  0  0
   37.6800   27.0710   43.1010 H   0  0  0  0  0  0  0  0  0  0  0  0
   40.8180   29.7260   41.9010 H   0  0  0  0  0  0  0  0  0  0  0  0
   43.3570   29.0370   43.0930 H   0  0  0  0  0  0  0  0  0  0  0  0
   44.0850   27.1500   44.7230 H   0  0  0  0  0  0  0  0  0  0  0  0
   39.3070   25.8570   44.4530 H   0  0  0  0  0  0  0  0  0  0  0  0
   37.8360   31.8560   39.0040 O   0  0  0  0  0  0  0  0  0  0  0  0
   38.7400   32.8490   39.3620 C   0  0  0  0  0  0  0  0  0  0  0  0
   37.9290   33.7340   39.9690 C   0  0  0  0  0  0  0  0  0  0  0  0
   39.1520   35.1040   40.4710 S   0  0  0  0  0  0  0  0  0  0  0  0
   40.5580   34.1010   39.6960 C   0  0  0  0  0  0  0  0  0  0  0  0
   40.0020   33.2210   39.3320 N   0  0  0  0  0  0  0  0  0  0  0  0
   36.8960   34.1140   40.3520 H   0  0  0  0  0  0  0  0  0  0  0  0
   42.4210   34.5960   41.1130 C   0  0  1  0  0  3  0  0  0  0  0  0
   41.9590   34.5800   39.6980 C   0  0  1  0  0  3  0  0  0  0  0  0
   42.7820   33.5950   38.8960 C   0  0  0  0  0  3  0  0  0  0  0  0
   43.1140   34.0150   37.9260 H   0  0  0  0  0  0  0  0  0  0  0  0
   43.9090   33.1690   39.6140 O   0  0  0  0  0  0  0  0  0  0  0  0
   43.5030   32.4160   40.7160 C   0  0  0  0  0  3  0  0  0  0  0  0
   44.4490   32.1350   41.2370 H   0  0  0  0  0  0  0  0  0  0  0  0
   42.6490   33.2200   41.6440 C   0  0  1  0  0  3  0  0  0  0  0  0
   43.5860   35.3820   41.2360 O   0  0  0  0  0  0  0  0  0  0  0  0
   43.7020   35.6810   42.1770 H   0  0  0  0  0  0  0  0  0  0  0  0
   43.2510   33.3580   42.9030 O   0  0  0  0  0  0  0  0  0  0  0  0
   44.2320   33.2030   42.7700 H   0  0  0  0  0  0  0  0  0  0  0  0
  1  6  2  0  0  0  0
  1  2  1  0  0  0  0
  2  3  2  0  0  0  0
  3  4  1  0  0  0  0
  3 10  1  0  0  0  0
  5  8  1  0  0  0  0
  5  4  2  0  0  0  0
  6  5  1  0  0  0  0
  7  2  1  0  0  0  0
  9 18  1  0  0  0  0
  9 17  1  0  0  0  0
 10 11  1  0  0  0  0
 10  9  2  0  0  0  0
 11 12  2  0  0  0  0
 12 13  1  0  0  0  0
 12 16  1  0  0  0  0
 13 14  1  0  0  0  0
 14 15  2  0  0  0  0
 14 21  1  0  0  0  0
 16 15  1  0  0  0  0
 17 16  2  0  0  0  0
 17 22  1  0  0  0  0
 19 11  1  0  0  0  0
 20 13  1  0  0  0  0
 23 24  1  0  0  0  0
 23  1  1  0  0  0  0
 24 25  2  0  0  0  0
 25 29  1  0  0  0  0
 25 26  1  0  0  0  0
 27 26  1  0  0  0  0
 28 24  1  0  0  0  0
 28 27  2  0  0  0  0
 30 38  1  6  0  0  0
 30 37  1  0  0  0  0
 31 27  1  1  0  0  0
 31 30  1  0  0  0  0
 32 34  1  0  0  0  0
 32 31  1  0  0  0  0
 33 32  1  0  0  0  0
 34 35  1  0  0  0  0
 35 36  1  0  0  0  0
 35 37  1  0  0  0  0
 37 40  1  1  0  0  0
 38 39  1  0  0  0  0
 41 40  1  0  0  0  0
M  END
>  <minimizedAffinity>
-6.87889004

$$$$

 OpenBabel03252507393D

 41 45  0  0  1  0  0  0  0  0999 V2000
   38.4770   27.1760   43.3220 C   0  0  0  0  0  0  0  0  0  0  0  0
   37.7890   26.3660   42.3810 C   0  0  0  0  0  0  0  0  0  0  0  0
   38.3020   25.0900   42.1570 C   0  0  0  0  0  0  0  0  0  0  0  0
   39.3880   24.6940   42.8150 N   0  0  0  0  0  0  0  0  0  0  0  0
   40.0290   25.4850   43.7100 C   0  0  0  0  0  0  0  0  0  0  0  0
   39.5730   26.7080   43.9550 N   0  0  0  0  0  0  0  0  0  0  0  0
   36.9250   26.6700   41.8510 H   0  0  0  0  0  0  0  0  0  0  0  0
   40.9040   25.0670   44.1930 H   0  0  0  0  0  0  0  0  0  0  0  0
   38.5020   23.1160   40.7500 C   0  0  0  0  0  0  0  0  0  0  0  0
   37.6860   24.1520   41.2080 C   0  0  0  0  0  0  0  0  0  0  0  0
   36.4090   24.2220   40.7570 C   0  0  0  0  0  0  0  0  0  0  0  0
   35.8760   23.3150   39.8640 C   0  0  0  0  0  0  0  0  0  0  0  0
   34.6550   23.2000   39.2960 N   0  0  0  0  0  0  0  0  0  0  0  0
   34.6970   22.0850   38.4720 C   0  0  0  0  0  0  0  0  0  0  0  0
   35.9410   21.5500   38.5600 N   0  0  0  0  0  0  0  0  0  0  0  0
   36.6580   22.2930   39.4020 C   0  0  0  0  0  0  0  0  0  0  0  0
   37.9620   22.1940   39.8420 C   0  0  0  0  0  0  0  0  0  0  0  0
   39.5430   22.9430   41.0290 H   0  0  0  0  0  0  0  0  0  0  0  0
   35.8090   25.0360   41.1330 H   0  0  0  0  0  0  0  0  0  0  0  0
   33.8180   23.8180   39.4310 H   0  0  0  0  0  0  0  0  0  0  0  0
   33.8620   21.7360   37.8800 H   0  0  0  0  0  0  0  0  0  0  0  0
   38.5480   21.3700   39.4530 H   0  0  0  0  0  0  0  0  0  0  0  0
   37.9720   28.4560   43.5560 O   0  0  0  0  0  0  0  0  0  0  0  0
   38.0100   29.4090   42.5440 C   0  0  0  0  0  0  0  0  0  0  0  0
   39.1440   30.0660   42.8470 C   0  0  0  0  0  0  0  0  0  0  0  0
   39.2160   31.3770   41.4690 S   0  0  0  0  0  0  0  0  0  0  0  0
   37.5990   30.6910   40.7630 C   0  0  0  0  0  0  0  0  0  0  0  0
   37.3960   29.8770   41.4780 N   0  0  0  0  0  0  0  0  0  0  0  0
   40.0970   30.2660   43.4870 H   0  0  0  0  0  0  0  0  0  0  0  0
   38.0520   31.7470   38.6640 C   0  0  1  0  0  3  0  0  0  0  0  0
   36.9620   31.2650   39.5570 C   0  0  1  0  0  3  0  0  0  0  0  0
   36.1860   30.1580   38.8760 C   0  0  0  0  0  3  0  0  0  0  0  0
   35.0900   30.2940   38.9690 H   0  0  0  0  0  0  0  0  0  0  0  0
   36.5170   30.0660   37.5160 O   0  0  0  0  0  0  0  0  0  0  0  0
   37.8420   29.6490   37.3850 C   0  0  0  0  0  3  0  0  0  0  0  0
   38.0270   29.6190   36.2860 H   0  0  0  0  0  0  0  0  0  0  0  0
   38.7870   30.6190   38.0200 C   0  0  1  0  0  3  0  0  0  0  0  0
   37.5330   32.6290   37.6930 O   0  0  0  0  0  0  0  0  0  0  0  0
   38.2570   33.2060   37.3310 H   0  0  0  0  0  0  0  0  0  0  0  0
   39.6560   31.1800   37.0730 O   0  0  0  0  0  0  0  0  0  0  0  0
   39.2110   31.0760   36.1800 H   0  0  0  0  0  0  0  0  0  0  0  0
  1 23  1  0  0  0  0
  1  6  1  0  0  0  0
  2  1  2  0  0  0  0
  3  2  1  0  0  0  0
  3  4  2  0  0  0  0
  4  5  1  0  0  0  0
  5  6  2  0  0  0  0
  5  8  1  0  0  0  0
  7  2  1  0  0  0  0
  9 18  1  0  0  0  0
  9 10  1  0  0  0  0
 10  3  1  0  0  0  0
 11 19  1  0  0  0  0
 11 10  2  0  0  0  0
 12 11  1  0  0  0  0
 13 20  1  0  0  0  0
 13 12  1  0  0  0  0
 14 15  2  0  0  0  0
 14 13  1  0  0  0  0
 15 16  1  0  0  0  0
 16 17  1  0  0  0  0
 16 12  2  0  0  0  0
 17  9  2  0  0  0  0
 21 14  1  0  0  0  0
 22 17  1  0  0  0  0
 24 25  2  0  0  0  0
 24 23  1  0  0  0  0
 25 29  1  0  0  0  0
 26 25  1  0  0  0  0
 27 26  1  0  0  0  0
 27 28  2  0  0  0  0
 28 24  1  0  0  0  0
 30 38  1  6  0  0  0
 30 31  1  0  0  0  0
 31 27  1  1  0  0  0
 32 33  1  0  0  0  0
 32 31  1  0  0  0  0
 34 32  1  0  0  0  0
 35 34  1  0  0  0  0
 35 37  1  0  0  0  0
 36 35  1  0  0  0  0
 37 40  1  6  0  0  0
 37 30  1  0  0  0  0
 39 38  1  0  0  0  0
 41 40  1  0  0  0  0
M  END
>  <minimizedAffinity>
-6.80017614

$$$$

 OpenBabel03252507393D

 41 45  0  0  1  0  0  0  0  0999 V2000
   38.7990   28.3220   42.9590 C   0  0  0  0  0  0  0  0  0  0  0  0
   38.7560   27.2050   42.0850 C   0  0  0  0  0  0  0  0  0  0  0  0
   37.6090   26.4150   42.1310 C   0  0  0  0  0  0  0  0  0  0  0  0
   36.6260   26.7320   42.9710 N   0  0  0  0  0  0  0  0  0  0  0  0
   36.6890   27.8040   43.7970 C   0  0  0  0  0  0  0  0  0  0  0  0
   37.7640   28.5840   43.7850 N   0  0  0  0  0  0  0  0  0  0  0  0
   39.5300   26.9430   41.4130 H   0  0  0  0  0  0  0  0  0  0  0  0
   35.8360   27.9750   44.4420 H   0  0  0  0  0  0  0  0  0  0  0  0
   36.6550   25.4030   40.1360 C   0  0  0  0  0  0  0  0  0  0  0  0
   37.4370   25.2300   41.2790 C   0  0  0  0  0  0  0  0  0  0  0  0
   37.9730   24.0080   41.5210 C   0  0  0  0  0  0  0  0  0  0  0  0
   37.7820   22.9240   40.6890 C   0  0  0  0  0  0  0  0  0  0  0  0
   38.2140   21.6450   40.7410 N   0  0  0  0  0  0  0  0  0  0  0  0
   37.7030   21.0010   39.6230 C   0  0  0  0  0  0  0  0  0  0  0  0
   36.9730   21.9050   38.9210 N   0  0  0  0  0  0  0  0  0  0  0  0
   37.0190   23.0710   39.5650 C   0  0  0  0  0  0  0  0  0  0  0  0
   36.4590   24.3010   39.2890 C   0  0  0  0  0  0  0  0  0  0  0  0
   36.1650   26.3260   39.8210 H   0  0  0  0  0  0  0  0  0  0  0  0
   38.5720   23.9140   42.4150 H   0  0  0  0  0  0  0  0  0  0  0  0
   38.8200   21.1950   41.4700 H   0  0  0  0  0  0  0  0  0  0  0  0
   37.8790   19.9600   39.3890 H   0  0  0  0  0  0  0  0  0  0  0  0
   35.8620   24.3760   38.3890 H   0  0  0  0  0  0  0  0  0  0  0  0
   39.9430   29.1210   42.9220 O   0  0  0  0  0  0  0  0  0  0  0  0
   40.1980   29.9120   41.8070 C   0  0  0  0  0  0  0  0  0  0  0  0
   41.5140   29.7000   41.6320 C   0  0  0  0  0  0  0  0  0  0  0  0
   41.8840   30.7740   40.1050 S   0  0  0  0  0  0  0  0  0  0  0  0
   40.0640   31.2900   40.0560 C   0  0  0  0  0  0  0  0  0  0  0  0
   39.6720   30.7310   40.9210 N   0  0  0  0  0  0  0  0  0  0  0  0
   42.5420   29.2210   41.9040 H   0  0  0  0  0  0  0  0  0  0  0  0
   39.4290   31.4550   37.7540 C   0  0  1  0  0  3  0  0  0  0  0  0
   39.5360   32.2170   39.0290 C   0  0  1  0  0  3  0  0  0  0  0  0
   38.1640   32.6690   39.4790 C   0  0  0  0  0  3  0  0  0  0  0  0
   38.1530   33.7310   39.7960 H   0  0  0  0  0  0  0  0  0  0  0  0
   37.2110   32.4890   38.4660 O   0  0  0  0  0  0  0  0  0  0  0  0
   37.0320   31.1270   38.2290 C   0  0  0  0  0  3  0  0  0  0  0  0
   36.2800   31.0730   37.4070 H   0  0  0  0  0  0  0  0  0  0  0  0
   38.3020   30.4770   37.7800 C   0  0  1  0  0  3  0  0  0  0  0  0
   39.3010   32.3410   36.6650 O   0  0  0  0  0  0  0  0  0  0  0  0
   39.5710   31.8910   35.8210 H   0  0  0  0  0  0  0  0  0  0  0  0
   38.1790   29.9540   36.4850 O   0  0  0  0  0  0  0  0  0  0  0  0
   37.4200   30.4440   36.0500 H   0  0  0  0  0  0  0  0  0  0  0  0
  1  6  1  0  0  0  0
  2  3  1  0  0  0  0
  2  1  2  0  0  0  0
  3  4  2  0  0  0  0
  4  5  1  0  0  0  0
  5  8  1  0  0  0  0
  6  5  2  0  0  0  0
  7  2  1  0  0  0  0
  9 10  1  0  0  0  0
 10 11  2  0  0  0  0
 10  3  1  0  0  0  0
 11 19  1  0  0  0  0
 12 13  1  0  0  0  0
 12 11  1  0  0  0  0
 13 20  1  0  0  0  0
 14 13  1  0  0  0  0
 15 16  1  0  0  0  0
 15 14  2  0  0  0  0
 16 12  2  0  0  0  0
 17 16  1  0  0  0  0
 17  9  2  0  0  0  0
 18  9  1  0  0  0  0
 21 14  1  0  0  0  0
 22 17  1  0  0  0  0
 23  1  1  0  0  0  0
 24 23  1  0  0  0  0
 25 24  2  0  0  0  0
 25 29  1  0  0  0  0
 26 25  1  0  0  0  0
 27 26  1  0  0  0  0
 27 28  2  0  0  0  0
 28 24  1  0  0  0  0
 30 38  1  6  0  0  0
 30 37  1  0  0  0  0
 30 31  1  0  0  0  0
 31 32  1  0  0  0  0
 31 27  1  1  0  0  0
 32 33  1  0  0  0  0
 34 32  1  0  0  0  0
 35 34  1  0  0  0  0
 36 35  1  0  0  0  0
 37 40  1  6  0  0  0
 37 35  1  0  0  0  0
 39 38  1  0  0  0  0
 41 40  1  0  0  0  0
M  END
>  <minimizedAffinity>
-6.79339552

$$$$

 OpenBabel03252507393D

 41 45  0  0  1  0  0  0  0  0999 V2000
   36.1820   28.1220   37.5360 C   0  0  0  0  0  0  0  0  0  0  0  0
   36.9100   29.0920   38.2730 C   0  0  0  0  0  0  0  0  0  0  0  0
   37.3010   30.2400   37.5870 C   0  0  0  0  0  0  0  0  0  0  0  0
   36.9860   30.3760   36.3010 N   0  0  0  0  0  0  0  0  0  0  0  0
   36.2900   29.4350   35.6160 C   0  0  0  0  0  0  0  0  0  0  0  0
   35.8970   28.3270   36.2330 N   0  0  0  0  0  0  0  0  0  0  0  0
   37.1670   28.9960   39.2960 H   0  0  0  0  0  0  0  0  0  0  0  0
   36.0850   29.6420   34.5740 H   0  0  0  0  0  0  0  0  0  0  0  0
   39.4200   31.3840   37.9280 C   0  0  0  0  0  0  0  0  0  0  0  0
   38.0590   31.3210   38.2320 C   0  0  0  0  0  0  0  0  0  0  0  0
   37.5400   32.2390   39.0840 C   0  0  0  0  0  0  0  0  0  0  0  0
   38.2950   33.2370   39.6660 C   0  0  0  0  0  0  0  0  0  0  0  0
   37.9880   34.2340   40.5250 N   0  0  0  0  0  0  0  0  0  0  0  0
   39.1600   34.9340   40.7670 C   0  0  0  0  0  0  0  0  0  0  0  0
   40.1510   34.3460   40.0500 N   0  0  0  0  0  0  0  0  0  0  0  0
   39.6310   33.3170   39.3830 C   0  0  0  0  0  0  0  0  0  0  0  0
   40.1890   32.3970   38.5190 C   0  0  0  0  0  0  0  0  0  0  0  0
   39.9650   30.7120   37.2630 H   0  0  0  0  0  0  0  0  0  0  0  0
   36.4850   32.1580   39.2950 H   0  0  0  0  0  0  0  0  0  0  0  0
   37.0530   34.4610   40.9440 H   0  0  0  0  0  0  0  0  0  0  0  0
   39.2310   35.7940   41.4200 H   0  0  0  0  0  0  0  0  0  0  0  0
   41.2490   32.4940   38.3200 H   0  0  0  0  0  0  0  0  0  0  0  0
   35.7840   26.9680   38.2140 O   0  0  0  0  0  0  0  0  0  0  0  0
   36.4990   26.5390   39.3260 C   0  0  0  0  0  0  0  0  0  0  0  0
   37.2780   25.5860   38.7840 C   0  0  0  0  0  0  0  0  0  0  0  0
   38.2680   24.9860   40.2950 S   0  0  0  0  0  0  0  0  0  0  0  0
   37.3420   26.2380   41.3710 C   0  0  0  0  0  0  0  0  0  0  0  0
   36.6850   26.7040   40.6180 N   0  0  0  0  0  0  0  0  0  0  0  0
   37.6730   24.9350   37.9020 H   0  0  0  0  0  0  0  0  0  0  0  0
   39.0210   26.7960   42.9820 C   0  0  1  0  0  3  0  0  0  0  0  0
   37.6030   26.3720   42.8220 C   0  0  1  0  0  3  0  0  0  0  0  0
   36.6780   27.4440   43.3580 C   0  0  0  0  0  3  0  0  0  0  0  0
   35.8760   27.0250   43.9980 H   0  0  0  0  0  0  0  0  0  0  0  0
   37.3860   28.4080   44.0900 O   0  0  0  0  0  0  0  0  0  0  0  0
   38.2280   29.1180   43.2350 C   0  0  0  0  0  3  0  0  0  0  0  0
   38.7610   29.8440   43.8940 H   0  0  0  0  0  0  0  0  0  0  0  0
   39.2290   28.2180   42.5800 C   0  0  1  0  0  3  0  0  0  0  0  0
   39.4470   26.5810   44.3100 O   0  0  0  0  0  0  0  0  0  0  0  0
   40.4390   26.5280   44.3490 H   0  0  0  0  0  0  0  0  0  0  0  0
   40.5390   28.5630   42.9410 O   0  0  0  0  0  0  0  0  0  0  0  0
   40.4740   29.0720   43.8020 H   0  0  0  0  0  0  0  0  0  0  0  0
  1 23  1  0  0  0  0
  1  2  1  0  0  0  0
  2  7  1  0  0  0  0
  3 10  1  0  0  0  0
  3  2  2  0  0  0  0
  4  3  1  0  0  0  0
  5  6  1  0  0  0  0
  5  4  2  0  0  0  0
  6  1  2  0  0  0  0
  8  5  1  0  0  0  0
  9 10  2  0  0  0  0
  9 17  1  0  0  0  0
 10 11  1  0  0  0  0
 11 19  1  0  0  0  0
 11 12  2  0  0  0  0
 12 13  1  0  0  0  0
 13 14  1  0  0  0  0
 13 20  1  0  0  0  0
 14 21  1  0  0  0  0
 15 14  2  0  0  0  0
 16 12  1  0  0  0  0
 16 15  1  0  0  0  0
 17 16  2  0  0  0  0
 18  9  1  0  0  0  0
 22 17  1  0  0  0  0
 23 24  1  0  0  0  0
 24 28  1  0  0  0  0
 25 24  2  0  0  0  0
 25 26  1  0  0  0  0
 26 27  1  0  0  0  0
 28 27  2  0  0  0  0
 29 25  1  0  0  0  0
 30 38  1  1  0  0  0
 31 27  1  6  0  0  0
 31 30  1  0  0  0  0
 31 32  1  0  0  0  0
 32 33  1  0  0  0  0
 32 34  1  0  0  0  0
 35 36  1  0  0  0  0
 35 34  1  0  0  0  0
 37 40  1  1  0  0  0
 37 30  1  0  0  0  0
 37 35  1  0  0  0  0
 38 39  1  0  0  0  0
 40 41  1  0  0  0  0
M  END
>  <minimizedAffinity>
-6.76797295

$$$$
