
 OpenBabel03242519053D

 46 49  0  0  1  0  0  0  0  0999 V2000
   49.0940   32.9340   39.9180 N   0  0  0  0  0  0  0  0  0  0  0  0
   50.1260   33.0030   40.0790 H   0  0  0  0  0  0  0  0  0  0  0  0
   47.4680   33.7450   42.9790 N   0  0  0  0  0  0  0  0  0  0  0  0
   48.1870   34.2070   41.8030 C   0  0  0  0  0  0  0  0  0  0  0  0
   48.1650   32.9420   41.0020 C   0  0  2  0  0  0  0  0  0  0  0  0
   48.6280   31.9190   42.0260 C   0  0  0  0  0  0  0  0  0  0  0  0
   48.0120   32.4320   43.3020 C   0  0  0  0  0  0  0  0  0  0  0  0
   49.2330   34.4590   42.0400 H   0  0  0  0  0  0  0  0  0  0  0  0
   47.6780   35.0290   41.2700 H   0  0  0  0  0  0  0  0  0  0  0  0
   47.1490   32.6930   40.6300 H   0  0  0  0  0  0  0  0  0  0  0  0
   49.7270   31.8300   42.0640 H   0  0  0  0  0  0  0  0  0  0  0  0
   48.1800   30.9240   41.7580 H   0  0  0  0  0  0  0  0  0  0  0  0
   48.8320   32.5630   44.0320 H   0  0  0  0  0  0  0  0  0  0  0  0
   47.2660   31.7400   43.7040 H   0  0  0  0  0  0  0  0  0  0  0  0
   44.7130   35.9680   44.1240 C   0  0  0  0  0  0  0  0  0  0  0  0
   45.7030   35.4430   43.3000 C   0  0  0  0  0  0  0  0  0  0  0  0
   46.4500   34.3500   43.7260 C   0  0  0  0  0  0  0  0  0  0  0  0
   46.1490   33.8570   44.9560 N   0  0  0  0  0  0  0  0  0  0  0  0
   45.1980   34.3530   45.7590 C   0  0  0  0  0  0  0  0  0  0  0  0
   44.4730   35.4230   45.3330 N   0  0  0  0  0  0  0  0  0  0  0  0
   44.1590   36.8190   43.7490 H   0  0  0  0  0  0  0  0  0  0  0  0
   45.9540   35.8320   42.3080 H   0  0  0  0  0  0  0  0  0  0  0  0
   45.0010   33.9170   46.7350 H   0  0  0  0  0  0  0  0  0  0  0  0
   49.4070   31.8050   37.7340 C   0  0  0  0  0  0  0  0  0  0  0  0
   48.9350   32.8470   38.5220 C   0  0  0  0  0  0  0  0  0  0  0  0
   48.2810   33.8130   37.8050 C   0  0  0  0  0  0  0  0  0  0  0  0
   48.0770   33.8150   36.4450 C   0  0  0  0  0  0  0  0  0  0  0  0
   48.5650   32.7590   35.7080 C   0  0  0  0  0  0  0  0  0  0  0  0
   49.2330   31.7510   36.3680 C   0  0  0  0  0  0  0  0  0  0  0  0
   47.8690   34.6760   38.3140 H   0  0  0  0  0  0  0  0  0  0  0  0
   47.5520   34.6060   35.9260 H   0  0  0  0  0  0  0  0  0  0  0  0
   48.4690   32.6450   34.6370 H   0  0  0  0  0  0  0  0  0  0  0  0
   49.6010   29.3890   36.5750 C   0  0  2  0  0  3  0  0  0  0  0  0
   49.7930   30.5720   35.6520 C   0  0  2  0  0  3  0  0  0  0  0  0
   51.2700   30.6800   35.3870 C   0  0  0  0  0  3  0  0  0  0  0  0
   51.4660   30.2010   34.3860 H   0  0  0  0  0  0  0  0  0  0  0  0
   52.0120   29.9350   36.2980 O   0  0  0  0  0  0  0  0  0  0  0  0
   51.8200   28.5770   36.0520 C   0  0  0  0  0  3  0  0  0  0  0  0
   52.1840   28.3810   35.0190 H   0  0  0  0  0  0  0  0  0  0  0  0
   50.3610   28.1690   36.1070 C   0  0  1  0  0  3  0  0  0  0  0  0
   48.2820   29.0290   36.7590 O   0  0  0  0  0  0  0  0  0  0  0  0
   47.8650   29.4870   37.5300 H   0  0  0  0  0  0  0  0  0  0  0  0
   50.1640   27.1830   37.0800 O   0  0  0  0  0  0  0  0  0  0  0  0
   49.3670   27.3900   37.6540 H   0  0  0  0  0  0  0  0  0  0  0  0
   50.6770   29.8660   38.9600 N   0  0  0  0  0  0  0  0  0  0  0  0
   50.1200   30.7220   38.4110 C   0  0  0  0  0  0  0  0  0  0  0  0
  1  2  1  0  0  0  0
  1  5  1  0  0  0  0
  3  7  1  0  0  0  0
  3 17  1  0  0  0  0
  4  8  1  0  0  0  0
  4  3  1  0  0  0  0
  5 10  1  6  0  0  0
  5  4  1  0  0  0  0
  5  6  1  0  0  0  0
  6 11  1  0  0  0  0
  6  7  1  0  0  0  0
  7 14  1  0  0  0  0
  7 13  1  0  0  0  0
  9  4  1  0  0  0  0
 12  6  1  0  0  0  0
 15 20  1  0  0  0  0
 16 17  1  0  0  0  0
 16 15  2  0  0  0  0
 17 18  2  0  0  0  0
 18 19  1  0  0  0  0
 19 23  1  0  0  0  0
 20 19  2  0  0  0  0
 21 15  1  0  0  0  0
 22 16  1  0  0  0  0
 24 46  1  0  0  0  0
 24 25  1  0  0  0  0
 25  1  1  0  0  0  0
 26 30  1  0  0  0  0
 26 25  2  0  0  0  0
 27 26  1  0  0  0  0
 28 29  1  0  0  0  0
 28 27  2  0  0  0  0
 29 24  2  0  0  0  0
 31 27  1  0  0  0  0
 32 28  1  0  0  0  0
 33 41  1  6  0  0  0
 34 29  1  1  0  0  0
 34 33  1  0  0  0  0
 35 34  1  0  0  0  0
 35 37  1  0  0  0  0
 36 35  1  0  0  0  0
 38 40  1  0  0  0  0
 38 37  1  0  0  0  0
 39 38  1  0  0  0  0
 40 33  1  0  0  0  0
 40 43  1  1  0  0  0
 41 42  1  0  0  0  0
 43 44  1  0  0  0  0
 46 45  3  0  0  0  0
M  END
>  <minimizedAffinity>
-4.58468008

>  <minimizedRMSD>
1.10159862

$$$$
