
 OpenBabel03242513073D

 44 48  0  0  1  0  0  0  0  0999 V2000
   45.9440   33.2390   41.6240 C   0  0  0  0  0  0  0  0  0  0  0  0
   47.1300   33.9210   41.3270 C   0  0  0  0  0  0  0  0  0  0  0  0
   48.1010   33.9630   42.3130 C   0  0  0  0  0  0  0  0  0  0  0  0
   47.8270   33.3370   43.4990 N   0  0  0  0  0  0  0  0  0  0  0  0
   46.6980   32.6930   43.7700 C   0  0  0  0  0  0  0  0  0  0  0  0
   45.7380   32.6370   42.8260 N   0  0  0  0  0  0  0  0  0  0  0  0
   45.1740   33.1930   40.8740 H   0  0  0  0  0  0  0  0  0  0  0  0
   46.7120   30.7280   45.2330 C   0  0  0  0  0  0  0  0  0  0  0  0
   46.5110   32.0640   45.0610 C   0  0  0  0  0  0  0  0  0  0  0  0
   46.1120   32.9120   46.1160 C   0  0  0  0  0  0  0  0  0  0  0  0
   45.9100   32.3850   47.3890 C   0  0  0  0  0  0  0  0  0  0  0  0
   45.5370   32.8770   48.6050 N   0  0  0  0  0  0  0  0  0  0  0  0
   45.5240   31.8240   49.4760 C   0  0  0  0  0  0  0  0  0  0  0  0
   45.8850   30.7080   48.7920 N   0  0  0  0  0  0  0  0  0  0  0  0
   46.1270   31.0270   47.5100 C   0  0  0  0  0  0  0  0  0  0  0  0
   46.5160   30.1780   46.4970 C   0  0  0  0  0  0  0  0  0  0  0  0
   47.0170   30.1120   44.3990 H   0  0  0  0  0  0  0  0  0  0  0  0
   45.9500   33.9750   45.9910 H   0  0  0  0  0  0  0  0  0  0  0  0
   45.3190   33.8810   48.7690 H   0  0  0  0  0  0  0  0  0  0  0  0
   45.2610   31.9350   50.5180 H   0  0  0  0  0  0  0  0  0  0  0  0
   46.6680   29.1200   46.6610 H   0  0  0  0  0  0  0  0  0  0  0  0
   49.3780   34.6680   42.0590 C   0  0  0  0  0  0  0  0  0  0  0  0
   49.1600   35.7980   41.2570 F   0  0  0  0  0  0  0  0  0  0  0  0
   49.9120   35.1320   43.2370 F   0  0  0  0  0  0  0  0  0  0  0  0
   50.2280   33.8080   41.4260 F   0  0  0  0  0  0  0  0  0  0  0  0
   47.2730   34.4980   40.1120 O   0  0  0  0  0  0  0  0  0  0  0  0
   47.3750   33.7560   38.9510 C   0  0  0  0  0  0  0  0  0  0  0  0
   48.3870   34.4010   38.2500 C   0  0  0  0  0  0  0  0  0  0  0  0
   48.5450   33.4340   36.7020 S   0  0  0  0  0  0  0  0  0  0  0  0
   47.1620   32.2730   37.2840 C   0  0  0  0  0  0  0  0  0  0  0  0
   46.9490   32.7500   38.2540 N   0  0  0  0  0  0  0  0  0  0  0  0
   49.2260   35.2580   38.1030 H   0  0  0  0  0  0  0  0  0  0  0  0
   45.8300   30.1600   37.3950 C   0  0  2  0  0  3  0  0  0  0  0  0
   46.6190   31.0880   36.5310 C   0  0  2  0  0  3  0  0  0  0  0  0
   47.7500   30.3560   35.8210 C   0  0  0  0  0  3  0  0  0  0  0  0
   47.2390   29.6180   35.1520 H   0  0  0  0  0  0  0  0  0  0  0  0
   48.6170   29.7400   36.7140 O   0  0  0  0  0  0  0  0  0  0  0  0
   47.9510   28.8000   37.4850 C   0  0  0  0  0  3  0  0  0  0  0  0
   48.3120   27.7850   37.2320 H   0  0  0  0  0  0  0  0  0  0  0  0
   46.4590   28.7800   37.2680 C   0  0  1  0  0  3  0  0  0  0  0  0
   44.4950   30.0310   37.0130 O   0  0  0  0  0  0  0  0  0  0  0  0
   43.9980   30.8710   37.0110 H   0  0  0  0  0  0  0  0  0  0  0  0
   45.9300   28.0060   38.3150 O   0  0  0  0  0  0  0  0  0  0  0  0
   46.2480   27.0680   38.1950 H   0  0  0  0  0  0  0  0  0  0  0  0
  1  6  1  0  0  0  0
  2  1  2  0  0  0  0
  2  3  1  0  0  0  0
  3  4  2  0  0  0  0
  4  5  1  0  0  0  0
  5  9  1  0  0  0  0
  6  5  2  0  0  0  0
  7  1  1  0  0  0  0
  8 16  1  0  0  0  0
  9  8  2  0  0  0  0
  9 10  1  0  0  0  0
 10 11  2  0  0  0  0
 11 15  1  0  0  0  0
 11 12  1  0  0  0  0
 12 19  1  0  0  0  0
 12 13  1  0  0  0  0
 13 20  1  0  0  0  0
 14 13  2  0  0  0  0
 15 14  1  0  0  0  0
 16 21  1  0  0  0  0
 16 15  2  0  0  0  0
 17  8  1  0  0  0  0
 18 10  1  0  0  0  0
 22  3  1  0  0  0  0
 22 24  1  0  0  0  0
 23 22  1  0  0  0  0
 25 22  1  0  0  0  0
 26  2  1  0  0  0  0
 27 26  1  0  0  0  0
 28 27  2  0  0  0  0
 29 30  1  0  0  0  0
 29 28  1  0  0  0  0
 30 31  2  0  0  0  0
 31 27  1  0  0  0  0
 32 28  1  0  0  0  0
 33 41  1  6  0  0  0
 34 30  1  1  0  0  0
 34 33  1  0  0  0  0
 35 34  1  0  0  0  0
 35 37  1  0  0  0  0
 36 35  1  0  0  0  0
 37 38  1  0  0  0  0
 39 38  1  0  0  0  0
 40 33  1  0  0  0  0
 40 38  1  0  0  0  0
 40 43  1  1  0  0  0
 42 41  1  0  0  0  0
 44 43  1  0  0  0  0
M  END
>  <minimizedAffinity>
-6.12965727

>  <minimizedRMSD>
0.350532711

$$$$
