
 OpenBabel03242519063D

 46 49  0  0  1  0  0  0  0  0999 V2000
   48.9490   33.1690   40.4650 N   0  0  0  0  0  0  0  0  0  0  0  0
   49.9670   33.3210   40.6550 H   0  0  0  0  0  0  0  0  0  0  0  0
   47.3400   33.4310   43.6300 N   0  0  0  0  0  0  0  0  0  0  0  0
   48.1150   34.0750   42.5830 C   0  0  0  0  0  0  0  0  0  0  0  0
   48.0040   33.0200   41.5250 C   0  0  2  0  0  0  0  0  0  0  0  0
   48.3630   31.7640   42.3020 C   0  0  0  0  0  0  0  0  0  0  0  0
   47.7680   32.0380   43.6600 C   0  0  0  0  0  0  0  0  0  0  0  0
   49.1740   34.1810   42.8680 H   0  0  0  0  0  0  0  0  0  0  0  0
   47.6860   35.0320   42.2410 H   0  0  0  0  0  0  0  0  0  0  0  0
   46.9780   32.9440   41.1090 H   0  0  0  0  0  0  0  0  0  0  0  0
   49.4500   31.5760   42.3200 H   0  0  0  0  0  0  0  0  0  0  0  0
   47.8400   30.8930   41.8250 H   0  0  0  0  0  0  0  0  0  0  0  0
   48.5830   31.9390   44.4000 H   0  0  0  0  0  0  0  0  0  0  0  0
   46.9610   31.3410   43.9020 H   0  0  0  0  0  0  0  0  0  0  0  0
   44.5730   35.4300   45.1110 C   0  0  0  0  0  0  0  0  0  0  0  0
   45.5100   34.9980   44.1780 C   0  0  0  0  0  0  0  0  0  0  0  0
   46.3620   33.9430   44.4910 C   0  0  0  0  0  0  0  0  0  0  0  0
   46.2120   33.3930   45.7240 N   0  0  0  0  0  0  0  0  0  0  0  0
   45.3120   33.7990   46.6310 C   0  0  0  0  0  0  0  0  0  0  0  0
   44.4840   34.8320   46.3150 N   0  0  0  0  0  0  0  0  0  0  0  0
   43.9330   36.2540   44.8210 H   0  0  0  0  0  0  0  0  0  0  0  0
   45.6410   35.4330   43.1820 H   0  0  0  0  0  0  0  0  0  0  0  0
   45.2370   33.3200   47.6030 H   0  0  0  0  0  0  0  0  0  0  0  0
   49.2080   32.1090   38.2400 C   0  0  0  0  0  0  0  0  0  0  0  0
   48.8230   33.1600   39.0630 C   0  0  0  0  0  0  0  0  0  0  0  0
   48.2940   34.2200   38.3760 C   0  0  0  0  0  0  0  0  0  0  0  0
   48.1310   34.3020   37.0130 C   0  0  0  0  0  0  0  0  0  0  0  0
   48.5290   33.2340   36.2400 C   0  0  0  0  0  0  0  0  0  0  0  0
   49.0700   32.1330   36.8690 C   0  0  0  0  0  0  0  0  0  0  0  0
   47.9590   35.0980   38.9140 H   0  0  0  0  0  0  0  0  0  0  0  0
   47.7070   35.1650   36.5180 H   0  0  0  0  0  0  0  0  0  0  0  0
   48.4540   33.1780   35.1630 H   0  0  0  0  0  0  0  0  0  0  0  0
   49.1830   29.7390   36.9740 C   0  0  2  0  0  3  0  0  0  0  0  0
   49.5260   30.9350   36.1130 C   0  0  2  0  0  3  0  0  0  0  0  0
   51.0130   30.8980   35.8930 C   0  0  0  0  0  3  0  0  0  0  0  0
   51.1900   30.4460   34.8760 H   0  0  0  0  0  0  0  0  0  0  0  0
   51.6450   30.0380   36.7870 O   0  0  0  0  0  0  0  0  0  0  0  0
   51.3190   28.7200   36.4700 C   0  0  0  0  0  3  0  0  0  0  0  0
   51.6930   28.5330   35.4400 H   0  0  0  0  0  0  0  0  0  0  0  0
   49.8250   28.4670   36.4670 C   0  0  1  0  0  3  0  0  0  0  0  0
   47.8270   29.5130   37.1050 O   0  0  0  0  0  0  0  0  0  0  0  0
   47.4370   29.9770   37.8850 H   0  0  0  0  0  0  0  0  0  0  0  0
   49.4960   27.4650   37.3870 O   0  0  0  0  0  0  0  0  0  0  0  0
   48.7070   27.7300   37.9490 H   0  0  0  0  0  0  0  0  0  0  0  0
   50.2340   29.9960   39.4050 N   0  0  0  0  0  0  0  0  0  0  0  0
   49.7850   30.9300   38.8840 C   0  0  0  0  0  0  0  0  0  0  0  0
  1  2  1  0  0  0  0
  1  5  1  0  0  0  0
  3  7  1  0  0  0  0
  3 17  1  0  0  0  0
  4  8  1  0  0  0  0
  4  3  1  0  0  0  0
  5 10  1  6  0  0  0
  5  6  1  0  0  0  0
  5  4  1  0  0  0  0
  6 11  1  0  0  0  0
  6  7  1  0  0  0  0
  7 14  1  0  0  0  0
  7 13  1  0  0  0  0
  9  4  1  0  0  0  0
 12  6  1  0  0  0  0
 15 20  1  0  0  0  0
 16 17  1  0  0  0  0
 16 15  2  0  0  0  0
 17 18  2  0  0  0  0
 18 19  1  0  0  0  0
 19 23  1  0  0  0  0
 20 19  2  0  0  0  0
 21 15  1  0  0  0  0
 22 16  1  0  0  0  0
 24 46  1  0  0  0  0
 24 25  1  0  0  0  0
 25  1  1  0  0  0  0
 26 30  1  0  0  0  0
 26 25  2  0  0  0  0
 27 26  1  0  0  0  0
 28 29  1  0  0  0  0
 28 27  2  0  0  0  0
 29 24  2  0  0  0  0
 31 27  1  0  0  0  0
 32 28  1  0  0  0  0
 33 41  1  6  0  0  0
 34 29  1  1  0  0  0
 34 33  1  0  0  0  0
 35 34  1  0  0  0  0
 35 37  1  0  0  0  0
 36 35  1  0  0  0  0
 38 37  1  0  0  0  0
 39 38  1  0  0  0  0
 40 38  1  0  0  0  0
 40 33  1  0  0  0  0
 40 43  1  1  0  0  0
 41 42  1  0  0  0  0
 43 44  1  0  0  0  0
 46 45  3  0  0  0  0
M  END
>  <minimizedAffinity>
-4.42887878

>  <minimizedRMSD>
0.982124865

$$$$
