
 OpenBabel03252500253D

 40 42  0  0  1  0  0  0  0  0999 V2000
   47.1460   30.0240   47.9880 C   0  0  2  0  0  0  0  0  0  0  0  0
   45.7100   30.2760   48.2460 C   0  0  2  0  0  0  0  0  0  0  0  0
   45.0130   29.4140   47.2590 C   0  0  0  0  0  0  0  0  0  0  0  0
   45.8200   28.3140   47.0300 O   0  0  0  0  0  0  0  0  0  0  0  0
   47.0350   28.5310   47.5940 C   0  0  0  0  0  0  0  0  0  0  0  0
   47.7170   30.4180   47.2000 H   0  0  0  0  0  0  0  0  0  0  0  0
   45.5300   29.9570   49.2930 H   0  0  0  0  0  0  0  0  0  0  0  0
   44.5460   29.8750   46.3960 H   0  0  0  0  0  0  0  0  0  0  0  0
   44.1260   28.9680   47.8090 H   0  0  0  0  0  0  0  0  0  0  0  0
   47.1250   27.8950   48.4960 H   0  0  0  0  0  0  0  0  0  0  0  0
   47.8320   28.2110   46.9180 H   0  0  0  0  0  0  0  0  0  0  0  0
   45.3500   31.6030   48.1550 O   0  0  0  0  0  0  0  0  0  0  0  0
   47.4560   32.9040   47.4680 O   0  0  0  0  0  0  0  0  0  0  0  0
   46.1860   32.3270   46.9080 P   0  0  1  0  0  0  0  0  0  0  0  0
   46.5860   31.1620   45.7460 O   0  0  0  0  0  0  0  0  0  0  0  0
   47.2390   31.5290   45.0970 H   0  0  0  0  0  0  0  0  0  0  0  0
   45.3240   33.6280   46.2090 O   0  0  0  0  0  0  0  0  0  0  0  0
   45.1990   35.7670   43.3530 C   0  0  0  0  0  0  0  0  0  0  0  0
   46.2730   35.3200   42.5390 C   0  0  0  0  0  0  0  0  0  0  0  0
   47.0390   34.2500   43.0230 C   0  0  0  0  0  0  0  0  0  0  0  0
   46.7030   33.7210   44.2260 N   0  0  0  0  0  0  0  0  0  0  0  0
   45.6760   34.1720   44.9680 C   0  0  0  0  0  0  0  0  0  0  0  0
   44.9300   35.1930   44.5260 N   0  0  0  0  0  0  0  0  0  0  0  0
   46.5120   35.7710   41.5810 H   0  0  0  0  0  0  0  0  0  0  0  0
   47.8700   33.8650   42.4520 H   0  0  0  0  0  0  0  0  0  0  0  0
   44.4480   36.8200   42.8760 O   0  0  0  0  0  0  0  0  0  0  0  0
   43.9020   37.4270   43.4700 H   0  0  0  0  0  0  0  0  0  0  0  0
   47.9460   30.2020   49.0860 O   0  0  0  0  0  0  0  0  0  0  0  0
   50.0050   29.1910   49.7970 C   0  0  2  0  0  3  0  0  0  0  0  0
   49.2720   30.3040   49.0030 C   0  0  2  0  0  3  0  0  0  0  0  0
   49.7250   31.5780   49.6770 C   0  0  0  0  0  3  0  0  0  0  0  0
   49.4920   32.4990   49.1580 H   0  0  0  0  0  0  0  0  0  0  0  0
   51.0780   31.5320   50.0060 O   0  0  0  0  0  0  0  0  0  0  0  0
   51.2850   30.7770   51.1560 C   0  0  0  0  0  3  0  0  0  0  0  0
   52.2840   30.3130   51.0360 H   0  0  0  0  0  0  0  0  0  0  0  0
   50.2690   29.6690   51.2300 C   0  0  2  0  0  3  0  0  0  0  0  0
   51.2800   28.9880   49.2670 O   0  0  0  0  0  0  0  0  0  0  0  0
   51.6260   28.1770   49.6910 H   0  0  0  0  0  0  0  0  0  0  0  0
   50.8990   28.5790   51.8500 O   0  0  0  0  0  0  0  0  0  0  0  0
   50.5150   28.3300   52.7110 H   0  0  0  0  0  0  0  0  0  0  0  0
  1  6  1  6  0  0  0
  1  2  1  0  0  0  0
  1 28  1  0  0  0  0
  2  7  1  1  0  0  0
  3  9  1  0  0  0  0
  3  2  1  0  0  0  0
  4  3  1  0  0  0  0
  4  5  1  0  0  0  0
  5  1  1  0  0  0  0
  5 10  1  0  0  0  0
  8  3  1  0  0  0  0
 11  5  1  0  0  0  0
 12  2  1  0  0  0  0
 14 13  2  1  0  0  0
 14 12  1  0  0  0  0
 15 14  1  0  0  0  0
 16 15  1  0  0  0  0
 17 14  1  0  0  0  0
 18 23  1  0  0  0  0
 19 20  1  0  0  0  0
 19 18  2  0  0  0  0
 20 21  2  0  0  0  0
 21 22  1  0  0  0  0
 22 17  1  0  0  0  0
 23 22  2  0  0  0  0
 24 19  1  0  0  0  0
 25 20  1  0  0  0  0
 26 18  1  0  0  0  0
 26 27  1  0  0  0  0
 29 37  1  6  0  0  0
 29 36  1  0  0  0  0
 30 28  1  1  0  0  0
 30 31  1  0  0  0  0
 30 29  1  0  0  0  0
 31 33  1  0  0  0  0
 32 31  1  0  0  0  0
 33 34  1  0  0  0  0
 34 36  1  0  0  0  0
 35 34  1  0  0  0  0
 36 39  1  1  0  0  0
 37 38  1  0  0  0  0
 39 40  1  0  0  0  0
M  END
>  <minimizedAffinity>
-5.53719568

>  <minimizedRMSD>
0.546695888

$$$$
