
 OpenBabel03252506183D

 26 27  0  0  1  0  0  0  0  0999 V2000
   44.6880   35.5200   43.5600 C   0  0  0  0  0  0  0  0  0  0  0  0
   43.8770   35.4510   42.3980 C   0  0  0  0  0  0  0  0  0  0  0  0
   43.6950   34.2030   41.8160 C   0  0  0  0  0  0  0  0  0  0  0  0
   44.2950   33.1160   42.3780 N   0  0  0  0  0  0  0  0  0  0  0  0
   45.0650   33.2170   43.4910 C   0  0  0  0  0  0  0  0  0  0  0  0
   45.2440   34.4250   44.0600 N   0  0  0  0  0  0  0  0  0  0  0  0
   43.4120   36.3200   41.9700 H   0  0  0  0  0  0  0  0  0  0  0  0
   43.0870   34.0710   40.9230 H   0  0  0  0  0  0  0  0  0  0  0  0
   46.6550   31.3390   43.0870 C   0  0  2  0  0  3  0  0  0  0  0  0
   45.6640   31.9820   44.0140 C   0  0  1  0  0  3  0  0  0  0  0  0
   46.3910   32.3050   45.3270 C   0  0  0  0  0  3  0  0  0  0  0  0
   47.4060   32.7050   45.0370 H   0  0  0  0  0  0  0  0  0  0  0  0
   46.6200   31.0430   45.8790 O   0  0  0  0  0  0  0  0  0  0  0  0
   47.6900   30.4800   45.2410 C   0  0  0  0  0  3  0  0  0  0  0  0
   47.7260   29.4060   45.5900 H   0  0  0  0  0  0  0  0  0  0  0  0
   47.7330   30.5730   43.7690 C   0  0  2  0  0  3  0  0  0  0  0  0
   47.1450   32.3730   42.2660 O   0  0  0  0  0  0  0  0  0  0  0  0
   47.7940   32.8720   42.8360 H   0  0  0  0  0  0  0  0  0  0  0  0
   48.9530   31.1870   43.4060 O   0  0  0  0  0  0  0  0  0  0  0  0
   49.4060   30.7330   42.6750 H   0  0  0  0  0  0  0  0  0  0  0  0
   44.8860   36.8340   44.1840 C   0  0  0  0  0  3  0  0  0  0  0  0
   45.2280   37.8500   43.4020 C   0  0  0  0  0  3  0  0  0  0  0  0
   45.4410   39.2070   43.9830 C   0  0  0  0  0  0  0  0  0  0  0  0
   44.4610   39.6890   44.1660 H   0  0  0  0  0  0  0  0  0  0  0  0
   45.9480   39.1540   44.9850 H   0  0  0  0  0  0  0  0  0  0  0  0
   46.0110   39.8520   43.3050 H   0  0  0  0  0  0  0  0  0  0  0  0
  1  6  1  0  0  0  0
  1 21  1  0  0  0  0
  2  1  2  0  0  0  0
  3  4  2  0  0  0  0
  3  2  1  0  0  0  0
  4  5  1  0  0  0  0
  5  6  2  0  0  0  0
  7  2  1  0  0  0  0
  8  3  1  0  0  0  0
  9 17  1  1  0  0  0
  9 16  1  0  0  0  0
  9 10  1  0  0  0  0
 10  5  1  6  0  0  0
 10 11  1  0  0  0  0
 11 13  1  0  0  0  0
 12 11  1  0  0  0  0
 14 15  1  0  0  0  0
 14 13  1  0  0  0  0
 16 19  1  1  0  0  0
 16 14  1  0  0  0  0
 17 18  1  0  0  0  0
 20 19  1  0  0  0  0
 22 23  1  0  0  0  0
 22 21  2  0  0  0  0
 23 24  1  0  0  0  0
 23 25  1  0  0  0  0
 26 23  1  0  0  0  0
M  END
>  <minimizedAffinity>
-3.42088318

>  <minimizedRMSD>
0.4786385

$$$$
