
 OpenBabel03252507373D

 41 45  0  0  1  0  0  0  0  0999 V2000
   45.2200   34.2910   43.6610 C   0  0  0  0  0  0  0  0  0  0  0  0
   45.9850   33.2720   44.2850 C   0  0  0  0  0  0  0  0  0  0  0  0
   46.0200   33.2770   45.6780 C   0  0  0  0  0  0  0  0  0  0  0  0
   45.3530   34.2130   46.3490 N   0  0  0  0  0  0  0  0  0  0  0  0
   44.6280   35.1770   45.7310 C   0  0  0  0  0  0  0  0  0  0  0  0
   44.5670   35.2090   44.4050 N   0  0  0  0  0  0  0  0  0  0  0  0
   46.5200   32.5230   43.7630 H   0  0  0  0  0  0  0  0  0  0  0  0
   44.1220   35.8920   46.3680 H   0  0  0  0  0  0  0  0  0  0  0  0
   47.1550   32.6540   47.7370 C   0  0  0  0  0  0  0  0  0  0  0  0
   46.7750   32.2780   46.4470 C   0  0  0  0  0  0  0  0  0  0  0  0
   47.1220   31.0450   46.0010 C   0  0  0  0  0  0  0  0  0  0  0  0
   47.8330   30.1410   46.7640 C   0  0  0  0  0  0  0  0  0  0  0  0
   48.2740   28.8880   46.5210 N   0  0  0  0  0  0  0  0  0  0  0  0
   48.9380   28.4650   47.6640 C   0  0  0  0  0  0  0  0  0  0  0  0
   48.8840   29.4720   48.5720 N   0  0  0  0  0  0  0  0  0  0  0  0
   48.2160   30.4900   48.0300 C   0  0  0  0  0  0  0  0  0  0  0  0
   47.8790   31.7370   48.5130 C   0  0  0  0  0  0  0  0  0  0  0  0
   46.9450   33.6110   48.2190 H   0  0  0  0  0  0  0  0  0  0  0  0
   46.8110   30.7910   45.0000 H   0  0  0  0  0  0  0  0  0  0  0  0
   48.1540   28.3170   45.6490 H   0  0  0  0  0  0  0  0  0  0  0  0
   49.4040   27.4950   47.7720 H   0  0  0  0  0  0  0  0  0  0  0  0
   48.2000   31.9740   49.5200 H   0  0  0  0  0  0  0  0  0  0  0  0
   45.1760   34.2960   42.2650 O   0  0  0  0  0  0  0  0  0  0  0  0
   44.0590   33.7960   41.6070 C   0  0  0  0  0  0  0  0  0  0  0  0
   44.5990   32.7780   40.9140 C   0  0  0  0  0  0  0  0  0  0  0  0
   43.0810   32.0760   40.0040 S   0  0  0  0  0  0  0  0  0  0  0  0
   42.0060   33.4020   40.8230 C   0  0  0  0  0  0  0  0  0  0  0  0
   42.7640   33.9340   41.4210 N   0  0  0  0  0  0  0  0  0  0  0  0
   45.4810   32.0980   40.5700 H   0  0  0  0  0  0  0  0  0  0  0  0
   40.3450   34.5900   39.5750 C   0  0  1  0  0  3  0  0  0  0  0  0
   40.5510   33.5010   40.5690 C   0  0  1  0  0  3  0  0  0  0  0  0
   40.0940   32.1790   39.9920 C   0  0  0  0  0  3  0  0  0  0  0  0
   39.4740   31.6000   40.7060 H   0  0  0  0  0  0  0  0  0  0  0  0
   39.3660   32.3640   38.8090 O   0  0  0  0  0  0  0  0  0  0  0  0
   40.2070   32.8670   37.8160 C   0  0  0  0  0  3  0  0  0  0  0  0
   39.5520   33.0010   36.9240 H   0  0  0  0  0  0  0  0  0  0  0  0
   40.7870   34.1890   38.2070 C   0  0  1  0  0  3  0  0  0  0  0  0
   38.9930   34.9950   39.5680 O   0  0  0  0  0  0  0  0  0  0  0  0
   38.9090   35.9100   39.1900 H   0  0  0  0  0  0  0  0  0  0  0  0
   40.3820   35.2030   37.3290 O   0  0  0  0  0  0  0  0  0  0  0  0
   39.5430   34.8810   36.8850 H   0  0  0  0  0  0  0  0  0  0  0  0
  1  2  2  0  0  0  0
  1  6  1  0  0  0  0
  2  3  1  0  0  0  0
  3  4  2  0  0  0  0
  3 10  1  0  0  0  0
  5  4  1  0  0  0  0
  5  8  1  0  0  0  0
  6  5  2  0  0  0  0
  7  2  1  0  0  0  0
  9 18  1  0  0  0  0
  9 17  1  0  0  0  0
 10  9  2  0  0  0  0
 11 10  1  0  0  0  0
 11 12  2  0  0  0  0
 12 16  1  0  0  0  0
 13 12  1  0  0  0  0
 13 14  1  0  0  0  0
 14 21  1  0  0  0  0
 14 15  2  0  0  0  0
 16 17  2  0  0  0  0
 16 15  1  0  0  0  0
 17 22  1  0  0  0  0
 19 11  1  0  0  0  0
 20 13  1  0  0  0  0
 23  1  1  0  0  0  0
 24 23  1  0  0  0  0
 25 24  2  0  0  0  0
 26 27  1  0  0  0  0
 26 25  1  0  0  0  0
 27 28  2  0  0  0  0
 28 24  1  0  0  0  0
 29 25  1  0  0  0  0
 30 38  1  6  0  0  0
 30 31  1  0  0  0  0
 31 27  1  6  0  0  0
 32 31  1  0  0  0  0
 32 33  1  0  0  0  0
 34 32  1  0  0  0  0
 35 37  1  0  0  0  0
 35 34  1  0  0  0  0
 36 35  1  0  0  0  0
 37 40  1  6  0  0  0
 37 30  1  0  0  0  0
 39 38  1  0  0  0  0
 41 40  1  0  0  0  0
M  END
>  <minimizedAffinity>
-6.23970175

>  <minimizedRMSD>
1.4201808

$$$$
