
 OpenBabel03242511383D

 45 48  0  0  1  0  0  0  0  0999 V2000
   37.4680   30.3540   40.4020 C   0  0  0  0  0  0  0  0  0  0  0  0
   36.9100   31.6250   40.6920 C   0  0  0  0  0  0  0  0  0  0  0  0
   37.3170   32.7560   39.9750 C   0  0  0  0  0  0  0  0  0  0  0  0
   38.2510   32.5410   39.0230 N   0  0  0  0  0  0  0  0  0  0  0  0
   38.7740   31.3220   38.7570 C   0  0  0  0  0  0  0  0  0  0  0  0
   38.3810   30.2660   39.4400 N   0  0  0  0  0  0  0  0  0  0  0  0
   36.1730   31.7050   41.4670 H   0  0  0  0  0  0  0  0  0  0  0  0
   36.9130   33.7260   40.1750 H   0  0  0  0  0  0  0  0  0  0  0  0
   39.8030   31.1380   37.6750 C   0  0  2  0  0  0  0  0  0  0  0  0
   40.7590   30.0340   37.7050 C   0  0  0  0  0  0  0  0  0  0  0  0
   41.2670   31.3830   38.0270 C   0  0  1  0  0  0  0  0  0  0  0  0
   39.4710   31.6440   36.7200 H   0  0  0  0  0  0  0  0  0  0  0  0
   40.9060   29.5000   36.7690 H   0  0  0  0  0  0  0  0  0  0  0  0
   40.6070   29.3100   38.5580 H   0  0  0  0  0  0  0  0  0  0  0  0
   41.4080   31.5990   39.1070 H   0  0  0  0  0  0  0  0  0  0  0  0
   42.6690   33.4560   37.6240 C   0  0  1  0  0  3  0  0  0  0  0  0
   42.1500   32.1650   37.1210 C   0  0  1  0  0  3  0  0  0  0  0  0
   43.2400   31.2230   36.6460 C   0  0  0  0  0  3  0  0  0  0  0  0
   42.8430   30.2120   36.5330 H   0  0  0  0  0  0  0  0  0  0  0  0
   44.3720   31.2410   37.4440 O   0  0  0  0  0  0  0  0  0  0  0  0
   44.9450   32.5060   37.3220 C   0  0  0  0  0  3  0  0  0  0  0  0
   45.9850   32.5620   37.7030 H   0  0  0  0  0  0  0  0  0  0  0  0
   44.0810   33.4220   38.1640 C   0  0  1  0  0  3  0  0  0  0  0  0
   42.7220   34.4040   36.5720 O   0  0  0  0  0  0  0  0  0  0  0  0
   42.9000   35.2780   37.0000 H   0  0  0  0  0  0  0  0  0  0  0  0
   44.6020   34.7230   38.1010 O   0  0  0  0  0  0  0  0  0  0  0  0
   44.8750   35.0880   38.9610 H   0  0  0  0  0  0  0  0  0  0  0  0
   36.9950   29.2180   41.1850 C   0  0  0  0  0  3  0  0  0  0  0  0
   37.8780   28.2940   41.5420 C   0  0  0  0  0  3  0  0  0  0  0  0
   37.5060   27.1080   42.3340 C   0  0  0  0  0  0  0  0  0  0  0  0
   36.8220   27.3190   43.1800 H   0  0  0  0  0  0  0  0  0  0  0  0
   38.4390   26.7030   42.7950 H   0  0  0  0  0  0  0  0  0  0  0  0
   37.4890   23.8080   40.8820 C   0  0  1  0  0  0  0  0  0  0  0  0
   37.0610   24.6520   42.0880 C   0  0  0  0  0  0  0  0  0  0  0  0
   36.9700   25.9910   41.4590 C   0  0  2  0  0  0  0  0  0  0  0  0
   37.6040   25.9560   40.2440 O   0  0  0  0  0  0  0  0  0  0  0  0
   38.3390   24.8090   40.1340 C   0  0  0  0  0  0  0  0  0  0  0  0
   36.6020   23.5450   40.2810 H   0  0  0  0  0  0  0  0  0  0  0  0
   37.8080   24.6060   42.9040 H   0  0  0  0  0  0  0  0  0  0  0  0
   36.0940   24.2810   42.4430 H   0  0  0  0  0  0  0  0  0  0  0  0
   35.8930   26.2140   41.2510 H   0  0  0  0  0  0  0  0  0  0  0  0
   39.2910   24.9220   40.7200 H   0  0  0  0  0  0  0  0  0  0  0  0
   38.5280   24.5360   39.0880 H   0  0  0  0  0  0  0  0  0  0  0  0
   38.2100   22.7040   41.2990 O   0  0  0  0  0  0  0  0  0  0  0  0
   39.1640   22.9510   41.3700 H   0  0  0  0  0  0  0  0  0  0  0  0
  1  2  1  0  0  0  0
  1 28  1  0  0  0  0
  2  7  1  0  0  0  0
  3  8  1  0  0  0  0
  3  2  2  0  0  0  0
  4  3  1  0  0  0  0
  5  4  2  0  0  0  0
  5  6  1  0  0  0  0
  6  1  2  0  0  0  0
  9 12  1  6  0  0  0
  9 10  1  0  0  0  0
  9 11  1  0  0  0  0
  9  5  1  0  0  0  0
 10 11  1  0  0  0  0
 10 14  1  0  0  0  0
 11 15  1  1  0  0  0
 13 10  1  0  0  0  0
 16 24  1  6  0  0  0
 16 23  1  0  0  0  0
 17 18  1  1  0  0  0
 17 16  1  0  0  0  0
 17 11  1  0  0  0  0
 18 20  1  0  0  0  0
 19 18  1  0  0  0  0
 21 20  1  0  0  0  0
 21 22  1  0  0  0  0
 21 23  1  0  0  0  0
 23 26  1  6  0  0  0
 24 25  1  0  0  0  0
 26 27  1  0  0  0  0
 28 29  2  0  0  0  0
 29 30  1  0  0  0  0
 30 32  1  0  0  0  0
 30 31  1  0  0  0  0
 33 38  1  6  0  0  0
 33 44  1  0  0  0  0
 33 34  1  0  0  0  0
 34 40  1  0  0  0  0
 34 39  1  0  0  0  0
 35 41  1  6  0  0  0
 35 34  1  0  0  0  0
 35 30  1  0  0  0  0
 36 35  1  0  0  0  0
 37 36  1  0  0  0  0
 37 42  1  0  0  0  0
 37 33  1  0  0  0  0
 43 37  1  0  0  0  0
 44 45  1  0  0  0  0
M  END
>  <minimizedAffinity>
-6.44943476

$$$$

 OpenBabel03242511383D

 45 48  0  0  1  0  0  0  0  0999 V2000
   37.0940   26.6520   41.9500 C   0  0  0  0  0  0  0  0  0  0  0  0
   37.5350   27.0380   43.2410 C   0  0  0  0  0  0  0  0  0  0  0  0
   37.6250   28.3930   43.5820 C   0  0  0  0  0  0  0  0  0  0  0  0
   37.2710   29.2650   42.6130 N   0  0  0  0  0  0  0  0  0  0  0  0
   36.8530   28.8830   41.3860 C   0  0  0  0  0  0  0  0  0  0  0  0
   36.7720   27.6040   41.0790 N   0  0  0  0  0  0  0  0  0  0  0  0
   37.7970   26.2780   43.9500 H   0  0  0  0  0  0  0  0  0  0  0  0
   37.9560   28.7100   44.5490 H   0  0  0  0  0  0  0  0  0  0  0  0
   36.4580   29.8980   40.3480 C   0  0  2  0  0  0  0  0  0  0  0  0
   36.3890   29.5590   38.9290 C   0  0  0  0  0  0  0  0  0  0  0  0
   37.5280   30.3860   39.3770 C   0  0  1  0  0  0  0  0  0  0  0  0
   35.8510   30.7300   40.8160 H   0  0  0  0  0  0  0  0  0  0  0  0
   35.5130   29.9120   38.3910 H   0  0  0  0  0  0  0  0  0  0  0  0
   36.5860   28.4700   38.7010 H   0  0  0  0  0  0  0  0  0  0  0  0
   38.4910   29.8480   39.5100 H   0  0  0  0  0  0  0  0  0  0  0  0
   37.5850   32.7890   40.1820 C   0  0  1  0  0  3  0  0  0  0  0  0
   37.6690   31.8310   39.0570 C   0  0  1  0  0  3  0  0  0  0  0  0
   38.9340   31.9810   38.2340 C   0  0  0  0  0  3  0  0  0  0  0  0
   39.0740   31.1070   37.5940 H   0  0  0  0  0  0  0  0  0  0  0  0
   40.0620   32.2410   38.9950 O   0  0  0  0  0  0  0  0  0  0  0  0
   39.8880   33.4970   39.5750 C   0  0  0  0  0  3  0  0  0  0  0  0
   40.8210   33.9260   39.9940 H   0  0  0  0  0  0  0  0  0  0  0  0
   38.9120   33.2830   40.7130 C   0  0  1  0  0  3  0  0  0  0  0  0
   36.9140   33.9670   39.7710 O   0  0  0  0  0  0  0  0  0  0  0  0
   36.7330   34.4800   40.5970 H   0  0  0  0  0  0  0  0  0  0  0  0
   38.6900   34.5100   41.3590 O   0  0  0  0  0  0  0  0  0  0  0  0
   38.9430   34.5190   42.3000 H   0  0  0  0  0  0  0  0  0  0  0  0
   37.0210   25.2240   41.6640 C   0  0  0  0  0  3  0  0  0  0  0  0
   36.6380   24.8490   40.4500 C   0  0  0  0  0  3  0  0  0  0  0  0
   36.5320   23.4320   40.0570 C   0  0  0  0  0  0  0  0  0  0  0  0
   36.0440   22.7840   40.8120 H   0  0  0  0  0  0  0  0  0  0  0  0
   37.5690   23.0340   39.9430 H   0  0  0  0  0  0  0  0  0  0  0  0
   34.0490   24.0560   37.5180 C   0  0  1  0  0  0  0  0  0  0  0  0
   35.3670   24.5420   38.1330 C   0  0  0  0  0  0  0  0  0  0  0  0
   35.8850   23.2720   38.6940 C   0  0  2  0  0  0  0  0  0  0  0  0
   34.8690   22.3510   38.7250 O   0  0  0  0  0  0  0  0  0  0  0  0
   33.6720   22.9700   38.4990 C   0  0  0  0  0  0  0  0  0  0  0  0
   34.2460   23.6130   36.5260 H   0  0  0  0  0  0  0  0  0  0  0  0
   35.1950   25.3180   38.9030 H   0  0  0  0  0  0  0  0  0  0  0  0
   35.9960   24.9410   37.3310 H   0  0  0  0  0  0  0  0  0  0  0  0
   36.6620   22.8660   37.9990 H   0  0  0  0  0  0  0  0  0  0  0  0
   33.3400   23.4900   39.4390 H   0  0  0  0  0  0  0  0  0  0  0  0
   32.9100   22.2760   38.1220 H   0  0  0  0  0  0  0  0  0  0  0  0
   33.1270   25.0850   37.4800 O   0  0  0  0  0  0  0  0  0  0  0  0
   32.6330   25.1050   38.3360 H   0  0  0  0  0  0  0  0  0  0  0  0
  1  2  1  0  0  0  0
  2  3  2  0  0  0  0
  2  7  1  0  0  0  0
  3  8  1  0  0  0  0
  4  3  1  0  0  0  0
  5  4  2  0  0  0  0
  6  5  1  0  0  0  0
  6  1  2  0  0  0  0
  9 12  1  1  0  0  0
  9  5  1  0  0  0  0
 10 11  1  0  0  0  0
 10  9  1  0  0  0  0
 11 15  1  1  0  0  0
 11  9  1  0  0  0  0
 13 10  1  0  0  0  0
 14 10  1  0  0  0  0
 16 24  1  6  0  0  0
 16 23  1  0  0  0  0
 17 18  1  1  0  0  0
 17 11  1  0  0  0  0
 17 16  1  0  0  0  0
 18 20  1  0  0  0  0
 19 18  1  0  0  0  0
 20 21  1  0  0  0  0
 21 22  1  0  0  0  0
 21 23  1  0  0  0  0
 23 26  1  6  0  0  0
 24 25  1  0  0  0  0
 26 27  1  0  0  0  0
 28  1  1  0  0  0  0
 29 28  2  0  0  0  0
 30 29  1  0  0  0  0
 30 31  1  0  0  0  0
 32 30  1  0  0  0  0
 33 38  1  6  0  0  0
 33 34  1  0  0  0  0
 33 37  1  0  0  0  0
 34 35  1  0  0  0  0
 34 39  1  0  0  0  0
 35 41  1  6  0  0  0
 35 36  1  0  0  0  0
 35 30  1  0  0  0  0
 37 36  1  0  0  0  0
 37 42  1  0  0  0  0
 40 34  1  0  0  0  0
 43 37  1  0  0  0  0
 44 33  1  0  0  0  0
 44 45  1  0  0  0  0
M  END
>  <minimizedAffinity>
-6.43673277

$$$$

 OpenBabel03242511383D

 45 48  0  0  1  0  0  0  0  0999 V2000
   41.4220   28.6580   42.9870 C   0  0  0  0  0  0  0  0  0  0  0  0
   41.9570   27.4940   43.5940 C   0  0  0  0  0  0  0  0  0  0  0  0
   41.1070   26.4820   44.0550 C   0  0  0  0  0  0  0  0  0  0  0  0
   39.7860   26.7020   43.8790 N   0  0  0  0  0  0  0  0  0  0  0  0
   39.2900   27.8180   43.2980 C   0  0  0  0  0  0  0  0  0  0  0  0
   40.1020   28.7620   42.8680 N   0  0  0  0  0  0  0  0  0  0  0  0
   43.0210   27.4020   43.6940 H   0  0  0  0  0  0  0  0  0  0  0  0
   41.4850   25.5940   44.5170 H   0  0  0  0  0  0  0  0  0  0  0  0
   37.8080   28.0060   43.1160 C   0  0  2  0  0  0  0  0  0  0  0  0
   36.9270   26.8880   42.7870 C   0  0  0  0  0  0  0  0  0  0  0  0
   37.2320   27.8540   41.7120 C   0  0  1  0  0  0  0  0  0  0  0  0
   37.4550   28.9330   43.6580 H   0  0  0  0  0  0  0  0  0  0  0  0
   35.9990   26.8250   43.3480 H   0  0  0  0  0  0  0  0  0  0  0  0
   37.4430   25.8840   42.7540 H   0  0  0  0  0  0  0  0  0  0  0  0
   38.0000   27.5310   40.9770 H   0  0  0  0  0  0  0  0  0  0  0  0
   36.6300   30.2590   41.1800 C   0  0  1  0  0  3  0  0  0  0  0  0
   36.2440   28.8300   41.1820 C   0  0  1  0  0  3  0  0  0  0  0  0
   35.8090   28.3240   39.8190 C   0  0  0  0  0  3  0  0  0  0  0  0
   35.7860   27.2310   39.8120 H   0  0  0  0  0  0  0  0  0  0  0  0
   36.5690   28.8250   38.7750 O   0  0  0  0  0  0  0  0  0  0  0  0
   36.3340   30.1980   38.7140 C   0  0  0  0  0  3  0  0  0  0  0  0
   36.6780   30.6660   37.7700 H   0  0  0  0  0  0  0  0  0  0  0  0
   37.1290   30.7940   39.8570 C   0  0  1  0  0  3  0  0  0  0  0  0
   35.5070   31.0680   41.4820 O   0  0  0  0  0  0  0  0  0  0  0  0
   35.8620   31.9780   41.6420 H   0  0  0  0  0  0  0  0  0  0  0  0
   36.9500   32.1860   39.8570 O   0  0  0  0  0  0  0  0  0  0  0  0
   37.7720   32.6960   39.7390 H   0  0  0  0  0  0  0  0  0  0  0  0
   42.3660   29.6700   42.5270 C   0  0  0  0  0  3  0  0  0  0  0  0
   41.8780   30.8130   42.0600 C   0  0  0  0  0  3  0  0  0  0  0  0
   42.7450   31.9010   41.5710 C   0  0  0  0  0  0  0  0  0  0  0  0
   43.5050   31.5830   40.8300 H   0  0  0  0  0  0  0  0  0  0  0  0
   43.3210   32.2920   42.4440 H   0  0  0  0  0  0  0  0  0  0  0  0
   40.4040   33.5650   39.3910 C   0  0  1  0  0  0  0  0  0  0  0  0
   40.5550   32.7180   40.6610 C   0  0  0  0  0  0  0  0  0  0  0  0
   41.9360   33.0790   41.0590 C   0  0  2  0  0  0  0  0  0  0  0  0
   42.5590   33.6940   40.0040 O   0  0  0  0  0  0  0  0  0  0  0  0
   41.8210   33.5280   38.8660 C   0  0  0  0  0  0  0  0  0  0  0  0
   40.1330   34.5990   39.6670 H   0  0  0  0  0  0  0  0  0  0  0  0
   40.4330   31.6390   40.4480 H   0  0  0  0  0  0  0  0  0  0  0  0
   39.8030   33.0460   41.3850 H   0  0  0  0  0  0  0  0  0  0  0  0
   41.8840   33.8340   41.8830 H   0  0  0  0  0  0  0  0  0  0  0  0
   41.9860   32.4910   38.4650 H   0  0  0  0  0  0  0  0  0  0  0  0
   42.0360   34.2990   38.1160 H   0  0  0  0  0  0  0  0  0  0  0  0
   39.4990   32.9780   38.5260 O   0  0  0  0  0  0  0  0  0  0  0  0
   39.9780   32.3340   37.9490 H   0  0  0  0  0  0  0  0  0  0  0  0
  1  2  1  0  0  0  0
  2  7  1  0  0  0  0
  2  3  2  0  0  0  0
  3  8  1  0  0  0  0
  4  3  1  0  0  0  0
  5  4  2  0  0  0  0
  6  1  2  0  0  0  0
  6  5  1  0  0  0  0
  9  5  1  0  0  0  0
  9 12  1  1  0  0  0
 10  9  1  0  0  0  0
 10 13  1  0  0  0  0
 11 15  1  6  0  0  0
 11 10  1  0  0  0  0
 11  9  1  0  0  0  0
 14 10  1  0  0  0  0
 16 17  1  0  0  0  0
 16 24  1  6  0  0  0
 17 18  1  6  0  0  0
 17 11  1  0  0  0  0
 19 18  1  0  0  0  0
 20 18  1  0  0  0  0
 21 20  1  0  0  0  0
 21 23  1  0  0  0  0
 22 21  1  0  0  0  0
 23 26  1  1  0  0  0
 23 16  1  0  0  0  0
 24 25  1  0  0  0  0
 27 26  1  0  0  0  0
 28  1  1  0  0  0  0
 29 28  2  0  0  0  0
 30 29  1  0  0  0  0
 30 32  1  0  0  0  0
 31 30  1  0  0  0  0
 33 38  1  1  0  0  0
 33 34  1  0  0  0  0
 34 35  1  0  0  0  0
 34 40  1  0  0  0  0
 35 30  1  0  0  0  0
 35 41  1  1  0  0  0
 36 35  1  0  0  0  0
 37 33  1  0  0  0  0
 37 36  1  0  0  0  0
 39 34  1  0  0  0  0
 42 37  1  0  0  0  0
 43 37  1  0  0  0  0
 44 33  1  0  0  0  0
 45 44  1  0  0  0  0
M  END
>  <minimizedAffinity>
-6.39174795

$$$$

 OpenBabel03242511383D

 45 48  0  0  1  0  0  0  0  0999 V2000
   37.0690   26.6350   41.9420 C   0  0  0  0  0  0  0  0  0  0  0  0
   37.5430   27.0000   43.2280 C   0  0  0  0  0  0  0  0  0  0  0  0
   37.6480   28.3480   43.5860 C   0  0  0  0  0  0  0  0  0  0  0  0
   37.2770   29.2370   42.6390 N   0  0  0  0  0  0  0  0  0  0  0  0
   36.8280   28.8750   41.4160 C   0  0  0  0  0  0  0  0  0  0  0  0
   36.7330   27.6010   41.0930 N   0  0  0  0  0  0  0  0  0  0  0  0
   37.8170   26.2270   43.9190 H   0  0  0  0  0  0  0  0  0  0  0  0
   38.0030   28.6500   44.5500 H   0  0  0  0  0  0  0  0  0  0  0  0
   36.4150   29.9080   40.4030 C   0  0  2  0  0  0  0  0  0  0  0  0
   36.2620   29.5770   38.9880 C   0  0  0  0  0  0  0  0  0  0  0  0
   37.4500   30.3630   39.3790 C   0  0  1  0  0  0  0  0  0  0  0  0
   35.8620   30.7570   40.9030 H   0  0  0  0  0  0  0  0  0  0  0  0
   35.3720   29.9620   38.4970 H   0  0  0  0  0  0  0  0  0  0  0  0
   36.4100   28.4840   38.7470 H   0  0  0  0  0  0  0  0  0  0  0  0
   38.4000   29.7920   39.4610 H   0  0  0  0  0  0  0  0  0  0  0  0
   37.5560   32.7660   40.1790 C   0  0  1  0  0  3  0  0  0  0  0  0
   37.6230   31.8040   39.0570 C   0  0  1  0  0  3  0  0  0  0  0  0
   38.8950   31.9240   38.2370 C   0  0  0  0  0  3  0  0  0  0  0  0
   39.0180   31.0460   37.6000 H   0  0  0  0  0  0  0  0  0  0  0  0
   40.0250   32.1620   39.0030 O   0  0  0  0  0  0  0  0  0  0  0  0
   39.8760   33.4230   39.5790 C   0  0  0  0  0  3  0  0  0  0  0  0
   40.8160   33.8330   40.0010 H   0  0  0  0  0  0  0  0  0  0  0  0
   38.8910   33.2330   40.7140 C   0  0  1  0  0  3  0  0  0  0  0  0
   36.9120   33.9580   39.7620 O   0  0  0  0  0  0  0  0  0  0  0  0
   36.7380   34.4770   40.5860 H   0  0  0  0  0  0  0  0  0  0  0  0
   38.6930   34.4660   41.3550 O   0  0  0  0  0  0  0  0  0  0  0  0
   38.9420   34.4720   42.2970 H   0  0  0  0  0  0  0  0  0  0  0  0
   36.9810   25.2120   41.6370 C   0  0  0  0  0  3  0  0  0  0  0  0
   38.1100   24.5520   41.4090 C   0  0  0  0  0  3  0  0  0  0  0  0
   38.1330   23.1110   41.0930 C   0  0  0  0  0  0  0  0  0  0  0  0
   37.2300   22.5570   41.4200 H   0  0  0  0  0  0  0  0  0  0  0  0
   38.9850   22.6560   41.6530 H   0  0  0  0  0  0  0  0  0  0  0  0
   38.5460   24.0310   37.6320 C   0  0  1  0  0  0  0  0  0  0  0  0
   39.2380   23.9330   38.9970 C   0  0  0  0  0  0  0  0  0  0  0  0
   38.4330   22.8600   39.6270 C   0  0  2  0  0  0  0  0  0  0  0  0
   37.2820   22.6820   38.9030 O   0  0  0  0  0  0  0  0  0  0  0  0
   37.1210   23.7140   38.0220 C   0  0  0  0  0  0  0  0  0  0  0  0
   38.9360   23.2450   36.9630 H   0  0  0  0  0  0  0  0  0  0  0  0
   39.1900   24.8910   39.5480 H   0  0  0  0  0  0  0  0  0  0  0  0
   40.2810   23.6430   38.8350 H   0  0  0  0  0  0  0  0  0  0  0  0
   39.0030   21.9000   39.5610 H   0  0  0  0  0  0  0  0  0  0  0  0
   36.7330   24.6140   38.5720 H   0  0  0  0  0  0  0  0  0  0  0  0
   36.4790   23.4400   37.1750 H   0  0  0  0  0  0  0  0  0  0  0  0
   38.6860   25.3050   37.1130 O   0  0  0  0  0  0  0  0  0  0  0  0
   37.9460   25.8700   37.4450 H   0  0  0  0  0  0  0  0  0  0  0  0
  1  2  1  0  0  0  0
  2  3  2  0  0  0  0
  2  7  1  0  0  0  0
  3  8  1  0  0  0  0
  4  3  1  0  0  0  0
  5  4  2  0  0  0  0
  6  5  1  0  0  0  0
  6  1  2  0  0  0  0
  9 12  1  1  0  0  0
  9  5  1  0  0  0  0
 10 11  1  0  0  0  0
 10  9  1  0  0  0  0
 11 15  1  1  0  0  0
 11  9  1  0  0  0  0
 13 10  1  0  0  0  0
 14 10  1  0  0  0  0
 16 24  1  6  0  0  0
 16 23  1  0  0  0  0
 17 18  1  1  0  0  0
 17 11  1  0  0  0  0
 17 16  1  0  0  0  0
 18 20  1  0  0  0  0
 19 18  1  0  0  0  0
 20 21  1  0  0  0  0
 21 22  1  0  0  0  0
 21 23  1  0  0  0  0
 23 26  1  6  0  0  0
 24 25  1  0  0  0  0
 26 27  1  0  0  0  0
 28  1  1  0  0  0  0
 29 28  2  0  0  0  0
 30 29  1  0  0  0  0
 30 31  1  0  0  0  0
 30 32  1  0  0  0  0
 33 38  1  6  0  0  0
 33 37  1  0  0  0  0
 33 34  1  0  0  0  0
 34 39  1  0  0  0  0
 34 35  1  0  0  0  0
 35 41  1  6  0  0  0
 35 30  1  0  0  0  0
 36 35  1  0  0  0  0
 37 42  1  0  0  0  0
 37 36  1  0  0  0  0
 40 34  1  0  0  0  0
 43 37  1  0  0  0  0
 44 45  1  0  0  0  0
 44 33  1  0  0  0  0
M  END
>  <minimizedAffinity>
-6.22795916

$$$$

 OpenBabel03242511383D

 45 48  0  0  1  0  0  0  0  0999 V2000
   38.9030   30.1250   42.1670 C   0  0  0  0  0  0  0  0  0  0  0  0
   38.6890   29.1090   43.1340 C   0  0  0  0  0  0  0  0  0  0  0  0
   37.5050   28.3640   43.1260 C   0  0  0  0  0  0  0  0  0  0  0  0
   36.6170   28.6850   42.1600 N   0  0  0  0  0  0  0  0  0  0  0  0
   36.8340   29.6580   41.2450 C   0  0  0  0  0  0  0  0  0  0  0  0
   37.9540   30.3500   41.2640 N   0  0  0  0  0  0  0  0  0  0  0  0
   39.4490   28.9210   43.8660 H   0  0  0  0  0  0  0  0  0  0  0  0
   37.3190   27.5930   43.8440 H   0  0  0  0  0  0  0  0  0  0  0  0
   35.8140   29.9640   40.1820 C   0  0  2  0  0  0  0  0  0  0  0  0
   34.6610   29.0980   39.9510 C   0  0  0  0  0  0  0  0  0  0  0  0
   35.7560   29.0540   38.9600 C   0  0  1  0  0  0  0  0  0  0  0  0
   35.8200   31.0670   39.9320 H   0  0  0  0  0  0  0  0  0  0  0  0
   33.7030   29.5950   39.8260 H   0  0  0  0  0  0  0  0  0  0  0  0
   34.5730   28.2370   40.6770 H   0  0  0  0  0  0  0  0  0  0  0  0
   36.4500   28.1910   39.0460 H   0  0  0  0  0  0  0  0  0  0  0  0
   36.8080   29.4610   36.6890 C   0  0  1  0  0  3  0  0  0  0  0  0
   35.6450   29.6210   37.5900 C   0  0  1  0  0  3  0  0  0  0  0  0
   34.3500   29.0950   36.9970 C   0  0  0  0  0  3  0  0  0  0  0  0
   33.5910   28.9960   37.7770 H   0  0  0  0  0  0  0  0  0  0  0  0
   34.5070   27.9170   36.2850 O   0  0  0  0  0  0  0  0  0  0  0  0
   35.2920   28.2090   35.1710 C   0  0  0  0  0  3  0  0  0  0  0  0
   35.2730   27.4170   34.3950 H   0  0  0  0  0  0  0  0  0  0  0  0
   36.7080   28.3270   35.6950 C   0  0  1  0  0  3  0  0  0  0  0  0
   36.9650   30.6170   35.8850 O   0  0  0  0  0  0  0  0  0  0  0  0
   37.8470   30.5260   35.4450 H   0  0  0  0  0  0  0  0  0  0  0  0
   37.5680   28.6130   34.6230 O   0  0  0  0  0  0  0  0  0  0  0  0
   38.2590   27.9430   34.4740 H   0  0  0  0  0  0  0  0  0  0  0  0
   40.1610   30.8590   42.2320 C   0  0  0  0  0  3  0  0  0  0  0  0
   40.4850   31.6340   41.2030 C   0  0  0  0  0  3  0  0  0  0  0  0
   41.7330   32.4190   41.1670 C   0  0  0  0  0  0  0  0  0  0  0  0
   42.6440   31.8410   41.4230 H   0  0  0  0  0  0  0  0  0  0  0  0
   41.6530   33.2160   41.9440 H   0  0  0  0  0  0  0  0  0  0  0  0
   41.2100   32.9820   37.6450 C   0  0  1  0  0  0  0  0  0  0  0  0
   40.6520   33.2250   39.0520 C   0  0  0  0  0  0  0  0  0  0  0  0
   41.8990   33.1530   39.8500 C   0  0  2  0  0  0  0  0  0  0  0  0
   42.8870   32.5900   39.0830 O   0  0  0  0  0  0  0  0  0  0  0  0
   42.3450   32.0350   37.9580 C   0  0  0  0  0  0  0  0  0  0  0  0
   41.6110   33.9270   37.2380 H   0  0  0  0  0  0  0  0  0  0  0  0
   39.9110   32.4530   39.3360 H   0  0  0  0  0  0  0  0  0  0  0  0
   40.1900   34.2170   39.0740 H   0  0  0  0  0  0  0  0  0  0  0  0
   42.2320   34.1940   40.0860 H   0  0  0  0  0  0  0  0  0  0  0  0
   41.8750   31.0490   38.2210 H   0  0  0  0  0  0  0  0  0  0  0  0
   43.0790   31.9380   37.1480 H   0  0  0  0  0  0  0  0  0  0  0  0
   40.2450   32.4090   36.8370 O   0  0  0  0  0  0  0  0  0  0  0  0
   40.2820   31.4270   36.9400 H   0  0  0  0  0  0  0  0  0  0  0  0
  1 28  1  0  0  0  0
  1  2  1  0  0  0  0
  2  7  1  0  0  0  0
  3  2  2  0  0  0  0
  3  8  1  0  0  0  0
  4  3  1  0  0  0  0
  5  6  1  0  0  0  0
  5  4  2  0  0  0  0
  6  1  2  0  0  0  0
  9 12  1  6  0  0  0
  9  5  1  0  0  0  0
 10  9  1  0  0  0  0
 10 14  1  0  0  0  0
 11 15  1  1  0  0  0
 11 10  1  0  0  0  0
 11  9  1  0  0  0  0
 13 10  1  0  0  0  0
 16 24  1  6  0  0  0
 16 17  1  0  0  0  0
 17 18  1  6  0  0  0
 17 11  1  0  0  0  0
 18 19  1  0  0  0  0
 20 18  1  0  0  0  0
 21 23  1  0  0  0  0
 21 20  1  0  0  0  0
 22 21  1  0  0  0  0
 23 26  1  6  0  0  0
 23 16  1  0  0  0  0
 25 24  1  0  0  0  0
 27 26  1  0  0  0  0
 29 28  2  0  0  0  0
 30 29  1  0  0  0  0
 30 31  1  0  0  0  0
 30 32  1  0  0  0  0
 33 38  1  6  0  0  0
 33 37  1  0  0  0  0
 33 34  1  0  0  0  0
 34 40  1  0  0  0  0
 34 39  1  0  0  0  0
 34 35  1  0  0  0  0
 35 41  1  1  0  0  0
 35 30  1  0  0  0  0
 36 35  1  0  0  0  0
 37 42  1  0  0  0  0
 37 36  1  0  0  0  0
 43 37  1  0  0  0  0
 44 45  1  0  0  0  0
 44 33  1  0  0  0  0
M  END
>  <minimizedAffinity>
-6.15167379

$$$$

 OpenBabel03242511383D

 45 48  0  0  1  0  0  0  0  0999 V2000
   37.6670   30.4380   40.7640 C   0  0  0  0  0  0  0  0  0  0  0  0
   36.7880   31.5440   40.6440 C   0  0  0  0  0  0  0  0  0  0  0  0
   36.9460   32.4630   39.6010 C   0  0  0  0  0  0  0  0  0  0  0  0
   37.9690   32.2170   38.7540 N   0  0  0  0  0  0  0  0  0  0  0  0
   38.8000   31.1590   38.8800 C   0  0  0  0  0  0  0  0  0  0  0  0
   38.6390   30.3000   39.8670 N   0  0  0  0  0  0  0  0  0  0  0  0
   36.0020   31.6630   41.3630 H   0  0  0  0  0  0  0  0  0  0  0  0
   36.2960   33.3070   39.4890 H   0  0  0  0  0  0  0  0  0  0  0  0
   39.9170   30.9260   37.8990 C   0  0  2  0  0  0  0  0  0  0  0  0
   40.9910   29.9740   38.1700 C   0  0  0  0  0  0  0  0  0  0  0  0
   41.3130   31.4130   38.2710 C   0  0  1  0  0  0  0  0  0  0  0  0
   39.5940   31.2140   36.8540 H   0  0  0  0  0  0  0  0  0  0  0  0
   41.2660   29.3120   37.3530 H   0  0  0  0  0  0  0  0  0  0  0  0
   40.8670   29.3940   39.1310 H   0  0  0  0  0  0  0  0  0  0  0  0
   41.3520   31.8260   39.3010 H   0  0  0  0  0  0  0  0  0  0  0  0
   42.7090   33.4480   37.6890 C   0  0  1  0  0  3  0  0  0  0  0  0
   42.1590   32.1350   37.2840 C   0  0  1  0  0  3  0  0  0  0  0  0
   43.2210   31.1580   36.8140 C   0  0  0  0  0  3  0  0  0  0  0  0
   42.8130   30.1460   36.7760 H   0  0  0  0  0  0  0  0  0  0  0  0
   44.3880   31.2110   37.5580 O   0  0  0  0  0  0  0  0  0  0  0  0
   44.9620   32.4630   37.3390 C   0  0  0  0  0  3  0  0  0  0  0  0
   46.0180   32.5310   37.6690 H   0  0  0  0  0  0  0  0  0  0  0  0
   44.1430   33.4310   38.1660 C   0  0  1  0  0  3  0  0  0  0  0  0
   42.7190   34.3350   36.5840 O   0  0  0  0  0  0  0  0  0  0  0  0
   42.9210   35.2300   36.9540 H   0  0  0  0  0  0  0  0  0  0  0  0
   44.6680   34.7230   38.0060 O   0  0  0  0  0  0  0  0  0  0  0  0
   44.9830   35.1330   38.8320 H   0  0  0  0  0  0  0  0  0  0  0  0
   37.4420   29.5180   41.8720 C   0  0  0  0  0  3  0  0  0  0  0  0
   38.4420   28.7270   42.2400 C   0  0  0  0  0  3  0  0  0  0  0  0
   38.3200   27.7610   43.3480 C   0  0  0  0  0  0  0  0  0  0  0  0
   37.5000   27.0260   43.2250 H   0  0  0  0  0  0  0  0  0  0  0  0
   38.0730   28.3370   44.2720 H   0  0  0  0  0  0  0  0  0  0  0  0
   41.6530   26.6120   42.5930 C   0  0  1  0  0  0  0  0  0  0  0  0
   40.8160   27.7910   43.1030 C   0  0  0  0  0  0  0  0  0  0  0  0
   39.6390   27.0700   43.6420 C   0  0  2  0  0  0  0  0  0  0  0  0
   39.6480   25.7840   43.1670 O   0  0  0  0  0  0  0  0  0  0  0  0
   40.5580   25.6670   42.1540 C   0  0  0  0  0  0  0  0  0  0  0  0
   42.2170   26.1690   43.4330 H   0  0  0  0  0  0  0  0  0  0  0  0
   40.5590   28.4910   42.2850 H   0  0  0  0  0  0  0  0  0  0  0  0
   41.3880   28.3110   43.8770 H   0  0  0  0  0  0  0  0  0  0  0  0
   39.7410   27.0010   44.7530 H   0  0  0  0  0  0  0  0  0  0  0  0
   40.1230   26.0980   41.2130 H   0  0  0  0  0  0  0  0  0  0  0  0
   40.8950   24.6310   42.0170 H   0  0  0  0  0  0  0  0  0  0  0  0
   42.4630   27.0130   41.5460 O   0  0  0  0  0  0  0  0  0  0  0  0
   41.9600   26.9240   40.7000 H   0  0  0  0  0  0  0  0  0  0  0  0
  1 28  1  0  0  0  0
  2  1  1  0  0  0  0
  2  7  1  0  0  0  0
  3  2  2  0  0  0  0
  4  5  2  0  0  0  0
  4  3  1  0  0  0  0
  5  6  1  0  0  0  0
  6  1  2  0  0  0  0
  8  3  1  0  0  0  0
  9 12  1  6  0  0  0
  9 10  1  0  0  0  0
  9 11  1  0  0  0  0
  9  5  1  0  0  0  0
 10 11  1  0  0  0  0
 10 14  1  0  0  0  0
 11 15  1  1  0  0  0
 13 10  1  0  0  0  0
 16 24  1  6  0  0  0
 16 23  1  0  0  0  0
 17 18  1  1  0  0  0
 17 16  1  0  0  0  0
 17 11  1  0  0  0  0
 18 20  1  0  0  0  0
 19 18  1  0  0  0  0
 21 20  1  0  0  0  0
 21 22  1  0  0  0  0
 21 23  1  0  0  0  0
 23 26  1  6  0  0  0
 24 25  1  0  0  0  0
 26 27  1  0  0  0  0
 28 29  2  0  0  0  0
 29 30  1  0  0  0  0
 30 35  1  0  0  0  0
 30 32  1  0  0  0  0
 31 30  1  0  0  0  0
 33 34  1  0  0  0  0
 33 38  1  1  0  0  0
 34 35  1  0  0  0  0
 34 40  1  0  0  0  0
 35 41  1  1  0  0  0
 36 35  1  0  0  0  0
 37 33  1  0  0  0  0
 37 36  1  0  0  0  0
 39 34  1  0  0  0  0
 42 37  1  0  0  0  0
 43 37  1  0  0  0  0
 44 33  1  0  0  0  0
 45 44  1  0  0  0  0
M  END
>  <minimizedAffinity>
-5.95339823

$$$$

 OpenBabel03242511383D

 45 48  0  0  1  0  0  0  0  0999 V2000
   36.8150   27.5810   38.2780 C   0  0  0  0  0  0  0  0  0  0  0  0
   36.5200   27.3910   36.9040 C   0  0  0  0  0  0  0  0  0  0  0  0
   36.3720   28.4930   36.0540 C   0  0  0  0  0  0  0  0  0  0  0  0
   36.5270   29.7030   36.6320 N   0  0  0  0  0  0  0  0  0  0  0  0
   36.8080   29.8690   37.9450 C   0  0  0  0  0  0  0  0  0  0  0  0
   36.9460   28.8230   38.7330 N   0  0  0  0  0  0  0  0  0  0  0  0
   36.4130   26.3920   36.5290 H   0  0  0  0  0  0  0  0  0  0  0  0
   36.1480   28.3760   35.0140 H   0  0  0  0  0  0  0  0  0  0  0  0
   36.9840   31.2430   38.5340 C   0  0  2  0  0  0  0  0  0  0  0  0
   37.6280   32.3210   37.7880 C   0  0  0  0  0  0  0  0  0  0  0  0
   38.3960   31.6980   38.8850 C   0  0  1  0  0  0  0  0  0  0  0  0
   36.2270   31.4230   39.3540 H   0  0  0  0  0  0  0  0  0  0  0  0
   37.1350   33.2900   37.8200 H   0  0  0  0  0  0  0  0  0  0  0  0
   37.9080   32.0510   36.7280 H   0  0  0  0  0  0  0  0  0  0  0  0
   39.1640   30.9580   38.5750 H   0  0  0  0  0  0  0  0  0  0  0  0
   39.9340   32.0170   40.8750 C   0  0  1  0  0  3  0  0  0  0  0  0
   38.6800   32.3780   40.1760 C   0  0  1  0  0  3  0  0  0  0  0  0
   38.5380   33.8690   39.9310 C   0  0  0  0  0  3  0  0  0  0  0  0
   37.7470   34.0580   39.2010 H   0  0  0  0  0  0  0  0  0  0  0  0
   39.7240   34.4860   39.5700 O   0  0  0  0  0  0  0  0  0  0  0  0
   40.5820   34.4060   40.6670 C   0  0  0  0  0  3  0  0  0  0  0  0
   41.4580   35.0820   40.5950 H   0  0  0  0  0  0  0  0  0  0  0  0
   41.0850   32.9780   40.6820 C   0  0  1  0  0  3  0  0  0  0  0  0
   39.7240   32.0030   42.2770 O   0  0  0  0  0  0  0  0  0  0  0  0
   40.5310   31.5860   42.6690 H   0  0  0  0  0  0  0  0  0  0  0  0
   41.9690   32.8180   41.7600 O   0  0  0  0  0  0  0  0  0  0  0  0
   42.8720   32.5570   41.5020 H   0  0  0  0  0  0  0  0  0  0  0  0
   36.9600   26.3880   39.1050 C   0  0  0  0  0  3  0  0  0  0  0  0
   36.9830   26.5420   40.4230 C   0  0  0  0  0  3  0  0  0  0  0  0
   37.1240   25.4030   41.3490 C   0  0  0  0  0  0  0  0  0  0  0  0
   37.9190   24.6830   41.0710 H   0  0  0  0  0  0  0  0  0  0  0  0
   36.1700   24.8240   41.3210 H   0  0  0  0  0  0  0  0  0  0  0  0
   37.4930   27.8300   43.9900 C   0  0  1  0  0  0  0  0  0  0  0  0
   36.4910   27.0770   43.1060 C   0  0  0  0  0  0  0  0  0  0  0  0
   37.2770   25.8610   42.7880 C   0  0  2  0  0  0  0  0  0  0  0  0
   38.5910   26.0840   43.1070 O   0  0  0  0  0  0  0  0  0  0  0  0
   38.7950   27.4140   43.3450 C   0  0  0  0  0  0  0  0  0  0  0  0
   37.4430   27.4380   45.0210 H   0  0  0  0  0  0  0  0  0  0  0  0
   36.2180   27.6640   42.2090 H   0  0  0  0  0  0  0  0  0  0  0  0
   35.5980   26.8630   43.7020 H   0  0  0  0  0  0  0  0  0  0  0  0
   36.9250   25.0270   43.4450 H   0  0  0  0  0  0  0  0  0  0  0  0
   38.8550   27.9610   42.3660 H   0  0  0  0  0  0  0  0  0  0  0  0
   39.6780   27.5930   43.9730 H   0  0  0  0  0  0  0  0  0  0  0  0
   37.2720   29.1930   43.9150 O   0  0  0  0  0  0  0  0  0  0  0  0
   37.7830   29.5590   43.1530 H   0  0  0  0  0  0  0  0  0  0  0  0
  1  6  1  0  0  0  0
  1 28  1  0  0  0  0
  2  1  2  0  0  0  0
  3  4  2  0  0  0  0
  3  2  1  0  0  0  0
  4  5  1  0  0  0  0
  5  9  1  0  0  0  0
  5  6  2  0  0  0  0
  7  2  1  0  0  0  0
  8  3  1  0  0  0  0
  9 11  1  0  0  0  0
  9 12  1  1  0  0  0
 10 13  1  0  0  0  0
 10  9  1  0  0  0  0
 10 11  1  0  0  0  0
 11 15  1  6  0  0  0
 11 17  1  0  0  0  0
 14 10  1  0  0  0  0
 16 24  1  1  0  0  0
 17 18  1  6  0  0  0
 17 16  1  0  0  0  0
 19 18  1  0  0  0  0
 20 18  1  0  0  0  0
 20 21  1  0  0  0  0
 21 23  1  0  0  0  0
 22 21  1  0  0  0  0
 23 16  1  0  0  0  0
 23 26  1  1  0  0  0
 24 25  1  0  0  0  0
 27 26  1  0  0  0  0
 28 29  2  0  0  0  0
 29 30  1  0  0  0  0
 30 35  1  0  0  0  0
 31 30  1  0  0  0  0
 32 30  1  0  0  0  0
 33 38  1  1  0  0  0
 34 40  1  0  0  0  0
 34 33  1  0  0  0  0
 35 34  1  0  0  0  0
 35 36  1  0  0  0  0
 35 41  1  1  0  0  0
 36 37  1  0  0  0  0
 37 43  1  0  0  0  0
 37 33  1  0  0  0  0
 39 34  1  0  0  0  0
 42 37  1  0  0  0  0
 44 33  1  0  0  0  0
 45 44  1  0  0  0  0
M  END
>  <minimizedAffinity>
-5.92691946

$$$$

 OpenBabel03242511383D

 45 48  0  0  1  0  0  0  0  0999 V2000
   37.2080   27.6870   41.3330 C   0  0  0  0  0  0  0  0  0  0  0  0
   36.6170   27.5890   42.6190 C   0  0  0  0  0  0  0  0  0  0  0  0
   37.2290   28.1900   43.7240 C   0  0  0  0  0  0  0  0  0  0  0  0
   38.3840   28.8430   43.4720 N   0  0  0  0  0  0  0  0  0  0  0  0
   38.9360   28.9270   42.2410 C   0  0  0  0  0  0  0  0  0  0  0  0
   38.3490   28.3570   41.2080 N   0  0  0  0  0  0  0  0  0  0  0  0
   35.6970   27.0500   42.7280 H   0  0  0  0  0  0  0  0  0  0  0  0
   36.8040   28.1310   44.7050 H   0  0  0  0  0  0  0  0  0  0  0  0
   40.2200   29.6790   42.0140 C   0  0  2  0  0  0  0  0  0  0  0  0
   40.5120   30.9270   42.7150 C   0  0  0  0  0  0  0  0  0  0  0  0
   40.1500   31.0160   41.2850 C   0  0  1  0  0  0  0  0  0  0  0  0
   41.0230   28.9850   41.6230 H   0  0  0  0  0  0  0  0  0  0  0  0
   41.5120   31.0230   43.1300 H   0  0  0  0  0  0  0  0  0  0  0  0
   39.7340   31.2270   43.4750 H   0  0  0  0  0  0  0  0  0  0  0  0
   39.1040   31.3230   41.0720 H   0  0  0  0  0  0  0  0  0  0  0  0
   40.6480   31.2730   38.8130 C   0  0  1  0  0  3  0  0  0  0  0  0
   41.1220   31.3530   40.2120 C   0  0  1  0  0  3  0  0  0  0  0  0
   41.7220   32.7020   40.5670 C   0  0  0  0  0  3  0  0  0  0  0  0
   41.8150   32.8010   41.6510 H   0  0  0  0  0  0  0  0  0  0  0  0
   41.0390   33.7720   40.0130 O   0  0  0  0  0  0  0  0  0  0  0  0
   41.1920   33.6900   38.6300 C   0  0  0  0  0  3  0  0  0  0  0  0
   40.9130   34.6210   38.0960 H   0  0  0  0  0  0  0  0  0  0  0  0
   40.2510   32.5900   38.1860 C   0  0  1  0  0  3  0  0  0  0  0  0
   41.6820   30.7850   37.9750 O   0  0  0  0  0  0  0  0  0  0  0  0
   41.2560   30.5860   37.1040 H   0  0  0  0  0  0  0  0  0  0  0  0
   40.3390   32.4500   36.7920 O   0  0  0  0  0  0  0  0  0  0  0  0
   39.5030   32.6100   36.3190 H   0  0  0  0  0  0  0  0  0  0  0  0
   36.5140   27.0400   40.2250 C   0  0  0  0  0  3  0  0  0  0  0  0
   36.3000   27.7500   39.1240 C   0  0  0  0  0  3  0  0  0  0  0  0
   35.6090   27.1930   37.9460 C   0  0  0  0  0  0  0  0  0  0  0  0
   34.7240   26.5700   38.1870 H   0  0  0  0  0  0  0  0  0  0  0  0
   36.3240   26.5110   37.4270 H   0  0  0  0  0  0  0  0  0  0  0  0
   36.1840   29.2700   35.0560 C   0  0  1  0  0  0  0  0  0  0  0  0
   35.6530   27.9170   35.5460 C   0  0  0  0  0  0  0  0  0  0  0  0
   35.2650   28.2680   36.9320 C   0  0  2  0  0  0  0  0  0  0  0  0
   35.8350   29.4700   37.2640 O   0  0  0  0  0  0  0  0  0  0  0  0
   36.7780   29.8110   36.3360 C   0  0  0  0  0  0  0  0  0  0  0  0
   35.3390   29.9040   34.7370 H   0  0  0  0  0  0  0  0  0  0  0  0
   36.4330   27.1320   35.4990 H   0  0  0  0  0  0  0  0  0  0  0  0
   34.7980   27.6360   34.9230 H   0  0  0  0  0  0  0  0  0  0  0  0
   34.1580   28.4190   36.9650 H   0  0  0  0  0  0  0  0  0  0  0  0
   37.7160   29.2220   36.5270 H   0  0  0  0  0  0  0  0  0  0  0  0
   36.9680   30.8920   36.3150 H   0  0  0  0  0  0  0  0  0  0  0  0
   37.1300   29.0850   34.0650 O   0  0  0  0  0  0  0  0  0  0  0  0
   38.0180   28.9740   34.4850 H   0  0  0  0  0  0  0  0  0  0  0  0
  1  2  1  0  0  0  0
  2  7  1  0  0  0  0
  2  3  2  0  0  0  0
  3  8  1  0  0  0  0
  4  3  1  0  0  0  0
  5  4  2  0  0  0  0
  6  1  2  0  0  0  0
  6  5  1  0  0  0  0
  9 12  1  6  0  0  0
  9  5  1  0  0  0  0
  9 10  1  0  0  0  0
 10 13  1  0  0  0  0
 10 14  1  0  0  0  0
 11 15  1  6  0  0  0
 11  9  1  0  0  0  0
 11 10  1  0  0  0  0
 16 24  1  6  0  0  0
 16 17  1  0  0  0  0
 17 18  1  1  0  0  0
 17 11  1  0  0  0  0
 18 19  1  0  0  0  0
 20 18  1  0  0  0  0
 21 20  1  0  0  0  0
 22 21  1  0  0  0  0
 23 26  1  6  0  0  0
 23 21  1  0  0  0  0
 23 16  1  0  0  0  0
 25 24  1  0  0  0  0
 27 26  1  0  0  0  0
 28  1  1  0  0  0  0
 29 28  2  0  0  0  0
 30 31  1  0  0  0  0
 30 29  1  0  0  0  0
 32 30  1  0  0  0  0
 33 38  1  6  0  0  0
 33 34  1  0  0  0  0
 33 37  1  0  0  0  0
 34 35  1  0  0  0  0
 35 41  1  1  0  0  0
 35 36  1  0  0  0  0
 35 30  1  0  0  0  0
 37 42  1  0  0  0  0
 37 36  1  0  0  0  0
 39 34  1  0  0  0  0
 40 34  1  0  0  0  0
 43 37  1  0  0  0  0
 44 45  1  0  0  0  0
 44 33  1  0  0  0  0
M  END
>  <minimizedAffinity>
-5.84944344

$$$$

 OpenBabel03242511383D

 45 48  0  0  1  0  0  0  0  0999 V2000
   39.1780   28.0280   43.0160 C   0  0  0  0  0  0  0  0  0  0  0  0
   39.6680   26.9120   43.7410 C   0  0  0  0  0  0  0  0  0  0  0  0
   41.0280   26.8150   44.0550 C   0  0  0  0  0  0  0  0  0  0  0  0
   41.8030   27.8330   43.6240 N   0  0  0  0  0  0  0  0  0  0  0  0
   41.3220   28.8920   42.9330 C   0  0  0  0  0  0  0  0  0  0  0  0
   40.0390   28.9710   42.6450 N   0  0  0  0  0  0  0  0  0  0  0  0
   38.9800   26.1470   44.0440 H   0  0  0  0  0  0  0  0  0  0  0  0
   41.4230   25.9820   44.6000 H   0  0  0  0  0  0  0  0  0  0  0  0
   42.2300   30.0060   42.4880 C   0  0  2  0  0  0  0  0  0  0  0  0
   42.2340   31.3050   43.1560 C   0  0  0  0  0  0  0  0  0  0  0  0
   41.5980   31.2250   41.8250 C   0  0  1  0  0  0  0  0  0  0  0  0
   43.1230   29.5930   41.9310 H   0  0  0  0  0  0  0  0  0  0  0  0
   43.2110   31.7310   43.3750 H   0  0  0  0  0  0  0  0  0  0  0  0
   41.5600   31.3660   44.0600 H   0  0  0  0  0  0  0  0  0  0  0  0
   40.4890   31.1740   41.8240 H   0  0  0  0  0  0  0  0  0  0  0  0
   41.4050   31.7190   39.3460 C   0  0  1  0  0  3  0  0  0  0  0  0
   42.1890   31.8190   40.5970 C   0  0  1  0  0  3  0  0  0  0  0  0
   42.5900   33.2420   40.9420 C   0  0  0  0  0  3  0  0  0  0  0  0
   42.9310   33.2970   41.9790 H   0  0  0  0  0  0  0  0  0  0  0  0
   41.6000   34.1740   40.6790 O   0  0  0  0  0  0  0  0  0  0  0  0
   41.4150   34.2030   39.2980 C   0  0  0  0  0  3  0  0  0  0  0  0
   40.8400   35.0830   38.9450 H   0  0  0  0  0  0  0  0  0  0  0  0
   40.6200   32.9560   38.9720 C   0  0  1  0  0  3  0  0  0  0  0  0
   42.2700   31.5080   38.2430 O   0  0  0  0  0  0  0  0  0  0  0  0
   41.6860   31.2720   37.4800 H   0  0  0  0  0  0  0  0  0  0  0  0
   40.3830   32.9170   37.5890 O   0  0  0  0  0  0  0  0  0  0  0  0
   39.4400   32.9220   37.3440 H   0  0  0  0  0  0  0  0  0  0  0  0
   37.7490   28.0670   42.7270 C   0  0  0  0  0  3  0  0  0  0  0  0
   37.3630   28.5590   41.5560 C   0  0  0  0  0  3  0  0  0  0  0  0
   35.9440   28.6430   41.1630 C   0  0  0  0  0  0  0  0  0  0  0  0
   35.2300   28.5590   42.0070 H   0  0  0  0  0  0  0  0  0  0  0  0
   35.7260   27.7730   40.4980 H   0  0  0  0  0  0  0  0  0  0  0  0
   36.7480   31.2580   38.8160 C   0  0  1  0  0  0  0  0  0  0  0  0
   36.2560   29.8140   38.9680 C   0  0  0  0  0  0  0  0  0  0  0  0
   35.6620   29.8750   40.3250 C   0  0  2  0  0  0  0  0  0  0  0  0
   36.0950   31.0170   40.9490 O   0  0  0  0  0  0  0  0  0  0  0  0
   37.1270   31.5710   40.2450 C   0  0  0  0  0  0  0  0  0  0  0  0
   35.9100   31.9030   38.5000 H   0  0  0  0  0  0  0  0  0  0  0  0
   37.0890   29.0900   38.8910 H   0  0  0  0  0  0  0  0  0  0  0  0
   35.5140   29.6190   38.1870 H   0  0  0  0  0  0  0  0  0  0  0  0
   34.5520   29.9670   40.2250 H   0  0  0  0  0  0  0  0  0  0  0  0
   38.0700   30.9990   40.4590 H   0  0  0  0  0  0  0  0  0  0  0  0
   37.2390   32.6440   40.4500 H   0  0  0  0  0  0  0  0  0  0  0  0
   37.8290   31.3100   37.9550 O   0  0  0  0  0  0  0  0  0  0  0  0
   38.6580   31.1610   38.4710 H   0  0  0  0  0  0  0  0  0  0  0  0
  1  2  1  0  0  0  0
  2  7  1  0  0  0  0
  2  3  2  0  0  0  0
  3  8  1  0  0  0  0
  4  3  1  0  0  0  0
  5  4  2  0  0  0  0
  6  5  1  0  0  0  0
  6  1  2  0  0  0  0
  9 12  1  6  0  0  0
  9  5  1  0  0  0  0
  9 10  1  0  0  0  0
 10 13  1  0  0  0  0
 10 14  1  0  0  0  0
 11 15  1  1  0  0  0
 11  9  1  0  0  0  0
 11 10  1  0  0  0  0
 16 24  1  6  0  0  0
 16 17  1  0  0  0  0
 17 18  1  1  0  0  0
 17 11  1  0  0  0  0
 18 19  1  0  0  0  0
 20 18  1  0  0  0  0
 21 20  1  0  0  0  0
 22 21  1  0  0  0  0
 23 26  1  6  0  0  0
 23 21  1  0  0  0  0
 23 16  1  0  0  0  0
 25 24  1  0  0  0  0
 27 26  1  0  0  0  0
 28  1  1  0  0  0  0
 29 28  2  0  0  0  0
 30 29  1  0  0  0  0
 30 31  1  0  0  0  0
 32 30  1  0  0  0  0
 33 38  1  6  0  0  0
 33 34  1  0  0  0  0
 33 37  1  0  0  0  0
 34 35  1  0  0  0  0
 35 41  1  6  0  0  0
 35 36  1  0  0  0  0
 35 30  1  0  0  0  0
 37 43  1  0  0  0  0
 37 42  1  0  0  0  0
 37 36  1  0  0  0  0
 39 34  1  0  0  0  0
 40 34  1  0  0  0  0
 44 45  1  0  0  0  0
 44 33  1  0  0  0  0
M  END
>  <minimizedAffinity>
-5.81681776

$$$$
