
 OpenBabel03252507373D

 41 45  0  0  1  0  0  0  0  0999 V2000
   45.6870   34.7840   43.5050 C   0  0  0  0  0  0  0  0  0  0  0  0
   46.3890   33.7130   44.1160 C   0  0  0  0  0  0  0  0  0  0  0  0
   46.1310   33.4830   45.4660 C   0  0  0  0  0  0  0  0  0  0  0  0
   45.2610   34.2570   46.1100 N   0  0  0  0  0  0  0  0  0  0  0  0
   44.6020   35.2750   45.5060 C   0  0  0  0  0  0  0  0  0  0  0  0
   44.8170   35.5290   44.2200 N   0  0  0  0  0  0  0  0  0  0  0  0
   47.0830   33.0910   43.6160 H   0  0  0  0  0  0  0  0  0  0  0  0
   43.9150   35.8440   46.1180 H   0  0  0  0  0  0  0  0  0  0  0  0
   47.0260   32.6570   47.5720 C   0  0  0  0  0  0  0  0  0  0  0  0
   46.7910   32.4060   46.2190 C   0  0  0  0  0  0  0  0  0  0  0  0
   47.1790   31.2150   45.7020 C   0  0  0  0  0  0  0  0  0  0  0  0
   47.7970   30.2340   46.4510 C   0  0  0  0  0  0  0  0  0  0  0  0
   48.2570   29.0020   46.1440 N   0  0  0  0  0  0  0  0  0  0  0  0
   48.7860   28.4660   47.3090 C   0  0  0  0  0  0  0  0  0  0  0  0
   48.6360   29.3870   48.2950 N   0  0  0  0  0  0  0  0  0  0  0  0
   48.0370   30.4600   47.7780 C   0  0  0  0  0  0  0  0  0  0  0  0
   47.6540   31.6620   48.3350 C   0  0  0  0  0  0  0  0  0  0  0  0
   46.7670   33.5690   48.1140 H   0  0  0  0  0  0  0  0  0  0  0  0
   46.9810   31.0580   44.6520 H   0  0  0  0  0  0  0  0  0  0  0  0
   48.2320   28.5150   45.2150 H   0  0  0  0  0  0  0  0  0  0  0  0
   49.2330   27.4830   47.3770 H   0  0  0  0  0  0  0  0  0  0  0  0
   47.8620   31.8010   49.3890 H   0  0  0  0  0  0  0  0  0  0  0  0
   45.9360   35.0240   42.1520 O   0  0  0  0  0  0  0  0  0  0  0  0
   44.9860   34.6700   41.2010 C   0  0  0  0  0  0  0  0  0  0  0  0
   45.6580   33.7430   40.4940 C   0  0  0  0  0  0  0  0  0  0  0  0
   44.3710   33.2430   39.1840 S   0  0  0  0  0  0  0  0  0  0  0  0
   43.1530   34.4760   39.9430 C   0  0  0  0  0  0  0  0  0  0  0  0
   43.7640   34.8850   40.7640 N   0  0  0  0  0  0  0  0  0  0  0  0
   46.5900   33.0870   40.2490 H   0  0  0  0  0  0  0  0  0  0  0  0
   41.0850   33.3600   39.4920 C   0  0  1  0  0  3  0  0  0  0  0  0
   41.7880   34.6690   39.4010 C   0  0  1  0  0  3  0  0  0  0  0  0
   41.0910   35.6950   40.2680 C   0  0  0  0  0  3  0  0  0  0  0  0
   40.9480   36.6610   39.7460 H   0  0  0  0  0  0  0  0  0  0  0  0
   39.8420   35.2270   40.7050 O   0  0  0  0  0  0  0  0  0  0  0  0
   40.0230   34.1510   41.5720 C   0  0  0  0  0  3  0  0  0  0  0  0
   38.9920   33.8310   41.8550 H   0  0  0  0  0  0  0  0  0  0  0  0
   40.7250   33.0140   40.8980 C   0  0  1  0  0  3  0  0  0  0  0  0
   39.9400   33.3640   38.6660 O   0  0  0  0  0  0  0  0  0  0  0  0
   39.6690   32.4330   38.4490 H   0  0  0  0  0  0  0  0  0  0  0  0
   39.9150   31.8710   40.8480 O   0  0  0  0  0  0  0  0  0  0  0  0
   38.9680   32.1870   40.9420 H   0  0  0  0  0  0  0  0  0  0  0  0
  1  2  2  0  0  0  0
  1  6  1  0  0  0  0
  2  3  1  0  0  0  0
  3  4  2  0  0  0  0
  3 10  1  0  0  0  0
  5  4  1  0  0  0  0
  5  8  1  0  0  0  0
  6  5  2  0  0  0  0
  7  2  1  0  0  0  0
  9 18  1  0  0  0  0
  9 17  1  0  0  0  0
 10  9  2  0  0  0  0
 11 10  1  0  0  0  0
 11 12  2  0  0  0  0
 12 16  1  0  0  0  0
 13 12  1  0  0  0  0
 13 14  1  0  0  0  0
 14 21  1  0  0  0  0
 14 15  2  0  0  0  0
 16 15  1  0  0  0  0
 16 17  2  0  0  0  0
 17 22  1  0  0  0  0
 19 11  1  0  0  0  0
 20 13  1  0  0  0  0
 23  1  1  0  0  0  0
 24 23  1  0  0  0  0
 25 24  2  0  0  0  0
 26 27  1  0  0  0  0
 26 25  1  0  0  0  0
 27 28  2  0  0  0  0
 28 24  1  0  0  0  0
 29 25  1  0  0  0  0
 30 38  1  6  0  0  0
 30 37  1  0  0  0  0
 31 30  1  0  0  0  0
 31 27  1  1  0  0  0
 31 32  1  0  0  0  0
 32 34  1  0  0  0  0
 33 32  1  0  0  0  0
 34 35  1  0  0  0  0
 35 36  1  0  0  0  0
 37 40  1  6  0  0  0
 37 35  1  0  0  0  0
 39 38  1  0  0  0  0
 40 41  1  0  0  0  0
M  END
>  <minimizedAffinity>
-6.77549171

>  <minimizedRMSD>
0.888810277

$$$$
