
 OpenBabel03242518423D

 22 23  0  0  1  0  0  0  0  0999 V2000
   46.8230   31.6150   46.5400 C   0  0  2  0  0  3  0  0  0  0  0  0
   45.5480   32.3200   46.2610 C   0  0  1  0  0  3  0  0  0  0  0  0
   45.1110   33.1670   47.4630 C   0  0  0  0  0  3  0  0  0  0  0  0
   44.0870   33.5430   47.3290 H   0  0  0  0  0  0  0  0  0  0  0  0
   45.0680   32.2520   48.5230 O   0  0  0  0  0  0  0  0  0  0  0  0
   46.3270   31.8770   48.9500 C   0  0  0  0  0  3  0  0  0  0  0  0
   46.2620   30.8000   49.2200 H   0  0  0  0  0  0  0  0  0  0  0  0
   47.3930   32.0480   47.8860 C   0  0  1  0  0  3  0  0  0  0  0  0
   45.1610   35.4080   44.2990 C   0  0  0  0  0  0  0  0  0  0  0  0
   45.7290   35.0880   43.0480 C   0  0  0  0  0  0  0  0  0  0  0  0
   46.2490   33.7770   42.9030 C   0  0  0  0  0  0  0  0  0  0  0  0
   46.1690   32.9260   43.9620 N   0  0  0  0  0  0  0  0  0  0  0  0
   45.6170   33.2850   45.1280 C   0  0  0  0  0  0  0  0  0  0  0  0
   45.1130   34.5280   45.2930 N   0  0  0  0  0  0  0  0  0  0  0  0
   45.7990   35.7460   42.2130 H   0  0  0  0  0  0  0  0  0  0  0  0
   46.7020   33.4730   41.9600 H   0  0  0  0  0  0  0  0  0  0  0  0
   44.6580   36.6710   44.4410 O   0  0  0  0  0  0  0  0  0  0  0  0
   44.8940   37.1970   45.2930 H   0  0  0  0  0  0  0  0  0  0  0  0
   47.7930   31.7530   45.5560 O   0  0  0  0  0  0  0  0  0  0  0  0
   48.2160   30.8680   45.3340 H   0  0  0  0  0  0  0  0  0  0  0  0
   48.4800   31.2200   48.1470 O   0  0  0  0  0  0  0  0  0  0  0  0
   48.8890   30.8260   47.3380 H   0  0  0  0  0  0  0  0  0  0  0  0
  1 19  1  6  0  0  0
  1  8  1  0  0  0  0
  2 13  1  6  0  0  0
  2  1  1  0  0  0  0
  2  3  1  0  0  0  0
  3  5  1  0  0  0  0
  4  3  1  0  0  0  0
  5  6  1  0  0  0  0
  6  7  1  0  0  0  0
  8 21  1  1  0  0  0
  8  6  1  0  0  0  0
  9 17  1  0  0  0  0
  9 14  1  0  0  0  0
 10  9  2  0  0  0  0
 11 10  1  0  0  0  0
 11 12  2  0  0  0  0
 12 13  1  0  0  0  0
 13 14  2  0  0  0  0
 15 10  1  0  0  0  0
 16 11  1  0  0  0  0
 17 18  1  0  0  0  0
 20 19  1  0  0  0  0
 22 21  1  0  0  0  0
M  END
>  <minimizedAffinity>
-3.97951221

>  <minimizedRMSD>
1.44100964

$$$$
