
 OpenBabel03252500253D

 40 42  0  0  1  0  0  0  0  0999 V2000
   47.1280   30.0470   47.9910 C   0  0  2  0  0  0  0  0  0  0  0  0
   45.6940   30.3080   48.2530 C   0  0  2  0  0  0  0  0  0  0  0  0
   44.9890   29.4420   47.2750 C   0  0  0  0  0  0  0  0  0  0  0  0
   45.7900   28.3370   47.0490 O   0  0  0  0  0  0  0  0  0  0  0  0
   47.0090   28.5520   47.6060 C   0  0  0  0  0  0  0  0  0  0  0  0
   47.6970   30.4330   47.1970 H   0  0  0  0  0  0  0  0  0  0  0  0
   45.5170   29.9960   49.3030 H   0  0  0  0  0  0  0  0  0  0  0  0
   44.5200   29.8990   46.4110 H   0  0  0  0  0  0  0  0  0  0  0  0
   44.1030   29.0040   47.8320 H   0  0  0  0  0  0  0  0  0  0  0  0
   47.0990   27.9220   48.5120 H   0  0  0  0  0  0  0  0  0  0  0  0
   47.8000   28.2240   46.9290 H   0  0  0  0  0  0  0  0  0  0  0  0
   45.3400   31.6350   48.1550 O   0  0  0  0  0  0  0  0  0  0  0  0
   47.4410   32.8820   47.3610 O   0  0  0  0  0  0  0  0  0  0  0  0
   46.1320   32.3330   46.8660 P   0  0  1  0  0  0  0  0  0  0  0  0
   46.4480   31.1540   45.6910 O   0  0  0  0  0  0  0  0  0  0  0  0
   47.0780   31.5030   45.0100 H   0  0  0  0  0  0  0  0  0  0  0  0
   45.2700   33.6530   46.2020 O   0  0  0  0  0  0  0  0  0  0  0  0
   45.2600   35.9520   43.4710 C   0  0  0  0  0  0  0  0  0  0  0  0
   46.1540   35.3750   42.5290 C   0  0  0  0  0  0  0  0  0  0  0  0
   46.7570   34.1610   42.8840 C   0  0  0  0  0  0  0  0  0  0  0  0
   46.4470   33.6250   44.0920 N   0  0  0  0  0  0  0  0  0  0  0  0
   45.5940   34.2020   44.9560 C   0  0  0  0  0  0  0  0  0  0  0  0
   45.0050   35.3630   44.6390 N   0  0  0  0  0  0  0  0  0  0  0  0
   46.3770   35.8350   41.5720 H   0  0  0  0  0  0  0  0  0  0  0  0
   47.4470   33.6720   42.2130 H   0  0  0  0  0  0  0  0  0  0  0  0
   44.6680   37.1470   43.1210 O   0  0  0  0  0  0  0  0  0  0  0  0
   44.3000   37.8030   43.7950 H   0  0  0  0  0  0  0  0  0  0  0  0
   47.9340   30.2290   49.0830 O   0  0  0  0  0  0  0  0  0  0  0  0
   49.9890   29.2130   49.7950 C   0  0  2  0  0  3  0  0  0  0  0  0
   49.2600   30.3230   48.9940 C   0  0  2  0  0  3  0  0  0  0  0  0
   49.7250   31.6000   49.6530 C   0  0  0  0  0  3  0  0  0  0  0  0
   49.4950   32.5170   49.1260 H   0  0  0  0  0  0  0  0  0  0  0  0
   51.0790   31.5490   49.9760 O   0  0  0  0  0  0  0  0  0  0  0  0
   51.2850   30.8030   51.1330 C   0  0  0  0  0  3  0  0  0  0  0  0
   52.2810   30.3320   51.0130 H   0  0  0  0  0  0  0  0  0  0  0  0
   50.2630   29.7030   51.2220 C   0  0  2  0  0  3  0  0  0  0  0  0
   51.2600   28.9970   49.2620 O   0  0  0  0  0  0  0  0  0  0  0  0
   51.6030   28.1860   49.6930 H   0  0  0  0  0  0  0  0  0  0  0  0
   50.8870   28.6150   51.8500 O   0  0  0  0  0  0  0  0  0  0  0  0
   50.5070   28.3770   52.7150 H   0  0  0  0  0  0  0  0  0  0  0  0
  1  6  1  6  0  0  0
  1  2  1  0  0  0  0
  1 28  1  0  0  0  0
  2  7  1  1  0  0  0
  3  9  1  0  0  0  0
  3  2  1  0  0  0  0
  4  3  1  0  0  0  0
  4  5  1  0  0  0  0
  5  1  1  0  0  0  0
  5 10  1  0  0  0  0
  8  3  1  0  0  0  0
 11  5  1  0  0  0  0
 12  2  1  0  0  0  0
 14 13  2  1  0  0  0
 14 12  1  0  0  0  0
 15 14  1  0  0  0  0
 16 15  1  0  0  0  0
 17 14  1  0  0  0  0
 18 23  1  0  0  0  0
 19 20  1  0  0  0  0
 19 18  2  0  0  0  0
 20 21  2  0  0  0  0
 21 22  1  0  0  0  0
 22 17  1  0  0  0  0
 23 22  2  0  0  0  0
 24 19  1  0  0  0  0
 25 20  1  0  0  0  0
 26 18  1  0  0  0  0
 26 27  1  0  0  0  0
 29 37  1  6  0  0  0
 29 36  1  0  0  0  0
 30 28  1  1  0  0  0
 30 31  1  0  0  0  0
 30 29  1  0  0  0  0
 31 33  1  0  0  0  0
 32 31  1  0  0  0  0
 33 34  1  0  0  0  0
 34 36  1  0  0  0  0
 35 34  1  0  0  0  0
 36 39  1  1  0  0  0
 37 38  1  0  0  0  0
 39 40  1  0  0  0  0
M  END
>  <minimizedAffinity>
-5.48493338

>  <minimizedRMSD>
1.8645314

$$$$
