
 OpenBabel03252507433D

 34 36  0  0  1  0  0  0  0  0999 V2000
   44.4980   34.7030   41.2290 C   0  0  0  0  0  0  0  0  0  0  0  0
   43.5760   35.6680   41.7520 C   0  0  0  0  0  0  0  0  0  0  0  0
   42.0470   35.3400   40.7700 S   0  0  0  0  0  0  0  0  0  0  0  0
   42.9240   33.9590   39.8290 C   0  0  0  0  0  0  0  0  0  0  0  0
   43.9670   33.9600   40.2850 N   0  0  0  0  0  0  0  0  0  0  0  0
   43.7970   36.3830   42.5330 H   0  0  0  0  0  0  0  0  0  0  0  0
   41.2740   32.1510   39.3930 C   0  0  1  0  0  3  0  0  0  0  0  0
   42.2440   33.1550   38.7600 C   0  0  2  0  0  3  0  0  0  0  0  0
   43.3100   32.3940   38.0470 C   0  0  0  0  0  3  0  0  0  0  0  0
   43.3920   32.7930   37.0080 H   0  0  0  0  0  0  0  0  0  0  0  0
   42.9070   31.0560   37.8700 O   0  0  0  0  0  0  0  0  0  0  0  0
   41.6460   30.9820   37.2880 C   0  0  0  0  0  3  0  0  0  0  0  0
   41.5750   31.6170   36.3670 H   0  0  0  0  0  0  0  0  0  0  0  0
   40.6140   31.3870   38.2940 C   0  0  2  0  0  3  0  0  0  0  0  0
   41.9830   31.4000   40.2970 O   0  0  0  0  0  0  0  0  0  0  0  0
   41.5530   31.3160   41.1810 H   0  0  0  0  0  0  0  0  0  0  0  0
   39.6390   32.2390   37.7250 O   0  0  0  0  0  0  0  0  0  0  0  0
   39.3680   32.9130   38.3930 H   0  0  0  0  0  0  0  0  0  0  0  0
   45.8790   34.6090   41.7440 C   0  0  0  0  0  0  0  0  0  0  0  0
   46.1660   35.5590   42.2370 H   0  0  0  0  0  0  0  0  0  0  0  0
   45.8580   33.7910   42.5120 H   0  0  0  0  0  0  0  0  0  0  0  0
   46.9140   34.2490   40.7450 C   0  0  0  0  0  0  0  0  0  0  0  0
   47.0270   35.1430   40.0630 H   0  0  0  0  0  0  0  0  0  0  0  0
   46.6340   33.4310   40.0920 H   0  0  0  0  0  0  0  0  0  0  0  0
   48.2700   34.0550   41.3230 C   0  0  0  0  0  0  0  0  0  0  0  0
   48.9210   32.8550   41.0360 C   0  0  0  0  0  0  0  0  0  0  0  0
   50.1820   32.6310   41.5490 C   0  0  0  0  0  0  0  0  0  0  0  0
   50.7480   33.6050   42.3290 N   0  0  0  0  0  0  0  0  0  0  0  0
   50.0830   34.7560   42.5850 C   0  0  0  0  0  0  0  0  0  0  0  0
   48.8760   34.9660   42.0900 N   0  0  0  0  0  0  0  0  0  0  0  0
   50.7160   31.7170   41.3490 H   0  0  0  0  0  0  0  0  0  0  0  0
   50.5360   35.5290   43.2060 H   0  0  0  0  0  0  0  0  0  0  0  0
   48.1060   31.6250   40.0030 S   0  0  0  0  0  0  0  0  0  0  0  0
   47.9820   30.4070   40.7300 H   0  0  0  0  0  0  0  0  0  0  0  0
  1 19  1  0  0  0  0
  1  2  2  0  0  0  0
  2  6  1  0  0  0  0
  3  2  1  0  0  0  0
  4  5  2  0  0  0  0
  4  3  1  0  0  0  0
  5  1  1  0  0  0  0
  7 15  1  1  0  0  0
  8  7  1  0  0  0  0
  8  4  1  1  0  0  0
  9  8  1  0  0  0  0
 10  9  1  0  0  0  0
 11  9  1  0  0  0  0
 12 11  1  0  0  0  0
 12 14  1  0  0  0  0
 13 12  1  0  0  0  0
 14 17  1  6  0  0  0
 14  7  1  0  0  0  0
 15 16  1  0  0  0  0
 17 18  1  0  0  0  0
 19 20  1  0  0  0  0
 19 21  1  0  0  0  0
 22 25  1  0  0  0  0
 22 19  1  0  0  0  0
 23 22  1  0  0  0  0
 24 22  1  0  0  0  0
 25 30  1  0  0  0  0
 26 25  2  0  0  0  0
 26 27  1  0  0  0  0
 27 28  2  0  0  0  0
 28 29  1  0  0  0  0
 29 32  1  0  0  0  0
 30 29  2  0  0  0  0
 31 27  1  0  0  0  0
 33 34  1  0  0  0  0
 33 26  1  0  0  0  0
M  END
>  <minimizedAffinity>
-4.44394302

>  <minimizedRMSD>
0.565726697

$$$$
