
 OpenBabel03242523383D

 22 23  0  0  1  0  0  0  0  0999 V2000
   45.7820   30.9300   47.9120 C   0  0  2  0  0  3  0  0  0  0  0  0
   46.3700   32.3200   47.8770 C   0  0  1  0  0  3  0  0  0  0  0  0
   47.7950   32.2600   48.3340 C   0  0  0  0  0  3  0  0  0  0  0  0
   48.4990   32.0630   47.4810 H   0  0  0  0  0  0  0  0  0  0  0  0
   47.8980   31.1700   49.2200 O   0  0  0  0  0  0  0  0  0  0  0  0
   48.0430   30.0160   48.4300 C   0  0  0  0  0  3  0  0  0  0  0  0
   48.2360   29.1530   49.1040 H   0  0  0  0  0  0  0  0  0  0  0  0
   46.7990   29.8450   47.6000 C   0  0  1  0  0  3  0  0  0  0  0  0
   45.1780   34.4340   45.0620 C   0  0  0  0  0  0  0  0  0  0  0  0
   46.0430   34.0300   44.0070 C   0  0  0  0  0  0  0  0  0  0  0  0
   47.0030   33.0500   44.2900 C   0  0  0  0  0  0  0  0  0  0  0  0
   47.0560   32.5400   45.5530 N   0  0  0  0  0  0  0  0  0  0  0  0
   46.2100   32.9550   46.5340 C   0  0  0  0  0  0  0  0  0  0  0  0
   45.2860   33.8860   46.2950 N   0  0  0  0  0  0  0  0  0  0  0  0
   44.4430   35.1910   44.8280 H   0  0  0  0  0  0  0  0  0  0  0  0
   45.9460   34.4760   43.0250 H   0  0  0  0  0  0  0  0  0  0  0  0
   48.1160   32.5000   43.0090 S   0  0  0  0  0  0  0  0  0  0  0  0
   48.5690   33.6190   42.2890 H   0  0  0  0  0  0  0  0  0  0  0  0
   44.6870   30.7960   47.0910 O   0  0  0  0  0  0  0  0  0  0  0  0
   44.7850   31.1990   46.1940 H   0  0  0  0  0  0  0  0  0  0  0  0
   46.1980   28.6330   47.9790 O   0  0  0  0  0  0  0  0  0  0  0  0
   45.2140   28.7070   47.8280 H   0  0  0  0  0  0  0  0  0  0  0  0
  1 19  1  6  0  0  0
  2 13  1  6  0  0  0
  2  1  1  0  0  0  0
  2  3  1  0  0  0  0
  3  5  1  0  0  0  0
  4  3  1  0  0  0  0
  6  7  1  0  0  0  0
  6  5  1  0  0  0  0
  8  1  1  0  0  0  0
  8 21  1  1  0  0  0
  8  6  1  0  0  0  0
  9 14  1  0  0  0  0
 10 11  1  0  0  0  0
 10  9  2  0  0  0  0
 11 12  2  0  0  0  0
 12 13  1  0  0  0  0
 14 13  2  0  0  0  0
 15  9  1  0  0  0  0
 16 10  1  0  0  0  0
 17 11  1  0  0  0  0
 18 17  1  0  0  0  0
 20 19  1  0  0  0  0
 22 21  1  0  0  0  0
M  END
>  <minimizedAffinity>
-4.57062435

>  <minimizedRMSD>
2.1810689

$$$$
