
 OpenBabel03252504323D

 43 45  0  0  1  0  0  0  0  0999 V2000
   45.7870   35.1070   42.0610 C   0  0  0  0  0  0  0  0  0  0  0  0
   45.9060   34.2260   42.7430 H   0  0  0  0  0  0  0  0  0  0  0  0
   45.6320   35.9850   42.7190 H   0  0  0  0  0  0  0  0  0  0  0  0
   44.5250   33.9000   40.3470 C   0  0  0  0  0  0  0  0  0  0  0  0
   44.4690   34.8520   41.3910 C   0  0  0  0  0  0  0  0  0  0  0  0
   43.2610   35.4110   41.6580 C   0  0  0  0  0  0  0  0  0  0  0  0
   42.2310   35.0220   40.9230 N   0  0  0  0  0  0  0  0  0  0  0  0
   42.2790   34.1340   39.9490 C   0  0  0  0  0  0  0  0  0  0  0  0
   43.4790   33.5160   39.6130 N   0  0  0  0  0  0  0  0  0  0  0  0
   45.4520   33.4110   40.0750 H   0  0  0  0  0  0  0  0  0  0  0  0
   43.2790   36.1320   42.4660 H   0  0  0  0  0  0  0  0  0  0  0  0
   40.3770   32.5770   39.8040 C   0  0  1  0  0  3  0  0  0  0  0  0
   41.0720   33.7470   39.1650 C   0  0  1  0  0  3  0  0  0  0  0  0
   40.1080   34.9170   39.0370 C   0  0  0  0  0  3  0  0  0  0  0  0
   40.5290   35.6870   38.3340 H   0  0  0  0  0  0  0  0  0  0  0  0
   38.8580   34.5070   38.6220 O   0  0  0  0  0  0  0  0  0  0  0  0
   38.2400   33.8820   39.6830 C   0  0  0  0  0  3  0  0  0  0  0  0
   37.7560   34.6760   40.3010 H   0  0  0  0  0  0  0  0  0  0  0  0
   39.1360   33.0280   40.5180 C   0  0  2  0  0  3  0  0  0  0  0  0
   40.1080   31.5570   38.8900 O   0  0  0  0  0  0  0  0  0  0  0  0
   39.8060   31.8720   38.0210 H   0  0  0  0  0  0  0  0  0  0  0  0
   39.5460   33.7550   41.6590 O   0  0  0  0  0  0  0  0  0  0  0  0
   39.8790   33.1020   42.3340 H   0  0  0  0  0  0  0  0  0  0  0  0
   46.7900   35.3440   41.1680 O   0  0  0  0  0  0  0  0  0  0  0  0
   48.0480   34.7650   41.1180 C   0  0  0  0  0  3  0  0  0  0  0  0
   48.5970   34.4650   42.2900 C   0  0  0  0  0  3  0  0  0  0  0  0
   49.9580   33.8260   42.4950 C   0  0  0  0  0  0  0  0  0  0  0  0
   50.5460   34.4080   43.2270 H   0  0  0  0  0  0  0  0  0  0  0  0
   50.4400   33.8630   41.4930 H   0  0  0  0  0  0  0  0  0  0  0  0
   49.7420   32.5140   42.8670 O   0  0  0  0  0  0  0  0  0  0  0  0
   49.5050   31.6600   40.3560 O   0  0  0  0  0  0  0  0  0  0  0  0
   50.2500   31.4590   41.6550 P   0  0  1  0  0  0  0  0  0  0  0  0
   51.9040   31.7070   41.3170 O   0  0  0  0  0  0  0  0  0  0  0  0
   52.3770   31.4690   42.1530 H   0  0  0  0  0  0  0  0  0  0  0  0
   50.0900   29.8590   42.1700 O   0  0  0  0  0  0  0  0  0  0  0  0
   50.7240   29.6280   43.3700 C   0  0  0  0  0  0  0  0  0  0  0  0
   51.9210   28.7300   43.4050 C   0  0  0  0  0  0  0  0  0  0  0  0
   50.5920   28.2320   43.9250 C   0  0  0  0  0  0  0  0  0  0  0  0
   50.6830   30.4640   44.0870 H   0  0  0  0  0  0  0  0  0  0  0  0
   52.3170   28.3450   42.4520 H   0  0  0  0  0  0  0  0  0  0  0  0
   52.6540   28.9520   44.2040 H   0  0  0  0  0  0  0  0  0  0  0  0
   50.4620   28.0840   45.0250 H   0  0  0  0  0  0  0  0  0  0  0  0
   50.1420   27.4430   43.2810 H   0  0  0  0  0  0  0  0  0  0  0  0
  1  3  1  0  0  0  0
  1  2  1  0  0  0  0
  4  5  1  0  0  0  0
  5  6  2  0  0  0  0
  5  1  1  0  0  0  0
  6 11  1  0  0  0  0
  7  6  1  0  0  0  0
  8  7  2  0  0  0  0
  9  8  1  0  0  0  0
  9  4  2  0  0  0  0
 10  4  1  0  0  0  0
 12 20  1  6  0  0  0
 12 19  1  0  0  0  0
 13 12  1  0  0  0  0
 13  8  1  1  0  0  0
 14 13  1  0  0  0  0
 15 14  1  0  0  0  0
 16 14  1  0  0  0  0
 16 17  1  0  0  0  0
 17 18  1  0  0  0  0
 17 19  1  0  0  0  0
 19 22  1  1  0  0  0
 21 20  1  0  0  0  0
 22 23  1  0  0  0  0
 24  1  1  0  0  0  0
 25 24  1  0  0  0  0
 25 26  2  0  0  0  0
 26 27  1  0  0  0  0
 27 30  1  0  0  0  0
 27 28  1  0  0  0  0
 29 27  1  0  0  0  0
 32 31  2  6  0  0  0
 32 35  1  0  0  0  0
 32 30  1  0  0  0  0
 33 32  1  0  0  0  0
 33 34  1  0  0  0  0
 35 36  1  0  0  0  0
 36 37  1  0  0  0  0
 36 38  1  0  0  0  0
 36 39  1  0  0  0  0
 37 38  1  0  0  0  0
 37 41  1  0  0  0  0
 38 42  1  0  0  0  0
 40 37  1  0  0  0  0
 43 38  1  0  0  0  0
M  END
>  <minimizedAffinity>
-4.21349859

>  <minimizedRMSD>
4.99407053

$$$$
