
 OpenBabel03242521133D

 31 33  0  0  1  0  0  0  0  0999 V2000
   44.6280   35.3270   45.1950 C   0  0  0  0  0  0  0  0  0  0  0  0
   45.1790   35.3700   43.8910 C   0  0  0  0  0  0  0  0  0  0  0  0
   46.1730   34.4350   43.5820 C   0  0  0  0  0  0  0  0  0  0  0  0
   46.5460   33.5510   44.5460 N   0  0  0  0  0  0  0  0  0  0  0  0
   46.0100   33.5320   45.7690 C   0  0  0  0  0  0  0  0  0  0  0  0
   45.0380   34.4280   46.1070 N   0  0  0  0  0  0  0  0  0  0  0  0
   43.8520   36.0640   45.4220 H   0  0  0  0  0  0  0  0  0  0  0  0
   44.8220   36.1090   43.1860 H   0  0  0  0  0  0  0  0  0  0  0  0
   46.7380   34.4650   42.2720 N   0  0  0  0  0  0  0  0  0  0  0  0
   47.9270   35.0810   42.1220 C   0  0  0  0  0  0  0  0  0  0  0  0
   48.4950   35.1220   40.8520 C   0  0  0  0  0  0  0  0  0  0  0  0
   47.8110   34.5310   39.8270 C   0  0  0  0  0  0  0  0  0  0  0  0
   48.3330   34.5690   38.6640 O   0  0  0  0  0  0  0  0  0  0  0  0
   46.6180   33.9110   39.9670 N   0  0  0  0  0  0  0  0  0  0  0  0
   46.1220   33.9080   41.2230 C   0  0  0  0  0  0  0  0  0  0  0  0
   45.0230   33.3610   41.4700 O   0  0  0  0  0  0  0  0  0  0  0  0
   48.4650   35.5490   42.9460 H   0  0  0  0  0  0  0  0  0  0  0  0
   49.4520   35.6150   40.7230 H   0  0  0  0  0  0  0  0  0  0  0  0
   46.1110   33.4640   39.1610 H   0  0  0  0  0  0  0  0  0  0  0  0
   46.3720   31.1280   46.2530 C   0  0  1  0  0  3  0  0  0  0  0  0
   46.4580   32.5400   46.7850 C   0  0  2  0  0  3  0  0  0  0  0  0
   45.6540   32.7470   48.0310 C   0  0  0  0  0  3  0  0  0  0  0  0
   45.2210   33.7650   48.0270 H   0  0  0  0  0  0  0  0  0  0  0  0
   44.6090   31.8400   48.0700 O   0  0  0  0  0  0  0  0  0  0  0  0
   45.0550   30.5400   48.2990 C   0  0  0  0  0  3  0  0  0  0  0  0
   45.3790   30.4970   49.3660 H   0  0  0  0  0  0  0  0  0  0  0  0
   46.2370   30.1940   47.4310 C   0  0  1  0  0  3  0  0  0  0  0  0
   45.3190   30.9860   45.3550 O   0  0  0  0  0  0  0  0  0  0  0  0
   44.4740   31.0970   45.8580 H   0  0  0  0  0  0  0  0  0  0  0  0
   46.0580   28.9100   46.9460 O   0  0  0  0  0  0  0  0  0  0  0  0
   46.2360   28.8560   45.9710 H   0  0  0  0  0  0  0  0  0  0  0  0
  1  7  1  0  0  0  0
  1  6  1  0  0  0  0
  2  1  2  0  0  0  0
  3  2  1  0  0  0  0
  3  4  2  0  0  0  0
  4  5  1  0  0  0  0
  5  6  2  0  0  0  0
  8  2  1  0  0  0  0
  9  3  1  0  0  0  0
 10  9  1  0  0  0  0
 10 17  1  0  0  0  0
 11 10  2  0  0  0  0
 12 14  1  0  0  0  0
 12 11  1  0  0  0  0
 13 12  2  0  0  0  0
 14 15  1  0  0  0  0
 15 16  2  0  0  0  0
 15  9  1  0  0  0  0
 18 11  1  0  0  0  0
 19 14  1  0  0  0  0
 20 28  1  6  0  0  0
 20 21  1  0  0  0  0
 20 27  1  0  0  0  0
 21  5  1  6  0  0  0
 21 22  1  0  0  0  0
 22 24  1  0  0  0  0
 23 22  1  0  0  0  0
 24 25  1  0  0  0  0
 25 26  1  0  0  0  0
 27 30  1  6  0  0  0
 27 25  1  0  0  0  0
 28 29  1  0  0  0  0
 31 30  1  0  0  0  0
M  END
>  <minimizedAffinity>
-6.56026793

>  <minimizedRMSD>
1.11315846

$$$$
