
 OpenBabel03242518423D

 22 23  0  0  1  0  0  0  0  0999 V2000
   45.6620   32.8210   47.8970 C   0  0  2  0  0  0  0  0  0  0  0  0
   46.6960   32.8130   46.8320 C   0  0  1  0  0  0  0  0  0  0  0  0
   47.0180   31.3830   46.3830 C   0  0  0  0  0  0  0  0  0  0  0  0
   47.9030   31.3650   45.7320 H   0  0  0  0  0  0  0  0  0  0  0  0
   47.3800   30.7300   47.5700 O   0  0  0  0  0  0  0  0  0  0  0  0
   46.2920   30.4790   48.3870 C   0  0  0  0  0  0  0  0  0  0  0  0
   46.6440   30.6200   49.4320 H   0  0  0  0  0  0  0  0  0  0  0  0
   45.1270   31.4130   48.1340 C   0  0  1  0  0  0  0  0  0  0  0  0
   44.8360   34.9770   44.5090 C   0  0  0  0  0  0  0  0  0  0  0  0
   45.5230   34.8310   43.2860 C   0  0  0  0  0  0  0  0  0  0  0  0
   46.6460   33.9650   43.2870 C   0  0  0  0  0  0  0  0  0  0  0  0
   46.9830   33.3420   44.4490 N   0  0  0  0  0  0  0  0  0  0  0  0
   46.2920   33.5170   45.5820 C   0  0  0  0  0  0  0  0  0  0  0  0
   45.2180   34.3370   45.6090 N   0  0  0  0  0  0  0  0  0  0  0  0
   45.2690   35.3140   42.3710 H   0  0  0  0  0  0  0  0  0  0  0  0
   47.2180   33.8130   42.3720 H   0  0  0  0  0  0  0  0  0  0  0  0
   43.7530   35.8100   44.5100 O   0  0  0  0  0  0  0  0  0  0  0  0
   43.6610   36.4900   45.2760 H   0  0  0  0  0  0  0  0  0  0  0  0
   44.6050   33.6920   47.6770 O   0  0  0  0  0  0  0  0  0  0  0  0
   44.3940   34.2260   48.5030 H   0  0  0  0  0  0  0  0  0  0  0  0
   44.3040   31.4810   49.2540 O   0  0  0  0  0  0  0  0  0  0  0  0
   43.9330   32.3790   49.4270 H   0  0  0  0  0  0  0  0  0  0  0  0
  1 19  1  6  0  0  0
  1  8  1  0  0  0  0
  2 13  1  6  0  0  0
  2  1  1  0  0  0  0
  3  2  1  0  0  0  0
  3  5  1  0  0  0  0
  4  3  1  0  0  0  0
  5  6  1  0  0  0  0
  6  7  1  0  0  0  0
  8  6  1  0  0  0  0
  8 21  1  1  0  0  0
  9 17  1  0  0  0  0
  9 14  1  0  0  0  0
 10 11  1  0  0  0  0
 10  9  2  0  0  0  0
 11 12  2  0  0  0  0
 12 13  1  0  0  0  0
 13 14  2  0  0  0  0
 15 10  1  0  0  0  0
 16 11  1  0  0  0  0
 17 18  1  0  0  0  0
 19 20  1  0  0  0  0
 21 22  1  0  0  0  0
M  END
>  <minimizedAffinity>
-5.91200161

>  <minimizedRMSD>
1.92161763

$$$$
