
 OpenBabel03242523463D

 22 23  0  0  1  0  0  0  0  0999 V2000
   47.9670   33.1890   41.4640 C   0  0  1  0  0  3  0  0  0  0  0  0
   47.8960   34.5220   42.1400 C   0  0  2  0  0  3  0  0  0  0  0  0
   49.2110   34.9430   42.7740 C   0  0  0  0  0  3  0  0  0  0  0  0
   49.2910   36.0420   42.6400 H   0  0  0  0  0  0  0  0  0  0  0  0
   50.3140   34.3970   42.1460 O   0  0  0  0  0  0  0  0  0  0  0  0
   50.3620   33.0110   42.2400 C   0  0  0  0  0  3  0  0  0  0  0  0
   50.9990   32.6480   41.4030 H   0  0  0  0  0  0  0  0  0  0  0  0
   49.0260   32.3490   42.1350 C   0  0  2  0  0  3  0  0  0  0  0  0
   44.8640   35.0870   44.3050 C   0  0  0  0  0  0  0  0  0  0  0  0
   45.7530   35.2230   43.2260 C   0  0  0  0  0  0  0  0  0  0  0  0
   46.9220   34.4220   43.2520 C   0  0  0  0  0  0  0  0  0  0  0  0
   47.1140   33.5830   44.2970 N   0  0  0  0  0  0  0  0  0  0  0  0
   46.2310   33.4900   45.3090 C   0  0  0  0  0  0  0  0  0  0  0  0
   45.1160   34.2310   45.3170 N   0  0  0  0  0  0  0  0  0  0  0  0
   45.5730   35.9010   42.4050 H   0  0  0  0  0  0  0  0  0  0  0  0
   46.3530   32.8270   46.1660 H   0  0  0  0  0  0  0  0  0  0  0  0
   43.7340   35.8590   44.2850 O   0  0  0  0  0  0  0  0  0  0  0  0
   43.8110   36.8320   44.5530 H   0  0  0  0  0  0  0  0  0  0  0  0
   46.7410   32.5200   41.6740 O   0  0  0  0  0  0  0  0  0  0  0  0
   46.5850   31.7820   41.0640 H   0  0  0  0  0  0  0  0  0  0  0  0
   49.1480   31.1670   41.4070 O   0  0  0  0  0  0  0  0  0  0  0  0
   48.3140   30.7090   41.2180 H   0  0  0  0  0  0  0  0  0  0  0  0
  1 19  1  1  0  0  0
  1  8  1  0  0  0  0
  1  2  1  0  0  0  0
  2  3  1  0  0  0  0
  2 11  1  1  0  0  0
  4  3  1  0  0  0  0
  5  6  1  0  0  0  0
  5  3  1  0  0  0  0
  7  6  1  0  0  0  0
  8 21  1  6  0  0  0
  8  6  1  0  0  0  0
  9 14  1  0  0  0  0
 10 11  1  0  0  0  0
 10  9  2  0  0  0  0
 11 12  2  0  0  0  0
 12 13  1  0  0  0  0
 13 14  2  0  0  0  0
 13 16  1  0  0  0  0
 15 10  1  0  0  0  0
 17  9  1  0  0  0  0
 17 18  1  0  0  0  0
 20 19  1  0  0  0  0
 22 21  1  0  0  0  0
M  END
>  <minimizedAffinity>
-4.72105455

>  <minimizedRMSD>
1.74672854

$$$$
