
 OpenBabel03252504323D

 43 45  0  0  1  0  0  0  0  0999 V2000
   41.5080   35.5990   41.2470 C   0  0  0  0  0  0  0  0  0  0  0  0
   41.4030   35.5880   42.3620 H   0  0  0  0  0  0  0  0  0  0  0  0
   40.9460   36.4870   40.8950 H   0  0  0  0  0  0  0  0  0  0  0  0
   40.8640   33.2720   41.6460 C   0  0  0  0  0  0  0  0  0  0  0  0
   40.7130   34.4030   40.8110 C   0  0  0  0  0  0  0  0  0  0  0  0
   39.8870   34.2800   39.7400 C   0  0  0  0  0  0  0  0  0  0  0  0
   39.2890   33.1130   39.5610 N   0  0  0  0  0  0  0  0  0  0  0  0
   39.4270   32.0560   40.3380 C   0  0  0  0  0  0  0  0  0  0  0  0
   40.2550   32.1010   41.4540 N   0  0  0  0  0  0  0  0  0  0  0  0
   41.5050   33.2930   42.5180 H   0  0  0  0  0  0  0  0  0  0  0  0
   39.8110   35.1770   39.1390 H   0  0  0  0  0  0  0  0  0  0  0  0
   39.0190   30.2790   38.6830 C   0  0  1  0  0  3  0  0  0  0  0  0
   38.7170   30.7730   40.0690 C   0  0  1  0  0  3  0  0  0  0  0  0
   39.1010   29.7140   41.0920 C   0  0  0  0  0  3  0  0  0  0  0  0
   38.6440   29.9580   42.0890 H   0  0  0  0  0  0  0  0  0  0  0  0
   38.7360   28.4490   40.6820 O   0  0  0  0  0  0  0  0  0  0  0  0
   39.6020   28.0570   39.6830 C   0  0  0  0  0  3  0  0  0  0  0  0
   40.5010   27.6170   40.1780 H   0  0  0  0  0  0  0  0  0  0  0  0
   39.9900   29.1360   38.7290 C   0  0  2  0  0  3  0  0  0  0  0  0
   37.8620   29.9470   37.9740 O   0  0  0  0  0  0  0  0  0  0  0  0
   37.1890   29.4880   38.5070 H   0  0  0  0  0  0  0  0  0  0  0  0
   41.2460   29.6650   39.1060 O   0  0  0  0  0  0  0  0  0  0  0  0
   41.6220   30.1510   38.3200 H   0  0  0  0  0  0  0  0  0  0  0  0
   42.7740   35.5970   40.7400 O   0  0  0  0  0  0  0  0  0  0  0  0
   43.9740   35.5400   41.4310 C   0  0  0  0  0  3  0  0  0  0  0  0
   43.8810   35.4920   42.7550 C   0  0  0  0  0  3  0  0  0  0  0  0
   45.0460   35.4230   43.7250 C   0  0  0  0  0  0  0  0  0  0  0  0
   45.0610   36.3210   44.3670 H   0  0  0  0  0  0  0  0  0  0  0  0
   45.9500   35.3940   43.0780 H   0  0  0  0  0  0  0  0  0  0  0  0
   44.9270   34.2370   44.4240 O   0  0  0  0  0  0  0  0  0  0  0  0
   45.8940   32.7180   42.4630 O   0  0  0  0  0  0  0  0  0  0  0  0
   46.0800   33.1220   43.9070 P   0  0  1  0  0  0  0  0  0  0  0  0
   47.6430   33.7950   44.0320 O   0  0  0  0  0  0  0  0  0  0  0  0
   47.7790   33.9550   45.0000 H   0  0  0  0  0  0  0  0  0  0  0  0
   46.0540   31.7550   44.8970 O   0  0  0  0  0  0  0  0  0  0  0  0
   46.2950   32.0600   46.2180 C   0  0  0  0  0  0  0  0  0  0  0  0
   47.2130   31.1870   47.0160 C   0  0  0  0  0  0  0  0  0  0  0  0
   45.7190   31.1000   47.2290 C   0  0  0  0  0  0  0  0  0  0  0  0
   46.2590   33.1340   46.4630 H   0  0  0  0  0  0  0  0  0  0  0  0
   47.7430   30.3720   46.5000 H   0  0  0  0  0  0  0  0  0  0  0  0
   47.7480   31.6950   47.8400 H   0  0  0  0  0  0  0  0  0  0  0  0
   45.2840   31.4930   48.1800 H   0  0  0  0  0  0  0  0  0  0  0  0
   45.2840   30.1410   46.8660 H   0  0  0  0  0  0  0  0  0  0  0  0
  1  2  1  0  0  0  0
  3  1  1  0  0  0  0
  4 10  1  0  0  0  0
  5  1  1  0  0  0  0
  5  4  2  0  0  0  0
  6  5  1  0  0  0  0
  7  6  2  0  0  0  0
  7  8  1  0  0  0  0
  8  9  2  0  0  0  0
  9  4  1  0  0  0  0
 11  6  1  0  0  0  0
 12 20  1  1  0  0  0
 12 19  1  0  0  0  0
 12 13  1  0  0  0  0
 13  8  1  1  0  0  0
 13 14  1  0  0  0  0
 14 15  1  0  0  0  0
 16 14  1  0  0  0  0
 17 18  1  0  0  0  0
 17 16  1  0  0  0  0
 19 22  1  1  0  0  0
 19 17  1  0  0  0  0
 20 21  1  0  0  0  0
 23 22  1  0  0  0  0
 24  1  1  0  0  0  0
 24 25  1  0  0  0  0
 25 26  2  0  0  0  0
 26 27  1  0  0  0  0
 27 28  1  0  0  0  0
 27 30  1  0  0  0  0
 29 27  1  0  0  0  0
 32 31  2  6  0  0  0
 32 33  1  0  0  0  0
 32 30  1  0  0  0  0
 32 35  1  0  0  0  0
 33 34  1  0  0  0  0
 35 36  1  0  0  0  0
 36 39  1  0  0  0  0
 36 37  1  0  0  0  0
 36 38  1  0  0  0  0
 37 38  1  0  0  0  0
 37 41  1  0  0  0  0
 38 42  1  0  0  0  0
 40 37  1  0  0  0  0
 43 38  1  0  0  0  0
M  END
>  <minimizedAffinity>
-4.18487597

>  <minimizedRMSD>
1.3813045

$$$$
