
 OpenBabel03242523373D

 22 23  0  0  1  0  0  0  0  0999 V2000
   46.9230   32.0520   47.4430 C   0  0  2  0  0  3  0  0  0  0  0  0
   46.8350   31.6130   46.0030 C   0  0  1  0  0  3  0  0  0  0  0  0
   45.8280   30.5100   45.8870 C   0  0  0  0  0  3  0  0  0  0  0  0
   44.7920   30.9100   45.7090 H   0  0  0  0  0  0  0  0  0  0  0  0
   45.8090   29.8370   47.1240 O   0  0  0  0  0  0  0  0  0  0  0  0
   44.9810   30.5840   47.9810 C   0  0  0  0  0  3  0  0  0  0  0  0
   44.8620   30.0170   48.9290 H   0  0  0  0  0  0  0  0  0  0  0  0
   45.5990   31.9410   48.1820 C   0  0  1  0  0  3  0  0  0  0  0  0
   45.1900   34.4600   44.2700 C   0  0  0  0  0  0  0  0  0  0  0  0
   46.1930   34.8550   43.3410 C   0  0  0  0  0  0  0  0  0  0  0  0
   47.3960   34.1380   43.3370 C   0  0  0  0  0  0  0  0  0  0  0  0
   47.5400   33.1070   44.2160 N   0  0  0  0  0  0  0  0  0  0  0  0
   46.5560   32.7610   45.0890 C   0  0  0  0  0  0  0  0  0  0  0  0
   45.3990   33.4250   45.1170 N   0  0  0  0  0  0  0  0  0  0  0  0
   44.2670   35.0230   44.2620 H   0  0  0  0  0  0  0  0  0  0  0  0
   46.0120   35.6850   42.6690 H   0  0  0  0  0  0  0  0  0  0  0  0
   48.6920   34.5850   42.1950 S   0  0  0  0  0  0  0  0  0  0  0  0
   48.8070   35.9860   42.1630 H   0  0  0  0  0  0  0  0  0  0  0  0
   47.4300   33.3220   47.5800 O   0  0  0  0  0  0  0  0  0  0  0  0
   47.0660   33.9890   46.9500 H   0  0  0  0  0  0  0  0  0  0  0  0
   45.9060   32.0710   49.5470 O   0  0  0  0  0  0  0  0  0  0  0  0
   46.6870   32.6880   49.6380 H   0  0  0  0  0  0  0  0  0  0  0  0
  1 19  1  6  0  0  0
  1  8  1  0  0  0  0
  2 13  1  6  0  0  0
  2  1  1  0  0  0  0
  3  2  1  0  0  0  0
  3  5  1  0  0  0  0
  4  3  1  0  0  0  0
  5  6  1  0  0  0  0
  6  8  1  0  0  0  0
  6  7  1  0  0  0  0
  8 21  1  1  0  0  0
  9 14  1  0  0  0  0
 10  9  2  0  0  0  0
 11 10  1  0  0  0  0
 11 12  2  0  0  0  0
 12 13  1  0  0  0  0
 13 14  2  0  0  0  0
 15  9  1  0  0  0  0
 16 10  1  0  0  0  0
 17 11  1  0  0  0  0
 18 17  1  0  0  0  0
 20 19  1  0  0  0  0
 21 22  1  0  0  0  0
M  END
>  <minimizedAffinity>
-5.03837347

>  <minimizedRMSD>
2.06319046

$$$$
