
 OpenBabel03252501453D

 26 27  0  0  1  0  0  0  0  0999 V2000
   44.3690   35.6680   42.9270 C   0  0  0  0  0  0  0  0  0  0  0  0
   43.5790   34.8930   42.0790 C   0  0  0  0  0  0  0  0  0  0  0  0
   43.7690   33.5230   42.0650 C   0  0  0  0  0  0  0  0  0  0  0  0
   44.7230   32.9900   42.8860 N   0  0  0  0  0  0  0  0  0  0  0  0
   45.4760   33.7710   43.7020 C   0  0  0  0  0  0  0  0  0  0  0  0
   45.2830   35.0850   43.7040 N   0  0  0  0  0  0  0  0  0  0  0  0
   44.2180   36.7500   42.9360 H   0  0  0  0  0  0  0  0  0  0  0  0
   43.1950   32.8320   41.4320 H   0  0  0  0  0  0  0  0  0  0  0  0
   47.8490   33.1610   43.9320 C   0  0  1  0  0  3  0  0  0  0  0  0
   46.5050   33.1150   44.5740 C   0  0  2  0  0  3  0  0  0  0  0  0
   46.0480   31.7350   44.9780 C   0  0  0  0  0  3  0  0  0  0  0  0
   45.0300   31.5610   44.5580 H   0  0  0  0  0  0  0  0  0  0  0  0
   46.9370   30.7510   44.6050 O   0  0  0  0  0  0  0  0  0  0  0  0
   47.2310   30.8120   43.2390 C   0  0  0  0  0  3  0  0  0  0  0  0
   46.2890   30.7310   42.6610 H   0  0  0  0  0  0  0  0  0  0  0  0
   48.0090   32.0630   42.9200 C   0  0  1  0  0  3  0  0  0  0  0  0
   47.9730   34.3810   43.2790 O   0  0  0  0  0  0  0  0  0  0  0  0
   48.3270   35.1120   43.8210 H   0  0  0  0  0  0  0  0  0  0  0  0
   47.5730   32.5660   41.6840 O   0  0  0  0  0  0  0  0  0  0  0  0
   48.1980   32.2770   40.9750 H   0  0  0  0  0  0  0  0  0  0  0  0
   42.5620   35.4770   41.2060 C   0  0  0  0  0  3  0  0  0  0  0  0
   41.2810   35.5780   41.4610 C   0  0  0  0  0  3  0  0  0  0  0  0
   40.3210   36.2020   40.4810 C   0  0  0  0  0  0  0  0  0  0  0  0
   39.2940   35.9040   40.6760 H   0  0  0  0  0  0  0  0  0  0  0  0
   40.4280   37.2960   40.6240 H   0  0  0  0  0  0  0  0  0  0  0  0
   40.7110   35.9640   39.4720 H   0  0  0  0  0  0  0  0  0  0  0  0
  1  7  1  0  0  0  0
  1  6  1  0  0  0  0
  2  1  2  0  0  0  0
  3  2  1  0  0  0  0
  3  4  2  0  0  0  0
  4  5  1  0  0  0  0
  5  6  2  0  0  0  0
  8  3  1  0  0  0  0
  9 17  1  6  0  0  0
  9 10  1  0  0  0  0
 10  5  1  6  0  0  0
 10 11  1  0  0  0  0
 12 11  1  0  0  0  0
 13 11  1  0  0  0  0
 14 13  1  0  0  0  0
 15 14  1  0  0  0  0
 16 19  1  6  0  0  0
 16 14  1  0  0  0  0
 16  9  1  0  0  0  0
 17 18  1  0  0  0  0
 20 19  1  0  0  0  0
 21 22  2  0  0  0  0
 21  2  1  0  0  0  0
 23 25  1  0  0  0  0
 23 24  1  0  0  0  0
 23 22  1  0  0  0  0
 26 23  1  0  0  0  0
M  END
>  <minimizedAffinity>
-4.26438284

>  <minimizedRMSD>
2.75470185

$$$$
