
 OpenBabel03242523463D

 22 23  0  0  1  0  0  0  0  0999 V2000
   48.4710   33.7670   42.2770 C   0  0  1  0  0  3  0  0  0  0  0  0
   47.2920   32.8770   42.5230 C   0  0  2  0  0  3  0  0  0  0  0  0
   46.3270   32.8220   41.3540 C   0  0  0  0  0  3  0  0  0  0  0  0
   45.9410   31.7820   41.3080 H   0  0  0  0  0  0  0  0  0  0  0  0
   46.9370   33.0600   40.1370 O   0  0  0  0  0  0  0  0  0  0  0  0
   47.4650   34.3430   40.0350 C   0  0  0  0  0  3  0  0  0  0  0  0
   48.2560   34.3100   39.2520 H   0  0  0  0  0  0  0  0  0  0  0  0
   48.0780   34.8470   41.3010 C   0  0  2  0  0  3  0  0  0  0  0  0
   44.7910   34.8640   44.5230 C   0  0  0  0  0  0  0  0  0  0  0  0
   45.4850   34.3660   43.4080 C   0  0  0  0  0  0  0  0  0  0  0  0
   46.5240   33.4360   43.6610 C   0  0  0  0  0  0  0  0  0  0  0  0
   46.7860   33.0830   44.9410 N   0  0  0  0  0  0  0  0  0  0  0  0
   46.0910   33.5890   45.9770 C   0  0  0  0  0  0  0  0  0  0  0  0
   45.1020   34.4700   45.7760 N   0  0  0  0  0  0  0  0  0  0  0  0
   45.2550   34.6660   42.3960 H   0  0  0  0  0  0  0  0  0  0  0  0
   46.2730   33.3280   47.0200 H   0  0  0  0  0  0  0  0  0  0  0  0
   43.7870   35.7630   44.2850 O   0  0  0  0  0  0  0  0  0  0  0  0
   44.0380   36.7250   44.0920 H   0  0  0  0  0  0  0  0  0  0  0  0
   48.7900   34.4220   43.4860 O   0  0  0  0  0  0  0  0  0  0  0  0
   49.6820   34.8040   43.5030 H   0  0  0  0  0  0  0  0  0  0  0  0
   49.2260   35.5810   41.0030 O   0  0  0  0  0  0  0  0  0  0  0  0
   49.7360   35.8800   41.7700 H   0  0  0  0  0  0  0  0  0  0  0  0
  1  2  1  0  0  0  0
  1 19  1  1  0  0  0
  2 11  1  1  0  0  0
  3  2  1  0  0  0  0
  4  3  1  0  0  0  0
  5  3  1  0  0  0  0
  6  5  1  0  0  0  0
  6  8  1  0  0  0  0
  7  6  1  0  0  0  0
  8 21  1  6  0  0  0
  8  1  1  0  0  0  0
  9 14  1  0  0  0  0
 10 11  1  0  0  0  0
 10  9  2  0  0  0  0
 11 12  2  0  0  0  0
 12 13  1  0  0  0  0
 13 16  1  0  0  0  0
 14 13  2  0  0  0  0
 15 10  1  0  0  0  0
 17  9  1  0  0  0  0
 18 17  1  0  0  0  0
 19 20  1  0  0  0  0
 21 22  1  0  0  0  0
M  END
>  <minimizedAffinity>
-5.05875778

>  <minimizedRMSD>
1.14525259

$$$$
