
 OpenBabel03242521133D

 31 33  0  0  1  0  0  0  0  0999 V2000
   44.5340   35.8730   45.0120 C   0  0  0  0  0  0  0  0  0  0  0  0
   45.1510   35.7970   43.7390 C   0  0  0  0  0  0  0  0  0  0  0  0
   45.9210   34.6620   43.4650 C   0  0  0  0  0  0  0  0  0  0  0  0
   46.0280   33.7090   44.4300 N   0  0  0  0  0  0  0  0  0  0  0  0
   45.4360   33.8050   45.6230 C   0  0  0  0  0  0  0  0  0  0  0  0
   44.6760   34.8980   45.9260 N   0  0  0  0  0  0  0  0  0  0  0  0
   43.9340   36.7660   45.2120 H   0  0  0  0  0  0  0  0  0  0  0  0
   45.0110   36.6030   43.0310 H   0  0  0  0  0  0  0  0  0  0  0  0
   46.5490   34.5700   42.1870 N   0  0  0  0  0  0  0  0  0  0  0  0
   47.8040   35.0490   42.0760 C   0  0  0  0  0  0  0  0  0  0  0  0
   48.4340   34.9690   40.8380 C   0  0  0  0  0  0  0  0  0  0  0  0
   47.7410   34.4080   39.8020 C   0  0  0  0  0  0  0  0  0  0  0  0
   48.3200   34.3360   38.6680 O   0  0  0  0  0  0  0  0  0  0  0  0
   46.4830   33.9260   39.9040 N   0  0  0  0  0  0  0  0  0  0  0  0
   45.9290   34.0340   41.1310 C   0  0  0  0  0  0  0  0  0  0  0  0
   44.7660   33.6190   41.3410 O   0  0  0  0  0  0  0  0  0  0  0  0
   48.3490   35.4940   42.9080 H   0  0  0  0  0  0  0  0  0  0  0  0
   49.4440   35.3520   40.7400 H   0  0  0  0  0  0  0  0  0  0  0  0
   45.9710   33.4980   39.0900 H   0  0  0  0  0  0  0  0  0  0  0  0
   47.0450   32.4740   46.9580 C   0  0  1  0  0  3  0  0  0  0  0  0
   45.5890   32.7300   46.6420 C   0  0  2  0  0  3  0  0  0  0  0  0
   44.8720   31.5110   46.1520 C   0  0  0  0  0  3  0  0  0  0  0  0
   44.1290   31.8030   45.3850 H   0  0  0  0  0  0  0  0  0  0  0  0
   45.7740   30.6430   45.5640 O   0  0  0  0  0  0  0  0  0  0  0  0
   46.6170   30.0500   46.5010 C   0  0  0  0  0  3  0  0  0  0  0  0
   45.9970   29.3180   47.0690 H   0  0  0  0  0  0  0  0  0  0  0  0
   47.1660   31.0600   47.4740 C   0  0  1  0  0  3  0  0  0  0  0  0
   47.8530   32.6930   45.8490 O   0  0  0  0  0  0  0  0  0  0  0  0
   47.6370   32.0010   45.1740 H   0  0  0  0  0  0  0  0  0  0  0  0
   48.5080   30.7890   47.6710 O   0  0  0  0  0  0  0  0  0  0  0  0
   49.0640   31.6080   47.6110 H   0  0  0  0  0  0  0  0  0  0  0  0
  1  7  1  0  0  0  0
  1  6  1  0  0  0  0
  2  1  2  0  0  0  0
  3  2  1  0  0  0  0
  3  4  2  0  0  0  0
  4  5  1  0  0  0  0
  5  6  2  0  0  0  0
  8  2  1  0  0  0  0
  9  3  1  0  0  0  0
 10  9  1  0  0  0  0
 10 17  1  0  0  0  0
 11 10  2  0  0  0  0
 12 14  1  0  0  0  0
 12 11  1  0  0  0  0
 13 12  2  0  0  0  0
 14 15  1  0  0  0  0
 15 16  2  0  0  0  0
 15  9  1  0  0  0  0
 18 11  1  0  0  0  0
 19 14  1  0  0  0  0
 20 28  1  6  0  0  0
 20 27  1  0  0  0  0
 21  5  1  6  0  0  0
 21 20  1  0  0  0  0
 22 21  1  0  0  0  0
 23 22  1  0  0  0  0
 24 22  1  0  0  0  0
 24 25  1  0  0  0  0
 25 26  1  0  0  0  0
 25 27  1  0  0  0  0
 27 30  1  6  0  0  0
 29 28  1  0  0  0  0
 31 30  1  0  0  0  0
M  END
>  <minimizedAffinity>
-4.61542177

>  <minimizedRMSD>
0.261847466

$$$$
