
 OpenBabel03252507383D

 41 45  0  0  1  0  0  0  0  0999 V2000
   45.6460   34.7890   43.4960 C   0  0  0  0  0  0  0  0  0  0  0  0
   46.3480   33.7170   44.1040 C   0  0  0  0  0  0  0  0  0  0  0  0
   46.1030   33.4920   45.4570 C   0  0  0  0  0  0  0  0  0  0  0  0
   45.2430   34.2720   46.1070 N   0  0  0  0  0  0  0  0  0  0  0  0
   44.5830   35.2920   45.5060 C   0  0  0  0  0  0  0  0  0  0  0  0
   44.7870   35.5410   44.2170 N   0  0  0  0  0  0  0  0  0  0  0  0
   47.0350   33.0900   43.5990 H   0  0  0  0  0  0  0  0  0  0  0  0
   43.9040   35.8670   46.1240 H   0  0  0  0  0  0  0  0  0  0  0  0
   47.0060   32.6660   47.5590 C   0  0  0  0  0  0  0  0  0  0  0  0
   46.7640   32.4150   46.2070 C   0  0  0  0  0  0  0  0  0  0  0  0
   47.1480   31.2220   45.6880 C   0  0  0  0  0  0  0  0  0  0  0  0
   47.7680   30.2410   46.4350 C   0  0  0  0  0  0  0  0  0  0  0  0
   48.2230   29.0080   46.1250 N   0  0  0  0  0  0  0  0  0  0  0  0
   48.7580   28.4720   47.2880 C   0  0  0  0  0  0  0  0  0  0  0  0
   48.6140   29.3930   48.2740 N   0  0  0  0  0  0  0  0  0  0  0  0
   48.0150   30.4660   47.7610 C   0  0  0  0  0  0  0  0  0  0  0  0
   47.6370   31.6700   48.3190 C   0  0  0  0  0  0  0  0  0  0  0  0
   46.7520   33.5780   48.1020 H   0  0  0  0  0  0  0  0  0  0  0  0
   46.9440   31.0650   44.6400 H   0  0  0  0  0  0  0  0  0  0  0  0
   48.1930   28.5210   45.1970 H   0  0  0  0  0  0  0  0  0  0  0  0
   49.2030   27.4880   47.3540 H   0  0  0  0  0  0  0  0  0  0  0  0
   47.8500   31.8090   49.3720 H   0  0  0  0  0  0  0  0  0  0  0  0
   45.8830   35.0240   42.1410 O   0  0  0  0  0  0  0  0  0  0  0  0
   44.8840   34.7650   41.2090 C   0  0  0  0  0  0  0  0  0  0  0  0
   45.4420   33.7690   40.4990 C   0  0  0  0  0  0  0  0  0  0  0  0
   44.0860   33.3970   39.2160 S   0  0  0  0  0  0  0  0  0  0  0  0
   43.0170   34.7560   39.9860 C   0  0  0  0  0  0  0  0  0  0  0  0
   43.6830   35.1040   40.7920 N   0  0  0  0  0  0  0  0  0  0  0  0
   46.2950   33.0170   40.2430 H   0  0  0  0  0  0  0  0  0  0  0  0
   40.9910   33.8040   39.1410 C   0  0  1  0  0  3  0  0  0  0  0  0
   41.6710   35.0870   39.4650 C   0  0  1  0  0  3  0  0  0  0  0  0
   40.9200   35.8080   40.5640 C   0  0  0  0  0  3  0  0  0  0  0  0
   40.7770   36.8850   40.3400 H   0  0  0  0  0  0  0  0  0  0  0  0
   39.6650   35.2250   40.7910 O   0  0  0  0  0  0  0  0  0  0  0  0
   39.8350   33.9430   41.3150 C   0  0  0  0  0  3  0  0  0  0  0  0
   38.8000   33.5470   41.4470 H   0  0  0  0  0  0  0  0  0  0  0  0
   40.5850   33.0590   40.3690 C   0  0  1  0  0  3  0  0  0  0  0  0
   39.8790   34.0380   38.3050 O   0  0  0  0  0  0  0  0  0  0  0  0
   39.6350   33.2090   37.8140 H   0  0  0  0  0  0  0  0  0  0  0  0
   39.8010   31.9740   39.9550 O   0  0  0  0  0  0  0  0  0  0  0  0
   38.8440   32.2410   40.0960 H   0  0  0  0  0  0  0  0  0  0  0  0
  1  2  2  0  0  0  0
  1  6  1  0  0  0  0
  2  3  1  0  0  0  0
  3  4  2  0  0  0  0
  3 10  1  0  0  0  0
  5  4  1  0  0  0  0
  5  8  1  0  0  0  0
  6  5  2  0  0  0  0
  7  2  1  0  0  0  0
  9 18  1  0  0  0  0
  9 17  1  0  0  0  0
 10  9  2  0  0  0  0
 11 10  1  0  0  0  0
 11 12  2  0  0  0  0
 12 16  1  0  0  0  0
 13 12  1  0  0  0  0
 13 14  1  0  0  0  0
 14 21  1  0  0  0  0
 14 15  2  0  0  0  0
 16 15  1  0  0  0  0
 16 17  2  0  0  0  0
 17 22  1  0  0  0  0
 19 11  1  0  0  0  0
 20 13  1  0  0  0  0
 23  1  1  0  0  0  0
 24 23  1  0  0  0  0
 25 24  2  0  0  0  0
 26 27  1  0  0  0  0
 26 25  1  0  0  0  0
 27 28  2  0  0  0  0
 28 24  1  0  0  0  0
 29 25  1  0  0  0  0
 30 38  1  6  0  0  0
 30 31  1  0  0  0  0
 30 37  1  0  0  0  0
 31 27  1  1  0  0  0
 31 32  1  0  0  0  0
 32 34  1  0  0  0  0
 33 32  1  0  0  0  0
 34 35  1  0  0  0  0
 35 36  1  0  0  0  0
 37 40  1  6  0  0  0
 37 35  1  0  0  0  0
 39 38  1  0  0  0  0
 40 41  1  0  0  0  0
M  END
>  <minimizedAffinity>
-6.81198025

>  <minimizedRMSD>
0.446038663

$$$$
