
 OpenBabel03242523463D

 22 23  0  0  1  0  0  0  0  0999 V2000
   48.5180   33.8010   42.1850 C   0  0  1  0  0  3  0  0  0  0  0  0
   47.3590   32.8900   42.4450 C   0  0  2  0  0  3  0  0  0  0  0  0
   46.4150   32.7680   41.2620 C   0  0  0  0  0  3  0  0  0  0  0  0
   46.0570   31.7170   41.2490 H   0  0  0  0  0  0  0  0  0  0  0  0
   47.0400   32.9790   40.0480 O   0  0  0  0  0  0  0  0  0  0  0  0
   47.5340   34.2700   39.9080 C   0  0  0  0  0  3  0  0  0  0  0  0
   48.3410   34.2300   39.1410 H   0  0  0  0  0  0  0  0  0  0  0  0
   48.1130   34.8360   41.1650 C   0  0  2  0  0  3  0  0  0  0  0  0
   44.7980   34.9080   44.3340 C   0  0  0  0  0  0  0  0  0  0  0  0
   45.5260   34.3920   43.2490 C   0  0  0  0  0  0  0  0  0  0  0  0
   46.5570   33.4680   43.5490 C   0  0  0  0  0  0  0  0  0  0  0  0
   46.7800   33.1360   44.8420 N   0  0  0  0  0  0  0  0  0  0  0  0
   46.0540   33.6590   45.8480 C   0  0  0  0  0  0  0  0  0  0  0  0
   45.0710   34.5350   45.6020 N   0  0  0  0  0  0  0  0  0  0  0  0
   45.3260   34.6750   42.2260 H   0  0  0  0  0  0  0  0  0  0  0  0
   46.2050   33.4160   46.9000 H   0  0  0  0  0  0  0  0  0  0  0  0
   43.8010   35.8020   44.0500 O   0  0  0  0  0  0  0  0  0  0  0  0
   44.0580   36.7600   43.8490 H   0  0  0  0  0  0  0  0  0  0  0  0
   48.8000   34.5080   43.3750 O   0  0  0  0  0  0  0  0  0  0  0  0
   49.6810   34.9130   43.3920 H   0  0  0  0  0  0  0  0  0  0  0  0
   49.2470   35.5880   40.8590 O   0  0  0  0  0  0  0  0  0  0  0  0
   49.7350   35.9290   41.6230 H   0  0  0  0  0  0  0  0  0  0  0  0
  1  2  1  0  0  0  0
  1 19  1  1  0  0  0
  2 11  1  1  0  0  0
  3  2  1  0  0  0  0
  4  3  1  0  0  0  0
  5  3  1  0  0  0  0
  6  5  1  0  0  0  0
  6  8  1  0  0  0  0
  7  6  1  0  0  0  0
  8 21  1  6  0  0  0
  8  1  1  0  0  0  0
  9 14  1  0  0  0  0
 10 11  1  0  0  0  0
 10  9  2  0  0  0  0
 11 12  2  0  0  0  0
 12 13  1  0  0  0  0
 13 16  1  0  0  0  0
 14 13  2  0  0  0  0
 15 10  1  0  0  0  0
 17  9  1  0  0  0  0
 18 17  1  0  0  0  0
 19 20  1  0  0  0  0
 21 22  1  0  0  0  0
M  END
>  <minimizedAffinity>
-5.08925295

>  <minimizedRMSD>
1.64333284

$$$$
