
 OpenBabel03252501453D

 26 27  0  0  1  0  0  0  0  0999 V2000
   44.2180   35.5100   43.0710 C   0  0  0  0  0  0  0  0  0  0  0  0
   43.4920   34.8220   42.0990 C   0  0  0  0  0  0  0  0  0  0  0  0
   43.7200   33.4670   41.9380 C   0  0  0  0  0  0  0  0  0  0  0  0
   44.6460   32.8630   42.7400 N   0  0  0  0  0  0  0  0  0  0  0  0
   45.3370   33.5600   43.6780 C   0  0  0  0  0  0  0  0  0  0  0  0
   45.1080   34.8600   43.8210 N   0  0  0  0  0  0  0  0  0  0  0  0
   44.0370   36.5800   43.1960 H   0  0  0  0  0  0  0  0  0  0  0  0
   43.1970   32.8420   41.2000 H   0  0  0  0  0  0  0  0  0  0  0  0
   47.7150   32.9960   43.9720 C   0  0  1  0  0  3  0  0  0  0  0  0
   46.3400   32.8290   44.5220 C   0  0  2  0  0  3  0  0  0  0  0  0
   45.9130   31.3960   44.7220 C   0  0  0  0  0  3  0  0  0  0  0  0
   44.9270   31.2470   44.2230 H   0  0  0  0  0  0  0  0  0  0  0  0
   46.8560   30.4940   44.2830 O   0  0  0  0  0  0  0  0  0  0  0  0
   47.2240   30.7380   42.9550 C   0  0  0  0  0  3  0  0  0  0  0  0
   46.3200   30.7020   42.3160 H   0  0  0  0  0  0  0  0  0  0  0  0
   47.9720   32.0410   42.8430 C   0  0  1  0  0  3  0  0  0  0  0  0
   47.8300   34.2930   43.4870 O   0  0  0  0  0  0  0  0  0  0  0  0
   48.1250   34.9580   44.1360 H   0  0  0  0  0  0  0  0  0  0  0  0
   47.5860   32.6850   41.6560 O   0  0  0  0  0  0  0  0  0  0  0  0
   48.2590   32.5060   40.9540 H   0  0  0  0  0  0  0  0  0  0  0  0
   42.5040   35.4810   41.2470 C   0  0  0  0  0  3  0  0  0  0  0  0
   41.2160   35.5680   41.4710 C   0  0  0  0  0  3  0  0  0  0  0  0
   40.2880   36.2760   40.5180 C   0  0  0  0  0  0  0  0  0  0  0  0
   39.2550   35.9680   40.6570 H   0  0  0  0  0  0  0  0  0  0  0  0
   40.3940   37.3540   40.7540 H   0  0  0  0  0  0  0  0  0  0  0  0
   40.7070   36.1200   39.5050 H   0  0  0  0  0  0  0  0  0  0  0  0
  1  7  1  0  0  0  0
  1  6  1  0  0  0  0
  2  1  2  0  0  0  0
  3  2  1  0  0  0  0
  3  4  2  0  0  0  0
  4  5  1  0  0  0  0
  5  6  2  0  0  0  0
  8  3  1  0  0  0  0
  9 17  1  6  0  0  0
  9 10  1  0  0  0  0
 10  5  1  6  0  0  0
 10 11  1  0  0  0  0
 12 11  1  0  0  0  0
 13 11  1  0  0  0  0
 14 13  1  0  0  0  0
 15 14  1  0  0  0  0
 16 19  1  6  0  0  0
 16 14  1  0  0  0  0
 16  9  1  0  0  0  0
 17 18  1  0  0  0  0
 20 19  1  0  0  0  0
 21 22  2  0  0  0  0
 21  2  1  0  0  0  0
 23 24  1  0  0  0  0
 23 25  1  0  0  0  0
 23 22  1  0  0  0  0
 26 23  1  0  0  0  0
M  END
>  <minimizedAffinity>
-4.28326368

>  <minimizedRMSD>
2.71112204

$$$$
