
 OpenBabel03252506283D

 50 54  0  0  1  0  0  0  0  0999 V2000
   46.2690   32.8980   45.9710 C   0  0  0  0  0  0  0  0  0  0  0  0
   47.2830   31.9840   45.6350 C   0  0  0  0  0  0  0  0  0  0  0  0
   47.4500   31.1240   46.6630 C   0  0  0  0  0  0  0  0  0  0  0  0
   46.5790   31.4880   47.5990 N   0  0  0  0  0  0  0  0  0  0  0  0
   45.8690   32.5410   47.2040 N   0  0  0  0  0  0  0  0  0  0  0  0
   47.8250   31.9870   44.7050 H   0  0  0  0  0  0  0  0  0  0  0  0
   48.1610   30.3170   46.6820 H   0  0  0  0  0  0  0  0  0  0  0  0
   44.4910   35.8740   44.8220 C   0  0  0  0  0  0  0  0  0  0  0  0
   44.9230   36.0200   43.5160 C   0  0  0  0  0  0  0  0  0  0  0  0
   45.8350   35.0880   43.0240 C   0  0  0  0  0  0  0  0  0  0  0  0
   46.2270   34.1080   43.8680 N   0  0  0  0  0  0  0  0  0  0  0  0
   45.8130   33.9680   45.1170 C   0  0  0  0  0  0  0  0  0  0  0  0
   44.9360   34.8660   45.5890 N   0  0  0  0  0  0  0  0  0  0  0  0
   43.7820   36.6210   45.1630 H   0  0  0  0  0  0  0  0  0  0  0  0
   44.6250   36.7860   42.8350 H   0  0  0  0  0  0  0  0  0  0  0  0
   46.0460   33.8370   40.9000 C   0  0  2  0  0  3  0  0  0  0  0  0
   46.4100   35.0880   41.6400 C   0  0  2  0  0  3  0  0  0  0  0  0
   47.8920   35.3090   41.7750 C   0  0  0  0  0  3  0  0  0  0  0  0
   48.0210   36.3790   42.0530 H   0  0  0  0  0  0  0  0  0  0  0  0
   48.6050   35.0600   40.6230 O   0  0  0  0  0  0  0  0  0  0  0  0
   48.3280   33.8480   40.0430 C   0  0  0  0  0  3  0  0  0  0  0  0
   47.9970   33.9560   38.9790 H   0  0  0  0  0  0  0  0  0  0  0  0
   47.3120   33.0200   40.7580 C   0  0  2  0  0  3  0  0  0  0  0  0
   45.5670   34.1230   39.6310 O   0  0  0  0  0  0  0  0  0  0  0  0
   45.7420   35.0840   39.4510 H   0  0  0  0  0  0  0  0  0  0  0  0
   47.0850   31.8660   40.0150 O   0  0  0  0  0  0  0  0  0  0  0  0
   46.4450   32.0260   39.2630 H   0  0  0  0  0  0  0  0  0  0  0  0
   46.4010   30.8400   48.8920 C   0  0  0  0  0  0  0  0  0  0  0  0
   46.4840   31.6280   49.6650 H   0  0  0  0  0  0  0  0  0  0  0  0
   47.1550   30.0590   49.0390 H   0  0  0  0  0  0  0  0  0  0  0  0
   45.0550   30.2290   48.9970 C   0  0  0  0  0  0  0  0  0  0  0  0
   44.2970   31.0300   48.7660 H   0  0  0  0  0  0  0  0  0  0  0  0
   44.8730   30.0150   50.0880 H   0  0  0  0  0  0  0  0  0  0  0  0
   44.9240   27.7060   48.6400 C   0  0  0  0  0  0  0  0  0  0  0  0
   44.8140   29.0200   48.2390 C   0  0  0  0  0  0  0  0  0  0  0  0
   44.4160   29.2280   46.9220 C   0  0  0  0  0  0  0  0  0  0  0  0
   44.1480   28.1870   46.0720 C   0  0  0  0  0  0  0  0  0  0  0  0
   43.7560   28.0910   44.7800 N   0  0  0  0  0  0  0  0  0  0  0  0
   43.6280   26.8150   44.4000 C   0  0  0  0  0  0  0  0  0  0  0  0
   43.9500   25.9980   45.4840 C   0  0  0  0  0  0  0  0  0  0  0  0
   44.2580   26.8880   46.4690 C   0  0  0  0  0  0  0  0  0  0  0  0
   44.6520   26.6680   47.7740 C   0  0  0  0  0  0  0  0  0  0  0  0
   45.2360   27.5770   49.6720 H   0  0  0  0  0  0  0  0  0  0  0  0
   44.2870   30.2130   46.4700 H   0  0  0  0  0  0  0  0  0  0  0  0
   43.5680   28.9190   44.1410 H   0  0  0  0  0  0  0  0  0  0  0  0
   43.3260   26.4660   43.4150 H   0  0  0  0  0  0  0  0  0  0  0  0
   43.9300   24.9210   45.4480 H   0  0  0  0  0  0  0  0  0  0  0  0
   44.7880   25.2930   48.2660 C   0  0  0  0  0  0  0  0  0  0  0  0
   45.2500   25.0520   49.4080 O   0  0  0  0  0  0  0  0  0  0  0  0
   44.4900   24.4590   47.6430 H   0  0  0  0  0  0  0  0  0  0  0  0
  1  5  2  0  0  0  0
  2  1  1  0  0  0  0
  2  3  2  0  0  0  0
  3  7  1  0  0  0  0
  3  4  1  0  0  0  0
  4 28  1  0  0  0  0
  5  4  1  0  0  0  0
  6  2  1  0  0  0  0
  8 14  1  0  0  0  0
  8 13  1  0  0  0  0
  9  8  2  0  0  0  0
 10  9  1  0  0  0  0
 10 11  2  0  0  0  0
 11 12  1  0  0  0  0
 12 13  2  0  0  0  0
 12  1  1  0  0  0  0
 15  9  1  0  0  0  0
 16 24  1  6  0  0  0
 16 17  1  0  0  0  0
 17 18  1  0  0  0  0
 17 10  1  1  0  0  0
 18 19  1  0  0  0  0
 20 18  1  0  0  0  0
 21 20  1  0  0  0  0
 21 23  1  0  0  0  0
 22 21  1  0  0  0  0
 23 26  1  6  0  0  0
 23 16  1  0  0  0  0
 25 24  1  0  0  0  0
 27 26  1  0  0  0  0
 28 31  1  0  0  0  0
 28 30  1  0  0  0  0
 28 29  1  0  0  0  0
 31 33  1  0  0  0  0
 32 31  1  0  0  0  0
 34 43  1  0  0  0  0
 35 34  1  0  0  0  0
 35 31  1  0  0  0  0
 36 35  2  0  0  0  0
 37 41  2  0  0  0  0
 37 36  1  0  0  0  0
 38 37  1  0  0  0  0
 39 38  1  0  0  0  0
 39 40  2  0  0  0  0
 40 41  1  0  0  0  0
 41 42  1  0  0  0  0
 42 48  1  0  0  0  0
 42 34  2  0  0  0  0
 44 36  1  0  0  0  0
 45 38  1  0  0  0  0
 46 39  1  0  0  0  0
 47 40  1  0  0  0  0
 48 49  2  0  0  0  0
 50 48  1  0  0  0  0
M  END
>  <minimizedAffinity>
-6.37742424

>  <minimizedRMSD>
0.94029671

$$$$
