
 OpenBabel03252504323D

 43 45  0  0  1  0  0  0  0  0999 V2000
   41.2530   35.5790   41.4940 C   0  0  0  0  0  0  0  0  0  0  0  0
   41.2840   35.4310   42.6040 H   0  0  0  0  0  0  0  0  0  0  0  0
   40.7190   36.5370   41.3280 H   0  0  0  0  0  0  0  0  0  0  0  0
   40.4490   33.2800   41.7300 C   0  0  0  0  0  0  0  0  0  0  0  0
   40.3230   34.4990   41.0250 C   0  0  0  0  0  0  0  0  0  0  0  0
   39.3990   34.5490   40.0310 C   0  0  0  0  0  0  0  0  0  0  0  0
   38.6900   33.4560   39.8000 N   0  0  0  0  0  0  0  0  0  0  0  0
   38.8050   32.3170   40.4560 C   0  0  0  0  0  0  0  0  0  0  0  0
   39.7280   32.1840   41.4880 N   0  0  0  0  0  0  0  0  0  0  0  0
   41.1640   33.1630   42.5360 H   0  0  0  0  0  0  0  0  0  0  0  0
   39.3480   35.5060   39.5270 H   0  0  0  0  0  0  0  0  0  0  0  0
   38.7490   30.1290   39.3280 C   0  0  1  0  0  3  0  0  0  0  0  0
   37.9670   31.1270   40.1360 C   0  0  1  0  0  3  0  0  0  0  0  0
   37.4450   30.4710   41.4070 C   0  0  0  0  0  3  0  0  0  0  0  0
   36.6540   31.1190   41.8760 H   0  0  0  0  0  0  0  0  0  0  0  0
   36.9620   29.2020   41.1660 O   0  0  0  0  0  0  0  0  0  0  0  0
   38.0390   28.3670   40.9640 C   0  0  0  0  0  3  0  0  0  0  0  0
   38.3880   28.0250   41.9690 H   0  0  0  0  0  0  0  0  0  0  0  0
   39.1620   28.9660   40.1840 C   0  0  2  0  0  3  0  0  0  0  0  0
   38.0590   29.7140   38.1880 O   0  0  0  0  0  0  0  0  0  0  0  0
   37.1080   29.5690   38.3300 H   0  0  0  0  0  0  0  0  0  0  0  0
   40.1570   29.4310   41.0750 O   0  0  0  0  0  0  0  0  0  0  0  0
   41.0010   29.5450   40.5570 H   0  0  0  0  0  0  0  0  0  0  0  0
   42.4430   35.5690   40.8300 O   0  0  0  0  0  0  0  0  0  0  0  0
   43.7210   35.4860   41.3600 C   0  0  0  0  0  3  0  0  0  0  0  0
   43.8120   35.6210   42.6790 C   0  0  0  0  0  3  0  0  0  0  0  0
   45.0940   35.5660   43.4900 C   0  0  0  0  0  0  0  0  0  0  0  0
   45.3400   36.5690   43.8800 H   0  0  0  0  0  0  0  0  0  0  0  0
   45.8700   35.2300   42.7670 H   0  0  0  0  0  0  0  0  0  0  0  0
   44.9170   34.6110   44.4710 O   0  0  0  0  0  0  0  0  0  0  0  0
   45.6120   32.5280   42.9650 O   0  0  0  0  0  0  0  0  0  0  0  0
   45.9460   33.3000   44.2200 P   0  0  1  0  0  0  0  0  0  0  0  0
   47.5550   33.8430   44.0510 O   0  0  0  0  0  0  0  0  0  0  0  0
   47.7830   34.2530   44.9230 H   0  0  0  0  0  0  0  0  0  0  0  0
   45.9140   32.2700   45.5570 O   0  0  0  0  0  0  0  0  0  0  0  0
   46.1470   32.9370   46.7390 C   0  0  0  0  0  0  0  0  0  0  0  0
   46.9510   32.2710   47.8110 C   0  0  0  0  0  0  0  0  0  0  0  0
   45.4510   32.3800   47.9560 C   0  0  0  0  0  0  0  0  0  0  0  0
   46.2100   34.0340   46.6510 H   0  0  0  0  0  0  0  0  0  0  0  0
   47.4130   31.2950   47.5920 H   0  0  0  0  0  0  0  0  0  0  0  0
   47.5110   32.9560   48.4750 H   0  0  0  0  0  0  0  0  0  0  0  0
   45.0300   33.0770   48.7200 H   0  0  0  0  0  0  0  0  0  0  0  0
   44.9340   31.3980   47.8710 H   0  0  0  0  0  0  0  0  0  0  0  0
  1  2  1  0  0  0  0
  3  1  1  0  0  0  0
  4 10  1  0  0  0  0
  5  1  1  0  0  0  0
  5  4  2  0  0  0  0
  6  5  1  0  0  0  0
  7  6  2  0  0  0  0
  7  8  1  0  0  0  0
  8  9  2  0  0  0  0
  9  4  1  0  0  0  0
 11  6  1  0  0  0  0
 12 20  1  6  0  0  0
 12 13  1  0  0  0  0
 12 19  1  0  0  0  0
 13  8  1  1  0  0  0
 13 14  1  0  0  0  0
 14 15  1  0  0  0  0
 16 14  1  0  0  0  0
 17 16  1  0  0  0  0
 17 18  1  0  0  0  0
 19 17  1  0  0  0  0
 19 22  1  1  0  0  0
 20 21  1  0  0  0  0
 23 22  1  0  0  0  0
 24 25  1  0  0  0  0
 24  1  1  0  0  0  0
 25 26  2  0  0  0  0
 26 27  1  0  0  0  0
 27 28  1  0  0  0  0
 27 30  1  0  0  0  0
 29 27  1  0  0  0  0
 32 31  2  6  0  0  0
 32 30  1  0  0  0  0
 32 35  1  0  0  0  0
 33 32  1  0  0  0  0
 33 34  1  0  0  0  0
 35 36  1  0  0  0  0
 36 37  1  0  0  0  0
 36 38  1  0  0  0  0
 37 38  1  0  0  0  0
 37 41  1  0  0  0  0
 38 42  1  0  0  0  0
 39 36  1  0  0  0  0
 40 37  1  0  0  0  0
 43 38  1  0  0  0  0
M  END
>  <minimizedAffinity>
-5.17904997

>  <minimizedRMSD>
0.676421881

$$$$
