
 OpenBabel03242513103D

 44 48  0  0  1  0  0  0  0  0999 V2000
   37.1500   28.3910   40.1980 C   0  0  0  0  0  0  0  0  0  0  0  0
   37.2090   28.6740   41.5680 C   0  0  0  0  0  0  0  0  0  0  0  0
   37.1420   27.6000   42.4390 C   0  0  0  0  0  0  0  0  0  0  0  0
   37.0230   26.3500   41.8950 N   0  0  0  0  0  0  0  0  0  0  0  0
   36.9670   26.0940   40.5930 C   0  0  0  0  0  0  0  0  0  0  0  0
   37.0310   27.1220   39.7250 N   0  0  0  0  0  0  0  0  0  0  0  0
   37.2000   29.2100   39.5000 H   0  0  0  0  0  0  0  0  0  0  0  0
   35.9280   24.3910   39.1710 C   0  0  0  0  0  0  0  0  0  0  0  0
   36.8400   24.7300   40.1240 C   0  0  0  0  0  0  0  0  0  0  0  0
   37.7110   23.7850   40.7080 C   0  0  0  0  0  0  0  0  0  0  0  0
   37.6530   22.4520   40.3120 C   0  0  0  0  0  0  0  0  0  0  0  0
   38.3100   21.3030   40.6410 N   0  0  0  0  0  0  0  0  0  0  0  0
   37.7750   20.3040   39.8770 C   0  0  0  0  0  0  0  0  0  0  0  0
   36.8050   20.8450   39.0960 N   0  0  0  0  0  0  0  0  0  0  0  0
   36.7120   22.1610   39.3440 C   0  0  0  0  0  0  0  0  0  0  0  0
   35.8510   23.0630   38.7590 C   0  0  0  0  0  0  0  0  0  0  0  0
   35.2780   25.1440   38.7480 H   0  0  0  0  0  0  0  0  0  0  0  0
   38.4410   24.0440   41.4650 H   0  0  0  0  0  0  0  0  0  0  0  0
   39.0690   21.2660   41.3500 H   0  0  0  0  0  0  0  0  0  0  0  0
   38.1150   19.2800   39.9380 H   0  0  0  0  0  0  0  0  0  0  0  0
   35.1350   22.7670   38.0050 H   0  0  0  0  0  0  0  0  0  0  0  0
   37.2000   27.8330   43.9000 C   0  0  0  0  0  0  0  0  0  0  0  0
   36.0430   27.3400   44.5190 F   0  0  0  0  0  0  0  0  0  0  0  0
   38.2530   27.1440   44.4530 F   0  0  0  0  0  0  0  0  0  0  0  0
   37.3070   29.1760   44.1190 F   0  0  0  0  0  0  0  0  0  0  0  0
   37.3270   29.9580   41.9730 O   0  0  0  0  0  0  0  0  0  0  0  0
   38.2760   30.8130   41.4450 C   0  0  0  0  0  0  0  0  0  0  0  0
   39.4400   30.4420   42.1060 C   0  0  0  0  0  0  0  0  0  0  0  0
   40.7190   31.5610   41.4210 S   0  0  0  0  0  0  0  0  0  0  0  0
   39.4140   32.3780   40.3120 C   0  0  0  0  0  0  0  0  0  0  0  0
   38.5410   31.7810   40.6250 N   0  0  0  0  0  0  0  0  0  0  0  0
   40.0750   29.7790   42.8910 H   0  0  0  0  0  0  0  0  0  0  0  0
   41.0300   33.4990   38.7700 C   0  0  2  0  0  3  0  0  0  0  0  0
   39.6490   33.5010   39.3390 C   0  0  2  0  0  3  0  0  0  0  0  0
   39.3230   34.8370   39.9920 C   0  0  0  0  0  3  0  0  0  0  0  0
   39.3460   35.5800   39.1540 H   0  0  0  0  0  0  0  0  0  0  0  0
   40.2180   35.1590   41.0030 O   0  0  0  0  0  0  0  0  0  0  0  0
   41.5100   35.2580   40.5110 C   0  0  0  0  0  3  0  0  0  0  0  0
   41.8550   36.3060   40.5760 H   0  0  0  0  0  0  0  0  0  0  0  0
   41.6410   34.8600   39.0620 C   0  0  1  0  0  3  0  0  0  0  0  0
   41.0690   33.3290   37.3860 O   0  0  0  0  0  0  0  0  0  0  0  0
   40.6580   32.5000   37.0740 H   0  0  0  0  0  0  0  0  0  0  0  0
   43.0210   34.7350   38.8250 O   0  0  0  0  0  0  0  0  0  0  0  0
   43.4310   35.6400   38.9110 H   0  0  0  0  0  0  0  0  0  0  0  0
  1  2  1  0  0  0  0
  2 26  1  0  0  0  0
  2  3  2  0  0  0  0
  3 22  1  0  0  0  0
  4  3  1  0  0  0  0
  5  4  2  0  0  0  0
  6  1  2  0  0  0  0
  6  5  1  0  0  0  0
  7  1  1  0  0  0  0
  8  9  1  0  0  0  0
  9  5  1  0  0  0  0
  9 10  2  0  0  0  0
 10 18  1  0  0  0  0
 11 12  1  0  0  0  0
 11 10  1  0  0  0  0
 12 19  1  0  0  0  0
 13 20  1  0  0  0  0
 13 12  1  0  0  0  0
 14 15  1  0  0  0  0
 14 13  2  0  0  0  0
 15 11  2  0  0  0  0
 16  8  2  0  0  0  0
 16 15  1  0  0  0  0
 17  8  1  0  0  0  0
 21 16  1  0  0  0  0
 22 25  1  0  0  0  0
 22 24  1  0  0  0  0
 22 23  1  0  0  0  0
 27 26  1  0  0  0  0
 27 28  2  0  0  0  0
 28 32  1  0  0  0  0
 29 28  1  0  0  0  0
 30 31  2  0  0  0  0
 30 29  1  0  0  0  0
 31 27  1  0  0  0  0
 33 41  1  6  0  0  0
 33 40  1  0  0  0  0
 33 34  1  0  0  0  0
 34 35  1  0  0  0  0
 34 30  1  1  0  0  0
 35 37  1  0  0  0  0
 36 35  1  0  0  0  0
 38 39  1  0  0  0  0
 38 37  1  0  0  0  0
 40 43  1  1  0  0  0
 40 38  1  0  0  0  0
 42 41  1  0  0  0  0
 43 44  1  0  0  0  0
M  END
>  <minimizedAffinity>
-7.77924013

$$$$

 OpenBabel03242513103D

 44 48  0  0  1  0  0  0  0  0999 V2000
   36.6640   28.6020   40.0570 C   0  0  0  0  0  0  0  0  0  0  0  0
   37.2330   28.9350   41.2930 C   0  0  0  0  0  0  0  0  0  0  0  0
   37.6650   27.8900   42.0920 C   0  0  0  0  0  0  0  0  0  0  0  0
   37.5030   26.6180   41.6140 N   0  0  0  0  0  0  0  0  0  0  0  0
   36.9620   26.3150   40.4400 C   0  0  0  0  0  0  0  0  0  0  0  0
   36.5340   27.3130   39.6440 N   0  0  0  0  0  0  0  0  0  0  0  0
   36.3200   29.3970   39.4170 H   0  0  0  0  0  0  0  0  0  0  0  0
   35.9330   24.5490   39.0890 C   0  0  0  0  0  0  0  0  0  0  0  0
   36.8380   24.9310   40.0310 C   0  0  0  0  0  0  0  0  0  0  0  0
   37.7060   24.0140   40.6620 C   0  0  0  0  0  0  0  0  0  0  0  0
   37.6510   22.6640   40.3250 C   0  0  0  0  0  0  0  0  0  0  0  0
   38.3060   21.5310   40.7090 N   0  0  0  0  0  0  0  0  0  0  0  0
   37.7760   20.4990   39.9880 C   0  0  0  0  0  0  0  0  0  0  0  0
   36.8110   21.0040   39.1770 N   0  0  0  0  0  0  0  0  0  0  0  0
   36.7160   22.3300   39.3660 C   0  0  0  0  0  0  0  0  0  0  0  0
   35.8590   23.2040   38.7360 C   0  0  0  0  0  0  0  0  0  0  0  0
   35.2850   25.2820   38.6290 H   0  0  0  0  0  0  0  0  0  0  0  0
   38.4310   24.3060   41.4120 H   0  0  0  0  0  0  0  0  0  0  0  0
   39.0610   21.5260   41.4250 H   0  0  0  0  0  0  0  0  0  0  0  0
   38.1160   19.4780   40.0960 H   0  0  0  0  0  0  0  0  0  0  0  0
   35.1470   22.8750   37.9910 H   0  0  0  0  0  0  0  0  0  0  0  0
   38.2760   28.1770   43.4100 C   0  0  0  0  0  0  0  0  0  0  0  0
   38.7040   26.9880   44.0170 F   0  0  0  0  0  0  0  0  0  0  0  0
   39.3990   28.9550   43.2580 F   0  0  0  0  0  0  0  0  0  0  0  0
   37.3430   28.7890   44.1950 F   0  0  0  0  0  0  0  0  0  0  0  0
   37.3330   30.2360   41.6450 O   0  0  0  0  0  0  0  0  0  0  0  0
   38.2060   31.1040   41.0160 C   0  0  0  0  0  0  0  0  0  0  0  0
   37.3640   32.0880   40.5110 C   0  0  0  0  0  0  0  0  0  0  0  0
   38.4980   33.2570   39.6710 S   0  0  0  0  0  0  0  0  0  0  0  0
   39.9790   32.1770   40.1620 C   0  0  0  0  0  0  0  0  0  0  0  0
   39.4310   31.3890   40.7030 N   0  0  0  0  0  0  0  0  0  0  0  0
   36.2860   32.5990   40.3220 H   0  0  0  0  0  0  0  0  0  0  0  0
   41.6080   33.6120   38.9220 C   0  0  2  0  0  3  0  0  0  0  0  0
   41.4230   32.4450   39.8360 C   0  0  2  0  0  3  0  0  0  0  0  0
   42.0730   31.1910   39.2690 C   0  0  0  0  0  3  0  0  0  0  0  0
   43.1690   31.4250   39.2330 H   0  0  0  0  0  0  0  0  0  0  0  0
   41.5690   30.8570   38.0190 O   0  0  0  0  0  0  0  0  0  0  0  0
   41.7930   31.8750   37.1050 C   0  0  0  0  0  3  0  0  0  0  0  0
   42.5090   31.5340   36.3350 H   0  0  0  0  0  0  0  0  0  0  0  0
   42.3880   33.1200   37.7130 C   0  0  1  0  0  3  0  0  0  0  0  0
   42.3470   34.6540   39.4810 O   0  0  0  0  0  0  0  0  0  0  0  0
   41.9610   35.0240   40.2990 H   0  0  0  0  0  0  0  0  0  0  0  0
   42.2680   34.1180   36.7310 O   0  0  0  0  0  0  0  0  0  0  0  0
   42.8540   33.8670   35.9640 H   0  0  0  0  0  0  0  0  0  0  0  0
  1  2  1  0  0  0  0
  2 26  1  0  0  0  0
  2  3  2  0  0  0  0
  3 22  1  0  0  0  0
  4  3  1  0  0  0  0
  5  4  2  0  0  0  0
  6  1  2  0  0  0  0
  6  5  1  0  0  0  0
  7  1  1  0  0  0  0
  8  9  1  0  0  0  0
  9  5  1  0  0  0  0
  9 10  2  0  0  0  0
 10 18  1  0  0  0  0
 11 10  1  0  0  0  0
 11 12  1  0  0  0  0
 12 19  1  0  0  0  0
 13 20  1  0  0  0  0
 13 12  1  0  0  0  0
 14 15  1  0  0  0  0
 14 13  2  0  0  0  0
 15 11  2  0  0  0  0
 16  8  2  0  0  0  0
 16 15  1  0  0  0  0
 17  8  1  0  0  0  0
 21 16  1  0  0  0  0
 22 23  1  0  0  0  0
 22 25  1  0  0  0  0
 24 22  1  0  0  0  0
 27 26  1  0  0  0  0
 28 27  2  0  0  0  0
 29 30  1  0  0  0  0
 29 28  1  0  0  0  0
 30 31  2  0  0  0  0
 31 27  1  0  0  0  0
 32 28  1  0  0  0  0
 33 41  1  1  0  0  0
 33 34  1  0  0  0  0
 34 30  1  6  0  0  0
 35 34  1  0  0  0  0
 36 35  1  0  0  0  0
 37 35  1  0  0  0  0
 38 40  1  0  0  0  0
 38 37  1  0  0  0  0
 39 38  1  0  0  0  0
 40 43  1  6  0  0  0
 40 33  1  0  0  0  0
 41 42  1  0  0  0  0
 44 43  1  0  0  0  0
M  END
>  <minimizedAffinity>
-7.497334

$$$$

 OpenBabel03242513103D

 44 48  0  0  1  0  0  0  0  0999 V2000
   38.8660   27.7140   42.1300 C   0  0  0  0  0  0  0  0  0  0  0  0
   38.0580   28.8180   41.8330 C   0  0  0  0  0  0  0  0  0  0  0  0
   36.9500   28.5950   41.0340 C   0  0  0  0  0  0  0  0  0  0  0  0
   36.7310   27.3170   40.5970 N   0  0  0  0  0  0  0  0  0  0  0  0
   37.5040   26.2770   40.8840 C   0  0  0  0  0  0  0  0  0  0  0  0
   38.5880   26.4680   41.6610 N   0  0  0  0  0  0  0  0  0  0  0  0
   39.7340   27.8610   42.7490 H   0  0  0  0  0  0  0  0  0  0  0  0
   36.1570   24.7810   39.4880 C   0  0  0  0  0  0  0  0  0  0  0  0
   37.1800   24.9640   40.3680 C   0  0  0  0  0  0  0  0  0  0  0  0
   37.9820   23.8970   40.8280 C   0  0  0  0  0  0  0  0  0  0  0  0
   37.7360   22.6020   40.3800 C   0  0  0  0  0  0  0  0  0  0  0  0
   38.2800   21.3700   40.5970 N   0  0  0  0  0  0  0  0  0  0  0  0
   37.5690   20.4810   39.8420 C   0  0  0  0  0  0  0  0  0  0  0  0
   36.6060   21.1690   39.1770 N   0  0  0  0  0  0  0  0  0  0  0  0
   36.6880   22.4720   39.4900 C   0  0  0  0  0  0  0  0  0  0  0  0
   35.8910   23.4950   39.0260 C   0  0  0  0  0  0  0  0  0  0  0  0
   35.5650   25.6240   39.1600 H   0  0  0  0  0  0  0  0  0  0  0  0
   38.7990   24.0310   41.5270 H   0  0  0  0  0  0  0  0  0  0  0  0
   39.0870   21.2100   41.2320 H   0  0  0  0  0  0  0  0  0  0  0  0
   37.7910   19.4230   39.8260 H   0  0  0  0  0  0  0  0  0  0  0  0
   35.0840   23.3220   38.3280 H   0  0  0  0  0  0  0  0  0  0  0  0
   36.0560   29.7230   40.6850 C   0  0  0  0  0  0  0  0  0  0  0  0
   35.9930   30.6410   41.7430 F   0  0  0  0  0  0  0  0  0  0  0  0
   36.5560   30.4160   39.6080 F   0  0  0  0  0  0  0  0  0  0  0  0
   34.8120   29.2250   40.4280 F   0  0  0  0  0  0  0  0  0  0  0  0
   38.3890   30.0310   42.3300 O   0  0  0  0  0  0  0  0  0  0  0  0
   39.2140   30.9070   41.6490 C   0  0  0  0  0  0  0  0  0  0  0  0
   40.3870   30.8810   42.3930 C   0  0  0  0  0  0  0  0  0  0  0  0
   41.5020   32.0350   41.5090 S   0  0  0  0  0  0  0  0  0  0  0  0
   40.1420   32.3740   40.2310 C   0  0  0  0  0  0  0  0  0  0  0  0
   39.3620   31.7160   40.6470 N   0  0  0  0  0  0  0  0  0  0  0  0
   41.0790   30.5100   43.3110 H   0  0  0  0  0  0  0  0  0  0  0  0
   41.0150   32.7060   37.9120 C   0  0  2  0  0  3  0  0  0  0  0  0
   40.2430   33.2960   39.0460 C   0  0  2  0  0  3  0  0  0  0  0  0
   40.8270   34.6350   39.4740 C   0  0  0  0  0  3  0  0  0  0  0  0
   40.6930   35.3050   38.5850 H   0  0  0  0  0  0  0  0  0  0  0  0
   42.1580   34.5310   39.8530 O   0  0  0  0  0  0  0  0  0  0  0  0
   42.9390   34.0670   38.8040 C   0  0  0  0  0  3  0  0  0  0  0  0
   43.6310   34.8640   38.4750 H   0  0  0  0  0  0  0  0  0  0  0  0
   42.1460   33.6670   37.5850 C   0  0  1  0  0  3  0  0  0  0  0  0
   40.2700   32.5490   36.7430 O   0  0  0  0  0  0  0  0  0  0  0  0
   39.4820   31.9810   36.8450 H   0  0  0  0  0  0  0  0  0  0  0  0
   43.0420   32.9620   36.7630 O   0  0  0  0  0  0  0  0  0  0  0  0
   43.7420   33.6010   36.4520 H   0  0  0  0  0  0  0  0  0  0  0  0
  1  7  1  0  0  0  0
  2  1  1  0  0  0  0
  2 26  1  0  0  0  0
  3  2  2  0  0  0  0
  4  5  2  0  0  0  0
  4  3  1  0  0  0  0
  5  6  1  0  0  0  0
  6  1  2  0  0  0  0
  8  9  1  0  0  0  0
  9 10  2  0  0  0  0
  9  5  1  0  0  0  0
 10 18  1  0  0  0  0
 11 12  1  0  0  0  0
 11 10  1  0  0  0  0
 12 19  1  0  0  0  0
 13 12  1  0  0  0  0
 14 15  1  0  0  0  0
 14 13  2  0  0  0  0
 15 11  2  0  0  0  0
 16  8  2  0  0  0  0
 16 15  1  0  0  0  0
 17  8  1  0  0  0  0
 20 13  1  0  0  0  0
 21 16  1  0  0  0  0
 22  3  1  0  0  0  0
 22 23  1  0  0  0  0
 24 22  1  0  0  0  0
 25 22  1  0  0  0  0
 27 26  1  0  0  0  0
 27 28  2  0  0  0  0
 28 32  1  0  0  0  0
 29 28  1  0  0  0  0
 30 31  2  0  0  0  0
 30 29  1  0  0  0  0
 31 27  1  0  0  0  0
 33 41  1  6  0  0  0
 33 34  1  0  0  0  0
 34 35  1  0  0  0  0
 34 30  1  1  0  0  0
 35 37  1  0  0  0  0
 36 35  1  0  0  0  0
 38 37  1  0  0  0  0
 39 38  1  0  0  0  0
 40 43  1  6  0  0  0
 40 33  1  0  0  0  0
 40 38  1  0  0  0  0
 41 42  1  0  0  0  0
 44 43  1  0  0  0  0
M  END
>  <minimizedAffinity>
-7.47683382

$$$$

 OpenBabel03242513103D

 44 48  0  0  1  0  0  0  0  0999 V2000
   36.4840   28.1760   40.2020 C   0  0  0  0  0  0  0  0  0  0  0  0
   36.9140   28.6240   41.4570 C   0  0  0  0  0  0  0  0  0  0  0  0
   37.4120   27.6730   42.3320 C   0  0  0  0  0  0  0  0  0  0  0  0
   37.4450   26.3740   41.9030 N   0  0  0  0  0  0  0  0  0  0  0  0
   37.0340   25.9610   40.7110 C   0  0  0  0  0  0  0  0  0  0  0  0
   36.5450   26.8660   39.8410 N   0  0  0  0  0  0  0  0  0  0  0  0
   36.0910   28.8960   39.5050 H   0  0  0  0  0  0  0  0  0  0  0  0
   38.1850   23.7980   40.7140 C   0  0  0  0  0  0  0  0  0  0  0  0
   37.1130   24.5580   40.3590 C   0  0  0  0  0  0  0  0  0  0  0  0
   36.0210   24.0340   39.6340 C   0  0  0  0  0  0  0  0  0  0  0  0
   36.0190   22.6940   39.2560 C   0  0  0  0  0  0  0  0  0  0  0  0
   35.1730   21.8690   38.5760 N   0  0  0  0  0  0  0  0  0  0  0  0
   35.7600   20.6350   38.5400 C   0  0  0  0  0  0  0  0  0  0  0  0
   36.9480   20.7160   39.1920 N   0  0  0  0  0  0  0  0  0  0  0  0
   37.1300   21.9680   39.6400 C   0  0  0  0  0  0  0  0  0  0  0  0
   38.2070   22.4550   40.3480 C   0  0  0  0  0  0  0  0  0  0  0  0
   39.0030   24.2360   41.2700 H   0  0  0  0  0  0  0  0  0  0  0  0
   35.1630   24.6290   39.3470 H   0  0  0  0  0  0  0  0  0  0  0  0
   34.2640   22.1860   38.1840 H   0  0  0  0  0  0  0  0  0  0  0  0
   35.2990   19.7860   38.0570 H   0  0  0  0  0  0  0  0  0  0  0  0
   39.0470   21.8300   40.6170 H   0  0  0  0  0  0  0  0  0  0  0  0
   37.8840   28.0840   43.6740 C   0  0  0  0  0  0  0  0  0  0  0  0
   38.6420   27.0600   44.2590 F   0  0  0  0  0  0  0  0  0  0  0  0
   38.7210   29.1700   43.5760 F   0  0  0  0  0  0  0  0  0  0  0  0
   36.7960   28.3570   44.4500 F   0  0  0  0  0  0  0  0  0  0  0  0
   36.8260   29.9400   41.7550 O   0  0  0  0  0  0  0  0  0  0  0  0
   37.7050   30.8730   41.2370 C   0  0  0  0  0  0  0  0  0  0  0  0
   36.8800   31.7020   40.4870 C   0  0  0  0  0  0  0  0  0  0  0  0
   38.0230   32.9530   39.7880 S   0  0  0  0  0  0  0  0  0  0  0  0
   39.4820   32.1110   40.6620 C   0  0  0  0  0  0  0  0  0  0  0  0
   38.9270   31.2950   41.1520 N   0  0  0  0  0  0  0  0  0  0  0  0
   35.8140   32.0520   40.0400 H   0  0  0  0  0  0  0  0  0  0  0  0
   41.0800   34.0140   40.3850 C   0  0  2  0  0  3  0  0  0  0  0  0
   40.9220   32.5460   40.6090 C   0  0  2  0  0  3  0  0  0  0  0  0
   41.6730   31.7420   39.5570 C   0  0  0  0  0  3  0  0  0  0  0  0
   42.7520   31.9970   39.7170 H   0  0  0  0  0  0  0  0  0  0  0  0
   41.2500   32.0400   38.2690 O   0  0  0  0  0  0  0  0  0  0  0  0
   41.4560   33.3800   37.9750 C   0  0  0  0  0  3  0  0  0  0  0  0
   42.2290   33.4750   37.1900 H   0  0  0  0  0  0  0  0  0  0  0  0
   41.9450   34.1920   39.1480 C   0  0  1  0  0  3  0  0  0  0  0  0
   41.7260   34.6770   41.4270 O   0  0  0  0  0  0  0  0  0  0  0  0
   41.2800   34.5930   42.2930 H   0  0  0  0  0  0  0  0  0  0  0  0
   41.8130   35.5370   38.7610 O   0  0  0  0  0  0  0  0  0  0  0  0
   42.4500   35.7050   38.0120 H   0  0  0  0  0  0  0  0  0  0  0  0
  1  2  1  0  0  0  0
  2 26  1  0  0  0  0
  2  3  2  0  0  0  0
  3 22  1  0  0  0  0
  4  3  1  0  0  0  0
  5  4  2  0  0  0  0
  6  1  2  0  0  0  0
  6  5  1  0  0  0  0
  7  1  1  0  0  0  0
  8 17  1  0  0  0  0
  9  5  1  0  0  0  0
  9  8  1  0  0  0  0
 10  9  2  0  0  0  0
 11 10  1  0  0  0  0
 11 15  2  0  0  0  0
 12 11  1  0  0  0  0
 13 12  1  0  0  0  0
 13 14  2  0  0  0  0
 14 15  1  0  0  0  0
 15 16  1  0  0  0  0
 16 21  1  0  0  0  0
 16  8  2  0  0  0  0
 18 10  1  0  0  0  0
 19 12  1  0  0  0  0
 20 13  1  0  0  0  0
 22 23  1  0  0  0  0
 22 25  1  0  0  0  0
 24 22  1  0  0  0  0
 27 26  1  0  0  0  0
 28 27  2  0  0  0  0
 29 28  1  0  0  0  0
 29 30  1  0  0  0  0
 30 31  2  0  0  0  0
 31 27  1  0  0  0  0
 32 28  1  0  0  0  0
 33 34  1  0  0  0  0
 33 41  1  1  0  0  0
 34 30  1  6  0  0  0
 35 36  1  0  0  0  0
 35 34  1  0  0  0  0
 37 35  1  0  0  0  0
 38 37  1  0  0  0  0
 38 40  1  0  0  0  0
 39 38  1  0  0  0  0
 40 43  1  6  0  0  0
 40 33  1  0  0  0  0
 41 42  1  0  0  0  0
 44 43  1  0  0  0  0
M  END
>  <minimizedAffinity>
-7.36998224

$$$$

 OpenBabel03242513103D

 44 48  0  0  1  0  0  0  0  0999 V2000
   39.0350   27.8240   40.3180 C   0  0  0  0  0  0  0  0  0  0  0  0
   38.5630   27.3250   41.5380 C   0  0  0  0  0  0  0  0  0  0  0  0
   38.0270   28.2380   42.4300 C   0  0  0  0  0  0  0  0  0  0  0  0
   38.0000   29.5530   42.0510 N   0  0  0  0  0  0  0  0  0  0  0  0
   38.4520   30.0150   40.8910 C   0  0  0  0  0  0  0  0  0  0  0  0
   38.9780   29.1460   40.0060 N   0  0  0  0  0  0  0  0  0  0  0  0
   39.4570   27.1340   39.6070 H   0  0  0  0  0  0  0  0  0  0  0  0
   37.2990   31.9600   39.9480 C   0  0  0  0  0  0  0  0  0  0  0  0
   38.3750   31.4290   40.5910 C   0  0  0  0  0  0  0  0  0  0  0  0
   39.4730   32.2150   41.0030 C   0  0  0  0  0  0  0  0  0  0  0  0
   39.4780   33.5840   40.7520 C   0  0  0  0  0  0  0  0  0  0  0  0
   40.3310   34.6210   40.9920 N   0  0  0  0  0  0  0  0  0  0  0  0
   39.7440   35.7470   40.4860 C   0  0  0  0  0  0  0  0  0  0  0  0
   38.5500   35.3920   39.9460 N   0  0  0  0  0  0  0  0  0  0  0  0
   38.3640   34.0710   40.0970 C   0  0  0  0  0  0  0  0  0  0  0  0
   37.2810   33.3270   39.6850 C   0  0  0  0  0  0  0  0  0  0  0  0
   36.4770   31.3240   39.6480 H   0  0  0  0  0  0  0  0  0  0  0  0
   40.3340   31.8040   41.5160 H   0  0  0  0  0  0  0  0  0  0  0  0
   41.2430   34.5060   41.4770 H   0  0  0  0  0  0  0  0  0  0  0  0
   40.2100   36.7210   40.5420 H   0  0  0  0  0  0  0  0  0  0  0  0
   36.4380   33.7730   39.1750 H   0  0  0  0  0  0  0  0  0  0  0  0
   37.5100   27.7730   43.7370 C   0  0  0  0  0  0  0  0  0  0  0  0
   37.0890   28.8640   44.5110 F   0  0  0  0  0  0  0  0  0  0  0  0
   36.4020   26.9800   43.5590 F   0  0  0  0  0  0  0  0  0  0  0  0
   38.5090   27.1040   44.3840 F   0  0  0  0  0  0  0  0  0  0  0  0
   38.6500   25.9990   41.7880 O   0  0  0  0  0  0  0  0  0  0  0  0
   37.9080   25.0670   41.0860 C   0  0  0  0  0  0  0  0  0  0  0  0
   38.6860   23.9190   41.1660 C   0  0  0  0  0  0  0  0  0  0  0  0
   37.7220   22.6630   40.2430 S   0  0  0  0  0  0  0  0  0  0  0  0
   36.3760   23.9520   39.8890 C   0  0  0  0  0  0  0  0  0  0  0  0
   36.8340   24.8100   40.4080 N   0  0  0  0  0  0  0  0  0  0  0  0
   39.6570   23.2910   41.5140 H   0  0  0  0  0  0  0  0  0  0  0  0
   34.5930   22.3280   39.2330 C   0  0  2  0  0  3  0  0  0  0  0  0
   35.1070   23.7240   39.1120 C   0  0  2  0  0  3  0  0  0  0  0  0
   35.3090   24.1150   37.6550 C   0  0  0  0  0  3  0  0  0  0  0  0
   34.2820   24.0900   37.2060 H   0  0  0  0  0  0  0  0  0  0  0  0
   36.1870   23.2630   36.9990 O   0  0  0  0  0  0  0  0  0  0  0  0
   35.7120   21.9600   37.0050 C   0  0  0  0  0  3  0  0  0  0  0  0
   35.4560   21.6520   35.9750 H   0  0  0  0  0  0  0  0  0  0  0  0
   34.4610   21.7710   37.8250 C   0  0  1  0  0  3  0  0  0  0  0  0
   33.3310   22.2400   39.8200 O   0  0  0  0  0  0  0  0  0  0  0  0
   33.2830   22.6130   40.7220 H   0  0  0  0  0  0  0  0  0  0  0  0
   34.3000   20.3810   37.9600 O   0  0  0  0  0  0  0  0  0  0  0  0
   34.1090   20.0040   37.0570 H   0  0  0  0  0  0  0  0  0  0  0  0
  1  2  1  0  0  0  0
  2 26  1  0  0  0  0
  2  3  2  0  0  0  0
  3 22  1  0  0  0  0
  4  3  1  0  0  0  0
  5  4  2  0  0  0  0
  6  1  2  0  0  0  0
  6  5  1  0  0  0  0
  7  1  1  0  0  0  0
  8  9  1  0  0  0  0
  9  5  1  0  0  0  0
  9 10  2  0  0  0  0
 10 18  1  0  0  0  0
 11 12  1  0  0  0  0
 11 10  1  0  0  0  0
 12 19  1  0  0  0  0
 13 20  1  0  0  0  0
 13 12  1  0  0  0  0
 14 15  1  0  0  0  0
 14 13  2  0  0  0  0
 15 11  2  0  0  0  0
 16  8  2  0  0  0  0
 16 15  1  0  0  0  0
 17  8  1  0  0  0  0
 21 16  1  0  0  0  0
 22 25  1  0  0  0  0
 22 23  1  0  0  0  0
 24 22  1  0  0  0  0
 27 28  2  0  0  0  0
 27 26  1  0  0  0  0
 28 32  1  0  0  0  0
 29 28  1  0  0  0  0
 30 29  1  0  0  0  0
 30 31  2  0  0  0  0
 31 27  1  0  0  0  0
 33 41  1  6  0  0  0
 34 33  1  0  0  0  0
 34 30  1  1  0  0  0
 35 34  1  0  0  0  0
 36 35  1  0  0  0  0
 37 38  1  0  0  0  0
 37 35  1  0  0  0  0
 38 40  1  0  0  0  0
 39 38  1  0  0  0  0
 40 43  1  1  0  0  0
 40 33  1  0  0  0  0
 41 42  1  0  0  0  0
 44 43  1  0  0  0  0
M  END
>  <minimizedAffinity>
-7.28952312

$$$$

 OpenBabel03242513103D

 44 48  0  0  1  0  0  0  0  0999 V2000
   40.0900   26.3660   41.7860 C   0  0  0  0  0  0  0  0  0  0  0  0
   39.3440   27.2110   42.6160 C   0  0  0  0  0  0  0  0  0  0  0  0
   37.9870   26.9560   42.7220 C   0  0  0  0  0  0  0  0  0  0  0  0
   37.4830   25.9020   42.0110 N   0  0  0  0  0  0  0  0  0  0  0  0
   38.2010   25.1080   41.2260 C   0  0  0  0  0  0  0  0  0  0  0  0
   39.5230   25.3340   41.1060 N   0  0  0  0  0  0  0  0  0  0  0  0
   41.1480   26.5440   41.6860 H   0  0  0  0  0  0  0  0  0  0  0  0
   38.2540   22.8920   40.1820 C   0  0  0  0  0  0  0  0  0  0  0  0
   37.5650   24.0170   40.5160 C   0  0  0  0  0  0  0  0  0  0  0  0
   36.2010   24.1930   40.1960 C   0  0  0  0  0  0  0  0  0  0  0  0
   35.5150   23.1920   39.5140 C   0  0  0  0  0  0  0  0  0  0  0  0
   34.2440   23.0140   39.0520 N   0  0  0  0  0  0  0  0  0  0  0  0
   34.2040   21.7870   38.4520 C   0  0  0  0  0  0  0  0  0  0  0  0
   35.4390   21.2300   38.5510 N   0  0  0  0  0  0  0  0  0  0  0  0
   36.2600   22.0720   39.1980 C   0  0  0  0  0  0  0  0  0  0  0  0
   37.5900   21.8770   39.4990 C   0  0  0  0  0  0  0  0  0  0  0  0
   39.2980   22.7950   40.4450 H   0  0  0  0  0  0  0  0  0  0  0  0
   35.6420   25.0830   40.4570 H   0  0  0  0  0  0  0  0  0  0  0  0
   33.4930   23.7240   39.1690 H   0  0  0  0  0  0  0  0  0  0  0  0
   33.3080   21.3910   37.9970 H   0  0  0  0  0  0  0  0  0  0  0  0
   38.1140   20.9730   39.2210 H   0  0  0  0  0  0  0  0  0  0  0  0
   37.1430   27.8140   43.5860 C   0  0  0  0  0  0  0  0  0  0  0  0
   35.8170   27.3590   43.5780 F   0  0  0  0  0  0  0  0  0  0  0  0
   37.5660   27.7430   44.8920 F   0  0  0  0  0  0  0  0  0  0  0  0
   37.1970   29.0920   43.1090 F   0  0  0  0  0  0  0  0  0  0  0  0
   39.9680   28.2200   43.2650 O   0  0  0  0  0  0  0  0  0  0  0  0
   40.4200   29.3500   42.6080 C   0  0  0  0  0  0  0  0  0  0  0  0
   41.7890   29.3270   42.8460 C   0  0  0  0  0  0  0  0  0  0  0  0
   42.4170   30.8170   41.9830 S   0  0  0  0  0  0  0  0  0  0  0  0
   40.6540   31.2380   41.4240 C   0  0  0  0  0  0  0  0  0  0  0  0
   40.1290   30.3880   41.8900 N   0  0  0  0  0  0  0  0  0  0  0  0
   42.7990   28.8580   43.3140 H   0  0  0  0  0  0  0  0  0  0  0  0
   38.8880   32.9420   40.9430 C   0  0  2  0  0  3  0  0  0  0  0  0
   40.2430   32.4220   40.5910 C   0  0  2  0  0  3  0  0  0  0  0  0
   40.3340   32.0770   39.1110 C   0  0  0  0  0  3  0  0  0  0  0  0
   40.1950   33.0530   38.5780 H   0  0  0  0  0  0  0  0  0  0  0  0
   39.3880   31.1350   38.7320 O   0  0  0  0  0  0  0  0  0  0  0  0
   38.1020   31.6030   38.9580 C   0  0  0  0  0  3  0  0  0  0  0  0
   37.5850   31.7530   37.9920 H   0  0  0  0  0  0  0  0  0  0  0  0
   38.0540   32.9300   39.6720 C   0  0  1  0  0  3  0  0  0  0  0  0
   38.8910   34.2550   41.4100 O   0  0  0  0  0  0  0  0  0  0  0  0
   39.4390   34.3950   42.2070 H   0  0  0  0  0  0  0  0  0  0  0  0
   36.7170   33.0990   40.0730 O   0  0  0  0  0  0  0  0  0  0  0  0
   36.1600   33.1960   39.2510 H   0  0  0  0  0  0  0  0  0  0  0  0
  1  2  1  0  0  0  0
  2  3  2  0  0  0  0
  2 26  1  0  0  0  0
  3 22  1  0  0  0  0
  4  3  1  0  0  0  0
  5  4  2  0  0  0  0
  6  5  1  0  0  0  0
  6  1  2  0  0  0  0
  7  1  1  0  0  0  0
  8 17  1  0  0  0  0
  8  9  1  0  0  0  0
  9  5  1  0  0  0  0
 10 18  1  0  0  0  0
 10  9  2  0  0  0  0
 11 10  1  0  0  0  0
 12 19  1  0  0  0  0
 12 11  1  0  0  0  0
 13 14  2  0  0  0  0
 13 12  1  0  0  0  0
 14 15  1  0  0  0  0
 15 16  1  0  0  0  0
 15 11  2  0  0  0  0
 16  8  2  0  0  0  0
 20 13  1  0  0  0  0
 21 16  1  0  0  0  0
 22 24  1  0  0  0  0
 23 22  1  0  0  0  0
 25 22  1  0  0  0  0
 27 28  2  0  0  0  0
 27 26  1  0  0  0  0
 28 32  1  0  0  0  0
 29 28  1  0  0  0  0
 30 31  2  0  0  0  0
 30 29  1  0  0  0  0
 31 27  1  0  0  0  0
 33 41  1  6  0  0  0
 34 33  1  0  0  0  0
 34 30  1  1  0  0  0
 35 34  1  0  0  0  0
 36 35  1  0  0  0  0
 37 38  1  0  0  0  0
 37 35  1  0  0  0  0
 38 40  1  0  0  0  0
 39 38  1  0  0  0  0
 40 43  1  1  0  0  0
 40 33  1  0  0  0  0
 41 42  1  0  0  0  0
 44 43  1  0  0  0  0
M  END
>  <minimizedAffinity>
-7.27695131

$$$$

 OpenBabel03242513103D

 44 48  0  0  1  0  0  0  0  0999 V2000
   37.9830   27.8630   40.0180 C   0  0  0  0  0  0  0  0  0  0  0  0
   37.7010   27.3830   41.3030 C   0  0  0  0  0  0  0  0  0  0  0  0
   37.5380   28.3220   42.3070 C   0  0  0  0  0  0  0  0  0  0  0  0
   37.6660   29.6420   41.9670 N   0  0  0  0  0  0  0  0  0  0  0  0
   37.9350   30.0850   40.7460 C   0  0  0  0  0  0  0  0  0  0  0  0
   38.0970   29.1920   39.7500 N   0  0  0  0  0  0  0  0  0  0  0  0
   38.1150   27.1530   39.2200 H   0  0  0  0  0  0  0  0  0  0  0  0
   37.0890   32.1850   39.8070 C   0  0  0  0  0  0  0  0  0  0  0  0
   38.0490   31.5070   40.4950 C   0  0  0  0  0  0  0  0  0  0  0  0
   39.2040   32.1390   41.0040 C   0  0  0  0  0  0  0  0  0  0  0  0
   39.3900   33.5050   40.8060 C   0  0  0  0  0  0  0  0  0  0  0  0
   40.3440   34.4210   41.1380 N   0  0  0  0  0  0  0  0  0  0  0  0
   39.9310   35.6250   40.6400 C   0  0  0  0  0  0  0  0  0  0  0  0
   38.7410   35.4360   40.0140 N   0  0  0  0  0  0  0  0  0  0  0  0
   38.3890   34.1440   40.1020 C   0  0  0  0  0  0  0  0  0  0  0  0
   37.2530   33.5510   39.5970 C   0  0  0  0  0  0  0  0  0  0  0  0
   36.2180   31.6640   39.4330 H   0  0  0  0  0  0  0  0  0  0  0  0
   39.9740   31.6110   41.5530 H   0  0  0  0  0  0  0  0  0  0  0  0
   41.2020   34.1800   41.6730 H   0  0  0  0  0  0  0  0  0  0  0  0
   40.5060   36.5330   40.7610 H   0  0  0  0  0  0  0  0  0  0  0  0
   36.5060   34.1120   39.0530 H   0  0  0  0  0  0  0  0  0  0  0  0
   37.2370   27.8780   43.6870 C   0  0  0  0  0  0  0  0  0  0  0  0
   37.0460   28.9860   44.5250 F   0  0  0  0  0  0  0  0  0  0  0  0
   36.0600   27.1690   43.7160 F   0  0  0  0  0  0  0  0  0  0  0  0
   38.2850   27.1310   44.1390 F   0  0  0  0  0  0  0  0  0  0  0  0
   37.6010   26.0500   41.5030 O   0  0  0  0  0  0  0  0  0  0  0  0
   37.1520   25.1890   40.5200 C   0  0  0  0  0  0  0  0  0  0  0  0
   37.5140   23.9380   41.0050 C   0  0  0  0  0  0  0  0  0  0  0  0
   36.9260   22.7740   39.7180 S   0  0  0  0  0  0  0  0  0  0  0  0
   36.2640   24.2300   38.6990 C   0  0  0  0  0  0  0  0  0  0  0  0
   36.5570   25.0480   39.3770 N   0  0  0  0  0  0  0  0  0  0  0  0
   38.0070   23.1930   41.8180 H   0  0  0  0  0  0  0  0  0  0  0  0
   34.6200   25.2740   37.1310 C   0  0  2  0  0  3  0  0  0  0  0  0
   35.5640   24.1420   37.3690 C   0  0  2  0  0  3  0  0  0  0  0  0
   34.8610   22.7980   37.2370 C   0  0  0  0  0  3  0  0  0  0  0  0
   34.5340   22.7490   36.1660 H   0  0  0  0  0  0  0  0  0  0  0  0
   33.7940   22.6750   38.1160 O   0  0  0  0  0  0  0  0  0  0  0  0
   32.8400   23.6540   37.8800 C   0  0  0  0  0  3  0  0  0  0  0  0
   31.9130   23.1870   37.5010 H   0  0  0  0  0  0  0  0  0  0  0  0
   33.2540   24.6710   36.8460 C   0  0  1  0  0  3  0  0  0  0  0  0
   34.9500   26.0610   36.0290 O   0  0  0  0  0  0  0  0  0  0  0  0
   35.8370   26.4690   36.0800 H   0  0  0  0  0  0  0  0  0  0  0  0
   32.3260   25.7210   36.9520 O   0  0  0  0  0  0  0  0  0  0  0  0
   31.4350   25.3740   36.6700 H   0  0  0  0  0  0  0  0  0  0  0  0
  1  2  1  0  0  0  0
  2 26  1  0  0  0  0
  2  3  2  0  0  0  0
  3 22  1  0  0  0  0
  4  3  1  0  0  0  0
  5  4  2  0  0  0  0
  6  1  2  0  0  0  0
  6  5  1  0  0  0  0
  7  1  1  0  0  0  0
  8  9  1  0  0  0  0
  9  5  1  0  0  0  0
  9 10  2  0  0  0  0
 10 18  1  0  0  0  0
 11 10  1  0  0  0  0
 11 12  1  0  0  0  0
 12 19  1  0  0  0  0
 13 20  1  0  0  0  0
 13 12  1  0  0  0  0
 14 15  1  0  0  0  0
 14 13  2  0  0  0  0
 15 11  2  0  0  0  0
 16  8  2  0  0  0  0
 16 15  1  0  0  0  0
 17  8  1  0  0  0  0
 21 16  1  0  0  0  0
 22 24  1  0  0  0  0
 22 25  1  0  0  0  0
 22 23  1  0  0  0  0
 27 28  2  0  0  0  0
 27 26  1  0  0  0  0
 28 32  1  0  0  0  0
 29 28  1  0  0  0  0
 30 31  2  0  0  0  0
 30 29  1  0  0  0  0
 31 27  1  0  0  0  0
 33 41  1  6  0  0  0
 33 34  1  0  0  0  0
 34 30  1  1  0  0  0
 35 34  1  0  0  0  0
 35 37  1  0  0  0  0
 36 35  1  0  0  0  0
 38 37  1  0  0  0  0
 39 38  1  0  0  0  0
 40 43  1  1  0  0  0
 40 33  1  0  0  0  0
 40 38  1  0  0  0  0
 41 42  1  0  0  0  0
 44 43  1  0  0  0  0
M  END
>  <minimizedAffinity>
-7.272861

$$$$

 OpenBabel03242513103D

 44 48  0  0  1  0  0  0  0  0999 V2000
   36.4320   27.7500   40.2860 C   0  0  0  0  0  0  0  0  0  0  0  0
   37.1220   28.0780   41.4600 C   0  0  0  0  0  0  0  0  0  0  0  0
   37.7310   27.0410   42.1450 C   0  0  0  0  0  0  0  0  0  0  0  0
   37.6120   25.7800   41.6250 N   0  0  0  0  0  0  0  0  0  0  0  0
   36.9540   25.4820   40.5120 C   0  0  0  0  0  0  0  0  0  0  0  0
   36.3530   26.4730   39.8260 N   0  0  0  0  0  0  0  0  0  0  0  0
   35.9490   28.5390   39.7350 H   0  0  0  0  0  0  0  0  0  0  0  0
   36.0080   23.7300   39.0840 C   0  0  0  0  0  0  0  0  0  0  0  0
   36.8890   24.1110   40.0500 C   0  0  0  0  0  0  0  0  0  0  0  0
   37.7870   23.2050   40.6550 C   0  0  0  0  0  0  0  0  0  0  0  0
   37.7890   21.8680   40.2670 C   0  0  0  0  0  0  0  0  0  0  0  0
   38.4850   20.7480   40.6150 N   0  0  0  0  0  0  0  0  0  0  0  0
   38.0030   19.7240   39.8490 C   0  0  0  0  0  0  0  0  0  0  0  0
   37.0260   20.2210   39.0490 N   0  0  0  0  0  0  0  0  0  0  0  0
   36.8760   21.5340   39.2860 C   0  0  0  0  0  0  0  0  0  0  0  0
   35.9910   22.3980   38.6800 C   0  0  0  0  0  0  0  0  0  0  0  0
   35.3350   24.4540   38.6450 H   0  0  0  0  0  0  0  0  0  0  0  0
   38.4930   23.4970   41.4230 H   0  0  0  0  0  0  0  0  0  0  0  0
   39.2330   20.7460   41.3370 H   0  0  0  0  0  0  0  0  0  0  0  0
   38.3820   18.7140   39.9230 H   0  0  0  0  0  0  0  0  0  0  0  0
   35.3000   22.0690   37.9160 H   0  0  0  0  0  0  0  0  0  0  0  0
   38.4780   27.3220   43.3930 C   0  0  0  0  0  0  0  0  0  0  0  0
   37.5970   27.7130   44.4110 F   0  0  0  0  0  0  0  0  0  0  0  0
   39.1040   26.1850   43.8440 F   0  0  0  0  0  0  0  0  0  0  0  0
   39.3720   28.3240   43.1450 F   0  0  0  0  0  0  0  0  0  0  0  0
   37.1630   29.3670   41.8640 O   0  0  0  0  0  0  0  0  0  0  0  0
   37.6780   30.3730   41.0680 C   0  0  0  0  0  0  0  0  0  0  0  0
   36.6050   31.2440   40.9260 C   0  0  0  0  0  0  0  0  0  0  0  0
   37.2610   32.5920   39.8720 S   0  0  0  0  0  0  0  0  0  0  0  0
   38.9430   31.7170   39.7960 C   0  0  0  0  0  0  0  0  0  0  0  0
   38.6960   30.8400   40.4160 N   0  0  0  0  0  0  0  0  0  0  0  0
   35.4670   31.6020   41.1190 H   0  0  0  0  0  0  0  0  0  0  0  0
   40.3040   31.6020   37.7030 C   0  0  2  0  0  3  0  0  0  0  0  0
   40.1650   32.2000   39.0630 C   0  0  2  0  0  3  0  0  0  0  0  0
   41.4100   31.9540   39.9040 C   0  0  0  0  0  3  0  0  0  0  0  0
   42.2300   32.5040   39.3730 H   0  0  0  0  0  0  0  0  0  0  0  0
   41.6920   30.6020   40.0430 O   0  0  0  0  0  0  0  0  0  0  0  0
   41.9160   30.0120   38.8090 C   0  0  0  0  0  3  0  0  0  0  0  0
   42.9730   29.6960   38.7340 H   0  0  0  0  0  0  0  0  0  0  0  0
   41.6670   30.9310   37.6400 C   0  0  1  0  0  3  0  0  0  0  0  0
   40.2680   32.5360   36.6690 O   0  0  0  0  0  0  0  0  0  0  0  0
   39.4470   33.0660   36.6370 H   0  0  0  0  0  0  0  0  0  0  0  0
   41.6510   30.1050   36.5030 O   0  0  0  0  0  0  0  0  0  0  0  0
   42.5670   29.7310   36.3810 H   0  0  0  0  0  0  0  0  0  0  0  0
  1  2  1  0  0  0  0
  2 26  1  0  0  0  0
  2  3  2  0  0  0  0
  3 22  1  0  0  0  0
  4  3  1  0  0  0  0
  5  4  2  0  0  0  0
  6  1  2  0  0  0  0
  6  5  1  0  0  0  0
  7  1  1  0  0  0  0
  8  9  1  0  0  0  0
  9  5  1  0  0  0  0
  9 10  2  0  0  0  0
 10 18  1  0  0  0  0
 11 12  1  0  0  0  0
 11 10  1  0  0  0  0
 12 19  1  0  0  0  0
 13 20  1  0  0  0  0
 13 12  1  0  0  0  0
 14 15  1  0  0  0  0
 14 13  2  0  0  0  0
 15 11  2  0  0  0  0
 16  8  2  0  0  0  0
 16 15  1  0  0  0  0
 17  8  1  0  0  0  0
 21 16  1  0  0  0  0
 22 24  1  0  0  0  0
 22 23  1  0  0  0  0
 25 22  1  0  0  0  0
 27 26  1  0  0  0  0
 28 27  2  0  0  0  0
 28 32  1  0  0  0  0
 29 28  1  0  0  0  0
 30 29  1  0  0  0  0
 30 31  2  0  0  0  0
 31 27  1  0  0  0  0
 33 41  1  6  0  0  0
 33 34  1  0  0  0  0
 34 30  1  1  0  0  0
 34 35  1  0  0  0  0
 35 37  1  0  0  0  0
 36 35  1  0  0  0  0
 38 37  1  0  0  0  0
 39 38  1  0  0  0  0
 40 43  1  6  0  0  0
 40 33  1  0  0  0  0
 40 38  1  0  0  0  0
 42 41  1  0  0  0  0
 44 43  1  0  0  0  0
M  END
>  <minimizedAffinity>
-7.26514149

$$$$

 OpenBabel03242513103D

 44 48  0  0  1  0  0  0  0  0999 V2000
   39.2110   30.6460   42.0790 C   0  0  0  0  0  0  0  0  0  0  0  0
   38.6670   31.4220   41.0480 C   0  0  0  0  0  0  0  0  0  0  0  0
   37.9090   30.7650   40.0940 C   0  0  0  0  0  0  0  0  0  0  0  0
   37.7510   29.4130   40.2320 N   0  0  0  0  0  0  0  0  0  0  0  0
   38.2720   28.6870   41.2130 C   0  0  0  0  0  0  0  0  0  0  0  0
   39.0130   29.3020   42.1550 N   0  0  0  0  0  0  0  0  0  0  0  0
   39.8050   31.1330   42.8330 H   0  0  0  0  0  0  0  0  0  0  0  0
   37.1870   26.7100   42.1710 C   0  0  0  0  0  0  0  0  0  0  0  0
   38.0410   27.2580   41.2630 C   0  0  0  0  0  0  0  0  0  0  0  0
   38.7490   26.4780   40.3230 C   0  0  0  0  0  0  0  0  0  0  0  0
   38.5840   25.0960   40.3050 C   0  0  0  0  0  0  0  0  0  0  0  0
   39.0820   24.0600   39.5720 N   0  0  0  0  0  0  0  0  0  0  0  0
   38.5130   22.9160   40.0580 C   0  0  0  0  0  0  0  0  0  0  0  0
   37.6810   23.2600   41.0750 N   0  0  0  0  0  0  0  0  0  0  0  0
   37.7080   24.5910   41.2460 C   0  0  0  0  0  0  0  0  0  0  0  0
   37.0050   25.3290   42.1720 C   0  0  0  0  0  0  0  0  0  0  0  0
   36.6630   27.3410   42.8750 H   0  0  0  0  0  0  0  0  0  0  0  0
   39.4310   26.9040   39.5960 H   0  0  0  0  0  0  0  0  0  0  0  0
   39.7650   24.1880   38.7980 H   0  0  0  0  0  0  0  0  0  0  0  0
   38.7340   21.9390   39.6530 H   0  0  0  0  0  0  0  0  0  0  0  0
   36.3330   24.8690   42.8830 H   0  0  0  0  0  0  0  0  0  0  0  0
   37.3060   31.5310   38.9790 C   0  0  0  0  0  0  0  0  0  0  0  0
   36.6540   32.6720   39.4680 F   0  0  0  0  0  0  0  0  0  0  0  0
   38.2830   31.9840   38.1250 F   0  0  0  0  0  0  0  0  0  0  0  0
   36.4110   30.7260   38.3360 F   0  0  0  0  0  0  0  0  0  0  0  0
   38.9010   32.7540   41.0300 O   0  0  0  0  0  0  0  0  0  0  0  0
   40.0840   33.2870   40.5520 C   0  0  0  0  0  0  0  0  0  0  0  0
   39.6970   34.5300   40.0670 C   0  0  0  0  0  0  0  0  0  0  0  0
   41.2500   35.2620   39.4270 S   0  0  0  0  0  0  0  0  0  0  0  0
   42.2000   33.7030   39.9420 C   0  0  0  0  0  0  0  0  0  0  0  0
   41.3570   33.1340   40.3660 N   0  0  0  0  0  0  0  0  0  0  0  0
   38.8900   35.3990   39.8350 H   0  0  0  0  0  0  0  0  0  0  0  0
   44.2300   34.1250   38.5460 C   0  0  2  0  0  3  0  0  0  0  0  0
   43.6730   33.4580   39.7600 C   0  0  2  0  0  3  0  0  0  0  0  0
   43.9570   31.9620   39.7470 C   0  0  0  0  0  3  0  0  0  0  0  0
   45.0740   31.8800   39.7950 H   0  0  0  0  0  0  0  0  0  0  0  0
   43.4350   31.3380   38.6220 O   0  0  0  0  0  0  0  0  0  0  0  0
   43.9860   31.8620   37.4620 C   0  0  0  0  0  3  0  0  0  0  0  0
   44.6080   31.0950   36.9650 H   0  0  0  0  0  0  0  0  0  0  0  0
   44.8880   33.0480   37.6980 C   0  0  1  0  0  3  0  0  0  0  0  0
   45.2130   35.0740   38.8240 O   0  0  0  0  0  0  0  0  0  0  0  0
   44.9140   35.8000   39.4060 H   0  0  0  0  0  0  0  0  0  0  0  0
   45.1080   33.6170   36.4320 O   0  0  0  0  0  0  0  0  0  0  0  0
   45.6310   32.9650   35.8880 H   0  0  0  0  0  0  0  0  0  0  0  0
  1  6  1  0  0  0  0
  1  7  1  0  0  0  0
  2  1  2  0  0  0  0
  3  4  2  0  0  0  0
  3  2  1  0  0  0  0
  4  5  1  0  0  0  0
  5  9  1  0  0  0  0
  5  6  2  0  0  0  0
  8 16  1  0  0  0  0
  8 17  1  0  0  0  0
  9  8  2  0  0  0  0
 10  9  1  0  0  0  0
 11 10  2  0  0  0  0
 11 15  1  0  0  0  0
 12 13  1  0  0  0  0
 12 11  1  0  0  0  0
 13 14  2  0  0  0  0
 14 15  1  0  0  0  0
 15 16  2  0  0  0  0
 16 21  1  0  0  0  0
 18 10  1  0  0  0  0
 19 12  1  0  0  0  0
 20 13  1  0  0  0  0
 22 23  1  0  0  0  0
 22  3  1  0  0  0  0
 24 22  1  0  0  0  0
 25 22  1  0  0  0  0
 26  2  1  0  0  0  0
 27 26  1  0  0  0  0
 28 27  2  0  0  0  0
 29 30  1  0  0  0  0
 29 28  1  0  0  0  0
 30 31  2  0  0  0  0
 31 27  1  0  0  0  0
 32 28  1  0  0  0  0
 33 41  1  1  0  0  0
 33 34  1  0  0  0  0
 34 30  1  6  0  0  0
 35 34  1  0  0  0  0
 35 36  1  0  0  0  0
 37 35  1  0  0  0  0
 38 40  1  0  0  0  0
 38 37  1  0  0  0  0
 39 38  1  0  0  0  0
 40 43  1  6  0  0  0
 40 33  1  0  0  0  0
 41 42  1  0  0  0  0
 44 43  1  0  0  0  0
M  END
>  <minimizedAffinity>
-7.19026232

$$$$
