
 OpenBabel03242523483D

 22 23  0  0  1  0  0  0  0  0999 V2000
   36.6960   29.5740   41.3970 C   0  0  1  0  0  3  0  0  0  0  0  0
   37.5550   29.8430   40.2000 C   0  0  2  0  0  3  0  0  0  0  0  0
   38.9260   29.1980   40.2880 C   0  0  0  0  0  3  0  0  0  0  0  0
   39.1910   28.8720   39.2610 H   0  0  0  0  0  0  0  0  0  0  0  0
   38.9380   28.0580   41.0700 O   0  0  0  0  0  0  0  0  0  0  0  0
   38.6360   28.3110   42.4030 C   0  0  0  0  0  3  0  0  0  0  0  0
   38.2700   27.3560   42.8420 H   0  0  0  0  0  0  0  0  0  0  0  0
   37.5800   29.3510   42.5980 C   0  0  2  0  0  3  0  0  0  0  0  0
   39.1130   33.2440   40.6580 C   0  0  0  0  0  0  0  0  0  0  0  0
   38.9360   31.8540   40.7610 C   0  0  0  0  0  0  0  0  0  0  0  0
   37.7950   31.3040   40.1250 C   0  0  0  0  0  0  0  0  0  0  0  0
   36.9530   32.1320   39.4640 N   0  0  0  0  0  0  0  0  0  0  0  0
   37.1670   33.4590   39.3940 C   0  0  0  0  0  0  0  0  0  0  0  0
   38.2350   34.0140   39.9830 N   0  0  0  0  0  0  0  0  0  0  0  0
   39.6250   31.2160   41.2950 H   0  0  0  0  0  0  0  0  0  0  0  0
   36.5120   34.1570   38.8720 H   0  0  0  0  0  0  0  0  0  0  0  0
   40.2130   33.7810   41.2700 O   0  0  0  0  0  0  0  0  0  0  0  0
   40.1850   33.9220   42.2720 H   0  0  0  0  0  0  0  0  0  0  0  0
   35.9420   30.7360   41.6700 O   0  0  0  0  0  0  0  0  0  0  0  0
   35.1760   30.5820   42.2440 H   0  0  0  0  0  0  0  0  0  0  0  0
   36.7570   28.9860   43.6620 O   0  0  0  0  0  0  0  0  0  0  0  0
   35.9940   29.5630   43.8120 H   0  0  0  0  0  0  0  0  0  0  0  0
  1 19  1  1  0  0  0
  1  8  1  0  0  0  0
  2 11  1  1  0  0  0
  2  3  1  0  0  0  0
  2  1  1  0  0  0  0
  3  5  1  0  0  0  0
  4  3  1  0  0  0  0
  5  6  1  0  0  0  0
  6  8  1  0  0  0  0
  6  7  1  0  0  0  0
  8 21  1  1  0  0  0
  9 10  1  0  0  0  0
  9 17  1  0  0  0  0
 10 15  1  0  0  0  0
 11 10  2  0  0  0  0
 12 11  1  0  0  0  0
 13 12  2  0  0  0  0
 13 14  1  0  0  0  0
 14  9  2  0  0  0  0
 16 13  1  0  0  0  0
 17 18  1  0  0  0  0
 19 20  1  0  0  0  0
 21 22  1  0  0  0  0
M  END
>  <minimizedAffinity>
-5.15931892

$$$$

 OpenBabel03242523483D

 22 23  0  0  1  0  0  0  0  0999 V2000
   36.2480   29.0520   41.1320 C   0  0  1  0  0  3  0  0  0  0  0  0
   37.1190   29.3960   39.9640 C   0  0  2  0  0  3  0  0  0  0  0  0
   38.3690   28.5410   39.8760 C   0  0  0  0  0  3  0  0  0  0  0  0
   38.5610   28.3690   38.7960 H   0  0  0  0  0  0  0  0  0  0  0  0
   38.2100   27.2900   40.4430 O   0  0  0  0  0  0  0  0  0  0  0  0
   37.9750   27.3400   41.8110 C   0  0  0  0  0  3  0  0  0  0  0  0
   37.4660   26.3900   42.0910 H   0  0  0  0  0  0  0  0  0  0  0  0
   37.1030   28.4790   42.2340 C   0  0  2  0  0  3  0  0  0  0  0  0
   37.4300   33.1380   39.6350 C   0  0  0  0  0  0  0  0  0  0  0  0
   36.9430   31.8360   39.4320 C   0  0  0  0  0  0  0  0  0  0  0  0
   37.5890   30.7910   40.1390 C   0  0  0  0  0  0  0  0  0  0  0  0
   38.6220   31.0990   40.9580 N   0  0  0  0  0  0  0  0  0  0  0  0
   39.0520   32.3640   41.1190 C   0  0  0  0  0  0  0  0  0  0  0  0
   38.4650   33.3770   40.4670 N   0  0  0  0  0  0  0  0  0  0  0  0
   36.1160   31.6190   38.7720 H   0  0  0  0  0  0  0  0  0  0  0  0
   39.8790   32.6500   41.7690 H   0  0  0  0  0  0  0  0  0  0  0  0
   36.8100   34.1500   38.9540 O   0  0  0  0  0  0  0  0  0  0  0  0
   37.0400   34.2850   37.9780 H   0  0  0  0  0  0  0  0  0  0  0  0
   35.6950   30.2470   41.6410 O   0  0  0  0  0  0  0  0  0  0  0  0
   34.9230   30.1130   42.2120 H   0  0  0  0  0  0  0  0  0  0  0  0
   36.2490   28.0600   43.2530 O   0  0  0  0  0  0  0  0  0  0  0  0
   35.5920   28.7110   43.5370 H   0  0  0  0  0  0  0  0  0  0  0  0
  1 19  1  1  0  0  0
  1  8  1  0  0  0  0
  2 11  1  1  0  0  0
  2  1  1  0  0  0  0
  3  2  1  0  0  0  0
  3  5  1  0  0  0  0
  4  3  1  0  0  0  0
  5  6  1  0  0  0  0
  6  7  1  0  0  0  0
  6  8  1  0  0  0  0
  8 21  1  1  0  0  0
  9 14  1  0  0  0  0
 10  9  2  0  0  0  0
 10 11  1  0  0  0  0
 11 12  2  0  0  0  0
 12 13  1  0  0  0  0
 13 16  1  0  0  0  0
 14 13  2  0  0  0  0
 15 10  1  0  0  0  0
 17  9  1  0  0  0  0
 18 17  1  0  0  0  0
 19 20  1  0  0  0  0
 21 22  1  0  0  0  0
M  END
>  <minimizedAffinity>
-5.08619356

$$$$

 OpenBabel03242523483D

 22 23  0  0  1  0  0  0  0  0999 V2000
   37.3560   29.2280   42.8170 C   0  0  1  0  0  3  0  0  0  0  0  0
   38.7450   28.6690   42.7940 C   0  0  2  0  0  3  0  0  0  0  0  0
   39.6810   29.4260   41.8700 C   0  0  0  0  0  3  0  0  0  0  0  0
   40.6770   29.4300   42.3600 H   0  0  0  0  0  0  0  0  0  0  0  0
   39.3250   30.7510   41.7070 O   0  0  0  0  0  0  0  0  0  0  0  0
   38.0920   30.9110   41.0850 C   0  0  0  0  0  3  0  0  0  0  0  0
   37.7140   31.9200   41.3640 H   0  0  0  0  0  0  0  0  0  0  0  0
   37.0720   29.8980   41.4960 C   0  0  2  0  0  3  0  0  0  0  0  0
   39.0130   24.9200   42.5210 C   0  0  0  0  0  0  0  0  0  0  0  0
   39.1020   26.2070   43.0750 C   0  0  0  0  0  0  0  0  0  0  0  0
   38.6750   27.2870   42.2630 C   0  0  0  0  0  0  0  0  0  0  0  0
   38.2100   27.0240   41.0190 N   0  0  0  0  0  0  0  0  0  0  0  0
   38.1450   25.7700   40.5330 C   0  0  0  0  0  0  0  0  0  0  0  0
   38.5390   24.7250   41.2720 N   0  0  0  0  0  0  0  0  0  0  0  0
   39.4760   26.3890   44.0720 H   0  0  0  0  0  0  0  0  0  0  0  0
   37.7770   25.5200   39.5370 H   0  0  0  0  0  0  0  0  0  0  0  0
   39.4240   23.8730   43.3010 O   0  0  0  0  0  0  0  0  0  0  0  0
   40.4180   23.6990   43.3860 H   0  0  0  0  0  0  0  0  0  0  0  0
   36.4470   28.1530   42.9190 O   0  0  0  0  0  0  0  0  0  0  0  0
   35.5590   28.4130   43.2080 H   0  0  0  0  0  0  0  0  0  0  0  0
   35.8230   30.5090   41.5960 O   0  0  0  0  0  0  0  0  0  0  0  0
   35.1120   29.9450   41.9350 H   0  0  0  0  0  0  0  0  0  0  0  0
  1 19  1  6  0  0  0
  2 11  1  6  0  0  0
  2  1  1  0  0  0  0
  3  4  1  0  0  0  0
  3  2  1  0  0  0  0
  5  3  1  0  0  0  0
  6  7  1  0  0  0  0
  6  8  1  0  0  0  0
  6  5  1  0  0  0  0
  8 21  1  1  0  0  0
  8  1  1  0  0  0  0
  9 10  1  0  0  0  0
  9 17  1  0  0  0  0
 10 15  1  0  0  0  0
 11 10  2  0  0  0  0
 12 11  1  0  0  0  0
 13 12  2  0  0  0  0
 13 14  1  0  0  0  0
 14  9  2  0  0  0  0
 16 13  1  0  0  0  0
 17 18  1  0  0  0  0
 19 20  1  0  0  0  0
 21 22  1  0  0  0  0
M  END
>  <minimizedAffinity>
-4.94961643

$$$$

 OpenBabel03242523483D

 22 23  0  0  1  0  0  0  0  0999 V2000
   36.9800   31.6110   39.7750 C   0  0  1  0  0  3  0  0  0  0  0  0
   38.2640   31.2680   39.0840 C   0  0  2  0  0  3  0  0  0  0  0  0
   38.6940   29.8290   39.2970 C   0  0  0  0  0  3  0  0  0  0  0  0
   39.1610   29.4930   38.3470 H   0  0  0  0  0  0  0  0  0  0  0  0
   37.6330   28.9760   39.5300 O   0  0  0  0  0  0  0  0  0  0  0  0
   36.9510   29.2650   40.7060 C   0  0  0  0  0  3  0  0  0  0  0  0
   35.9280   28.8370   40.6040 H   0  0  0  0  0  0  0  0  0  0  0  0
   36.8220   30.7270   40.9870 C   0  0  2  0  0  3  0  0  0  0  0  0
   41.0870   32.4520   41.2820 C   0  0  0  0  0  0  0  0  0  0  0  0
   40.0830   31.6160   40.7680 C   0  0  0  0  0  0  0  0  0  0  0  0
   39.3370   32.1070   39.6680 C   0  0  0  0  0  0  0  0  0  0  0  0
   39.6300   33.3350   39.1780 N   0  0  0  0  0  0  0  0  0  0  0  0
   40.6040   34.1000   39.7060 C   0  0  0  0  0  0  0  0  0  0  0  0
   41.3290   33.6670   40.7460 N   0  0  0  0  0  0  0  0  0  0  0  0
   39.8710   30.6390   41.1790 H   0  0  0  0  0  0  0  0  0  0  0  0
   40.8670   35.0920   39.3390 H   0  0  0  0  0  0  0  0  0  0  0  0
   41.8100   31.9830   42.3450 O   0  0  0  0  0  0  0  0  0  0  0  0
   41.3920   32.0250   43.2660 H   0  0  0  0  0  0  0  0  0  0  0  0
   37.0770   32.9330   40.2590 O   0  0  0  0  0  0  0  0  0  0  0  0
   36.2230   33.3360   40.4780 H   0  0  0  0  0  0  0  0  0  0  0  0
   35.5660   30.9880   41.5340 O   0  0  0  0  0  0  0  0  0  0  0  0
   35.3620   31.9240   41.6750 H   0  0  0  0  0  0  0  0  0  0  0  0
  1 19  1  1  0  0  0
  1  8  1  0  0  0  0
  2  3  1  0  0  0  0
  2 11  1  1  0  0  0
  2  1  1  0  0  0  0
  3  5  1  0  0  0  0
  4  3  1  0  0  0  0
  5  6  1  0  0  0  0
  6  8  1  0  0  0  0
  7  6  1  0  0  0  0
  8 21  1  6  0  0  0
  9 17  1  0  0  0  0
 10 15  1  0  0  0  0
 10  9  1  0  0  0  0
 11 10  2  0  0  0  0
 12 11  1  0  0  0  0
 12 13  2  0  0  0  0
 13 14  1  0  0  0  0
 14  9  2  0  0  0  0
 16 13  1  0  0  0  0
 17 18  1  0  0  0  0
 19 20  1  0  0  0  0
 21 22  1  0  0  0  0
M  END
>  <minimizedAffinity>
-4.84137249

$$$$

 OpenBabel03242523483D

 22 23  0  0  1  0  0  0  0  0999 V2000
   37.1930   30.5710   39.7600 C   0  0  1  0  0  3  0  0  0  0  0  0
   38.6240   30.1730   39.5750 C   0  0  2  0  0  3  0  0  0  0  0  0
   39.1860   29.3940   40.7490 C   0  0  0  0  0  3  0  0  0  0  0  0
   39.8780   28.6350   40.3260 H   0  0  0  0  0  0  0  0  0  0  0  0
   38.2210   28.6910   41.4450 O   0  0  0  0  0  0  0  0  0  0  0  0
   37.2800   29.5150   42.0510 C   0  0  0  0  0  3  0  0  0  0  0  0
   36.3650   28.9030   42.2130 H   0  0  0  0  0  0  0  0  0  0  0  0
   36.9060   30.7100   41.2340 C   0  0  2  0  0  3  0  0  0  0  0  0
   40.7750   32.9450   38.2010 C   0  0  0  0  0  0  0  0  0  0  0  0
   40.0170   31.7630   38.2350 C   0  0  0  0  0  0  0  0  0  0  0  0
   39.4350   31.4090   39.4780 C   0  0  0  0  0  0  0  0  0  0  0  0
   39.6370   32.2160   40.5460 N   0  0  0  0  0  0  0  0  0  0  0  0
   40.3730   33.3400   40.4620 C   0  0  0  0  0  0  0  0  0  0  0  0
   40.9380   33.7060   39.3030 N   0  0  0  0  0  0  0  0  0  0  0  0
   39.8720   31.1380   37.3660 H   0  0  0  0  0  0  0  0  0  0  0  0
   40.5570   34.0130   41.2990 H   0  0  0  0  0  0  0  0  0  0  0  0
   41.3400   33.2910   37.0030 O   0  0  0  0  0  0  0  0  0  0  0  0
   42.1860   32.8150   36.7150 H   0  0  0  0  0  0  0  0  0  0  0  0
   37.0140   31.8540   39.1990 O   0  0  0  0  0  0  0  0  0  0  0  0
   36.0880   32.0840   39.0280 H   0  0  0  0  0  0  0  0  0  0  0  0
   35.5410   30.9610   41.3740 O   0  0  0  0  0  0  0  0  0  0  0  0
   35.1920   31.6710   40.8160 H   0  0  0  0  0  0  0  0  0  0  0  0
  1 19  1  6  0  0  0
  1  8  1  0  0  0  0
  2 11  1  1  0  0  0
  2  1  1  0  0  0  0
  2  3  1  0  0  0  0
  3  5  1  0  0  0  0
  4  3  1  0  0  0  0
  5  6  1  0  0  0  0
  6  7  1  0  0  0  0
  8 21  1  6  0  0  0
  8  6  1  0  0  0  0
  9 10  2  0  0  0  0
  9 14  1  0  0  0  0
 10 11  1  0  0  0  0
 11 12  2  0  0  0  0
 13 12  1  0  0  0  0
 13 16  1  0  0  0  0
 14 13  2  0  0  0  0
 15 10  1  0  0  0  0
 17  9  1  0  0  0  0
 18 17  1  0  0  0  0
 20 19  1  0  0  0  0
 22 21  1  0  0  0  0
M  END
>  <minimizedAffinity>
-4.73635149

$$$$

 OpenBabel03242523483D

 22 23  0  0  1  0  0  0  0  0999 V2000
   37.6210   30.0800   41.7410 C   0  0  1  0  0  3  0  0  0  0  0  0
   38.6370   29.2120   41.0640 C   0  0  2  0  0  3  0  0  0  0  0  0
   38.5890   29.3030   39.5500 C   0  0  0  0  0  3  0  0  0  0  0  0
   39.6380   29.2300   39.1940 H   0  0  0  0  0  0  0  0  0  0  0  0
   38.1100   30.5170   39.0950 O   0  0  0  0  0  0  0  0  0  0  0  0
   36.7880   30.7480   39.4530 C   0  0  0  0  0  3  0  0  0  0  0  0
   36.6280   31.8500   39.4230 H   0  0  0  0  0  0  0  0  0  0  0  0
   36.4380   30.2620   40.8230 C   0  0  2  0  0  3  0  0  0  0  0  0
   37.2280   25.7200   40.9140 C   0  0  0  0  0  0  0  0  0  0  0  0
   37.4830   27.0520   40.5470 C   0  0  0  0  0  0  0  0  0  0  0  0
   38.3320   27.8020   41.3990 C   0  0  0  0  0  0  0  0  0  0  0  0
   38.8440   27.2030   42.5010 N   0  0  0  0  0  0  0  0  0  0  0  0
   38.5690   25.9220   42.8090 C   0  0  0  0  0  0  0  0  0  0  0  0
   37.7710   25.1830   42.0260 N   0  0  0  0  0  0  0  0  0  0  0  0
   37.0610   27.5040   39.6620 H   0  0  0  0  0  0  0  0  0  0  0  0
   38.9620   25.4070   43.6860 H   0  0  0  0  0  0  0  0  0  0  0  0
   36.4090   24.9920   40.0940 O   0  0  0  0  0  0  0  0  0  0  0  0
   35.4090   25.1360   40.1640 H   0  0  0  0  0  0  0  0  0  0  0  0
   37.1400   29.3940   42.8770 O   0  0  0  0  0  0  0  0  0  0  0  0
   36.6900   29.9640   43.5200 H   0  0  0  0  0  0  0  0  0  0  0  0
   35.5710   31.1680   41.4320 O   0  0  0  0  0  0  0  0  0  0  0  0
   35.3520   30.9750   42.3560 H   0  0  0  0  0  0  0  0  0  0  0  0
  1 19  1  1  0  0  0
  2 11  1  6  0  0  0
  2  1  1  0  0  0  0
  3  2  1  0  0  0  0
  4  3  1  0  0  0  0
  5  6  1  0  0  0  0
  5  3  1  0  0  0  0
  6  8  1  0  0  0  0
  7  6  1  0  0  0  0
  8 21  1  1  0  0  0
  8  1  1  0  0  0  0
  9 14  1  0  0  0  0
 10  9  2  0  0  0  0
 10 11  1  0  0  0  0
 11 12  2  0  0  0  0
 12 13  1  0  0  0  0
 13 16  1  0  0  0  0
 14 13  2  0  0  0  0
 15 10  1  0  0  0  0
 17 18  1  0  0  0  0
 17  9  1  0  0  0  0
 19 20  1  0  0  0  0
 21 22  1  0  0  0  0
M  END
>  <minimizedAffinity>
-4.68443394

$$$$

 OpenBabel03242523483D

 22 23  0  0  1  0  0  0  0  0999 V2000
   37.0520   25.3790   41.5380 C   0  0  1  0  0  3  0  0  0  0  0  0
   36.8920   26.3370   40.3990 C   0  0  2  0  0  3  0  0  0  0  0  0
   37.8430   26.0660   39.2490 C   0  0  0  0  0  3  0  0  0  0  0  0
   37.2860   26.2930   38.3160 H   0  0  0  0  0  0  0  0  0  0  0  0
   38.2210   24.7400   39.1600 O   0  0  0  0  0  0  0  0  0  0  0  0
   38.9480   24.3070   40.2630 C   0  0  0  0  0  3  0  0  0  0  0  0
   38.8470   23.2000   40.3070 H   0  0  0  0  0  0  0  0  0  0  0  0
   38.4730   24.8740   41.5620 C   0  0  2  0  0  3  0  0  0  0  0  0
   36.5880   29.9650   41.3750 C   0  0  0  0  0  0  0  0  0  0  0  0
   36.2200   28.6970   40.8970 C   0  0  0  0  0  0  0  0  0  0  0  0
   37.2220   27.6950   40.8930 C   0  0  0  0  0  0  0  0  0  0  0  0
   38.4600   28.0090   41.3430 N   0  0  0  0  0  0  0  0  0  0  0  0
   38.7640   29.2410   41.7920 C   0  0  0  0  0  0  0  0  0  0  0  0
   37.8410   30.2130   41.8110 N   0  0  0  0  0  0  0  0  0  0  0  0
   35.2240   28.4740   40.5430 H   0  0  0  0  0  0  0  0  0  0  0  0
   39.7480   29.5300   42.1620 H   0  0  0  0  0  0  0  0  0  0  0  0
   35.6240   30.9360   41.3800 O   0  0  0  0  0  0  0  0  0  0  0  0
   35.4030   31.3990   40.5080 H   0  0  0  0  0  0  0  0  0  0  0  0
   36.8640   26.0880   42.7440 O   0  0  0  0  0  0  0  0  0  0  0  0
   36.6820   25.5220   43.5100 H   0  0  0  0  0  0  0  0  0  0  0  0
   38.5550   23.8970   42.5540 O   0  0  0  0  0  0  0  0  0  0  0  0
   38.1920   24.1510   43.4150 H   0  0  0  0  0  0  0  0  0  0  0  0
  1  8  1  0  0  0  0
  1 19  1  1  0  0  0
  2 11  1  1  0  0  0
  2  1  1  0  0  0  0
  3  2  1  0  0  0  0
  4  3  1  0  0  0  0
  5  3  1  0  0  0  0
  5  6  1  0  0  0  0
  6  7  1  0  0  0  0
  6  8  1  0  0  0  0
  8 21  1  1  0  0  0
  9 17  1  0  0  0  0
  9 14  1  0  0  0  0
 10  9  2  0  0  0  0
 11 10  1  0  0  0  0
 11 12  2  0  0  0  0
 12 13  1  0  0  0  0
 13 14  2  0  0  0  0
 13 16  1  0  0  0  0
 15 10  1  0  0  0  0
 18 17  1  0  0  0  0
 19 20  1  0  0  0  0
 21 22  1  0  0  0  0
M  END
>  <minimizedAffinity>
-4.67805433

$$$$

 OpenBabel03242523483D

 22 23  0  0  1  0  0  0  0  0999 V2000
   37.6610   32.2860   38.5240 C   0  0  1  0  0  3  0  0  0  0  0  0
   37.4180   32.2880   40.0010 C   0  0  2  0  0  3  0  0  0  0  0  0
   38.6330   32.7080   40.8080 C   0  0  0  0  0  3  0  0  0  0  0  0
   38.2540   33.2930   41.6720 H   0  0  0  0  0  0  0  0  0  0  0  0
   39.4800   33.5500   40.1130 O   0  0  0  0  0  0  0  0  0  0  0  0
   40.0510   32.9470   38.9990 C   0  0  0  0  0  3  0  0  0  0  0  0
   40.3550   33.7630   38.3050 H   0  0  0  0  0  0  0  0  0  0  0  0
   39.1250   32.0310   38.2650 C   0  0  2  0  0  3  0  0  0  0  0  0
   37.8100   28.7540   41.2510 C   0  0  0  0  0  0  0  0  0  0  0  0
   38.1590   30.0600   40.8700 C   0  0  0  0  0  0  0  0  0  0  0  0
   37.1100   30.8990   40.4170 C   0  0  0  0  0  0  0  0  0  0  0  0
   35.8500   30.4050   40.3800 N   0  0  0  0  0  0  0  0  0  0  0  0
   35.5670   29.1450   40.7570 C   0  0  0  0  0  0  0  0  0  0  0  0
   36.5330   28.3240   41.1900 N   0  0  0  0  0  0  0  0  0  0  0  0
   39.1740   30.4280   40.9100 H   0  0  0  0  0  0  0  0  0  0  0  0
   34.5660   28.7130   40.7400 H   0  0  0  0  0  0  0  0  0  0  0  0
   38.8200   27.9400   41.6880 O   0  0  0  0  0  0  0  0  0  0  0  0
   39.4230   27.5090   40.9980 H   0  0  0  0  0  0  0  0  0  0  0  0
   36.9630   31.1950   37.9620 O   0  0  0  0  0  0  0  0  0  0  0  0
   36.8360   31.2600   37.0030 H   0  0  0  0  0  0  0  0  0  0  0  0
   39.3360   32.1560   36.8920 O   0  0  0  0  0  0  0  0  0  0  0  0
   38.7240   31.6560   36.3330 H   0  0  0  0  0  0  0  0  0  0  0  0
  1 19  1  6  0  0  0
  1  2  1  0  0  0  0
  2 11  1  1  0  0  0
  2  3  1  0  0  0  0
  3  4  1  0  0  0  0
  5  3  1  0  0  0  0
  6  5  1  0  0  0  0
  7  6  1  0  0  0  0
  8 21  1  6  0  0  0
  8  1  1  0  0  0  0
  8  6  1  0  0  0  0
  9 17  1  0  0  0  0
 10 15  1  0  0  0  0
 10  9  2  0  0  0  0
 11 10  1  0  0  0  0
 12 11  2  0  0  0  0
 12 13  1  0  0  0  0
 13 14  2  0  0  0  0
 14  9  1  0  0  0  0
 16 13  1  0  0  0  0
 18 17  1  0  0  0  0
 20 19  1  0  0  0  0
 22 21  1  0  0  0  0
M  END
>  <minimizedAffinity>
-4.5187664

$$$$

 OpenBabel03242523483D

 22 23  0  0  1  0  0  0  0  0999 V2000
   37.8900   28.8230   40.6500 C   0  0  1  0  0  3  0  0  0  0  0  0
   39.2660   29.3420   40.9320 C   0  0  2  0  0  3  0  0  0  0  0  0
   39.5790   29.4370   42.4130 C   0  0  0  0  0  3  0  0  0  0  0  0
   40.6510   29.1710   42.5300 H   0  0  0  0  0  0  0  0  0  0  0  0
   38.8700   28.5280   43.1760 O   0  0  0  0  0  0  0  0  0  0  0  0
   37.4980   28.7430   43.1420 C   0  0  0  0  0  3  0  0  0  0  0  0
   37.0090   27.7800   43.4110 H   0  0  0  0  0  0  0  0  0  0  0  0
   36.9850   29.1720   41.8050 C   0  0  2  0  0  3  0  0  0  0  0  0
   39.1330   33.1010   40.7040 C   0  0  0  0  0  0  0  0  0  0  0  0
   39.0340   31.8130   41.2550 C   0  0  0  0  0  0  0  0  0  0  0  0
   39.3530   30.7240   40.4050 C   0  0  0  0  0  0  0  0  0  0  0  0
   39.7300   30.9810   39.1310 N   0  0  0  0  0  0  0  0  0  0  0  0
   39.8100   32.2350   38.6490 C   0  0  0  0  0  0  0  0  0  0  0  0
   39.5160   33.2880   39.4240 N   0  0  0  0  0  0  0  0  0  0  0  0
   38.7300   31.6380   42.2770 H   0  0  0  0  0  0  0  0  0  0  0  0
   40.1090   32.4800   37.6300 H   0  0  0  0  0  0  0  0  0  0  0  0
   38.8260   34.1560   41.5210 O   0  0  0  0  0  0  0  0  0  0  0  0
   37.8500   34.3700   41.6840 H   0  0  0  0  0  0  0  0  0  0  0  0
   37.3800   29.5090   39.5260 O   0  0  0  0  0  0  0  0  0  0  0  0
   36.6250   29.0710   39.1060 H   0  0  0  0  0  0  0  0  0  0  0  0
   35.7500   28.5730   41.5650 O   0  0  0  0  0  0  0  0  0  0  0  0
   35.3770   28.7310   40.6860 H   0  0  0  0  0  0  0  0  0  0  0  0
  1 19  1  6  0  0  0
  1  2  1  0  0  0  0
  1  8  1  0  0  0  0
  2 11  1  1  0  0  0
  2  3  1  0  0  0  0
  3  4  1  0  0  0  0
  3  5  1  0  0  0  0
  6  5  1  0  0  0  0
  6  7  1  0  0  0  0
  8 21  1  6  0  0  0
  8  6  1  0  0  0  0
  9 10  1  0  0  0  0
  9 17  1  0  0  0  0
 10 15  1  0  0  0  0
 11 10  2  0  0  0  0
 12 11  1  0  0  0  0
 13 12  2  0  0  0  0
 13 14  1  0  0  0  0
 14  9  2  0  0  0  0
 16 13  1  0  0  0  0
 17 18  1  0  0  0  0
 20 19  1  0  0  0  0
 22 21  1  0  0  0  0
M  END
>  <minimizedAffinity>
-4.39362383

$$$$
