
 OpenBabel03252506283D

 50 54  0  0  1  0  0  0  0  0999 V2000
   46.2690   32.9000   45.9710 C   0  0  0  0  0  0  0  0  0  0  0  0
   47.2840   31.9870   45.6360 C   0  0  0  0  0  0  0  0  0  0  0  0
   47.4510   31.1280   46.6640 C   0  0  0  0  0  0  0  0  0  0  0  0
   46.5780   31.4900   47.5990 N   0  0  0  0  0  0  0  0  0  0  0  0
   45.8670   32.5420   47.2030 N   0  0  0  0  0  0  0  0  0  0  0  0
   47.8270   31.9910   44.7070 H   0  0  0  0  0  0  0  0  0  0  0  0
   48.1620   30.3210   46.6840 H   0  0  0  0  0  0  0  0  0  0  0  0
   44.4900   35.8750   44.8200 C   0  0  0  0  0  0  0  0  0  0  0  0
   44.9230   36.0200   43.5150 C   0  0  0  0  0  0  0  0  0  0  0  0
   45.8350   35.0880   43.0220 C   0  0  0  0  0  0  0  0  0  0  0  0
   46.2260   34.1090   43.8670 N   0  0  0  0  0  0  0  0  0  0  0  0
   45.8120   33.9700   45.1170 C   0  0  0  0  0  0  0  0  0  0  0  0
   44.9350   34.8680   45.5880 N   0  0  0  0  0  0  0  0  0  0  0  0
   43.7810   36.6220   45.1600 H   0  0  0  0  0  0  0  0  0  0  0  0
   44.6240   36.7860   42.8330 H   0  0  0  0  0  0  0  0  0  0  0  0
   46.0440   33.8370   40.8990 C   0  0  2  0  0  3  0  0  0  0  0  0
   46.4100   35.0880   41.6390 C   0  0  2  0  0  3  0  0  0  0  0  0
   47.8920   35.3080   41.7740 C   0  0  0  0  0  3  0  0  0  0  0  0
   48.0220   36.3780   42.0520 H   0  0  0  0  0  0  0  0  0  0  0  0
   48.6050   35.0590   40.6230 O   0  0  0  0  0  0  0  0  0  0  0  0
   48.3270   33.8460   40.0430 C   0  0  0  0  0  3  0  0  0  0  0  0
   47.9960   33.9550   38.9780 H   0  0  0  0  0  0  0  0  0  0  0  0
   47.3100   33.0180   40.7590 C   0  0  2  0  0  3  0  0  0  0  0  0
   45.5650   34.1220   39.6300 O   0  0  0  0  0  0  0  0  0  0  0  0
   45.7410   35.0840   39.4500 H   0  0  0  0  0  0  0  0  0  0  0  0
   47.0830   31.8650   40.0150 O   0  0  0  0  0  0  0  0  0  0  0  0
   46.4430   32.0260   39.2630 H   0  0  0  0  0  0  0  0  0  0  0  0
   46.3990   30.8420   48.8930 C   0  0  0  0  0  0  0  0  0  0  0  0
   46.4800   31.6300   49.6650 H   0  0  0  0  0  0  0  0  0  0  0  0
   47.1540   30.0620   49.0400 H   0  0  0  0  0  0  0  0  0  0  0  0
   45.0540   30.2300   48.9960 C   0  0  0  0  0  0  0  0  0  0  0  0
   44.2950   31.0300   48.7630 H   0  0  0  0  0  0  0  0  0  0  0  0
   44.8700   30.0160   50.0870 H   0  0  0  0  0  0  0  0  0  0  0  0
   44.9280   27.7070   48.6390 C   0  0  0  0  0  0  0  0  0  0  0  0
   44.8150   29.0200   48.2380 C   0  0  0  0  0  0  0  0  0  0  0  0
   44.4140   29.2280   46.9210 C   0  0  0  0  0  0  0  0  0  0  0  0
   44.1480   28.1860   46.0720 C   0  0  0  0  0  0  0  0  0  0  0  0
   43.7540   28.0880   44.7810 N   0  0  0  0  0  0  0  0  0  0  0  0
   43.6290   26.8120   44.4010 C   0  0  0  0  0  0  0  0  0  0  0  0
   43.9550   25.9960   45.4840 C   0  0  0  0  0  0  0  0  0  0  0  0
   44.2610   26.8870   46.4690 C   0  0  0  0  0  0  0  0  0  0  0  0
   44.6580   26.6680   47.7730 C   0  0  0  0  0  0  0  0  0  0  0  0
   45.2420   27.5790   49.6700 H   0  0  0  0  0  0  0  0  0  0  0  0
   44.2820   30.2120   46.4690 H   0  0  0  0  0  0  0  0  0  0  0  0
   43.5630   28.9160   44.1410 H   0  0  0  0  0  0  0  0  0  0  0  0
   43.3260   26.4630   43.4160 H   0  0  0  0  0  0  0  0  0  0  0  0
   43.9370   24.9200   45.4480 H   0  0  0  0  0  0  0  0  0  0  0  0
   44.7990   25.2940   48.2650 C   0  0  0  0  0  0  0  0  0  0  0  0
   45.2410   25.0540   49.4150 O   0  0  0  0  0  0  0  0  0  0  0  0
   44.5210   24.4580   47.6350 H   0  0  0  0  0  0  0  0  0  0  0  0
  1  5  2  0  0  0  0
  2  1  1  0  0  0  0
  2  3  2  0  0  0  0
  3  7  1  0  0  0  0
  3  4  1  0  0  0  0
  4 28  1  0  0  0  0
  5  4  1  0  0  0  0
  6  2  1  0  0  0  0
  8 14  1  0  0  0  0
  8 13  1  0  0  0  0
  9  8  2  0  0  0  0
 10  9  1  0  0  0  0
 10 11  2  0  0  0  0
 11 12  1  0  0  0  0
 12 13  2  0  0  0  0
 12  1  1  0  0  0  0
 15  9  1  0  0  0  0
 16 24  1  6  0  0  0
 16 17  1  0  0  0  0
 17 18  1  0  0  0  0
 17 10  1  1  0  0  0
 18 19  1  0  0  0  0
 20 18  1  0  0  0  0
 21 20  1  0  0  0  0
 21 23  1  0  0  0  0
 22 21  1  0  0  0  0
 23 26  1  6  0  0  0
 23 16  1  0  0  0  0
 25 24  1  0  0  0  0
 27 26  1  0  0  0  0
 28 31  1  0  0  0  0
 28 30  1  0  0  0  0
 28 29  1  0  0  0  0
 31 33  1  0  0  0  0
 32 31  1  0  0  0  0
 34 43  1  0  0  0  0
 35 34  1  0  0  0  0
 35 31  1  0  0  0  0
 36 35  2  0  0  0  0
 37 41  2  0  0  0  0
 37 36  1  0  0  0  0
 38 37  1  0  0  0  0
 39 38  1  0  0  0  0
 39 40  2  0  0  0  0
 40 41  1  0  0  0  0
 41 42  1  0  0  0  0
 42 48  1  0  0  0  0
 42 34  2  0  0  0  0
 44 36  1  0  0  0  0
 45 38  1  0  0  0  0
 46 39  1  0  0  0  0
 47 40  1  0  0  0  0
 48 49  2  0  0  0  0
 50 48  1  0  0  0  0
M  END
>  <minimizedAffinity>
-6.37506676

>  <minimizedRMSD>
1.0733459

$$$$
