
 OpenBabel03242523383D

 22 23  0  0  1  0  0  0  0  0999 V2000
   45.5700   32.9560   47.8490 C   0  0  2  0  0  3  0  0  0  0  0  0
   46.5010   33.0450   46.6670 C   0  0  1  0  0  3  0  0  0  0  0  0
   47.1650   31.7170   46.4660 C   0  0  0  0  0  3  0  0  0  0  0  0
   46.5620   31.0460   45.7970 H   0  0  0  0  0  0  0  0  0  0  0  0
   47.2340   31.0950   47.7290 O   0  0  0  0  0  0  0  0  0  0  0  0
   45.9810   30.5000   47.9570 C   0  0  0  0  0  3  0  0  0  0  0  0
   46.0400   29.9100   48.8960 H   0  0  0  0  0  0  0  0  0  0  0  0
   44.9380   31.5830   48.0100 C   0  0  1  0  0  3  0  0  0  0  0  0
   44.7480   35.2040   44.2000 C   0  0  0  0  0  0  0  0  0  0  0  0
   44.5230   34.2970   43.1270 C   0  0  0  0  0  0  0  0  0  0  0  0
   44.9760   32.9810   43.2800 C   0  0  0  0  0  0  0  0  0  0  0  0
   45.6040   32.6410   44.4420 N   0  0  0  0  0  0  0  0  0  0  0  0
   45.7990   33.5390   45.4440 C   0  0  0  0  0  0  0  0  0  0  0  0
   45.3790   34.8000   45.3280 N   0  0  0  0  0  0  0  0  0  0  0  0
   44.3930   36.2160   44.0680 H   0  0  0  0  0  0  0  0  0  0  0  0
   44.0170   34.6330   42.2310 H   0  0  0  0  0  0  0  0  0  0  0  0
   44.7240   31.7960   41.9700 S   0  0  0  0  0  0  0  0  0  0  0  0
   45.0130   32.4100   40.7390 H   0  0  0  0  0  0  0  0  0  0  0  0
   44.5900   33.9220   47.8270 O   0  0  0  0  0  0  0  0  0  0  0  0
   44.1590   34.0600   46.9510 H   0  0  0  0  0  0  0  0  0  0  0  0
   44.3720   31.5660   49.2960 O   0  0  0  0  0  0  0  0  0  0  0  0
   44.0590   32.4890   49.5160 H   0  0  0  0  0  0  0  0  0  0  0  0
  1 19  1  6  0  0  0
  1  8  1  0  0  0  0
  2 13  1  6  0  0  0
  2  1  1  0  0  0  0
  3  2  1  0  0  0  0
  3  5  1  0  0  0  0
  4  3  1  0  0  0  0
  5  6  1  0  0  0  0
  6  8  1  0  0  0  0
  6  7  1  0  0  0  0
  8 21  1  1  0  0  0
  9 14  1  0  0  0  0
 10 11  1  0  0  0  0
 10  9  2  0  0  0  0
 11 12  2  0  0  0  0
 12 13  1  0  0  0  0
 14 13  2  0  0  0  0
 15  9  1  0  0  0  0
 16 10  1  0  0  0  0
 17 11  1  0  0  0  0
 18 17  1  0  0  0  0
 20 19  1  0  0  0  0
 21 22  1  0  0  0  0
M  END
>  <minimizedAffinity>
-4.76151752

>  <minimizedRMSD>
1.74722493

$$$$
