
 OpenBabel03252507433D

 34 36  0  0  1  0  0  0  0  0999 V2000
   44.2760   34.6420   41.1580 C   0  0  0  0  0  0  0  0  0  0  0  0
   43.3600   35.6400   41.6250 C   0  0  0  0  0  0  0  0  0  0  0  0
   41.8420   35.2920   40.6320 S   0  0  0  0  0  0  0  0  0  0  0  0
   42.7150   33.8620   39.7630 C   0  0  0  0  0  0  0  0  0  0  0  0
   43.7490   33.8680   40.2360 N   0  0  0  0  0  0  0  0  0  0  0  0
   43.5780   36.3830   42.3810 H   0  0  0  0  0  0  0  0  0  0  0  0
   41.0620   32.0460   39.3760 C   0  0  1  0  0  3  0  0  0  0  0  0
   42.0410   33.0240   38.7170 C   0  0  2  0  0  3  0  0  0  0  0  0
   43.1090   32.2360   38.0390 C   0  0  0  0  0  3  0  0  0  0  0  0
   43.2010   32.5980   36.9880 H   0  0  0  0  0  0  0  0  0  0  0  0
   42.7030   30.8930   37.9050 O   0  0  0  0  0  0  0  0  0  0  0  0
   41.4470   30.8040   37.3150 C   0  0  0  0  0  3  0  0  0  0  0  0
   41.3860   31.4070   36.3730 H   0  0  0  0  0  0  0  0  0  0  0  0
   40.4080   31.2460   38.2970 C   0  0  2  0  0  3  0  0  0  0  0  0
   41.7620   31.3230   40.3110 O   0  0  0  0  0  0  0  0  0  0  0  0
   41.3240   31.2710   41.1930 H   0  0  0  0  0  0  0  0  0  0  0  0
   39.4410   32.0820   37.6920 O   0  0  0  0  0  0  0  0  0  0  0  0
   39.1670   32.7800   38.3340 H   0  0  0  0  0  0  0  0  0  0  0  0
   45.6470   34.5500   41.6990 C   0  0  0  0  0  0  0  0  0  0  0  0
   45.9040   35.4820   42.2410 H   0  0  0  0  0  0  0  0  0  0  0  0
   45.6250   33.6980   42.4290 H   0  0  0  0  0  0  0  0  0  0  0  0
   46.7100   34.2560   40.7080 C   0  0  0  0  0  0  0  0  0  0  0  0
   46.7780   35.1590   40.0330 H   0  0  0  0  0  0  0  0  0  0  0  0
   46.4850   33.4270   40.0490 H   0  0  0  0  0  0  0  0  0  0  0  0
   48.0700   34.1380   41.2990 C   0  0  0  0  0  0  0  0  0  0  0  0
   48.7440   32.9310   41.1130 C   0  0  0  0  0  0  0  0  0  0  0  0
   50.0090   32.7750   41.6410 C   0  0  0  0  0  0  0  0  0  0  0  0
   50.5570   33.8220   42.3350 N   0  0  0  0  0  0  0  0  0  0  0  0
   49.8680   34.9770   42.4950 C   0  0  0  0  0  0  0  0  0  0  0  0
   48.6580   35.1210   41.9860 N   0  0  0  0  0  0  0  0  0  0  0  0
   50.5610   31.8580   41.5180 H   0  0  0  0  0  0  0  0  0  0  0  0
   50.3060   35.8090   43.0480 H   0  0  0  0  0  0  0  0  0  0  0  0
   47.9540   31.6020   40.1880 S   0  0  0  0  0  0  0  0  0  0  0  0
   47.8530   30.4480   41.0150 H   0  0  0  0  0  0  0  0  0  0  0  0
  1  2  2  0  0  0  0
  1 19  1  0  0  0  0
  2  6  1  0  0  0  0
  3  2  1  0  0  0  0
  4  5  2  0  0  0  0
  4  3  1  0  0  0  0
  5  1  1  0  0  0  0
  7 15  1  1  0  0  0
  8  7  1  0  0  0  0
  8  4  1  1  0  0  0
  9  8  1  0  0  0  0
 10  9  1  0  0  0  0
 11  9  1  0  0  0  0
 12 11  1  0  0  0  0
 12 14  1  0  0  0  0
 13 12  1  0  0  0  0
 14 17  1  6  0  0  0
 14  7  1  0  0  0  0
 15 16  1  0  0  0  0
 17 18  1  0  0  0  0
 19 20  1  0  0  0  0
 19 21  1  0  0  0  0
 22 25  1  0  0  0  0
 22 19  1  0  0  0  0
 23 22  1  0  0  0  0
 24 22  1  0  0  0  0
 25 30  1  0  0  0  0
 26 25  2  0  0  0  0
 26 27  1  0  0  0  0
 27 28  2  0  0  0  0
 28 29  1  0  0  0  0
 29 32  1  0  0  0  0
 30 29  2  0  0  0  0
 31 27  1  0  0  0  0
 33 34  1  0  0  0  0
 33 26  1  0  0  0  0
M  END
>  <minimizedAffinity>
-4.43890715

>  <minimizedRMSD>
0.920856476

$$$$
