
 OpenBabel03252504343D

 43 45  0  0  1  0  0  0  0  0999 V2000
   37.5680   32.8530   39.3430 C   0  0  0  0  0  0  0  0  0  0  0  0
   38.2250   33.7030   39.6630 H   0  0  0  0  0  0  0  0  0  0  0  0
   36.5250   33.2040   39.4800 H   0  0  0  0  0  0  0  0  0  0  0  0
   36.7170   30.9270   40.5900 C   0  0  0  0  0  0  0  0  0  0  0  0
   37.8010   31.8160   40.4030 C   0  0  0  0  0  0  0  0  0  0  0  0
   38.8970   31.6330   41.1830 C   0  0  0  0  0  0  0  0  0  0  0  0
   38.8670   30.6390   42.0560 N   0  0  0  0  0  0  0  0  0  0  0  0
   37.8580   29.8080   42.2330 C   0  0  0  0  0  0  0  0  0  0  0  0
   36.6990   29.9280   41.4740 N   0  0  0  0  0  0  0  0  0  0  0  0
   35.8090   31.0100   40.0050 H   0  0  0  0  0  0  0  0  0  0  0  0
   39.6930   32.3430   40.9950 H   0  0  0  0  0  0  0  0  0  0  0  0
   36.7660   27.7460   43.0210 C   0  0  1  0  0  3  0  0  0  0  0  0
   37.9000   28.7090   43.2400 C   0  0  1  0  0  3  0  0  0  0  0  0
   39.2280   27.9690   43.1840 C   0  0  0  0  0  3  0  0  0  0  0  0
   40.0460   28.6170   43.6020 H   0  0  0  0  0  0  0  0  0  0  0  0
   39.1700   26.7620   43.8480 O   0  0  0  0  0  0  0  0  0  0  0  0
   38.4430   25.8830   43.0740 C   0  0  0  0  0  3  0  0  0  0  0  0
   39.1490   25.4250   42.3400 H   0  0  0  0  0  0  0  0  0  0  0  0
   37.2640   26.4820   42.3810 C   0  0  2  0  0  3  0  0  0  0  0  0
   36.0560   27.4860   44.1950 O   0  0  0  0  0  0  0  0  0  0  0  0
   36.6180   27.3900   44.9840 H   0  0  0  0  0  0  0  0  0  0  0  0
   37.6150   26.7950   41.0480 O   0  0  0  0  0  0  0  0  0  0  0  0
   36.7710   26.9050   40.5280 H   0  0  0  0  0  0  0  0  0  0  0  0
   37.7520   32.3640   38.0840 O   0  0  0  0  0  0  0  0  0  0  0  0
   38.8670   31.7240   37.5660 C   0  0  0  0  0  3  0  0  0  0  0  0
   40.0030   32.4120   37.6100 C   0  0  0  0  0  3  0  0  0  0  0  0
   41.3520   31.9290   37.1100 C   0  0  0  0  0  0  0  0  0  0  0  0
   41.6340   32.4720   36.1910 H   0  0  0  0  0  0  0  0  0  0  0  0
   41.2010   30.8490   36.8910 H   0  0  0  0  0  0  0  0  0  0  0  0
   42.2510   32.0800   38.1470 O   0  0  0  0  0  0  0  0  0  0  0  0
   44.6530   32.8660   37.3080 O   0  0  0  0  0  0  0  0  0  0  0  0
   43.3190   33.3460   37.8310 P   0  0  1  0  0  0  0  0  0  0  0  0
   42.6660   34.3800   36.6410 O   0  0  0  0  0  0  0  0  0  0  0  0
   41.8480   34.7590   37.0490 H   0  0  0  0  0  0  0  0  0  0  0  0
   43.5450   34.2780   39.2200 O   0  0  0  0  0  0  0  0  0  0  0  0
   42.6040   34.0110   40.1900 C   0  0  0  0  0  0  0  0  0  0  0  0
   42.0190   35.1430   40.9750 C   0  0  0  0  0  0  0  0  0  0  0  0
   43.0460   34.2370   41.6140 C   0  0  0  0  0  0  0  0  0  0  0  0
   41.9660   33.1350   39.9920 H   0  0  0  0  0  0  0  0  0  0  0  0
   42.2920   36.1730   40.6950 H   0  0  0  0  0  0  0  0  0  0  0  0
   40.9900   34.9780   41.3460 H   0  0  0  0  0  0  0  0  0  0  0  0
   42.7200   33.5290   42.4140 H   0  0  0  0  0  0  0  0  0  0  0  0
   44.0200   34.7460   41.7950 H   0  0  0  0  0  0  0  0  0  0  0  0
  1  3  1  0  0  0  0
  1  2  1  0  0  0  0
  1  5  1  0  0  0  0
  4  9  1  0  0  0  0
  5  4  2  0  0  0  0
  5  6  1  0  0  0  0
  6  7  2  0  0  0  0
  7  8  1  0  0  0  0
  9  8  2  0  0  0  0
 10  4  1  0  0  0  0
 11  6  1  0  0  0  0
 12 13  1  0  0  0  0
 12 20  1  1  0  0  0
 13  8  1  6  0  0  0
 14 13  1  0  0  0  0
 14 15  1  0  0  0  0
 14 16  1  0  0  0  0
 17 16  1  0  0  0  0
 18 17  1  0  0  0  0
 19 22  1  6  0  0  0
 19 12  1  0  0  0  0
 19 17  1  0  0  0  0
 20 21  1  0  0  0  0
 23 22  1  0  0  0  0
 24  1  1  0  0  0  0
 25 26  2  0  0  0  0
 25 24  1  0  0  0  0
 27 26  1  0  0  0  0
 27 30  1  0  0  0  0
 28 27  1  0  0  0  0
 29 27  1  0  0  0  0
 32 31  2  6  0  0  0
 32 30  1  0  0  0  0
 32 35  1  0  0  0  0
 33 34  1  0  0  0  0
 33 32  1  0  0  0  0
 35 36  1  0  0  0  0
 36 37  1  0  0  0  0
 36 38  1  0  0  0  0
 37 41  1  0  0  0  0
 37 38  1  0  0  0  0
 38 43  1  0  0  0  0
 38 42  1  0  0  0  0
 39 36  1  0  0  0  0
 40 37  1  0  0  0  0
M  END
>  <minimizedAffinity>
-5.75074148

$$$$

 OpenBabel03252504343D

 43 45  0  0  1  0  0  0  0  0999 V2000
   35.3530   29.0310   37.5460 C   0  0  0  0  0  0  0  0  0  0  0  0
   35.4300   29.2910   36.4590 H   0  0  0  0  0  0  0  0  0  0  0  0
   34.3130   29.2730   37.8470 H   0  0  0  0  0  0  0  0  0  0  0  0
   35.9050   30.2960   39.5670 C   0  0  0  0  0  0  0  0  0  0  0  0
   36.2270   30.0530   38.2120 C   0  0  0  0  0  0  0  0  0  0  0  0
   37.2620   30.7550   37.6830 C   0  0  0  0  0  0  0  0  0  0  0  0
   37.8890   31.6100   38.4760 N   0  0  0  0  0  0  0  0  0  0  0  0
   37.5910   31.8390   39.7410 C   0  0  0  0  0  0  0  0  0  0  0  0
   36.5440   31.1610   40.3560 N   0  0  0  0  0  0  0  0  0  0  0  0
   35.0920   29.7750   40.0580 H   0  0  0  0  0  0  0  0  0  0  0  0
   37.4620   30.5280   36.6440 H   0  0  0  0  0  0  0  0  0  0  0  0
   39.8160   32.5060   40.5570 C   0  0  1  0  0  3  0  0  0  0  0  0
   38.3460   32.8210   40.5710 C   0  0  1  0  0  3  0  0  0  0  0  0
   38.1150   34.2420   40.0790 C   0  0  0  0  0  3  0  0  0  0  0  0
   37.0700   34.5700   40.3330 H   0  0  0  0  0  0  0  0  0  0  0  0
   39.0440   35.1200   40.5970 O   0  0  0  0  0  0  0  0  0  0  0  0
   40.2430   34.9010   39.9530 C   0  0  0  0  0  3  0  0  0  0  0  0
   40.2280   35.5000   39.0110 H   0  0  0  0  0  0  0  0  0  0  0  0
   40.5530   33.4680   39.6710 C   0  0  2  0  0  3  0  0  0  0  0  0
   40.3610   32.4640   41.8420 O   0  0  0  0  0  0  0  0  0  0  0  0
   40.0280   33.1590   42.4370 H   0  0  0  0  0  0  0  0  0  0  0  0
   40.2000   33.1660   38.3370 O   0  0  0  0  0  0  0  0  0  0  0  0
   40.6740   32.3280   38.0770 H   0  0  0  0  0  0  0  0  0  0  0  0
   35.6740   27.7560   37.9060 O   0  0  0  0  0  0  0  0  0  0  0  0
   36.7490   27.3240   38.6680 C   0  0  0  0  0  3  0  0  0  0  0  0
   36.4490   26.8070   39.8540 C   0  0  0  0  0  3  0  0  0  0  0  0
   37.4450   26.2650   40.8630 C   0  0  0  0  0  0  0  0  0  0  0  0
   38.4770   26.4890   40.5380 H   0  0  0  0  0  0  0  0  0  0  0  0
   37.2710   25.1670   40.8690 H   0  0  0  0  0  0  0  0  0  0  0  0
   37.1180   26.8030   42.0920 O   0  0  0  0  0  0  0  0  0  0  0  0
   38.8050   28.6610   41.2030 O   0  0  0  0  0  0  0  0  0  0  0  0
   38.0580   28.1630   42.4180 P   0  0  1  0  0  0  0  0  0  0  0  0
   37.0670   29.4470   42.9470 O   0  0  0  0  0  0  0  0  0  0  0  0
   36.6700   29.1340   43.7990 H   0  0  0  0  0  0  0  0  0  0  0  0
   39.1440   27.8350   43.6680 O   0  0  0  0  0  0  0  0  0  0  0  0
   40.2760   27.1900   43.2230 C   0  0  0  0  0  0  0  0  0  0  0  0
   40.4950   25.7550   43.5920 C   0  0  0  0  0  0  0  0  0  0  0  0
   41.2910   26.8380   44.2820 C   0  0  0  0  0  0  0  0  0  0  0  0
   40.6600   27.5380   42.2510 H   0  0  0  0  0  0  0  0  0  0  0  0
   39.6980   25.2260   44.1380 H   0  0  0  0  0  0  0  0  0  0  0  0
   41.0860   25.1670   42.8650 H   0  0  0  0  0  0  0  0  0  0  0  0
   42.3810   26.9360   44.0580 H   0  0  0  0  0  0  0  0  0  0  0  0
   41.0110   26.9680   45.3520 H   0  0  0  0  0  0  0  0  0  0  0  0
  1  3  1  0  0  0  0
  1 24  1  0  0  0  0
  1  5  1  0  0  0  0
  2  1  1  0  0  0  0
  4 10  1  0  0  0  0
  4  9  1  0  0  0  0
  5  4  2  0  0  0  0
  6  5  1  0  0  0  0
  6  7  2  0  0  0  0
  7  8  1  0  0  0  0
  8  9  2  0  0  0  0
 11  6  1  0  0  0  0
 12 13  1  0  0  0  0
 12 20  1  1  0  0  0
 13  8  1  6  0  0  0
 14 15  1  0  0  0  0
 14 13  1  0  0  0  0
 14 16  1  0  0  0  0
 17 16  1  0  0  0  0
 18 17  1  0  0  0  0
 19 22  1  6  0  0  0
 19 17  1  0  0  0  0
 19 12  1  0  0  0  0
 20 21  1  0  0  0  0
 23 22  1  0  0  0  0
 24 25  1  0  0  0  0
 25 26  2  0  0  0  0
 26 27  1  0  0  0  0
 27 29  1  0  0  0  0
 27 30  1  0  0  0  0
 28 27  1  0  0  0  0
 30 32  1  0  0  0  0
 32 31  2  6  0  0  0
 32 33  1  0  0  0  0
 32 35  1  0  0  0  0
 33 34  1  0  0  0  0
 36 37  1  0  0  0  0
 36 35  1  0  0  0  0
 36 38  1  0  0  0  0
 37 40  1  0  0  0  0
 37 38  1  0  0  0  0
 38 43  1  0  0  0  0
 39 36  1  0  0  0  0
 41 37  1  0  0  0  0
 42 38  1  0  0  0  0
M  END
>  <minimizedAffinity>
-5.56351995

$$$$

 OpenBabel03252504343D

 43 45  0  0  1  0  0  0  0  0999 V2000
   35.9930   28.7270   38.2880 C   0  0  0  0  0  0  0  0  0  0  0  0
   35.2790   29.2960   37.6380 H   0  0  0  0  0  0  0  0  0  0  0  0
   35.3960   28.3480   39.1410 H   0  0  0  0  0  0  0  0  0  0  0  0
   36.3300   30.4950   39.9460 C   0  0  0  0  0  0  0  0  0  0  0  0
   36.8840   29.7980   38.8470 C   0  0  0  0  0  0  0  0  0  0  0  0
   38.1240   30.1680   38.4370 C   0  0  0  0  0  0  0  0  0  0  0  0
   38.7180   31.1500   39.0960 N   0  0  0  0  0  0  0  0  0  0  0  0
   38.2040   31.8030   40.1210 C   0  0  0  0  0  0  0  0  0  0  0  0
   36.9390   31.4840   40.6020 N   0  0  0  0  0  0  0  0  0  0  0  0
   35.3460   30.2570   40.3300 H   0  0  0  0  0  0  0  0  0  0  0  0
   38.4960   29.5990   37.5940 H   0  0  0  0  0  0  0  0  0  0  0  0
   40.4170   32.7880   40.5680 C   0  0  1  0  0  3  0  0  0  0  0  0
   38.9380   32.9010   40.8130 C   0  0  1  0  0  3  0  0  0  0  0  0
   38.4390   34.2630   40.3550 C   0  0  0  0  0  3  0  0  0  0  0  0
   37.4110   34.4540   40.7700 H   0  0  0  0  0  0  0  0  0  0  0  0
   39.3070   35.2730   40.7110 O   0  0  0  0  0  0  0  0  0  0  0  0
   40.4090   35.2000   39.8860 C   0  0  0  0  0  3  0  0  0  0  0  0
   40.1640   35.7630   38.9540 H   0  0  0  0  0  0  0  0  0  0  0  0
   40.8660   33.8140   39.5690 C   0  0  2  0  0  3  0  0  0  0  0  0
   41.1570   32.8570   41.7500 O   0  0  0  0  0  0  0  0  0  0  0  0
   40.8290   33.5170   42.3850 H   0  0  0  0  0  0  0  0  0  0  0  0
   40.3520   33.4290   38.3100 O   0  0  0  0  0  0  0  0  0  0  0  0
   40.8910   32.6560   37.9840 H   0  0  0  0  0  0  0  0  0  0  0  0
   36.6960   27.7160   37.7030 O   0  0  0  0  0  0  0  0  0  0  0  0
   37.3020   26.6280   38.3130 C   0  0  0  0  0  3  0  0  0  0  0  0
   36.5010   25.8420   39.0240 C   0  0  0  0  0  3  0  0  0  0  0  0
   36.9250   24.5950   39.7790 C   0  0  0  0  0  0  0  0  0  0  0  0
   36.9280   23.7230   39.1010 H   0  0  0  0  0  0  0  0  0  0  0  0
   36.1520   24.4680   40.5690 H   0  0  0  0  0  0  0  0  0  0  0  0
   38.1510   24.8610   40.3550 O   0  0  0  0  0  0  0  0  0  0  0  0
   36.6050   24.7170   42.5180 O   0  0  0  0  0  0  0  0  0  0  0  0
   38.0080   24.9940   42.0290 P   0  0  1  0  0  0  0  0  0  0  0  0
   39.0300   23.8640   42.7960 O   0  0  0  0  0  0  0  0  0  0  0  0
   39.9490   24.1320   42.5420 H   0  0  0  0  0  0  0  0  0  0  0  0
   38.5030   26.5260   42.5360 O   0  0  0  0  0  0  0  0  0  0  0  0
   37.4540   27.4140   42.6260 C   0  0  0  0  0  0  0  0  0  0  0  0
   37.7250   28.8320   43.0200 C   0  0  0  0  0  0  0  0  0  0  0  0
   37.1060   27.8810   44.0170 C   0  0  0  0  0  0  0  0  0  0  0  0
   36.6180   27.2190   41.9350 H   0  0  0  0  0  0  0  0  0  0  0  0
   38.7720   29.1520   43.1410 H   0  0  0  0  0  0  0  0  0  0  0  0
   37.0130   29.5770   42.6180 H   0  0  0  0  0  0  0  0  0  0  0  0
   36.0360   28.0180   44.3040 H   0  0  0  0  0  0  0  0  0  0  0  0
   37.7950   27.6220   44.8540 H   0  0  0  0  0  0  0  0  0  0  0  0
  1  5  1  0  0  0  0
  1  3  1  0  0  0  0
  2  1  1  0  0  0  0
  4 10  1  0  0  0  0
  4  9  1  0  0  0  0
  5  4  2  0  0  0  0
  6  5  1  0  0  0  0
  6  7  2  0  0  0  0
  7  8  1  0  0  0  0
  8  9  2  0  0  0  0
 11  6  1  0  0  0  0
 12 13  1  0  0  0  0
 12 20  1  1  0  0  0
 13  8  1  6  0  0  0
 14 16  1  0  0  0  0
 14 15  1  0  0  0  0
 14 13  1  0  0  0  0
 17 16  1  0  0  0  0
 18 17  1  0  0  0  0
 19 22  1  6  0  0  0
 19 17  1  0  0  0  0
 19 12  1  0  0  0  0
 20 21  1  0  0  0  0
 23 22  1  0  0  0  0
 24  1  1  0  0  0  0
 24 25  1  0  0  0  0
 25 26  2  0  0  0  0
 26 27  1  0  0  0  0
 27 30  1  0  0  0  0
 27 29  1  0  0  0  0
 28 27  1  0  0  0  0
 30 32  1  0  0  0  0
 32 31  2  1  0  0  0
 32 35  1  0  0  0  0
 32 33  1  0  0  0  0
 34 33  1  0  0  0  0
 35 36  1  0  0  0  0
 36 37  1  0  0  0  0
 36 38  1  0  0  0  0
 37 40  1  0  0  0  0
 37 38  1  0  0  0  0
 38 42  1  0  0  0  0
 38 43  1  0  0  0  0
 39 36  1  0  0  0  0
 41 37  1  0  0  0  0
M  END
>  <minimizedAffinity>
-5.51159811

$$$$

 OpenBabel03252504343D

 43 45  0  0  1  0  0  0  0  0999 V2000
   34.6380   28.1570   37.9040 C   0  0  0  0  0  0  0  0  0  0  0  0
   34.8290   28.5090   36.8570 H   0  0  0  0  0  0  0  0  0  0  0  0
   33.5550   28.3120   38.0860 H   0  0  0  0  0  0  0  0  0  0  0  0
   36.2250   30.0160   38.0240 C   0  0  0  0  0  0  0  0  0  0  0  0
   35.3500   29.1730   38.7480 C   0  0  0  0  0  0  0  0  0  0  0  0
   35.2600   29.3750   40.0870 C   0  0  0  0  0  0  0  0  0  0  0  0
   35.9940   30.3440   40.6110 N   0  0  0  0  0  0  0  0  0  0  0  0
   36.8110   31.1320   39.9380 C   0  0  0  0  0  0  0  0  0  0  0  0
   36.9610   30.9890   38.5630 N   0  0  0  0  0  0  0  0  0  0  0  0
   36.3510   29.9160   36.9530 H   0  0  0  0  0  0  0  0  0  0  0  0
   34.5760   28.7010   40.5880 H   0  0  0  0  0  0  0  0  0  0  0  0
   39.0270   31.7580   40.8090 C   0  0  1  0  0  3  0  0  0  0  0  0
   37.6070   32.2040   40.6010 C   0  0  1  0  0  3  0  0  0  0  0  0
   37.5800   33.4870   39.7840 C   0  0  0  0  0  3  0  0  0  0  0  0
   36.5630   33.9620   39.8500 H   0  0  0  0  0  0  0  0  0  0  0  0
   38.5610   34.3700   40.1850 O   0  0  0  0  0  0  0  0  0  0  0  0
   39.7730   33.8950   39.7320 C   0  0  0  0  0  3  0  0  0  0  0  0
   39.9010   34.2570   38.6840 H   0  0  0  0  0  0  0  0  0  0  0  0
   39.9370   32.4140   39.8110 C   0  0  2  0  0  3  0  0  0  0  0  0
   39.4620   31.9650   42.1200 O   0  0  0  0  0  0  0  0  0  0  0  0
   39.1650   32.8080   42.5070 H   0  0  0  0  0  0  0  0  0  0  0  0
   39.6570   31.8440   38.5480 O   0  0  0  0  0  0  0  0  0  0  0  0
   40.0510   30.9280   38.5320 H   0  0  0  0  0  0  0  0  0  0  0  0
   35.0000   26.8790   38.2080 O   0  0  0  0  0  0  0  0  0  0  0  0
   36.2270   26.4190   38.6600 C   0  0  0  0  0  3  0  0  0  0  0  0
   36.2660   25.1470   39.0410 C   0  0  0  0  0  3  0  0  0  0  0  0
   37.4870   24.4150   39.5690 C   0  0  0  0  0  0  0  0  0  0  0  0
   38.0440   23.9540   38.7340 H   0  0  0  0  0  0  0  0  0  0  0  0
   37.0760   23.6300   40.2410 H   0  0  0  0  0  0  0  0  0  0  0  0
   38.2250   25.3240   40.3000 O   0  0  0  0  0  0  0  0  0  0  0  0
   36.6770   24.5960   42.3410 O   0  0  0  0  0  0  0  0  0  0  0  0
   38.0730   25.0240   41.9520 P   0  0  1  0  0  0  0  0  0  0  0  0
   39.1240   23.7630   42.4170 O   0  0  0  0  0  0  0  0  0  0  0  0
   40.0350   24.1100   42.2480 H   0  0  0  0  0  0  0  0  0  0  0  0
   38.5240   26.3900   42.8360 O   0  0  0  0  0  0  0  0  0  0  0  0
   37.6610   27.4460   42.6480 C   0  0  0  0  0  0  0  0  0  0  0  0
   37.9220   28.7410   43.3520 C   0  0  0  0  0  0  0  0  0  0  0  0
   36.8210   27.8280   43.8400 C   0  0  0  0  0  0  0  0  0  0  0  0
   37.1800   27.4830   41.6570 H   0  0  0  0  0  0  0  0  0  0  0  0
   38.8500   28.8430   43.9360 H   0  0  0  0  0  0  0  0  0  0  0  0
   37.5510   29.6430   42.8320 H   0  0  0  0  0  0  0  0  0  0  0  0
   35.7570   28.1360   43.6920 H   0  0  0  0  0  0  0  0  0  0  0  0
   37.0490   27.3610   44.8250 H   0  0  0  0  0  0  0  0  0  0  0  0
  1  3  1  0  0  0  0
  1 24  1  0  0  0  0
  1  5  1  0  0  0  0
  2  1  1  0  0  0  0
  4  9  2  0  0  0  0
  4  5  1  0  0  0  0
  5  6  2  0  0  0  0
  6 11  1  0  0  0  0
  6  7  1  0  0  0  0
  8  7  2  0  0  0  0
  9  8  1  0  0  0  0
 10  4  1  0  0  0  0
 12 20  1  1  0  0  0
 13  8  1  6  0  0  0
 13 12  1  0  0  0  0
 14 15  1  0  0  0  0
 14 16  1  0  0  0  0
 14 13  1  0  0  0  0
 17 19  1  0  0  0  0
 17 16  1  0  0  0  0
 18 17  1  0  0  0  0
 19 22  1  6  0  0  0
 19 12  1  0  0  0  0
 20 21  1  0  0  0  0
 23 22  1  0  0  0  0
 24 25  1  0  0  0  0
 25 26  2  0  0  0  0
 26 27  1  0  0  0  0
 27 29  1  0  0  0  0
 27 30  1  0  0  0  0
 28 27  1  0  0  0  0
 30 32  1  0  0  0  0
 32 31  2  1  0  0  0
 32 33  1  0  0  0  0
 32 35  1  0  0  0  0
 34 33  1  0  0  0  0
 36 35  1  0  0  0  0
 36 37  1  0  0  0  0
 36 38  1  0  0  0  0
 37 38  1  0  0  0  0
 37 40  1  0  0  0  0
 38 43  1  0  0  0  0
 39 36  1  0  0  0  0
 41 37  1  0  0  0  0
 42 38  1  0  0  0  0
M  END
>  <minimizedAffinity>
-5.49675369

$$$$

 OpenBabel03252504343D

 43 45  0  0  1  0  0  0  0  0999 V2000
   38.0170   34.1630   39.9520 C   0  0  0  0  0  0  0  0  0  0  0  0
   37.0470   34.5280   40.3780 H   0  0  0  0  0  0  0  0  0  0  0  0
   37.9630   34.3550   38.8610 H   0  0  0  0  0  0  0  0  0  0  0  0
   38.6690   32.1700   41.2120 C   0  0  0  0  0  0  0  0  0  0  0  0
   37.9310   32.6740   40.1170 C   0  0  0  0  0  0  0  0  0  0  0  0
   37.2480   31.7760   39.3610 C   0  0  0  0  0  0  0  0  0  0  0  0
   37.3250   30.5020   39.7080 N   0  0  0  0  0  0  0  0  0  0  0  0
   38.0130   30.0270   40.7290 C   0  0  0  0  0  0  0  0  0  0  0  0
   38.7390   30.8810   41.5520 N   0  0  0  0  0  0  0  0  0  0  0  0
   39.2380   32.8230   41.8610 H   0  0  0  0  0  0  0  0  0  0  0  0
   36.7030   32.2200   38.5380 H   0  0  0  0  0  0  0  0  0  0  0  0
   38.7980   28.3380   42.3390 C   0  0  1  0  0  3  0  0  0  0  0  0
   38.0500   28.5730   41.0560 C   0  0  1  0  0  3  0  0  0  0  0  0
   36.6440   28.0020   41.1630 C   0  0  0  0  0  3  0  0  0  0  0  0
   36.1790   27.9370   40.1410 H   0  0  0  0  0  0  0  0  0  0  0  0
   36.6370   26.7720   41.7850 O   0  0  0  0  0  0  0  0  0  0  0  0
   36.8510   26.9730   43.1320 C   0  0  0  0  0  3  0  0  0  0  0  0
   35.8590   27.1930   43.5950 H   0  0  0  0  0  0  0  0  0  0  0  0
   37.8430   28.0390   43.4580 C   0  0  2  0  0  3  0  0  0  0  0  0
   39.7720   27.3460   42.2110 O   0  0  0  0  0  0  0  0  0  0  0  0
   39.4920   26.5830   41.6750 H   0  0  0  0  0  0  0  0  0  0  0  0
   37.1590   29.2380   43.7600 O   0  0  0  0  0  0  0  0  0  0  0  0
   37.7890   29.8330   44.2540 H   0  0  0  0  0  0  0  0  0  0  0  0
   39.1630   34.6820   40.4770 O   0  0  0  0  0  0  0  0  0  0  0  0
   40.3650   34.9320   39.8340 C   0  0  0  0  0  3  0  0  0  0  0  0
   41.4140   34.2500   40.2790 C   0  0  0  0  0  3  0  0  0  0  0  0
   42.8290   34.3470   39.7390 C   0  0  0  0  0  0  0  0  0  0  0  0
   43.4930   34.8070   40.4920 H   0  0  0  0  0  0  0  0  0  0  0  0
   42.7450   35.0020   38.8450 H   0  0  0  0  0  0  0  0  0  0  0  0
   43.2110   33.0750   39.3600 O   0  0  0  0  0  0  0  0  0  0  0  0
   41.8110   33.2000   37.0980 O   0  0  0  0  0  0  0  0  0  0  0  0
   43.1750   32.9170   37.6820 P   0  0  1  0  0  0  0  0  0  0  0  0
   44.2570   34.0260   36.9670 O   0  0  0  0  0  0  0  0  0  0  0  0
   45.1540   33.7550   37.2840 H   0  0  0  0  0  0  0  0  0  0  0  0
   43.6870   31.3730   37.2310 O   0  0  0  0  0  0  0  0  0  0  0  0
   42.8070   30.7610   36.3660 C   0  0  0  0  0  0  0  0  0  0  0  0
   42.6140   29.2790   36.4450 C   0  0  0  0  0  0  0  0  0  0  0  0
   43.4280   29.8710   35.3180 C   0  0  0  0  0  0  0  0  0  0  0  0
   41.9480   31.3790   36.0600 H   0  0  0  0  0  0  0  0  0  0  0  0
   43.1160   28.7260   37.2550 H   0  0  0  0  0  0  0  0  0  0  0  0
   41.6180   28.9150   36.1290 H   0  0  0  0  0  0  0  0  0  0  0  0
   43.0090   29.8600   34.2830 H   0  0  0  0  0  0  0  0  0  0  0  0
   44.5130   29.6340   35.3960 H   0  0  0  0  0  0  0  0  0  0  0  0
  1  5  1  0  0  0  0
  1  2  1  0  0  0  0
  1 24  1  0  0  0  0
  3  1  1  0  0  0  0
  4  9  1  0  0  0  0
  4 10  1  0  0  0  0
  5  4  2  0  0  0  0
  6  7  2  0  0  0  0
  6  5  1  0  0  0  0
  7  8  1  0  0  0  0
  8  9  2  0  0  0  0
 11  6  1  0  0  0  0
 12 20  1  6  0  0  0
 12 19  1  0  0  0  0
 13  8  1  1  0  0  0
 13 14  1  0  0  0  0
 13 12  1  0  0  0  0
 14 16  1  0  0  0  0
 15 14  1  0  0  0  0
 16 17  1  0  0  0  0
 17 19  1  0  0  0  0
 17 18  1  0  0  0  0
 19 22  1  6  0  0  0
 21 20  1  0  0  0  0
 22 23  1  0  0  0  0
 25 26  2  0  0  0  0
 25 24  1  0  0  0  0
 27 26  1  0  0  0  0
 27 28  1  0  0  0  0
 29 27  1  0  0  0  0
 30 27  1  0  0  0  0
 32 31  2  6  0  0  0
 32 30  1  0  0  0  0
 33 34  1  0  0  0  0
 33 32  1  0  0  0  0
 35 32  1  0  0  0  0
 36 37  1  0  0  0  0
 36 35  1  0  0  0  0
 37 40  1  0  0  0  0
 38 43  1  0  0  0  0
 38 36  1  0  0  0  0
 38 37  1  0  0  0  0
 39 36  1  0  0  0  0
 41 37  1  0  0  0  0
 42 38  1  0  0  0  0
M  END
>  <minimizedAffinity>
-5.49574137

$$$$

 OpenBabel03252504343D

 43 45  0  0  1  0  0  0  0  0999 V2000
   36.8420   30.3230   38.7450 C   0  0  0  0  0  0  0  0  0  0  0  0
   36.9440   29.2750   38.3630 H   0  0  0  0  0  0  0  0  0  0  0  0
   36.2060   30.8560   38.0100 H   0  0  0  0  0  0  0  0  0  0  0  0
   38.3860   32.1830   39.1250 C   0  0  0  0  0  0  0  0  0  0  0  0
   38.2240   30.8870   38.5850 C   0  0  0  0  0  0  0  0  0  0  0  0
   39.3080   30.3170   37.9990 C   0  0  0  0  0  0  0  0  0  0  0  0
   40.4310   31.0180   37.9800 N   0  0  0  0  0  0  0  0  0  0  0  0
   40.5860   32.2270   38.4820 C   0  0  0  0  0  0  0  0  0  0  0  0
   39.5230   32.8800   39.0990 N   0  0  0  0  0  0  0  0  0  0  0  0
   37.5670   32.7030   39.6070 H   0  0  0  0  0  0  0  0  0  0  0  0
   39.1240   29.3260   37.6040 H   0  0  0  0  0  0  0  0  0  0  0  0
   41.7170   34.3810   38.8610 C   0  0  1  0  0  3  0  0  0  0  0  0
   41.8860   32.9540   38.4210 C   0  0  1  0  0  3  0  0  0  0  0  0
   42.9350   32.2660   39.2820 C   0  0  0  0  0  3  0  0  0  0  0  0
   43.2540   31.3010   38.8010 H   0  0  0  0  0  0  0  0  0  0  0  0
   44.0230   33.0820   39.5140 O   0  0  0  0  0  0  0  0  0  0  0  0
   43.6470   34.0460   40.4250 C   0  0  0  0  0  3  0  0  0  0  0  0
   43.7800   33.6090   41.4440 H   0  0  0  0  0  0  0  0  0  0  0  0
   42.2630   34.5750   40.2460 C   0  0  2  0  0  3  0  0  0  0  0  0
   42.2750   35.2850   37.9540 O   0  0  0  0  0  0  0  0  0  0  0  0
   43.1280   34.9980   37.5830 H   0  0  0  0  0  0  0  0  0  0  0  0
   41.3900   33.9110   41.1390 O   0  0  0  0  0  0  0  0  0  0  0  0
   40.5640   34.4630   41.2240 H   0  0  0  0  0  0  0  0  0  0  0  0
   36.3560   30.4820   40.0080 O   0  0  0  0  0  0  0  0  0  0  0  0
   36.4040   29.5860   41.0650 C   0  0  0  0  0  3  0  0  0  0  0  0
   37.3350   29.8210   41.9830 C   0  0  0  0  0  3  0  0  0  0  0  0
   37.5830   28.9890   43.2280 C   0  0  0  0  0  0  0  0  0  0  0  0
   36.9410   28.0910   43.2200 H   0  0  0  0  0  0  0  0  0  0  0  0
   37.3030   29.6570   44.0730 H   0  0  0  0  0  0  0  0  0  0  0  0
   38.9340   28.7110   43.2730 O   0  0  0  0  0  0  0  0  0  0  0  0
   40.1120   26.8480   41.7780 O   0  0  0  0  0  0  0  0  0  0  0  0
   39.2170   27.0760   42.9740 P   0  0  1  0  0  0  0  0  0  0  0  0
   39.9930   26.3610   44.3150 O   0  0  0  0  0  0  0  0  0  0  0  0
   39.3440   26.4320   45.0580 H   0  0  0  0  0  0  0  0  0  0  0  0
   37.7540   26.2610   42.7630 O   0  0  0  0  0  0  0  0  0  0  0  0
   37.7480   25.4790   41.6290 C   0  0  0  0  0  0  0  0  0  0  0  0
   36.6920   24.4300   41.4680 C   0  0  0  0  0  0  0  0  0  0  0  0
   38.1030   24.0270   41.8310 C   0  0  0  0  0  0  0  0  0  0  0  0
   38.1310   25.9720   40.7210 H   0  0  0  0  0  0  0  0  0  0  0  0
   35.8920   24.3700   42.2230 H   0  0  0  0  0  0  0  0  0  0  0  0
   36.4190   24.1930   40.4230 H   0  0  0  0  0  0  0  0  0  0  0  0
   38.7280   23.4990   41.0700 H   0  0  0  0  0  0  0  0  0  0  0  0
   38.1890   23.6390   42.8710 H   0  0  0  0  0  0  0  0  0  0  0  0
  1 24  1  0  0  0  0
  2  1  1  0  0  0  0
  3  1  1  0  0  0  0
  4 10  1  0  0  0  0
  5  1  1  0  0  0  0
  5  4  2  0  0  0  0
  6  5  1  0  0  0  0
  7  6  2  0  0  0  0
  7  8  1  0  0  0  0
  8  9  2  0  0  0  0
  9  4  1  0  0  0  0
 11  6  1  0  0  0  0
 12 20  1  6  0  0  0
 12 19  1  0  0  0  0
 13  8  1  1  0  0  0
 13 12  1  0  0  0  0
 13 14  1  0  0  0  0
 14 16  1  0  0  0  0
 15 14  1  0  0  0  0
 16 17  1  0  0  0  0
 17 18  1  0  0  0  0
 19 17  1  0  0  0  0
 19 22  1  1  0  0  0
 21 20  1  0  0  0  0
 22 23  1  0  0  0  0
 24 25  1  0  0  0  0
 25 26  2  0  0  0  0
 26 27  1  0  0  0  0
 27 30  1  0  0  0  0
 27 29  1  0  0  0  0
 28 27  1  0  0  0  0
 32 31  2  6  0  0  0
 32 30  1  0  0  0  0
 32 33  1  0  0  0  0
 33 34  1  0  0  0  0
 35 32  1  0  0  0  0
 36 38  1  0  0  0  0
 36 35  1  0  0  0  0
 37 36  1  0  0  0  0
 37 38  1  0  0  0  0
 37 40  1  0  0  0  0
 38 43  1  0  0  0  0
 39 36  1  0  0  0  0
 41 37  1  0  0  0  0
 42 38  1  0  0  0  0
M  END
>  <minimizedAffinity>
-5.31175995

$$$$

 OpenBabel03252504343D

 43 45  0  0  1  0  0  0  0  0999 V2000
   36.4920   27.6630   41.8050 C   0  0  0  0  0  0  0  0  0  0  0  0
   36.6400   26.7740   41.1400 H   0  0  0  0  0  0  0  0  0  0  0  0
   35.3980   27.8390   41.8440 H   0  0  0  0  0  0  0  0  0  0  0  0
   36.6040   30.0730   41.3970 C   0  0  0  0  0  0  0  0  0  0  0  0
   37.0670   28.7960   41.0060 C   0  0  0  0  0  0  0  0  0  0  0  0
   37.9530   28.7430   39.9790 C   0  0  0  0  0  0  0  0  0  0  0  0
   38.3160   29.8890   39.4250 N   0  0  0  0  0  0  0  0  0  0  0  0
   37.8860   31.0830   39.7870 C   0  0  0  0  0  0  0  0  0  0  0  0
   36.9770   31.2220   40.8300 N   0  0  0  0  0  0  0  0  0  0  0  0
   35.8960   30.1960   42.2070 H   0  0  0  0  0  0  0  0  0  0  0  0
   38.2710   27.7400   39.7240 H   0  0  0  0  0  0  0  0  0  0  0  0
   37.8230   33.5440   39.8330 C   0  0  1  0  0  3  0  0  0  0  0  0
   38.3430   32.3310   39.1130 C   0  0  1  0  0  3  0  0  0  0  0  0
   39.8610   32.3850   39.0360 C   0  0  0  0  0  3  0  0  0  0  0  0
   40.2340   31.6360   38.2830 H   0  0  0  0  0  0  0  0  0  0  0  0
   40.3150   33.6520   38.7330 O   0  0  0  0  0  0  0  0  0  0  0  0
   40.1650   34.4380   39.8550 C   0  0  0  0  0  3  0  0  0  0  0  0
   41.0700   34.2850   40.4910 H   0  0  0  0  0  0  0  0  0  0  0  0
   38.9160   34.1900   40.6340 C   0  0  2  0  0  3  0  0  0  0  0  0
   37.2090   34.4520   38.9680 O   0  0  0  0  0  0  0  0  0  0  0  0
   37.6710   34.5640   38.1190 H   0  0  0  0  0  0  0  0  0  0  0  0
   39.2050   33.3330   41.7210 O   0  0  0  0  0  0  0  0  0  0  0  0
   38.4630   33.4180   42.3820 H   0  0  0  0  0  0  0  0  0  0  0  0
   37.0140   27.5940   43.0630 O   0  0  0  0  0  0  0  0  0  0  0  0
   38.2550   27.1150   43.4510 C   0  0  0  0  0  3  0  0  0  0  0  0
   38.6470   25.9840   42.8750 C   0  0  0  0  0  3  0  0  0  0  0  0
   39.9600   25.2660   43.1320 C   0  0  0  0  0  0  0  0  0  0  0  0
   40.5160   25.1410   42.1860 H   0  0  0  0  0  0  0  0  0  0  0  0
   39.6630   24.2740   43.5400 H   0  0  0  0  0  0  0  0  0  0  0  0
   40.6410   25.9880   44.0910 O   0  0  0  0  0  0  0  0  0  0  0  0
   43.0150   27.0730   44.6170 O   0  0  0  0  0  0  0  0  0  0  0  0
   42.2440   26.2320   43.6280 P   0  0  1  0  0  0  0  0  0  0  0  0
   43.0550   24.7350   43.5170 O   0  0  0  0  0  0  0  0  0  0  0  0
   42.5940   24.2440   42.7910 H   0  0  0  0  0  0  0  0  0  0  0  0
   42.3060   26.9380   42.0960 O   0  0  0  0  0  0  0  0  0  0  0  0
   42.3290   28.3140   42.1540 C   0  0  0  0  0  0  0  0  0  0  0  0
   41.0600   29.0570   42.4300 C   0  0  0  0  0  0  0  0  0  0  0  0
   41.6250   29.0300   41.0290 C   0  0  0  0  0  0  0  0  0  0  0  0
   43.2740   28.7500   42.5180 H   0  0  0  0  0  0  0  0  0  0  0  0
   40.1540   28.4780   42.6690 H   0  0  0  0  0  0  0  0  0  0  0  0
   41.1850   30.0310   42.9400 H   0  0  0  0  0  0  0  0  0  0  0  0
   42.0660   29.9650   40.6050 H   0  0  0  0  0  0  0  0  0  0  0  0
   41.0050   28.4330   40.3230 H   0  0  0  0  0  0  0  0  0  0  0  0
  1  3  1  0  0  0  0
  1 24  1  0  0  0  0
  2  1  1  0  0  0  0
  4 10  1  0  0  0  0
  5  4  1  0  0  0  0
  5  1  1  0  0  0  0
  6  5  2  0  0  0  0
  7  8  2  0  0  0  0
  7  6  1  0  0  0  0
  8  9  1  0  0  0  0
  9  4  2  0  0  0  0
 11  6  1  0  0  0  0
 12 20  1  6  0  0  0
 12 19  1  0  0  0  0
 13  8  1  1  0  0  0
 13 12  1  0  0  0  0
 14 13  1  0  0  0  0
 15 14  1  0  0  0  0
 16 14  1  0  0  0  0
 16 17  1  0  0  0  0
 17 18  1  0  0  0  0
 17 19  1  0  0  0  0
 19 22  1  1  0  0  0
 21 20  1  0  0  0  0
 22 23  1  0  0  0  0
 24 25  1  0  0  0  0
 26 27  1  0  0  0  0
 26 25  2  0  0  0  0
 27 29  1  0  0  0  0
 27 30  1  0  0  0  0
 28 27  1  0  0  0  0
 32 30  1  0  0  0  0
 32 31  2  1  0  0  0
 33 32  1  0  0  0  0
 34 33  1  0  0  0  0
 35 36  1  0  0  0  0
 35 32  1  0  0  0  0
 36 37  1  0  0  0  0
 36 39  1  0  0  0  0
 37 40  1  0  0  0  0
 37 41  1  0  0  0  0
 38 36  1  0  0  0  0
 38 37  1  0  0  0  0
 42 38  1  0  0  0  0
 43 38  1  0  0  0  0
M  END
>  <minimizedAffinity>
-5.30071878

$$$$

 OpenBabel03252504343D

 43 45  0  0  1  0  0  0  0  0999 V2000
   35.3590   29.3010   38.6030 C   0  0  0  0  0  0  0  0  0  0  0  0
   34.3870   29.6730   39.0190 H   0  0  0  0  0  0  0  0  0  0  0  0
   35.0950   28.5460   37.8350 H   0  0  0  0  0  0  0  0  0  0  0  0
   36.6810   27.3860   39.3610 C   0  0  0  0  0  0  0  0  0  0  0  0
   35.9570   28.5370   39.7490 C   0  0  0  0  0  0  0  0  0  0  0  0
   35.8880   28.8100   41.0770 C   0  0  0  0  0  0  0  0  0  0  0  0
   36.5030   27.9800   41.9040 N   0  0  0  0  0  0  0  0  0  0  0  0
   37.1790   26.9060   41.5460 C   0  0  0  0  0  0  0  0  0  0  0  0
   37.2970   26.5570   40.2050 N   0  0  0  0  0  0  0  0  0  0  0  0
   36.7810   27.1030   38.3200 H   0  0  0  0  0  0  0  0  0  0  0  0
   35.3210   29.7010   41.3130 H   0  0  0  0  0  0  0  0  0  0  0  0
   38.5430   24.8780   41.8510 C   0  0  1  0  0  3  0  0  0  0  0  0
   37.8470   26.0180   42.5410 C   0  0  1  0  0  3  0  0  0  0  0  0
   38.8420   26.7980   43.3860 C   0  0  0  0  0  3  0  0  0  0  0  0
   38.2930   27.4730   44.0990 H   0  0  0  0  0  0  0  0  0  0  0  0
   39.7020   25.9630   44.0660 O   0  0  0  0  0  0  0  0  0  0  0  0
   40.6040   25.4480   43.1590 C   0  0  0  0  0  3  0  0  0  0  0  0
   41.4320   26.1900   43.0580 H   0  0  0  0  0  0  0  0  0  0  0  0
   40.0270   25.1040   41.8260 C   0  0  2  0  0  3  0  0  0  0  0  0
   38.2180   23.6410   42.4100 O   0  0  0  0  0  0  0  0  0  0  0  0
   38.1630   23.6480   43.3820 H   0  0  0  0  0  0  0  0  0  0  0  0
   40.2770   26.1620   40.9220 O   0  0  0  0  0  0  0  0  0  0  0  0
   40.1630   25.8060   39.9970 H   0  0  0  0  0  0  0  0  0  0  0  0
   36.2150   30.2310   38.0920 O   0  0  0  0  0  0  0  0  0  0  0  0
   37.2180   30.9260   38.7490 C   0  0  0  0  0  3  0  0  0  0  0  0
   36.9030   32.1480   39.1630 C   0  0  0  0  0  3  0  0  0  0  0  0
   37.8240   33.1000   39.9040 C   0  0  0  0  0  0  0  0  0  0  0  0
   37.7750   32.9080   40.9900 H   0  0  0  0  0  0  0  0  0  0  0  0
   37.4280   34.1130   39.6710 H   0  0  0  0  0  0  0  0  0  0  0  0
   39.0860   32.9500   39.3650 O   0  0  0  0  0  0  0  0  0  0  0  0
   39.4900   35.2860   40.5790 O   0  0  0  0  0  0  0  0  0  0  0  0
   40.1680   34.0350   40.0690 P   0  0  1  0  0  0  0  0  0  0  0  0
   40.9370   33.3100   41.4080 O   0  0  0  0  0  0  0  0  0  0  0  0
   41.4560   32.5560   41.0310 H   0  0  0  0  0  0  0  0  0  0  0  0
   41.3810   34.4450   38.9690 O   0  0  0  0  0  0  0  0  0  0  0  0
   42.1360   33.3560   38.5920 C   0  0  0  0  0  0  0  0  0  0  0  0
   43.2200   33.5330   37.5750 C   0  0  0  0  0  0  0  0  0  0  0  0
   41.9220   32.8660   37.1820 C   0  0  0  0  0  0  0  0  0  0  0  0
   42.2810   32.5950   39.3750 H   0  0  0  0  0  0  0  0  0  0  0  0
   43.4440   34.5510   37.2180 H   0  0  0  0  0  0  0  0  0  0  0  0
   44.0700   32.8310   37.6640 H   0  0  0  0  0  0  0  0  0  0  0  0
   41.9190   31.7690   36.9720 H   0  0  0  0  0  0  0  0  0  0  0  0
   41.3080   33.4850   36.4900 H   0  0  0  0  0  0  0  0  0  0  0  0
  1  2  1  0  0  0  0
  1  5  1  0  0  0  0
  3  1  1  0  0  0  0
  4  5  2  0  0  0  0
  4  9  1  0  0  0  0
  5  6  1  0  0  0  0
  6 11  1  0  0  0  0
  6  7  2  0  0  0  0
  8  7  1  0  0  0  0
  9  8  2  0  0  0  0
 10  4  1  0  0  0  0
 12 20  1  1  0  0  0
 12 13  1  0  0  0  0
 13  8  1  6  0  0  0
 13 14  1  0  0  0  0
 14 16  1  0  0  0  0
 14 15  1  0  0  0  0
 17 16  1  0  0  0  0
 18 17  1  0  0  0  0
 19 22  1  6  0  0  0
 19 12  1  0  0  0  0
 19 17  1  0  0  0  0
 20 21  1  0  0  0  0
 23 22  1  0  0  0  0
 24  1  1  0  0  0  0
 24 25  1  0  0  0  0
 25 26  2  0  0  0  0
 26 27  1  0  0  0  0
 27 28  1  0  0  0  0
 29 27  1  0  0  0  0
 30 27  1  0  0  0  0
 30 32  1  0  0  0  0
 32 31  2  1  0  0  0
 32 33  1  0  0  0  0
 34 33  1  0  0  0  0
 35 32  1  0  0  0  0
 36 35  1  0  0  0  0
 36 39  1  0  0  0  0
 37 41  1  0  0  0  0
 37 36  1  0  0  0  0
 38 37  1  0  0  0  0
 38 36  1  0  0  0  0
 40 37  1  0  0  0  0
 42 38  1  0  0  0  0
 43 38  1  0  0  0  0
M  END
>  <minimizedAffinity>
-5.27278042

$$$$

 OpenBabel03252504343D

 43 45  0  0  1  0  0  0  0  0999 V2000
   37.7990   26.3540   35.9830 C   0  0  0  0  0  0  0  0  0  0  0  0
   38.1670   26.7150   34.9880 H   0  0  0  0  0  0  0  0  0  0  0  0
   36.7770   25.9610   35.8070 H   0  0  0  0  0  0  0  0  0  0  0  0
   36.3010   27.8590   37.1980 C   0  0  0  0  0  0  0  0  0  0  0  0
   37.6270   27.6190   36.7710 C   0  0  0  0  0  0  0  0  0  0  0  0
   38.5660   28.5380   37.1140 C   0  0  0  0  0  0  0  0  0  0  0  0
   38.1690   29.5840   37.8200 N   0  0  0  0  0  0  0  0  0  0  0  0
   36.9330   29.8110   38.2210 C   0  0  0  0  0  0  0  0  0  0  0  0
   35.9130   28.9180   37.9110 N   0  0  0  0  0  0  0  0  0  0  0  0
   35.4970   27.1730   36.9640 H   0  0  0  0  0  0  0  0  0  0  0  0
   39.5620   28.3020   36.7590 H   0  0  0  0  0  0  0  0  0  0  0  0
   36.8250   30.7870   40.4790 C   0  0  1  0  0  3  0  0  0  0  0  0
   36.5630   31.0160   39.0170 C   0  0  1  0  0  3  0  0  0  0  0  0
   37.3280   32.2410   38.5390 C   0  0  0  0  0  3  0  0  0  0  0  0
   36.9380   32.5700   37.5360 H   0  0  0  0  0  0  0  0  0  0  0  0
   37.2660   33.2720   39.4520 O   0  0  0  0  0  0  0  0  0  0  0  0
   38.0860   32.9530   40.5130 C   0  0  0  0  0  3  0  0  0  0  0  0
   39.1200   33.2770   40.2430 H   0  0  0  0  0  0  0  0  0  0  0  0
   38.0640   31.5150   40.9140 C   0  0  2  0  0  3  0  0  0  0  0  0
   35.7250   31.1170   41.2740 O   0  0  0  0  0  0  0  0  0  0  0  0
   35.2630   31.9270   40.9930 H   0  0  0  0  0  0  0  0  0  0  0  0
   39.1680   30.8510   40.3330 O   0  0  0  0  0  0  0  0  0  0  0  0
   39.3100   30.0000   40.8340 H   0  0  0  0  0  0  0  0  0  0  0  0
   38.5650   25.4330   36.6340 O   0  0  0  0  0  0  0  0  0  0  0  0
   38.3800   24.9050   37.9020 C   0  0  0  0  0  3  0  0  0  0  0  0
   39.4790   24.7450   38.6300 C   0  0  0  0  0  3  0  0  0  0  0  0
   39.5350   24.1920   40.0420 C   0  0  0  0  0  0  0  0  0  0  0  0
   40.3390   23.4400   40.1240 H   0  0  0  0  0  0  0  0  0  0  0  0
   38.5420   23.7160   40.1970 H   0  0  0  0  0  0  0  0  0  0  0  0
   39.6840   25.2660   40.8980 O   0  0  0  0  0  0  0  0  0  0  0  0
   37.4670   24.4980   42.1580 O   0  0  0  0  0  0  0  0  0  0  0  0
   38.8850   24.9820   42.3550 P   0  0  1  0  0  0  0  0  0  0  0  0
   39.6990   23.7750   43.2440 O   0  0  0  0  0  0  0  0  0  0  0  0
   40.5880   24.1590   43.4480 H   0  0  0  0  0  0  0  0  0  0  0  0
   38.8910   26.3780   43.3040 O   0  0  0  0  0  0  0  0  0  0  0  0
   37.8790   27.2480   42.9640 C   0  0  0  0  0  0  0  0  0  0  0  0
   37.9900   28.6890   43.3520 C   0  0  0  0  0  0  0  0  0  0  0  0
   37.0540   27.7770   44.1110 C   0  0  0  0  0  0  0  0  0  0  0  0
   37.3480   27.0030   42.0300 H   0  0  0  0  0  0  0  0  0  0  0  0
   38.9230   29.0360   43.8240 H   0  0  0  0  0  0  0  0  0  0  0  0
   37.4690   29.4000   42.6830 H   0  0  0  0  0  0  0  0  0  0  0  0
   35.9520   27.9070   43.9860 H   0  0  0  0  0  0  0  0  0  0  0  0
   37.3960   27.5730   45.1510 H   0  0  0  0  0  0  0  0  0  0  0  0
  1 24  1  0  0  0  0
  1  5  1  0  0  0  0
  2  1  1  0  0  0  0
  3  1  1  0  0  0  0
  4  9  1  0  0  0  0
  5  6  1  0  0  0  0
  5  4  2  0  0  0  0
  6  7  2  0  0  0  0
  7  8  1  0  0  0  0
  9  8  2  0  0  0  0
 10  4  1  0  0  0  0
 11  6  1  0  0  0  0
 12 19  1  0  0  0  0
 12 20  1  1  0  0  0
 13  8  1  6  0  0  0
 13 12  1  0  0  0  0
 14 13  1  0  0  0  0
 14 16  1  0  0  0  0
 15 14  1  0  0  0  0
 16 17  1  0  0  0  0
 17 19  1  0  0  0  0
 18 17  1  0  0  0  0
 19 22  1  6  0  0  0
 21 20  1  0  0  0  0
 22 23  1  0  0  0  0
 24 25  1  0  0  0  0
 25 26  2  0  0  0  0
 26 27  1  0  0  0  0
 27 28  1  0  0  0  0
 27 29  1  0  0  0  0
 27 30  1  0  0  0  0
 30 32  1  0  0  0  0
 32 31  2  6  0  0  0
 32 33  1  0  0  0  0
 32 35  1  0  0  0  0
 33 34  1  0  0  0  0
 36 35  1  0  0  0  0
 36 37  1  0  0  0  0
 36 38  1  0  0  0  0
 37 40  1  0  0  0  0
 37 38  1  0  0  0  0
 38 43  1  0  0  0  0
 39 36  1  0  0  0  0
 41 37  1  0  0  0  0
 42 38  1  0  0  0  0
M  END
>  <minimizedAffinity>
-5.26228952

$$$$
