
 OpenBabel03242521133D

 31 33  0  0  1  0  0  0  0  0999 V2000
   44.7070   35.4310   45.1650 C   0  0  0  0  0  0  0  0  0  0  0  0
   45.3100   35.5010   43.8850 C   0  0  0  0  0  0  0  0  0  0  0  0
   46.0900   34.4130   43.4810 C   0  0  0  0  0  0  0  0  0  0  0  0
   46.2210   33.3630   44.3360 N   0  0  0  0  0  0  0  0  0  0  0  0
   45.6420   33.3220   45.5390 C   0  0  0  0  0  0  0  0  0  0  0  0
   44.8730   34.3650   45.9670 N   0  0  0  0  0  0  0  0  0  0  0  0
   44.1000   36.2900   45.4670 H   0  0  0  0  0  0  0  0  0  0  0  0
   45.1510   36.3770   43.2690 H   0  0  0  0  0  0  0  0  0  0  0  0
   46.7030   34.4690   42.1940 N   0  0  0  0  0  0  0  0  0  0  0  0
   47.9150   35.0530   42.1080 C   0  0  0  0  0  0  0  0  0  0  0  0
   48.5300   35.1170   40.8610 C   0  0  0  0  0  0  0  0  0  0  0  0
   47.8670   34.5820   39.7920 C   0  0  0  0  0  0  0  0  0  0  0  0
   48.4320   34.6420   38.6500 O   0  0  0  0  0  0  0  0  0  0  0  0
   46.6530   33.9940   39.8690 N   0  0  0  0  0  0  0  0  0  0  0  0
   46.1110   33.9660   41.1050 C   0  0  0  0  0  0  0  0  0  0  0  0
   44.9870   33.4440   41.2940 O   0  0  0  0  0  0  0  0  0  0  0  0
   48.4360   35.4760   42.9660 H   0  0  0  0  0  0  0  0  0  0  0  0
   49.5050   35.5850   40.7830 H   0  0  0  0  0  0  0  0  0  0  0  0
   46.1630   33.5890   39.0300 H   0  0  0  0  0  0  0  0  0  0  0  0
   45.0890   32.3330   47.7430 C   0  0  1  0  0  0  0  0  0  0  0  0
   45.8210   32.1450   46.4340 C   0  0  2  0  0  0  0  0  0  0  0  0
   47.2870   31.9080   46.6110 C   0  0  0  0  0  0  0  0  0  0  0  0
   47.8440   32.3890   45.7840 H   0  0  0  0  0  0  0  0  0  0  0  0
   47.7140   32.4750   47.7990 O   0  0  0  0  0  0  0  0  0  0  0  0
   47.2340   31.7850   48.9100 C   0  0  0  0  0  0  0  0  0  0  0  0
   47.7950   30.8220   48.9530 H   0  0  0  0  0  0  0  0  0  0  0  0
   45.7660   31.4730   48.7820 C   0  0  1  0  0  0  0  0  0  0  0  0
   45.0540   33.6720   48.1190 O   0  0  0  0  0  0  0  0  0  0  0  0
   45.9800   33.9520   48.3290 H   0  0  0  0  0  0  0  0  0  0  0  0
   45.1620   31.7170   50.0020 O   0  0  0  0  0  0  0  0  0  0  0  0
   44.3270   32.2430   49.9030 H   0  0  0  0  0  0  0  0  0  0  0  0
  1  7  1  0  0  0  0
  1  6  1  0  0  0  0
  2  1  2  0  0  0  0
  3  2  1  0  0  0  0
  3  4  2  0  0  0  0
  4  5  1  0  0  0  0
  5  6  2  0  0  0  0
  8  2  1  0  0  0  0
  9  3  1  0  0  0  0
 10  9  1  0  0  0  0
 10 17  1  0  0  0  0
 11 10  2  0  0  0  0
 12 14  1  0  0  0  0
 12 11  1  0  0  0  0
 13 12  2  0  0  0  0
 14 15  1  0  0  0  0
 15 16  2  0  0  0  0
 15  9  1  0  0  0  0
 18 11  1  0  0  0  0
 19 14  1  0  0  0  0
 20 28  1  1  0  0  0
 20 27  1  0  0  0  0
 21  5  1  6  0  0  0
 21 22  1  0  0  0  0
 21 20  1  0  0  0  0
 22 24  1  0  0  0  0
 23 22  1  0  0  0  0
 24 25  1  0  0  0  0
 25 26  1  0  0  0  0
 27 25  1  0  0  0  0
 27 30  1  1  0  0  0
 28 29  1  0  0  0  0
 31 30  1  0  0  0  0
M  END
>  <minimizedAffinity>
-7.18457985

>  <minimizedRMSD>
0.817456365

$$$$
