
 OpenBabel03242511333D

 38 40  0  0  1  0  0  0  0  0999 V2000
   49.3400   32.0110   41.5940 C   0  0  0  0  0  0  0  0  0  0  0  0
   50.6740   31.5970   41.8180 C   0  0  0  0  0  0  0  0  0  0  0  0
   51.5410   31.4430   40.7200 C   0  0  0  0  0  0  0  0  0  0  0  0
   51.0280   31.7090   39.4970 N   0  0  0  0  0  0  0  0  0  0  0  0
   49.7460   32.1060   39.3090 C   0  0  0  0  0  0  0  0  0  0  0  0
   48.9480   32.2440   40.3580 N   0  0  0  0  0  0  0  0  0  0  0  0
   51.1100   31.3760   42.7930 H   0  0  0  0  0  0  0  0  0  0  0  0
   52.5670   31.1250   40.8720 H   0  0  0  0  0  0  0  0  0  0  0  0
   47.9370   32.9160   37.8400 C   0  0  2  0  0  3  0  0  0  0  0  0
   49.3250   32.3630   37.8970 C   0  0  2  0  0  3  0  0  0  0  0  0
   49.3700   31.1050   37.0690 C   0  0  0  0  0  3  0  0  0  0  0  0
   50.0140   30.3600   37.5860 H   0  0  0  0  0  0  0  0  0  0  0  0
   48.1120   30.5230   36.9300 O   0  0  0  0  0  0  0  0  0  0  0  0
   47.2720   31.2960   36.1340 C   0  0  0  0  0  3  0  0  0  0  0  0
   46.2390   30.9270   36.3050 H   0  0  0  0  0  0  0  0  0  0  0  0
   47.3310   32.7490   36.4710 C   0  0  2  0  0  3  0  0  0  0  0  0
   47.9050   34.2770   38.1670 O   0  0  0  0  0  0  0  0  0  0  0  0
   48.7470   34.6880   37.8540 H   0  0  0  0  0  0  0  0  0  0  0  0
   48.0190   33.4910   35.4960 O   0  0  0  0  0  0  0  0  0  0  0  0
   48.3420   34.3500   35.8580 H   0  0  0  0  0  0  0  0  0  0  0  0
   48.4940   32.1520   42.7690 C   0  0  0  0  0  3  0  0  0  0  0  0
   47.9390   33.3390   43.0050 C   0  0  0  0  0  3  0  0  0  0  0  0
   47.0640   33.5930   44.1660 C   0  0  0  0  0  0  0  0  0  0  0  0
   46.8850   32.6830   44.7450 H   0  0  0  0  0  0  0  0  0  0  0  0
   47.6030   34.3210   44.8330 H   0  0  0  0  0  0  0  0  0  0  0  0
   44.7060   36.2380   43.4750 C   0  0  1  0  0  0  0  0  0  0  0  0
   45.8350   35.3810   42.9020 C   0  0  0  0  0  0  0  0  0  0  0  0
   45.7050   34.1540   43.7390 C   0  0  2  0  0  0  0  0  0  0  0  0
   44.9030   34.4180   44.8180 O   0  0  0  0  0  0  0  0  0  0  0  0
   44.7060   35.7750   44.9120 C   0  0  0  0  0  0  0  0  0  0  0  0
   43.7540   35.9450   42.9910 H   0  0  0  0  0  0  0  0  0  0  0  0
   46.7920   35.9040   43.0650 H   0  0  0  0  0  0  0  0  0  0  0  0
   45.6580   35.1000   41.8510 H   0  0  0  0  0  0  0  0  0  0  0  0
   45.2300   33.3180   43.1690 H   0  0  0  0  0  0  0  0  0  0  0  0
   45.4350   36.3060   45.5410 H   0  0  0  0  0  0  0  0  0  0  0  0
   43.6790   35.9720   45.3120 H   0  0  0  0  0  0  0  0  0  0  0  0
   45.0110   37.5870   43.3540 O   0  0  0  0  0  0  0  0  0  0  0  0
   44.7640   37.8620   42.4360 H   0  0  0  0  0  0  0  0  0  0  0  0
  1  2  1  0  0  0  0
  1 21  1  0  0  0  0
  2  7  1  0  0  0  0
  3  8  1  0  0  0  0
  3  2  2  0  0  0  0
  4  3  1  0  0  0  0
  5  4  2  0  0  0  0
  5  6  1  0  0  0  0
  6  1  2  0  0  0  0
  9 10  1  0  0  0  0
  9 17  1  6  0  0  0
 10  5  1  1  0  0  0
 11 12  1  0  0  0  0
 11 10  1  0  0  0  0
 13 11  1  0  0  0  0
 14 15  1  0  0  0  0
 14 16  1  0  0  0  0
 14 13  1  0  0  0  0
 16 19  1  6  0  0  0
 16  9  1  0  0  0  0
 18 17  1  0  0  0  0
 19 20  1  0  0  0  0
 21 22  2  0  0  0  0
 22 23  1  0  0  0  0
 23 24  1  0  0  0  0
 23 25  1  0  0  0  0
 26 31  1  6  0  0  0
 26 30  1  0  0  0  0
 27 32  1  0  0  0  0
 27 26  1  0  0  0  0
 27 28  1  0  0  0  0
 28 34  1  6  0  0  0
 28 23  1  0  0  0  0
 28 29  1  0  0  0  0
 29 30  1  0  0  0  0
 30 36  1  0  0  0  0
 30 35  1  0  0  0  0
 33 27  1  0  0  0  0
 37 26  1  0  0  0  0
 38 37  1  0  0  0  0
M  END
>  <minimizedAffinity>
-5.26942348

>  <minimizedRMSD>
0.868962824

$$$$
