
 OpenBabel03252503043D

 37 38  0  0  1  0  0  0  0  0999 V2000
   40.7160   31.8610   39.9040 C   0  0  0  0  0  0  0  0  0  0  0  0
   40.4970   33.2090   40.1490 C   0  0  0  0  0  0  0  0  0  0  0  0
   39.2760   33.8060   39.8360 C   0  0  0  0  0  0  0  0  0  0  0  0
   38.3370   33.0010   39.2880 N   0  0  0  0  0  0  0  0  0  0  0  0
   38.5670   31.6990   39.0590 C   0  0  0  0  0  0  0  0  0  0  0  0
   39.7270   31.1230   39.3550 N   0  0  0  0  0  0  0  0  0  0  0  0
   41.6600   31.4110   40.1500 H   0  0  0  0  0  0  0  0  0  0  0  0
   39.0960   34.8630   40.0240 H   0  0  0  0  0  0  0  0  0  0  0  0
   41.8030   34.2070   40.8820 S   0  0  0  0  0  0  0  0  0  0  0  0
   43.3850   33.7130   40.2250 C   0  0  0  0  0  0  0  0  0  0  0  0
   44.1840   33.8540   41.0060 H   0  0  0  0  0  0  0  0  0  0  0  0
   43.3380   32.6340   39.9450 H   0  0  0  0  0  0  0  0  0  0  0  0
   43.6720   34.5680   39.0790 N   0  0  0  0  0  0  0  0  0  0  0  0
   44.5630   35.0900   39.1660 H   0  0  0  0  0  0  0  0  0  0  0  0
   43.5790   33.7230   37.5860 S   0  0  0  0  0  0  0  0  0  0  0  0
   42.5800   34.3390   36.6580 O   0  0  0  0  0  0  0  0  0  0  0  0
   41.7230   34.7540   36.9160 H   0  0  0  0  0  0  0  0  0  0  0  0
   44.9710   33.8460   36.9660 O   0  0  0  0  0  0  0  0  0  0  0  0
   45.1700   34.6510   36.4530 H   0  0  0  0  0  0  0  0  0  0  0  0
   43.3050   32.1130   37.8410 O   0  0  0  0  0  0  0  0  0  0  0  0
   43.0630   31.4390   36.6530 C   0  0  0  0  0  0  0  0  0  0  0  0
   43.9690   31.5350   36.0180 H   0  0  0  0  0  0  0  0  0  0  0  0
   42.2480   32.0160   36.1250 H   0  0  0  0  0  0  0  0  0  0  0  0
   42.7030   30.4220   36.7880 H   0  0  0  0  0  0  0  0  0  0  0  0
   37.6000   30.8640   38.4930 O   0  0  0  0  0  0  0  0  0  0  0  0
   36.8400   30.6820   40.7890 C   0  0  2  0  0  3  0  0  0  0  0  0
   36.4780   30.5620   39.3230 C   0  0  2  0  0  3  0  0  0  0  0  0
   35.9830   29.1600   39.0920 C   0  0  0  0  0  3  0  0  0  0  0  0
   36.8050   28.4040   39.1590 H   0  0  0  0  0  0  0  0  0  0  0  0
   35.0680   28.8600   40.0990 O   0  0  0  0  0  0  0  0  0  0  0  0
   35.8350   28.4190   41.1840 C   0  0  0  0  0  3  0  0  0  0  0  0
   36.2910   27.4600   40.8330 H   0  0  0  0  0  0  0  0  0  0  0  0
   36.9730   29.3590   41.4850 C   0  0  2  0  0  3  0  0  0  0  0  0
   35.8650   31.4420   41.4450 O   0  0  0  0  0  0  0  0  0  0  0  0
   35.9110   31.1870   42.4010 H   0  0  0  0  0  0  0  0  0  0  0  0
   36.9430   29.6280   42.8650 O   0  0  0  0  0  0  0  0  0  0  0  0
   36.9580   28.8040   43.4020 H   0  0  0  0  0  0  0  0  0  0  0  0
  1  2  1  0  0  0  0
  1  7  1  0  0  0  0
  2  9  1  0  0  0  0
  3  8  1  0  0  0  0
  3  2  2  0  0  0  0
  4  3  1  0  0  0  0
  5  4  2  0  0  0  0
  5  6  1  0  0  0  0
  6  1  2  0  0  0  0
 10  9  1  0  0  0  0
 10 11  1  0  0  0  0
 12 10  1  0  0  0  0
 13 14  1  0  0  0  0
 13 10  1  0  0  0  0
 15 20  1  0  0  0  0
 15 13  1  0  0  0  0
 16 17  1  0  0  0  0
 16 15  1  0  0  0  0
 18 15  1  0  0  0  0
 19 18  1  0  0  0  0
 21 24  1  0  0  0  0
 21 20  1  0  0  0  0
 22 21  1  0  0  0  0
 23 21  1  0  0  0  0
 25  5  1  0  0  0  0
 26 34  1  1  0  0  0
 26 33  1  0  0  0  0
 27 25  1  6  0  0  0
 27 26  1  0  0  0  0
 28 29  1  0  0  0  0
 28 27  1  0  0  0  0
 28 30  1  0  0  0  0
 30 31  1  0  0  0  0
 31 33  1  0  0  0  0
 32 31  1  0  0  0  0
 33 36  1  1  0  0  0
 34 35  1  0  0  0  0
 36 37  1  0  0  0  0
M  END
>  <minimizedAffinity>
-5.73961163

$$$$

 OpenBabel03252503043D

 37 38  0  0  1  0  0  0  0  0999 V2000
   40.1350   31.7680   40.6810 C   0  0  0  0  0  0  0  0  0  0  0  0
   39.2920   32.7100   40.1080 C   0  0  0  0  0  0  0  0  0  0  0  0
   38.2050   32.3170   39.3260 C   0  0  0  0  0  0  0  0  0  0  0  0
   38.0310   30.9850   39.1660 N   0  0  0  0  0  0  0  0  0  0  0  0
   38.8560   30.0900   39.7290 C   0  0  0  0  0  0  0  0  0  0  0  0
   39.8920   30.4560   40.4750 N   0  0  0  0  0  0  0  0  0  0  0  0
   40.9680   32.0820   41.2820 H   0  0  0  0  0  0  0  0  0  0  0  0
   37.5390   33.0480   38.8720 H   0  0  0  0  0  0  0  0  0  0  0  0
   39.5990   34.4630   40.3720 S   0  0  0  0  0  0  0  0  0  0  0  0
   41.2960   34.8470   39.9840 C   0  0  0  0  0  0  0  0  0  0  0  0
   41.6150   35.7720   40.5410 H   0  0  0  0  0  0  0  0  0  0  0  0
   41.9400   33.9920   40.2990 H   0  0  0  0  0  0  0  0  0  0  0  0
   41.3720   35.0960   38.5490 N   0  0  0  0  0  0  0  0  0  0  0  0
   41.8740   35.9710   38.3080 H   0  0  0  0  0  0  0  0  0  0  0  0
   41.9940   33.7520   37.6780 S   0  0  0  0  0  0  0  0  0  0  0  0
   40.9040   32.9410   37.0520 O   0  0  0  0  0  0  0  0  0  0  0  0
   40.0120   32.7680   37.4350 H   0  0  0  0  0  0  0  0  0  0  0  0
   42.8610   34.3540   36.5720 O   0  0  0  0  0  0  0  0  0  0  0  0
   42.4170   34.6320   35.7480 H   0  0  0  0  0  0  0  0  0  0  0  0
   42.9930   32.8470   38.6350 O   0  0  0  0  0  0  0  0  0  0  0  0
   42.9770   31.5080   38.2720 C   0  0  0  0  0  0  0  0  0  0  0  0
   43.3460   31.4350   37.2270 H   0  0  0  0  0  0  0  0  0  0  0  0
   41.8890   31.2050   38.2420 H   0  0  0  0  0  0  0  0  0  0  0  0
   43.4760   30.8530   38.9820 H   0  0  0  0  0  0  0  0  0  0  0  0
   38.6790   28.7140   39.5670 O   0  0  0  0  0  0  0  0  0  0  0  0
   37.2780   28.9680   41.5300 C   0  0  2  0  0  3  0  0  0  0  0  0
   37.6060   28.1330   40.3100 C   0  0  2  0  0  3  0  0  0  0  0  0
   37.9500   26.7490   40.7860 C   0  0  0  0  0  3  0  0  0  0  0  0
   38.9320   26.7170   41.3210 H   0  0  0  0  0  0  0  0  0  0  0  0
   36.9740   26.3580   41.6990 O   0  0  0  0  0  0  0  0  0  0  0  0
   37.3760   26.8900   42.9300 C   0  0  0  0  0  3  0  0  0  0  0  0
   38.3200   26.3430   43.1770 H   0  0  0  0  0  0  0  0  0  0  0  0
   37.7330   28.3500   42.8200 C   0  0  2  0  0  3  0  0  0  0  0  0
   35.8960   29.1750   41.5910 O   0  0  0  0  0  0  0  0  0  0  0  0
   35.6840   29.3670   42.5390 H   0  0  0  0  0  0  0  0  0  0  0  0
   37.0560   29.0270   43.8500 O   0  0  0  0  0  0  0  0  0  0  0  0
   37.2450   28.6400   44.7330 H   0  0  0  0  0  0  0  0  0  0  0  0
  1  7  1  0  0  0  0
  2  9  1  0  0  0  0
  2  1  2  0  0  0  0
  3  2  1  0  0  0  0
  4  3  2  0  0  0  0
  4  5  1  0  0  0  0
  5  6  2  0  0  0  0
  6  1  1  0  0  0  0
  8  3  1  0  0  0  0
 10 12  1  0  0  0  0
 10  9  1  0  0  0  0
 10 11  1  0  0  0  0
 13 10  1  0  0  0  0
 14 13  1  0  0  0  0
 15 13  1  0  0  0  0
 15 20  1  0  0  0  0
 16 17  1  0  0  0  0
 16 15  1  0  0  0  0
 18 15  1  0  0  0  0
 19 18  1  0  0  0  0
 21 20  1  0  0  0  0
 21 24  1  0  0  0  0
 22 21  1  0  0  0  0
 23 21  1  0  0  0  0
 25  5  1  0  0  0  0
 26 34  1  1  0  0  0
 26 33  1  0  0  0  0
 27 25  1  1  0  0  0
 27 28  1  0  0  0  0
 27 26  1  0  0  0  0
 28 29  1  0  0  0  0
 28 30  1  0  0  0  0
 30 31  1  0  0  0  0
 31 32  1  0  0  0  0
 33 31  1  0  0  0  0
 33 36  1  1  0  0  0
 34 35  1  0  0  0  0
 36 37  1  0  0  0  0
M  END
>  <minimizedAffinity>
-5.61187983

$$$$

 OpenBabel03252503043D

 37 38  0  0  1  0  0  0  0  0999 V2000
   38.3380   29.9620   41.8250 C   0  0  0  0  0  0  0  0  0  0  0  0
   37.1340   30.0570   41.1420 C   0  0  0  0  0  0  0  0  0  0  0  0
   36.2200   29.0030   41.1500 C   0  0  0  0  0  0  0  0  0  0  0  0
   36.5780   27.9040   41.8540 N   0  0  0  0  0  0  0  0  0  0  0  0
   37.7470   27.8310   42.5080 C   0  0  0  0  0  0  0  0  0  0  0  0
   38.6220   28.8310   42.5040 N   0  0  0  0  0  0  0  0  0  0  0  0
   39.0340   30.7810   41.8110 H   0  0  0  0  0  0  0  0  0  0  0  0
   35.2740   29.0680   40.6180 H   0  0  0  0  0  0  0  0  0  0  0  0
   36.7390   31.5580   40.2310 S   0  0  0  0  0  0  0  0  0  0  0  0
   38.2050   32.5520   40.0340 C   0  0  0  0  0  0  0  0  0  0  0  0
   38.1120   33.4950   40.6420 H   0  0  0  0  0  0  0  0  0  0  0  0
   39.0860   31.9720   40.3970 H   0  0  0  0  0  0  0  0  0  0  0  0
   38.3150   32.8970   38.6210 N   0  0  0  0  0  0  0  0  0  0  0  0
   38.7430   33.8260   38.4560 H   0  0  0  0  0  0  0  0  0  0  0  0
   39.0930   31.6710   37.7020 S   0  0  0  0  0  0  0  0  0  0  0  0
   38.1240   30.9170   36.8460 O   0  0  0  0  0  0  0  0  0  0  0  0
   37.1950   30.6860   37.0810 H   0  0  0  0  0  0  0  0  0  0  0  0
   40.0800   32.4100   36.7980 O   0  0  0  0  0  0  0  0  0  0  0  0
   39.7430   32.7720   35.9570 H   0  0  0  0  0  0  0  0  0  0  0  0
   39.9830   30.6820   38.6820 O   0  0  0  0  0  0  0  0  0  0  0  0
   41.3460   30.8590   38.4890 C   0  0  0  0  0  0  0  0  0  0  0  0
   41.5920   31.9100   38.7500 H   0  0  0  0  0  0  0  0  0  0  0  0
   41.5200   30.7640   37.3760 H   0  0  0  0  0  0  0  0  0  0  0  0
   41.9620   30.1080   38.9770 H   0  0  0  0  0  0  0  0  0  0  0  0
   38.1200   26.6980   43.2350 O   0  0  0  0  0  0  0  0  0  0  0  0
   39.9210   25.0740   43.2030 C   0  0  2  0  0  3  0  0  0  0  0  0
   38.7190   25.6440   42.4790 C   0  0  2  0  0  3  0  0  0  0  0  0
   39.1860   26.1270   41.1340 C   0  0  0  0  0  3  0  0  0  0  0  0
   39.8270   27.0410   41.2110 H   0  0  0  0  0  0  0  0  0  0  0  0
   39.9710   25.1230   40.5710 O   0  0  0  0  0  0  0  0  0  0  0  0
   41.2560   25.3130   41.0940 C   0  0  0  0  0  3  0  0  0  0  0  0
   41.5890   26.2930   40.6700 H   0  0  0  0  0  0  0  0  0  0  0  0
   41.2330   25.4710   42.5920 C   0  0  2  0  0  3  0  0  0  0  0  0
   39.8330   23.6780   43.2170 O   0  0  0  0  0  0  0  0  0  0  0  0
   40.7570   23.3410   43.3340 H   0  0  0  0  0  0  0  0  0  0  0  0
   42.2010   24.5990   43.1220 O   0  0  0  0  0  0  0  0  0  0  0  0
   43.0880   24.7450   42.7220 H   0  0  0  0  0  0  0  0  0  0  0  0
  1  6  1  0  0  0  0
  2  3  1  0  0  0  0
  2  1  2  0  0  0  0
  3  4  2  0  0  0  0
  4  5  1  0  0  0  0
  5 25  1  0  0  0  0
  6  5  2  0  0  0  0
  7  1  1  0  0  0  0
  8  3  1  0  0  0  0
  9  2  1  0  0  0  0
 10  9  1  0  0  0  0
 10 12  1  0  0  0  0
 10 11  1  0  0  0  0
 13 10  1  0  0  0  0
 14 13  1  0  0  0  0
 15 13  1  0  0  0  0
 15 20  1  0  0  0  0
 16 17  1  0  0  0  0
 16 15  1  0  0  0  0
 18 15  1  0  0  0  0
 19 18  1  0  0  0  0
 21 20  1  0  0  0  0
 21 22  1  0  0  0  0
 21 24  1  0  0  0  0
 23 21  1  0  0  0  0
 26 34  1  6  0  0  0
 27 26  1  0  0  0  0
 27 25  1  1  0  0  0
 28 29  1  0  0  0  0
 28 27  1  0  0  0  0
 30 31  1  0  0  0  0
 30 28  1  0  0  0  0
 31 33  1  0  0  0  0
 32 31  1  0  0  0  0
 33 36  1  1  0  0  0
 33 26  1  0  0  0  0
 34 35  1  0  0  0  0
 37 36  1  0  0  0  0
M  END
>  <minimizedAffinity>
-5.51220322

$$$$

 OpenBabel03252503043D

 37 38  0  0  1  0  0  0  0  0999 V2000
   37.7520   28.0090   40.5950 C   0  0  0  0  0  0  0  0  0  0  0  0
   37.2030   29.1140   41.2310 C   0  0  0  0  0  0  0  0  0  0  0  0
   37.5830   29.4560   42.5290 C   0  0  0  0  0  0  0  0  0  0  0  0
   38.5030   28.6560   43.1150 N   0  0  0  0  0  0  0  0  0  0  0  0
   39.0230   27.5920   42.4840 C   0  0  0  0  0  0  0  0  0  0  0  0
   38.6660   27.2610   41.2480 N   0  0  0  0  0  0  0  0  0  0  0  0
   37.4520   27.7560   39.5950 H   0  0  0  0  0  0  0  0  0  0  0  0
   37.1580   30.3200   43.0350 H   0  0  0  0  0  0  0  0  0  0  0  0
   35.9840   30.1240   40.3750 S   0  0  0  0  0  0  0  0  0  0  0  0
   36.7840   31.5150   39.6000 C   0  0  0  0  0  0  0  0  0  0  0  0
   37.7490   31.1850   39.1250 H   0  0  0  0  0  0  0  0  0  0  0  0
   36.1110   31.9240   38.8100 H   0  0  0  0  0  0  0  0  0  0  0  0
   37.0680   32.4950   40.6430 N   0  0  0  0  0  0  0  0  0  0  0  0
   37.3530   32.0670   41.5430 H   0  0  0  0  0  0  0  0  0  0  0  0
   38.1850   33.6960   40.1330 S   0  0  0  0  0  0  0  0  0  0  0  0
   37.5410   34.7140   39.2440 O   0  0  0  0  0  0  0  0  0  0  0  0
   36.8340   34.5430   38.5790 H   0  0  0  0  0  0  0  0  0  0  0  0
   38.6510   34.3850   41.4160 O   0  0  0  0  0  0  0  0  0  0  0  0
   38.0980   35.1050   41.7720 H   0  0  0  0  0  0  0  0  0  0  0  0
   39.5190   33.0020   39.4460 O   0  0  0  0  0  0  0  0  0  0  0  0
   40.2440   32.2610   40.3680 C   0  0  0  0  0  0  0  0  0  0  0  0
   39.5870   31.4470   40.7410 H   0  0  0  0  0  0  0  0  0  0  0  0
   40.4230   32.9460   41.2490 H   0  0  0  0  0  0  0  0  0  0  0  0
   41.2170   31.9380   40.0070 H   0  0  0  0  0  0  0  0  0  0  0  0
   39.9730   26.7640   43.0860 O   0  0  0  0  0  0  0  0  0  0  0  0
   42.0170   25.4920   42.7980 C   0  0  2  0  0  3  0  0  0  0  0  0
   41.2710   26.7730   42.4910 C   0  0  2  0  0  3  0  0  0  0  0  0
   42.1040   27.9170   43.0030 C   0  0  0  0  0  3  0  0  0  0  0  0
   42.1250   27.9590   44.1210 H   0  0  0  0  0  0  0  0  0  0  0  0
   43.4140   27.7130   42.5770 O   0  0  0  0  0  0  0  0  0  0  0  0
   43.9900   26.8590   43.5260 C   0  0  0  0  0  3  0  0  0  0  0  0
   44.0210   27.4650   44.4650 H   0  0  0  0  0  0  0  0  0  0  0  0
   43.1160   25.6640   43.8070 C   0  0  2  0  0  3  0  0  0  0  0  0
   42.5650   24.9800   41.6170 O   0  0  0  0  0  0  0  0  0  0  0  0
   43.3240   24.4050   41.8870 H   0  0  0  0  0  0  0  0  0  0  0  0
   43.9280   24.5190   43.7130 O   0  0  0  0  0  0  0  0  0  0  0  0
   44.7170   24.5770   44.2970 H   0  0  0  0  0  0  0  0  0  0  0  0
  1  2  2  0  0  0  0
  1  6  1  0  0  0  0
  2  3  1  0  0  0  0
  3  8  1  0  0  0  0
  3  4  2  0  0  0  0
  5 25  1  0  0  0  0
  5  4  1  0  0  0  0
  6  5  2  0  0  0  0
  7  1  1  0  0  0  0
  9  2  1  0  0  0  0
 10  9  1  0  0  0  0
 10 13  1  0  0  0  0
 11 10  1  0  0  0  0
 12 10  1  0  0  0  0
 13 14  1  0  0  0  0
 15 13  1  0  0  0  0
 15 18  1  0  0  0  0
 16 15  1  0  0  0  0
 17 16  1  0  0  0  0
 18 19  1  0  0  0  0
 20 15  1  0  0  0  0
 20 21  1  0  0  0  0
 21 22  1  0  0  0  0
 21 23  1  0  0  0  0
 24 21  1  0  0  0  0
 26 34  1  6  0  0  0
 26 33  1  0  0  0  0
 27 26  1  0  0  0  0
 27 28  1  0  0  0  0
 27 25  1  1  0  0  0
 28 29  1  0  0  0  0
 30 28  1  0  0  0  0
 30 31  1  0  0  0  0
 31 33  1  0  0  0  0
 31 32  1  0  0  0  0
 33 36  1  6  0  0  0
 34 35  1  0  0  0  0
 36 37  1  0  0  0  0
M  END
>  <minimizedAffinity>
-5.50714397

$$$$

 OpenBabel03252503043D

 37 38  0  0  1  0  0  0  0  0999 V2000
   35.8810   29.1840   39.1410 C   0  0  0  0  0  0  0  0  0  0  0  0
   36.9680   29.1060   38.2820 C   0  0  0  0  0  0  0  0  0  0  0  0
   37.9810   28.1700   38.4910 C   0  0  0  0  0  0  0  0  0  0  0  0
   37.8360   27.3590   39.5640 N   0  0  0  0  0  0  0  0  0  0  0  0
   36.7770   27.4490   40.3830 C   0  0  0  0  0  0  0  0  0  0  0  0
   35.8090   28.3380   40.1900 N   0  0  0  0  0  0  0  0  0  0  0  0
   35.1060   29.9090   38.9700 H   0  0  0  0  0  0  0  0  0  0  0  0
   38.8370   28.1020   37.8230 H   0  0  0  0  0  0  0  0  0  0  0  0
   37.0800   30.2260   36.8770 S   0  0  0  0  0  0  0  0  0  0  0  0
   37.6820   31.8150   37.4150 C   0  0  0  0  0  0  0  0  0  0  0  0
   38.5200   32.1530   36.7450 H   0  0  0  0  0  0  0  0  0  0  0  0
   36.8480   32.5550   37.3550 H   0  0  0  0  0  0  0  0  0  0  0  0
   38.1820   31.6580   38.7760 N   0  0  0  0  0  0  0  0  0  0  0  0
   39.2140   31.5720   38.8270 H   0  0  0  0  0  0  0  0  0  0  0  0
   37.5970   32.8730   39.8390 S   0  0  0  0  0  0  0  0  0  0  0  0
   36.9040   33.9740   39.0990 O   0  0  0  0  0  0  0  0  0  0  0  0
   37.1540   34.3300   38.2140 H   0  0  0  0  0  0  0  0  0  0  0  0
   36.5820   32.1670   40.7390 O   0  0  0  0  0  0  0  0  0  0  0  0
   35.6690   32.0720   40.4070 H   0  0  0  0  0  0  0  0  0  0  0  0
   38.8070   33.4260   40.8190 O   0  0  0  0  0  0  0  0  0  0  0  0
   38.9630   34.8010   40.7170 C   0  0  0  0  0  0  0  0  0  0  0  0
   38.0140   35.2750   41.0450 H   0  0  0  0  0  0  0  0  0  0  0  0
   39.0600   35.0240   39.6130 H   0  0  0  0  0  0  0  0  0  0  0  0
   39.8580   35.1810   41.2030 H   0  0  0  0  0  0  0  0  0  0  0  0
   36.6240   26.6130   41.4920 O   0  0  0  0  0  0  0  0  0  0  0  0
   37.5290   28.5250   42.6780 C   0  0  2  0  0  3  0  0  0  0  0  0
   37.2990   27.0280   42.6800 C   0  0  2  0  0  3  0  0  0  0  0  0
   38.6420   26.3630   42.8120 C   0  0  0  0  0  3  0  0  0  0  0  0
   39.2610   26.4700   41.8870 H   0  0  0  0  0  0  0  0  0  0  0  0
   39.3320   26.9980   43.8420 O   0  0  0  0  0  0  0  0  0  0  0  0
   39.9360   28.1170   43.2550 C   0  0  0  0  0  3  0  0  0  0  0  0
   40.6870   27.6900   42.5460 H   0  0  0  0  0  0  0  0  0  0  0  0
   38.9580   28.9120   42.4280 C   0  0  2  0  0  3  0  0  0  0  0  0
   37.1250   29.0570   43.9070 O   0  0  0  0  0  0  0  0  0  0  0  0
   37.6200   29.9070   44.0190 H   0  0  0  0  0  0  0  0  0  0  0  0
   39.0810   30.2600   42.8130 O   0  0  0  0  0  0  0  0  0  0  0  0
   40.0080   30.5800   42.7450 H   0  0  0  0  0  0  0  0  0  0  0  0
  1  6  1  0  0  0  0
  2  3  1  0  0  0  0
  2  1  2  0  0  0  0
  3  4  2  0  0  0  0
  4  5  1  0  0  0  0
  5 25  1  0  0  0  0
  6  5  2  0  0  0  0
  7  1  1  0  0  0  0
  8  3  1  0  0  0  0
  9 10  1  0  0  0  0
  9  2  1  0  0  0  0
 10 13  1  0  0  0  0
 11 10  1  0  0  0  0
 12 10  1  0  0  0  0
 13 14  1  0  0  0  0
 13 15  1  0  0  0  0
 15 18  1  0  0  0  0
 15 20  1  0  0  0  0
 16 15  1  0  0  0  0
 17 16  1  0  0  0  0
 19 18  1  0  0  0  0
 21 20  1  0  0  0  0
 21 22  1  0  0  0  0
 21 24  1  0  0  0  0
 23 21  1  0  0  0  0
 26 27  1  0  0  0  0
 26 34  1  1  0  0  0
 27 25  1  6  0  0  0
 27 28  1  0  0  0  0
 28 30  1  0  0  0  0
 29 28  1  0  0  0  0
 31 30  1  0  0  0  0
 32 31  1  0  0  0  0
 33 26  1  0  0  0  0
 33 36  1  1  0  0  0
 33 31  1  0  0  0  0
 34 35  1  0  0  0  0
 37 36  1  0  0  0  0
M  END
>  <minimizedAffinity>
-5.49855947

$$$$

 OpenBabel03252503043D

 37 38  0  0  1  0  0  0  0  0999 V2000
   39.0690   32.4050   41.1890 C   0  0  0  0  0  0  0  0  0  0  0  0
   38.5340   33.3810   40.3590 C   0  0  0  0  0  0  0  0  0  0  0  0
   37.4090   33.1190   39.5780 C   0  0  0  0  0  0  0  0  0  0  0  0
   36.8830   31.8760   39.6800 N   0  0  0  0  0  0  0  0  0  0  0  0
   37.4130   30.9470   40.4880 C   0  0  0  0  0  0  0  0  0  0  0  0
   38.4850   31.1890   41.2350 N   0  0  0  0  0  0  0  0  0  0  0  0
   39.9360   32.6180   41.7870 H   0  0  0  0  0  0  0  0  0  0  0  0
   36.9830   33.8770   38.9240 H   0  0  0  0  0  0  0  0  0  0  0  0
   39.2990   35.0080   40.2850 S   0  0  0  0  0  0  0  0  0  0  0  0
   40.9980   34.8580   39.7660 C   0  0  0  0  0  0  0  0  0  0  0  0
   41.4160   35.8750   39.5260 H   0  0  0  0  0  0  0  0  0  0  0  0
   41.5900   34.4090   40.5990 H   0  0  0  0  0  0  0  0  0  0  0  0
   41.0190   34.0290   38.5660 N   0  0  0  0  0  0  0  0  0  0  0  0
   40.3440   34.3370   37.8420 H   0  0  0  0  0  0  0  0  0  0  0  0
   42.5990   33.8450   37.9190 S   0  0  0  0  0  0  0  0  0  0  0  0
   42.7200   34.4580   36.5590 O   0  0  0  0  0  0  0  0  0  0  0  0
   42.0220   34.4750   35.8630 H   0  0  0  0  0  0  0  0  0  0  0  0
   43.5200   34.5940   38.8830 O   0  0  0  0  0  0  0  0  0  0  0  0
   43.6230   35.5560   38.7570 H   0  0  0  0  0  0  0  0  0  0  0  0
   43.0610   32.2580   37.9470 O   0  0  0  0  0  0  0  0  0  0  0  0
   42.4030   31.5150   36.9770 C   0  0  0  0  0  0  0  0  0  0  0  0
   42.6760   31.9330   35.9860 H   0  0  0  0  0  0  0  0  0  0  0  0
   41.3020   31.7270   37.1140 H   0  0  0  0  0  0  0  0  0  0  0  0
   42.5400   30.4410   37.0760 H   0  0  0  0  0  0  0  0  0  0  0  0
   36.8740   29.6630   40.5960 O   0  0  0  0  0  0  0  0  0  0  0  0
   38.2440   27.6640   40.5310 C   0  0  2  0  0  3  0  0  0  0  0  0
   37.6190   28.7410   41.3920 C   0  0  2  0  0  3  0  0  0  0  0  0
   36.7450   28.0580   42.4080 C   0  0  0  0  0  3  0  0  0  0  0  0
   35.8280   27.6110   41.9470 H   0  0  0  0  0  0  0  0  0  0  0  0
   37.4760   27.0100   42.9630 O   0  0  0  0  0  0  0  0  0  0  0  0
   37.3110   25.9310   42.0860 C   0  0  0  0  0  3  0  0  0  0  0  0
   36.2260   25.6730   42.1590 H   0  0  0  0  0  0  0  0  0  0  0  0
   37.5700   26.3290   40.6550 C   0  0  2  0  0  3  0  0  0  0  0  0
   39.5940   27.5230   40.8740 O   0  0  0  0  0  0  0  0  0  0  0  0
   39.8570   26.6090   40.5980 H   0  0  0  0  0  0  0  0  0  0  0  0
   38.4550   25.3810   40.1100 O   0  0  0  0  0  0  0  0  0  0  0  0
   38.1200   24.4620   40.2110 H   0  0  0  0  0  0  0  0  0  0  0  0
  1  6  1  0  0  0  0
  1  7  1  0  0  0  0
  2  1  2  0  0  0  0
  3  4  2  0  0  0  0
  3  2  1  0  0  0  0
  4  5  1  0  0  0  0
  5 25  1  0  0  0  0
  5  6  2  0  0  0  0
  8  3  1  0  0  0  0
  9  2  1  0  0  0  0
 10  9  1  0  0  0  0
 10 12  1  0  0  0  0
 11 10  1  0  0  0  0
 13 10  1  0  0  0  0
 14 13  1  0  0  0  0
 15 20  1  0  0  0  0
 15 13  1  0  0  0  0
 15 18  1  0  0  0  0
 16 15  1  0  0  0  0
 17 16  1  0  0  0  0
 19 18  1  0  0  0  0
 21 24  1  0  0  0  0
 21 23  1  0  0  0  0
 21 20  1  0  0  0  0
 22 21  1  0  0  0  0
 26 33  1  0  0  0  0
 26 34  1  1  0  0  0
 26 27  1  0  0  0  0
 27 25  1  6  0  0  0
 27 28  1  0  0  0  0
 28 30  1  0  0  0  0
 29 28  1  0  0  0  0
 31 32  1  0  0  0  0
 31 30  1  0  0  0  0
 33 36  1  1  0  0  0
 33 31  1  0  0  0  0
 35 34  1  0  0  0  0
 36 37  1  0  0  0  0
M  END
>  <minimizedAffinity>
-5.44744587

$$$$

 OpenBabel03252503043D

 37 38  0  0  1  0  0  0  0  0999 V2000
   38.5120   29.3760   38.8720 C   0  0  0  0  0  0  0  0  0  0  0  0
   37.3670   30.1400   38.7000 C   0  0  0  0  0  0  0  0  0  0  0  0
   37.4280   31.3990   38.1010 C   0  0  0  0  0  0  0  0  0  0  0  0
   38.6530   31.8160   37.7060 N   0  0  0  0  0  0  0  0  0  0  0  0
   39.7490   31.0630   37.8800 C   0  0  0  0  0  0  0  0  0  0  0  0
   39.6980   29.8630   38.4490 N   0  0  0  0  0  0  0  0  0  0  0  0
   38.4530   28.4080   39.3340 H   0  0  0  0  0  0  0  0  0  0  0  0
   36.5360   32.0050   37.9630 H   0  0  0  0  0  0  0  0  0  0  0  0
   35.7770   29.5060   39.2560 S   0  0  0  0  0  0  0  0  0  0  0  0
   35.9600   28.7180   40.8450 C   0  0  0  0  0  0  0  0  0  0  0  0
   34.9660   28.3200   41.1910 H   0  0  0  0  0  0  0  0  0  0  0  0
   36.6770   27.8680   40.7450 H   0  0  0  0  0  0  0  0  0  0  0  0
   36.4310   29.7290   41.7850 N   0  0  0  0  0  0  0  0  0  0  0  0
   35.6630   30.2270   42.2730 H   0  0  0  0  0  0  0  0  0  0  0  0
   37.5870   29.1110   42.8940 S   0  0  0  0  0  0  0  0  0  0  0  0
   37.0110   28.9460   44.2660 O   0  0  0  0  0  0  0  0  0  0  0  0
   36.3480   29.5360   44.6950 H   0  0  0  0  0  0  0  0  0  0  0  0
   37.9720   27.7340   42.3510 O   0  0  0  0  0  0  0  0  0  0  0  0
   37.4010   26.9780   42.5840 H   0  0  0  0  0  0  0  0  0  0  0  0
   38.9590   30.0330   42.8850 O   0  0  0  0  0  0  0  0  0  0  0  0
   40.0260   29.3600   42.3100 C   0  0  0  0  0  0  0  0  0  0  0  0
   39.7580   29.1360   41.2560 H   0  0  0  0  0  0  0  0  0  0  0  0
   40.0880   28.3620   42.8360 H   0  0  0  0  0  0  0  0  0  0  0  0
   40.9850   29.8560   42.4440 H   0  0  0  0  0  0  0  0  0  0  0  0
   41.0150   31.4900   37.4740 O   0  0  0  0  0  0  0  0  0  0  0  0
   42.6950   33.2230   37.2390 C   0  0  2  0  0  3  0  0  0  0  0  0
   41.3820   32.8120   37.8710 C   0  0  2  0  0  3  0  0  0  0  0  0
   41.5450   32.9140   39.3630 C   0  0  0  0  0  3  0  0  0  0  0  0
   42.2220   32.1210   39.7700 H   0  0  0  0  0  0  0  0  0  0  0  0
   42.1400   34.1420   39.6430 O   0  0  0  0  0  0  0  0  0  0  0  0
   43.5170   33.9340   39.4990 C   0  0  0  0  0  3  0  0  0  0  0  0
   43.7810   33.2250   40.3220 H   0  0  0  0  0  0  0  0  0  0  0  0
   43.8460   33.2400   38.2020 C   0  0  2  0  0  3  0  0  0  0  0  0
   42.5590   34.4960   36.6750 O   0  0  0  0  0  0  0  0  0  0  0  0
   43.4710   34.8780   36.6250 H   0  0  0  0  0  0  0  0  0  0  0  0
   44.8760   33.9720   37.5830 O   0  0  0  0  0  0  0  0  0  0  0  0
   45.6510   34.0910   38.1760 H   0  0  0  0  0  0  0  0  0  0  0  0
  1  7  1  0  0  0  0
  2  1  1  0  0  0  0
  2  9  1  0  0  0  0
  3  2  2  0  0  0  0
  4  5  2  0  0  0  0
  4  3  1  0  0  0  0
  5  6  1  0  0  0  0
  6  1  2  0  0  0  0
  8  3  1  0  0  0  0
  9 10  1  0  0  0  0
 10 11  1  0  0  0  0
 10 13  1  0  0  0  0
 12 10  1  0  0  0  0
 13 14  1  0  0  0  0
 13 15  1  0  0  0  0
 15 16  1  0  0  0  0
 16 17  1  0  0  0  0
 18 19  1  0  0  0  0
 18 15  1  0  0  0  0
 20 15  1  0  0  0  0
 21 24  1  0  0  0  0
 21 23  1  0  0  0  0
 21 20  1  0  0  0  0
 22 21  1  0  0  0  0
 25  5  1  0  0  0  0
 26 34  1  1  0  0  0
 26 27  1  0  0  0  0
 26 33  1  0  0  0  0
 27 25  1  1  0  0  0
 27 28  1  0  0  0  0
 28 30  1  0  0  0  0
 28 29  1  0  0  0  0
 31 30  1  0  0  0  0
 31 32  1  0  0  0  0
 33 36  1  6  0  0  0
 33 31  1  0  0  0  0
 35 34  1  0  0  0  0
 36 37  1  0  0  0  0
M  END
>  <minimizedAffinity>
-5.4436841

$$$$

 OpenBabel03252503043D

 37 38  0  0  1  0  0  0  0  0999 V2000
   39.5980   31.2390   41.8510 C   0  0  0  0  0  0  0  0  0  0  0  0
   38.6580   31.7190   40.9500 C   0  0  0  0  0  0  0  0  0  0  0  0
   37.5220   30.9740   40.6340 C   0  0  0  0  0  0  0  0  0  0  0  0
   37.3990   29.7750   41.2500 N   0  0  0  0  0  0  0  0  0  0  0  0
   38.3180   29.3280   42.1180 C   0  0  0  0  0  0  0  0  0  0  0  0
   39.4020   30.0320   42.4250 N   0  0  0  0  0  0  0  0  0  0  0  0
   40.4680   31.8220   42.0880 H   0  0  0  0  0  0  0  0  0  0  0  0
   36.7800   31.3420   39.9280 H   0  0  0  0  0  0  0  0  0  0  0  0
   38.9010   33.3250   40.1760 S   0  0  0  0  0  0  0  0  0  0  0  0
   40.6410   33.7030   40.0970 C   0  0  0  0  0  0  0  0  0  0  0  0
   40.9120   34.4300   40.9130 H   0  0  0  0  0  0  0  0  0  0  0  0
   41.2220   32.7610   40.2420 H   0  0  0  0  0  0  0  0  0  0  0  0
   40.8990   34.3150   38.7980 N   0  0  0  0  0  0  0  0  0  0  0  0
   41.5000   35.1580   38.8520 H   0  0  0  0  0  0  0  0  0  0  0  0
   41.4920   33.1890   37.6440 S   0  0  0  0  0  0  0  0  0  0  0  0
   40.3840   32.5690   36.8510 O   0  0  0  0  0  0  0  0  0  0  0  0
   39.4870   32.3360   37.1850 H   0  0  0  0  0  0  0  0  0  0  0  0
   42.3780   34.0060   36.7020 O   0  0  0  0  0  0  0  0  0  0  0  0
   41.9450   34.4750   35.9650 H   0  0  0  0  0  0  0  0  0  0  0  0
   42.4640   32.0660   38.3680 O   0  0  0  0  0  0  0  0  0  0  0  0
   42.1940   30.7840   37.9130 C   0  0  0  0  0  0  0  0  0  0  0  0
   42.4000   30.7610   36.8220 H   0  0  0  0  0  0  0  0  0  0  0  0
   41.0790   30.6390   38.0250 H   0  0  0  0  0  0  0  0  0  0  0  0
   42.6810   30.0000   38.4880 H   0  0  0  0  0  0  0  0  0  0  0  0
   38.1950   28.0910   42.7560 O   0  0  0  0  0  0  0  0  0  0  0  0
   38.6020   25.9550   41.6830 C   0  0  2  0  0  3  0  0  0  0  0  0
   39.1980   27.1250   42.4370 C   0  0  2  0  0  3  0  0  0  0  0  0
   39.8510   26.5790   43.6770 C   0  0  0  0  0  3  0  0  0  0  0  0
   39.1030   26.2160   44.4260 H   0  0  0  0  0  0  0  0  0  0  0  0
   40.6220   25.4810   43.3040 O   0  0  0  0  0  0  0  0  0  0  0  0
   39.7400   24.3930   43.2810 C   0  0  0  0  0  3  0  0  0  0  0  0
   39.4360   24.2560   44.3480 H   0  0  0  0  0  0  0  0  0  0  0  0
   38.4860   24.7060   42.5060 C   0  0  2  0  0  3  0  0  0  0  0  0
   39.3870   25.6830   40.5570 O   0  0  0  0  0  0  0  0  0  0  0  0
   39.2170   24.7370   40.3210 H   0  0  0  0  0  0  0  0  0  0  0  0
   38.2750   23.6490   41.6020 O   0  0  0  0  0  0  0  0  0  0  0  0
   38.2540   22.7760   42.0540 H   0  0  0  0  0  0  0  0  0  0  0  0
  1  7  1  0  0  0  0
  1  6  1  0  0  0  0
  2  1  2  0  0  0  0
  3  2  1  0  0  0  0
  3  4  2  0  0  0  0
  4  5  1  0  0  0  0
  5  6  2  0  0  0  0
  5 25  1  0  0  0  0
  8  3  1  0  0  0  0
  9  2  1  0  0  0  0
 10  9  1  0  0  0  0
 10 12  1  0  0  0  0
 10 11  1  0  0  0  0
 13 14  1  0  0  0  0
 13 10  1  0  0  0  0
 15 20  1  0  0  0  0
 15 13  1  0  0  0  0
 16 17  1  0  0  0  0
 16 15  1  0  0  0  0
 18 15  1  0  0  0  0
 19 18  1  0  0  0  0
 21 23  1  0  0  0  0
 21 20  1  0  0  0  0
 21 24  1  0  0  0  0
 22 21  1  0  0  0  0
 26 34  1  6  0  0  0
 26 27  1  0  0  0  0
 26 33  1  0  0  0  0
 27 25  1  1  0  0  0
 27 28  1  0  0  0  0
 28 29  1  0  0  0  0
 30 28  1  0  0  0  0
 31 30  1  0  0  0  0
 31 32  1  0  0  0  0
 33 36  1  6  0  0  0
 33 31  1  0  0  0  0
 35 34  1  0  0  0  0
 36 37  1  0  0  0  0
M  END
>  <minimizedAffinity>
-5.3670125

$$$$

 OpenBabel03252503043D

 37 38  0  0  1  0  0  0  0  0999 V2000
   40.3230   28.8780   41.8620 C   0  0  0  0  0  0  0  0  0  0  0  0
   39.8360   27.9040   41.0020 C   0  0  0  0  0  0  0  0  0  0  0  0
   40.0760   27.9740   39.6300 C   0  0  0  0  0  0  0  0  0  0  0  0
   40.8020   29.0320   39.2010 N   0  0  0  0  0  0  0  0  0  0  0  0
   41.2650   29.9630   40.0470 C   0  0  0  0  0  0  0  0  0  0  0  0
   41.0400   29.9030   41.3560 N   0  0  0  0  0  0  0  0  0  0  0  0
   40.1320   28.8130   42.9170 H   0  0  0  0  0  0  0  0  0  0  0  0
   39.6980   27.2150   38.9480 H   0  0  0  0  0  0  0  0  0  0  0  0
   38.8780   26.5290   41.6590 S   0  0  0  0  0  0  0  0  0  0  0  0
   37.2110   27.0590   42.0020 C   0  0  0  0  0  0  0  0  0  0  0  0
   36.5490   26.1620   42.1580 H   0  0  0  0  0  0  0  0  0  0  0  0
   37.2130   27.6760   42.9320 H   0  0  0  0  0  0  0  0  0  0  0  0
   36.7430   27.8110   40.8430 N   0  0  0  0  0  0  0  0  0  0  0  0
   35.9190   27.3840   40.3800 H   0  0  0  0  0  0  0  0  0  0  0  0
   36.4780   29.4710   41.1960 S   0  0  0  0  0  0  0  0  0  0  0  0
   35.0610   29.8770   40.9380 O   0  0  0  0  0  0  0  0  0  0  0  0
   34.4820   29.5440   40.2130 H   0  0  0  0  0  0  0  0  0  0  0  0
   36.7700   29.6170   42.6900 O   0  0  0  0  0  0  0  0  0  0  0  0
   36.0510   29.4100   43.3150 H   0  0  0  0  0  0  0  0  0  0  0  0
   37.5700   30.4200   40.3960 O   0  0  0  0  0  0  0  0  0  0  0  0
   37.0900   31.7090   40.2100 C   0  0  0  0  0  0  0  0  0  0  0  0
   36.9180   32.1550   41.2120 H   0  0  0  0  0  0  0  0  0  0  0  0
   36.0690   31.5980   39.7370 H   0  0  0  0  0  0  0  0  0  0  0  0
   37.6940   32.3110   39.5360 H   0  0  0  0  0  0  0  0  0  0  0  0
   42.0150   31.0570   39.6090 O   0  0  0  0  0  0  0  0  0  0  0  0
   41.7890   32.6610   37.8040 C   0  0  2  0  0  3  0  0  0  0  0  0
   41.2630   32.1770   39.1390 C   0  0  2  0  0  3  0  0  0  0  0  0
   41.3360   33.3320   40.1000 C   0  0  0  0  0  3  0  0  0  0  0  0
   42.3900   33.5860   40.3780 H   0  0  0  0  0  0  0  0  0  0  0  0
   40.8010   34.4490   39.4640 O   0  0  0  0  0  0  0  0  0  0  0  0
   41.8510   34.9960   38.7160 C   0  0  0  0  0  3  0  0  0  0  0  0
   42.5840   35.3510   39.4810 H   0  0  0  0  0  0  0  0  0  0  0  0
   42.5530   33.9490   37.8900 C   0  0  2  0  0  3  0  0  0  0  0  0
   40.7180   32.8290   36.9190 O   0  0  0  0  0  0  0  0  0  0  0  0
   41.0210   33.4770   36.2350 H   0  0  0  0  0  0  0  0  0  0  0  0
   42.6510   34.4460   36.5780 O   0  0  0  0  0  0  0  0  0  0  0  0
   43.0830   35.3290   36.5480 H   0  0  0  0  0  0  0  0  0  0  0  0
  1  7  1  0  0  0  0
  2  9  1  0  0  0  0
  2  1  2  0  0  0  0
  3  2  1  0  0  0  0
  4  3  2  0  0  0  0
  4  5  1  0  0  0  0
  5  6  2  0  0  0  0
  6  1  1  0  0  0  0
  8  3  1  0  0  0  0
  9 10  1  0  0  0  0
 10 11  1  0  0  0  0
 10 12  1  0  0  0  0
 13 15  1  0  0  0  0
 13 10  1  0  0  0  0
 14 13  1  0  0  0  0
 15 18  1  0  0  0  0
 16 15  1  0  0  0  0
 17 16  1  0  0  0  0
 18 19  1  0  0  0  0
 20 15  1  0  0  0  0
 21 20  1  0  0  0  0
 21 22  1  0  0  0  0
 23 21  1  0  0  0  0
 24 21  1  0  0  0  0
 25  5  1  0  0  0  0
 26 34  1  6  0  0  0
 26 33  1  0  0  0  0
 26 27  1  0  0  0  0
 27 25  1  1  0  0  0
 27 28  1  0  0  0  0
 28 29  1  0  0  0  0
 30 28  1  0  0  0  0
 31 30  1  0  0  0  0
 31 32  1  0  0  0  0
 33 36  1  6  0  0  0
 33 31  1  0  0  0  0
 35 34  1  0  0  0  0
 37 36  1  0  0  0  0
M  END
>  <minimizedAffinity>
-5.21660376

$$$$
