
 OpenBabel03252503033D

 37 38  0  0  1  0  0  0  0  0999 V2000
   41.5570   32.5330   41.3430 C   0  0  0  0  0  0  0  0  0  0  0  0
   42.1080   33.4880   40.4990 C   0  0  0  0  0  0  0  0  0  0  0  0
   41.3980   33.9670   39.3980 C   0  0  0  0  0  0  0  0  0  0  0  0
   40.1620   33.4510   39.2100 N   0  0  0  0  0  0  0  0  0  0  0  0
   39.6460   32.5290   40.0370 C   0  0  0  0  0  0  0  0  0  0  0  0
   40.3160   32.0680   41.0870 N   0  0  0  0  0  0  0  0  0  0  0  0
   42.1130   32.1720   42.1880 H   0  0  0  0  0  0  0  0  0  0  0  0
   41.8220   34.7150   38.7320 H   0  0  0  0  0  0  0  0  0  0  0  0
   43.7610   34.1210   40.8240 S   0  0  0  0  0  0  0  0  0  0  0  0
   43.6570   35.7280   41.5890 C   0  0  0  0  0  0  0  0  0  0  0  0
   44.6280   36.2800   41.4530 H   0  0  0  0  0  0  0  0  0  0  0  0
   42.8380   36.3070   41.0990 H   0  0  0  0  0  0  0  0  0  0  0  0
   43.4120   35.5220   43.0120 N   0  0  0  0  0  0  0  0  0  0  0  0
   42.9920   34.5990   43.2280 H   0  0  0  0  0  0  0  0  0  0  0  0
   44.8040   35.8230   43.9720 S   0  0  0  0  0  0  0  0  0  0  0  0
   46.0520   35.3240   43.3130 O   0  0  0  0  0  0  0  0  0  0  0  0
   46.1370   34.5110   42.7630 H   0  0  0  0  0  0  0  0  0  0  0  0
   44.8860   37.3440   44.0980 O   0  0  0  0  0  0  0  0  0  0  0  0
   45.3230   37.8370   43.3780 H   0  0  0  0  0  0  0  0  0  0  0  0
   44.6040   35.2220   45.4980 O   0  0  0  0  0  0  0  0  0  0  0  0
   45.3780   34.0900   45.7090 C   0  0  0  0  0  0  0  0  0  0  0  0
   46.4430   34.3800   45.5930 H   0  0  0  0  0  0  0  0  0  0  0  0
   45.1490   33.3890   44.8530 H   0  0  0  0  0  0  0  0  0  0  0  0
   45.1430   33.5610   46.6300 H   0  0  0  0  0  0  0  0  0  0  0  0
   38.3700   31.9930   39.8460 O   0  0  0  0  0  0  0  0  0  0  0  0
   39.1280   29.8230   39.0740 C   0  0  2  0  0  3  0  0  0  0  0  0
   38.2510   31.0260   38.8010 C   0  0  2  0  0  3  0  0  0  0  0  0
   38.6650   31.5970   37.4730 C   0  0  0  0  0  3  0  0  0  0  0  0
   39.6700   32.0870   37.5170 H   0  0  0  0  0  0  0  0  0  0  0  0
   38.7630   30.5430   36.5680 O   0  0  0  0  0  0  0  0  0  0  0  0
   40.0450   30.0120   36.7470 C   0  0  0  0  0  3  0  0  0  0  0  0
   40.7350   30.8220   36.4080 H   0  0  0  0  0  0  0  0  0  0  0  0
   40.3490   29.7580   38.2020 C   0  0  2  0  0  3  0  0  0  0  0  0
   38.3790   28.6540   38.8910 O   0  0  0  0  0  0  0  0  0  0  0  0
   39.0310   27.9340   38.6990 H   0  0  0  0  0  0  0  0  0  0  0  0
   40.8480   28.4470   38.3060 O   0  0  0  0  0  0  0  0  0  0  0  0
   41.6140   28.2960   37.7110 H   0  0  0  0  0  0  0  0  0  0  0  0
  1  7  1  0  0  0  0
  2  9  1  0  0  0  0
  2  1  2  0  0  0  0
  3  2  1  0  0  0  0
  4  3  2  0  0  0  0
  4  5  1  0  0  0  0
  5  6  2  0  0  0  0
  6  1  1  0  0  0  0
  8  3  1  0  0  0  0
  9 10  1  0  0  0  0
 10 13  1  0  0  0  0
 11 10  1  0  0  0  0
 12 10  1  0  0  0  0
 13 14  1  0  0  0  0
 13 15  1  0  0  0  0
 15 18  1  0  0  0  0
 15 20  1  0  0  0  0
 16 15  1  0  0  0  0
 17 16  1  0  0  0  0
 19 18  1  0  0  0  0
 20 21  1  0  0  0  0
 21 24  1  0  0  0  0
 22 21  1  0  0  0  0
 23 21  1  0  0  0  0
 25  5  1  0  0  0  0
 26 34  1  6  0  0  0
 27 26  1  0  0  0  0
 27 25  1  1  0  0  0
 28 29  1  0  0  0  0
 28 27  1  0  0  0  0
 30 31  1  0  0  0  0
 30 28  1  0  0  0  0
 31 33  1  0  0  0  0
 32 31  1  0  0  0  0
 33 36  1  6  0  0  0
 33 26  1  0  0  0  0
 35 34  1  0  0  0  0
 37 36  1  0  0  0  0
M  END
>  <minimizedAffinity>
-4.67015123

>  <minimizedRMSD>
3.46352601

$$$$
