
 OpenBabel03252503033D

 37 38  0  0  1  0  0  0  0  0999 V2000
   41.4760   32.5730   41.4690 C   0  0  0  0  0  0  0  0  0  0  0  0
   42.0580   33.5440   40.6660 C   0  0  0  0  0  0  0  0  0  0  0  0
   41.3860   34.0520   39.5550 C   0  0  0  0  0  0  0  0  0  0  0  0
   40.1540   33.5460   39.3150 N   0  0  0  0  0  0  0  0  0  0  0  0
   39.6080   32.6080   40.1020 C   0  0  0  0  0  0  0  0  0  0  0  0
   40.2420   32.1200   41.1630 N   0  0  0  0  0  0  0  0  0  0  0  0
   42.0030   32.1890   42.3230 H   0  0  0  0  0  0  0  0  0  0  0  0
   41.8350   34.8130   38.9190 H   0  0  0  0  0  0  0  0  0  0  0  0
   43.7030   34.1600   41.0590 S   0  0  0  0  0  0  0  0  0  0  0  0
   43.5810   35.7490   41.8570 C   0  0  0  0  0  0  0  0  0  0  0  0
   44.5400   36.3220   41.7180 H   0  0  0  0  0  0  0  0  0  0  0  0
   42.7440   36.3230   41.3920 H   0  0  0  0  0  0  0  0  0  0  0  0
   43.3620   35.5100   43.2800 N   0  0  0  0  0  0  0  0  0  0  0  0
   42.9150   34.5970   43.4800 H   0  0  0  0  0  0  0  0  0  0  0  0
   44.7860   35.7350   44.2140 S   0  0  0  0  0  0  0  0  0  0  0  0
   46.0090   35.2780   43.4830 O   0  0  0  0  0  0  0  0  0  0  0  0
   46.0700   34.5050   42.8730 H   0  0  0  0  0  0  0  0  0  0  0  0
   44.8830   37.2430   44.4450 O   0  0  0  0  0  0  0  0  0  0  0  0
   45.3010   37.7840   43.7490 H   0  0  0  0  0  0  0  0  0  0  0  0
   44.6290   35.0280   45.6990 O   0  0  0  0  0  0  0  0  0  0  0  0
   45.4620   33.9270   45.8340 C   0  0  0  0  0  0  0  0  0  0  0  0
   46.5100   34.2790   45.7320 H   0  0  0  0  0  0  0  0  0  0  0  0
   45.2630   33.2710   44.9350 H   0  0  0  0  0  0  0  0  0  0  0  0
   45.2620   33.3290   46.7200 H   0  0  0  0  0  0  0  0  0  0  0  0
   38.3360   32.0840   39.8590 O   0  0  0  0  0  0  0  0  0  0  0  0
   39.1500   29.9160   39.1390 C   0  0  2  0  0  3  0  0  0  0  0  0
   38.2580   31.0990   38.8270 C   0  0  2  0  0  3  0  0  0  0  0  0
   38.6900   31.6560   37.4990 C   0  0  0  0  0  3  0  0  0  0  0  0
   39.6850   32.1650   37.5560 H   0  0  0  0  0  0  0  0  0  0  0  0
   38.8260   30.5890   36.6140 O   0  0  0  0  0  0  0  0  0  0  0  0
   40.1140   30.0840   36.8290 C   0  0  0  0  0  3  0  0  0  0  0  0
   40.7960   30.9030   36.4920 H   0  0  0  0  0  0  0  0  0  0  0  0
   40.3890   29.8600   38.2940 C   0  0  2  0  0  3  0  0  0  0  0  0
   38.4260   28.7310   38.9590 O   0  0  0  0  0  0  0  0  0  0  0  0
   39.0950   28.0200   38.7920 H   0  0  0  0  0  0  0  0  0  0  0  0
   40.9100   28.5600   38.4290 O   0  0  0  0  0  0  0  0  0  0  0  0
   41.6910   28.4140   37.8530 H   0  0  0  0  0  0  0  0  0  0  0  0
  1  7  1  0  0  0  0
  2  9  1  0  0  0  0
  2  1  2  0  0  0  0
  3  2  1  0  0  0  0
  4  3  2  0  0  0  0
  4  5  1  0  0  0  0
  5  6  2  0  0  0  0
  6  1  1  0  0  0  0
  8  3  1  0  0  0  0
  9 10  1  0  0  0  0
 10 13  1  0  0  0  0
 11 10  1  0  0  0  0
 12 10  1  0  0  0  0
 13 14  1  0  0  0  0
 13 15  1  0  0  0  0
 15 18  1  0  0  0  0
 15 20  1  0  0  0  0
 16 15  1  0  0  0  0
 17 16  1  0  0  0  0
 19 18  1  0  0  0  0
 20 21  1  0  0  0  0
 21 24  1  0  0  0  0
 22 21  1  0  0  0  0
 23 21  1  0  0  0  0
 25  5  1  0  0  0  0
 26 34  1  6  0  0  0
 27 26  1  0  0  0  0
 27 25  1  1  0  0  0
 28 29  1  0  0  0  0
 28 27  1  0  0  0  0
 30 31  1  0  0  0  0
 30 28  1  0  0  0  0
 31 33  1  0  0  0  0
 32 31  1  0  0  0  0
 33 36  1  6  0  0  0
 33 26  1  0  0  0  0
 35 34  1  0  0  0  0
 37 36  1  0  0  0  0
M  END
>  <minimizedAffinity>
-4.60807037

>  <minimizedRMSD>
3.3319006

$$$$
