
 OpenBabel03242517553D

 46 48  0  0  1  0  0  0  0  0999 V2000
   45.4450   30.1560   47.3260 C   0  0  0  0  0  0  0  0  0  0  0  0
   46.0420   31.2170   46.7340 C   0  0  0  0  0  0  0  0  0  0  0  0
   46.2690   32.3540   47.4870 C   0  0  0  0  0  0  0  0  0  0  0  0
   45.9160   32.4540   48.8120 C   0  0  0  0  0  0  0  0  0  0  0  0
   45.3070   31.3650   49.4090 C   0  0  0  0  0  0  0  0  0  0  0  0
   45.0790   30.2240   48.6540 C   0  0  0  0  0  0  0  0  0  0  0  0
   46.7400   33.2450   47.0920 H   0  0  0  0  0  0  0  0  0  0  0  0
   46.0860   33.3260   49.4030 H   0  0  0  0  0  0  0  0  0  0  0  0
   44.9990   31.3750   50.4620 H   0  0  0  0  0  0  0  0  0  0  0  0
   44.5940   29.3570   49.1290 H   0  0  0  0  0  0  0  0  0  0  0  0
   45.0770   28.8030   46.3130 S   0  0  0  0  0  0  0  0  0  0  0  0
   44.0470   29.0570   45.2880 O   0  0  0  0  0  0  0  0  0  0  0  0
   44.4600   27.7360   47.2500 O   0  0  0  0  0  0  0  0  0  0  0  0
   47.3950   27.4200   46.7210 C   0  0  2  0  0  3  0  0  0  0  0  0
   46.4570   27.9480   45.6500 C   0  0  1  0  0  3  0  0  0  0  0  0
   45.8820   26.7190   44.9600 C   0  0  0  0  0  3  0  0  0  0  0  0
   45.2590   26.1130   45.6430 H   0  0  0  0  0  0  0  0  0  0  0  0
   46.8810   26.0110   44.3430 O   0  0  0  0  0  0  0  0  0  0  0  0
   47.6410   25.3590   45.2810 C   0  0  0  0  0  3  0  0  0  0  0  0
   47.3700   24.2740   45.3300 H   0  0  0  0  0  0  0  0  0  0  0  0
   47.5520   25.9140   46.6740 C   0  0  2  0  0  3  0  0  0  0  0  0
   46.8280   27.7190   47.9610 O   0  0  0  0  0  0  0  0  0  0  0  0
   47.4770   28.0410   48.6240 H   0  0  0  0  0  0  0  0  0  0  0  0
   46.5870   25.2730   47.4480 O   0  0  0  0  0  0  0  0  0  0  0  0
   46.8720   25.2420   48.4170 H   0  0  0  0  0  0  0  0  0  0  0  0
   46.4780   31.3210   45.4210 O   0  0  0  0  0  0  0  0  0  0  0  0
   45.2920   34.2200   43.8000 C   0  0  0  0  0  0  0  0  0  0  0  0
   46.4540   34.7060   43.1660 C   0  0  0  0  0  0  0  0  0  0  0  0
   47.6340   34.0240   43.3060 C   0  0  0  0  0  0  0  0  0  0  0  0
   47.5880   32.9160   44.0590 N   0  0  0  0  0  0  0  0  0  0  0  0
   46.4990   32.4580   44.6550 C   0  0  0  0  0  0  0  0  0  0  0  0
   45.3490   33.1120   44.5250 N   0  0  0  0  0  0  0  0  0  0  0  0
   44.3550   34.7540   43.6930 H   0  0  0  0  0  0  0  0  0  0  0  0
   46.3170   35.6080   42.5960 H   0  0  0  0  0  0  0  0  0  0  0  0
   48.8920   34.4290   42.6720 C   0  0  0  0  0  0  0  0  0  0  0  0
   49.6510   34.6410   43.4540 H   0  0  0  0  0  0  0  0  0  0  0  0
   49.3240   33.5790   42.0840 H   0  0  0  0  0  0  0  0  0  0  0  0
   48.7330   35.6040   41.7570 C   0  0  0  0  0  0  0  0  0  0  0  0
   48.0000   36.3220   42.0840 H   0  0  0  0  0  0  0  0  0  0  0  0
   49.7260   36.1590   41.8310 H   0  0  0  0  0  0  0  0  0  0  0  0
   48.6070   35.2420   40.3460 C   0  0  0  0  0  3  0  0  0  0  0  0
   48.0430   34.3430   39.5500 C   0  0  0  0  0  3  0  0  0  0  0  0
   48.2250   34.2130   38.0500 C   0  0  0  0  0  0  0  0  0  0  0  0
   47.2910   34.5450   37.5700 H   0  0  0  0  0  0  0  0  0  0  0  0
   48.4590   33.1580   37.8070 H   0  0  0  0  0  0  0  0  0  0  0  0
   49.0970   34.8270   37.8070 H   0  0  0  0  0  0  0  0  0  0  0  0
  1  6  1  0  0  0  0
  2  1  2  0  0  0  0
  2  3  1  0  0  0  0
  3  4  2  0  0  0  0
  4  8  1  0  0  0  0
  4  5  1  0  0  0  0
  5  9  1  0  0  0  0
  6 10  1  0  0  0  0
  6  5  2  0  0  0  0
  7  3  1  0  0  0  0
 11 13  2  0  0  0  0
 11  1  1  0  0  0  0
 12 11  2  0  0  0  0
 14 22  1  1  0  0  0
 15 11  1  1  0  0  0
 15 14  1  0  0  0  0
 16 17  1  0  0  0  0
 16 15  1  0  0  0  0
 18 16  1  0  0  0  0
 18 19  1  0  0  0  0
 19 20  1  0  0  0  0
 19 21  1  0  0  0  0
 21 14  1  0  0  0  0
 21 24  1  6  0  0  0
 22 23  1  0  0  0  0
 24 25  1  0  0  0  0
 26  2  1  0  0  0  0
 27 32  1  0  0  0  0
 28 29  1  0  0  0  0
 28 27  2  0  0  0  0
 29 30  2  0  0  0  0
 30 31  1  0  0  0  0
 31 26  1  0  0  0  0
 32 31  2  0  0  0  0
 33 27  1  0  0  0  0
 34 28  1  0  0  0  0
 35 29  1  0  0  0  0
 35 36  1  0  0  0  0
 37 35  1  0  0  0  0
 38 40  1  0  0  0  0
 38 39  1  0  0  0  0
 38 35  1  0  0  0  0
 41 38  1  0  0  0  0
 42 41  2  0  0  0  0
 43 42  1  0  0  0  0
 44 43  1  0  0  0  0
 45 43  1  0  0  0  0
 46 43  1  0  0  0  0
M  END
>  <minimizedAffinity>
-5.93348312

>  <minimizedRMSD>
1.13430345

$$$$
