
 OpenBabel03242517543D

 46 48  0  0  1  0  0  0  0  0999 V2000
   45.4440   30.1560   47.3300 C   0  0  0  0  0  0  0  0  0  0  0  0
   46.0370   31.2170   46.7360 C   0  0  0  0  0  0  0  0  0  0  0  0
   46.2650   32.3550   47.4860 C   0  0  0  0  0  0  0  0  0  0  0  0
   45.9150   32.4560   48.8120 C   0  0  0  0  0  0  0  0  0  0  0  0
   45.3090   31.3670   49.4120 C   0  0  0  0  0  0  0  0  0  0  0  0
   45.0810   30.2250   48.6590 C   0  0  0  0  0  0  0  0  0  0  0  0
   46.7340   33.2460   47.0890 H   0  0  0  0  0  0  0  0  0  0  0  0
   46.0850   33.3290   49.4020 H   0  0  0  0  0  0  0  0  0  0  0  0
   45.0040   31.3790   50.4660 H   0  0  0  0  0  0  0  0  0  0  0  0
   44.5990   29.3580   49.1370 H   0  0  0  0  0  0  0  0  0  0  0  0
   45.0750   28.8010   46.3200 S   0  0  0  0  0  0  0  0  0  0  0  0
   44.0410   29.0510   45.2990 O   0  0  0  0  0  0  0  0  0  0  0  0
   44.4650   27.7340   47.2600 O   0  0  0  0  0  0  0  0  0  0  0  0
   47.3950   27.4220   46.7200 C   0  0  2  0  0  3  0  0  0  0  0  0
   46.4550   27.9480   45.6520 C   0  0  1  0  0  3  0  0  0  0  0  0
   45.8810   26.7180   44.9630 C   0  0  0  0  0  3  0  0  0  0  0  0
   45.2600   26.1120   45.6480 H   0  0  0  0  0  0  0  0  0  0  0  0
   46.8790   26.0120   44.3440 O   0  0  0  0  0  0  0  0  0  0  0  0
   47.6420   25.3610   45.2790 C   0  0  0  0  0  3  0  0  0  0  0  0
   47.3730   24.2760   45.3280 H   0  0  0  0  0  0  0  0  0  0  0  0
   47.5570   25.9160   46.6720 C   0  0  2  0  0  3  0  0  0  0  0  0
   46.8320   27.7190   47.9630 O   0  0  0  0  0  0  0  0  0  0  0  0
   47.4830   28.0420   48.6240 H   0  0  0  0  0  0  0  0  0  0  0  0
   46.5950   25.2730   47.4500 O   0  0  0  0  0  0  0  0  0  0  0  0
   46.8820   25.2410   48.4170 H   0  0  0  0  0  0  0  0  0  0  0  0
   46.4700   31.3190   45.4210 O   0  0  0  0  0  0  0  0  0  0  0  0
   45.2900   34.2220   43.8000 C   0  0  0  0  0  0  0  0  0  0  0  0
   46.4530   34.7060   43.1670 C   0  0  0  0  0  0  0  0  0  0  0  0
   47.6320   34.0220   43.3080 C   0  0  0  0  0  0  0  0  0  0  0  0
   47.5840   32.9140   44.0610 N   0  0  0  0  0  0  0  0  0  0  0  0
   46.4940   32.4580   44.6550 C   0  0  0  0  0  0  0  0  0  0  0  0
   45.3450   33.1130   44.5250 N   0  0  0  0  0  0  0  0  0  0  0  0
   44.3530   34.7570   43.6930 H   0  0  0  0  0  0  0  0  0  0  0  0
   46.3180   35.6080   42.5980 H   0  0  0  0  0  0  0  0  0  0  0  0
   48.8920   34.4260   42.6760 C   0  0  0  0  0  0  0  0  0  0  0  0
   49.6500   34.6370   43.4580 H   0  0  0  0  0  0  0  0  0  0  0  0
   49.3220   33.5750   42.0880 H   0  0  0  0  0  0  0  0  0  0  0  0
   48.7350   35.6010   41.7610 C   0  0  0  0  0  0  0  0  0  0  0  0
   48.0030   36.3200   42.0880 H   0  0  0  0  0  0  0  0  0  0  0  0
   49.7280   36.1540   41.8360 H   0  0  0  0  0  0  0  0  0  0  0  0
   48.6090   35.2390   40.3490 C   0  0  0  0  0  3  0  0  0  0  0  0
   48.0400   34.3430   39.5530 C   0  0  0  0  0  3  0  0  0  0  0  0
   48.2250   34.2110   38.0540 C   0  0  0  0  0  0  0  0  0  0  0  0
   47.2930   34.5480   37.5720 H   0  0  0  0  0  0  0  0  0  0  0  0
   48.4530   33.1560   37.8110 H   0  0  0  0  0  0  0  0  0  0  0  0
   49.1000   34.8210   37.8110 H   0  0  0  0  0  0  0  0  0  0  0  0
  1  6  1  0  0  0  0
  2  1  2  0  0  0  0
  2  3  1  0  0  0  0
  3  4  2  0  0  0  0
  4  8  1  0  0  0  0
  4  5  1  0  0  0  0
  5  9  1  0  0  0  0
  6 10  1  0  0  0  0
  6  5  2  0  0  0  0
  7  3  1  0  0  0  0
 11 13  2  0  0  0  0
 11  1  1  0  0  0  0
 12 11  2  0  0  0  0
 14 22  1  1  0  0  0
 15 11  1  1  0  0  0
 15 14  1  0  0  0  0
 16 17  1  0  0  0  0
 16 15  1  0  0  0  0
 18 16  1  0  0  0  0
 18 19  1  0  0  0  0
 19 20  1  0  0  0  0
 19 21  1  0  0  0  0
 21 14  1  0  0  0  0
 21 24  1  6  0  0  0
 22 23  1  0  0  0  0
 24 25  1  0  0  0  0
 26  2  1  0  0  0  0
 27 32  1  0  0  0  0
 28 29  1  0  0  0  0
 28 27  2  0  0  0  0
 29 30  2  0  0  0  0
 30 31  1  0  0  0  0
 31 26  1  0  0  0  0
 32 31  2  0  0  0  0
 33 27  1  0  0  0  0
 34 28  1  0  0  0  0
 35 29  1  0  0  0  0
 35 36  1  0  0  0  0
 37 35  1  0  0  0  0
 38 40  1  0  0  0  0
 38 39  1  0  0  0  0
 38 35  1  0  0  0  0
 41 38  1  0  0  0  0
 42 41  2  0  0  0  0
 43 42  1  0  0  0  0
 44 43  1  0  0  0  0
 45 43  1  0  0  0  0
 46 43  1  0  0  0  0
M  END
>  <minimizedAffinity>
-5.93367243

>  <minimizedRMSD>
1.23862612

$$$$
