
 OpenBabel03242521273D

 38 40  0  0  1  0  0  0  0  0999 V2000
   48.0230   33.4260   42.5880 C   0  0  1  0  0  0  0  0  0  0  0  0
   46.5650   33.7180   42.3260 C   0  0  2  0  0  0  0  0  0  0  0  0
   46.3900   34.6220   41.2980 O   0  0  0  0  0  0  0  0  0  0  0  0
   46.7580   33.9770   40.1320 C   0  0  0  0  0  0  0  0  0  0  0  0
   48.2640   33.8390   40.1190 C   0  0  2  0  0  0  0  0  0  0  0  0
   48.8440   33.2520   41.3590 C   0  0  2  0  0  0  0  0  0  0  0  0
   48.0130   32.4570   43.1680 H   0  0  0  0  0  0  0  0  0  0  0  0
   46.0910   32.7440   42.0260 H   0  0  0  0  0  0  0  0  0  0  0  0
   46.4630   34.4930   39.2160 H   0  0  0  0  0  0  0  0  0  0  0  0
   46.3570   32.9280   40.2020 H   0  0  0  0  0  0  0  0  0  0  0  0
   48.4880   33.2760   39.1980 H   0  0  0  0  0  0  0  0  0  0  0  0
   49.8130   33.7900   41.5510 H   0  0  0  0  0  0  0  0  0  0  0  0
   44.5260   35.8390   44.6980 C   0  0  0  0  0  0  0  0  0  0  0  0
   45.1340   35.4140   43.5080 C   0  0  0  0  0  0  0  0  0  0  0  0
   45.8940   34.2100   43.5420 C   0  0  0  0  0  0  0  0  0  0  0  0
   46.0000   33.5300   44.7070 N   0  0  0  0  0  0  0  0  0  0  0  0
   45.3840   33.9890   45.8440 C   0  0  0  0  0  0  0  0  0  0  0  0
   44.6560   35.1320   45.8330 N   0  0  0  0  0  0  0  0  0  0  0  0
   43.9390   36.7360   44.7430 H   0  0  0  0  0  0  0  0  0  0  0  0
   45.0310   35.9790   42.6010 H   0  0  0  0  0  0  0  0  0  0  0  0
   45.5590   33.3400   46.6930 H   0  0  0  0  0  0  0  0  0  0  0  0
   48.5740   34.3450   43.4890 O   0  0  0  0  0  0  0  0  0  0  0  0
   48.5120   34.0570   44.4290 H   0  0  0  0  0  0  0  0  0  0  0  0
   48.7590   35.1360   39.8840 O   0  0  0  0  0  0  0  0  0  0  0  0
   49.3160   35.4550   40.6370 H   0  0  0  0  0  0  0  0  0  0  0  0
   49.2280   31.9050   41.2140 O   0  0  0  0  0  0  0  0  0  0  0  0
   51.4440   32.1510   40.6040 C   0  0  2  0  0  0  0  0  0  0  0  0
   50.4670   31.5770   41.6340 C   0  0  2  0  0  0  0  0  0  0  0  0
   50.6050   30.0570   41.4710 C   0  0  0  0  0  0  0  0  0  0  0  0
   50.4880   29.5300   42.4210 H   0  0  0  0  0  0  0  0  0  0  0  0
   51.8280   29.6900   40.9330 O   0  0  0  0  0  0  0  0  0  0  0  0
   51.7740   29.9870   39.5550 C   0  0  0  0  0  0  0  0  0  0  0  0
   51.1710   29.1950   39.0310 H   0  0  0  0  0  0  0  0  0  0  0  0
   51.1660   31.3330   39.3370 C   0  0  2  0  0  0  0  0  0  0  0  0
   52.7340   31.8540   41.0050 O   0  0  0  0  0  0  0  0  0  0  0  0
   53.3620   32.4300   40.4980 H   0  0  0  0  0  0  0  0  0  0  0  0
   51.6940   32.0130   38.2390 O   0  0  0  0  0  0  0  0  0  0  0  0
   51.0700   31.9990   37.4620 H   0  0  0  0  0  0  0  0  0  0  0  0
  1  7  1  1  0  0  0
  1 22  1  0  0  0  0
  2  8  1  6  0  0  0
  2  1  1  0  0  0  0
  2 15  1  0  0  0  0
  3  2  1  0  0  0  0
  4 10  1  0  0  0  0
  4  3  1  0  0  0  0
  5 11  1  6  0  0  0
  5  4  1  0  0  0  0
  5  6  1  0  0  0  0
  6 12  1  1  0  0  0
  6  1  1  0  0  0  0
  9  4  1  0  0  0  0
 13 19  1  0  0  0  0
 13 18  1  0  0  0  0
 14 15  1  0  0  0  0
 14 13  2  0  0  0  0
 15 16  2  0  0  0  0
 16 17  1  0  0  0  0
 17 21  1  0  0  0  0
 18 17  2  0  0  0  0
 20 14  1  0  0  0  0
 22 23  1  0  0  0  0
 24  5  1  0  0  0  0
 24 25  1  0  0  0  0
 26  6  1  0  0  0  0
 27 35  1  1  0  0  0
 27 28  1  0  0  0  0
 28 26  1  6  0  0  0
 29 28  1  0  0  0  0
 29 30  1  0  0  0  0
 31 29  1  0  0  0  0
 32 31  1  0  0  0  0
 33 32  1  0  0  0  0
 34 37  1  6  0  0  0
 34 32  1  0  0  0  0
 34 27  1  0  0  0  0
 36 35  1  0  0  0  0
 38 37  1  0  0  0  0
M  END
>  <minimizedAffinity>
-5.92040539

>  <minimizedRMSD>
0.408478588

$$$$
