
 OpenBabel03242523503D

 46 49  0  0  1  0  0  0  0  0999 V2000
   42.8310   34.4480   38.8860 C   0  0  1  0  0  0  0  0  0  0  0  0
   42.9680   35.2530   40.1790 C   0  0  1  0  0  0  0  0  0  0  0  0
   41.6910   35.6700   40.5990 O   0  0  0  0  0  0  0  0  0  0  0  0
   40.8360   35.9550   39.5330 C   0  0  0  0  0  0  0  0  0  0  0  0
   40.4430   34.6820   38.7920 C   0  0  2  0  0  0  0  0  0  0  0  0
   41.5430   33.6530   39.0560 C   0  0  1  0  0  0  0  0  0  0  0  0
   43.7140   33.7940   38.8420 H   0  0  0  0  0  0  0  0  0  0  0  0
   43.6480   36.0950   40.0450 H   0  0  0  0  0  0  0  0  0  0  0  0
   39.9360   36.4010   40.0050 H   0  0  0  0  0  0  0  0  0  0  0  0
   41.2240   36.7420   38.8560 H   0  0  0  0  0  0  0  0  0  0  0  0
   39.4430   34.3150   39.0800 H   0  0  0  0  0  0  0  0  0  0  0  0
   41.4490   33.3520   40.1330 H   0  0  0  0  0  0  0  0  0  0  0  0
   42.7240   35.2990   37.7900 O   0  0  0  0  0  0  0  0  0  0  0  0
   43.1030   34.7940   37.0130 H   0  0  0  0  0  0  0  0  0  0  0  0
   40.5410   34.9620   37.4140 O   0  0  0  0  0  0  0  0  0  0  0  0
   39.6630   35.3620   37.1500 H   0  0  0  0  0  0  0  0  0  0  0  0
   43.3740   34.3390   41.1600 O   0  0  0  0  0  0  0  0  0  0  0  0
   44.5150   34.3970   41.8490 C   0  0  0  0  0  0  0  0  0  0  0  0
   45.7430   34.5060   41.2000 C   0  0  0  0  0  0  0  0  0  0  0  0
   46.8970   34.5640   41.9740 C   0  0  0  0  0  0  0  0  0  0  0  0
   46.7970   34.5110   43.3570 N   0  0  0  0  0  0  0  0  0  0  0  0
   45.5990   34.4060   43.9350 C   0  0  0  0  0  0  0  0  0  0  0  0
   44.4620   34.3490   43.2000 N   0  0  0  0  0  0  0  0  0  0  0  0
   45.8380   34.5470   40.1350 H   0  0  0  0  0  0  0  0  0  0  0  0
   45.5910   34.3700   45.0120 H   0  0  0  0  0  0  0  0  0  0  0  0
   48.2500   34.6720   41.3100 C   0  0  0  0  0  0  0  0  0  0  0  0
   49.0060   35.9650   41.5080 C   0  0  0  0  0  0  0  0  0  0  0  0
   49.4400   34.6220   42.1210 C   0  0  0  0  0  0  0  0  0  0  0  0
   48.2100   34.3630   40.2650 H   0  0  0  0  0  0  0  0  0  0  0  0
   49.5920   36.3800   40.6850 H   0  0  0  0  0  0  0  0  0  0  0  0
   48.5770   36.7140   42.2010 H   0  0  0  0  0  0  0  0  0  0  0  0
   50.3720   34.2190   41.6350 H   0  0  0  0  0  0  0  0  0  0  0  0
   49.4200   34.5530   43.2220 H   0  0  0  0  0  0  0  0  0  0  0  0
   41.4370   32.5900   38.1840 O   0  0  0  0  0  0  0  0  0  0  0  0
   39.3020   32.2480   39.2400 C   0  0  2  0  0  3  0  0  0  0  0  0
   40.5170   31.6240   38.5600 C   0  0  2  0  0  3  0  0  0  0  0  0
   41.1840   30.7580   39.6100 C   0  0  0  0  0  3  0  0  0  0  0  0
   42.1660   30.3460   39.2460 H   0  0  0  0  0  0  0  0  0  0  0  0
   41.5300   31.6220   40.6700 O   0  0  0  0  0  0  0  0  0  0  0  0
   40.3800   31.7630   41.4490 C   0  0  0  0  0  3  0  0  0  0  0  0
   40.4020   30.9490   42.2010 H   0  0  0  0  0  0  0  0  0  0  0  0
   39.1070   31.6920   40.6340 C   0  0  1  0  0  3  0  0  0  0  0  0
   38.1660   31.9090   38.4980 O   0  0  0  0  0  0  0  0  0  0  0  0
   37.8880   30.9800   38.6910 H   0  0  0  0  0  0  0  0  0  0  0  0
   38.1180   32.4710   41.2420 O   0  0  0  0  0  0  0  0  0  0  0  0
   37.2870   31.9560   41.4290 H   0  0  0  0  0  0  0  0  0  0  0  0
  1  7  1  6  0  0  0
  1  6  1  0  0  0  0
  1  2  1  0  0  0  0
  2  8  1  6  0  0  0
  2  3  1  0  0  0  0
  2 17  1  0  0  0  0
  4  9  1  0  0  0  0
  4  3  1  0  0  0  0
  5  6  1  0  0  0  0
  5 11  1  1  0  0  0
  5  4  1  0  0  0  0
  6 12  1  1  0  0  0
 10  4  1  0  0  0  0
 13  1  1  0  0  0  0
 14 13  1  0  0  0  0
 15  5  1  0  0  0  0
 16 15  1  0  0  0  0
 17 18  1  0  0  0  0
 18 23  1  0  0  0  0
 19 18  2  0  0  0  0
 19 20  1  0  0  0  0
 20 21  2  0  0  0  0
 21 22  1  0  0  0  0
 22 25  1  0  0  0  0
 23 22  2  0  0  0  0
 24 19  1  0  0  0  0
 26 27  1  0  0  0  0
 26 20  1  0  0  0  0
 26 28  1  0  0  0  0
 27 28  1  0  0  0  0
 27 31  1  0  0  0  0
 28 33  1  0  0  0  0
 29 26  1  0  0  0  0
 30 27  1  0  0  0  0
 32 28  1  0  0  0  0
 34  6  1  0  0  0  0
 35 43  1  6  0  0  0
 35 42  1  0  0  0  0
 36 34  1  1  0  0  0
 36 35  1  0  0  0  0
 36 37  1  0  0  0  0
 37 39  1  0  0  0  0
 38 37  1  0  0  0  0
 39 40  1  0  0  0  0
 40 41  1  0  0  0  0
 42 45  1  1  0  0  0
 42 40  1  0  0  0  0
 43 44  1  0  0  0  0
 45 46  1  0  0  0  0
M  END
>  <minimizedAffinity>
-6.89234543

>  <minimizedRMSD>
1.16169333

$$$$
