
 OpenBabel03242523503D

 46 49  0  0  1  0  0  0  0  0999 V2000
   41.8120   33.8070   38.9450 C   0  0  1  0  0  0  0  0  0  0  0  0
   42.6220   34.8170   39.7590 C   0  0  1  0  0  0  0  0  0  0  0  0
   41.7380   35.6640   40.4520 O   0  0  0  0  0  0  0  0  0  0  0  0
   40.5650   35.9240   39.7410 C   0  0  0  0  0  0  0  0  0  0  0  0
   39.6900   34.6790   39.6540 C   0  0  2  0  0  0  0  0  0  0  0  0
   40.6130   33.4720   39.8230 C   0  0  1  0  0  0  0  0  0  0  0  0
   42.4700   32.9380   38.8000 H   0  0  0  0  0  0  0  0  0  0  0  0
   43.3050   35.3770   39.1170 H   0  0  0  0  0  0  0  0  0  0  0  0
   40.0430   36.7040   40.3320 H   0  0  0  0  0  0  0  0  0  0  0  0
   40.7460   36.3890   38.7500 H   0  0  0  0  0  0  0  0  0  0  0  0
   38.8670   34.6880   40.3900 H   0  0  0  0  0  0  0  0  0  0  0  0
   40.9450   33.4680   40.8940 H   0  0  0  0  0  0  0  0  0  0  0  0
   41.3820   34.3750   37.7490 O   0  0  0  0  0  0  0  0  0  0  0  0
   41.3020   33.6180   37.1000 H   0  0  0  0  0  0  0  0  0  0  0  0
   39.2280   34.5920   38.3250 O   0  0  0  0  0  0  0  0  0  0  0  0
   38.4000   35.1520   38.2840 H   0  0  0  0  0  0  0  0  0  0  0  0
   43.2570   34.0800   40.7660 O   0  0  0  0  0  0  0  0  0  0  0  0
   44.3060   34.4870   41.4820 C   0  0  0  0  0  0  0  0  0  0  0  0
   45.6050   34.3530   40.9960 C   0  0  0  0  0  0  0  0  0  0  0  0
   46.6560   34.7990   41.7900 C   0  0  0  0  0  0  0  0  0  0  0  0
   46.3880   35.3590   43.0300 N   0  0  0  0  0  0  0  0  0  0  0  0
   45.1270   35.4670   43.4550 C   0  0  0  0  0  0  0  0  0  0  0  0
   44.0880   35.0390   42.6970 N   0  0  0  0  0  0  0  0  0  0  0  0
   45.8290   33.9230   40.0430 H   0  0  0  0  0  0  0  0  0  0  0  0
   44.9880   35.9100   44.4260 H   0  0  0  0  0  0  0  0  0  0  0  0
   48.0810   34.6630   41.3050 C   0  0  0  0  0  0  0  0  0  0  0  0
   48.9700   35.8760   41.4500 C   0  0  0  0  0  0  0  0  0  0  0  0
   49.1500   34.5850   42.2680 C   0  0  0  0  0  0  0  0  0  0  0  0
   48.1260   34.2240   40.3080 H   0  0  0  0  0  0  0  0  0  0  0  0
   49.6990   36.1090   40.6700 H   0  0  0  0  0  0  0  0  0  0  0  0
   48.5630   36.7540   41.9870 H   0  0  0  0  0  0  0  0  0  0  0  0
   50.0730   34.0180   41.9630 H   0  0  0  0  0  0  0  0  0  0  0  0
   48.9900   34.6650   43.3580 H   0  0  0  0  0  0  0  0  0  0  0  0
   39.9690   32.3100   39.4500 O   0  0  0  0  0  0  0  0  0  0  0  0
   39.5490   29.9600   39.7540 C   0  0  2  0  0  3  0  0  0  0  0  0
   40.1660   31.2400   40.3080 C   0  0  2  0  0  3  0  0  0  0  0  0
   39.4110   31.5490   41.5850 C   0  0  0  0  0  3  0  0  0  0  0  0
   39.7070   32.5470   42.0130 H   0  0  0  0  0  0  0  0  0  0  0  0
   38.0590   31.7070   41.2150 O   0  0  0  0  0  0  0  0  0  0  0  0
   37.5200   30.4210   41.1490 C   0  0  0  0  0  3  0  0  0  0  0  0
   37.1380   30.1850   42.1640 H   0  0  0  0  0  0  0  0  0  0  0  0
   38.5290   29.3830   40.7120 C   0  0  1  0  0  3  0  0  0  0  0  0
   40.5650   29.0130   39.6120 O   0  0  0  0  0  0  0  0  0  0  0  0
   40.7920   28.6090   40.4860 H   0  0  0  0  0  0  0  0  0  0  0  0
   37.8750   28.3530   40.0280 O   0  0  0  0  0  0  0  0  0  0  0  0
   38.0580   27.4580   40.4220 H   0  0  0  0  0  0  0  0  0  0  0  0
  1  7  1  6  0  0  0
  1  2  1  0  0  0  0
  1  6  1  0  0  0  0
  2  8  1  6  0  0  0
  2  3  1  0  0  0  0
  2 17  1  0  0  0  0
  4  9  1  0  0  0  0
  4  3  1  0  0  0  0
  5  4  1  0  0  0  0
  5  6  1  0  0  0  0
  5 11  1  1  0  0  0
  6 12  1  1  0  0  0
 10  4  1  0  0  0  0
 13  1  1  0  0  0  0
 14 13  1  0  0  0  0
 15  5  1  0  0  0  0
 16 15  1  0  0  0  0
 17 18  1  0  0  0  0
 18 23  1  0  0  0  0
 19 18  2  0  0  0  0
 19 20  1  0  0  0  0
 20 21  2  0  0  0  0
 21 22  1  0  0  0  0
 22 25  1  0  0  0  0
 23 22  2  0  0  0  0
 24 19  1  0  0  0  0
 26 27  1  0  0  0  0
 26 20  1  0  0  0  0
 26 28  1  0  0  0  0
 27 31  1  0  0  0  0
 27 28  1  0  0  0  0
 28 33  1  0  0  0  0
 29 26  1  0  0  0  0
 30 27  1  0  0  0  0
 32 28  1  0  0  0  0
 34  6  1  0  0  0  0
 35 43  1  1  0  0  0
 35 36  1  0  0  0  0
 35 42  1  0  0  0  0
 36 34  1  6  0  0  0
 36 37  1  0  0  0  0
 37 38  1  0  0  0  0
 39 37  1  0  0  0  0
 40 39  1  0  0  0  0
 40 41  1  0  0  0  0
 42 45  1  6  0  0  0
 42 40  1  0  0  0  0
 43 44  1  0  0  0  0
 45 46  1  0  0  0  0
M  END
>  <minimizedAffinity>
-6.42051172

>  <minimizedRMSD>
1.80201805

$$$$
