
 OpenBabel03242523503D

 46 49  0  0  1  0  0  0  0  0999 V2000
   42.8140   34.5220   38.7710 C   0  0  1  0  0  0  0  0  0  0  0  0
   42.9220   35.2080   40.1340 C   0  0  1  0  0  0  0  0  0  0  0  0
   41.6280   35.4590   40.6260 O   0  0  0  0  0  0  0  0  0  0  0  0
   40.7130   35.7630   39.6170 C   0  0  0  0  0  0  0  0  0  0  0  0
   40.4130   34.5370   38.7620 C   0  0  2  0  0  0  0  0  0  0  0  0
   41.6120   33.5960   38.8940 C   0  0  1  0  0  0  0  0  0  0  0  0
   43.7520   33.9630   38.6390 H   0  0  0  0  0  0  0  0  0  0  0  0
   43.5170   36.1200   40.0660 H   0  0  0  0  0  0  0  0  0  0  0  0
   39.7930   36.0740   40.1540 H   0  0  0  0  0  0  0  0  0  0  0  0
   41.0030   36.6450   39.0110 H   0  0  0  0  0  0  0  0  0  0  0  0
   39.4620   34.0490   39.0380 H   0  0  0  0  0  0  0  0  0  0  0  0
   41.5840   33.1850   39.9370 H   0  0  0  0  0  0  0  0  0  0  0  0
   42.5910   35.4620   37.7680 O   0  0  0  0  0  0  0  0  0  0  0  0
   42.9870   35.0730   36.9350 H   0  0  0  0  0  0  0  0  0  0  0  0
   40.4370   34.9560   37.4170 O   0  0  0  0  0  0  0  0  0  0  0  0
   39.5160   35.2940   37.2180 H   0  0  0  0  0  0  0  0  0  0  0  0
   43.4450   34.2460   41.0080 O   0  0  0  0  0  0  0  0  0  0  0  0
   44.5610   34.3760   41.7270 C   0  0  0  0  0  0  0  0  0  0  0  0
   45.8070   34.4690   41.1110 C   0  0  0  0  0  0  0  0  0  0  0  0
   46.9330   34.6060   41.9150 C   0  0  0  0  0  0  0  0  0  0  0  0
   46.7890   34.6450   43.2940 N   0  0  0  0  0  0  0  0  0  0  0  0
   45.5750   34.5530   43.8400 C   0  0  0  0  0  0  0  0  0  0  0  0
   44.4650   34.4200   43.0750 N   0  0  0  0  0  0  0  0  0  0  0  0
   45.9370   34.4400   40.0490 H   0  0  0  0  0  0  0  0  0  0  0  0
   45.5320   34.5900   44.9160 H   0  0  0  0  0  0  0  0  0  0  0  0
   48.3050   34.7000   41.2880 C   0  0  0  0  0  0  0  0  0  0  0  0
   49.0590   35.9940   41.4850 C   0  0  0  0  0  0  0  0  0  0  0  0
   49.4720   34.6610   42.1330 C   0  0  0  0  0  0  0  0  0  0  0  0
   48.2940   34.3730   40.2480 H   0  0  0  0  0  0  0  0  0  0  0  0
   49.6690   36.3940   40.6720 H   0  0  0  0  0  0  0  0  0  0  0  0
   48.6120   36.7560   42.1520 H   0  0  0  0  0  0  0  0  0  0  0  0
   50.4160   34.2480   41.6810 H   0  0  0  0  0  0  0  0  0  0  0  0
   49.4200   34.6110   43.2340 H   0  0  0  0  0  0  0  0  0  0  0  0
   41.5730   32.6170   37.9230 O   0  0  0  0  0  0  0  0  0  0  0  0
   41.8520   31.2920   39.9130 C   0  0  2  0  0  3  0  0  0  0  0  0
   41.5850   31.3190   38.4110 C   0  0  2  0  0  3  0  0  0  0  0  0
   42.7590   30.6110   37.7650 C   0  0  0  0  0  3  0  0  0  0  0  0
   42.7230   30.6840   36.6420 H   0  0  0  0  0  0  0  0  0  0  0  0
   43.9090   31.3400   38.1330 O   0  0  0  0  0  0  0  0  0  0  0  0
   44.2700   30.8850   39.4020 C   0  0  0  0  0  3  0  0  0  0  0  0
   44.9530   30.0250   39.2490 H   0  0  0  0  0  0  0  0  0  0  0  0
   43.0790   30.4680   40.2370 C   0  0  1  0  0  3  0  0  0  0  0  0
   40.7640   30.6750   40.5360 O   0  0  0  0  0  0  0  0  0  0  0  0
   40.8150   29.6930   40.4370 H   0  0  0  0  0  0  0  0  0  0  0  0
   43.3590   30.6820   41.5900 O   0  0  0  0  0  0  0  0  0  0  0  0
   43.2400   29.8610   42.1400 H   0  0  0  0  0  0  0  0  0  0  0  0
  1  7  1  6  0  0  0
  1  6  1  0  0  0  0
  1  2  1  0  0  0  0
  2  8  1  6  0  0  0
  2  3  1  0  0  0  0
  2 17  1  0  0  0  0
  4  9  1  0  0  0  0
  4  3  1  0  0  0  0
  5  6  1  0  0  0  0
  5 11  1  1  0  0  0
  5  4  1  0  0  0  0
  6 12  1  1  0  0  0
 10  4  1  0  0  0  0
 13  1  1  0  0  0  0
 14 13  1  0  0  0  0
 15  5  1  0  0  0  0
 16 15  1  0  0  0  0
 17 18  1  0  0  0  0
 18 23  1  0  0  0  0
 19 18  2  0  0  0  0
 19 20  1  0  0  0  0
 20 21  2  0  0  0  0
 21 22  1  0  0  0  0
 22 25  1  0  0  0  0
 23 22  2  0  0  0  0
 24 19  1  0  0  0  0
 26 27  1  0  0  0  0
 26 20  1  0  0  0  0
 26 28  1  0  0  0  0
 27 28  1  0  0  0  0
 27 31  1  0  0  0  0
 28 33  1  0  0  0  0
 29 26  1  0  0  0  0
 30 27  1  0  0  0  0
 32 28  1  0  0  0  0
 34  6  1  0  0  0  0
 35 42  1  0  0  0  0
 35 43  1  1  0  0  0
 36 34  1  6  0  0  0
 36 35  1  0  0  0  0
 37 39  1  0  0  0  0
 37 36  1  0  0  0  0
 38 37  1  0  0  0  0
 39 40  1  0  0  0  0
 40 42  1  0  0  0  0
 41 40  1  0  0  0  0
 42 45  1  1  0  0  0
 44 43  1  0  0  0  0
 45 46  1  0  0  0  0
M  END
>  <minimizedAffinity>
-5.93646193

>  <minimizedRMSD>
0.901866138

$$$$
