
 OpenBabel03242523493D

 46 49  0  0  1  0  0  0  0  0999 V2000
   42.8130   34.5480   38.6920 C   0  0  1  0  0  0  0  0  0  0  0  0
   42.9430   35.1800   40.0790 C   0  0  1  0  0  0  0  0  0  0  0  0
   41.6570   35.3910   40.6100 O   0  0  0  0  0  0  0  0  0  0  0  0
   40.7150   35.7210   39.6350 C   0  0  0  0  0  0  0  0  0  0  0  0
   40.4130   34.5260   38.7390 C   0  0  2  0  0  0  0  0  0  0  0  0
   41.6270   33.5990   38.8060 C   0  0  1  0  0  0  0  0  0  0  0  0
   43.7560   34.0080   38.5170 H   0  0  0  0  0  0  0  0  0  0  0  0
   43.5230   36.1030   40.0340 H   0  0  0  0  0  0  0  0  0  0  0  0
   39.8040   35.9970   40.2050 H   0  0  0  0  0  0  0  0  0  0  0  0
   40.9780   36.6310   39.0590 H   0  0  0  0  0  0  0  0  0  0  0  0
   39.4750   34.0140   39.0170 H   0  0  0  0  0  0  0  0  0  0  0  0
   41.6290   33.1460   39.8320 H   0  0  0  0  0  0  0  0  0  0  0  0
   42.5530   35.5230   37.7330 O   0  0  0  0  0  0  0  0  0  0  0  0
   42.9350   35.1730   36.8770 H   0  0  0  0  0  0  0  0  0  0  0  0
   40.3990   34.9990   37.4110 O   0  0  0  0  0  0  0  0  0  0  0  0
   39.4690   35.3310   37.2470 H   0  0  0  0  0  0  0  0  0  0  0  0
   43.5000   34.1920   40.9010 O   0  0  0  0  0  0  0  0  0  0  0  0
   44.5940   34.3330   41.6510 C   0  0  0  0  0  0  0  0  0  0  0  0
   45.8560   34.4370   41.0700 C   0  0  0  0  0  0  0  0  0  0  0  0
   46.9580   34.5850   41.9060 C   0  0  0  0  0  0  0  0  0  0  0  0
   46.7750   34.6230   43.2800 N   0  0  0  0  0  0  0  0  0  0  0  0
   45.5470   34.5190   43.7920 C   0  0  0  0  0  0  0  0  0  0  0  0
   44.4600   34.3760   42.9960 N   0  0  0  0  0  0  0  0  0  0  0  0
   46.0150   34.4090   40.0120 H   0  0  0  0  0  0  0  0  0  0  0  0
   45.4740   34.5560   44.8660 H   0  0  0  0  0  0  0  0  0  0  0  0
   48.3460   34.6920   41.3170 C   0  0  0  0  0  0  0  0  0  0  0  0
   49.0670   36.0070   41.5010 C   0  0  0  0  0  0  0  0  0  0  0  0
   49.4870   34.7000   42.1960 C   0  0  0  0  0  0  0  0  0  0  0  0
   48.3730   34.3360   40.2860 H   0  0  0  0  0  0  0  0  0  0  0  0
   49.6930   36.3970   40.6960 H   0  0  0  0  0  0  0  0  0  0  0  0
   48.5840   36.7760   42.1340 H   0  0  0  0  0  0  0  0  0  0  0  0
   50.4530   34.2950   41.7840 H   0  0  0  0  0  0  0  0  0  0  0  0
   49.4030   34.6780   43.2970 H   0  0  0  0  0  0  0  0  0  0  0  0
   41.5800   32.6590   37.7970 O   0  0  0  0  0  0  0  0  0  0  0  0
   42.5700   31.0360   39.2740 C   0  0  2  0  0  3  0  0  0  0  0  0
   41.4960   31.3460   38.2350 C   0  0  2  0  0  3  0  0  0  0  0  0
   41.7960   30.4590   37.0450 C   0  0  0  0  0  3  0  0  0  0  0  0
   41.1310   30.6980   36.1680 H   0  0  0  0  0  0  0  0  0  0  0  0
   43.0940   30.8050   36.6130 O   0  0  0  0  0  0  0  0  0  0  0  0
   43.9770   30.0950   37.4280 C   0  0  0  0  0  3  0  0  0  0  0  0
   44.1530   29.1190   36.9320 H   0  0  0  0  0  0  0  0  0  0  0  0
   43.4470   29.8860   38.8280 C   0  0  1  0  0  3  0  0  0  0  0  0
   41.9340   30.6390   40.4530 O   0  0  0  0  0  0  0  0  0  0  0  0
   41.6270   29.7020   40.3850 H   0  0  0  0  0  0  0  0  0  0  0  0
   44.5140   29.8250   39.7290 O   0  0  0  0  0  0  0  0  0  0  0  0
   44.5060   28.9920   40.2750 H   0  0  0  0  0  0  0  0  0  0  0  0
  1  7  1  6  0  0  0
  1  6  1  0  0  0  0
  1  2  1  0  0  0  0
  2  8  1  6  0  0  0
  2  3  1  0  0  0  0
  2 17  1  0  0  0  0
  4  9  1  0  0  0  0
  4  3  1  0  0  0  0
  5  6  1  0  0  0  0
  5 11  1  1  0  0  0
  5  4  1  0  0  0  0
  6 12  1  1  0  0  0
 10  4  1  0  0  0  0
 13  1  1  0  0  0  0
 14 13  1  0  0  0  0
 15  5  1  0  0  0  0
 16 15  1  0  0  0  0
 17 18  1  0  0  0  0
 18 23  1  0  0  0  0
 19 18  2  0  0  0  0
 19 20  1  0  0  0  0
 20 21  2  0  0  0  0
 21 22  1  0  0  0  0
 22 25  1  0  0  0  0
 23 22  2  0  0  0  0
 24 19  1  0  0  0  0
 26 27  1  0  0  0  0
 26 20  1  0  0  0  0
 26 28  1  0  0  0  0
 27 31  1  0  0  0  0
 27 28  1  0  0  0  0
 28 33  1  0  0  0  0
 29 26  1  0  0  0  0
 30 27  1  0  0  0  0
 32 28  1  0  0  0  0
 34  6  1  0  0  0  0
 35 43  1  1  0  0  0
 36 34  1  6  0  0  0
 36 35  1  0  0  0  0
 37 36  1  0  0  0  0
 38 37  1  0  0  0  0
 39 37  1  0  0  0  0
 39 40  1  0  0  0  0
 40 42  1  0  0  0  0
 41 40  1  0  0  0  0
 42 35  1  0  0  0  0
 42 45  1  1  0  0  0
 44 43  1  0  0  0  0
 45 46  1  0  0  0  0
M  END
>  <minimizedAffinity>
-5.90302992

>  <minimizedRMSD>
0.228909582

$$$$
