
 OpenBabel03242523503D

 46 49  0  0  1  0  0  0  0  0999 V2000
   42.8230   34.5570   38.6740 C   0  0  1  0  0  0  0  0  0  0  0  0
   42.9780   35.1770   40.0640 C   0  0  1  0  0  0  0  0  0  0  0  0
   41.7020   35.4210   40.6040 O   0  0  0  0  0  0  0  0  0  0  0  0
   40.7630   35.7820   39.6370 C   0  0  0  0  0  0  0  0  0  0  0  0
   40.4230   34.6000   38.7360 C   0  0  2  0  0  0  0  0  0  0  0  0
   41.6120   33.6400   38.7900 C   0  0  1  0  0  0  0  0  0  0  0  0
   43.7490   33.9920   38.4900 H   0  0  0  0  0  0  0  0  0  0  0  0
   43.5830   36.0840   40.0200 H   0  0  0  0  0  0  0  0  0  0  0  0
   39.8630   36.0790   40.2130 H   0  0  0  0  0  0  0  0  0  0  0  0
   41.0480   36.6880   39.0630 H   0  0  0  0  0  0  0  0  0  0  0  0
   39.4740   34.1120   39.0170 H   0  0  0  0  0  0  0  0  0  0  0  0
   41.6080   33.1820   39.8140 H   0  0  0  0  0  0  0  0  0  0  0  0
   42.5840   35.5440   37.7220 O   0  0  0  0  0  0  0  0  0  0  0  0
   42.9510   35.1890   36.8620 H   0  0  0  0  0  0  0  0  0  0  0  0
   40.4140   35.0810   37.4110 O   0  0  0  0  0  0  0  0  0  0  0  0
   39.4930   35.4390   37.2540 H   0  0  0  0  0  0  0  0  0  0  0  0
   43.5130   34.1710   40.8770 O   0  0  0  0  0  0  0  0  0  0  0  0
   44.6030   34.2850   41.6380 C   0  0  0  0  0  0  0  0  0  0  0  0
   45.8680   34.4150   41.0690 C   0  0  0  0  0  0  0  0  0  0  0  0
   46.9650   34.5320   41.9160 C   0  0  0  0  0  0  0  0  0  0  0  0
   46.7740   34.5160   43.2890 N   0  0  0  0  0  0  0  0  0  0  0  0
   45.5430   34.3900   43.7900 C   0  0  0  0  0  0  0  0  0  0  0  0
   44.4610   34.2750   42.9830 N   0  0  0  0  0  0  0  0  0  0  0  0
   46.0330   34.4280   40.0120 H   0  0  0  0  0  0  0  0  0  0  0  0
   45.4640   34.3850   44.8640 H   0  0  0  0  0  0  0  0  0  0  0  0
   48.3550   34.6650   41.3400 C   0  0  0  0  0  0  0  0  0  0  0  0
   49.0450   35.9970   41.5190 C   0  0  0  0  0  0  0  0  0  0  0  0
   49.4870   34.7060   42.2300 C   0  0  0  0  0  0  0  0  0  0  0  0
   48.4000   34.3020   40.3120 H   0  0  0  0  0  0  0  0  0  0  0  0
   49.6700   36.3950   40.7170 H   0  0  0  0  0  0  0  0  0  0  0  0
   48.5390   36.7610   42.1410 H   0  0  0  0  0  0  0  0  0  0  0  0
   50.4660   34.3200   41.8310 H   0  0  0  0  0  0  0  0  0  0  0  0
   49.3930   34.6920   43.3300 H   0  0  0  0  0  0  0  0  0  0  0  0
   41.5330   32.7070   37.7770 O   0  0  0  0  0  0  0  0  0  0  0  0
   41.7690   30.4220   37.0610 C   0  0  2  0  0  3  0  0  0  0  0  0
   41.4960   31.3900   38.2070 C   0  0  2  0  0  3  0  0  0  0  0  0
   40.0790   31.1100   38.6620 C   0  0  0  0  0  3  0  0  0  0  0  0
   39.7310   31.8580   39.4280 H   0  0  0  0  0  0  0  0  0  0  0  0
   39.2530   31.3390   37.5410 O   0  0  0  0  0  0  0  0  0  0  0  0
   39.2940   30.1660   36.7830 C   0  0  0  0  0  3  0  0  0  0  0  0
   38.4780   29.5160   37.1580 H   0  0  0  0  0  0  0  0  0  0  0  0
   40.6230   29.4510   36.8770 C   0  0  1  0  0  3  0  0  0  0  0  0
   42.8990   29.6680   37.3890 O   0  0  0  0  0  0  0  0  0  0  0  0
   42.6680   28.9540   38.0320 H   0  0  0  0  0  0  0  0  0  0  0  0
   40.8690   28.7620   35.6860 O   0  0  0  0  0  0  0  0  0  0  0  0
   41.0460   27.7940   35.8350 H   0  0  0  0  0  0  0  0  0  0  0  0
  1  7  1  6  0  0  0
  1  6  1  0  0  0  0
  1  2  1  0  0  0  0
  2  8  1  6  0  0  0
  2  3  1  0  0  0  0
  2 17  1  0  0  0  0
  4  9  1  0  0  0  0
  4  3  1  0  0  0  0
  5  6  1  0  0  0  0
  5 11  1  1  0  0  0
  5  4  1  0  0  0  0
  6 12  1  1  0  0  0
 10  4  1  0  0  0  0
 13  1  1  0  0  0  0
 14 13  1  0  0  0  0
 15  5  1  0  0  0  0
 16 15  1  0  0  0  0
 17 18  1  0  0  0  0
 18 23  1  0  0  0  0
 19 18  2  0  0  0  0
 19 20  1  0  0  0  0
 20 21  2  0  0  0  0
 21 22  1  0  0  0  0
 22 25  1  0  0  0  0
 23 22  2  0  0  0  0
 24 19  1  0  0  0  0
 26 27  1  0  0  0  0
 26 20  1  0  0  0  0
 26 28  1  0  0  0  0
 27 31  1  0  0  0  0
 27 28  1  0  0  0  0
 28 33  1  0  0  0  0
 29 26  1  0  0  0  0
 30 27  1  0  0  0  0
 32 28  1  0  0  0  0
 34  6  1  0  0  0  0
 35 43  1  1  0  0  0
 35 36  1  0  0  0  0
 36 34  1  6  0  0  0
 36 37  1  0  0  0  0
 37 38  1  0  0  0  0
 39 37  1  0  0  0  0
 40 42  1  0  0  0  0
 40 41  1  0  0  0  0
 40 39  1  0  0  0  0
 42 45  1  6  0  0  0
 42 35  1  0  0  0  0
 43 44  1  0  0  0  0
 45 46  1  0  0  0  0
M  END
>  <minimizedAffinity>
-6.10996914

>  <minimizedRMSD>
0.18388097

$$$$
