
 OpenBabel03242523503D

 46 49  0  0  1  0  0  0  0  0999 V2000
   42.8150   34.5340   38.6970 C   0  0  1  0  0  0  0  0  0  0  0  0
   42.9680   35.1810   40.0740 C   0  0  1  0  0  0  0  0  0  0  0  0
   41.6920   35.4380   40.6070 O   0  0  0  0  0  0  0  0  0  0  0  0
   40.7560   35.7820   39.6310 C   0  0  0  0  0  0  0  0  0  0  0  0
   40.4150   34.5840   38.7530 C   0  0  2  0  0  0  0  0  0  0  0  0
   41.6010   33.6220   38.8290 C   0  0  1  0  0  0  0  0  0  0  0  0
   43.7400   33.9640   38.5260 H   0  0  0  0  0  0  0  0  0  0  0  0
   43.5750   36.0860   40.0140 H   0  0  0  0  0  0  0  0  0  0  0  0
   39.8550   36.0930   40.2000 H   0  0  0  0  0  0  0  0  0  0  0  0
   41.0430   36.6760   39.0400 H   0  0  0  0  0  0  0  0  0  0  0  0
   39.4640   34.1030   39.0420 H   0  0  0  0  0  0  0  0  0  0  0  0
   41.5950   33.1840   39.8610 H   0  0  0  0  0  0  0  0  0  0  0  0
   42.5790   35.5020   37.7250 O   0  0  0  0  0  0  0  0  0  0  0  0
   42.9480   35.1290   36.8730 H   0  0  0  0  0  0  0  0  0  0  0  0
   40.4090   35.0380   37.4190 O   0  0  0  0  0  0  0  0  0  0  0  0
   39.4890   35.3950   37.2530 H   0  0  0  0  0  0  0  0  0  0  0  0
   43.5000   34.1900   40.9090 O   0  0  0  0  0  0  0  0  0  0  0  0
   44.5960   34.3120   41.6590 C   0  0  0  0  0  0  0  0  0  0  0  0
   45.8560   34.4320   41.0780 C   0  0  0  0  0  0  0  0  0  0  0  0
   46.9600   34.5580   41.9140 C   0  0  0  0  0  0  0  0  0  0  0  0
   46.7810   34.5620   43.2890 N   0  0  0  0  0  0  0  0  0  0  0  0
   45.5540   34.4440   43.8020 C   0  0  0  0  0  0  0  0  0  0  0  0
   44.4650   34.3200   43.0050 N   0  0  0  0  0  0  0  0  0  0  0  0
   46.0130   34.4310   40.0190 H   0  0  0  0  0  0  0  0  0  0  0  0
   45.4830   34.4540   44.8760 H   0  0  0  0  0  0  0  0  0  0  0  0
   48.3460   34.6810   41.3250 C   0  0  0  0  0  0  0  0  0  0  0  0
   49.0550   36.0010   41.5160 C   0  0  0  0  0  0  0  0  0  0  0  0
   49.4880   34.6940   42.2030 C   0  0  0  0  0  0  0  0  0  0  0  0
   48.3750   34.3320   40.2920 H   0  0  0  0  0  0  0  0  0  0  0  0
   49.6770   36.4020   40.7120 H   0  0  0  0  0  0  0  0  0  0  0  0
   48.5670   36.7630   42.1530 H   0  0  0  0  0  0  0  0  0  0  0  0
   50.4570   34.3010   41.7880 H   0  0  0  0  0  0  0  0  0  0  0  0
   49.4050   34.6660   43.3040 H   0  0  0  0  0  0  0  0  0  0  0  0
   41.5230   32.6690   37.8340 O   0  0  0  0  0  0  0  0  0  0  0  0
   41.9550   30.4370   37.0440 C   0  0  2  0  0  3  0  0  0  0  0  0
   41.8660   31.3870   38.2340 C   0  0  2  0  0  3  0  0  0  0  0  0
   40.7310   30.8710   39.0970 C   0  0  0  0  0  3  0  0  0  0  0  0
   40.5000   31.5760   39.9450 H   0  0  0  0  0  0  0  0  0  0  0  0
   39.5770   30.8970   38.2870 O   0  0  0  0  0  0  0  0  0  0  0  0
   39.6050   29.7220   37.5340 C   0  0  0  0  0  3  0  0  0  0  0  0
   39.0780   28.9490   38.1310 H   0  0  0  0  0  0  0  0  0  0  0  0
   41.0090   29.2670   37.2050 C   0  0  1  0  0  3  0  0  0  0  0  0
   43.2510   29.9180   36.9990 O   0  0  0  0  0  0  0  0  0  0  0  0
   43.3650   29.2010   37.6700 H   0  0  0  0  0  0  0  0  0  0  0  0
   41.0060   28.5840   35.9860 O   0  0  0  0  0  0  0  0  0  0  0  0
   41.3990   27.6720   36.0580 H   0  0  0  0  0  0  0  0  0  0  0  0
  1  7  1  6  0  0  0
  1  6  1  0  0  0  0
  1  2  1  0  0  0  0
  2  8  1  6  0  0  0
  2  3  1  0  0  0  0
  2 17  1  0  0  0  0
  4  9  1  0  0  0  0
  4  3  1  0  0  0  0
  5  6  1  0  0  0  0
  5 11  1  1  0  0  0
  5  4  1  0  0  0  0
  6 12  1  1  0  0  0
 10  4  1  0  0  0  0
 13  1  1  0  0  0  0
 14 13  1  0  0  0  0
 15  5  1  0  0  0  0
 16 15  1  0  0  0  0
 17 18  1  0  0  0  0
 18 23  1  0  0  0  0
 19 18  2  0  0  0  0
 19 20  1  0  0  0  0
 20 21  2  0  0  0  0
 21 22  1  0  0  0  0
 22 25  1  0  0  0  0
 23 22  2  0  0  0  0
 24 19  1  0  0  0  0
 26 27  1  0  0  0  0
 26 20  1  0  0  0  0
 26 28  1  0  0  0  0
 27 31  1  0  0  0  0
 27 28  1  0  0  0  0
 28 33  1  0  0  0  0
 29 26  1  0  0  0  0
 30 27  1  0  0  0  0
 32 28  1  0  0  0  0
 34  6  1  0  0  0  0
 35 43  1  1  0  0  0
 35 42  1  0  0  0  0
 35 36  1  0  0  0  0
 36 34  1  6  0  0  0
 36 37  1  0  0  0  0
 37 38  1  0  0  0  0
 39 37  1  0  0  0  0
 40 41  1  0  0  0  0
 40 39  1  0  0  0  0
 42 45  1  6  0  0  0
 42 40  1  0  0  0  0
 43 44  1  0  0  0  0
 45 46  1  0  0  0  0
M  END
>  <minimizedAffinity>
-5.99161911

>  <minimizedRMSD>
1.24356258

$$$$
