
 OpenBabel03252504283D

 25 26  0  0  1  0  0  0  0  0999 V2000
   37.1940   28.4570   41.2950 O   0  0  0  0  0  0  0  0  0  0  0  0
   36.8060   30.7150   40.7350 C   0  0  2  0  0  3  0  0  0  0  0  0
   37.5790   29.7430   41.5650 C   0  0  2  0  0  3  0  0  0  0  0  0
   39.0450   30.0260   41.3530 C   0  0  0  0  0  3  0  0  0  0  0  0
   39.7060   29.3130   41.8490 H   0  0  0  0  0  0  0  0  0  0  0  0
   39.2440   31.2800   41.9300 O   0  0  0  0  0  0  0  0  0  0  0  0
   38.7940   32.2340   41.0660 C   0  0  0  0  0  3  0  0  0  0  0  0
   39.6560   32.5400   40.4220 H   0  0  0  0  0  0  0  0  0  0  0  0
   37.5820   31.9060   40.2800 C   0  0  2  0  0  3  0  0  0  0  0  0
   35.6830   31.1060   41.4670 O   0  0  0  0  0  0  0  0  0  0  0  0
   34.8910   31.2220   40.9070 H   0  0  0  0  0  0  0  0  0  0  0  0
   36.7200   32.9990   40.1580 O   0  0  0  0  0  0  0  0  0  0  0  0
   36.8680   33.6980   40.8240 H   0  0  0  0  0  0  0  0  0  0  0  0
   36.9050   27.7100   42.4270 C   0  0  0  0  0  0  0  0  0  0  0  0
   35.9070   27.2460   42.3940 H   0  0  0  0  0  0  0  0  0  0  0  0
   36.9080   28.4620   43.2710 H   0  0  0  0  0  0  0  0  0  0  0  0
   37.7080   25.4620   42.1920 C   0  0  0  0  0  0  0  0  0  0  0  0
   37.9240   26.7090   42.7440 C   0  0  0  0  0  0  0  0  0  0  0  0
   39.0620   26.8750   43.5250 C   0  0  0  0  0  0  0  0  0  0  0  0
   39.8600   25.8110   43.6800 N   0  0  0  0  0  0  0  0  0  0  0  0
   39.6460   24.6040   43.1420 C   0  0  0  0  0  0  0  0  0  0  0  0
   38.5350   24.3790   42.3590 N   0  0  0  0  0  0  0  0  0  0  0  0
   36.8500   25.2280   41.5660 H   0  0  0  0  0  0  0  0  0  0  0  0
   39.1970   27.8490   43.9350 H   0  0  0  0  0  0  0  0  0  0  0  0
   40.3800   23.8390   43.3560 H   0  0  0  0  0  0  0  0  0  0  0  0
  1 14  1  0  0  0  0
  2 10  1  1  0  0  0
  2  3  1  0  0  0  0
  3  1  1  6  0  0  0
  4  3  1  0  0  0  0
  4  5  1  0  0  0  0
  4  6  1  0  0  0  0
  7  6  1  0  0  0  0
  8  7  1  0  0  0  0
  9 12  1  1  0  0  0
  9  2  1  0  0  0  0
  9  7  1  0  0  0  0
 11 10  1  0  0  0  0
 12 13  1  0  0  0  0
 14 18  1  0  0  0  0
 14 16  1  0  0  0  0
 15 14  1  0  0  0  0
 17 22  2  0  0  0  0
 17 18  1  0  0  0  0
 18 19  2  0  0  0  0
 19 20  1  0  0  0  0
 19 24  1  0  0  0  0
 21 25  1  0  0  0  0
 21 20  2  0  0  0  0
 22 21  1  0  0  0  0
 23 17  1  0  0  0  0
M  END
>  <minimizedAffinity>
-5.31997538

$$$$

 OpenBabel03252504283D

 25 26  0  0  1  0  0  0  0  0999 V2000
   36.7120   28.3300   41.3970 O   0  0  0  0  0  0  0  0  0  0  0  0
   36.6800   30.6250   40.8550 C   0  0  2  0  0  3  0  0  0  0  0  0
   37.2700   29.5430   41.6980 C   0  0  2  0  0  3  0  0  0  0  0  0
   38.7680   29.6100   41.5450 C   0  0  0  0  0  3  0  0  0  0  0  0
   39.2980   28.8040   42.0560 H   0  0  0  0  0  0  0  0  0  0  0  0
   39.1250   30.8160   42.1460 O   0  0  0  0  0  0  0  0  0  0  0  0
   38.8530   31.8330   41.2800 C   0  0  0  0  0  3  0  0  0  0  0  0
   39.7760   32.0140   40.6730 H   0  0  0  0  0  0  0  0  0  0  0  0
   37.6380   31.6930   40.4450 C   0  0  2  0  0  3  0  0  0  0  0  0
   35.5980   31.1700   41.5490 O   0  0  0  0  0  0  0  0  0  0  0  0
   34.8540   31.4050   40.9620 H   0  0  0  0  0  0  0  0  0  0  0  0
   36.9500   32.9010   40.3050 O   0  0  0  0  0  0  0  0  0  0  0  0
   37.1730   33.5660   40.9860 H   0  0  0  0  0  0  0  0  0  0  0  0
   37.1020   27.3070   42.2470 C   0  0  0  0  0  0  0  0  0  0  0  0
   36.4740   27.2320   43.1490 H   0  0  0  0  0  0  0  0  0  0  0  0
   38.1450   27.5950   42.5770 H   0  0  0  0  0  0  0  0  0  0  0  0
   37.2580   26.0520   40.2080 C   0  0  0  0  0  0  0  0  0  0  0  0
   37.2070   26.0050   41.5880 C   0  0  0  0  0  0  0  0  0  0  0  0
   37.2600   24.7520   42.1870 C   0  0  0  0  0  0  0  0  0  0  0  0
   37.3560   23.6890   41.3800 N   0  0  0  0  0  0  0  0  0  0  0  0
   37.4050   23.7410   40.0430 C   0  0  0  0  0  0  0  0  0  0  0  0
   37.3570   24.9530   39.3910 N   0  0  0  0  0  0  0  0  0  0  0  0
   37.2240   26.9810   39.6430 H   0  0  0  0  0  0  0  0  0  0  0  0
   37.2180   24.7530   43.2520 H   0  0  0  0  0  0  0  0  0  0  0  0
   37.4830   22.7950   39.5220 H   0  0  0  0  0  0  0  0  0  0  0  0
  1 14  1  0  0  0  0
  2 10  1  1  0  0  0
  2  3  1  0  0  0  0
  3  1  1  6  0  0  0
  4  3  1  0  0  0  0
  4  5  1  0  0  0  0
  4  6  1  0  0  0  0
  7  6  1  0  0  0  0
  8  7  1  0  0  0  0
  9 12  1  1  0  0  0
  9  2  1  0  0  0  0
  9  7  1  0  0  0  0
 11 10  1  0  0  0  0
 12 13  1  0  0  0  0
 14 16  1  0  0  0  0
 14 15  1  0  0  0  0
 17 18  1  0  0  0  0
 18 19  2  0  0  0  0
 18 14  1  0  0  0  0
 19 24  1  0  0  0  0
 20 19  1  0  0  0  0
 21 20  2  0  0  0  0
 22 21  1  0  0  0  0
 22 17  2  0  0  0  0
 23 17  1  0  0  0  0
 25 21  1  0  0  0  0
M  END
>  <minimizedAffinity>
-4.88185835

$$$$

 OpenBabel03252504283D

 25 26  0  0  1  0  0  0  0  0999 V2000
   37.1750   31.8710   40.6910 O   0  0  0  0  0  0  0  0  0  0  0  0
   38.3550   32.0770   38.6600 C   0  0  2  0  0  3  0  0  0  0  0  0
   38.1150   32.6160   40.0320 C   0  0  2  0  0  3  0  0  0  0  0  0
   39.4500   32.7130   40.7250 C   0  0  0  0  0  3  0  0  0  0  0  0
   39.3810   33.0170   41.7700 H   0  0  0  0  0  0  0  0  0  0  0  0
   40.1330   33.7080   40.0250 O   0  0  0  0  0  0  0  0  0  0  0  0
   40.6170   33.1750   38.8680 C   0  0  0  0  0  3  0  0  0  0  0  0
   41.6500   32.7980   39.0770 H   0  0  0  0  0  0  0  0  0  0  0  0
   39.7680   32.1690   38.1890 C   0  0  2  0  0  3  0  0  0  0  0  0
   37.4960   32.7410   37.7810 O   0  0  0  0  0  0  0  0  0  0  0  0
   37.1450   32.1550   37.0830 H   0  0  0  0  0  0  0  0  0  0  0  0
   39.7820   32.3160   36.8000 O   0  0  0  0  0  0  0  0  0  0  0  0
   40.0800   33.1960   36.4960 H   0  0  0  0  0  0  0  0  0  0  0  0
   37.1940   30.5240   40.3600 C   0  0  0  0  0  0  0  0  0  0  0  0
   37.9420   30.2800   39.5890 H   0  0  0  0  0  0  0  0  0  0  0  0
   36.1710   30.3260   39.9220 H   0  0  0  0  0  0  0  0  0  0  0  0
   36.4400   28.5960   41.5710 C   0  0  0  0  0  0  0  0  0  0  0  0
   37.3440   29.6390   41.5150 C   0  0  0  0  0  0  0  0  0  0  0  0
   38.2780   29.7320   42.5410 C   0  0  0  0  0  0  0  0  0  0  0  0
   38.2280   28.8030   43.5020 N   0  0  0  0  0  0  0  0  0  0  0  0
   37.3500   27.7940   43.5520 C   0  0  0  0  0  0  0  0  0  0  0  0
   36.4000   27.6480   42.5640 N   0  0  0  0  0  0  0  0  0  0  0  0
   35.6710   28.4340   40.8200 H   0  0  0  0  0  0  0  0  0  0  0  0
   38.9590   30.5490   42.4650 H   0  0  0  0  0  0  0  0  0  0  0  0
   37.4310   27.1190   44.3930 H   0  0  0  0  0  0  0  0  0  0  0  0
  2 10  1  6  0  0  0
  2  3  1  0  0  0  0
  3  1  1  1  0  0  0
  3  4  1  0  0  0  0
  4  5  1  0  0  0  0
  6  4  1  0  0  0  0
  7  8  1  0  0  0  0
  7  6  1  0  0  0  0
  9 12  1  6  0  0  0
  9  2  1  0  0  0  0
  9  7  1  0  0  0  0
 11 10  1  0  0  0  0
 13 12  1  0  0  0  0
 14  1  1  0  0  0  0
 14 18  1  0  0  0  0
 15 14  1  0  0  0  0
 16 14  1  0  0  0  0
 17 22  1  0  0  0  0
 18 17  2  0  0  0  0
 18 19  1  0  0  0  0
 19 20  2  0  0  0  0
 20 21  1  0  0  0  0
 21 25  1  0  0  0  0
 22 21  2  0  0  0  0
 23 17  1  0  0  0  0
 24 19  1  0  0  0  0
M  END
>  <minimizedAffinity>
-4.82209969

$$$$

 OpenBabel03252504283D

 25 26  0  0  1  0  0  0  0  0999 V2000
   37.1920   31.2790   38.7600 O   0  0  0  0  0  0  0  0  0  0  0  0
   36.9130   30.4900   40.9650 C   0  0  2  0  0  3  0  0  0  0  0  0
   36.7680   30.2120   39.5040 C   0  0  2  0  0  3  0  0  0  0  0  0
   37.4740   28.9130   39.2140 C   0  0  0  0  0  3  0  0  0  0  0  0
   37.5030   28.6560   38.1540 H   0  0  0  0  0  0  0  0  0  0  0  0
   36.7140   27.9480   39.8750 O   0  0  0  0  0  0  0  0  0  0  0  0
   37.0260   27.9810   41.2020 C   0  0  0  0  0  3  0  0  0  0  0  0
   37.8580   27.2510   41.3700 H   0  0  0  0  0  0  0  0  0  0  0  0
   37.3060   29.3100   41.7910 C   0  0  2  0  0  3  0  0  0  0  0  0
   35.7110   31.0360   41.4200 O   0  0  0  0  0  0  0  0  0  0  0  0
   35.8450   31.7350   42.0880 H   0  0  0  0  0  0  0  0  0  0  0  0
   36.7660   29.4450   43.0720 O   0  0  0  0  0  0  0  0  0  0  0  0
   36.0570   28.8040   43.2740 H   0  0  0  0  0  0  0  0  0  0  0  0
   38.3870   31.0570   38.0920 C   0  0  0  0  0  0  0  0  0  0  0  0
   38.2560   30.9250   37.0070 H   0  0  0  0  0  0  0  0  0  0  0  0
   38.7700   30.0810   38.5150 H   0  0  0  0  0  0  0  0  0  0  0  0
   40.4280   32.1330   37.4360 C   0  0  0  0  0  0  0  0  0  0  0  0
   39.4070   32.0700   38.3640 C   0  0  0  0  0  0  0  0  0  0  0  0
   39.4600   32.9560   39.4340 C   0  0  0  0  0  0  0  0  0  0  0  0
   40.4950   33.8020   39.4800 N   0  0  0  0  0  0  0  0  0  0  0  0
   41.4820   33.8590   38.5780 C   0  0  0  0  0  0  0  0  0  0  0  0
   41.4860   33.0070   37.4950 N   0  0  0  0  0  0  0  0  0  0  0  0
   40.4810   31.4860   36.5640 H   0  0  0  0  0  0  0  0  0  0  0  0
   38.6560   32.8780   40.1310 H   0  0  0  0  0  0  0  0  0  0  0  0
   42.2550   34.5970   38.7480 H   0  0  0  0  0  0  0  0  0  0  0  0
  2 10  1  1  0  0  0
  2  9  1  0  0  0  0
  3  1  1  6  0  0  0
  3  2  1  0  0  0  0
  4  3  1  0  0  0  0
  4  6  1  0  0  0  0
  5  4  1  0  0  0  0
  6  7  1  0  0  0  0
  7  8  1  0  0  0  0
  7  9  1  0  0  0  0
  9 12  1  1  0  0  0
 10 11  1  0  0  0  0
 12 13  1  0  0  0  0
 14 18  1  0  0  0  0
 14 16  1  0  0  0  0
 14  1  1  0  0  0  0
 15 14  1  0  0  0  0
 17 22  2  0  0  0  0
 17 18  1  0  0  0  0
 18 19  2  0  0  0  0
 19 20  1  0  0  0  0
 19 24  1  0  0  0  0
 21 25  1  0  0  0  0
 21 20  2  0  0  0  0
 22 21  1  0  0  0  0
 23 17  1  0  0  0  0
M  END
>  <minimizedAffinity>
-4.70426416

$$$$

 OpenBabel03252504283D

 25 26  0  0  1  0  0  0  0  0999 V2000
   39.1380   30.8370   39.1440 O   0  0  0  0  0  0  0  0  0  0  0  0
   40.6150   32.0980   37.8060 C   0  0  2  0  0  3  0  0  0  0  0  0
   39.6270   32.0960   38.9270 C   0  0  2  0  0  3  0  0  0  0  0  0
   40.2890   32.7370   40.1200 C   0  0  0  0  0  3  0  0  0  0  0  0
   39.6810   32.7110   41.0260 H   0  0  0  0  0  0  0  0  0  0  0  0
   40.4600   34.0700   39.7480 O   0  0  0  0  0  0  0  0  0  0  0  0
   41.5440   34.1590   38.9260 C   0  0  0  0  0  3  0  0  0  0  0  0
   42.4380   34.3610   39.5690 H   0  0  0  0  0  0  0  0  0  0  0  0
   41.7600   33.0390   37.9820 C   0  0  2  0  0  3  0  0  0  0  0  0
   39.9240   32.3740   36.6250 O   0  0  0  0  0  0  0  0  0  0  0  0
   40.2640   31.8670   35.8630 H   0  0  0  0  0  0  0  0  0  0  0  0
   42.1910   33.4800   36.7280 O   0  0  0  0  0  0  0  0  0  0  0  0
   42.0050   34.4240   36.5540 H   0  0  0  0  0  0  0  0  0  0  0  0
   38.0130   30.8050   39.9540 C   0  0  0  0  0  0  0  0  0  0  0  0
   37.7470   31.7920   40.3620 H   0  0  0  0  0  0  0  0  0  0  0  0
   38.3070   30.1410   40.8210 H   0  0  0  0  0  0  0  0  0  0  0  0
   35.8450   29.8030   40.1840 C   0  0  0  0  0  0  0  0  0  0  0  0
   36.8510   30.1850   39.3170 C   0  0  0  0  0  0  0  0  0  0  0  0
   36.6530   29.9440   37.9620 C   0  0  0  0  0  0  0  0  0  0  0  0
   35.5030   29.3610   37.6040 N   0  0  0  0  0  0  0  0  0  0  0  0
   34.5320   28.9930   38.4480 C   0  0  0  0  0  0  0  0  0  0  0  0
   34.6690   29.2050   39.8020 N   0  0  0  0  0  0  0  0  0  0  0  0
   35.9010   29.9470   41.2600 H   0  0  0  0  0  0  0  0  0  0  0  0
   37.4490   30.2520   37.3230 H   0  0  0  0  0  0  0  0  0  0  0  0
   33.6560   28.5310   38.0110 H   0  0  0  0  0  0  0  0  0  0  0  0
  1 14  1  0  0  0  0
  2 10  1  6  0  0  0
  2  9  1  0  0  0  0
  2  3  1  0  0  0  0
  3  1  1  1  0  0  0
  3  4  1  0  0  0  0
  4  5  1  0  0  0  0
  6  4  1  0  0  0  0
  7  8  1  0  0  0  0
  7  6  1  0  0  0  0
  9 12  1  6  0  0  0
  9  7  1  0  0  0  0
 11 10  1  0  0  0  0
 13 12  1  0  0  0  0
 14 15  1  0  0  0  0
 14 16  1  0  0  0  0
 17 23  1  0  0  0  0
 18 14  1  0  0  0  0
 18 17  2  0  0  0  0
 19 18  1  0  0  0  0
 20 19  2  0  0  0  0
 20 21  1  0  0  0  0
 21 22  2  0  0  0  0
 22 17  1  0  0  0  0
 24 19  1  0  0  0  0
 25 21  1  0  0  0  0
M  END
>  <minimizedAffinity>
-4.53291416

$$$$

 OpenBabel03252504283D

 25 26  0  0  1  0  0  0  0  0999 V2000
   38.7950   30.7710   39.4280 O   0  0  0  0  0  0  0  0  0  0  0  0
   40.2310   32.0370   38.0510 C   0  0  2  0  0  3  0  0  0  0  0  0
   39.2430   32.0390   39.1710 C   0  0  2  0  0  3  0  0  0  0  0  0
   39.8820   32.7380   40.3430 C   0  0  0  0  0  3  0  0  0  0  0  0
   39.2750   32.7210   41.2500 H   0  0  0  0  0  0  0  0  0  0  0  0
   40.0110   34.0640   39.9300 O   0  0  0  0  0  0  0  0  0  0  0  0
   41.0920   34.1610   39.1050 C   0  0  0  0  0  3  0  0  0  0  0  0
   41.9790   34.4120   39.7410 H   0  0  0  0  0  0  0  0  0  0  0  0
   41.3450   33.0190   38.1970 C   0  0  2  0  0  3  0  0  0  0  0  0
   39.5330   32.2520   36.8610 O   0  0  0  0  0  0  0  0  0  0  0  0
   39.8900   31.7330   36.1160 H   0  0  0  0  0  0  0  0  0  0  0  0
   41.7630   33.4340   36.9300 O   0  0  0  0  0  0  0  0  0  0  0  0
   41.5470   34.3650   36.7250 H   0  0  0  0  0  0  0  0  0  0  0  0
   39.4620   30.1420   40.4680 C   0  0  0  0  0  0  0  0  0  0  0  0
   40.1250   30.8190   41.0290 H   0  0  0  0  0  0  0  0  0  0  0  0
   40.1110   29.3670   39.9600 H   0  0  0  0  0  0  0  0  0  0  0  0
   37.6260   28.6270   40.7700 C   0  0  0  0  0  0  0  0  0  0  0  0
   38.5750   29.4220   41.3820 C   0  0  0  0  0  0  0  0  0  0  0  0
   38.5840   29.4510   42.7720 C   0  0  0  0  0  0  0  0  0  0  0  0
   37.6720   28.7060   43.4080 N   0  0  0  0  0  0  0  0  0  0  0  0
   36.7540   27.9380   42.8090 C   0  0  0  0  0  0  0  0  0  0  0  0
   36.6950   27.8670   41.4350 N   0  0  0  0  0  0  0  0  0  0  0  0
   37.5340   28.5340   39.6900 H   0  0  0  0  0  0  0  0  0  0  0  0
   39.3300   30.0750   43.2110 H   0  0  0  0  0  0  0  0  0  0  0  0
   36.0810   27.3910   43.4560 H   0  0  0  0  0  0  0  0  0  0  0  0
  1 14  1  0  0  0  0
  2 10  1  6  0  0  0
  2  9  1  0  0  0  0
  2  3  1  0  0  0  0
  3  1  1  1  0  0  0
  3  4  1  0  0  0  0
  4  5  1  0  0  0  0
  6  4  1  0  0  0  0
  7  8  1  0  0  0  0
  7  6  1  0  0  0  0
  9 12  1  6  0  0  0
  9  7  1  0  0  0  0
 11 10  1  0  0  0  0
 13 12  1  0  0  0  0
 14 15  1  0  0  0  0
 14 18  1  0  0  0  0
 16 14  1  0  0  0  0
 17 18  2  0  0  0  0
 17 22  1  0  0  0  0
 18 19  1  0  0  0  0
 19 24  1  0  0  0  0
 19 20  2  0  0  0  0
 21 20  1  0  0  0  0
 21 25  1  0  0  0  0
 22 21  2  0  0  0  0
 23 17  1  0  0  0  0
M  END
>  <minimizedAffinity>
-4.51893711

$$$$

 OpenBabel03252504283D

 25 26  0  0  1  0  0  0  0  0999 V2000
   39.0710   32.3170   38.3220 O   0  0  0  0  0  0  0  0  0  0  0  0
   37.4140   31.8530   39.9340 C   0  0  2  0  0  3  0  0  0  0  0  0
   37.8210   31.7900   38.4980 C   0  0  2  0  0  3  0  0  0  0  0  0
   37.6620   30.3620   38.0410 C   0  0  0  0  0  3  0  0  0  0  0  0
   38.0150   30.1850   37.0240 H   0  0  0  0  0  0  0  0  0  0  0  0
   36.2860   30.1380   38.0710 O   0  0  0  0  0  0  0  0  0  0  0  0
   35.9080   29.9120   39.3610 C   0  0  0  0  0  3  0  0  0  0  0  0
   35.9580   28.8080   39.5380 H   0  0  0  0  0  0  0  0  0  0  0  0
   36.6060   30.6910   40.4080 C   0  0  2  0  0  3  0  0  0  0  0  0
   36.7240   33.0500   40.1330 O   0  0  0  0  0  0  0  0  0  0  0  0
   36.9190   33.4580   40.9980 H   0  0  0  0  0  0  0  0  0  0  0  0
   35.7400   31.1140   41.4190 O   0  0  0  0  0  0  0  0  0  0  0  0
   34.7970   31.1090   41.1620 H   0  0  0  0  0  0  0  0  0  0  0  0
   39.9810   31.9430   39.2990 C   0  0  0  0  0  0  0  0  0  0  0  0
   40.0860   30.8500   39.3940 H   0  0  0  0  0  0  0  0  0  0  0  0
   39.5370   32.3310   40.2630 H   0  0  0  0  0  0  0  0  0  0  0  0
   41.3990   33.4590   38.0960 C   0  0  0  0  0  0  0  0  0  0  0  0
   41.2930   32.5710   39.1490 C   0  0  0  0  0  0  0  0  0  0  0  0
   42.4230   32.3760   39.9360 C   0  0  0  0  0  0  0  0  0  0  0  0
   43.5230   33.0640   39.6110 N   0  0  0  0  0  0  0  0  0  0  0  0
   43.6200   33.9230   38.5890 C   0  0  0  0  0  0  0  0  0  0  0  0
   42.5350   34.1590   37.7740 N   0  0  0  0  0  0  0  0  0  0  0  0
   40.5750   33.6820   37.4210 H   0  0  0  0  0  0  0  0  0  0  0  0
   42.3050   31.6850   40.7390 H   0  0  0  0  0  0  0  0  0  0  0  0
   44.5770   34.4070   38.4490 H   0  0  0  0  0  0  0  0  0  0  0  0
  1 14  1  0  0  0  0
  2 10  1  6  0  0  0
  2  9  1  0  0  0  0
  3  1  1  1  0  0  0
  3  2  1  0  0  0  0
  4  6  1  0  0  0  0
  4  3  1  0  0  0  0
  5  4  1  0  0  0  0
  6  7  1  0  0  0  0
  7  8  1  0  0  0  0
  7  9  1  0  0  0  0
  9 12  1  1  0  0  0
 10 11  1  0  0  0  0
 13 12  1  0  0  0  0
 14 15  1  0  0  0  0
 14 16  1  0  0  0  0
 17 18  1  0  0  0  0
 18 14  1  0  0  0  0
 18 19  2  0  0  0  0
 19 24  1  0  0  0  0
 20 19  1  0  0  0  0
 21 20  2  0  0  0  0
 22 17  2  0  0  0  0
 22 21  1  0  0  0  0
 23 17  1  0  0  0  0
 25 21  1  0  0  0  0
M  END
>  <minimizedAffinity>
-4.45037031

$$$$

 OpenBabel03252504283D

 25 26  0  0  1  0  0  0  0  0999 V2000
   39.1240   27.4440   42.7350 O   0  0  0  0  0  0  0  0  0  0  0  0
   37.3930   28.9920   42.3240 C   0  0  2  0  0  3  0  0  0  0  0  0
   38.8590   28.7670   42.5060 C   0  0  2  0  0  3  0  0  0  0  0  0
   39.5640   29.3600   41.3140 C   0  0  0  0  0  3  0  0  0  0  0  0
   40.6400   29.1760   41.3030 H   0  0  0  0  0  0  0  0  0  0  0  0
   39.3590   30.7350   41.4370 O   0  0  0  0  0  0  0  0  0  0  0  0
   38.0980   31.0280   41.0100 C   0  0  0  0  0  3  0  0  0  0  0  0
   38.1590   31.2680   39.9190 H   0  0  0  0  0  0  0  0  0  0  0  0
   37.0410   30.0380   41.3190 C   0  0  2  0  0  3  0  0  0  0  0  0
   36.8470   29.3000   43.5710 O   0  0  0  0  0  0  0  0  0  0  0  0
   35.9600   28.9130   43.6990 H   0  0  0  0  0  0  0  0  0  0  0  0
   35.8390   30.6460   41.6890 O   0  0  0  0  0  0  0  0  0  0  0  0
   35.9360   31.5740   41.9790 H   0  0  0  0  0  0  0  0  0  0  0  0
   39.5050   26.7450   41.6000 C   0  0  0  0  0  0  0  0  0  0  0  0
   40.5790   26.5040   41.5820 H   0  0  0  0  0  0  0  0  0  0  0  0
   39.2960   27.4560   40.7460 H   0  0  0  0  0  0  0  0  0  0  0  0
   39.3470   24.5530   40.6380 C   0  0  0  0  0  0  0  0  0  0  0  0
   38.7070   25.5420   41.3590 C   0  0  0  0  0  0  0  0  0  0  0  0
   37.4020   25.2930   41.7670 C   0  0  0  0  0  0  0  0  0  0  0  0
   36.8690   24.1120   41.4300 N   0  0  0  0  0  0  0  0  0  0  0  0
   37.4940   23.1570   40.7320 C   0  0  0  0  0  0  0  0  0  0  0  0
   38.7880   23.3450   40.2990 N   0  0  0  0  0  0  0  0  0  0  0  0
   40.3670   24.6480   40.2730 H   0  0  0  0  0  0  0  0  0  0  0  0
   36.9390   26.0780   42.3200 H   0  0  0  0  0  0  0  0  0  0  0  0
   36.9330   22.2530   40.5340 H   0  0  0  0  0  0  0  0  0  0  0  0
  2  3  1  0  0  0  0
  2 10  1  1  0  0  0
  3  1  1  6  0  0  0
  4  6  1  0  0  0  0
  4  3  1  0  0  0  0
  5  4  1  0  0  0  0
  7  9  1  0  0  0  0
  7  6  1  0  0  0  0
  8  7  1  0  0  0  0
  9 12  1  1  0  0  0
  9  2  1  0  0  0  0
 10 11  1  0  0  0  0
 12 13  1  0  0  0  0
 14  1  1  0  0  0  0
 15 14  1  0  0  0  0
 16 14  1  0  0  0  0
 17 18  1  0  0  0  0
 18 14  1  0  0  0  0
 18 19  2  0  0  0  0
 19 24  1  0  0  0  0
 20 19  1  0  0  0  0
 21 20  2  0  0  0  0
 22 17  2  0  0  0  0
 22 21  1  0  0  0  0
 23 17  1  0  0  0  0
 25 21  1  0  0  0  0
M  END
>  <minimizedAffinity>
-4.42748356

$$$$

 OpenBabel03252504283D

 25 26  0  0  1  0  0  0  0  0999 V2000
   38.5840   29.5100   39.3650 O   0  0  0  0  0  0  0  0  0  0  0  0
   37.5460   31.6170   39.5790 C   0  0  2  0  0  3  0  0  0  0  0  0
   38.5950   30.6780   40.0780 C   0  0  2  0  0  3  0  0  0  0  0  0
   39.9090   31.4160   40.0710 C   0  0  0  0  0  3  0  0  0  0  0  0
   40.7640   30.7930   40.3390 H   0  0  0  0  0  0  0  0  0  0  0  0
   39.7620   32.3980   41.0500 O   0  0  0  0  0  0  0  0  0  0  0  0
   39.0270   33.4230   40.5330 C   0  0  0  0  0  3  0  0  0  0  0  0
   39.7420   34.1600   40.0890 H   0  0  0  0  0  0  0  0  0  0  0  0
   37.9320   33.0590   39.6060 C   0  0  2  0  0  3  0  0  0  0  0  0
   36.3860   31.4010   40.3240 O   0  0  0  0  0  0  0  0  0  0  0  0
   35.5740   31.4740   39.7860 H   0  0  0  0  0  0  0  0  0  0  0  0
   36.7890   33.8380   39.8040 O   0  0  0  0  0  0  0  0  0  0  0  0
   36.7550   34.2780   40.6760 H   0  0  0  0  0  0  0  0  0  0  0  0
   39.0040   28.4060   40.0910 C   0  0  0  0  0  0  0  0  0  0  0  0
   40.0700   28.4510   40.3660 H   0  0  0  0  0  0  0  0  0  0  0  0
   38.8660   27.5340   39.3850 H   0  0  0  0  0  0  0  0  0  0  0  0
   38.8840   28.0190   42.4550 C   0  0  0  0  0  0  0  0  0  0  0  0
   38.1830   28.1340   41.2710 C   0  0  0  0  0  0  0  0  0  0  0  0
   36.8020   27.9820   41.3280 C   0  0  0  0  0  0  0  0  0  0  0  0
   36.2610   27.7360   42.5260 N   0  0  0  0  0  0  0  0  0  0  0  0
   36.9450   27.6260   43.6710 C   0  0  0  0  0  0  0  0  0  0  0  0
   38.3160   27.7670   43.6800 N   0  0  0  0  0  0  0  0  0  0  0  0
   39.9650   28.1220   42.5200 H   0  0  0  0  0  0  0  0  0  0  0  0
   36.2950   28.0760   40.3950 H   0  0  0  0  0  0  0  0  0  0  0  0
   36.3690   27.4250   44.5650 H   0  0  0  0  0  0  0  0  0  0  0  0
  1 14  1  0  0  0  0
  2  9  1  0  0  0  0
  2  3  1  0  0  0  0
  2 10  1  1  0  0  0
  3  1  1  6  0  0  0
  4  3  1  0  0  0  0
  4  5  1  0  0  0  0
  4  6  1  0  0  0  0
  7  6  1  0  0  0  0
  8  7  1  0  0  0  0
  9 12  1  1  0  0  0
  9  7  1  0  0  0  0
 11 10  1  0  0  0  0
 12 13  1  0  0  0  0
 14 15  1  0  0  0  0
 14 18  1  0  0  0  0
 16 14  1  0  0  0  0
 17 23  1  0  0  0  0
 17 22  1  0  0  0  0
 18 19  1  0  0  0  0
 18 17  2  0  0  0  0
 19 20  2  0  0  0  0
 20 21  1  0  0  0  0
 21 22  2  0  0  0  0
 21 25  1  0  0  0  0
 24 19  1  0  0  0  0
M  END
>  <minimizedAffinity>
-4.30926228

$$$$
