
 OpenBabel03242517513D

 22 23  0  0  1  0  0  0  0  0999 V2000
   36.8820   30.8000   41.4120 C   0  0  1  0  0  3  0  0  0  0  0  0
   37.4870   29.4360   41.3340 C   0  0  1  0  0  3  0  0  0  0  0  0
   38.9600   29.5640   40.9810 C   0  0  0  0  0  3  0  0  0  0  0  0
   39.1630   29.2950   39.9110 H   0  0  0  0  0  0  0  0  0  0  0  0
   39.4630   30.8060   41.3140 O   0  0  0  0  0  0  0  0  0  0  0  0
   38.9210   31.8330   40.5560 C   0  0  0  0  0  3  0  0  0  0  0  0
   39.0200   32.7680   41.1510 H   0  0  0  0  0  0  0  0  0  0  0  0
   37.4510   31.6330   40.2830 C   0  0  2  0  0  3  0  0  0  0  0  0
   35.4920   30.7450   41.3370 O   0  0  0  0  0  0  0  0  0  0  0  0
   35.1260   31.6660   41.3880 H   0  0  0  0  0  0  0  0  0  0  0  0
   36.7630   32.8660   40.3170 O   0  0  0  0  0  0  0  0  0  0  0  0
   36.2310   32.9330   39.4830 H   0  0  0  0  0  0  0  0  0  0  0  0
   37.3260   28.7630   42.5830 O   0  0  0  0  0  0  0  0  0  0  0  0
   38.1970   25.3430   42.0830 C   0  0  0  0  0  0  0  0  0  0  0  0
   39.3230   25.1550   42.9260 C   0  0  0  0  0  0  0  0  0  0  0  0
   39.7740   26.2660   43.6800 C   0  0  0  0  0  0  0  0  0  0  0  0
   39.0870   27.4290   43.5340 N   0  0  0  0  0  0  0  0  0  0  0  0
   38.0240   27.5640   42.7240 C   0  0  0  0  0  0  0  0  0  0  0  0
   37.5930   26.5240   42.0120 N   0  0  0  0  0  0  0  0  0  0  0  0
   37.9210   24.4640   41.5530 H   0  0  0  0  0  0  0  0  0  0  0  0
   39.8680   24.2190   43.0370 H   0  0  0  0  0  0  0  0  0  0  0  0
   40.6270   26.1710   44.3340 H   0  0  0  0  0  0  0  0  0  0  0  0
  1  9  1  6  0  0  0
  2  1  1  0  0  0  0
  2 13  1  1  0  0  0
  3  5  1  0  0  0  0
  3  2  1  0  0  0  0
  4  3  1  0  0  0  0
  6  7  1  0  0  0  0
  6  5  1  0  0  0  0
  8 11  1  1  0  0  0
  8  6  1  0  0  0  0
  8  1  1  0  0  0  0
  9 10  1  0  0  0  0
 12 11  1  0  0  0  0
 13 18  1  0  0  0  0
 14 15  1  0  0  0  0
 15 21  1  0  0  0  0
 15 16  2  0  0  0  0
 16 22  1  0  0  0  0
 17 16  1  0  0  0  0
 18 17  2  0  0  0  0
 19 14  2  0  0  0  0
 19 18  1  0  0  0  0
 20 14  1  0  0  0  0
M  END
>  <minimizedAffinity>
-4.85794878

$$$$

 OpenBabel03242517513D

 22 23  0  0  1  0  0  0  0  0999 V2000
   37.5770   32.0000   39.9660 C   0  0  1  0  0  3  0  0  0  0  0  0
   36.5380   30.9370   39.8250 C   0  0  1  0  0  3  0  0  0  0  0  0
   37.1390   29.7460   39.0990 C   0  0  0  0  0  3  0  0  0  0  0  0
   36.7960   29.6830   38.0320 H   0  0  0  0  0  0  0  0  0  0  0  0
   38.5150   29.7150   39.2100 O   0  0  0  0  0  0  0  0  0  0  0  0
   39.1370   30.7660   38.5510 C   0  0  0  0  0  3  0  0  0  0  0  0
   40.1240   30.9210   39.0390 H   0  0  0  0  0  0  0  0  0  0  0  0
   38.3700   32.0590   38.6770 C   0  0  2  0  0  3  0  0  0  0  0  0
   37.0050   33.2380   40.2530 O   0  0  0  0  0  0  0  0  0  0  0  0
   37.7230   33.9180   40.3370 H   0  0  0  0  0  0  0  0  0  0  0  0
   39.2520   33.1540   38.8060 O   0  0  0  0  0  0  0  0  0  0  0  0
   38.9850   33.8320   38.1330 H   0  0  0  0  0  0  0  0  0  0  0  0
   36.0600   30.5520   41.1150 O   0  0  0  0  0  0  0  0  0  0  0  0
   36.9240   27.2950   42.2750 C   0  0  0  0  0  0  0  0  0  0  0  0
   38.1310   27.5010   42.9910 C   0  0  0  0  0  0  0  0  0  0  0  0
   38.6400   28.8210   43.0590 C   0  0  0  0  0  0  0  0  0  0  0  0
   37.9260   29.7890   42.4280 N   0  0  0  0  0  0  0  0  0  0  0  0
   36.7850   29.5500   41.7590 C   0  0  0  0  0  0  0  0  0  0  0  0
   36.3000   28.3120   41.6910 N   0  0  0  0  0  0  0  0  0  0  0  0
   36.6090   26.2790   42.2710 H   0  0  0  0  0  0  0  0  0  0  0  0
   38.6970   26.7200   43.4950 H   0  0  0  0  0  0  0  0  0  0  0  0
   39.5550   29.0270   43.5930 H   0  0  0  0  0  0  0  0  0  0  0  0
  1  9  1  6  0  0  0
  2  1  1  0  0  0  0
  2 13  1  1  0  0  0
  3  5  1  0  0  0  0
  3  2  1  0  0  0  0
  4  3  1  0  0  0  0
  6  8  1  0  0  0  0
  6  7  1  0  0  0  0
  6  5  1  0  0  0  0
  8 11  1  1  0  0  0
  8  1  1  0  0  0  0
  9 10  1  0  0  0  0
 12 11  1  0  0  0  0
 13 18  1  0  0  0  0
 14 15  1  0  0  0  0
 15 16  2  0  0  0  0
 15 21  1  0  0  0  0
 16 22  1  0  0  0  0
 17 16  1  0  0  0  0
 18 17  2  0  0  0  0
 19 18  1  0  0  0  0
 19 14  2  0  0  0  0
 20 14  1  0  0  0  0
M  END
>  <minimizedAffinity>
-4.69006586

$$$$

 OpenBabel03242517513D

 22 23  0  0  1  0  0  0  0  0999 V2000
   37.3550   29.7610   42.0390 C   0  0  1  0  0  3  0  0  0  0  0  0
   38.6300   29.1390   41.5730 C   0  0  1  0  0  3  0  0  0  0  0  0
   39.4230   30.1640   40.7800 C   0  0  0  0  0  3  0  0  0  0  0  0
   39.3760   29.9730   39.6740 H   0  0  0  0  0  0  0  0  0  0  0  0
   39.0640   31.4570   41.1040 O   0  0  0  0  0  0  0  0  0  0  0  0
   37.7690   31.7740   40.7210 C   0  0  0  0  0  3  0  0  0  0  0  0
   37.4260   32.6020   41.3790 H   0  0  0  0  0  0  0  0  0  0  0  0
   36.8130   30.6230   40.9180 C   0  0  2  0  0  3  0  0  0  0  0  0
   36.4240   28.7950   42.4160 O   0  0  0  0  0  0  0  0  0  0  0  0
   35.5920   29.2430   42.7160 H   0  0  0  0  0  0  0  0  0  0  0  0
   35.5530   31.0880   41.3530 O   0  0  0  0  0  0  0  0  0  0  0  0
   34.8670   30.6900   40.7570 H   0  0  0  0  0  0  0  0  0  0  0  0
   39.3830   28.6780   42.6950 O   0  0  0  0  0  0  0  0  0  0  0  0
   40.7630   25.5310   43.6400 C   0  0  0  0  0  0  0  0  0  0  0  0
   39.8280   24.5890   43.1380 C   0  0  0  0  0  0  0  0  0  0  0  0
   38.6930   25.0880   42.4530 C   0  0  0  0  0  0  0  0  0  0  0  0
   38.5900   26.4360   42.3330 N   0  0  0  0  0  0  0  0  0  0  0  0
   39.5000   27.2950   42.8250 C   0  0  0  0  0  0  0  0  0  0  0  0
   40.5700   26.8340   43.4690 N   0  0  0  0  0  0  0  0  0  0  0  0
   41.5850   25.0770   44.1400 H   0  0  0  0  0  0  0  0  0  0  0  0
   39.9180   23.5080   43.2380 H   0  0  0  0  0  0  0  0  0  0  0  0
   37.9550   24.4090   42.0540 H   0  0  0  0  0  0  0  0  0  0  0  0
  1  9  1  6  0  0  0
  2  1  1  0  0  0  0
  2 13  1  1  0  0  0
  3  5  1  0  0  0  0
  3  2  1  0  0  0  0
  4  3  1  0  0  0  0
  6  8  1  0  0  0  0
  6  5  1  0  0  0  0
  6  7  1  0  0  0  0
  8 11  1  1  0  0  0
  8  1  1  0  0  0  0
  9 10  1  0  0  0  0
 12 11  1  0  0  0  0
 13 18  1  0  0  0  0
 14 20  1  0  0  0  0
 15 21  1  0  0  0  0
 15 14  2  0  0  0  0
 16 15  1  0  0  0  0
 17 16  2  0  0  0  0
 17 18  1  0  0  0  0
 18 19  2  0  0  0  0
 19 14  1  0  0  0  0
 22 16  1  0  0  0  0
M  END
>  <minimizedAffinity>
-4.67700195

$$$$

 OpenBabel03242517513D

 22 23  0  0  1  0  0  0  0  0999 V2000
   37.7060   32.2050   40.7460 C   0  0  1  0  0  3  0  0  0  0  0  0
   38.6800   31.0820   40.8910 C   0  0  1  0  0  3  0  0  0  0  0  0
   40.0580   31.5590   40.4640 C   0  0  0  0  0  3  0  0  0  0  0  0
   40.3470   31.1680   39.4530 H   0  0  0  0  0  0  0  0  0  0  0  0
   40.1770   32.9320   40.5490 O   0  0  0  0  0  0  0  0  0  0  0  0
   39.3740   33.6050   39.6400 C   0  0  0  0  0  3  0  0  0  0  0  0
   39.1900   34.6210   40.0540 H   0  0  0  0  0  0  0  0  0  0  0  0
   38.0280   32.9450   39.4640 C   0  0  2  0  0  3  0  0  0  0  0  0
   36.3920   31.7420   40.7350 O   0  0  0  0  0  0  0  0  0  0  0  0
   35.7760   32.5130   40.6340 H   0  0  0  0  0  0  0  0  0  0  0  0
   37.0130   33.9140   39.3030 O   0  0  0  0  0  0  0  0  0  0  0  0
   36.4970   33.6720   38.4910 H   0  0  0  0  0  0  0  0  0  0  0  0
   38.7010   30.6310   42.2460 O   0  0  0  0  0  0  0  0  0  0  0  0
   36.5090   27.8220   42.2020 C   0  0  0  0  0  0  0  0  0  0  0  0
   37.2580   26.7990   42.8390 C   0  0  0  0  0  0  0  0  0  0  0  0
   38.5630   27.1210   43.2880 C   0  0  0  0  0  0  0  0  0  0  0  0
   38.9930   28.3910   43.0710 N   0  0  0  0  0  0  0  0  0  0  0  0
   38.2490   29.3300   42.4620 C   0  0  0  0  0  0  0  0  0  0  0  0
   37.0220   29.0360   42.0380 N   0  0  0  0  0  0  0  0  0  0  0  0
   35.5420   27.5010   41.8960 H   0  0  0  0  0  0  0  0  0  0  0  0
   36.9060   25.7830   43.0100 H   0  0  0  0  0  0  0  0  0  0  0  0
   39.1700   26.3750   43.7780 H   0  0  0  0  0  0  0  0  0  0  0  0
  1  9  1  6  0  0  0
  1  2  1  0  0  0  0
  2 13  1  1  0  0  0
  3  5  1  0  0  0  0
  3  2  1  0  0  0  0
  4  3  1  0  0  0  0
  6  7  1  0  0  0  0
  6  5  1  0  0  0  0
  8 11  1  1  0  0  0
  8  6  1  0  0  0  0
  8  1  1  0  0  0  0
 10  9  1  0  0  0  0
 12 11  1  0  0  0  0
 13 18  1  0  0  0  0
 14 15  1  0  0  0  0
 15 21  1  0  0  0  0
 15 16  2  0  0  0  0
 16 22  1  0  0  0  0
 17 16  1  0  0  0  0
 18 17  2  0  0  0  0
 19 14  2  0  0  0  0
 19 18  1  0  0  0  0
 20 14  1  0  0  0  0
M  END
>  <minimizedAffinity>
-4.63730383

$$$$

 OpenBabel03242517513D

 22 23  0  0  1  0  0  0  0  0999 V2000
   37.3580   29.1740   42.1560 C   0  0  1  0  0  3  0  0  0  0  0  0
   38.5610   30.0510   42.0310 C   0  0  1  0  0  3  0  0  0  0  0  0
   39.7610   29.3370   42.6300 C   0  0  0  0  0  3  0  0  0  0  0  0
   40.0410   29.7500   43.6360 H   0  0  0  0  0  0  0  0  0  0  0  0
   39.5860   27.9670   42.6570 O   0  0  0  0  0  0  0  0  0  0  0  0
   38.5820   27.5640   43.5240 C   0  0  0  0  0  3  0  0  0  0  0  0
   38.2180   26.5760   43.1680 H   0  0  0  0  0  0  0  0  0  0  0  0
   37.4010   28.5040   43.5140 C   0  0  2  0  0  3  0  0  0  0  0  0
   36.1790   29.9000   41.9980 O   0  0  0  0  0  0  0  0  0  0  0  0
   35.4040   29.2880   42.0900 H   0  0  0  0  0  0  0  0  0  0  0  0
   36.1900   27.7880   43.6390 O   0  0  0  0  0  0  0  0  0  0  0  0
   35.6720   28.2060   44.3740 H   0  0  0  0  0  0  0  0  0  0  0  0
   38.7940   30.3610   40.6570 O   0  0  0  0  0  0  0  0  0  0  0  0
   40.8100   32.9770   39.3190 C   0  0  0  0  0  0  0  0  0  0  0  0
   40.1930   34.1590   39.8040 C   0  0  0  0  0  0  0  0  0  0  0  0
   39.0440   34.0160   40.6190 C   0  0  0  0  0  0  0  0  0  0  0  0
   38.6220   32.7500   40.8710 N   0  0  0  0  0  0  0  0  0  0  0  0
   39.2370   31.6560   40.3910 C   0  0  0  0  0  0  0  0  0  0  0  0
   40.3180   31.7820   39.6250 N   0  0  0  0  0  0  0  0  0  0  0  0
   41.6650   33.1700   38.7160 H   0  0  0  0  0  0  0  0  0  0  0  0
   40.5380   35.1710   39.5970 H   0  0  0  0  0  0  0  0  0  0  0  0
   38.5410   34.8870   41.0110 H   0  0  0  0  0  0  0  0  0  0  0  0
  1  9  1  1  0  0  0
  1  8  1  0  0  0  0
  2 13  1  6  0  0  0
  2  1  1  0  0  0  0
  2  3  1  0  0  0  0
  3  5  1  0  0  0  0
  3  4  1  0  0  0  0
  5  6  1  0  0  0  0
  7  6  1  0  0  0  0
  8  6  1  0  0  0  0
  8 11  1  6  0  0  0
  9 10  1  0  0  0  0
 11 12  1  0  0  0  0
 14 19  2  0  0  0  0
 14 15  1  0  0  0  0
 15 16  2  0  0  0  0
 16 17  1  0  0  0  0
 16 22  1  0  0  0  0
 18 13  1  0  0  0  0
 18 17  2  0  0  0  0
 19 18  1  0  0  0  0
 20 14  1  0  0  0  0
 21 15  1  0  0  0  0
M  END
>  <minimizedAffinity>
-4.46976662

$$$$

 OpenBabel03242517513D

 22 23  0  0  1  0  0  0  0  0999 V2000
   38.8240   31.7050   38.8180 C   0  0  1  0  0  3  0  0  0  0  0  0
   39.3170   31.1430   40.1110 C   0  0  1  0  0  3  0  0  0  0  0  0
   40.6020   31.8530   40.5040 C   0  0  0  0  0  3  0  0  0  0  0  0
   41.5090   31.2150   40.3250 H   0  0  0  0  0  0  0  0  0  0  0  0
   40.7080   33.0940   39.9090 O   0  0  0  0  0  0  0  0  0  0  0  0
   40.8560   33.0260   38.5320 C   0  0  0  0  0  3  0  0  0  0  0  0
   40.4940   33.9920   38.1150 H   0  0  0  0  0  0  0  0  0  0  0  0
   40.0180   31.9330   37.9160 C   0  0  2  0  0  3  0  0  0  0  0  0
   37.9000   30.8550   38.2130 O   0  0  0  0  0  0  0  0  0  0  0  0
   37.5970   31.2580   37.3580 H   0  0  0  0  0  0  0  0  0  0  0  0
   39.4980   32.3420   36.6690 O   0  0  0  0  0  0  0  0  0  0  0  0
   39.7170   31.6350   36.0090 H   0  0  0  0  0  0  0  0  0  0  0  0
   38.3220   31.3080   41.1230 O   0  0  0  0  0  0  0  0  0  0  0  0
   36.2720   28.4060   41.3940 C   0  0  0  0  0  0  0  0  0  0  0  0
   36.6850   27.8150   42.6160 C   0  0  0  0  0  0  0  0  0  0  0  0
   37.7090   28.4630   43.3490 C   0  0  0  0  0  0  0  0  0  0  0  0
   38.2150   29.6060   42.8190 N   0  0  0  0  0  0  0  0  0  0  0  0
   37.7950   30.1330   41.6560 C   0  0  0  0  0  0  0  0  0  0  0  0
   36.8330   29.5300   40.9620 N   0  0  0  0  0  0  0  0  0  0  0  0
   35.5010   27.8600   40.9060 H   0  0  0  0  0  0  0  0  0  0  0  0
   36.2730   26.8970   43.0340 H   0  0  0  0  0  0  0  0  0  0  0  0
   38.0560   28.0500   44.2840 H   0  0  0  0  0  0  0  0  0  0  0  0
  1  9  1  6  0  0  0
  1  2  1  0  0  0  0
  2  3  1  0  0  0  0
  2 13  1  1  0  0  0
  4  3  1  0  0  0  0
  5  3  1  0  0  0  0
  6  5  1  0  0  0  0
  7  6  1  0  0  0  0
  8 11  1  6  0  0  0
  8  6  1  0  0  0  0
  8  1  1  0  0  0  0
 10  9  1  0  0  0  0
 12 11  1  0  0  0  0
 13 18  1  0  0  0  0
 14 15  1  0  0  0  0
 15 21  1  0  0  0  0
 15 16  2  0  0  0  0
 16 22  1  0  0  0  0
 17 16  1  0  0  0  0
 18 17  2  0  0  0  0
 19 14  2  0  0  0  0
 19 18  1  0  0  0  0
 20 14  1  0  0  0  0
M  END
>  <minimizedAffinity>
-4.45710993

$$$$

 OpenBabel03242517513D

 22 23  0  0  1  0  0  0  0  0999 V2000
   37.2930   31.3680   40.0150 C   0  0  1  0  0  3  0  0  0  0  0  0
   38.6740   30.8930   39.7000 C   0  0  1  0  0  3  0  0  0  0  0  0
   38.6980   29.3740   39.7410 C   0  0  0  0  0  3  0  0  0  0  0  0
   39.1920   28.9840   40.6710 H   0  0  0  0  0  0  0  0  0  0  0  0
   37.4430   28.8320   39.5470 O   0  0  0  0  0  0  0  0  0  0  0  0
   36.5660   29.1090   40.5850 C   0  0  0  0  0  3  0  0  0  0  0  0
   35.5360   29.0440   40.1700 H   0  0  0  0  0  0  0  0  0  0  0  0
   36.7400   30.5050   41.1300 C   0  0  2  0  0  3  0  0  0  0  0  0
   37.2880   32.7130   40.3790 O   0  0  0  0  0  0  0  0  0  0  0  0
   36.3580   32.9920   40.5840 H   0  0  0  0  0  0  0  0  0  0  0  0
   35.4920   31.0650   41.4800 O   0  0  0  0  0  0  0  0  0  0  0  0
   35.5690   31.4080   42.4070 H   0  0  0  0  0  0  0  0  0  0  0  0
   39.0670   31.3670   38.4120 O   0  0  0  0  0  0  0  0  0  0  0  0
   41.8490   33.2460   37.2140 C   0  0  0  0  0  0  0  0  0  0  0  0
   42.1170   34.1590   38.2660 C   0  0  0  0  0  0  0  0  0  0  0  0
   41.2930   34.0990   39.4160 C   0  0  0  0  0  0  0  0  0  0  0  0
   40.3050   33.1670   39.4180 N   0  0  0  0  0  0  0  0  0  0  0  0
   40.0850   32.3210   38.3980 C   0  0  0  0  0  0  0  0  0  0  0  0
   40.8550   32.3700   37.3140 N   0  0  0  0  0  0  0  0  0  0  0  0
   42.5100   33.3550   36.3880 H   0  0  0  0  0  0  0  0  0  0  0  0
   42.9120   34.9040   38.2570 H   0  0  0  0  0  0  0  0  0  0  0  0
   41.4590   34.7740   40.2430 H   0  0  0  0  0  0  0  0  0  0  0  0
  1  9  1  1  0  0  0
  1  8  1  0  0  0  0
  2 13  1  6  0  0  0
  2  3  1  0  0  0  0
  2  1  1  0  0  0  0
  3  4  1  0  0  0  0
  5  3  1  0  0  0  0
  5  6  1  0  0  0  0
  6  8  1  0  0  0  0
  7  6  1  0  0  0  0
  8 11  1  6  0  0  0
  9 10  1  0  0  0  0
 11 12  1  0  0  0  0
 14 19  2  0  0  0  0
 14 15  1  0  0  0  0
 15 16  2  0  0  0  0
 16 17  1  0  0  0  0
 16 22  1  0  0  0  0
 18 13  1  0  0  0  0
 18 17  2  0  0  0  0
 19 18  1  0  0  0  0
 20 14  1  0  0  0  0
 21 15  1  0  0  0  0
M  END
>  <minimizedAffinity>
-4.40594769

$$$$

 OpenBabel03242517513D

 22 23  0  0  1  0  0  0  0  0999 V2000
   40.8580   32.9670   37.9600 C   0  0  1  0  0  3  0  0  0  0  0  0
   40.7360   31.9630   39.0590 C   0  0  1  0  0  3  0  0  0  0  0  0
   41.7320   32.3020   40.1560 C   0  0  0  0  0  3  0  0  0  0  0  0
   42.6190   31.6140   40.1490 H   0  0  0  0  0  0  0  0  0  0  0  0
   42.0990   33.6320   40.1250 O   0  0  0  0  0  0  0  0  0  0  0  0
   42.8290   33.9690   38.9940 C   0  0  0  0  0  3  0  0  0  0  0  0
   42.6940   35.0610   38.8300 H   0  0  0  0  0  0  0  0  0  0  0  0
   42.3280   33.2670   37.7560 C   0  0  2  0  0  3  0  0  0  0  0  0
   40.2780   32.5040   36.7800 O   0  0  0  0  0  0  0  0  0  0  0  0
   40.3800   33.1930   36.0740 H   0  0  0  0  0  0  0  0  0  0  0  0
   42.4050   34.1180   36.6320 O   0  0  0  0  0  0  0  0  0  0  0  0
   42.8800   33.6220   35.9160 H   0  0  0  0  0  0  0  0  0  0  0  0
   39.4030   31.9660   39.5720 O   0  0  0  0  0  0  0  0  0  0  0  0
   37.7990   29.7960   41.9010 C   0  0  0  0  0  0  0  0  0  0  0  0
   38.0770   28.4990   41.3990 C   0  0  0  0  0  0  0  0  0  0  0  0
   38.8470   28.4010   40.2140 C   0  0  0  0  0  0  0  0  0  0  0  0
   39.2600   29.5660   39.6510 N   0  0  0  0  0  0  0  0  0  0  0  0
   38.9730   30.7760   40.1600 C   0  0  0  0  0  0  0  0  0  0  0  0
   38.2510   30.8760   41.2730 N   0  0  0  0  0  0  0  0  0  0  0  0
   37.2170   29.7840   42.7910 H   0  0  0  0  0  0  0  0  0  0  0  0
   37.7430   27.5690   41.8570 H   0  0  0  0  0  0  0  0  0  0  0  0
   39.0840   27.4350   39.7950 H   0  0  0  0  0  0  0  0  0  0  0  0
  1  9  1  6  0  0  0
  1  2  1  0  0  0  0
  2 13  1  1  0  0  0
  2  3  1  0  0  0  0
  4  3  1  0  0  0  0
  5  3  1  0  0  0  0
  6  5  1  0  0  0  0
  7  6  1  0  0  0  0
  8 11  1  6  0  0  0
  8  1  1  0  0  0  0
  8  6  1  0  0  0  0
 10  9  1  0  0  0  0
 12 11  1  0  0  0  0
 13 18  1  0  0  0  0
 14 20  1  0  0  0  0
 15 21  1  0  0  0  0
 15 14  1  0  0  0  0
 16 15  2  0  0  0  0
 17 18  2  0  0  0  0
 17 16  1  0  0  0  0
 18 19  1  0  0  0  0
 19 14  2  0  0  0  0
 22 16  1  0  0  0  0
M  END
>  <minimizedAffinity>
-4.38645029

$$$$

 OpenBabel03242517513D

 22 23  0  0  1  0  0  0  0  0999 V2000
   38.4250   32.4540   40.4660 C   0  0  1  0  0  3  0  0  0  0  0  0
   38.1600   31.0810   40.9900 C   0  0  1  0  0  3  0  0  0  0  0  0
   37.6440   30.2080   39.8590 C   0  0  0  0  0  3  0  0  0  0  0  0
   36.5370   30.0310   39.9310 H   0  0  0  0  0  0  0  0  0  0  0  0
   38.0170   30.6930   38.6210 O   0  0  0  0  0  0  0  0  0  0  0  0
   37.4190   31.9050   38.3100 C   0  0  0  0  0  3  0  0  0  0  0  0
   38.0750   32.4140   37.5690 H   0  0  0  0  0  0  0  0  0  0  0  0
   37.3100   32.8170   39.5070 C   0  0  2  0  0  3  0  0  0  0  0  0
   38.5140   33.3860   41.4980 O   0  0  0  0  0  0  0  0  0  0  0  0
   38.6870   34.2830   41.1140 H   0  0  0  0  0  0  0  0  0  0  0  0
   37.5310   34.1610   39.1350 O   0  0  0  0  0  0  0  0  0  0  0  0
   36.7760   34.6960   39.4910 H   0  0  0  0  0  0  0  0  0  0  0  0
   39.3580   30.5330   41.5420 O   0  0  0  0  0  0  0  0  0  0  0  0
   40.1740   27.3400   42.8990 C   0  0  0  0  0  0  0  0  0  0  0  0
   39.0260   26.9920   43.6550 C   0  0  0  0  0  0  0  0  0  0  0  0
   37.9480   27.9110   43.6790 C   0  0  0  0  0  0  0  0  0  0  0  0
   38.1030   29.0590   42.9700 N   0  0  0  0  0  0  0  0  0  0  0  0
   39.2100   29.3510   42.2660 C   0  0  0  0  0  0  0  0  0  0  0  0
   40.2270   28.4920   42.2390 N   0  0  0  0  0  0  0  0  0  0  0  0
   40.9360   26.6000   42.9320 H   0  0  0  0  0  0  0  0  0  0  0  0
   38.9090   26.0690   44.2210 H   0  0  0  0  0  0  0  0  0  0  0  0
   37.0540   27.6900   44.2410 H   0  0  0  0  0  0  0  0  0  0  0  0
  1  2  1  0  0  0  0
  1  9  1  1  0  0  0
  2 13  1  6  0  0  0
  3  4  1  0  0  0  0
  3  2  1  0  0  0  0
  5  3  1  0  0  0  0
  6  5  1  0  0  0  0
  6  8  1  0  0  0  0
  7  6  1  0  0  0  0
  8 11  1  6  0  0  0
  8  1  1  0  0  0  0
 10  9  1  0  0  0  0
 11 12  1  0  0  0  0
 13 18  1  0  0  0  0
 14 20  1  0  0  0  0
 14 15  1  0  0  0  0
 15 16  2  0  0  0  0
 15 21  1  0  0  0  0
 16 22  1  0  0  0  0
 17 16  1  0  0  0  0
 18 17  2  0  0  0  0
 19 18  1  0  0  0  0
 19 14  2  0  0  0  0
M  END
>  <minimizedAffinity>
-4.28563833

$$$$
