
 OpenBabel03242517503D

 22 23  0  0  1  0  0  0  0  0999 V2000
   46.7980   32.2010   48.0930 C   0  0  1  0  0  3  0  0  0  0  0  0
   46.2210   32.2900   46.7180 C   0  0  1  0  0  3  0  0  0  0  0  0
   45.4560   31.0130   46.4150 C   0  0  0  0  0  3  0  0  0  0  0  0
   46.0190   30.3360   45.7170 H   0  0  0  0  0  0  0  0  0  0  0  0
   45.0590   30.3650   47.5680 O   0  0  0  0  0  0  0  0  0  0  0  0
   46.1230   29.8640   48.3030 C   0  0  0  0  0  3  0  0  0  0  0  0
   45.7810   29.7760   49.3580 H   0  0  0  0  0  0  0  0  0  0  0  0
   47.3140   30.7920   48.2980 C   0  0  2  0  0  3  0  0  0  0  0  0
   47.8150   33.1340   48.2810 O   0  0  0  0  0  0  0  0  0  0  0  0
   48.1750   33.0440   49.2000 H   0  0  0  0  0  0  0  0  0  0  0  0
   47.9580   30.7860   49.5540 O   0  0  0  0  0  0  0  0  0  0  0  0
   48.9220   30.6220   49.3920 H   0  0  0  0  0  0  0  0  0  0  0  0
   45.3610   33.4260   46.6250 O   0  0  0  0  0  0  0  0  0  0  0  0
   44.6850   35.9970   44.2510 C   0  0  0  0  0  0  0  0  0  0  0  0
   45.5440   35.6870   43.1660 C   0  0  0  0  0  0  0  0  0  0  0  0
   46.3740   34.5460   43.2870 C   0  0  0  0  0  0  0  0  0  0  0  0
   46.2790   33.8350   44.4400 N   0  0  0  0  0  0  0  0  0  0  0  0
   45.4500   34.1640   45.4460 C   0  0  0  0  0  0  0  0  0  0  0  0
   44.6670   35.2350   45.3390 N   0  0  0  0  0  0  0  0  0  0  0  0
   44.0960   36.8660   44.0830 H   0  0  0  0  0  0  0  0  0  0  0  0
   45.6140   36.2620   42.2430 H   0  0  0  0  0  0  0  0  0  0  0  0
   47.0440   34.2710   42.4860 H   0  0  0  0  0  0  0  0  0  0  0  0
  1  9  1  6  0  0  0
  1  8  1  0  0  0  0
  2 13  1  1  0  0  0
  2  1  1  0  0  0  0
  3  2  1  0  0  0  0
  3  5  1  0  0  0  0
  4  3  1  0  0  0  0
  5  6  1  0  0  0  0
  6  7  1  0  0  0  0
  8  6  1  0  0  0  0
  8 11  1  1  0  0  0
  9 10  1  0  0  0  0
 12 11  1  0  0  0  0
 14 19  1  0  0  0  0
 15 16  1  0  0  0  0
 15 14  2  0  0  0  0
 16 17  2  0  0  0  0
 17 18  1  0  0  0  0
 18 13  1  0  0  0  0
 19 18  2  0  0  0  0
 20 14  1  0  0  0  0
 21 15  1  0  0  0  0
 22 16  1  0  0  0  0
M  END
>  <minimizedAffinity>
-4.96920204

>  <minimizedRMSD>
0.73851037

$$$$
