
 OpenBabel03242517503D

 22 23  0  0  1  0  0  0  0  0999 V2000
   45.4710   32.4680   47.6940 C   0  0  1  0  0  3  0  0  0  0  0  0
   46.4090   32.5010   46.5330 C   0  0  1  0  0  3  0  0  0  0  0  0
   47.3140   31.2810   46.5880 C   0  0  0  0  0  3  0  0  0  0  0  0
   48.3490   31.5380   46.9380 H   0  0  0  0  0  0  0  0  0  0  0  0
   46.7520   30.2560   47.3220 O   0  0  0  0  0  0  0  0  0  0  0  0
   46.6310   30.5550   48.6710 C   0  0  0  0  0  3  0  0  0  0  0  0
   45.8120   29.9210   49.0760 H   0  0  0  0  0  0  0  0  0  0  0  0
   46.2400   31.9930   48.9090 C   0  0  2  0  0  3  0  0  0  0  0  0
   44.9010   33.7180   47.9250 O   0  0  0  0  0  0  0  0  0  0  0  0
   44.2880   33.6590   48.7030 H   0  0  0  0  0  0  0  0  0  0  0  0
   45.3530   32.0960   50.0030 O   0  0  0  0  0  0  0  0  0  0  0  0
   45.7160   32.7870   50.6160 H   0  0  0  0  0  0  0  0  0  0  0  0
   45.6690   32.5230   45.3120 O   0  0  0  0  0  0  0  0  0  0  0  0
   45.5220   35.2950   43.0770 C   0  0  0  0  0  0  0  0  0  0  0  0
   46.8140   35.3230   42.4900 C   0  0  0  0  0  0  0  0  0  0  0  0
   47.7460   34.3390   42.9000 C   0  0  0  0  0  0  0  0  0  0  0  0
   47.3240   33.4410   43.8290 N   0  0  0  0  0  0  0  0  0  0  0  0
   46.0900   33.4500   44.3600 C   0  0  0  0  0  0  0  0  0  0  0  0
   45.2080   34.3720   43.9790 N   0  0  0  0  0  0  0  0  0  0  0  0
   44.8830   36.0640   42.7170 H   0  0  0  0  0  0  0  0  0  0  0  0
   47.1440   36.0460   41.7460 H   0  0  0  0  0  0  0  0  0  0  0  0
   48.7410   34.3210   42.4820 H   0  0  0  0  0  0  0  0  0  0  0  0
  1  9  1  1  0  0  0
  1  8  1  0  0  0  0
  2 13  1  6  0  0  0
  2  3  1  0  0  0  0
  2  1  1  0  0  0  0
  3  4  1  0  0  0  0
  3  5  1  0  0  0  0
  5  6  1  0  0  0  0
  6  8  1  0  0  0  0
  6  7  1  0  0  0  0
  8 11  1  1  0  0  0
  9 10  1  0  0  0  0
 11 12  1  0  0  0  0
 14 19  1  0  0  0  0
 15 16  1  0  0  0  0
 15 14  2  0  0  0  0
 16 17  2  0  0  0  0
 17 18  1  0  0  0  0
 18 13  1  0  0  0  0
 19 18  2  0  0  0  0
 20 14  1  0  0  0  0
 21 15  1  0  0  0  0
 22 16  1  0  0  0  0
M  END
>  <minimizedAffinity>
-5.08819389

>  <minimizedRMSD>
2.40168762

$$$$
