
 OpenBabel03252504263D

 25 26  0  0  1  0  0  0  0  0999 V2000
   42.4610   34.1320   41.5490 O   0  0  0  0  0  0  0  0  0  0  0  0
   40.2270   33.3830   41.4560 C   0  0  2  0  0  3  0  0  0  0  0  0
   41.1950   34.4830   41.1660 C   0  0  2  0  0  3  0  0  0  0  0  0
   41.0490   34.8490   39.7120 C   0  0  0  0  0  3  0  0  0  0  0  0
   41.7740   35.5900   39.3700 H   0  0  0  0  0  0  0  0  0  0  0  0
   39.7760   35.4120   39.6210 O   0  0  0  0  0  0  0  0  0  0  0  0
   38.8550   34.4070   39.6020 C   0  0  0  0  0  3  0  0  0  0  0  0
   38.6690   34.1400   38.5320 H   0  0  0  0  0  0  0  0  0  0  0  0
   39.1400   33.2230   40.4450 C   0  0  2  0  0  3  0  0  0  0  0  0
   39.6930   33.6040   42.7270 O   0  0  0  0  0  0  0  0  0  0  0  0
   39.5550   32.7760   43.2260 H   0  0  0  0  0  0  0  0  0  0  0  0
   37.9930   32.7340   41.0760 O   0  0  0  0  0  0  0  0  0  0  0  0
   37.2610   33.3790   41.1240 H   0  0  0  0  0  0  0  0  0  0  0  0
   43.4080   34.2680   40.5460 C   0  0  0  0  0  0  0  0  0  0  0  0
   43.1510   35.0490   39.8130 H   0  0  0  0  0  0  0  0  0  0  0  0
   43.3960   33.2740   40.0080 H   0  0  0  0  0  0  0  0  0  0  0  0
   44.8610   35.2110   42.2060 C   0  0  0  0  0  0  0  0  0  0  0  0
   44.7690   34.4660   41.0470 C   0  0  0  0  0  0  0  0  0  0  0  0
   45.9540   33.9950   40.4930 C   0  0  0  0  0  0  0  0  0  0  0  0
   47.0910   34.3000   41.1290 N   0  0  0  0  0  0  0  0  0  0  0  0
   47.1750   35.0230   42.2520 C   0  0  0  0  0  0  0  0  0  0  0  0
   46.0350   35.5170   42.8480 N   0  0  0  0  0  0  0  0  0  0  0  0
   43.9950   35.6250   42.7180 H   0  0  0  0  0  0  0  0  0  0  0  0
   45.8450   33.4240   39.6000 H   0  0  0  0  0  0  0  0  0  0  0  0
   48.1670   35.1890   42.6510 H   0  0  0  0  0  0  0  0  0  0  0  0
  2 10  1  1  0  0  0
  3  2  1  0  0  0  0
  3  1  1  6  0  0  0
  4  3  1  0  0  0  0
  5  4  1  0  0  0  0
  6  4  1  0  0  0  0
  7  6  1  0  0  0  0
  7  9  1  0  0  0  0
  8  7  1  0  0  0  0
  9 12  1  1  0  0  0
  9  2  1  0  0  0  0
 10 11  1  0  0  0  0
 12 13  1  0  0  0  0
 14 18  1  0  0  0  0
 14  1  1  0  0  0  0
 15 14  1  0  0  0  0
 16 14  1  0  0  0  0
 17 23  1  0  0  0  0
 17 22  1  0  0  0  0
 18 17  2  0  0  0  0
 19 18  1  0  0  0  0
 19 20  2  0  0  0  0
 20 21  1  0  0  0  0
 21 25  1  0  0  0  0
 21 22  2  0  0  0  0
 24 19  1  0  0  0  0
M  END
>  <minimizedAffinity>
-5.20706272

>  <minimizedRMSD>
3.56387973

$$$$
