
 OpenBabel03242517493D

 22 23  0  0  1  0  0  0  0  0999 V2000
   46.8080   32.1830   48.0350 C   0  0  1  0  0  3  0  0  0  0  0  0
   46.3040   32.2560   46.6310 C   0  0  1  0  0  3  0  0  0  0  0  0
   45.5530   30.9760   46.3050 C   0  0  0  0  0  3  0  0  0  0  0  0
   46.1500   30.2900   45.6470 H   0  0  0  0  0  0  0  0  0  0  0  0
   45.0950   30.3420   47.4430 O   0  0  0  0  0  0  0  0  0  0  0  0
   46.1190   29.8500   48.2390 C   0  0  0  0  0  3  0  0  0  0  0  0
   45.7220   29.7760   49.2760 H   0  0  0  0  0  0  0  0  0  0  0  0
   47.3100   30.7750   48.2840 C   0  0  2  0  0  3  0  0  0  0  0  0
   47.8160   33.1180   48.2640 O   0  0  0  0  0  0  0  0  0  0  0  0
   48.1270   33.0390   49.2020 H   0  0  0  0  0  0  0  0  0  0  0  0
   47.8880   30.7860   49.5720 O   0  0  0  0  0  0  0  0  0  0  0  0
   48.8600   30.6180   49.4630 H   0  0  0  0  0  0  0  0  0  0  0  0
   45.4510   33.3920   46.4800 O   0  0  0  0  0  0  0  0  0  0  0  0
   44.7960   35.8390   43.9740 C   0  0  0  0  0  0  0  0  0  0  0  0
   45.7470   35.5490   42.9620 C   0  0  0  0  0  0  0  0  0  0  0  0
   46.6320   34.4650   43.1810 C   0  0  0  0  0  0  0  0  0  0  0  0
   46.4970   33.7870   44.3500 N   0  0  0  0  0  0  0  0  0  0  0  0
   45.5810   34.0960   45.2830 C   0  0  0  0  0  0  0  0  0  0  0  0
   44.7450   35.1130   45.0840 N   0  0  0  0  0  0  0  0  0  0  0  0
   44.1700   36.6650   43.7340 H   0  0  0  0  0  0  0  0  0  0  0  0
   45.8490   36.0980   42.0270 H   0  0  0  0  0  0  0  0  0  0  0  0
   47.3730   34.2070   42.4400 H   0  0  0  0  0  0  0  0  0  0  0  0
  1  9  1  6  0  0  0
  1  8  1  0  0  0  0
  2 13  1  1  0  0  0
  2  1  1  0  0  0  0
  3  2  1  0  0  0  0
  3  5  1  0  0  0  0
  4  3  1  0  0  0  0
  5  6  1  0  0  0  0
  6  8  1  0  0  0  0
  6  7  1  0  0  0  0
  8 11  1  1  0  0  0
  9 10  1  0  0  0  0
 12 11  1  0  0  0  0
 14 19  1  0  0  0  0
 15 16  1  0  0  0  0
 15 14  2  0  0  0  0
 16 17  2  0  0  0  0
 17 18  1  0  0  0  0
 18 13  1  0  0  0  0
 19 18  2  0  0  0  0
 20 14  1  0  0  0  0
 21 15  1  0  0  0  0
 22 16  1  0  0  0  0
M  END
>  <minimizedAffinity>
-4.97864819

>  <minimizedRMSD>
0.755196571

$$$$
