
 OpenBabel03252504263D

 25 26  0  0  1  0  0  0  0  0999 V2000
   42.7010   35.5010   41.8750 O   0  0  0  0  0  0  0  0  0  0  0  0
   40.7310   35.1900   40.6180 C   0  0  2  0  0  3  0  0  0  0  0  0
   42.2070   35.4160   40.6010 C   0  0  2  0  0  3  0  0  0  0  0  0
   42.8250   34.3380   39.7490 C   0  0  0  0  0  3  0  0  0  0  0  0
   43.9160   34.3580   39.7380 H   0  0  0  0  0  0  0  0  0  0  0  0
   42.3710   34.6110   38.4590 O   0  0  0  0  0  0  0  0  0  0  0  0
   41.0880   34.1600   38.3430 C   0  0  0  0  0  3  0  0  0  0  0  0
   41.1340   33.1090   37.9620 H   0  0  0  0  0  0  0  0  0  0  0  0
   40.2210   34.2990   39.5350 C   0  0  2  0  0  3  0  0  0  0  0  0
   40.1040   36.4370   40.5690 O   0  0  0  0  0  0  0  0  0  0  0  0
   39.2990   36.4760   41.1200 H   0  0  0  0  0  0  0  0  0  0  0  0
   38.9180   34.6790   39.2000 O   0  0  0  0  0  0  0  0  0  0  0  0
   38.8390   35.0800   38.3130 H   0  0  0  0  0  0  0  0  0  0  0  0
   44.0840   35.4350   41.9440 C   0  0  0  0  0  0  0  0  0  0  0  0
   44.5730   36.4000   41.7400 H   0  0  0  0  0  0  0  0  0  0  0  0
   44.3760   34.7200   41.1180 H   0  0  0  0  0  0  0  0  0  0  0  0
   44.3470   35.6330   44.3210 C   0  0  0  0  0  0  0  0  0  0  0  0
   44.5820   34.8650   43.1970 C   0  0  0  0  0  0  0  0  0  0  0  0
   45.2520   33.6600   43.3740 C   0  0  0  0  0  0  0  0  0  0  0  0
   45.6160   33.3380   44.6210 N   0  0  0  0  0  0  0  0  0  0  0  0
   45.3850   34.0860   45.7070 C   0  0  0  0  0  0  0  0  0  0  0  0
   44.7260   35.2900   45.5950 N   0  0  0  0  0  0  0  0  0  0  0  0
   43.8310   36.5900   44.2900 H   0  0  0  0  0  0  0  0  0  0  0  0
   45.4160   33.0940   42.4860 H   0  0  0  0  0  0  0  0  0  0  0  0
   45.7400   33.6950   46.6510 H   0  0  0  0  0  0  0  0  0  0  0  0
  1 14  1  0  0  0  0
  2 10  1  6  0  0  0
  3  2  1  0  0  0  0
  3  1  1  1  0  0  0
  4  3  1  0  0  0  0
  5  4  1  0  0  0  0
  6  4  1  0  0  0  0
  7  6  1  0  0  0  0
  7  9  1  0  0  0  0
  8  7  1  0  0  0  0
  9 12  1  6  0  0  0
  9  2  1  0  0  0  0
 10 11  1  0  0  0  0
 13 12  1  0  0  0  0
 14 18  1  0  0  0  0
 15 14  1  0  0  0  0
 16 14  1  0  0  0  0
 17 22  1  0  0  0  0
 18 19  1  0  0  0  0
 18 17  2  0  0  0  0
 19 20  2  0  0  0  0
 20 21  1  0  0  0  0
 21 25  1  0  0  0  0
 22 21  2  0  0  0  0
 23 17  1  0  0  0  0
 24 19  1  0  0  0  0
M  END
>  <minimizedAffinity>
-4.63813448

>  <minimizedRMSD>
1.32269633

$$$$
