
 OpenBabel03242517503D

 22 23  0  0  1  0  0  0  0  0999 V2000
   46.8730   32.0560   47.8870 C   0  0  1  0  0  3  0  0  0  0  0  0
   46.3570   32.2560   46.4990 C   0  0  1  0  0  3  0  0  0  0  0  0
   45.6660   30.9840   46.0380 C   0  0  0  0  0  3  0  0  0  0  0  0
   46.2910   30.4030   45.3080 H   0  0  0  0  0  0  0  0  0  0  0  0
   45.2470   30.2100   47.1000 O   0  0  0  0  0  0  0  0  0  0  0  0
   46.2980   29.6840   47.8360 C   0  0  0  0  0  3  0  0  0  0  0  0
   45.9110   29.4790   48.8600 H   0  0  0  0  0  0  0  0  0  0  0  0
   47.4430   30.6550   47.9810 C   0  0  2  0  0  3  0  0  0  0  0  0
   47.8370   33.0070   48.2150 O   0  0  0  0  0  0  0  0  0  0  0  0
   48.1570   32.8420   49.1370 H   0  0  0  0  0  0  0  0  0  0  0  0
   48.0290   30.5540   49.2620 O   0  0  0  0  0  0  0  0  0  0  0  0
   49.0060   30.4460   49.1340 H   0  0  0  0  0  0  0  0  0  0  0  0
   45.4500   33.3580   46.4740 O   0  0  0  0  0  0  0  0  0  0  0  0
   44.6590   36.0300   44.2520 C   0  0  0  0  0  0  0  0  0  0  0  0
   45.5040   35.8010   43.1350 C   0  0  0  0  0  0  0  0  0  0  0  0
   46.3660   34.6780   43.1800 C   0  0  0  0  0  0  0  0  0  0  0  0
   46.3130   33.9060   44.2960 N   0  0  0  0  0  0  0  0  0  0  0  0
   45.4960   34.1590   45.3330 C   0  0  0  0  0  0  0  0  0  0  0  0
   44.6830   35.2120   45.2980 N   0  0  0  0  0  0  0  0  0  0  0  0
   44.0450   36.8910   44.1400 H   0  0  0  0  0  0  0  0  0  0  0  0
   45.5400   36.4250   42.2440 H   0  0  0  0  0  0  0  0  0  0  0  0
   47.0270   34.4640   42.3540 H   0  0  0  0  0  0  0  0  0  0  0  0
  1  8  1  0  0  0  0
  1  9  1  6  0  0  0
  2 13  1  1  0  0  0
  2  1  1  0  0  0  0
  3  2  1  0  0  0  0
  3  5  1  0  0  0  0
  4  3  1  0  0  0  0
  5  6  1  0  0  0  0
  6  8  1  0  0  0  0
  6  7  1  0  0  0  0
  8 11  1  1  0  0  0
  9 10  1  0  0  0  0
 12 11  1  0  0  0  0
 14 19  1  0  0  0  0
 15 16  1  0  0  0  0
 15 14  2  0  0  0  0
 16 17  2  0  0  0  0
 17 18  1  0  0  0  0
 18 13  1  0  0  0  0
 19 18  2  0  0  0  0
 20 14  1  0  0  0  0
 21 15  1  0  0  0  0
 22 16  1  0  0  0  0
M  END
>  <minimizedAffinity>
-4.92679214

>  <minimizedRMSD>
2.09296417

$$$$
