
 OpenBabel03242517503D

 22 23  0  0  1  0  0  0  0  0999 V2000
   45.6630   30.6960   47.1990 C   0  0  1  0  0  3  0  0  0  0  0  0
   45.7760   32.1360   47.5830 C   0  0  1  0  0  3  0  0  0  0  0  0
   47.1800   32.4070   48.0940 C   0  0  0  0  0  3  0  0  0  0  0  0
   47.2120   32.5050   49.2120 H   0  0  0  0  0  0  0  0  0  0  0  0
   48.0880   31.4790   47.6240 O   0  0  0  0  0  0  0  0  0  0  0  0
   47.8700   30.2040   48.1210 C   0  0  0  0  0  3  0  0  0  0  0  0
   48.3110   29.4860   47.3940 H   0  0  0  0  0  0  0  0  0  0  0  0
   46.4010   29.8730   48.2350 C   0  0  2  0  0  3  0  0  0  0  0  0
   44.3320   30.2970   47.1030 O   0  0  0  0  0  0  0  0  0  0  0  0
   44.2970   29.3380   46.8510 H   0  0  0  0  0  0  0  0  0  0  0  0
   46.1650   28.5210   47.9040 O   0  0  0  0  0  0  0  0  0  0  0  0
   45.6320   28.1230   48.6410 H   0  0  0  0  0  0  0  0  0  0  0  0
   45.4830   32.9620   46.4560 O   0  0  0  0  0  0  0  0  0  0  0  0
   47.6630   33.1090   43.6400 C   0  0  0  0  0  0  0  0  0  0  0  0
   47.3290   31.9490   42.8950 C   0  0  0  0  0  0  0  0  0  0  0  0
   46.3110   31.1070   43.4070 C   0  0  0  0  0  0  0  0  0  0  0  0
   45.7350   31.4800   44.5780 N   0  0  0  0  0  0  0  0  0  0  0  0
   46.0830   32.5890   45.2540 C   0  0  0  0  0  0  0  0  0  0  0  0
   47.0370   33.3860   44.7790 N   0  0  0  0  0  0  0  0  0  0  0  0
   48.4340   33.6870   43.1900 H   0  0  0  0  0  0  0  0  0  0  0  0
   47.7960   31.6570   41.9550 H   0  0  0  0  0  0  0  0  0  0  0  0
   46.0230   30.2130   42.8740 H   0  0  0  0  0  0  0  0  0  0  0  0
  1  9  1  1  0  0  0
  1  2  1  0  0  0  0
  1  8  1  0  0  0  0
  2 13  1  6  0  0  0
  2  3  1  0  0  0  0
  3  4  1  0  0  0  0
  5  3  1  0  0  0  0
  5  6  1  0  0  0  0
  6  8  1  0  0  0  0
  7  6  1  0  0  0  0
  8 11  1  6  0  0  0
 10  9  1  0  0  0  0
 11 12  1  0  0  0  0
 14 19  1  0  0  0  0
 15 16  1  0  0  0  0
 15 14  2  0  0  0  0
 16 17  2  0  0  0  0
 17 18  1  0  0  0  0
 18 13  1  0  0  0  0
 19 18  2  0  0  0  0
 20 14  1  0  0  0  0
 21 15  1  0  0  0  0
 22 16  1  0  0  0  0
M  END
>  <minimizedAffinity>
-3.47300506

>  <minimizedRMSD>
2.51037312

$$$$
