
 OpenBabel03242510493D

 42 44  0  0  1  0  0  0  0  0999 V2000
   39.9290   31.4020   40.3700 C   0  0  1  0  0  0  0  0  0  0  0  0
   39.4100   30.7720   41.6000 C   0  0  2  0  0  0  0  0  0  0  0  0
   39.9060   31.4310   42.7700 O   0  0  0  0  0  0  0  0  0  0  0  0
   41.2620   31.0940   42.8290 C   0  0  0  0  0  0  0  0  0  0  0  0
   42.0220   31.8160   41.7370 C   0  0  1  0  0  0  0  0  0  0  0  0
   41.1260   32.3060   40.6400 C   0  0  1  0  0  0  0  0  0  0  0  0
   39.1620   32.0470   39.8900 H   0  0  0  0  0  0  0  0  0  0  0  0
   38.3060   30.9310   41.7130 H   0  0  0  0  0  0  0  0  0  0  0  0
   41.3310   30.0050   42.6190 H   0  0  0  0  0  0  0  0  0  0  0  0
   41.6970   31.3140   43.8350 H   0  0  0  0  0  0  0  0  0  0  0  0
   42.8260   31.1690   41.3310 H   0  0  0  0  0  0  0  0  0  0  0  0
   40.7570   33.3450   40.8440 H   0  0  0  0  0  0  0  0  0  0  0  0
   40.2670   30.4340   39.4040 O   0  0  0  0  0  0  0  0  0  0  0  0
   40.9440   29.8020   39.7470 H   0  0  0  0  0  0  0  0  0  0  0  0
   42.6080   32.9330   42.3610 O   0  0  0  0  0  0  0  0  0  0  0  0
   41.9090   33.2980   42.9810 H   0  0  0  0  0  0  0  0  0  0  0  0
   39.7110   29.3930   41.7690 O   0  0  0  0  0  0  0  0  0  0  0  0
   37.4610   26.6240   42.0920 C   0  0  0  0  0  0  0  0  0  0  0  0
   36.7250   26.9260   43.2490 C   0  0  0  0  0  0  0  0  0  0  0  0
   37.0230   28.1130   43.9150 C   0  0  0  0  0  0  0  0  0  0  0  0
   38.0030   28.9100   43.4170 N   0  0  0  0  0  0  0  0  0  0  0  0
   38.6930   28.6100   42.3200 C   0  0  0  0  0  0  0  0  0  0  0  0
   38.4150   27.4620   41.6590 N   0  0  0  0  0  0  0  0  0  0  0  0
   35.9440   26.3020   43.6550 H   0  0  0  0  0  0  0  0  0  0  0  0
   36.5140   28.4300   44.8090 H   0  0  0  0  0  0  0  0  0  0  0  0
   37.1360   25.3430   41.3840 C   0  0  0  0  0  0  0  0  0  0  0  0
   36.4010   25.5680   40.2600 F   0  0  0  0  0  0  0  0  0  0  0  0
   38.3300   24.6900   41.1130 F   0  0  0  0  0  0  0  0  0  0  0  0
   36.4510   24.4930   42.2890 F   0  0  0  0  0  0  0  0  0  0  0  0
   41.8870   32.3600   39.4620 O   0  0  0  0  0  0  0  0  0  0  0  0
   42.3610   33.2720   37.3830 C   0  0  2  0  0  3  0  0  0  0  0  0
   41.6720   33.5020   38.7250 C   0  0  2  0  0  3  0  0  0  0  0  0
   42.4510   34.6240   39.3960 C   0  0  0  0  0  3  0  0  0  0  0  0
   42.5270   35.5290   38.7630 H   0  0  0  0  0  0  0  0  0  0  0  0
   43.7210   34.1140   39.6690 O   0  0  0  0  0  0  0  0  0  0  0  0
   44.4470   33.8890   38.5010 C   0  0  0  0  0  3  0  0  0  0  0  0
   44.4600   34.7710   37.8570 H   0  0  0  0  0  0  0  0  0  0  0  0
   43.7500   32.7700   37.7350 C   0  0  2  0  0  3  0  0  0  0  0  0
   42.5170   34.5000   36.7100 O   0  0  0  0  0  0  0  0  0  0  0  0
   42.7160   34.3240   35.7760 H   0  0  0  0  0  0  0  0  0  0  0  0
   44.4690   32.3110   36.6620 O   0  0  0  0  0  0  0  0  0  0  0  0
   45.0720   31.5560   36.9220 H   0  0  0  0  0  0  0  0  0  0  0  0
  1  7  1  6  0  0  0
  1  6  1  0  0  0  0
  1  2  1  0  0  0  0
  2  8  1  6  0  0  0
  2 17  1  0  0  0  0
  2  3  1  0  0  0  0
  3  4  1  0  0  0  0
  4 10  1  0  0  0  0
  5 11  1  6  0  0  0
  5 15  1  0  0  0  0
  5  4  1  0  0  0  0
  6 12  1  1  0  0  0
  6  5  1  0  0  0  0
  9  4  1  0  0  0  0
 13 14  1  0  0  0  0
 13  1  1  0  0  0  0
 15 16  1  0  0  0  0
 17 22  1  0  0  0  0
 18 19  1  0  0  0  0
 19 24  1  0  0  0  0
 19 20  2  0  0  0  0
 20 25  1  0  0  0  0
 21 20  1  0  0  0  0
 22 21  2  0  0  0  0
 23 18  2  0  0  0  0
 23 22  1  0  0  0  0
 26 18  1  0  0  0  0
 26 29  1  0  0  0  0
 27 26  1  0  0  0  0
 28 26  1  0  0  0  0
 30  6  1  0  0  0  0
 31 39  1  1  0  0  0
 31 38  1  0  0  0  0
 31 32  1  0  0  0  0
 32 33  1  0  0  0  0
 32 30  1  1  0  0  0
 33 35  1  0  0  0  0
 34 33  1  0  0  0  0
 36 35  1  0  0  0  0
 37 36  1  0  0  0  0
 38 41  1  6  0  0  0
 38 36  1  0  0  0  0
 40 39  1  0  0  0  0
 41 42  1  0  0  0  0
M  END
>  <minimizedAffinity>
-6.74000454

$$$$

 OpenBabel03242510493D

 42 44  0  0  1  0  0  0  0  0999 V2000
   39.4390   31.2880   38.7170 C   0  0  1  0  0  0  0  0  0  0  0  0
   38.0220   30.9460   38.9470 C   0  0  2  0  0  0  0  0  0  0  0  0
   37.1950   32.1140   38.9230 O   0  0  0  0  0  0  0  0  0  0  0  0
   37.5140   32.8090   40.0930 C   0  0  0  0  0  0  0  0  0  0  0  0
   38.8940   33.4200   39.9720 C   0  0  1  0  0  0  0  0  0  0  0  0
   39.7150   32.7760   38.8970 C   0  0  1  0  0  0  0  0  0  0  0  0
   39.7510   31.0430   37.6790 H   0  0  0  0  0  0  0  0  0  0  0  0
   37.5930   30.3580   38.0950 H   0  0  0  0  0  0  0  0  0  0  0  0
   37.5520   32.0590   40.9120 H   0  0  0  0  0  0  0  0  0  0  0  0
   36.7480   33.5890   40.3300 H   0  0  0  0  0  0  0  0  0  0  0  0
   39.4200   33.3840   40.9470 H   0  0  0  0  0  0  0  0  0  0  0  0
   39.5800   33.2920   37.9110 H   0  0  0  0  0  0  0  0  0  0  0  0
   40.2890   30.5370   39.5530 O   0  0  0  0  0  0  0  0  0  0  0  0
   40.0780   30.6840   40.5060 H   0  0  0  0  0  0  0  0  0  0  0  0
   38.6810   34.7660   39.6200 O   0  0  0  0  0  0  0  0  0  0  0  0
   37.9410   34.7570   38.9430 H   0  0  0  0  0  0  0  0  0  0  0  0
   37.7320   30.2850   40.1730 O   0  0  0  0  0  0  0  0  0  0  0  0
   37.0480   26.9410   41.2590 C   0  0  0  0  0  0  0  0  0  0  0  0
   36.6830   26.2760   40.0780 C   0  0  0  0  0  0  0  0  0  0  0  0
   36.6800   27.0110   38.8940 C   0  0  0  0  0  0  0  0  0  0  0  0
   37.0270   28.3220   38.9430 N   0  0  0  0  0  0  0  0  0  0  0  0
   37.3710   28.9400   40.0700 C   0  0  0  0  0  0  0  0  0  0  0  0
   37.3800   28.2410   41.2290 N   0  0  0  0  0  0  0  0  0  0  0  0
   36.4060   25.2340   40.0260 H   0  0  0  0  0  0  0  0  0  0  0  0
   36.4150   26.5880   37.9400 H   0  0  0  0  0  0  0  0  0  0  0  0
   37.0450   26.1440   42.5290 C   0  0  0  0  0  0  0  0  0  0  0  0
   36.6000   24.8740   42.3190 F   0  0  0  0  0  0  0  0  0  0  0  0
   38.3280   26.1740   43.0560 F   0  0  0  0  0  0  0  0  0  0  0  0
   36.2420   26.8240   43.4810 F   0  0  0  0  0  0  0  0  0  0  0  0
   41.0650   32.9140   39.2540 O   0  0  0  0  0  0  0  0  0  0  0  0
   42.1580   33.5990   37.3270 C   0  0  2  0  0  3  0  0  0  0  0  0
   41.6640   34.0250   38.7070 C   0  0  2  0  0  3  0  0  0  0  0  0
   42.9200   34.3050   39.5200 C   0  0  0  0  0  3  0  0  0  0  0  0
   43.5900   35.0380   39.0300 H   0  0  0  0  0  0  0  0  0  0  0  0
   43.5700   33.0810   39.6770 O   0  0  0  0  0  0  0  0  0  0  0  0
   44.0830   32.6120   38.4690 C   0  0  0  0  0  3  0  0  0  0  0  0
   44.6920   33.3680   37.9680 H   0  0  0  0  0  0  0  0  0  0  0  0
   42.9010   32.2950   37.5600 C   0  0  2  0  0  3  0  0  0  0  0  0
   43.0960   34.5340   36.8450 O   0  0  0  0  0  0  0  0  0  0  0  0
   43.2120   34.4020   35.8900 H   0  0  0  0  0  0  0  0  0  0  0  0
   43.2560   31.6380   36.4110 O   0  0  0  0  0  0  0  0  0  0  0  0
   43.2350   30.6450   36.5360 H   0  0  0  0  0  0  0  0  0  0  0  0
  1  7  1  6  0  0  0
  1  6  1  0  0  0  0
  1  2  1  0  0  0  0
  1 13  1  0  0  0  0
  2  8  1  6  0  0  0
  2 17  1  0  0  0  0
  3  2  1  0  0  0  0
  3  4  1  0  0  0  0
  4 10  1  0  0  0  0
  4  9  1  0  0  0  0
  5  4  1  0  0  0  0
  5 11  1  1  0  0  0
  6 12  1  6  0  0  0
  6 30  1  0  0  0  0
  6  5  1  0  0  0  0
 13 14  1  0  0  0  0
 15  5  1  0  0  0  0
 16 15  1  0  0  0  0
 18 26  1  0  0  0  0
 19 18  2  0  0  0  0
 20 21  2  0  0  0  0
 20 19  1  0  0  0  0
 21 22  1  0  0  0  0
 22 17  1  0  0  0  0
 22 23  2  0  0  0  0
 23 18  1  0  0  0  0
 24 19  1  0  0  0  0
 25 20  1  0  0  0  0
 26 28  1  0  0  0  0
 26 29  1  0  0  0  0
 27 26  1  0  0  0  0
 31 39  1  1  0  0  0
 31 38  1  0  0  0  0
 31 32  1  0  0  0  0
 32 30  1  1  0  0  0
 32 33  1  0  0  0  0
 33 35  1  0  0  0  0
 34 33  1  0  0  0  0
 36 35  1  0  0  0  0
 37 36  1  0  0  0  0
 38 41  1  6  0  0  0
 38 36  1  0  0  0  0
 40 39  1  0  0  0  0
 41 42  1  0  0  0  0
M  END
>  <minimizedAffinity>
-6.72556639

$$$$

 OpenBabel03242510493D

 42 44  0  0  1  0  0  0  0  0999 V2000
   39.2920   30.9100   40.8970 C   0  0  1  0  0  0  0  0  0  0  0  0
   39.1690   32.1570   40.1170 C   0  0  2  0  0  0  0  0  0  0  0  0
   37.9430   32.8350   40.4110 O   0  0  0  0  0  0  0  0  0  0  0  0
   36.9440   32.0430   39.8390 C   0  0  0  0  0  0  0  0  0  0  0  0
   36.7750   30.7670   40.6370 C   0  0  1  0  0  0  0  0  0  0  0  0
   37.9630   30.4680   41.5000 C   0  0  1  0  0  0  0  0  0  0  0  0
   39.9880   31.0350   41.7530 H   0  0  0  0  0  0  0  0  0  0  0  0
   39.9230   32.9230   40.4360 H   0  0  0  0  0  0  0  0  0  0  0  0
   37.3000   31.7580   38.8260 H   0  0  0  0  0  0  0  0  0  0  0  0
   35.9750   32.5970   39.7570 H   0  0  0  0  0  0  0  0  0  0  0  0
   36.5520   29.9160   39.9630 H   0  0  0  0  0  0  0  0  0  0  0  0
   37.8570   30.9250   42.5190 H   0  0  0  0  0  0  0  0  0  0  0  0
   39.8340   29.8700   40.1180 O   0  0  0  0  0  0  0  0  0  0  0  0
   39.2820   29.6920   39.3180 H   0  0  0  0  0  0  0  0  0  0  0  0
   35.6660   30.9890   41.4740 O   0  0  0  0  0  0  0  0  0  0  0  0
   35.7620   31.9290   41.8110 H   0  0  0  0  0  0  0  0  0  0  0  0
   39.2090   32.0140   38.7020 O   0  0  0  0  0  0  0  0  0  0  0  0
   42.1550   31.0180   36.9250 C   0  0  0  0  0  0  0  0  0  0  0  0
   42.9330   32.1870   36.8880 C   0  0  0  0  0  0  0  0  0  0  0  0
   42.4140   33.3300   37.4950 C   0  0  0  0  0  0  0  0  0  0  0  0
   41.1940   33.2550   38.0850 N   0  0  0  0  0  0  0  0  0  0  0  0
   40.4690   32.1410   38.1120 C   0  0  0  0  0  0  0  0  0  0  0  0
   40.9570   31.0210   37.5280 N   0  0  0  0  0  0  0  0  0  0  0  0
   43.9040   32.2590   36.4230 H   0  0  0  0  0  0  0  0  0  0  0  0
   42.9360   34.2710   37.5180 H   0  0  0  0  0  0  0  0  0  0  0  0
   42.7180   29.7950   36.2670 C   0  0  0  0  0  0  0  0  0  0  0  0
   41.7800   28.8150   36.1520 F   0  0  0  0  0  0  0  0  0  0  0  0
   43.2420   30.1730   35.0380 F   0  0  0  0  0  0  0  0  0  0  0  0
   43.8370   29.3560   37.0210 F   0  0  0  0  0  0  0  0  0  0  0  0
   38.0220   29.0770   41.6740 O   0  0  0  0  0  0  0  0  0  0  0  0
   39.2830   27.4760   42.7820 C   0  0  2  0  0  3  0  0  0  0  0  0
   38.3870   28.7010   42.9470 C   0  0  2  0  0  3  0  0  0  0  0  0
   37.1310   28.1970   43.6440 C   0  0  0  0  0  3  0  0  0  0  0  0
   37.3540   27.6660   44.5900 H   0  0  0  0  0  0  0  0  0  0  0  0
   36.4960   27.3430   42.7440 O   0  0  0  0  0  0  0  0  0  0  0  0
   37.2280   26.1740   42.5400 C   0  0  0  0  0  3  0  0  0  0  0  0
   37.4930   25.6930   43.4850 H   0  0  0  0  0  0  0  0  0  0  0  0
   38.5250   26.5580   41.8390 C   0  0  2  0  0  3  0  0  0  0  0  0
   39.4030   26.8040   44.0150 O   0  0  0  0  0  0  0  0  0  0  0  0
   40.1560   26.1920   43.9680 H   0  0  0  0  0  0  0  0  0  0  0  0
   39.2510   25.4820   41.4010 O   0  0  0  0  0  0  0  0  0  0  0  0
   38.9970   25.2250   40.4680 H   0  0  0  0  0  0  0  0  0  0  0  0
  1  6  1  0  0  0  0
  1  7  1  1  0  0  0
  2  3  1  0  0  0  0
  2  8  1  1  0  0  0
  2  1  1  0  0  0  0
  4  3  1  0  0  0  0
  4  5  1  0  0  0  0
  5 11  1  6  0  0  0
  5 15  1  0  0  0  0
  5  6  1  0  0  0  0
  6 30  1  0  0  0  0
  6 12  1  1  0  0  0
  9  4  1  0  0  0  0
 10  4  1  0  0  0  0
 13  1  1  0  0  0  0
 14 13  1  0  0  0  0
 15 16  1  0  0  0  0
 17  2  1  0  0  0  0
 18 23  1  0  0  0  0
 19 18  2  0  0  0  0
 19 20  1  0  0  0  0
 20 25  1  0  0  0  0
 20 21  2  0  0  0  0
 21 22  1  0  0  0  0
 22 17  1  0  0  0  0
 23 22  2  0  0  0  0
 24 19  1  0  0  0  0
 26 18  1  0  0  0  0
 26 29  1  0  0  0  0
 27 26  1  0  0  0  0
 28 26  1  0  0  0  0
 31 32  1  0  0  0  0
 31 39  1  1  0  0  0
 32 30  1  6  0  0  0
 32 33  1  0  0  0  0
 33 34  1  0  0  0  0
 35 33  1  0  0  0  0
 36 35  1  0  0  0  0
 36 37  1  0  0  0  0
 38 41  1  1  0  0  0
 38 36  1  0  0  0  0
 38 31  1  0  0  0  0
 40 39  1  0  0  0  0
 42 41  1  0  0  0  0
M  END
>  <minimizedAffinity>
-6.45048714

$$$$

 OpenBabel03242510493D

 42 44  0  0  1  0  0  0  0  0999 V2000
   39.7330   30.5720   39.7650 C   0  0  1  0  0  0  0  0  0  0  0  0
   38.4920   29.9250   40.2340 C   0  0  2  0  0  0  0  0  0  0  0  0
   37.3340   30.6400   39.7910 O   0  0  0  0  0  0  0  0  0  0  0  0
   37.3330   31.8250   40.5320 C   0  0  0  0  0  0  0  0  0  0  0  0
   38.4450   32.7350   40.0520 C   0  0  1  0  0  0  0  0  0  0  0  0
   39.4980   31.9980   39.2820 C   0  0  1  0  0  0  0  0  0  0  0  0
   40.1730   30.0270   38.9030 H   0  0  0  0  0  0  0  0  0  0  0  0
   38.3330   28.9290   39.7450 H   0  0  0  0  0  0  0  0  0  0  0  0
   37.5600   31.5470   41.5830 H   0  0  0  0  0  0  0  0  0  0  0  0
   36.3420   32.3410   40.4830 H   0  0  0  0  0  0  0  0  0  0  0  0
   38.8910   33.2850   40.9060 H   0  0  0  0  0  0  0  0  0  0  0  0
   39.2660   31.9760   38.1850 H   0  0  0  0  0  0  0  0  0  0  0  0
   40.7250   30.5610   40.7650 O   0  0  0  0  0  0  0  0  0  0  0  0
   40.4170   31.0200   41.5840 H   0  0  0  0  0  0  0  0  0  0  0  0
   37.8300   33.6590   39.1870 O   0  0  0  0  0  0  0  0  0  0  0  0
   37.1770   33.1290   38.6400 H   0  0  0  0  0  0  0  0  0  0  0  0
   38.3540   29.7890   41.6430 O   0  0  0  0  0  0  0  0  0  0  0  0
   38.2010   26.2590   42.2340 C   0  0  0  0  0  0  0  0  0  0  0  0
   39.2750   26.0210   43.1060 C   0  0  0  0  0  0  0  0  0  0  0  0
   40.0550   27.1110   43.4880 C   0  0  0  0  0  0  0  0  0  0  0  0
   39.7380   28.3380   43.0000 N   0  0  0  0  0  0  0  0  0  0  0  0
   38.7180   28.5490   42.1740 C   0  0  0  0  0  0  0  0  0  0  0  0
   37.9500   27.5020   41.7940 N   0  0  0  0  0  0  0  0  0  0  0  0
   39.5370   25.0510   43.5010 H   0  0  0  0  0  0  0  0  0  0  0  0
   40.8980   27.0280   44.1520 H   0  0  0  0  0  0  0  0  0  0  0  0
   37.3710   25.0800   41.8250 C   0  0  0  0  0  0  0  0  0  0  0  0
   36.8590   25.2410   40.5730 F   0  0  0  0  0  0  0  0  0  0  0  0
   38.1590   23.9440   41.9320 F   0  0  0  0  0  0  0  0  0  0  0  0
   36.3420   24.9040   42.7860 F   0  0  0  0  0  0  0  0  0  0  0  0
   40.7040   32.6990   39.4360 O   0  0  0  0  0  0  0  0  0  0  0  0
   41.9540   33.0770   37.5180 C   0  0  2  0  0  3  0  0  0  0  0  0
   40.9070   33.6560   38.4670 C   0  0  2  0  0  3  0  0  0  0  0  0
   41.5810   34.8420   39.1420 C   0  0  0  0  0  3  0  0  0  0  0  0
   41.9880   35.5710   38.4150 H   0  0  0  0  0  0  0  0  0  0  0  0
   42.6050   34.3180   39.9310 O   0  0  0  0  0  0  0  0  0  0  0  0
   43.6300   33.7810   39.1540 C   0  0  0  0  0  3  0  0  0  0  0  0
   43.9800   34.4910   38.4000 H   0  0  0  0  0  0  0  0  0  0  0  0
   43.0660   32.5700   38.4200 C   0  0  2  0  0  3  0  0  0  0  0  0
   42.4960   34.1050   36.7220 O   0  0  0  0  0  0  0  0  0  0  0  0
   42.9600   33.7070   35.9670 H   0  0  0  0  0  0  0  0  0  0  0  0
   44.0190   31.8290   37.7720 O   0  0  0  0  0  0  0  0  0  0  0  0
   44.3890   31.1120   38.3640 H   0  0  0  0  0  0  0  0  0  0  0  0
  1  7  1  6  0  0  0
  1  2  1  0  0  0  0
  1 13  1  0  0  0  0
  2  8  1  6  0  0  0
  2 17  1  0  0  0  0
  3  2  1  0  0  0  0
  3  4  1  0  0  0  0
  4  9  1  0  0  0  0
  5  4  1  0  0  0  0
  5 11  1  1  0  0  0
  6 12  1  6  0  0  0
  6 30  1  0  0  0  0
  6  1  1  0  0  0  0
  6  5  1  0  0  0  0
 10  4  1  0  0  0  0
 13 14  1  0  0  0  0
 15  5  1  0  0  0  0
 16 15  1  0  0  0  0
 17 22  1  0  0  0  0
 18 19  1  0  0  0  0
 19 20  2  0  0  0  0
 19 24  1  0  0  0  0
 20 25  1  0  0  0  0
 21 20  1  0  0  0  0
 22 21  2  0  0  0  0
 23 22  1  0  0  0  0
 23 18  2  0  0  0  0
 26 28  1  0  0  0  0
 26 18  1  0  0  0  0
 26 29  1  0  0  0  0
 27 26  1  0  0  0  0
 31 39  1  6  0  0  0
 31 38  1  0  0  0  0
 31 32  1  0  0  0  0
 32 33  1  0  0  0  0
 32 30  1  1  0  0  0
 33 35  1  0  0  0  0
 34 33  1  0  0  0  0
 36 35  1  0  0  0  0
 37 36  1  0  0  0  0
 38 41  1  6  0  0  0
 38 36  1  0  0  0  0
 40 39  1  0  0  0  0
 41 42  1  0  0  0  0
M  END
>  <minimizedAffinity>
-6.35910606

$$$$

 OpenBabel03242510493D

 42 44  0  0  1  0  0  0  0  0999 V2000
   39.5730   30.8080   38.7450 C   0  0  1  0  0  0  0  0  0  0  0  0
   38.4650   30.1010   39.4170 C   0  0  2  0  0  0  0  0  0  0  0  0
   37.7400   30.9780   40.2850 O   0  0  0  0  0  0  0  0  0  0  0  0
   38.6050   31.2290   41.3530 C   0  0  0  0  0  0  0  0  0  0  0  0
   39.7360   32.1280   40.9020 C   0  0  1  0  0  0  0  0  0  0  0  0
   39.9030   32.1380   39.4120 C   0  0  1  0  0  0  0  0  0  0  0  0
   39.3190   31.0510   37.6910 H   0  0  0  0  0  0  0  0  0  0  0  0
   37.6640   29.8000   38.6920 H   0  0  0  0  0  0  0  0  0  0  0  0
   39.0510   30.2530   41.6420 H   0  0  0  0  0  0  0  0  0  0  0  0
   38.0640   31.6710   42.2270 H   0  0  0  0  0  0  0  0  0  0  0  0
   40.6830   31.8420   41.4040 H   0  0  0  0  0  0  0  0  0  0  0  0
   39.2890   32.9460   38.9350 H   0  0  0  0  0  0  0  0  0  0  0  0
   40.7280   30.0050   38.6790 O   0  0  0  0  0  0  0  0  0  0  0  0
   41.0270   29.7280   39.5790 H   0  0  0  0  0  0  0  0  0  0  0  0
   39.3760   33.4240   41.3150 O   0  0  0  0  0  0  0  0  0  0  0  0
   38.3950   33.5100   41.1220 H   0  0  0  0  0  0  0  0  0  0  0  0
   38.8320   28.9790   40.2100 O   0  0  0  0  0  0  0  0  0  0  0  0
   37.4970   25.7330   40.9270 C   0  0  0  0  0  0  0  0  0  0  0  0
   36.6330   25.4830   39.8490 C   0  0  0  0  0  0  0  0  0  0  0  0
   36.5240   26.4630   38.8650 C   0  0  0  0  0  0  0  0  0  0  0  0
   37.2510   27.6020   38.9980 N   0  0  0  0  0  0  0  0  0  0  0  0
   38.0660   27.8250   40.0250 C   0  0  0  0  0  0  0  0  0  0  0  0
   38.1850   26.8830   40.9900 N   0  0  0  0  0  0  0  0  0  0  0  0
   36.0500   24.5820   39.7310 H   0  0  0  0  0  0  0  0  0  0  0  0
   35.8870   26.3620   38.0020 H   0  0  0  0  0  0  0  0  0  0  0  0
   37.6060   24.6750   41.9830 C   0  0  0  0  0  0  0  0  0  0  0  0
   38.6510   24.9150   42.8230 F   0  0  0  0  0  0  0  0  0  0  0  0
   36.3930   24.6120   42.6520 F   0  0  0  0  0  0  0  0  0  0  0  0
   37.7360   23.4150   41.3420 F   0  0  0  0  0  0  0  0  0  0  0  0
   41.2490   32.4250   39.1380 O   0  0  0  0  0  0  0  0  0  0  0  0
   42.1300   33.3480   37.2010 C   0  0  2  0  0  3  0  0  0  0  0  0
   41.4340   33.6440   38.5270 C   0  0  2  0  0  3  0  0  0  0  0  0
   42.4510   34.4130   39.3580 C   0  0  0  0  0  3  0  0  0  0  0  0
   42.8360   35.3100   38.8360 H   0  0  0  0  0  0  0  0  0  0  0  0
   43.4910   33.5240   39.6300 O   0  0  0  0  0  0  0  0  0  0  0  0
   44.2100   33.2060   38.4800 C   0  0  0  0  0  3  0  0  0  0  0  0
   44.5310   34.1010   37.9420 H   0  0  0  0  0  0  0  0  0  0  0  0
   43.2810   32.4240   37.5590 C   0  0  2  0  0  3  0  0  0  0  0  0
   42.6900   34.5320   36.6810 O   0  0  0  0  0  0  0  0  0  0  0  0
   42.9020   34.3950   35.7430 H   0  0  0  0  0  0  0  0  0  0  0  0
   43.9180   31.8760   36.4750 O   0  0  0  0  0  0  0  0  0  0  0  0
   44.2520   30.9540   36.6760 H   0  0  0  0  0  0  0  0  0  0  0  0
  1  7  1  6  0  0  0
  1  6  1  0  0  0  0
  1  2  1  0  0  0  0
  2  8  1  6  0  0  0
  2 17  1  0  0  0  0
  2  3  1  0  0  0  0
  3  4  1  0  0  0  0
  4  9  1  0  0  0  0
  4 10  1  0  0  0  0
  5 15  1  0  0  0  0
  5  4  1  0  0  0  0
  5 11  1  1  0  0  0
  6 12  1  6  0  0  0
  6  5  1  0  0  0  0
 13  1  1  0  0  0  0
 13 14  1  0  0  0  0
 16 15  1  0  0  0  0
 18 23  1  0  0  0  0
 18 26  1  0  0  0  0
 19 18  2  0  0  0  0
 20 21  2  0  0  0  0
 20 19  1  0  0  0  0
 21 22  1  0  0  0  0
 22 17  1  0  0  0  0
 22 23  2  0  0  0  0
 24 19  1  0  0  0  0
 25 20  1  0  0  0  0
 26 28  1  0  0  0  0
 26 27  1  0  0  0  0
 29 26  1  0  0  0  0
 30  6  1  0  0  0  0
 31 39  1  1  0  0  0
 31 38  1  0  0  0  0
 31 32  1  0  0  0  0
 32 30  1  1  0  0  0
 32 33  1  0  0  0  0
 33 35  1  0  0  0  0
 34 33  1  0  0  0  0
 36 35  1  0  0  0  0
 37 36  1  0  0  0  0
 38 41  1  6  0  0  0
 38 36  1  0  0  0  0
 40 39  1  0  0  0  0
 41 42  1  0  0  0  0
M  END
>  <minimizedAffinity>
-6.34754229

$$$$

 OpenBabel03242510493D

 42 44  0  0  1  0  0  0  0  0999 V2000
   40.1510   30.3100   39.7850 C   0  0  1  0  0  0  0  0  0  0  0  0
   39.0360   29.4290   39.3870 C   0  0  2  0  0  0  0  0  0  0  0  0
   38.7440   29.5600   37.9920 O   0  0  0  0  0  0  0  0  0  0  0  0
   38.1670   30.8260   37.8580 C   0  0  0  0  0  0  0  0  0  0  0  0
   39.2220   31.8960   38.0410 C   0  0  1  0  0  0  0  0  0  0  0  0
   40.4430   31.3850   38.7450 C   0  0  1  0  0  0  0  0  0  0  0  0
   41.0960   29.7380   39.9050 H   0  0  0  0  0  0  0  0  0  0  0  0
   39.3190   28.3460   39.4500 H   0  0  0  0  0  0  0  0  0  0  0  0
   37.4350   30.9340   38.6860 H   0  0  0  0  0  0  0  0  0  0  0  0
   37.6460   30.9390   36.8750 H   0  0  0  0  0  0  0  0  0  0  0  0
   38.7970   32.7720   38.5710 H   0  0  0  0  0  0  0  0  0  0  0  0
   41.2020   30.9920   38.0200 H   0  0  0  0  0  0  0  0  0  0  0  0
   39.9100   30.9070   41.0380 O   0  0  0  0  0  0  0  0  0  0  0  0
   39.0750   31.4350   41.0310 H   0  0  0  0  0  0  0  0  0  0  0  0
   39.5930   32.2870   36.7410 O   0  0  0  0  0  0  0  0  0  0  0  0
   39.6490   31.4400   36.2070 H   0  0  0  0  0  0  0  0  0  0  0  0
   37.8040   29.6380   40.0670 O   0  0  0  0  0  0  0  0  0  0  0  0
   37.2540   26.6650   41.9890 C   0  0  0  0  0  0  0  0  0  0  0  0
   37.1810   27.1320   43.3110 C   0  0  0  0  0  0  0  0  0  0  0  0
   37.3250   28.5020   43.5230 C   0  0  0  0  0  0  0  0  0  0  0  0
   37.5270   29.3080   42.4500 N   0  0  0  0  0  0  0  0  0  0  0  0
   37.5940   28.8520   41.2030 C   0  0  0  0  0  0  0  0  0  0  0  0
   37.4560   27.5240   40.9780 N   0  0  0  0  0  0  0  0  0  0  0  0
   37.0200   26.5020   44.1720 H   0  0  0  0  0  0  0  0  0  0  0  0
   37.2840   28.9540   44.5000 H   0  0  0  0  0  0  0  0  0  0  0  0
   37.1020   25.1900   41.7700 C   0  0  0  0  0  0  0  0  0  0  0  0
   36.6750   24.9160   40.5060 F   0  0  0  0  0  0  0  0  0  0  0  0
   38.3170   24.5870   42.0610 F   0  0  0  0  0  0  0  0  0  0  0  0
   36.2010   24.6840   42.7420 F   0  0  0  0  0  0  0  0  0  0  0  0
   41.0320   32.4700   39.4140 O   0  0  0  0  0  0  0  0  0  0  0  0
   43.1780   32.6270   40.2800 C   0  0  2  0  0  3  0  0  0  0  0  0
   42.3260   32.7180   39.0170 C   0  0  2  0  0  3  0  0  0  0  0  0
   42.3910   34.1770   38.5860 C   0  0  0  0  0  3  0  0  0  0  0  0
   43.4300   34.5380   38.4610 H   0  0  0  0  0  0  0  0  0  0  0  0
   41.7370   34.9100   39.5760 O   0  0  0  0  0  0  0  0  0  0  0  0
   42.4500   34.9090   40.7730 C   0  0  0  0  0  3  0  0  0  0  0  0
   43.4900   35.2090   40.6240 H   0  0  0  0  0  0  0  0  0  0  0  0
   42.4530   33.4820   41.3060 C   0  0  2  0  0  3  0  0  0  0  0  0
   44.4350   33.2220   40.0520 O   0  0  0  0  0  0  0  0  0  0  0  0
   45.0470   32.9430   40.7520 H   0  0  0  0  0  0  0  0  0  0  0  0
   42.9510   33.3730   42.5780 O   0  0  0  0  0  0  0  0  0  0  0  0
   42.2270   33.4690   43.2630 H   0  0  0  0  0  0  0  0  0  0  0  0
  1  7  1  1  0  0  0
  1 13  1  0  0  0  0
  2  8  1  1  0  0  0
  2  1  1  0  0  0  0
  2 17  1  0  0  0  0
  3  2  1  0  0  0  0
  4  3  1  0  0  0  0
  4  5  1  0  0  0  0
  4  9  1  0  0  0  0
  5 11  1  1  0  0  0
  5  6  1  0  0  0  0
  6 12  1  6  0  0  0
  6 30  1  0  0  0  0
  6  1  1  0  0  0  0
 10  4  1  0  0  0  0
 14 13  1  0  0  0  0
 15  5  1  0  0  0  0
 16 15  1  0  0  0  0
 17 22  1  0  0  0  0
 18 19  1  0  0  0  0
 19 20  2  0  0  0  0
 19 24  1  0  0  0  0
 20 25  1  0  0  0  0
 21 20  1  0  0  0  0
 22 21  2  0  0  0  0
 23 22  1  0  0  0  0
 23 18  2  0  0  0  0
 26 18  1  0  0  0  0
 26 28  1  0  0  0  0
 26 29  1  0  0  0  0
 27 26  1  0  0  0  0
 31 39  1  6  0  0  0
 31 38  1  0  0  0  0
 32 30  1  1  0  0  0
 32 31  1  0  0  0  0
 33 32  1  0  0  0  0
 33 35  1  0  0  0  0
 34 33  1  0  0  0  0
 35 36  1  0  0  0  0
 36 38  1  0  0  0  0
 37 36  1  0  0  0  0
 38 41  1  1  0  0  0
 39 40  1  0  0  0  0
 41 42  1  0  0  0  0
M  END
>  <minimizedAffinity>
-6.32849741

$$$$

 OpenBabel03242510493D

 42 44  0  0  1  0  0  0  0  0999 V2000
   40.6450   31.2130   39.6970 C   0  0  1  0  0  0  0  0  0  0  0  0
   39.3900   31.0750   40.4610 C   0  0  2  0  0  0  0  0  0  0  0  0
   38.5160   32.1850   40.2300 O   0  0  0  0  0  0  0  0  0  0  0  0
   39.1240   33.2650   40.8760 C   0  0  0  0  0  0  0  0  0  0  0  0
   40.3580   33.6960   40.1130 C   0  0  1  0  0  0  0  0  0  0  0  0
   40.8600   32.6330   39.1840 C   0  0  1  0  0  0  0  0  0  0  0  0
   40.6460   30.5610   38.7980 H   0  0  0  0  0  0  0  0  0  0  0  0
   38.7650   30.2240   40.0830 H   0  0  0  0  0  0  0  0  0  0  0  0
   39.4580   32.8990   41.8700 H   0  0  0  0  0  0  0  0  0  0  0  0
   38.4140   34.1190   41.0070 H   0  0  0  0  0  0  0  0  0  0  0  0
   41.1550   34.0170   40.8140 H   0  0  0  0  0  0  0  0  0  0  0  0
   40.3990   32.7240   38.1660 H   0  0  0  0  0  0  0  0  0  0  0  0
   41.7560   30.8050   40.4600 O   0  0  0  0  0  0  0  0  0  0  0  0
   41.8330   31.3280   41.2940 H   0  0  0  0  0  0  0  0  0  0  0  0
   39.9580   34.8030   39.3420 O   0  0  0  0  0  0  0  0  0  0  0  0
   39.0510   34.5720   38.9820 H   0  0  0  0  0  0  0  0  0  0  0  0
   39.5280   30.9700   41.8730 O   0  0  0  0  0  0  0  0  0  0  0  0
   37.9510   27.9350   42.9380 C   0  0  0  0  0  0  0  0  0  0  0  0
   39.0190   27.1510   43.4030 C   0  0  0  0  0  0  0  0  0  0  0  0
   40.3000   27.6970   43.3410 C   0  0  0  0  0  0  0  0  0  0  0  0
   40.4480   28.9490   42.8380 N   0  0  0  0  0  0  0  0  0  0  0  0
   39.4270   29.6810   42.4010 C   0  0  0  0  0  0  0  0  0  0  0  0
   38.1770   29.1660   42.4540 N   0  0  0  0  0  0  0  0  0  0  0  0
   38.9140   26.1550   43.8050 H   0  0  0  0  0  0  0  0  0  0  0  0
   41.1800   27.1730   43.6730 H   0  0  0  0  0  0  0  0  0  0  0  0
   36.5780   27.3390   43.0040 C   0  0  0  0  0  0  0  0  0  0  0  0
   36.0270   27.4920   44.2400 F   0  0  0  0  0  0  0  0  0  0  0  0
   35.8100   27.9220   42.0060 F   0  0  0  0  0  0  0  0  0  0  0  0
   36.6680   25.9690   42.6430 F   0  0  0  0  0  0  0  0  0  0  0  0
   42.2420   32.8200   39.0310 O   0  0  0  0  0  0  0  0  0  0  0  0
   43.6390   31.7920   37.4900 C   0  0  2  0  0  3  0  0  0  0  0  0
   42.6370   32.9220   37.7170 C   0  0  2  0  0  3  0  0  0  0  0  0
   43.4390   34.2100   37.5870 C   0  0  0  0  0  3  0  0  0  0  0  0
   43.9890   34.2740   36.6280 H   0  0  0  0  0  0  0  0  0  0  0  0
   44.3300   34.2290   38.6610 O   0  0  0  0  0  0  0  0  0  0  0  0
   45.3060   33.2430   38.5370 C   0  0  0  0  0  3  0  0  0  0  0  0
   45.7980   33.2800   37.5620 H   0  0  0  0  0  0  0  0  0  0  0  0
   44.6120   31.8910   38.6520 C   0  0  2  0  0  3  0  0  0  0  0  0
   44.3690   32.0320   36.3100 O   0  0  0  0  0  0  0  0  0  0  0  0
   44.8110   31.2100   36.0400 H   0  0  0  0  0  0  0  0  0  0  0  0
   45.4810   30.8350   38.7460 O   0  0  0  0  0  0  0  0  0  0  0  0
   45.7080   30.6330   39.6990 H   0  0  0  0  0  0  0  0  0  0  0  0
  1  7  1  6  0  0  0
  1 13  1  0  0  0  0
  1  2  1  0  0  0  0
  2  8  1  6  0  0  0
  2 17  1  0  0  0  0
  3  2  1  0  0  0  0
  3  4  1  0  0  0  0
  4 10  1  0  0  0  0
  4  9  1  0  0  0  0
  5 11  1  1  0  0  0
  5  4  1  0  0  0  0
  6 12  1  6  0  0  0
  6  1  1  0  0  0  0
  6  5  1  0  0  0  0
 13 14  1  0  0  0  0
 15  5  1  0  0  0  0
 16 15  1  0  0  0  0
 17 22  1  0  0  0  0
 18 26  1  0  0  0  0
 18 19  1  0  0  0  0
 19 24  1  0  0  0  0
 20 19  2  0  0  0  0
 20 25  1  0  0  0  0
 21 20  1  0  0  0  0
 22 23  1  0  0  0  0
 22 21  2  0  0  0  0
 23 18  2  0  0  0  0
 26 27  1  0  0  0  0
 28 26  1  0  0  0  0
 29 26  1  0  0  0  0
 30  6  1  0  0  0  0
 31 39  1  6  0  0  0
 31 32  1  0  0  0  0
 31 38  1  0  0  0  0
 32 30  1  1  0  0  0
 33 32  1  0  0  0  0
 33 35  1  0  0  0  0
 34 33  1  0  0  0  0
 36 38  1  0  0  0  0
 36 35  1  0  0  0  0
 37 36  1  0  0  0  0
 38 41  1  6  0  0  0
 40 39  1  0  0  0  0
 41 42  1  0  0  0  0
M  END
>  <minimizedAffinity>
-6.2414422

$$$$

 OpenBabel03242510493D

 42 44  0  0  1  0  0  0  0  0999 V2000
   40.0810   30.2290   39.1220 C   0  0  1  0  0  0  0  0  0  0  0  0
   38.7570   29.5880   39.2360 C   0  0  2  0  0  0  0  0  0  0  0  0
   37.9920   29.7590   38.0380 O   0  0  0  0  0  0  0  0  0  0  0  0
   37.6510   31.1140   38.0150 C   0  0  0  0  0  0  0  0  0  0  0  0
   38.8740   31.9500   37.7070 C   0  0  1  0  0  0  0  0  0  0  0  0
   40.1540   31.2110   37.9580 C   0  0  1  0  0  0  0  0  0  0  0  0
   40.8800   29.4790   38.9380 H   0  0  0  0  0  0  0  0  0  0  0  0
   38.8380   28.4710   39.2850 H   0  0  0  0  0  0  0  0  0  0  0  0
   37.3160   31.3780   39.0400 H   0  0  0  0  0  0  0  0  0  0  0  0
   36.8290   31.3190   37.2840 H   0  0  0  0  0  0  0  0  0  0  0  0
   38.8480   32.9000   38.2770 H   0  0  0  0  0  0  0  0  0  0  0  0
   40.5000   30.6640   37.0430 H   0  0  0  0  0  0  0  0  0  0  0  0
   40.4410   30.8770   40.3200 O   0  0  0  0  0  0  0  0  0  0  0  0
   39.7770   31.5630   40.5730 H   0  0  0  0  0  0  0  0  0  0  0  0
   38.7960   32.2420   36.3320 O   0  0  0  0  0  0  0  0  0  0  0  0
   38.4910   31.3950   35.8900 H   0  0  0  0  0  0  0  0  0  0  0  0
   37.9300   30.0500   40.2980 O   0  0  0  0  0  0  0  0  0  0  0  0
   37.3550   26.9040   41.9130 C   0  0  0  0  0  0  0  0  0  0  0  0
   37.3360   27.2300   43.2780 C   0  0  0  0  0  0  0  0  0  0  0  0
   37.5260   28.5650   43.6290 C   0  0  0  0  0  0  0  0  0  0  0  0
   37.7180   29.4760   42.6410 N   0  0  0  0  0  0  0  0  0  0  0  0
   37.7340   29.1530   41.3510 C   0  0  0  0  0  0  0  0  0  0  0  0
   37.5500   27.8600   40.9920 N   0  0  0  0  0  0  0  0  0  0  0  0
   37.1840   26.5160   44.0740 H   0  0  0  0  0  0  0  0  0  0  0  0
   37.5280   28.9110   44.6490 H   0  0  0  0  0  0  0  0  0  0  0  0
   37.1540   25.4660   41.5450 C   0  0  0  0  0  0  0  0  0  0  0  0
   36.4870   24.7900   42.5210 F   0  0  0  0  0  0  0  0  0  0  0  0
   36.4920   25.4240   40.3260 F   0  0  0  0  0  0  0  0  0  0  0  0
   38.4250   24.8880   41.2900 F   0  0  0  0  0  0  0  0  0  0  0  0
   41.1390   32.1610   38.2700 O   0  0  0  0  0  0  0  0  0  0  0  0
   43.2280   31.6730   37.3880 C   0  0  2  0  0  3  0  0  0  0  0  0
   41.9460   32.4800   37.2020 C   0  0  2  0  0  3  0  0  0  0  0  0
   42.3540   33.9380   37.3680 C   0  0  0  0  0  3  0  0  0  0  0  0
   43.1780   34.2290   36.6880 H   0  0  0  0  0  0  0  0  0  0  0  0
   42.7450   34.0890   38.6980 O   0  0  0  0  0  0  0  0  0  0  0  0
   43.9280   33.4030   38.9690 C   0  0  0  0  0  3  0  0  0  0  0  0
   44.7140   33.6550   38.2520 H   0  0  0  0  0  0  0  0  0  0  0  0
   43.6380   31.9130   38.8310 C   0  0  2  0  0  3  0  0  0  0  0  0
   44.2470   32.2000   36.5700 O   0  0  0  0  0  0  0  0  0  0  0  0
   44.9630   31.5480   36.4990 H   0  0  0  0  0  0  0  0  0  0  0  0
   44.6640   31.1140   39.2620 O   0  0  0  0  0  0  0  0  0  0  0  0
   44.5700   30.8910   40.2330 H   0  0  0  0  0  0  0  0  0  0  0  0
  1  7  1  6  0  0  0
  1  2  1  0  0  0  0
  1 13  1  0  0  0  0
  2  8  1  1  0  0  0
  2 17  1  0  0  0  0
  3  2  1  0  0  0  0
  4  3  1  0  0  0  0
  4  9  1  0  0  0  0
  5  6  1  0  0  0  0
  5  4  1  0  0  0  0
  5 11  1  1  0  0  0
  6 12  1  6  0  0  0
  6 30  1  0  0  0  0
  6  1  1  0  0  0  0
 10  4  1  0  0  0  0
 13 14  1  0  0  0  0
 15  5  1  0  0  0  0
 16 15  1  0  0  0  0
 17 22  1  0  0  0  0
 18 19  1  0  0  0  0
 19 20  2  0  0  0  0
 19 24  1  0  0  0  0
 20 25  1  0  0  0  0
 21 20  1  0  0  0  0
 22 21  2  0  0  0  0
 23 22  1  0  0  0  0
 23 18  2  0  0  0  0
 26 18  1  0  0  0  0
 26 27  1  0  0  0  0
 28 26  1  0  0  0  0
 29 26  1  0  0  0  0
 31 39  1  6  0  0  0
 31 38  1  0  0  0  0
 32 33  1  0  0  0  0
 32 31  1  0  0  0  0
 32 30  1  1  0  0  0
 33 35  1  0  0  0  0
 34 33  1  0  0  0  0
 35 36  1  0  0  0  0
 37 36  1  0  0  0  0
 38 36  1  0  0  0  0
 38 41  1  6  0  0  0
 40 39  1  0  0  0  0
 41 42  1  0  0  0  0
M  END
>  <minimizedAffinity>
-6.24043417

$$$$

 OpenBabel03242510493D

 42 44  0  0  1  0  0  0  0  0999 V2000
   38.1340   29.2640   39.8320 C   0  0  1  0  0  0  0  0  0  0  0  0
   36.9120   28.6640   40.4030 C   0  0  2  0  0  0  0  0  0  0  0  0
   35.8220   29.5920   40.3880 O   0  0  0  0  0  0  0  0  0  0  0  0
   36.1460   30.5490   41.3530 C   0  0  0  0  0  0  0  0  0  0  0  0
   37.2830   31.4190   40.8580 C   0  0  1  0  0  0  0  0  0  0  0  0
   38.0470   30.7830   39.7370 C   0  0  1  0  0  0  0  0  0  0  0  0
   38.3170   28.9030   38.7980 H   0  0  0  0  0  0  0  0  0  0  0  0
   36.5100   27.8440   39.7540 H   0  0  0  0  0  0  0  0  0  0  0  0
   36.5140   29.9950   42.2440 H   0  0  0  0  0  0  0  0  0  0  0  0
   35.2580   31.1690   41.6330 H   0  0  0  0  0  0  0  0  0  0  0  0
   37.9590   31.6860   41.6950 H   0  0  0  0  0  0  0  0  0  0  0  0
   37.6180   31.0590   38.7380 H   0  0  0  0  0  0  0  0  0  0  0  0
   39.2770   28.8950   40.5680 O   0  0  0  0  0  0  0  0  0  0  0  0
   39.2010   29.1680   41.5140 H   0  0  0  0  0  0  0  0  0  0  0  0
   36.6760   32.5910   40.3710 O   0  0  0  0  0  0  0  0  0  0  0  0
   35.8580   32.2890   39.8740 H   0  0  0  0  0  0  0  0  0  0  0  0
   37.0140   28.2000   41.7440 O   0  0  0  0  0  0  0  0  0  0  0  0
   37.4870   24.6880   41.2170 C   0  0  0  0  0  0  0  0  0  0  0  0
   38.5430   24.3610   42.0820 C   0  0  0  0  0  0  0  0  0  0  0  0
   39.0880   25.3840   42.8560 C   0  0  0  0  0  0  0  0  0  0  0  0
   38.5750   26.6350   42.7330 N   0  0  0  0  0  0  0  0  0  0  0  0
   37.5740   26.9310   41.9090 C   0  0  0  0  0  0  0  0  0  0  0  0
   37.0320   25.9490   41.1510 N   0  0  0  0  0  0  0  0  0  0  0  0
   38.9590   23.3710   42.1890 H   0  0  0  0  0  0  0  0  0  0  0  0
   39.8990   25.2310   43.5470 H   0  0  0  0  0  0  0  0  0  0  0  0
   36.9090   23.5830   40.3850 C   0  0  0  0  0  0  0  0  0  0  0  0
   37.4720   22.3820   40.6930 F   0  0  0  0  0  0  0  0  0  0  0  0
   35.5340   23.5850   40.5670 F   0  0  0  0  0  0  0  0  0  0  0  0
   37.0970   23.9080   39.0170 F   0  0  0  0  0  0  0  0  0  0  0  0
   39.3570   31.2840   39.7780 O   0  0  0  0  0  0  0  0  0  0  0  0
   39.8930   31.6880   37.5570 C   0  0  2  0  0  3  0  0  0  0  0  0
   39.5700   32.3270   38.9050 C   0  0  2  0  0  3  0  0  0  0  0  0
   40.8500   33.0240   39.3440 C   0  0  0  0  0  3  0  0  0  0  0  0
   41.2300   33.7330   38.5830 H   0  0  0  0  0  0  0  0  0  0  0  0
   41.7860   32.0180   39.5810 O   0  0  0  0  0  0  0  0  0  0  0  0
   42.1680   31.3820   38.4010 C   0  0  0  0  0  3  0  0  0  0  0  0
   42.4830   32.0990   37.6380 H   0  0  0  0  0  0  0  0  0  0  0  0
   40.9510   30.6410   37.8620 C   0  0  2  0  0  3  0  0  0  0  0  0
   40.4830   32.6430   36.7060 O   0  0  0  0  0  0  0  0  0  0  0  0
   40.4520   32.3130   35.7930 H   0  0  0  0  0  0  0  0  0  0  0  0
   41.2360   29.8100   36.8100 O   0  0  0  0  0  0  0  0  0  0  0  0
   41.4720   28.8900   37.1240 H   0  0  0  0  0  0  0  0  0  0  0  0
  1  7  1  6  0  0  0
  1  2  1  0  0  0  0
  1 13  1  0  0  0  0
  2  8  1  6  0  0  0
  2 17  1  0  0  0  0
  3  2  1  0  0  0  0
  3  4  1  0  0  0  0
  4 10  1  0  0  0  0
  4  9  1  0  0  0  0
  5  4  1  0  0  0  0
  5 11  1  1  0  0  0
  6 12  1  6  0  0  0
  6 30  1  0  0  0  0
  6  1  1  0  0  0  0
  6  5  1  0  0  0  0
 13 14  1  0  0  0  0
 15  5  1  0  0  0  0
 16 15  1  0  0  0  0
 17 22  1  0  0  0  0
 18 19  1  0  0  0  0
 19 24  1  0  0  0  0
 19 20  2  0  0  0  0
 20 25  1  0  0  0  0
 21 20  1  0  0  0  0
 22 21  2  0  0  0  0
 23 18  2  0  0  0  0
 23 22  1  0  0  0  0
 26 28  1  0  0  0  0
 26 27  1  0  0  0  0
 26 18  1  0  0  0  0
 29 26  1  0  0  0  0
 31 39  1  6  0  0  0
 31 38  1  0  0  0  0
 31 32  1  0  0  0  0
 32 33  1  0  0  0  0
 32 30  1  1  0  0  0
 33 35  1  0  0  0  0
 34 33  1  0  0  0  0
 36 35  1  0  0  0  0
 37 36  1  0  0  0  0
 38 41  1  6  0  0  0
 38 36  1  0  0  0  0
 40 39  1  0  0  0  0
 41 42  1  0  0  0  0
M  END
>  <minimizedAffinity>
-6.22936392

$$$$
