
 OpenBabel03252507103D

 39 41  0  0  1  0  0  0  0  0999 V2000
   44.5290   35.6070   44.8010 C   0  0  0  0  0  0  0  0  0  0  0  0
   45.1310   35.8020   43.5400 C   0  0  0  0  0  0  0  0  0  0  0  0
   46.2100   34.9760   43.2120 C   0  0  0  0  0  0  0  0  0  0  0  0
   46.6160   34.0510   44.1010 N   0  0  0  0  0  0  0  0  0  0  0  0
   46.0310   33.8830   45.2920 C   0  0  0  0  0  0  0  0  0  0  0  0
   44.9780   34.6720   45.6400 N   0  0  0  0  0  0  0  0  0  0  0  0
   43.6820   36.2260   45.1070 H   0  0  0  0  0  0  0  0  0  0  0  0
   44.7160   36.5800   42.9080 H   0  0  0  0  0  0  0  0  0  0  0  0
   45.3990   32.5440   47.3180 C   0  0  1  0  0  0  0  0  0  0  0  0
   46.4450   32.8900   46.3020 C   0  0  1  0  0  0  0  0  0  0  0  0
   46.5920   31.5070   45.6350 C   0  0  0  0  0  0  0  0  0  0  0  0
   46.3410   30.5770   46.5910 O   0  0  0  0  0  0  0  0  0  0  0  0
   45.9510   31.2010   47.7730 C   0  0  0  0  0  0  0  0  0  0  0  0
   44.4020   32.3780   46.8600 H   0  0  0  0  0  0  0  0  0  0  0  0
   47.3810   33.2030   46.7540 H   0  0  0  0  0  0  0  0  0  0  0  0
   47.6530   31.4380   45.3200 H   0  0  0  0  0  0  0  0  0  0  0  0
   45.9760   31.4390   44.7180 H   0  0  0  0  0  0  0  0  0  0  0  0
   46.7950   31.3000   48.4550 H   0  0  0  0  0  0  0  0  0  0  0  0
   45.0900   30.6270   48.1740 H   0  0  0  0  0  0  0  0  0  0  0  0
   45.2400   33.4650   48.3110 O   0  0  0  0  0  0  0  0  0  0  0  0
   45.6870   33.0930   49.1370 H   0  0  0  0  0  0  0  0  0  0  0  0
   46.7800   35.1850   41.9750 O   0  0  0  0  0  0  0  0  0  0  0  0
   46.3610   32.6760   41.1920 O   0  0  0  0  0  0  0  0  0  0  0  0
   47.3060   33.8550   41.0450 P   0  0  1  0  0  0  0  0  0  0  0  0
   47.4470   34.3490   39.4510 O   0  0  0  0  0  0  0  0  0  0  0  0
   48.0870   35.1090   39.4490 H   0  0  0  0  0  0  0  0  0  0  0  0
   48.8290   33.4070   41.6730 O   0  0  0  0  0  0  0  0  0  0  0  0
   47.7230   31.3320   41.2240 C   0  0  1  0  0  3  0  0  0  0  0  0
   49.0540   32.0920   41.2630 C   0  0  1  0  0  3  0  0  0  0  0  0
   49.7190   31.9740   39.9300 C   0  0  0  0  0  3  0  0  0  0  0  0
   50.1350   30.9400   39.8600 H   0  0  0  0  0  0  0  0  0  0  0  0
   48.8650   32.1230   38.8460 O   0  0  0  0  0  0  0  0  0  0  0  0
   47.9730   31.0750   38.7520 C   0  0  0  0  0  3  0  0  0  0  0  0
   46.9780   31.4950   38.4950 H   0  0  0  0  0  0  0  0  0  0  0  0
   47.7780   30.3510   40.0710 C   0  0  2  0  0  3  0  0  0  0  0  0
   47.5260   30.5970   42.3910 O   0  0  0  0  0  0  0  0  0  0  0  0
   48.3440   30.0820   42.6130 H   0  0  0  0  0  0  0  0  0  0  0  0
   46.6050   29.6220   40.0720 O   0  0  0  0  0  0  0  0  0  0  0  0
   45.8790   30.2000   39.7170 H   0  0  0  0  0  0  0  0  0  0  0  0
  1  7  1  0  0  0  0
  1  6  1  0  0  0  0
  2  1  2  0  0  0  0
  3  2  1  0  0  0  0
  3  4  2  0  0  0  0
  4  5  1  0  0  0  0
  5  6  2  0  0  0  0
  5 10  1  0  0  0  0
  8  2  1  0  0  0  0
  9 14  1  6  0  0  0
  9 13  1  0  0  0  0
  9 20  1  0  0  0  0
 10 15  1  1  0  0  0
 10  9  1  0  0  0  0
 11 10  1  0  0  0  0
 11 12  1  0  0  0  0
 12 13  1  0  0  0  0
 13 19  1  0  0  0  0
 13 18  1  0  0  0  0
 16 11  1  0  0  0  0
 17 11  1  0  0  0  0
 20 21  1  0  0  0  0
 22  3  1  0  0  0  0
 24 23  2  1  0  0  0
 24 27  1  0  0  0  0
 24 22  1  0  0  0  0
 25 24  1  0  0  0  0
 26 25  1  0  0  0  0
 28 29  1  0  0  0  0
 28 36  1  1  0  0  0
 29 27  1  6  0  0  0
 30 29  1  0  0  0  0
 31 30  1  0  0  0  0
 32 30  1  0  0  0  0
 33 32  1  0  0  0  0
 33 35  1  0  0  0  0
 34 33  1  0  0  0  0
 35 38  1  6  0  0  0
 35 28  1  0  0  0  0
 36 37  1  0  0  0  0
 39 38  1  0  0  0  0
M  END
>  <minimizedAffinity>
-5.35615492

>  <minimizedRMSD>
2.26239824

$$$$
