
 OpenBabel03242510483D

 42 44  0  0  1  0  0  0  0  0999 V2000
   48.4220   31.8470   39.5890 C   0  0  1  0  0  0  0  0  0  0  0  0
   49.4190   30.8940   39.0640 C   0  0  2  0  0  0  0  0  0  0  0  0
   49.4910   29.7180   39.8770 O   0  0  0  0  0  0  0  0  0  0  0  0
   50.0960   30.1350   41.0660 C   0  0  0  0  0  0  0  0  0  0  0  0
   49.1330   30.9880   41.8650 C   0  0  1  0  0  0  0  0  0  0  0  0
   48.0180   31.5340   41.0250 C   0  0  1  0  0  0  0  0  0  0  0  0
   47.4830   31.8200   38.9960 H   0  0  0  0  0  0  0  0  0  0  0  0
   49.1010   30.4600   38.0810 H   0  0  0  0  0  0  0  0  0  0  0  0
   50.9550   30.7790   40.7810 H   0  0  0  0  0  0  0  0  0  0  0  0
   50.4590   29.2660   41.6700 H   0  0  0  0  0  0  0  0  0  0  0  0
   49.6760   31.8050   42.3810 H   0  0  0  0  0  0  0  0  0  0  0  0
   47.1360   30.8420   41.0110 H   0  0  0  0  0  0  0  0  0  0  0  0
   48.8860   33.1740   39.5000 O   0  0  0  0  0  0  0  0  0  0  0  0
   49.7320   33.2950   39.9950 H   0  0  0  0  0  0  0  0  0  0  0  0
   48.5780   30.1280   42.8300 O   0  0  0  0  0  0  0  0  0  0  0  0
   48.4000   29.2620   42.3550 H   0  0  0  0  0  0  0  0  0  0  0  0
   50.7510   31.3810   38.9590 O   0  0  0  0  0  0  0  0  0  0  0  0
   53.5850   30.4280   36.9850 C   0  0  0  0  0  0  0  0  0  0  0  0
   53.0370   30.1670   35.7200 C   0  0  0  0  0  0  0  0  0  0  0  0
   51.6610   30.3300   35.5630 C   0  0  0  0  0  0  0  0  0  0  0  0
   50.9280   30.7290   36.6340 N   0  0  0  0  0  0  0  0  0  0  0  0
   51.4610   30.9720   37.8270 C   0  0  0  0  0  0  0  0  0  0  0  0
   52.7960   30.8200   37.9970 N   0  0  0  0  0  0  0  0  0  0  0  0
   53.6080   29.8500   34.8610 H   0  0  0  0  0  0  0  0  0  0  0  0
   51.1510   30.1530   34.6310 H   0  0  0  0  0  0  0  0  0  0  0  0
   55.0640   30.2470   37.1470 C   0  0  0  0  0  0  0  0  0  0  0  0
   55.4500   30.4230   38.4410 F   0  0  0  0  0  0  0  0  0  0  0  0
   55.3970   28.9900   36.6620 F   0  0  0  0  0  0  0  0  0  0  0  0
   55.7230   31.1580   36.2810 F   0  0  0  0  0  0  0  0  0  0  0  0
   47.5920   32.7350   41.6140 O   0  0  0  0  0  0  0  0  0  0  0  0
   45.3270   33.0050   42.0350 C   0  0  2  0  0  3  0  0  0  0  0  0
   46.6650   32.5530   42.6150 C   0  0  2  0  0  3  0  0  0  0  0  0
   46.9900   33.5530   43.7150 C   0  0  0  0  0  3  0  0  0  0  0  0
   46.1790   33.6420   44.4620 H   0  0  0  0  0  0  0  0  0  0  0  0
   47.2100   34.7770   43.0850 O   0  0  0  0  0  0  0  0  0  0  0  0
   46.0360   35.2920   42.5380 C   0  0  0  0  0  3  0  0  0  0  0  0
   45.2250   35.3160   43.2700 H   0  0  0  0  0  0  0  0  0  0  0  0
   45.6070   34.3600   41.4100 C   0  0  2  0  0  3  0  0  0  0  0  0
   44.4000   33.2080   43.0780 O   0  0  0  0  0  0  0  0  0  0  0  0
   43.5060   33.2450   42.7000 H   0  0  0  0  0  0  0  0  0  0  0  0
   44.5750   34.8540   40.6550 O   0  0  0  0  0  0  0  0  0  0  0  0
   44.9130   35.3920   39.8820 H   0  0  0  0  0  0  0  0  0  0  0  0
  1  7  1  6  0  0  0
  1  6  1  0  0  0  0
  2  8  1  6  0  0  0
  2  1  1  0  0  0  0
  2  3  1  0  0  0  0
  3  4  1  0  0  0  0
  4 10  1  0  0  0  0
  4  5  1  0  0  0  0
  5 11  1  1  0  0  0
  5 15  1  0  0  0  0
  6 12  1  6  0  0  0
  6 30  1  0  0  0  0
  6  5  1  0  0  0  0
  9  4  1  0  0  0  0
 13  1  1  0  0  0  0
 13 14  1  0  0  0  0
 16 15  1  0  0  0  0
 17  2  1  0  0  0  0
 18 26  1  0  0  0  0
 18 23  1  0  0  0  0
 19 18  2  0  0  0  0
 20 19  1  0  0  0  0
 20 21  2  0  0  0  0
 21 22  1  0  0  0  0
 22 23  2  0  0  0  0
 22 17  1  0  0  0  0
 24 19  1  0  0  0  0
 25 20  1  0  0  0  0
 26 27  1  0  0  0  0
 28 26  1  0  0  0  0
 29 26  1  0  0  0  0
 31 32  1  0  0  0  0
 31 39  1  1  0  0  0
 32 30  1  6  0  0  0
 32 33  1  0  0  0  0
 33 34  1  0  0  0  0
 35 33  1  0  0  0  0
 36 35  1  0  0  0  0
 36 37  1  0  0  0  0
 38 41  1  1  0  0  0
 38 31  1  0  0  0  0
 38 36  1  0  0  0  0
 40 39  1  0  0  0  0
 42 41  1  0  0  0  0
M  END
>  <minimizedAffinity>
-4.2759285

>  <minimizedRMSD>
4.56758213

$$$$
