
 OpenBabel03252509293D

 20 21  0  0  0  0  0  0  0  0999 V2000
   44.8380   33.7730   41.6560 C   0  0  0  0  0  0  0  0  0  0  0  0
   44.0220   34.2900   41.1270 H   0  0  0  0  0  0  0  0  0  0  0  0
   44.6630   32.6620   41.6610 H   0  0  0  0  0  0  0  0  0  0  0  0
   44.4140   35.9050   44.6760 C   0  0  0  0  0  0  0  0  0  0  0  0
   44.3840   35.4870   43.3330 C   0  0  0  0  0  0  0  0  0  0  0  0
   44.8630   34.2200   43.0450 C   0  0  0  0  0  0  0  0  0  0  0  0
   45.3420   33.4370   44.0690 N   0  0  0  0  0  0  0  0  0  0  0  0
   45.3450   33.9000   45.3530 C   0  0  0  0  0  0  0  0  0  0  0  0
   44.8870   35.1190   45.6530 N   0  0  0  0  0  0  0  0  0  0  0  0
   44.0280   36.9050   44.8540 H   0  0  0  0  0  0  0  0  0  0  0  0
   44.0000   36.1260   42.5490 H   0  0  0  0  0  0  0  0  0  0  0  0
   45.7510   33.1750   46.0500 H   0  0  0  0  0  0  0  0  0  0  0  0
   46.0930   34.0230   40.9180 C   0  0  0  0  0  0  0  0  0  0  0  0
   47.1760   34.7530   41.3610 C   0  0  0  0  0  0  0  0  0  0  0  0
   47.0740   35.1850   42.3670 H   0  0  0  0  0  0  0  0  0  0  0  0
   48.3110   34.9360   40.6040 C   0  0  0  0  0  0  0  0  0  0  0  0
   49.1210   35.5320   41.0390 H   0  0  0  0  0  0  0  0  0  0  0  0
   48.4200   34.3850   39.3390 C   0  0  0  0  0  3  0  0  0  0  0  0
   47.3180   33.6580   38.9210 C   0  0  0  0  0  3  0  0  0  0  0  0
   46.2260   33.4950   39.6780 N   0  0  0  0  0  0  0  0  0  0  0  0
  1  3  1  0  0  0  0
  1  6  1  0  0  0  0
  2  1  1  0  0  0  0
  4 10  1  0  0  0  0
  4  9  1  0  0  0  0
  5  4  2  0  0  0  0
  6  5  1  0  0  0  0
  6  7  2  0  0  0  0
  7  8  1  0  0  0  0
  8  9  2  0  0  0  0
  8 12  1  0  0  0  0
 11  5  1  0  0  0  0
 13 14  1  0  0  0  0
 13  1  1  0  0  0  0
 14 15  1  0  0  0  0
 16 17  1  0  0  0  0
 16 14  2  0  0  0  0
 18 16  1  0  0  0  0
 19 18  2  0  0  0  0
 19 20  1  0  0  0  0
 20 13  2  0  0  0  0
M  END
>  <minimizedAffinity>
-4.07583284

>  <minimizedRMSD>
2.86628151

$$$$
