
 OpenBabel03252509293D

 20 21  0  0  0  0  0  0  0  0999 V2000
   45.7380   33.1250   42.4370 C   0  0  0  0  0  0  0  0  0  0  0  0
   45.9360   32.1140   42.0500 H   0  0  0  0  0  0  0  0  0  0  0  0
   46.5490   33.8360   42.1180 H   0  0  0  0  0  0  0  0  0  0  0  0
   46.1750   31.9030   45.9250 C   0  0  0  0  0  0  0  0  0  0  0  0
   46.1800   31.9290   44.5180 C   0  0  0  0  0  0  0  0  0  0  0  0
   45.7390   33.0850   43.8970 C   0  0  0  0  0  0  0  0  0  0  0  0
   45.3200   34.1420   44.6700 N   0  0  0  0  0  0  0  0  0  0  0  0
   45.3390   34.0560   46.0320 C   0  0  0  0  0  0  0  0  0  0  0  0
   45.7610   32.9500   46.6520 N   0  0  0  0  0  0  0  0  0  0  0  0
   46.5300   30.9770   46.3680 H   0  0  0  0  0  0  0  0  0  0  0  0
   46.5160   31.0800   43.9370 H   0  0  0  0  0  0  0  0  0  0  0  0
   44.9810   34.9630   46.5060 H   0  0  0  0  0  0  0  0  0  0  0  0
   44.4710   33.6020   41.8470 C   0  0  0  0  0  0  0  0  0  0  0  0
   43.2960   32.8890   41.7340 C   0  0  0  0  0  0  0  0  0  0  0  0
   43.3270   31.8630   42.1290 H   0  0  0  0  0  0  0  0  0  0  0  0
   42.1590   33.4150   41.1670 C   0  0  0  0  0  0  0  0  0  0  0  0
   41.2700   32.7730   41.1190 H   0  0  0  0  0  0  0  0  0  0  0  0
   42.1380   34.7090   40.6750 C   0  0  0  0  0  3  0  0  0  0  0  0
   43.3300   35.4000   40.8020 C   0  0  0  0  0  3  0  0  0  0  0  0
   44.4250   34.8650   41.3580 N   0  0  0  0  0  0  0  0  0  0  0  0
  1  6  1  0  0  0  0
  2  1  1  0  0  0  0
  3  1  1  0  0  0  0
  4 10  1  0  0  0  0
  4  9  1  0  0  0  0
  5  4  2  0  0  0  0
  6  5  1  0  0  0  0
  6  7  2  0  0  0  0
  7  8  1  0  0  0  0
  8 12  1  0  0  0  0
  8  9  2  0  0  0  0
 11  5  1  0  0  0  0
 13  1  1  0  0  0  0
 14 13  1  0  0  0  0
 14 15  1  0  0  0  0
 16 14  2  0  0  0  0
 17 16  1  0  0  0  0
 18 19  2  0  0  0  0
 18 16  1  0  0  0  0
 19 20  1  0  0  0  0
 20 13  2  0  0  0  0
M  END
>  <minimizedAffinity>
-3.07113147

>  <minimizedRMSD>
5.20504904

$$$$
