
 OpenBabel03252509293D

 20 21  0  0  0  0  0  0  0  0999 V2000
   46.9340   32.5250   40.8470 C   0  0  0  0  0  0  0  0  0  0  0  0
   46.0390   32.6120   41.4820 H   0  0  0  0  0  0  0  0  0  0  0  0
   47.3560   31.4840   40.8980 H   0  0  0  0  0  0  0  0  0  0  0  0
   48.7440   35.6670   41.6870 C   0  0  0  0  0  0  0  0  0  0  0  0
   47.7470   34.7980   41.2040 C   0  0  0  0  0  0  0  0  0  0  0  0
   47.9600   33.4380   41.3440 C   0  0  0  0  0  0  0  0  0  0  0  0
   49.1200   32.9990   41.9390 N   0  0  0  0  0  0  0  0  0  0  0  0
   50.0500   33.8920   42.3880 C   0  0  0  0  0  0  0  0  0  0  0  0
   49.8640   35.2090   42.2630 N   0  0  0  0  0  0  0  0  0  0  0  0
   48.5330   36.7250   41.5570 H   0  0  0  0  0  0  0  0  0  0  0  0
   46.8450   35.1740   40.7410 H   0  0  0  0  0  0  0  0  0  0  0  0
   50.9090   33.4020   42.8320 H   0  0  0  0  0  0  0  0  0  0  0  0
   46.5300   32.7750   39.4480 C   0  0  0  0  0  0  0  0  0  0  0  0
   47.3680   32.9140   38.3620 C   0  0  0  0  0  0  0  0  0  0  0  0
   48.4420   32.8270   38.5810 H   0  0  0  0  0  0  0  0  0  0  0  0
   46.9030   33.1460   37.0880 C   0  0  0  0  0  0  0  0  0  0  0  0
   47.6440   33.2420   36.2860 H   0  0  0  0  0  0  0  0  0  0  0  0
   45.5460   33.2530   36.8330 C   0  0  0  0  0  3  0  0  0  0  0  0
   44.7310   33.1090   37.9420 C   0  0  0  0  0  3  0  0  0  0  0  0
   45.2090   32.8840   39.1720 N   0  0  0  0  0  0  0  0  0  0  0  0
  1  3  1  0  0  0  0
  1  6  1  0  0  0  0
  1  2  1  0  0  0  0
  4  9  1  0  0  0  0
  5  6  1  0  0  0  0
  5  4  2  0  0  0  0
  6  7  2  0  0  0  0
  7  8  1  0  0  0  0
  8 12  1  0  0  0  0
  9  8  2  0  0  0  0
 10  4  1  0  0  0  0
 11  5  1  0  0  0  0
 13  1  1  0  0  0  0
 14 15  1  0  0  0  0
 14 13  2  0  0  0  0
 16 14  1  0  0  0  0
 17 16  1  0  0  0  0
 18 16  2  0  0  0  0
 18 19  1  0  0  0  0
 19 20  2  0  0  0  0
 20 13  1  0  0  0  0
M  END
>  <minimizedAffinity>
-3.15946174

>  <minimizedRMSD>
5.36853218

$$$$
