
 OpenBabel03252504233D

 31 34  0  0  0  0  0  0  0  0999 V2000
   37.3310   31.1090   39.6320 C   0  0  0  0  0  0  0  0  0  0  0  0
   36.9340   30.6450   38.3860 C   0  0  0  0  0  0  0  0  0  0  0  0
   37.7150   31.0020   37.2710 C   0  0  0  0  0  0  0  0  0  0  0  0
   38.8130   31.7830   37.4940 N   0  0  0  0  0  0  0  0  0  0  0  0
   39.1600   32.2110   38.7340 C   0  0  0  0  0  0  0  0  0  0  0  0
   38.4150   31.8690   39.7850 N   0  0  0  0  0  0  0  0  0  0  0  0
   40.3180   33.0210   38.8580 N   0  0  0  0  0  0  0  0  0  0  0  0
   40.4250   34.1480   39.6090 C   0  0  0  0  0  0  0  0  0  0  0  0
   41.6820   34.6360   39.4640 N   0  0  0  0  0  0  0  0  0  0  0  0
   42.3200   33.8000   38.6310 C   0  0  0  0  0  0  0  0  0  0  0  0
   43.5950   33.7670   38.1130 C   0  0  0  0  0  0  0  0  0  0  0  0
   44.0030   32.8240   37.2920 N   0  0  0  0  0  0  0  0  0  0  0  0
   43.1900   31.8090   36.8950 C   0  0  0  0  0  0  0  0  0  0  0  0
   41.9450   31.8510   37.4070 N   0  0  0  0  0  0  0  0  0  0  0  0
   41.4860   32.7760   38.2350 C   0  0  0  0  0  0  0  0  0  0  0  0
   36.0620   30.0260   38.2180 H   0  0  0  0  0  0  0  0  0  0  0  0
   37.4230   30.6540   36.3120 H   0  0  0  0  0  0  0  0  0  0  0  0
   39.6510   34.5960   40.2230 H   0  0  0  0  0  0  0  0  0  0  0  0
   43.5130   31.0250   36.2200 H   0  0  0  0  0  0  0  0  0  0  0  0
   44.5630   34.7460   38.4200 N   0  0  0  0  0  0  0  0  0  0  0  0
   44.5410   35.3050   39.3230 H   0  0  0  0  0  0  0  0  0  0  0  0
   45.3590   35.0120   37.8310 H   0  0  0  0  0  0  0  0  0  0  0  0
   36.2600   30.5970   41.0000 S   0  0  0  0  0  0  0  0  0  0  0  0
   37.0050   29.2890   41.9150 C   0  0  0  0  0  0  0  0  0  0  0  0
   36.4080   28.0440   42.0880 C   0  0  0  0  0  0  0  0  0  0  0  0
   35.4310   27.8610   41.6390 H   0  0  0  0  0  0  0  0  0  0  0  0
   37.0340   27.0410   42.8190 C   0  0  0  0  0  0  0  0  0  0  0  0
   36.5790   26.0680   42.9600 H   0  0  0  0  0  0  0  0  0  0  0  0
   38.2830   27.2880   43.3870 C   0  0  0  0  0  3  0  0  0  0  0  0
   38.8430   28.5330   43.1930 C   0  0  0  0  0  3  0  0  0  0  0  0
   38.2130   29.5020   42.4740 N   0  0  0  0  0  0  0  0  0  0  0  0
  1  6  1  0  0  0  0
  1 23  1  0  0  0  0
  2  1  2  0  0  0  0
  3  4  2  0  0  0  0
  3  2  1  0  0  0  0
  4  5  1  0  0  0  0
  5  7  1  0  0  0  0
  5  6  2  0  0  0  0
  7  8  1  0  0  0  0
  8 18  1  0  0  0  0
  9  8  2  0  0  0  0
 10  9  1  0  0  0  0
 11 20  1  0  0  0  0
 11 10  2  0  0  0  0
 12 11  1  0  0  0  0
 13 12  2  0  0  0  0
 13 14  1  0  0  0  0
 14 15  2  0  0  0  0
 15 10  1  0  0  0  0
 15  7  1  0  0  0  0
 16  2  1  0  0  0  0
 17  3  1  0  0  0  0
 19 13  1  0  0  0  0
 20 21  1  0  0  0  0
 22 20  1  0  0  0  0
 23 24  1  0  0  0  0
 24 25  2  0  0  0  0
 24 31  1  0  0  0  0
 25 27  1  0  0  0  0
 26 25  1  0  0  0  0
 27 28  1  0  0  0  0
 27 29  2  0  0  0  0
 30 29  1  0  0  0  0
 31 30  2  0  0  0  0
M  END
>  <minimizedAffinity>
-6.53930569

$$$$

 OpenBabel03252504233D

 31 34  0  0  0  0  0  0  0  0999 V2000
   37.9270   29.2410   41.1760 C   0  0  0  0  0  0  0  0  0  0  0  0
   38.3460   29.3950   42.4900 C   0  0  0  0  0  0  0  0  0  0  0  0
   39.4780   30.1970   42.7300 C   0  0  0  0  0  0  0  0  0  0  0  0
   40.0860   30.7700   41.6500 N   0  0  0  0  0  0  0  0  0  0  0  0
   39.6350   30.5890   40.3830 C   0  0  0  0  0  0  0  0  0  0  0  0
   38.5650   29.8280   40.1630 N   0  0  0  0  0  0  0  0  0  0  0  0
   40.3410   31.2270   39.3290 N   0  0  0  0  0  0  0  0  0  0  0  0
   40.6850   30.6600   38.1440 C   0  0  0  0  0  0  0  0  0  0  0  0
   41.3500   31.5850   37.4090 N   0  0  0  0  0  0  0  0  0  0  0  0
   41.3990   32.7000   38.1550 C   0  0  0  0  0  0  0  0  0  0  0  0
   41.9330   33.9520   37.9560 C   0  0  0  0  0  0  0  0  0  0  0  0
   41.8570   34.9080   38.8560 N   0  0  0  0  0  0  0  0  0  0  0  0
   41.2410   34.7250   40.0540 C   0  0  0  0  0  0  0  0  0  0  0  0
   40.7220   33.4960   40.2400 N   0  0  0  0  0  0  0  0  0  0  0  0
   40.7720   32.5010   39.3670 C   0  0  0  0  0  0  0  0  0  0  0  0
   37.8580   28.9370   43.3410 H   0  0  0  0  0  0  0  0  0  0  0  0
   39.8080   30.3240   43.7310 H   0  0  0  0  0  0  0  0  0  0  0  0
   40.4740   29.6450   37.8230 H   0  0  0  0  0  0  0  0  0  0  0  0
   41.1700   35.5020   40.8050 H   0  0  0  0  0  0  0  0  0  0  0  0
   42.6080   34.3070   36.7700 N   0  0  0  0  0  0  0  0  0  0  0  0
   42.4150   33.8310   35.8400 H   0  0  0  0  0  0  0  0  0  0  0  0
   43.3270   35.0330   36.6790 H   0  0  0  0  0  0  0  0  0  0  0  0
   36.4670   28.1890   40.9720 S   0  0  0  0  0  0  0  0  0  0  0  0
   36.9140   26.4880   41.0440 C   0  0  0  0  0  0  0  0  0  0  0  0
   37.3230   25.8570   42.2150 C   0  0  0  0  0  0  0  0  0  0  0  0
   37.3730   26.4370   43.1370 H   0  0  0  0  0  0  0  0  0  0  0  0
   37.6670   24.5100   42.2240 C   0  0  0  0  0  0  0  0  0  0  0  0
   37.9880   24.0080   43.1290 H   0  0  0  0  0  0  0  0  0  0  0  0
   37.5990   23.7790   41.0380 C   0  0  0  0  0  3  0  0  0  0  0  0
   37.1880   24.4390   39.9000 C   0  0  0  0  0  3  0  0  0  0  0  0
   36.8560   25.7590   39.9120 N   0  0  0  0  0  0  0  0  0  0  0  0
  1  2  1  0  0  0  0
  2  3  2  0  0  0  0
  2 16  1  0  0  0  0
  3 17  1  0  0  0  0
  4  3  1  0  0  0  0
  5  4  2  0  0  0  0
  6  5  1  0  0  0  0
  6  1  2  0  0  0  0
  7 15  1  0  0  0  0
  7  5  1  0  0  0  0
  8  7  1  0  0  0  0
  9  8  2  0  0  0  0
  9 10  1  0  0  0  0
 10 15  1  0  0  0  0
 11 10  2  0  0  0  0
 11 12  1  0  0  0  0
 12 13  2  0  0  0  0
 13 14  1  0  0  0  0
 13 19  1  0  0  0  0
 15 14  2  0  0  0  0
 18  8  1  0  0  0  0
 20 11  1  0  0  0  0
 21 20  1  0  0  0  0
 22 20  1  0  0  0  0
 23 24  1  0  0  0  0
 23  1  1  0  0  0  0
 24 25  1  0  0  0  0
 25 27  2  0  0  0  0
 25 26  1  0  0  0  0
 27 28  1  0  0  0  0
 29 27  1  0  0  0  0
 30 31  1  0  0  0  0
 30 29  2  0  0  0  0
 31 24  2  0  0  0  0
M  END
>  <minimizedAffinity>
-6.28903055

$$$$

 OpenBabel03252504233D

 31 34  0  0  0  0  0  0  0  0999 V2000
   37.1020   29.0180   41.1100 C   0  0  0  0  0  0  0  0  0  0  0  0
   36.4520   28.6050   39.9560 C   0  0  0  0  0  0  0  0  0  0  0  0
   36.6900   29.3270   38.7710 C   0  0  0  0  0  0  0  0  0  0  0  0
   37.5480   30.3870   38.8410 N   0  0  0  0  0  0  0  0  0  0  0  0
   38.1600   30.7510   39.9960 C   0  0  0  0  0  0  0  0  0  0  0  0
   37.9290   30.0630   41.1130 N   0  0  0  0  0  0  0  0  0  0  0  0
   39.0320   31.8710   39.9620 N   0  0  0  0  0  0  0  0  0  0  0  0
   39.0770   32.8720   40.8780 C   0  0  0  0  0  0  0  0  0  0  0  0
   40.0340   33.7530   40.4960 N   0  0  0  0  0  0  0  0  0  0  0  0
   40.5570   33.2750   39.3560 C   0  0  0  0  0  0  0  0  0  0  0  0
   41.5460   33.7180   38.5070 C   0  0  0  0  0  0  0  0  0  0  0  0
   41.8940   33.0630   37.4210 N   0  0  0  0  0  0  0  0  0  0  0  0
   41.2980   31.8960   37.0580 C   0  0  0  0  0  0  0  0  0  0  0  0
   40.3320   31.4720   37.8950 N   0  0  0  0  0  0  0  0  0  0  0  0
   39.9450   32.0920   38.9990 C   0  0  0  0  0  0  0  0  0  0  0  0
   35.7730   27.7620   39.9090 H   0  0  0  0  0  0  0  0  0  0  0  0
   36.1990   29.0210   37.8810 H   0  0  0  0  0  0  0  0  0  0  0  0
   38.4620   32.9680   41.7670 H   0  0  0  0  0  0  0  0  0  0  0  0
   41.5750   31.3450   36.1670 H   0  0  0  0  0  0  0  0  0  0  0  0
   42.2610   34.9110   38.7350 N   0  0  0  0  0  0  0  0  0  0  0  0
   42.3930   35.3210   39.7060 H   0  0  0  0  0  0  0  0  0  0  0  0
   42.7130   35.4890   38.0180 H   0  0  0  0  0  0  0  0  0  0  0  0
   36.7270   28.0260   42.5780 S   0  0  0  0  0  0  0  0  0  0  0  0
   37.9340   26.7630   42.7990 C   0  0  0  0  0  0  0  0  0  0  0  0
   37.8320   25.5030   42.2180 C   0  0  0  0  0  0  0  0  0  0  0  0
   36.9660   25.2780   41.5950 H   0  0  0  0  0  0  0  0  0  0  0  0
   38.8110   24.5370   42.4200 C   0  0  0  0  0  0  0  0  0  0  0  0
   38.7420   23.5520   41.9730 H   0  0  0  0  0  0  0  0  0  0  0  0
   39.9140   24.8380   43.2190 C   0  0  0  0  0  3  0  0  0  0  0  0
   39.9790   26.0970   43.7760 C   0  0  0  0  0  3  0  0  0  0  0  0
   39.0100   27.0290   43.5660 N   0  0  0  0  0  0  0  0  0  0  0  0
  1  6  1  0  0  0  0
  1 23  1  0  0  0  0
  2  1  2  0  0  0  0
  3  4  2  0  0  0  0
  3  2  1  0  0  0  0
  4  5  1  0  0  0  0
  5  6  2  0  0  0  0
  7  5  1  0  0  0  0
  7  8  1  0  0  0  0
  8 18  1  0  0  0  0
  9  8  2  0  0  0  0
 10  9  1  0  0  0  0
 11 20  1  0  0  0  0
 11 10  2  0  0  0  0
 12 11  1  0  0  0  0
 13 12  2  0  0  0  0
 13 14  1  0  0  0  0
 14 15  2  0  0  0  0
 15 10  1  0  0  0  0
 15  7  1  0  0  0  0
 16  2  1  0  0  0  0
 17  3  1  0  0  0  0
 19 13  1  0  0  0  0
 20 21  1  0  0  0  0
 22 20  1  0  0  0  0
 23 24  1  0  0  0  0
 24 31  1  0  0  0  0
 25 27  1  0  0  0  0
 25 24  2  0  0  0  0
 26 25  1  0  0  0  0
 27 29  2  0  0  0  0
 28 27  1  0  0  0  0
 29 30  1  0  0  0  0
 31 30  2  0  0  0  0
M  END
>  <minimizedAffinity>
-5.9933176

$$$$

 OpenBabel03252504233D

 31 34  0  0  0  0  0  0  0  0999 V2000
   37.8640   29.3370   41.3240 C   0  0  0  0  0  0  0  0  0  0  0  0
   38.2750   29.5610   42.6310 C   0  0  0  0  0  0  0  0  0  0  0  0
   39.3980   30.3840   42.8360 C   0  0  0  0  0  0  0  0  0  0  0  0
   40.0070   30.9060   41.7300 N   0  0  0  0  0  0  0  0  0  0  0  0
   39.5660   30.6570   40.4720 C   0  0  0  0  0  0  0  0  0  0  0  0
   38.5020   29.8760   40.2870 N   0  0  0  0  0  0  0  0  0  0  0  0
   40.2720   31.2460   39.3910 N   0  0  0  0  0  0  0  0  0  0  0  0
   40.6270   30.6220   38.2380 C   0  0  0  0  0  0  0  0  0  0  0  0
   41.2880   31.5140   37.4600 N   0  0  0  0  0  0  0  0  0  0  0  0
   41.3240   32.6660   38.1490 C   0  0  0  0  0  0  0  0  0  0  0  0
   41.8490   33.9110   37.8880 C   0  0  0  0  0  0  0  0  0  0  0  0
   41.7600   34.9110   38.7380 N   0  0  0  0  0  0  0  0  0  0  0  0
   41.1390   34.7830   39.9410 C   0  0  0  0  0  0  0  0  0  0  0  0
   40.6290   33.5610   40.1860 N   0  0  0  0  0  0  0  0  0  0  0  0
   40.6920   32.5240   39.3660 C   0  0  0  0  0  0  0  0  0  0  0  0
   37.7850   29.1420   43.5020 H   0  0  0  0  0  0  0  0  0  0  0  0
   39.7230   30.5640   43.8300 H   0  0  0  0  0  0  0  0  0  0  0  0
   40.4260   29.5900   37.9690 H   0  0  0  0  0  0  0  0  0  0  0  0
   41.0580   35.5980   40.6510 H   0  0  0  0  0  0  0  0  0  0  0  0
   42.5270   34.2110   36.6890 N   0  0  0  0  0  0  0  0  0  0  0  0
   42.3440   33.6860   35.7840 H   0  0  0  0  0  0  0  0  0  0  0  0
   43.2410   34.9370   36.5650 H   0  0  0  0  0  0  0  0  0  0  0  0
   36.4130   28.2640   41.1670 S   0  0  0  0  0  0  0  0  0  0  0  0
   35.8850   28.1780   39.4890 C   0  0  0  0  0  0  0  0  0  0  0  0
   34.9940   29.0850   38.9240 C   0  0  0  0  0  0  0  0  0  0  0  0
   34.5980   29.8910   39.5440 H   0  0  0  0  0  0  0  0  0  0  0  0
   34.6040   28.9780   37.5940 C   0  0  0  0  0  0  0  0  0  0  0  0
   33.9110   29.6780   37.1440 H   0  0  0  0  0  0  0  0  0  0  0  0
   35.1170   27.9430   36.8130 C   0  0  0  0  0  3  0  0  0  0  0  0
   35.9980   27.0650   37.4090 C   0  0  0  0  0  3  0  0  0  0  0  0
   36.3660   27.1870   38.7130 N   0  0  0  0  0  0  0  0  0  0  0  0
  1  2  1  0  0  0  0
  2  3  2  0  0  0  0
  2 16  1  0  0  0  0
  3 17  1  0  0  0  0
  4  3  1  0  0  0  0
  5  4  2  0  0  0  0
  6  5  1  0  0  0  0
  6  1  2  0  0  0  0
  7  5  1  0  0  0  0
  8  7  1  0  0  0  0
  9 10  1  0  0  0  0
  9  8  2  0  0  0  0
 10 15  1  0  0  0  0
 11 10  2  0  0  0  0
 11 12  1  0  0  0  0
 12 13  2  0  0  0  0
 13 14  1  0  0  0  0
 13 19  1  0  0  0  0
 15  7  1  0  0  0  0
 15 14  2  0  0  0  0
 18  8  1  0  0  0  0
 20 11  1  0  0  0  0
 21 20  1  0  0  0  0
 22 20  1  0  0  0  0
 23  1  1  0  0  0  0
 24 23  1  0  0  0  0
 25 24  1  0  0  0  0
 25 26  1  0  0  0  0
 27 25  2  0  0  0  0
 28 27  1  0  0  0  0
 29 30  2  0  0  0  0
 29 27  1  0  0  0  0
 30 31  1  0  0  0  0
 31 24  2  0  0  0  0
M  END
>  <minimizedAffinity>
-5.87295866

$$$$

 OpenBabel03252504233D

 31 34  0  0  0  0  0  0  0  0999 V2000
   37.1170   25.6920   40.8060 C   0  0  0  0  0  0  0  0  0  0  0  0
   36.5610   25.1040   39.6780 C   0  0  0  0  0  0  0  0  0  0  0  0
   36.0200   25.9520   38.6930 C   0  0  0  0  0  0  0  0  0  0  0  0
   36.0810   27.2980   38.9170 N   0  0  0  0  0  0  0  0  0  0  0  0
   36.6380   27.8230   40.0370 C   0  0  0  0  0  0  0  0  0  0  0  0
   37.1460   27.0140   40.9650 N   0  0  0  0  0  0  0  0  0  0  0  0
   36.6480   29.2360   40.1750 N   0  0  0  0  0  0  0  0  0  0  0  0
   36.3340   29.9290   41.2990 C   0  0  0  0  0  0  0  0  0  0  0  0
   36.4600   31.2520   41.0310 N   0  0  0  0  0  0  0  0  0  0  0  0
   36.8500   31.3440   39.7510 C   0  0  0  0  0  0  0  0  0  0  0  0
   37.1360   32.4040   38.9210 C   0  0  0  0  0  0  0  0  0  0  0  0
   37.5080   32.2450   37.6690 N   0  0  0  0  0  0  0  0  0  0  0  0
   37.6360   31.0150   37.1040 C   0  0  0  0  0  0  0  0  0  0  0  0
   37.3530   29.9850   37.9240 N   0  0  0  0  0  0  0  0  0  0  0  0
   36.9760   30.0920   39.1890 C   0  0  0  0  0  0  0  0  0  0  0  0
   36.5170   24.0350   39.5090 H   0  0  0  0  0  0  0  0  0  0  0  0
   35.5920   25.5160   37.8250 H   0  0  0  0  0  0  0  0  0  0  0  0
   36.0310   29.5130   42.2560 H   0  0  0  0  0  0  0  0  0  0  0  0
   37.9420   30.8680   36.0750 H   0  0  0  0  0  0  0  0  0  0  0  0
   37.0500   33.7450   39.3470 N   0  0  0  0  0  0  0  0  0  0  0  0
   37.1620   34.0280   40.3650 H   0  0  0  0  0  0  0  0  0  0  0  0
   36.8780   34.5590   38.7470 H   0  0  0  0  0  0  0  0  0  0  0  0
   37.7820   24.5170   42.0130 S   0  0  0  0  0  0  0  0  0  0  0  0
   39.2880   25.1190   42.7000 C   0  0  0  0  0  0  0  0  0  0  0  0
   40.5270   24.5400   42.4450 C   0  0  0  0  0  0  0  0  0  0  0  0
   40.5770   23.6700   41.7890 H   0  0  0  0  0  0  0  0  0  0  0  0
   41.6900   25.0510   43.0090 C   0  0  0  0  0  0  0  0  0  0  0  0
   42.6600   24.6070   42.8180 H   0  0  0  0  0  0  0  0  0  0  0  0
   41.6120   26.1640   43.8460 C   0  0  0  0  0  3  0  0  0  0  0  0
   40.3670   26.7100   44.0740 C   0  0  0  0  0  3  0  0  0  0  0  0
   39.2400   26.1940   43.5110 N   0  0  0  0  0  0  0  0  0  0  0  0
  1  6  1  0  0  0  0
  1 23  1  0  0  0  0
  2  1  2  0  0  0  0
  3  4  2  0  0  0  0
  3  2  1  0  0  0  0
  4  5  1  0  0  0  0
  5  7  1  0  0  0  0
  5  6  2  0  0  0  0
  7  8  1  0  0  0  0
  8 18  1  0  0  0  0
  9  8  2  0  0  0  0
 10  9  1  0  0  0  0
 11 20  1  0  0  0  0
 11 10  2  0  0  0  0
 12 11  1  0  0  0  0
 13 12  2  0  0  0  0
 13 14  1  0  0  0  0
 14 15  2  0  0  0  0
 15 10  1  0  0  0  0
 15  7  1  0  0  0  0
 16  2  1  0  0  0  0
 17  3  1  0  0  0  0
 19 13  1  0  0  0  0
 20 21  1  0  0  0  0
 22 20  1  0  0  0  0
 23 24  1  0  0  0  0
 24 31  1  0  0  0  0
 25 24  2  0  0  0  0
 25 27  1  0  0  0  0
 26 25  1  0  0  0  0
 27 29  2  0  0  0  0
 28 27  1  0  0  0  0
 29 30  1  0  0  0  0
 31 30  2  0  0  0  0
M  END
>  <minimizedAffinity>
-5.84329653

$$$$

 OpenBabel03252504233D

 31 34  0  0  0  0  0  0  0  0999 V2000
   39.4640   27.2770   42.7680 C   0  0  0  0  0  0  0  0  0  0  0  0
   38.2700   27.2780   43.4760 C   0  0  0  0  0  0  0  0  0  0  0  0
   37.5800   28.4990   43.6000 C   0  0  0  0  0  0  0  0  0  0  0  0
   38.1350   29.6000   43.0130 N   0  0  0  0  0  0  0  0  0  0  0  0
   39.3050   29.5460   42.3300 C   0  0  0  0  0  0  0  0  0  0  0  0
   39.9530   28.3870   42.2180 N   0  0  0  0  0  0  0  0  0  0  0  0
   39.7990   30.7480   41.7590 N   0  0  0  0  0  0  0  0  0  0  0  0
   41.0840   31.1830   41.8070 C   0  0  0  0  0  0  0  0  0  0  0  0
   41.1540   32.3690   41.1530 N   0  0  0  0  0  0  0  0  0  0  0  0
   39.9130   32.6370   40.7170 C   0  0  0  0  0  0  0  0  0  0  0  0
   39.3620   33.6770   40.0030 C   0  0  0  0  0  0  0  0  0  0  0  0
   38.0860   33.7220   39.6860 N   0  0  0  0  0  0  0  0  0  0  0  0
   37.2180   32.7390   40.0430 C   0  0  0  0  0  0  0  0  0  0  0  0
   37.7670   31.7260   40.7410 N   0  0  0  0  0  0  0  0  0  0  0  0
   39.0420   31.6340   41.0850 C   0  0  0  0  0  0  0  0  0  0  0  0
   37.8370   26.4000   43.9390 H   0  0  0  0  0  0  0  0  0  0  0  0
   36.6650   28.5140   44.1390 H   0  0  0  0  0  0  0  0  0  0  0  0
   41.9220   30.6840   42.2810 H   0  0  0  0  0  0  0  0  0  0  0  0
   36.1650   32.7630   39.7880 H   0  0  0  0  0  0  0  0  0  0  0  0
   40.1230   34.7770   39.5590 N   0  0  0  0  0  0  0  0  0  0  0  0
   41.1670   34.7120   39.3770 H   0  0  0  0  0  0  0  0  0  0  0  0
   39.7660   35.7200   39.3720 H   0  0  0  0  0  0  0  0  0  0  0  0
   40.2760   25.6610   42.6690 S   0  0  0  0  0  0  0  0  0  0  0  0
   39.4710   24.6360   41.4840 C   0  0  0  0  0  0  0  0  0  0  0  0
   38.2970   23.9390   41.7520 C   0  0  0  0  0  0  0  0  0  0  0  0
   37.8470   24.0250   42.7410 H   0  0  0  0  0  0  0  0  0  0  0  0
   37.6980   23.1410   40.7850 C   0  0  0  0  0  0  0  0  0  0  0  0
   36.7840   22.5930   40.9820 H   0  0  0  0  0  0  0  0  0  0  0  0
   38.2840   23.0380   39.5240 C   0  0  0  0  0  3  0  0  0  0  0  0
   39.4460   23.7440   39.2970 C   0  0  0  0  0  3  0  0  0  0  0  0
   40.0180   24.5200   40.2580 N   0  0  0  0  0  0  0  0  0  0  0  0
  1  2  1  0  0  0  0
  2  3  2  0  0  0  0
  2 16  1  0  0  0  0
  3 17  1  0  0  0  0
  4  3  1  0  0  0  0
  5  4  2  0  0  0  0
  6  5  1  0  0  0  0
  6  1  2  0  0  0  0
  7  8  1  0  0  0  0
  7  5  1  0  0  0  0
  8 18  1  0  0  0  0
  9  8  2  0  0  0  0
 10 15  1  0  0  0  0
 10  9  1  0  0  0  0
 11 10  2  0  0  0  0
 12 11  1  0  0  0  0
 12 13  2  0  0  0  0
 13 14  1  0  0  0  0
 14 15  2  0  0  0  0
 15  7  1  0  0  0  0
 19 13  1  0  0  0  0
 20 11  1  0  0  0  0
 21 20  1  0  0  0  0
 22 20  1  0  0  0  0
 23  1  1  0  0  0  0
 24 25  1  0  0  0  0
 24 23  1  0  0  0  0
 25 26  1  0  0  0  0
 27 28  1  0  0  0  0
 27 25  2  0  0  0  0
 29 27  1  0  0  0  0
 30 29  2  0  0  0  0
 30 31  1  0  0  0  0
 31 24  2  0  0  0  0
M  END
>  <minimizedAffinity>
-5.80362797

$$$$

 OpenBabel03252504233D

 31 34  0  0  0  0  0  0  0  0999 V2000
   37.7280   30.0510   39.5510 C   0  0  0  0  0  0  0  0  0  0  0  0
   36.8710   30.8130   38.7710 C   0  0  0  0  0  0  0  0  0  0  0  0
   37.2890   32.1080   38.4080 C   0  0  0  0  0  0  0  0  0  0  0  0
   38.5120   32.5240   38.8510 N   0  0  0  0  0  0  0  0  0  0  0  0
   39.3130   31.7380   39.6130 C   0  0  0  0  0  0  0  0  0  0  0  0
   38.9110   30.5140   39.9530 N   0  0  0  0  0  0  0  0  0  0  0  0
   40.5650   32.2660   40.0240 N   0  0  0  0  0  0  0  0  0  0  0  0
   41.0980   32.1730   41.2700 C   0  0  0  0  0  0  0  0  0  0  0  0
   42.2990   32.8020   41.2660 N   0  0  0  0  0  0  0  0  0  0  0  0
   42.4790   33.2670   40.0200 C   0  0  0  0  0  0  0  0  0  0  0  0
   43.4880   33.9760   39.4090 C   0  0  0  0  0  0  0  0  0  0  0  0
   43.4410   34.3290   38.1430 N   0  0  0  0  0  0  0  0  0  0  0  0
   42.3870   34.0160   37.3440 C   0  0  0  0  0  0  0  0  0  0  0  0
   41.4060   33.3220   37.9510 N   0  0  0  0  0  0  0  0  0  0  0  0
   41.4040   32.9430   39.2190 C   0  0  0  0  0  0  0  0  0  0  0  0
   35.9030   30.4760   38.4230 H   0  0  0  0  0  0  0  0  0  0  0  0
   36.6430   32.7020   37.8100 H   0  0  0  0  0  0  0  0  0  0  0  0
   40.6540   31.6840   42.1320 H   0  0  0  0  0  0  0  0  0  0  0  0
   42.3350   34.3000   36.2990 H   0  0  0  0  0  0  0  0  0  0  0  0
   44.6500   34.3830   40.0960 N   0  0  0  0  0  0  0  0  0  0  0  0
   45.0200   33.8670   40.9470 H   0  0  0  0  0  0  0  0  0  0  0  0
   45.2400   35.1880   39.8580 H   0  0  0  0  0  0  0  0  0  0  0  0
   37.0990   28.4030   39.9660 S   0  0  0  0  0  0  0  0  0  0  0  0
   37.7750   27.8480   41.4950 C   0  0  0  0  0  0  0  0  0  0  0  0
   37.2000   28.1310   42.7290 C   0  0  0  0  0  0  0  0  0  0  0  0
   36.2860   28.7240   42.7620 H   0  0  0  0  0  0  0  0  0  0  0  0
   37.7700   27.6710   43.9110 C   0  0  0  0  0  0  0  0  0  0  0  0
   37.3310   27.8850   44.8780 H   0  0  0  0  0  0  0  0  0  0  0  0
   38.9390   26.9130   43.8560 C   0  0  0  0  0  3  0  0  0  0  0  0
   39.4780   26.6540   42.6140 C   0  0  0  0  0  3  0  0  0  0  0  0
   38.9040   27.1130   41.4690 N   0  0  0  0  0  0  0  0  0  0  0  0
  1  6  1  0  0  0  0
  1 23  1  0  0  0  0
  2  1  2  0  0  0  0
  3  2  1  0  0  0  0
  3  4  2  0  0  0  0
  4  5  1  0  0  0  0
  5  6  2  0  0  0  0
  5  7  1  0  0  0  0
  7  8  1  0  0  0  0
  8 18  1  0  0  0  0
  9  8  2  0  0  0  0
 10  9  1  0  0  0  0
 11 10  1  0  0  0  0
 11 20  1  0  0  0  0
 12 11  2  0  0  0  0
 13 14  2  0  0  0  0
 13 12  1  0  0  0  0
 14 15  1  0  0  0  0
 15 10  2  0  0  0  0
 15  7  1  0  0  0  0
 16  2  1  0  0  0  0
 17  3  1  0  0  0  0
 19 13  1  0  0  0  0
 20 21  1  0  0  0  0
 22 20  1  0  0  0  0
 23 24  1  0  0  0  0
 24 25  1  0  0  0  0
 25 26  1  0  0  0  0
 25 27  2  0  0  0  0
 27 28  1  0  0  0  0
 29 27  1  0  0  0  0
 30 29  2  0  0  0  0
 31 24  2  0  0  0  0
 31 30  1  0  0  0  0
M  END
>  <minimizedAffinity>
-5.72131968

$$$$

 OpenBabel03252504233D

 31 34  0  0  0  0  0  0  0  0999 V2000
   33.7550   28.3910   36.1790 C   0  0  0  0  0  0  0  0  0  0  0  0
   34.6040   27.5810   35.4370 C   0  0  0  0  0  0  0  0  0  0  0  0
   35.8360   27.2180   36.0130 C   0  0  0  0  0  0  0  0  0  0  0  0
   36.1110   27.6890   37.2650 N   0  0  0  0  0  0  0  0  0  0  0  0
   35.2460   28.4780   37.9490 C   0  0  0  0  0  0  0  0  0  0  0  0
   34.0820   28.8180   37.3980 N   0  0  0  0  0  0  0  0  0  0  0  0
   35.6290   28.9170   39.2440 N   0  0  0  0  0  0  0  0  0  0  0  0
   35.4880   30.1760   39.7310 C   0  0  0  0  0  0  0  0  0  0  0  0
   35.9730   30.1970   40.9970 N   0  0  0  0  0  0  0  0  0  0  0  0
   36.3980   28.9520   41.2620 C   0  0  0  0  0  0  0  0  0  0  0  0
   36.9780   28.3620   42.3620 C   0  0  0  0  0  0  0  0  0  0  0  0
   37.3180   27.0910   42.3880 N   0  0  0  0  0  0  0  0  0  0  0  0
   37.1210   26.2680   41.3240 C   0  0  0  0  0  0  0  0  0  0  0  0
   36.5540   26.8560   40.2530 N   0  0  0  0  0  0  0  0  0  0  0  0
   36.1940   28.1280   40.1760 C   0  0  0  0  0  0  0  0  0  0  0  0
   34.3780   27.2120   34.4450 H   0  0  0  0  0  0  0  0  0  0  0  0
   36.4950   26.5990   35.4560 H   0  0  0  0  0  0  0  0  0  0  0  0
   35.0650   31.0310   39.2130 H   0  0  0  0  0  0  0  0  0  0  0  0
   37.3970   25.2200   41.3310 H   0  0  0  0  0  0  0  0  0  0  0  0
   37.2540   29.0740   43.5470 N   0  0  0  0  0  0  0  0  0  0  0  0
   36.7080   29.9390   43.8320 H   0  0  0  0  0  0  0  0  0  0  0  0
   37.9810   28.8450   44.2320 H   0  0  0  0  0  0  0  0  0  0  0  0
   32.1980   28.8040   35.3510 S   0  0  0  0  0  0  0  0  0  0  0  0
   31.2930   29.9880   36.2890 C   0  0  0  0  0  0  0  0  0  0  0  0
   31.0120   31.2710   35.8280 C   0  0  0  0  0  0  0  0  0  0  0  0
   31.3660   31.5650   34.8400 H   0  0  0  0  0  0  0  0  0  0  0  0
   30.2930   32.1720   36.6040 C   0  0  0  0  0  0  0  0  0  0  0  0
   30.0680   33.1740   36.2560 H   0  0  0  0  0  0  0  0  0  0  0  0
   29.8460   31.7830   37.8660 C   0  0  0  0  0  3  0  0  0  0  0  0
   30.1430   30.5040   38.2870 C   0  0  0  0  0  3  0  0  0  0  0  0
   30.8490   29.6370   37.5110 N   0  0  0  0  0  0  0  0  0  0  0  0
  1  6  1  0  0  0  0
  2  3  1  0  0  0  0
  2  1  2  0  0  0  0
  3  4  2  0  0  0  0
  4  5  1  0  0  0  0
  5  7  1  0  0  0  0
  6  5  2  0  0  0  0
  7  8  1  0  0  0  0
  7 15  1  0  0  0  0
  8  9  2  0  0  0  0
  9 10  1  0  0  0  0
 10 11  1  0  0  0  0
 11 12  2  0  0  0  0
 11 20  1  0  0  0  0
 13 19  1  0  0  0  0
 13 12  1  0  0  0  0
 14 13  2  0  0  0  0
 15 14  1  0  0  0  0
 15 10  2  0  0  0  0
 16  2  1  0  0  0  0
 17  3  1  0  0  0  0
 18  8  1  0  0  0  0
 20 21  1  0  0  0  0
 20 22  1  0  0  0  0
 23  1  1  0  0  0  0
 23 24  1  0  0  0  0
 24 31  1  0  0  0  0
 25 24  2  0  0  0  0
 25 27  1  0  0  0  0
 26 25  1  0  0  0  0
 27 29  2  0  0  0  0
 28 27  1  0  0  0  0
 29 30  1  0  0  0  0
 31 30  2  0  0  0  0
M  END
>  <minimizedAffinity>
-5.7016201

$$$$

 OpenBabel03252504233D

 31 34  0  0  0  0  0  0  0  0999 V2000
   38.2890   26.1630   41.9980 C   0  0  0  0  0  0  0  0  0  0  0  0
   37.4330   26.7050   42.9460 C   0  0  0  0  0  0  0  0  0  0  0  0
   37.2010   28.0930   42.9060 C   0  0  0  0  0  0  0  0  0  0  0  0
   37.8370   28.8110   41.9340 N   0  0  0  0  0  0  0  0  0  0  0  0
   38.6650   28.2320   41.0290 C   0  0  0  0  0  0  0  0  0  0  0  0
   38.8810   26.9190   41.0740 N   0  0  0  0  0  0  0  0  0  0  0  0
   39.2800   29.0690   40.0610 N   0  0  0  0  0  0  0  0  0  0  0  0
   40.5830   29.0230   39.6820 C   0  0  0  0  0  0  0  0  0  0  0  0
   40.7850   29.9790   38.7410 N   0  0  0  0  0  0  0  0  0  0  0  0
   39.6030   30.5900   38.5620 C   0  0  0  0  0  0  0  0  0  0  0  0
   39.1820   31.6220   37.7540 C   0  0  0  0  0  0  0  0  0  0  0  0
   37.9420   32.0600   37.7520 N   0  0  0  0  0  0  0  0  0  0  0  0
   36.9840   31.5230   38.5530 C   0  0  0  0  0  0  0  0  0  0  0  0
   37.4070   30.5150   39.3400 N   0  0  0  0  0  0  0  0  0  0  0  0
   38.6410   30.0370   39.3790 C   0  0  0  0  0  0  0  0  0  0  0  0
   36.9330   26.1280   43.7140 H   0  0  0  0  0  0  0  0  0  0  0  0
   36.5480   28.5210   43.6260 H   0  0  0  0  0  0  0  0  0  0  0  0
   41.3460   28.3470   40.0550 H   0  0  0  0  0  0  0  0  0  0  0  0
   35.9590   31.8740   38.5620 H   0  0  0  0  0  0  0  0  0  0  0  0
   40.0490   32.2910   36.8660 N   0  0  0  0  0  0  0  0  0  0  0  0
   40.9170   31.8310   36.4620 H   0  0  0  0  0  0  0  0  0  0  0  0
   39.9410   33.2530   36.5280 H   0  0  0  0  0  0  0  0  0  0  0  0
   38.5240   24.3720   42.1360 S   0  0  0  0  0  0  0  0  0  0  0  0
   37.5360   23.5250   40.9500 C   0  0  0  0  0  0  0  0  0  0  0  0
   37.9450   22.3590   40.3110 C   0  0  0  0  0  0  0  0  0  0  0  0
   38.9240   21.9420   40.5500 H   0  0  0  0  0  0  0  0  0  0  0  0
   37.1310   21.7240   39.3810 C   0  0  0  0  0  0  0  0  0  0  0  0
   37.4390   20.8150   38.8770 H   0  0  0  0  0  0  0  0  0  0  0  0
   35.8810   22.2660   39.0840 C   0  0  0  0  0  3  0  0  0  0  0  0
   35.5110   23.4220   39.7380 C   0  0  0  0  0  3  0  0  0  0  0  0
   36.3230   24.0280   40.6460 N   0  0  0  0  0  0  0  0  0  0  0  0
  1 23  1  0  0  0  0
  1  2  1  0  0  0  0
  2 16  1  0  0  0  0
  3  2  2  0  0  0  0
  3 17  1  0  0  0  0
  4  3  1  0  0  0  0
  5  6  1  0  0  0  0
  5  4  2  0  0  0  0
  6  1  2  0  0  0  0
  7  5  1  0  0  0  0
  8 18  1  0  0  0  0
  8  7  1  0  0  0  0
  9  8  2  0  0  0  0
 10  9  1  0  0  0  0
 10 15  1  0  0  0  0
 11 10  2  0  0  0  0
 12 11  1  0  0  0  0
 12 13  2  0  0  0  0
 13 19  1  0  0  0  0
 13 14  1  0  0  0  0
 14 15  2  0  0  0  0
 15  7  1  0  0  0  0
 20 11  1  0  0  0  0
 21 20  1  0  0  0  0
 22 20  1  0  0  0  0
 24 23  1  0  0  0  0
 25 26  1  0  0  0  0
 25 24  2  0  0  0  0
 27 25  1  0  0  0  0
 28 27  1  0  0  0  0
 29 27  2  0  0  0  0
 29 30  1  0  0  0  0
 30 31  2  0  0  0  0
 31 24  1  0  0  0  0
M  END
>  <minimizedAffinity>
-5.64298248

$$$$
