
 OpenBabel03252509283D

 20 21  0  0  0  0  0  0  0  0999 V2000
   43.3550   33.4380   41.5400 C   0  0  0  0  0  0  0  0  0  0  0  0
   43.0180   33.2150   42.5630 H   0  0  0  0  0  0  0  0  0  0  0  0
   43.3870   32.4990   40.9210 H   0  0  0  0  0  0  0  0  0  0  0  0
   46.3680   35.2840   42.7080 C   0  0  0  0  0  0  0  0  0  0  0  0
   45.0580   34.7730   42.6690 C   0  0  0  0  0  0  0  0  0  0  0  0
   44.7120   33.9740   41.5920 C   0  0  0  0  0  0  0  0  0  0  0  0
   45.6500   33.7200   40.6200 N   0  0  0  0  0  0  0  0  0  0  0  0
   46.9070   34.2450   40.7140 C   0  0  0  0  0  0  0  0  0  0  0  0
   47.2610   35.0170   41.7440 N   0  0  0  0  0  0  0  0  0  0  0  0
   46.5940   35.9040   43.5710 H   0  0  0  0  0  0  0  0  0  0  0  0
   44.3420   34.9910   43.4510 H   0  0  0  0  0  0  0  0  0  0  0  0
   47.5350   33.9600   39.8770 H   0  0  0  0  0  0  0  0  0  0  0  0
   42.3700   34.3470   40.9200 C   0  0  0  0  0  0  0  0  0  0  0  0
   41.5240   35.2150   41.5760 C   0  0  0  0  0  0  0  0  0  0  0  0
   41.6060   35.2140   42.6730 H   0  0  0  0  0  0  0  0  0  0  0  0
   40.6330   36.0290   40.9150 C   0  0  0  0  0  0  0  0  0  0  0  0
   39.9990   36.6880   41.5220 H   0  0  0  0  0  0  0  0  0  0  0  0
   40.5440   36.0160   39.5340 C   0  0  0  0  0  3  0  0  0  0  0  0
   41.4050   35.1360   38.9020 C   0  0  0  0  0  3  0  0  0  0  0  0
   42.2630   34.3540   39.5690 N   0  0  0  0  0  0  0  0  0  0  0  0
  1  6  1  0  0  0  0
  1  2  1  0  0  0  0
  3  1  1  0  0  0  0
  4 10  1  0  0  0  0
  5  4  1  0  0  0  0
  5 11  1  0  0  0  0
  6  5  2  0  0  0  0
  7  8  2  0  0  0  0
  7  6  1  0  0  0  0
  8  9  1  0  0  0  0
  9  4  2  0  0  0  0
 12  8  1  0  0  0  0
 13  1  1  0  0  0  0
 13 14  1  0  0  0  0
 14 15  1  0  0  0  0
 16 17  1  0  0  0  0
 16 14  2  0  0  0  0
 18 16  1  0  0  0  0
 19 18  2  0  0  0  0
 19 20  1  0  0  0  0
 20 13  2  0  0  0  0
M  END
>  <minimizedAffinity>
-3.76906061

>  <minimizedRMSD>
6.33330774

$$$$
