
 OpenBabel03242519553D

 39 41  0  0  1  0  0  0  0  0999 V2000
   37.9350   30.4340   40.1570 C   0  0  2  0  0  0  0  0  0  0  0  0
   37.6320   29.9850   38.7810 C   0  0  0  0  0  0  0  0  0  0  0  0
   36.1690   30.0160   38.4780 C   0  0  0  0  0  0  0  0  0  0  0  0
   35.3320   29.2410   39.4640 C   0  0  0  0  0  0  0  0  0  0  0  0
   35.8250   29.3190   40.8770 C   0  0  2  0  0  0  0  0  0  0  0  0
   36.7570   30.4990   41.0710 C   0  0  0  0  0  0  0  0  0  0  0  0
   38.6440   29.6540   40.5830 H   0  0  0  0  0  0  0  0  0  0  0  0
   38.1440   30.6460   38.0720 H   0  0  0  0  0  0  0  0  0  0  0  0
   37.9940   28.9620   38.5680 H   0  0  0  0  0  0  0  0  0  0  0  0
   35.7930   31.0540   38.3340 H   0  0  0  0  0  0  0  0  0  0  0  0
   36.0440   29.4970   37.4840 H   0  0  0  0  0  0  0  0  0  0  0  0
   35.1490   28.1890   39.1170 H   0  0  0  0  0  0  0  0  0  0  0  0
   34.3150   29.7230   39.4270 H   0  0  0  0  0  0  0  0  0  0  0  0
   34.9650   29.5110   41.5800 H   0  0  0  0  0  0  0  0  0  0  0  0
   36.1350   31.3730   41.0670 H   0  0  0  0  0  0  0  0  0  0  0  0
   37.1640   30.4040   42.1180 H   0  0  0  0  0  0  0  0  0  0  0  0
   38.6720   31.7070   40.2160 C   0  0  0  0  0  0  0  0  0  0  0  0
   37.8490   32.8300   40.2070 C   0  0  0  0  0  0  0  0  0  0  0  0
   38.4140   34.1060   40.2770 C   0  0  0  0  0  0  0  0  0  0  0  0
   39.7960   34.1560   40.3490 N   0  0  0  0  0  0  0  0  0  0  0  0
   40.5540   33.0440   40.3530 C   0  0  0  0  0  0  0  0  0  0  0  0
   39.9860   31.8390   40.2870 N   0  0  0  0  0  0  0  0  0  0  0  0
   36.7900   33.0320   40.1470 H   0  0  0  0  0  0  0  0  0  0  0  0
   37.9830   35.0830   40.2860 H   0  0  0  0  0  0  0  0  0  0  0  0
   41.6340   33.1410   40.4110 H   0  0  0  0  0  0  0  0  0  0  0  0
   36.4090   28.0140   41.2560 C   0  0  0  0  0  0  0  0  0  0  0  0
   35.7290   27.2170   40.8970 H   0  0  0  0  0  0  0  0  0  0  0  0
   37.3560   27.8740   40.6750 H   0  0  0  0  0  0  0  0  0  0  0  0
   36.7530   27.8560   42.7030 C   0  0  0  0  0  0  0  0  0  0  0  0
   35.8600   27.5480   43.2620 H   0  0  0  0  0  0  0  0  0  0  0  0
   37.1090   28.8090   43.1430 H   0  0  0  0  0  0  0  0  0  0  0  0
   37.8730   26.8670   42.8880 C   0  0  0  0  0  0  0  0  0  0  0  0
   39.0060   27.0240   43.6390 C   0  0  0  0  0  0  0  0  0  0  0  0
   39.0860   27.9620   44.1470 H   0  0  0  0  0  0  0  0  0  0  0  0
   39.9190   25.9940   43.6800 C   0  0  0  0  0  0  0  0  0  0  0  0
   40.8070   26.1240   44.2730 H   0  0  0  0  0  0  0  0  0  0  0  0
   39.7330   24.8070   42.9880 C   0  0  0  0  0  3  0  0  0  0  0  0
   38.5620   24.7040   42.2390 C   0  0  0  0  0  3  0  0  0  0  0  0
   37.6850   25.7180   42.2130 N   0  0  0  0  0  0  0  0  0  0  0  0
  1 17  1  0  0  0  0
  1  7  1  1  0  0  0
  1  6  1  0  0  0  0
  2  1  1  0  0  0  0
  3  2  1  0  0  0  0
  3  4  1  0  0  0  0
  4  5  1  0  0  0  0
  5  6  1  0  0  0  0
  5 26  1  0  0  0  0
  5 14  1  1  0  0  0
  6 16  1  0  0  0  0
  8  2  1  0  0  0  0
  9  2  1  0  0  0  0
 10  3  1  0  0  0  0
 11  3  1  0  0  0  0
 12  4  1  0  0  0  0
 13  4  1  0  0  0  0
 15  6  1  0  0  0  0
 17 22  1  0  0  0  0
 18 17  2  0  0  0  0
 18 19  1  0  0  0  0
 19 24  1  0  0  0  0
 19 20  2  0  0  0  0
 20 21  1  0  0  0  0
 21 25  1  0  0  0  0
 22 21  2  0  0  0  0
 23 18  1  0  0  0  0
 26 29  1  0  0  0  0
 27 26  1  0  0  0  0
 28 26  1  0  0  0  0
 29 32  1  0  0  0  0
 29 31  1  0  0  0  0
 29 30  1  0  0  0  0
 32 33  1  0  0  0  0
 33 35  2  0  0  0  0
 33 34  1  0  0  0  0
 35 36  1  0  0  0  0
 37 35  1  0  0  0  0
 38 37  2  0  0  0  0
 39 38  1  0  0  0  0
 39 32  2  0  0  0  0
M  END
>  <minimizedAffinity>
-5.64018774

$$$$

 OpenBabel03242519553D

 39 41  0  0  1  0  0  0  0  0999 V2000
   37.9190   30.1680   41.0170 C   0  0  2  0  0  0  0  0  0  0  0  0
   38.6240   29.1970   40.1520 C   0  0  0  0  0  0  0  0  0  0  0  0
   37.6890   28.4200   39.2850 C   0  0  0  0  0  0  0  0  0  0  0  0
   36.5950   27.7210   40.0510 C   0  0  0  0  0  0  0  0  0  0  0  0
   36.0850   28.4940   41.2290 C   0  0  2  0  0  0  0  0  0  0  0  0
   36.4450   29.9630   41.1220 C   0  0  0  0  0  0  0  0  0  0  0  0
   38.3500   30.0190   42.0590 H   0  0  0  0  0  0  0  0  0  0  0  0
   39.3220   29.7420   39.5050 H   0  0  0  0  0  0  0  0  0  0  0  0
   39.2320   28.4710   40.7210 H   0  0  0  0  0  0  0  0  0  0  0  0
   37.2860   29.0340   38.4470 H   0  0  0  0  0  0  0  0  0  0  0  0
   38.3070   27.6060   38.8080 H   0  0  0  0  0  0  0  0  0  0  0  0
   36.8750   26.6640   40.3050 H   0  0  0  0  0  0  0  0  0  0  0  0
   35.7470   27.6120   39.3190 H   0  0  0  0  0  0  0  0  0  0  0  0
   34.9580   28.4740   41.2510 H   0  0  0  0  0  0  0  0  0  0  0  0
   35.8010   30.3720   40.3670 H   0  0  0  0  0  0  0  0  0  0  0  0
   36.1290   30.4330   42.0970 H   0  0  0  0  0  0  0  0  0  0  0  0
   38.1950   31.5740   40.6770 C   0  0  0  0  0  0  0  0  0  0  0  0
   37.1900   32.1750   39.9240 C   0  0  0  0  0  0  0  0  0  0  0  0
   37.3120   33.5140   39.5460 C   0  0  0  0  0  0  0  0  0  0  0  0
   38.4640   34.1610   39.9600 N   0  0  0  0  0  0  0  0  0  0  0  0
   39.4130   33.5400   40.6850 C   0  0  0  0  0  0  0  0  0  0  0  0
   39.2680   32.2610   41.0340 N   0  0  0  0  0  0  0  0  0  0  0  0
   36.2450   31.8810   39.4920 H   0  0  0  0  0  0  0  0  0  0  0  0
   36.6770   34.1620   38.9820 H   0  0  0  0  0  0  0  0  0  0  0  0
   40.2980   34.0950   40.9830 H   0  0  0  0  0  0  0  0  0  0  0  0
   36.5520   27.8430   42.4720 C   0  0  0  0  0  0  0  0  0  0  0  0
   37.3090   28.5020   42.9400 H   0  0  0  0  0  0  0  0  0  0  0  0
   35.6970   27.8200   43.1970 H   0  0  0  0  0  0  0  0  0  0  0  0
   37.0400   26.4370   42.3230 C   0  0  0  0  0  0  0  0  0  0  0  0
   36.9320   26.1200   41.2780 H   0  0  0  0  0  0  0  0  0  0  0  0
   36.4530   25.7350   42.9480 H   0  0  0  0  0  0  0  0  0  0  0  0
   38.4690   26.3090   42.7810 C   0  0  0  0  0  0  0  0  0  0  0  0
   39.2610   27.2850   43.3210 C   0  0  0  0  0  0  0  0  0  0  0  0
   38.7940   28.2410   43.4230 H   0  0  0  0  0  0  0  0  0  0  0  0
   40.5510   26.9640   43.6800 C   0  0  0  0  0  0  0  0  0  0  0  0
   41.1680   27.7370   44.1050 H   0  0  0  0  0  0  0  0  0  0  0  0
   41.0760   25.6920   43.5130 C   0  0  0  0  0  3  0  0  0  0  0  0
   40.2250   24.7390   42.9570 C   0  0  0  0  0  3  0  0  0  0  0  0
   38.9710   25.0700   42.6150 N   0  0  0  0  0  0  0  0  0  0  0  0
  1  6  1  0  0  0  0
  1  7  1  1  0  0  0
  2  9  1  0  0  0  0
  2  1  1  0  0  0  0
  3  4  1  0  0  0  0
  3  2  1  0  0  0  0
  4 12  1  0  0  0  0
  4  5  1  0  0  0  0
  5 14  1  6  0  0  0
  5 26  1  0  0  0  0
  6  5  1  0  0  0  0
  6 16  1  0  0  0  0
  8  2  1  0  0  0  0
 10  3  1  0  0  0  0
 11  3  1  0  0  0  0
 13  4  1  0  0  0  0
 15  6  1  0  0  0  0
 17  1  1  0  0  0  0
 17 22  1  0  0  0  0
 18 17  2  0  0  0  0
 19 18  1  0  0  0  0
 19 20  2  0  0  0  0
 20 21  1  0  0  0  0
 21 25  1  0  0  0  0
 21 22  2  0  0  0  0
 23 18  1  0  0  0  0
 24 19  1  0  0  0  0
 26 27  1  0  0  0  0
 26 28  1  0  0  0  0
 29 26  1  0  0  0  0
 29 32  1  0  0  0  0
 29 31  1  0  0  0  0
 30 29  1  0  0  0  0
 32 33  1  0  0  0  0
 33 34  1  0  0  0  0
 33 35  2  0  0  0  0
 35 36  1  0  0  0  0
 37 35  1  0  0  0  0
 38 37  2  0  0  0  0
 39 32  2  0  0  0  0
 39 38  1  0  0  0  0
M  END
>  <minimizedAffinity>
-5.49277973

$$$$

 OpenBabel03242519553D

 39 41  0  0  1  0  0  0  0  0999 V2000
   39.3080   31.3830   38.9530 C   0  0  2  0  0  0  0  0  0  0  0  0
   39.0530   29.9790   38.5620 C   0  0  0  0  0  0  0  0  0  0  0  0
   37.8140   29.8290   37.7410 C   0  0  0  0  0  0  0  0  0  0  0  0
   36.5840   30.4080   38.3930 C   0  0  0  0  0  0  0  0  0  0  0  0
   36.8410   31.6610   39.1740 C   0  0  2  0  0  0  0  0  0  0  0  0
   38.1510   32.3070   38.7680 C   0  0  0  0  0  0  0  0  0  0  0  0
   39.5340   31.3530   40.0670 H   0  0  0  0  0  0  0  0  0  0  0  0
   39.9030   29.6170   37.9720 H   0  0  0  0  0  0  0  0  0  0  0  0
   38.9640   29.2970   39.4270 H   0  0  0  0  0  0  0  0  0  0  0  0
   37.9530   30.2040   36.7010 H   0  0  0  0  0  0  0  0  0  0  0  0
   37.6290   28.7200   37.6520 H   0  0  0  0  0  0  0  0  0  0  0  0
   36.0180   29.6330   38.9750 H   0  0  0  0  0  0  0  0  0  0  0  0
   35.8970   30.6690   37.5410 H   0  0  0  0  0  0  0  0  0  0  0  0
   36.0540   32.4340   38.9420 H   0  0  0  0  0  0  0  0  0  0  0  0
   37.9780   32.7470   37.8040 H   0  0  0  0  0  0  0  0  0  0  0  0
   38.3110   33.1620   39.4830 H   0  0  0  0  0  0  0  0  0  0  0  0
   40.5050   31.9640   38.3250 C   0  0  0  0  0  0  0  0  0  0  0  0
   40.7610   33.2770   38.7150 C   0  0  0  0  0  0  0  0  0  0  0  0
   41.8770   33.9470   38.2100 C   0  0  0  0  0  0  0  0  0  0  0  0
   42.6700   33.2310   37.3290 N   0  0  0  0  0  0  0  0  0  0  0  0
   42.3850   31.9640   36.9770 C   0  0  0  0  0  0  0  0  0  0  0  0
   41.3120   31.3480   37.4760 N   0  0  0  0  0  0  0  0  0  0  0  0
   40.2980   34.0140   39.3550 H   0  0  0  0  0  0  0  0  0  0  0  0
   42.2570   34.9330   38.3710 H   0  0  0  0  0  0  0  0  0  0  0  0
   43.0400   31.4490   36.2810 H   0  0  0  0  0  0  0  0  0  0  0  0
   36.7350   31.3590   40.6180 C   0  0  0  0  0  0  0  0  0  0  0  0
   37.7430   31.4630   41.0650 H   0  0  0  0  0  0  0  0  0  0  0  0
   36.1200   32.1630   41.0990 H   0  0  0  0  0  0  0  0  0  0  0  0
   36.0960   30.0510   40.9610 C   0  0  0  0  0  0  0  0  0  0  0  0
   35.8420   29.5140   40.0390 H   0  0  0  0  0  0  0  0  0  0  0  0
   35.1570   30.1950   41.5330 H   0  0  0  0  0  0  0  0  0  0  0  0
   36.9950   29.2220   41.8390 C   0  0  0  0  0  0  0  0  0  0  0  0
   38.2550   29.5360   42.2720 C   0  0  0  0  0  0  0  0  0  0  0  0
   38.6250   30.4820   41.9390 H   0  0  0  0  0  0  0  0  0  0  0  0
   38.9190   28.6360   43.0760 C   0  0  0  0  0  0  0  0  0  0  0  0
   39.9090   28.8900   43.4130 H   0  0  0  0  0  0  0  0  0  0  0  0
   38.3600   27.4280   43.4610 C   0  0  0  0  0  3  0  0  0  0  0  0
   37.0760   27.1620   42.9900 C   0  0  0  0  0  3  0  0  0  0  0  0
   36.4450   28.0500   42.2090 N   0  0  0  0  0  0  0  0  0  0  0  0
  1  7  1  1  0  0  0
  2  1  1  0  0  0  0
  2  9  1  0  0  0  0
  3  4  1  0  0  0  0
  3  2  1  0  0  0  0
  4 12  1  0  0  0  0
  4  5  1  0  0  0  0
  5 14  1  6  0  0  0
  5 26  1  0  0  0  0
  6  1  1  0  0  0  0
  6  5  1  0  0  0  0
  6 16  1  0  0  0  0
  8  2  1  0  0  0  0
 10  3  1  0  0  0  0
 11  3  1  0  0  0  0
 13  4  1  0  0  0  0
 15  6  1  0  0  0  0
 17 18  1  0  0  0  0
 17  1  1  0  0  0  0
 18 23  1  0  0  0  0
 19 24  1  0  0  0  0
 19 18  2  0  0  0  0
 20 19  1  0  0  0  0
 21 20  2  0  0  0  0
 21 22  1  0  0  0  0
 22 17  2  0  0  0  0
 25 21  1  0  0  0  0
 26 29  1  0  0  0  0
 26 27  1  0  0  0  0
 26 28  1  0  0  0  0
 29 31  1  0  0  0  0
 29 32  1  0  0  0  0
 30 29  1  0  0  0  0
 32 39  2  0  0  0  0
 32 33  1  0  0  0  0
 33 35  2  0  0  0  0
 34 33  1  0  0  0  0
 35 36  1  0  0  0  0
 35 37  1  0  0  0  0
 38 37  2  0  0  0  0
 39 38  1  0  0  0  0
M  END
>  <minimizedAffinity>
-5.22168159

$$$$

 OpenBabel03242519553D

 39 41  0  0  1  0  0  0  0  0999 V2000
   39.3300   27.5320   42.0300 C   0  0  2  0  0  0  0  0  0  0  0  0
   38.8300   28.6550   42.8520 C   0  0  0  0  0  0  0  0  0  0  0  0
   37.6460   28.2750   43.6800 C   0  0  0  0  0  0  0  0  0  0  0  0
   36.5130   27.6840   42.8770 C   0  0  0  0  0  0  0  0  0  0  0  0
   36.9590   26.8240   41.7340 C   0  0  2  0  0  0  0  0  0  0  0  0
   38.3970   26.3750   41.9100 C   0  0  0  0  0  0  0  0  0  0  0  0
   39.4690   27.9570   40.9840 H   0  0  0  0  0  0  0  0  0  0  0  0
   39.6290   28.9840   43.5260 H   0  0  0  0  0  0  0  0  0  0  0  0
   38.5470   29.5400   42.2520 H   0  0  0  0  0  0  0  0  0  0  0  0
   37.9270   27.6300   44.5430 H   0  0  0  0  0  0  0  0  0  0  0  0
   37.2500   29.2340   44.1210 H   0  0  0  0  0  0  0  0  0  0  0  0
   35.7650   28.4660   42.5770 H   0  0  0  0  0  0  0  0  0  0  0  0
   35.9520   27.0310   43.6010 H   0  0  0  0  0  0  0  0  0  0  0  0
   36.3590   25.8700   41.7070 H   0  0  0  0  0  0  0  0  0  0  0  0
   38.3820   25.6280   42.6810 H   0  0  0  0  0  0  0  0  0  0  0  0
   38.6740   25.8410   40.9560 H   0  0  0  0  0  0  0  0  0  0  0  0
   40.6600   27.0490   42.4350 C   0  0  0  0  0  0  0  0  0  0  0  0
   41.3750   27.9600   43.2090 C   0  0  0  0  0  0  0  0  0  0  0  0
   42.6470   27.6240   43.6790 C   0  0  0  0  0  0  0  0  0  0  0  0
   43.1160   26.3710   43.3250 N   0  0  0  0  0  0  0  0  0  0  0  0
   42.3920   25.5210   42.5730 C   0  0  0  0  0  0  0  0  0  0  0  0
   41.1790   25.8680   42.1390 N   0  0  0  0  0  0  0  0  0  0  0  0
   41.2270   28.9600   43.5880 H   0  0  0  0  0  0  0  0  0  0  0  0
   43.3560   28.1570   44.2760 H   0  0  0  0  0  0  0  0  0  0  0  0
   42.8090   24.5500   42.3240 H   0  0  0  0  0  0  0  0  0  0  0  0
   36.6960   27.5350   40.4640 C   0  0  0  0  0  0  0  0  0  0  0  0
   37.6660   27.8800   40.0570 H   0  0  0  0  0  0  0  0  0  0  0  0
   36.3160   26.7890   39.7190 H   0  0  0  0  0  0  0  0  0  0  0  0
   35.6880   28.6380   40.5370 C   0  0  0  0  0  0  0  0  0  0  0  0
   35.3010   28.7150   41.5600 H   0  0  0  0  0  0  0  0  0  0  0  0
   34.8260   28.4450   39.8670 H   0  0  0  0  0  0  0  0  0  0  0  0
   36.2820   29.9450   40.0850 C   0  0  0  0  0  0  0  0  0  0  0  0
   36.5730   31.0380   40.8550 C   0  0  0  0  0  0  0  0  0  0  0  0
   36.3470   30.9320   41.8950 H   0  0  0  0  0  0  0  0  0  0  0  0
   37.1180   32.1480   40.2470 C   0  0  0  0  0  0  0  0  0  0  0  0
   37.3450   33.0030   40.8600 H   0  0  0  0  0  0  0  0  0  0  0  0
   37.3800   32.1980   38.8870 C   0  0  0  0  0  3  0  0  0  0  0  0
   37.0620   31.0570   38.1530 C   0  0  0  0  0  3  0  0  0  0  0  0
   36.5330   29.9860   38.7620 N   0  0  0  0  0  0  0  0  0  0  0  0
  1  7  1  6  0  0  0
  1 17  1  0  0  0  0
  1  2  1  0  0  0  0
  2  8  1  0  0  0  0
  2  3  1  0  0  0  0
  3 11  1  0  0  0  0
  3 10  1  0  0  0  0
  4 13  1  0  0  0  0
  4  3  1  0  0  0  0
  5 14  1  1  0  0  0
  5  6  1  0  0  0  0
  5  4  1  0  0  0  0
  6  1  1  0  0  0  0
  6 15  1  0  0  0  0
  9  2  1  0  0  0  0
 12  4  1  0  0  0  0
 16  6  1  0  0  0  0
 17 18  1  0  0  0  0
 18 23  1  0  0  0  0
 18 19  2  0  0  0  0
 19 24  1  0  0  0  0
 20 19  1  0  0  0  0
 21 20  2  0  0  0  0
 22 17  2  0  0  0  0
 22 21  1  0  0  0  0
 25 21  1  0  0  0  0
 26 29  1  0  0  0  0
 26  5  1  0  0  0  0
 27 26  1  0  0  0  0
 28 26  1  0  0  0  0
 29 30  1  0  0  0  0
 31 29  1  0  0  0  0
 32 29  1  0  0  0  0
 32 33  1  0  0  0  0
 33 34  1  0  0  0  0
 35 33  2  0  0  0  0
 35 36  1  0  0  0  0
 37 35  1  0  0  0  0
 38 39  1  0  0  0  0
 38 37  2  0  0  0  0
 39 32  2  0  0  0  0
M  END
>  <minimizedAffinity>
-5.206007

$$$$

 OpenBabel03242519553D

 39 41  0  0  1  0  0  0  0  0999 V2000
   35.9980   29.8640   39.7780 C   0  0  2  0  0  0  0  0  0  0  0  0
   36.0400   28.5550   40.4660 C   0  0  0  0  0  0  0  0  0  0  0  0
   36.4060   27.4360   39.5460 C   0  0  0  0  0  0  0  0  0  0  0  0
   35.5230   27.3440   38.3280 C   0  0  0  0  0  0  0  0  0  0  0  0
   35.0890   28.6720   37.7860 C   0  0  2  0  0  0  0  0  0  0  0  0
   35.9820   29.7900   38.2880 C   0  0  0  0  0  0  0  0  0  0  0  0
   35.0190   30.3450   40.0970 H   0  0  0  0  0  0  0  0  0  0  0  0
   36.7880   28.6010   41.2670 H   0  0  0  0  0  0  0  0  0  0  0  0
   35.0830   28.2890   40.9510 H   0  0  0  0  0  0  0  0  0  0  0  0
   37.4870   27.4490   39.2790 H   0  0  0  0  0  0  0  0  0  0  0  0
   36.2380   26.4850   40.1280 H   0  0  0  0  0  0  0  0  0  0  0  0
   34.6690   26.6320   38.4860 H   0  0  0  0  0  0  0  0  0  0  0  0
   36.1570   26.8430   37.5440 H   0  0  0  0  0  0  0  0  0  0  0  0
   35.2030   28.6930   36.6650 H   0  0  0  0  0  0  0  0  0  0  0  0
   36.9090   29.6910   37.7550 H   0  0  0  0  0  0  0  0  0  0  0  0
   35.5110   30.7490   37.9280 H   0  0  0  0  0  0  0  0  0  0  0  0
   37.0520   30.7950   40.2110 C   0  0  0  0  0  0  0  0  0  0  0  0
   36.9330   32.0700   39.6630 C   0  0  0  0  0  0  0  0  0  0  0  0
   37.8570   33.0610   40.0030 C   0  0  0  0  0  0  0  0  0  0  0  0
   38.8550   32.6860   40.8870 N   0  0  0  0  0  0  0  0  0  0  0  0
   38.9340   31.4410   41.3910 C   0  0  0  0  0  0  0  0  0  0  0  0
   38.0370   30.5150   41.0500 N   0  0  0  0  0  0  0  0  0  0  0  0
   36.2730   32.5730   38.9730 H   0  0  0  0  0  0  0  0  0  0  0  0
   37.9530   34.0840   39.7100 H   0  0  0  0  0  0  0  0  0  0  0  0
   39.7390   31.2000   42.0800 H   0  0  0  0  0  0  0  0  0  0  0  0
   33.6520   28.8660   38.0770 C   0  0  0  0  0  0  0  0  0  0  0  0
   33.3550   28.1250   38.8440 H   0  0  0  0  0  0  0  0  0  0  0  0
   33.5280   29.8640   38.5730 H   0  0  0  0  0  0  0  0  0  0  0  0
   32.7430   28.8480   36.8900 C   0  0  0  0  0  0  0  0  0  0  0  0
   32.3110   27.8460   36.7730 H   0  0  0  0  0  0  0  0  0  0  0  0
   33.2900   29.0870   35.9550 H   0  0  0  0  0  0  0  0  0  0  0  0
   31.6640   29.8900   37.0180 C   0  0  0  0  0  0  0  0  0  0  0  0
   30.8570   30.1230   38.0980 C   0  0  0  0  0  0  0  0  0  0  0  0
   31.0270   29.4840   38.9380 H   0  0  0  0  0  0  0  0  0  0  0  0
   29.9220   31.1320   38.0170 C   0  0  0  0  0  0  0  0  0  0  0  0
   29.2920   31.3100   38.8700 H   0  0  0  0  0  0  0  0  0  0  0  0
   29.7690   31.9160   36.8840 C   0  0  0  0  0  3  0  0  0  0  0  0
   30.6170   31.6320   35.8160 C   0  0  0  0  0  3  0  0  0  0  0  0
   31.5220   30.6470   35.9130 N   0  0  0  0  0  0  0  0  0  0  0  0
  1  7  1  1  0  0  0
  1 17  1  0  0  0  0
  1  2  1  0  0  0  0
  2  9  1  0  0  0  0
  2  8  1  0  0  0  0
  3 11  1  0  0  0  0
  3  2  1  0  0  0  0
  4 12  1  0  0  0  0
  4  3  1  0  0  0  0
  5 14  1  6  0  0  0
  5 26  1  0  0  0  0
  5  6  1  0  0  0  0
  5  4  1  0  0  0  0
  6  1  1  0  0  0  0
 10  3  1  0  0  0  0
 13  4  1  0  0  0  0
 15  6  1  0  0  0  0
 16  6  1  0  0  0  0
 17 22  1  0  0  0  0
 18 19  1  0  0  0  0
 18 17  2  0  0  0  0
 19 20  2  0  0  0  0
 20 21  1  0  0  0  0
 21 25  1  0  0  0  0
 22 21  2  0  0  0  0
 23 18  1  0  0  0  0
 24 19  1  0  0  0  0
 26 28  1  0  0  0  0
 26 27  1  0  0  0  0
 29 32  1  0  0  0  0
 29 26  1  0  0  0  0
 30 29  1  0  0  0  0
 31 29  1  0  0  0  0
 32 33  1  0  0  0  0
 33 34  1  0  0  0  0
 35 33  2  0  0  0  0
 35 36  1  0  0  0  0
 37 35  1  0  0  0  0
 38 39  1  0  0  0  0
 38 37  2  0  0  0  0
 39 32  2  0  0  0  0
M  END
>  <minimizedAffinity>
-5.19578838

$$$$

 OpenBabel03242519553D

 39 41  0  0  1  0  0  0  0  0999 V2000
   38.1410   29.0700   40.9540 C   0  0  2  0  0  0  0  0  0  0  0  0
   37.1240   27.9970   40.9810 C   0  0  0  0  0  0  0  0  0  0  0  0
   36.4060   27.9220   42.2880 C   0  0  0  0  0  0  0  0  0  0  0  0
   37.3260   27.7830   43.4750 C   0  0  0  0  0  0  0  0  0  0  0  0
   38.6070   28.5490   43.3460 C   0  0  2  0  0  0  0  0  0  0  0  0
   38.5000   29.6310   42.2890 C   0  0  0  0  0  0  0  0  0  0  0  0
   39.0810   28.5890   40.5320 H   0  0  0  0  0  0  0  0  0  0  0  0
   36.3860   28.1890   40.1930 H   0  0  0  0  0  0  0  0  0  0  0  0
   37.5440   26.9950   40.7730 H   0  0  0  0  0  0  0  0  0  0  0  0
   35.6800   28.7570   42.4170 H   0  0  0  0  0  0  0  0  0  0  0  0
   35.7930   26.9760   42.2550 H   0  0  0  0  0  0  0  0  0  0  0  0
   37.4810   26.7080   43.7580 H   0  0  0  0  0  0  0  0  0  0  0  0
   36.7530   28.2150   44.3420 H   0  0  0  0  0  0  0  0  0  0  0  0
   38.8300   29.1020   44.3030 H   0  0  0  0  0  0  0  0  0  0  0  0
   37.8900   30.4040   42.7170 H   0  0  0  0  0  0  0  0  0  0  0  0
   39.5340   30.0660   42.1830 H   0  0  0  0  0  0  0  0  0  0  0  0
   37.8160   30.1710   40.0310 C   0  0  0  0  0  0  0  0  0  0  0  0
   37.5940   31.3890   40.6690 C   0  0  0  0  0  0  0  0  0  0  0  0
   37.2940   32.5240   39.9130 C   0  0  0  0  0  0  0  0  0  0  0  0
   37.2360   32.3440   38.5420 N   0  0  0  0  0  0  0  0  0  0  0  0
   37.4550   31.1470   37.9660 C   0  0  0  0  0  0  0  0  0  0  0  0
   37.7420   30.0800   38.7130 N   0  0  0  0  0  0  0  0  0  0  0  0
   37.5750   31.7550   41.6850 H   0  0  0  0  0  0  0  0  0  0  0  0
   37.0930   33.5370   40.1870 H   0  0  0  0  0  0  0  0  0  0  0  0
   37.3960   31.0630   36.8850 H   0  0  0  0  0  0  0  0  0  0  0  0
   39.7190   27.5970   43.1290 C   0  0  0  0  0  0  0  0  0  0  0  0
   40.0170   27.6550   42.0650 H   0  0  0  0  0  0  0  0  0  0  0  0
   40.6090   27.9640   43.7020 H   0  0  0  0  0  0  0  0  0  0  0  0
   39.4610   26.1910   43.5700 C   0  0  0  0  0  0  0  0  0  0  0  0
   38.6190   26.1740   44.2720 H   0  0  0  0  0  0  0  0  0  0  0  0
   40.3400   25.7610   44.0920 H   0  0  0  0  0  0  0  0  0  0  0  0
   39.1990   25.2940   42.3900 C   0  0  0  0  0  0  0  0  0  0  0  0
   38.2180   24.3470   42.2650 C   0  0  0  0  0  0  0  0  0  0  0  0
   37.5740   24.2490   43.1130 H   0  0  0  0  0  0  0  0  0  0  0  0
   38.1440   23.6240   41.0960 C   0  0  0  0  0  0  0  0  0  0  0  0
   37.3700   22.8820   41.0050 H   0  0  0  0  0  0  0  0  0  0  0  0
   39.0250   23.8180   40.0430 C   0  0  0  0  0  3  0  0  0  0  0  0
   40.0020   24.7940   40.2260 C   0  0  0  0  0  3  0  0  0  0  0  0
   40.0580   25.4890   41.3720 N   0  0  0  0  0  0  0  0  0  0  0  0
  1  7  1  6  0  0  0
  1  2  1  0  0  0  0
  1  6  1  0  0  0  0
  2  3  1  0  0  0  0
  3 10  1  0  0  0  0
  3  4  1  0  0  0  0
  4 12  1  0  0  0  0
  4 13  1  0  0  0  0
  5  4  1  0  0  0  0
  5 14  1  1  0  0  0
  6 15  1  0  0  0  0
  6  5  1  0  0  0  0
  8  2  1  0  0  0  0
  9  2  1  0  0  0  0
 11  3  1  0  0  0  0
 16  6  1  0  0  0  0
 17 18  1  0  0  0  0
 17  1  1  0  0  0  0
 18 23  1  0  0  0  0
 19 24  1  0  0  0  0
 19 18  2  0  0  0  0
 20 19  1  0  0  0  0
 21 20  2  0  0  0  0
 21 22  1  0  0  0  0
 22 17  2  0  0  0  0
 25 21  1  0  0  0  0
 26  5  1  0  0  0  0
 26 29  1  0  0  0  0
 26 28  1  0  0  0  0
 27 26  1  0  0  0  0
 29 31  1  0  0  0  0
 29 30  1  0  0  0  0
 32 29  1  0  0  0  0
 33 32  1  0  0  0  0
 33 34  1  0  0  0  0
 35 33  2  0  0  0  0
 36 35  1  0  0  0  0
 37 38  2  0  0  0  0
 37 35  1  0  0  0  0
 38 39  1  0  0  0  0
 39 32  2  0  0  0  0
M  END
>  <minimizedAffinity>
-5.17116404

$$$$

 OpenBabel03242519553D

 39 41  0  0  1  0  0  0  0  0999 V2000
   38.1190   30.2060   38.4290 C   0  0  2  0  0  0  0  0  0  0  0  0
   38.2860   29.2990   37.2730 C   0  0  0  0  0  0  0  0  0  0  0  0
   37.1420   29.3750   36.3160 C   0  0  0  0  0  0  0  0  0  0  0  0
   35.7990   29.1400   36.9600 C   0  0  0  0  0  0  0  0  0  0  0  0
   35.6800   29.7000   38.3440 C   0  0  2  0  0  0  0  0  0  0  0  0
   36.7420   30.7510   38.6080 C   0  0  0  0  0  0  0  0  0  0  0  0
   38.3490   29.5760   39.3470 H   0  0  0  0  0  0  0  0  0  0  0  0
   39.2020   29.5730   36.7370 H   0  0  0  0  0  0  0  0  0  0  0  0
   38.4050   28.2390   37.5670 H   0  0  0  0  0  0  0  0  0  0  0  0
   37.1590   30.3130   35.7160 H   0  0  0  0  0  0  0  0  0  0  0  0
   37.2900   28.5310   35.5820 H   0  0  0  0  0  0  0  0  0  0  0  0
   35.4880   28.0630   36.8910 H   0  0  0  0  0  0  0  0  0  0  0  0
   35.0610   29.6810   36.3050 H   0  0  0  0  0  0  0  0  0  0  0  0
   34.7000   30.2450   38.4620 H   0  0  0  0  0  0  0  0  0  0  0  0
   36.4430   31.6200   38.0530 H   0  0  0  0  0  0  0  0  0  0  0  0
   36.6470   31.0220   39.6970 H   0  0  0  0  0  0  0  0  0  0  0  0
   39.0910   31.3120   38.4590 C   0  0  0  0  0  0  0  0  0  0  0  0
   38.9130   32.1850   39.5300 C   0  0  0  0  0  0  0  0  0  0  0  0
   39.7770   33.2700   39.6920 C   0  0  0  0  0  0  0  0  0  0  0  0
   40.7750   33.4010   38.7410 N   0  0  0  0  0  0  0  0  0  0  0  0
   40.9100   32.5340   37.7190 C   0  0  0  0  0  0  0  0  0  0  0  0
   40.0710   31.5050   37.5910 N   0  0  0  0  0  0  0  0  0  0  0  0
   38.2270   32.2880   40.3570 H   0  0  0  0  0  0  0  0  0  0  0  0
   39.8260   34.0460   40.4240 H   0  0  0  0  0  0  0  0  0  0  0  0
   41.7100   32.6850   37.0020 H   0  0  0  0  0  0  0  0  0  0  0  0
   35.6740   28.5860   39.3170 C   0  0  0  0  0  0  0  0  0  0  0  0
   34.9720   27.8140   38.9490 H   0  0  0  0  0  0  0  0  0  0  0  0
   36.6820   28.0970   39.2940 H   0  0  0  0  0  0  0  0  0  0  0  0
   35.4030   28.9680   40.7370 C   0  0  0  0  0  0  0  0  0  0  0  0
   34.4580   28.5180   41.0650 H   0  0  0  0  0  0  0  0  0  0  0  0
   35.3060   30.0670   40.8510 H   0  0  0  0  0  0  0  0  0  0  0  0
   36.5390   28.5560   41.6350 C   0  0  0  0  0  0  0  0  0  0  0  0
   36.8600   27.2900   42.0430 C   0  0  0  0  0  0  0  0  0  0  0  0
   36.2210   26.5180   41.6690 H   0  0  0  0  0  0  0  0  0  0  0  0
   37.9460   27.1190   42.8720 C   0  0  0  0  0  0  0  0  0  0  0  0
   38.1930   26.1200   43.1870 H   0  0  0  0  0  0  0  0  0  0  0  0
   38.7240   28.1810   43.3090 C   0  0  0  0  0  3  0  0  0  0  0  0
   38.3490   29.4460   42.8630 C   0  0  0  0  0  3  0  0  0  0  0  0
   37.2880   29.5930   42.0550 N   0  0  0  0  0  0  0  0  0  0  0  0
  1 17  1  0  0  0  0
  1  6  1  0  0  0  0
  1  7  1  1  0  0  0
  2  9  1  0  0  0  0
  2  1  1  0  0  0  0
  3  4  1  0  0  0  0
  3  2  1  0  0  0  0
  4  5  1  0  0  0  0
  5 14  1  1  0  0  0
  5  6  1  0  0  0  0
  5 26  1  0  0  0  0
  6 16  1  0  0  0  0
  8  2  1  0  0  0  0
 10  3  1  0  0  0  0
 11  3  1  0  0  0  0
 12  4  1  0  0  0  0
 13  4  1  0  0  0  0
 15  6  1  0  0  0  0
 17 18  1  0  0  0  0
 18 19  2  0  0  0  0
 18 23  1  0  0  0  0
 19 24  1  0  0  0  0
 20 19  1  0  0  0  0
 21 20  2  0  0  0  0
 22 21  1  0  0  0  0
 22 17  2  0  0  0  0
 25 21  1  0  0  0  0
 26 29  1  0  0  0  0
 27 26  1  0  0  0  0
 28 26  1  0  0  0  0
 29 31  1  0  0  0  0
 29 30  1  0  0  0  0
 29 32  1  0  0  0  0
 32 33  2  0  0  0  0
 32 39  1  0  0  0  0
 33 35  1  0  0  0  0
 34 33  1  0  0  0  0
 35 36  1  0  0  0  0
 35 37  2  0  0  0  0
 38 37  1  0  0  0  0
 39 38  2  0  0  0  0
M  END
>  <minimizedAffinity>
-5.1452837

$$$$

 OpenBabel03242519553D

 39 41  0  0  1  0  0  0  0  0999 V2000
   37.7280   26.9620   41.2860 C   0  0  2  0  0  0  0  0  0  0  0  0
   37.9140   26.5370   42.6910 C   0  0  0  0  0  0  0  0  0  0  0  0
   37.1320   27.3740   43.6500 C   0  0  0  0  0  0  0  0  0  0  0  0
   37.4050   28.8510   43.5240 C   0  0  0  0  0  0  0  0  0  0  0  0
   37.6350   29.3110   42.1160 C   0  0  2  0  0  0  0  0  0  0  0  0
   37.1030   28.3060   41.1130 C   0  0  0  0  0  0  0  0  0  0  0  0
   38.7740   27.0240   40.8450 H   0  0  0  0  0  0  0  0  0  0  0  0
   37.5840   25.4970   42.7920 H   0  0  0  0  0  0  0  0  0  0  0  0
   38.9720   26.5590   43.0140 H   0  0  0  0  0  0  0  0  0  0  0  0
   36.0430   27.1440   43.6150 H   0  0  0  0  0  0  0  0  0  0  0  0
   37.4820   27.0780   44.6810 H   0  0  0  0  0  0  0  0  0  0  0  0
   38.2050   29.1890   44.2350 H   0  0  0  0  0  0  0  0  0  0  0  0
   36.4710   29.3540   43.9010 H   0  0  0  0  0  0  0  0  0  0  0  0
   37.0550   30.2560   41.9140 H   0  0  0  0  0  0  0  0  0  0  0  0
   36.0330   28.3960   41.1420 H   0  0  0  0  0  0  0  0  0  0  0  0
   37.4250   28.6770   40.0990 H   0  0  0  0  0  0  0  0  0  0  0  0
   37.0110   25.9770   40.4600 C   0  0  0  0  0  0  0  0  0  0  0  0
   36.9060   24.7210   41.0510 C   0  0  0  0  0  0  0  0  0  0  0  0
   36.2330   23.6940   40.3860 C   0  0  0  0  0  0  0  0  0  0  0  0
   35.7070   24.0140   39.1460 N   0  0  0  0  0  0  0  0  0  0  0  0
   35.8340   25.2430   38.6100 C   0  0  0  0  0  0  0  0  0  0  0  0
   36.4800   26.2050   39.2690 N   0  0  0  0  0  0  0  0  0  0  0  0
   37.2330   24.2510   41.9670 H   0  0  0  0  0  0  0  0  0  0  0  0
   36.0360   22.6770   40.6480 H   0  0  0  0  0  0  0  0  0  0  0  0
   35.4020   25.4390   37.6330 H   0  0  0  0  0  0  0  0  0  0  0  0
   39.0670   29.6390   41.9440 C   0  0  0  0  0  0  0  0  0  0  0  0
   39.3510   30.3570   42.7370 H   0  0  0  0  0  0  0  0  0  0  0  0
   39.6650   28.7160   42.1600 H   0  0  0  0  0  0  0  0  0  0  0  0
   39.4630   30.1130   40.5820 C   0  0  0  0  0  0  0  0  0  0  0  0
   39.2320   29.3380   39.8420 H   0  0  0  0  0  0  0  0  0  0  0  0
   40.5520   30.3170   40.5240 H   0  0  0  0  0  0  0  0  0  0  0  0
   38.7780   31.4090   40.2390 C   0  0  0  0  0  0  0  0  0  0  0  0
   37.7350   31.5960   39.3740 C   0  0  0  0  0  0  0  0  0  0  0  0
   37.3780   30.7080   38.8970 H   0  0  0  0  0  0  0  0  0  0  0  0
   37.2460   32.8710   39.1960 C   0  0  0  0  0  0  0  0  0  0  0  0
   36.4250   33.0100   38.5150 H   0  0  0  0  0  0  0  0  0  0  0  0
   37.7720   33.9700   39.8590 C   0  0  0  0  0  3  0  0  0  0  0  0
   38.8320   33.7200   40.7270 C   0  0  0  0  0  3  0  0  0  0  0  0
   39.2950   32.4710   40.8870 N   0  0  0  0  0  0  0  0  0  0  0  0
  1  7  1  6  0  0  0
  1  2  1  0  0  0  0
  2  8  1  0  0  0  0
  2  9  1  0  0  0  0
  2  3  1  0  0  0  0
  3 11  1  0  0  0  0
  4  3  1  0  0  0  0
  4 13  1  0  0  0  0
  4 12  1  0  0  0  0
  5 14  1  6  0  0  0
  5  4  1  0  0  0  0
  6 15  1  0  0  0  0
  6  1  1  0  0  0  0
  6  5  1  0  0  0  0
 10  3  1  0  0  0  0
 16  6  1  0  0  0  0
 17 18  1  0  0  0  0
 17  1  1  0  0  0  0
 18 23  1  0  0  0  0
 19 24  1  0  0  0  0
 19 18  2  0  0  0  0
 20 19  1  0  0  0  0
 21 20  2  0  0  0  0
 21 22  1  0  0  0  0
 22 17  2  0  0  0  0
 25 21  1  0  0  0  0
 26  5  1  0  0  0  0
 26 28  1  0  0  0  0
 26 27  1  0  0  0  0
 29 26  1  0  0  0  0
 30 29  1  0  0  0  0
 31 29  1  0  0  0  0
 32 29  1  0  0  0  0
 32 39  1  0  0  0  0
 33 32  2  0  0  0  0
 34 33  1  0  0  0  0
 35 33  1  0  0  0  0
 35 37  2  0  0  0  0
 36 35  1  0  0  0  0
 37 38  1  0  0  0  0
 38 39  2  0  0  0  0
M  END
>  <minimizedAffinity>
-5.093503

$$$$

 OpenBabel03242519553D

 39 41  0  0  1  0  0  0  0  0999 V2000
   37.4840   26.8370   41.0610 C   0  0  2  0  0  0  0  0  0  0  0  0
   38.8750   27.1220   40.6450 C   0  0  0  0  0  0  0  0  0  0  0  0
   39.8770   26.6890   41.6640 C   0  0  0  0  0  0  0  0  0  0  0  0
   39.6270   27.2600   43.0370 C   0  0  0  0  0  0  0  0  0  0  0  0
   38.1770   27.3830   43.3920 C   0  0  2  0  0  0  0  0  0  0  0  0
   37.3150   26.5040   42.5050 C   0  0  0  0  0  0  0  0  0  0  0  0
   36.9050   27.7960   40.8700 H   0  0  0  0  0  0  0  0  0  0  0  0
   39.0810   26.5880   39.7100 H   0  0  0  0  0  0  0  0  0  0  0  0
   39.0530   28.1930   40.4360 H   0  0  0  0  0  0  0  0  0  0  0  0
   40.0000   25.5830   41.6870 H   0  0  0  0  0  0  0  0  0  0  0  0
   40.8680   27.1080   41.3260 H   0  0  0  0  0  0  0  0  0  0  0  0
   40.2050   28.2080   43.2050 H   0  0  0  0  0  0  0  0  0  0  0  0
   40.0940   26.5240   43.7490 H   0  0  0  0  0  0  0  0  0  0  0  0
   37.9970   27.0020   44.4380 H   0  0  0  0  0  0  0  0  0  0  0  0
   37.4800   25.4970   42.8370 H   0  0  0  0  0  0  0  0  0  0  0  0
   36.2470   26.7530   42.7650 H   0  0  0  0  0  0  0  0  0  0  0  0
   36.8210   25.8090   40.2410 C   0  0  0  0  0  0  0  0  0  0  0  0
   36.7710   24.5560   40.8460 C   0  0  0  0  0  0  0  0  0  0  0  0
   36.1530   23.4910   40.1880 C   0  0  0  0  0  0  0  0  0  0  0  0
   35.6220   23.7720   38.9410 N   0  0  0  0  0  0  0  0  0  0  0  0
   35.6940   24.9980   38.3910 C   0  0  0  0  0  0  0  0  0  0  0  0
   36.2890   25.9980   39.0440 N   0  0  0  0  0  0  0  0  0  0  0  0
   37.1130   24.1120   41.7690 H   0  0  0  0  0  0  0  0  0  0  0  0
   36.0020   22.4690   40.4600 H   0  0  0  0  0  0  0  0  0  0  0  0
   35.2610   25.1630   37.4090 H   0  0  0  0  0  0  0  0  0  0  0  0
   37.7970   28.8120   43.3820 C   0  0  0  0  0  0  0  0  0  0  0  0
   36.8370   28.9080   42.8410 H   0  0  0  0  0  0  0  0  0  0  0  0
   37.5700   29.1200   44.4350 H   0  0  0  0  0  0  0  0  0  0  0  0
   38.8370   29.7540   42.8630 C   0  0  0  0  0  0  0  0  0  0  0  0
   39.6920   29.1830   42.4820 H   0  0  0  0  0  0  0  0  0  0  0  0
   39.2130   30.4250   43.6610 H   0  0  0  0  0  0  0  0  0  0  0  0
   38.2690   30.6530   41.7970 C   0  0  0  0  0  0  0  0  0  0  0  0
   37.0740   30.5190   41.1450 C   0  0  0  0  0  0  0  0  0  0  0  0
   36.4890   29.6740   41.4410 H   0  0  0  0  0  0  0  0  0  0  0  0
   36.7320   31.4540   40.1930 C   0  0  0  0  0  0  0  0  0  0  0  0
   35.7900   31.3430   39.6860 H   0  0  0  0  0  0  0  0  0  0  0  0
   37.5550   32.5230   39.8720 C   0  0  0  0  0  3  0  0  0  0  0  0
   38.7590   32.6080   40.5670 C   0  0  0  0  0  3  0  0  0  0  0  0
   39.0740   31.6880   41.4900 N   0  0  0  0  0  0  0  0  0  0  0  0
  1  7  1  6  0  0  0
  1  6  1  0  0  0  0
  2  1  1  0  0  0  0
  2  3  1  0  0  0  0
  3 10  1  0  0  0  0
  3  4  1  0  0  0  0
  4 12  1  0  0  0  0
  4  5  1  0  0  0  0
  4 13  1  0  0  0  0
  5 14  1  1  0  0  0
  6 16  1  0  0  0  0
  6 15  1  0  0  0  0
  6  5  1  0  0  0  0
  8  2  1  0  0  0  0
  9  2  1  0  0  0  0
 11  3  1  0  0  0  0
 17 18  1  0  0  0  0
 17  1  1  0  0  0  0
 18 23  1  0  0  0  0
 19 24  1  0  0  0  0
 19 18  2  0  0  0  0
 20 19  1  0  0  0  0
 21 20  2  0  0  0  0
 21 22  1  0  0  0  0
 22 17  2  0  0  0  0
 25 21  1  0  0  0  0
 26  5  1  0  0  0  0
 26 28  1  0  0  0  0
 27 26  1  0  0  0  0
 29 26  1  0  0  0  0
 29 31  1  0  0  0  0
 30 29  1  0  0  0  0
 32 29  1  0  0  0  0
 33 34  1  0  0  0  0
 33 32  2  0  0  0  0
 35 33  1  0  0  0  0
 36 35  1  0  0  0  0
 37 35  2  0  0  0  0
 37 38  1  0  0  0  0
 38 39  2  0  0  0  0
 39 32  1  0  0  0  0
M  END
>  <minimizedAffinity>
-5.0815835

$$$$
