
 OpenBabel03252509293D

 20 21  0  0  0  0  0  0  0  0999 V2000
   46.8770   33.6270   44.2120 C   0  0  0  0  0  0  0  0  0  0  0  0
   47.4420   32.8980   43.6110 H   0  0  0  0  0  0  0  0  0  0  0  0
   47.5270   34.5020   44.4870 H   0  0  0  0  0  0  0  0  0  0  0  0
   46.5290   31.1300   46.9490 C   0  0  0  0  0  0  0  0  0  0  0  0
   46.9490   31.7330   45.7500 C   0  0  0  0  0  0  0  0  0  0  0  0
   46.4490   32.9890   45.4540 C   0  0  0  0  0  0  0  0  0  0  0  0
   45.5740   33.5850   46.3320 N   0  0  0  0  0  0  0  0  0  0  0  0
   45.2030   32.9480   47.4810 C   0  0  0  0  0  0  0  0  0  0  0  0
   45.6740   31.7360   47.7860 N   0  0  0  0  0  0  0  0  0  0  0  0
   46.9480   30.1460   47.1400 H   0  0  0  0  0  0  0  0  0  0  0  0
   47.6400   31.2390   45.0800 H   0  0  0  0  0  0  0  0  0  0  0  0
   44.5100   33.5380   48.0720 H   0  0  0  0  0  0  0  0  0  0  0  0
   45.7660   34.1400   43.3830 C   0  0  0  0  0  0  0  0  0  0  0  0
   45.4650   35.4640   43.1430 C   0  0  0  0  0  0  0  0  0  0  0  0
   46.1290   36.1950   43.6250 H   0  0  0  0  0  0  0  0  0  0  0  0
   44.4060   35.8540   42.3540 C   0  0  0  0  0  0  0  0  0  0  0  0
   44.2420   36.9300   42.2180 H   0  0  0  0  0  0  0  0  0  0  0  0
   43.5800   34.9190   41.7550 C   0  0  0  0  0  3  0  0  0  0  0  0
   43.9080   33.5990   42.0140 C   0  0  0  0  0  3  0  0  0  0  0  0
   44.9440   33.2470   42.7850 N   0  0  0  0  0  0  0  0  0  0  0  0
  1  3  1  0  0  0  0
  1  6  1  0  0  0  0
  2  1  1  0  0  0  0
  4 10  1  0  0  0  0
  4  9  1  0  0  0  0
  5  4  2  0  0  0  0
  6  5  1  0  0  0  0
  6  7  2  0  0  0  0
  7  8  1  0  0  0  0
  8  9  2  0  0  0  0
  8 12  1  0  0  0  0
 11  5  1  0  0  0  0
 13  1  1  0  0  0  0
 14 13  1  0  0  0  0
 14 15  1  0  0  0  0
 16 14  2  0  0  0  0
 17 16  1  0  0  0  0
 18 19  2  0  0  0  0
 18 16  1  0  0  0  0
 19 20  1  0  0  0  0
 20 13  2  0  0  0  0
M  END
>  <minimizedAffinity>
-3.62608004

>  <minimizedRMSD>
4.76416492

$$$$
