
 OpenBabel03252504223D

 31 34  0  0  0  0  0  0  0  0999 V2000
   46.8720   33.4630   39.0980 C   0  0  0  0  0  0  0  0  0  0  0  0
   48.2380   33.2590   39.2310 C   0  0  0  0  0  0  0  0  0  0  0  0
   48.8210   33.5110   40.4870 C   0  0  0  0  0  0  0  0  0  0  0  0
   48.0000   33.9410   41.4900 N   0  0  0  0  0  0  0  0  0  0  0  0
   46.6680   34.1240   41.3080 C   0  0  0  0  0  0  0  0  0  0  0  0
   46.1230   33.8840   40.1170 N   0  0  0  0  0  0  0  0  0  0  0  0
   45.9020   34.5770   42.4150 N   0  0  0  0  0  0  0  0  0  0  0  0
   44.9520   35.5460   42.3820 C   0  0  0  0  0  0  0  0  0  0  0  0
   44.4530   35.6920   43.6340 N   0  0  0  0  0  0  0  0  0  0  0  0
   45.1040   34.8100   44.4080 C   0  0  0  0  0  0  0  0  0  0  0  0
   45.0380   34.4920   45.7460 C   0  0  0  0  0  0  0  0  0  0  0  0
   45.7970   33.5670   46.2930 N   0  0  0  0  0  0  0  0  0  0  0  0
   46.7040   32.8560   45.5720 C   0  0  0  0  0  0  0  0  0  0  0  0
   46.7600   33.1750   44.2650 N   0  0  0  0  0  0  0  0  0  0  0  0
   46.0200   34.0960   43.6660 C   0  0  0  0  0  0  0  0  0  0  0  0
   48.8820   32.9180   38.4310 H   0  0  0  0  0  0  0  0  0  0  0  0
   49.8660   33.3590   40.6030 H   0  0  0  0  0  0  0  0  0  0  0  0
   44.6350   36.1170   41.5150 H   0  0  0  0  0  0  0  0  0  0  0  0
   47.3350   32.0920   46.0090 H   0  0  0  0  0  0  0  0  0  0  0  0
   44.1540   35.1360   46.6350 N   0  0  0  0  0  0  0  0  0  0  0  0
   43.2450   35.5810   46.3120 H   0  0  0  0  0  0  0  0  0  0  0  0
   44.2860   35.2410   47.6460 H   0  0  0  0  0  0  0  0  0  0  0  0
   46.2180   33.1140   37.4450 S   0  0  0  0  0  0  0  0  0  0  0  0
   47.3670   32.1560   36.5150 C   0  0  0  0  0  0  0  0  0  0  0  0
   47.4800   30.7750   36.6350 C   0  0  0  0  0  0  0  0  0  0  0  0
   46.8310   30.2520   37.3380 H   0  0  0  0  0  0  0  0  0  0  0  0
   48.4020   30.0600   35.8790 C   0  0  0  0  0  0  0  0  0  0  0  0
   48.5000   28.9850   35.9650 H   0  0  0  0  0  0  0  0  0  0  0  0
   49.2270   30.7410   34.9840 C   0  0  0  0  0  0  0  0  0  0  0  0
   49.0840   32.1100   34.8930 C   0  0  0  0  0  0  0  0  0  0  0  0
   48.1750   32.7910   35.6420 N   0  0  0  0  0  0  0  0  0  0  0  0
  1  2  2  0  0  0  0
  1  6  1  0  0  0  0
  2  3  1  0  0  0  0
  3 17  1  0  0  0  0
  3  4  2  0  0  0  0
  5  4  1  0  0  0  0
  5  7  1  0  0  0  0
  6  5  2  0  0  0  0
  7 15  1  0  0  0  0
  8  7  1  0  0  0  0
  8  9  2  0  0  0  0
  9 10  1  0  0  0  0
 10 11  1  0  0  0  0
 11 12  2  0  0  0  0
 11 20  1  0  0  0  0
 13 19  1  0  0  0  0
 13 12  1  0  0  0  0
 14 13  2  0  0  0  0
 15 14  1  0  0  0  0
 15 10  2  0  0  0  0
 16  2  1  0  0  0  0
 18  8  1  0  0  0  0
 20 22  1  0  0  0  0
 21 20  1  0  0  0  0
 23  1  1  0  0  0  0
 24 25  1  0  0  0  0
 24 23  1  0  0  0  0
 25 26  1  0  0  0  0
 27 28  1  0  0  0  0
 27 25  2  0  0  0  0
 29 27  1  0  0  0  0
 30 29  2  0  0  0  0
 30 31  1  0  0  0  0
 31 24  2  0  0  0  0
M  END
>  <minimizedAffinity>
-5.78986311

>  <minimizedRMSD>
1.57340598

$$$$
