
 OpenBabel03252509283D

 20 21  0  0  0  0  0  0  0  0999 V2000
   44.0190   35.1100   41.3900 C   0  0  0  0  0  0  0  0  0  0  0  0
   44.5960   34.4370   40.7380 H   0  0  0  0  0  0  0  0  0  0  0  0
   44.2360   36.1850   41.1390 H   0  0  0  0  0  0  0  0  0  0  0  0
   45.4380   33.5040   44.4320 C   0  0  0  0  0  0  0  0  0  0  0  0
   45.0540   33.7020   43.0930 C   0  0  0  0  0  0  0  0  0  0  0  0
   44.4230   34.8920   42.7760 C   0  0  0  0  0  0  0  0  0  0  0  0
   44.2000   35.8170   43.7690 N   0  0  0  0  0  0  0  0  0  0  0  0
   44.5970   35.5670   45.0510 C   0  0  0  0  0  0  0  0  0  0  0  0
   45.2080   34.4250   45.3790 N   0  0  0  0  0  0  0  0  0  0  0  0
   45.9310   32.5570   44.6340 H   0  0  0  0  0  0  0  0  0  0  0  0
   45.2440   32.9550   42.3340 H   0  0  0  0  0  0  0  0  0  0  0  0
   44.3550   36.3840   45.7220 H   0  0  0  0  0  0  0  0  0  0  0  0
   42.5830   34.8750   41.1360 C   0  0  0  0  0  0  0  0  0  0  0  0
   41.5850   35.8270   41.1080 C   0  0  0  0  0  0  0  0  0  0  0  0
   41.9140   36.8590   41.2960 H   0  0  0  0  0  0  0  0  0  0  0  0
   40.2670   35.5160   40.8620 C   0  0  0  0  0  0  0  0  0  0  0  0
   39.5430   36.3410   40.8590 H   0  0  0  0  0  0  0  0  0  0  0  0
   39.8730   34.2110   40.6270 C   0  0  0  0  0  3  0  0  0  0  0  0
   40.8960   33.2780   40.6610 C   0  0  0  0  0  3  0  0  0  0  0  0
   42.1710   33.6060   40.9030 N   0  0  0  0  0  0  0  0  0  0  0  0
  1  6  1  0  0  0  0
  2  1  1  0  0  0  0
  3  1  1  0  0  0  0
  4 10  1  0  0  0  0
  4  9  1  0  0  0  0
  5  4  2  0  0  0  0
  6  5  1  0  0  0  0
  6  7  2  0  0  0  0
  7  8  1  0  0  0  0
  8  9  2  0  0  0  0
  8 12  1  0  0  0  0
 11  5  1  0  0  0  0
 13  1  1  0  0  0  0
 14 13  1  0  0  0  0
 14 15  1  0  0  0  0
 16 14  2  0  0  0  0
 17 16  1  0  0  0  0
 18 19  2  0  0  0  0
 18 16  1  0  0  0  0
 19 20  1  0  0  0  0
 20 13  2  0  0  0  0
M  END
>  <minimizedAffinity>
-4.15184593

>  <minimizedRMSD>
6.26181507

$$$$
