
 OpenBabel03252509283D

 20 21  0  0  0  0  0  0  0  0999 V2000
   45.0730   33.6310   41.8050 C   0  0  0  0  0  0  0  0  0  0  0  0
   44.2040   33.9840   41.2300 H   0  0  0  0  0  0  0  0  0  0  0  0
   45.0720   32.5090   41.8750 H   0  0  0  0  0  0  0  0  0  0  0  0
   44.3760   35.9130   44.6600 C   0  0  0  0  0  0  0  0  0  0  0  0
   44.4510   35.4190   43.3450 C   0  0  0  0  0  0  0  0  0  0  0  0
   44.9880   34.1560   43.1650 C   0  0  0  0  0  0  0  0  0  0  0  0
   45.4200   33.4490   44.2630 N   0  0  0  0  0  0  0  0  0  0  0  0
   45.3190   33.9830   45.5150 C   0  0  0  0  0  0  0  0  0  0  0  0
   44.8040   35.2000   45.7120 N   0  0  0  0  0  0  0  0  0  0  0  0
   43.9470   36.9070   44.7540 H   0  0  0  0  0  0  0  0  0  0  0  0
   44.1030   36.0000   42.5010 H   0  0  0  0  0  0  0  0  0  0  0  0
   45.6980   33.3130   46.2790 H   0  0  0  0  0  0  0  0  0  0  0  0
   46.2970   34.0310   41.0790 C   0  0  0  0  0  0  0  0  0  0  0  0
   47.3230   34.8130   41.5650 C   0  0  0  0  0  0  0  0  0  0  0  0
   47.2000   35.1650   42.5990 H   0  0  0  0  0  0  0  0  0  0  0  0
   48.4310   35.1370   40.8140 C   0  0  0  0  0  0  0  0  0  0  0  0
   49.1970   35.7640   41.2840 H   0  0  0  0  0  0  0  0  0  0  0  0
   48.5680   34.6840   39.5130 C   0  0  0  0  0  3  0  0  0  0  0  0
   47.5230   33.9020   39.0540 C   0  0  0  0  0  3  0  0  0  0  0  0
   46.4560   33.6010   39.8040 N   0  0  0  0  0  0  0  0  0  0  0  0
  1  3  1  0  0  0  0
  1  6  1  0  0  0  0
  2  1  1  0  0  0  0
  4 10  1  0  0  0  0
  4  9  1  0  0  0  0
  5  4  2  0  0  0  0
  6  5  1  0  0  0  0
  6  7  2  0  0  0  0
  7  8  1  0  0  0  0
  8  9  2  0  0  0  0
  8 12  1  0  0  0  0
 11  5  1  0  0  0  0
 13 14  1  0  0  0  0
 13  1  1  0  0  0  0
 14 15  1  0  0  0  0
 16 17  1  0  0  0  0
 16 14  2  0  0  0  0
 18 16  1  0  0  0  0
 19 18  2  0  0  0  0
 19 20  1  0  0  0  0
 20 13  2  0  0  0  0
M  END
>  <minimizedAffinity>
-4.0677948

>  <minimizedRMSD>
2.36886215

$$$$
