
 OpenBabel03252509293D

 20 21  0  0  0  0  0  0  0  0999 V2000
   46.7080   34.7550   41.8590 C   0  0  0  0  0  0  0  0  0  0  0  0
   46.7990   35.7530   41.4040 H   0  0  0  0  0  0  0  0  0  0  0  0
   46.0930   34.0770   41.2050 H   0  0  0  0  0  0  0  0  0  0  0  0
   44.5330   36.0760   44.5730 C   0  0  0  0  0  0  0  0  0  0  0  0
   45.1930   35.9720   43.3360 C   0  0  0  0  0  0  0  0  0  0  0  0
   46.0160   34.8760   43.1390 C   0  0  0  0  0  0  0  0  0  0  0  0
   46.1510   33.9500   44.1470 N   0  0  0  0  0  0  0  0  0  0  0  0
   45.4830   34.1080   45.3270 C   0  0  0  0  0  0  0  0  0  0  0  0
   44.6840   35.1580   45.5380 N   0  0  0  0  0  0  0  0  0  0  0  0
   43.8980   36.9510   44.6820 H   0  0  0  0  0  0  0  0  0  0  0  0
   45.0660   36.7160   42.5610 H   0  0  0  0  0  0  0  0  0  0  0  0
   45.6870   33.3030   46.0250 H   0  0  0  0  0  0  0  0  0  0  0  0
   48.0610   34.1700   41.9570 C   0  0  0  0  0  0  0  0  0  0  0  0
   48.4360   32.8980   41.5830 C   0  0  0  0  0  0  0  0  0  0  0  0
   47.6330   32.2700   41.1720 H   0  0  0  0  0  0  0  0  0  0  0  0
   49.7270   32.4340   41.7100 C   0  0  0  0  0  0  0  0  0  0  0  0
   49.9320   31.4070   41.3870 H   0  0  0  0  0  0  0  0  0  0  0  0
   50.7260   33.2390   42.2300 C   0  0  0  0  0  3  0  0  0  0  0  0
   50.3190   34.5110   42.5960 C   0  0  0  0  0  3  0  0  0  0  0  0
   49.0570   34.9380   42.4620 N   0  0  0  0  0  0  0  0  0  0  0  0
  1 13  1  0  0  0  0
  1  6  1  0  0  0  0
  2  1  1  0  0  0  0
  3  1  1  0  0  0  0
  4 10  1  0  0  0  0
  4  9  1  0  0  0  0
  5  4  2  0  0  0  0
  6  5  1  0  0  0  0
  6  7  2  0  0  0  0
  7  8  1  0  0  0  0
  8  9  2  0  0  0  0
  8 12  1  0  0  0  0
 11  5  1  0  0  0  0
 13 20  1  0  0  0  0
 14 16  1  0  0  0  0
 14 13  2  0  0  0  0
 15 14  1  0  0  0  0
 16 18  2  0  0  0  0
 17 16  1  0  0  0  0
 18 19  1  0  0  0  0
 20 19  2  0  0  0  0
M  END
>  <minimizedAffinity>
-4.41626596

>  <minimizedRMSD>
1.89649916

$$$$
