
 OpenBabel03252508463D

 44 46  0  0  0  0  0  0  0  0999 V2000
   43.0190   32.4720   41.6560 C   0  0  0  0  0  0  0  0  0  0  0  0
   43.5010   32.0160   40.7490 H   0  0  0  0  0  0  0  0  0  0  0  0
   42.0700   32.9340   41.2890 H   0  0  0  0  0  0  0  0  0  0  0  0
   43.6650   34.8810   41.9000 C   0  0  0  0  0  0  0  0  0  0  0  0
   43.8960   33.5450   42.2020 C   0  0  0  0  0  0  0  0  0  0  0  0
   44.9570   33.2320   43.0180 C   0  0  0  0  0  0  0  0  0  0  0  0
   45.7610   34.2200   43.5160 C   0  0  0  0  0  0  0  0  0  0  0  0
   45.5580   35.5370   43.2390 C   0  0  0  0  0  0  0  0  0  0  0  0
   44.4830   35.8110   42.4150 C   0  0  0  0  0  0  0  0  0  0  0  0
   45.1790   32.2050   43.2810 H   0  0  0  0  0  0  0  0  0  0  0  0
   46.5880   33.9410   44.1560 H   0  0  0  0  0  0  0  0  0  0  0  0
   46.1600   36.3540   43.6050 H   0  0  0  0  0  0  0  0  0  0  0  0
   44.2460   36.8380   42.1410 H   0  0  0  0  0  0  0  0  0  0  0  0
   40.2590   35.7830   40.5340 C   0  0  0  0  0  0  0  0  0  0  0  0
   41.2820   35.5430   41.4670 C   0  0  0  0  0  0  0  0  0  0  0  0
   42.5340   35.1560   41.0360 C   0  0  0  0  0  0  0  0  0  0  0  0
   42.7050   35.0260   39.6890 N   0  0  0  0  0  0  0  0  0  0  0  0
   41.7130   35.2600   38.7950 C   0  0  0  0  0  0  0  0  0  0  0  0
   40.4970   35.6370   39.2380 N   0  0  0  0  0  0  0  0  0  0  0  0
   39.3210   36.0800   40.9900 H   0  0  0  0  0  0  0  0  0  0  0  0
   41.1720   35.6390   42.5430 H   0  0  0  0  0  0  0  0  0  0  0  0
   41.9390   35.1310   37.7390 H   0  0  0  0  0  0  0  0  0  0  0  0
   42.6730   31.4440   42.5760 N   0  0  0  0  0  0  0  0  0  0  0  0
   43.1980   30.5620   42.4430 H   0  0  0  0  0  0  0  0  0  0  0  0
   41.0050   31.0960   42.6120 S   0  0  0  0  0  0  0  0  0  0  0  0
   40.1900   32.3660   42.4570 O   0  0  0  0  0  0  0  0  0  0  0  0
   39.8890   32.6350   41.5480 H   0  0  0  0  0  0  0  0  0  0  0  0
   40.6240   30.3870   43.8610 O   0  0  0  0  0  0  0  0  0  0  0  0
   41.2380   29.8050   44.3840 H   0  0  0  0  0  0  0  0  0  0  0  0
   40.6520   30.1070   41.2920 O   0  0  0  0  0  0  0  0  0  0  0  0
   39.5510   29.3430   41.6400 C   0  0  0  0  0  0  0  0  0  0  0  0
   39.2850   29.3460   42.6950 H   0  0  0  0  0  0  0  0  0  0  0  0
   38.6840   29.8170   41.0920 H   0  0  0  0  0  0  0  0  0  0  0  0
   39.6730   27.9600   41.0510 C   0  0  0  0  0  0  0  0  0  0  0  0
   40.4690   28.0340   40.2520 H   0  0  0  0  0  0  0  0  0  0  0  0
   38.7340   27.7920   40.4600 H   0  0  0  0  0  0  0  0  0  0  0  0
   39.9420   26.8910   42.0090 C   0  0  0  0  0  0  0  0  0  0  0  0
   40.8450   27.0050   43.0440 C   0  0  0  0  0  0  0  0  0  0  0  0
   41.3960   27.9260   43.1710 H   0  0  0  0  0  0  0  0  0  0  0  0
   40.9840   25.8870   43.8750 C   0  0  0  0  0  0  0  0  0  0  0  0
   41.6850   25.9440   44.6980 H   0  0  0  0  0  0  0  0  0  0  0  0
   40.2420   24.7420   43.6480 C   0  0  0  0  0  3  0  0  0  0  0  0
   39.3340   24.6580   42.5890 C   0  0  0  0  0  3  0  0  0  0  0  0
   39.2170   25.7530   41.7980 N   0  0  0  0  0  0  0  0  0  0  0  0
  1  5  1  0  0  0  0
  1 23  1  0  0  0  0
  2  1  1  0  0  0  0
  3  1  1  0  0  0  0
  4  5  2  0  0  0  0
  4  9  1  0  0  0  0
  5  6  1  0  0  0  0
  6 10  1  0  0  0  0
  6  7  2  0  0  0  0
  7 11  1  0  0  0  0
  8  7  1  0  0  0  0
  8 12  1  0  0  0  0
  9  8  2  0  0  0  0
 13  9  1  0  0  0  0
 14 20  1  0  0  0  0
 14 15  1  0  0  0  0
 15 21  1  0  0  0  0
 16 15  2  0  0  0  0
 16  4  1  0  0  0  0
 17 16  1  0  0  0  0
 18 19  1  0  0  0  0
 18 17  2  0  0  0  0
 19 14  2  0  0  0  0
 22 18  1  0  0  0  0
 23 25  1  0  0  0  0
 24 23  1  0  0  0  0
 25 28  1  0  0  0  0
 26 25  1  0  0  0  0
 27 26  1  0  0  0  0
 28 29  1  0  0  0  0
 30 31  1  0  0  0  0
 30 25  1  0  0  0  0
 31 32  1  0  0  0  0
 33 31  1  0  0  0  0
 34 31  1  0  0  0  0
 34 37  1  0  0  0  0
 35 34  1  0  0  0  0
 36 34  1  0  0  0  0
 37 38  1  0  0  0  0
 38 39  1  0  0  0  0
 38 40  2  0  0  0  0
 40 41  1  0  0  0  0
 42 40  1  0  0  0  0
 43 42  2  0  0  0  0
 44 37  2  0  0  0  0
 44 43  1  0  0  0  0
M  END
>  <minimizedAffinity>
-5.0084486

>  <minimizedRMSD>
2.01158237

$$$$
