
 OpenBabel03242517593D

 23 24  0  0  0  0  0  0  0  0999 V2000
   46.5820   34.6830   41.7540 C   0  0  0  0  0  0  0  0  0  0  0  0
   46.0130   35.1650   40.9620 H   0  0  0  0  0  0  0  0  0  0  0  0
   46.7640   33.6040   41.5750 H   0  0  0  0  0  0  0  0  0  0  0  0
   45.1910   35.9830   43.2750 C   0  0  0  0  0  0  0  0  0  0  0  0
   45.9520   34.8380   43.0450 C   0  0  0  0  0  0  0  0  0  0  0  0
   46.0480   33.9130   44.0890 C   0  0  0  0  0  0  0  0  0  0  0  0
   45.4090   34.1730   45.2490 N   0  0  0  0  0  0  0  0  0  0  0  0
   44.6750   35.2980   45.4430 C   0  0  0  0  0  0  0  0  0  0  0  0
   44.5630   36.2140   44.4460 N   0  0  0  0  0  0  0  0  0  0  0  0
   45.0890   36.7290   42.4890 H   0  0  0  0  0  0  0  0  0  0  0  0
   46.6270   33.0350   43.9240 H   0  0  0  0  0  0  0  0  0  0  0  0
   44.1560   35.5250   46.3650 H   0  0  0  0  0  0  0  0  0  0  0  0
   47.9380   35.3870   41.8000 C   0  0  0  0  0  0  0  0  0  0  0  0
   48.0340   35.8350   42.8100 H   0  0  0  0  0  0  0  0  0  0  0  0
   48.0410   36.1280   41.0070 H   0  0  0  0  0  0  0  0  0  0  0  0
   48.9540   34.2980   41.7180 C   0  0  0  0  0  0  0  0  0  0  0  0
   50.0950   34.3490   42.5150 C   0  0  0  0  0  0  0  0  0  0  0  0
   50.2100   35.1970   43.1840 H   0  0  0  0  0  0  0  0  0  0  0  0
   50.9690   33.2720   42.3470 C   0  0  0  0  0  0  0  0  0  0  0  0
   51.8570   33.3050   42.9630 H   0  0  0  0  0  0  0  0  0  0  0  0
   50.6550   32.2910   41.4530 C   0  0  0  0  0  0  0  0  0  0  0  0
   49.5070   32.2850   40.6830 C   0  0  0  0  0  0  0  0  0  0  0  0
   48.6510   33.3220   40.8360 N   0  0  0  0  0  0  0  0  0  0  0  0
  1 13  1  0  0  0  0
  1  5  1  0  0  0  0
  2  1  1  0  0  0  0
  3  1  1  0  0  0  0
  4  9  1  0  0  0  0
  5  4  2  0  0  0  0
  5  6  1  0  0  0  0
  6  7  2  0  0  0  0
  7  8  1  0  0  0  0
  8 12  1  0  0  0  0
  9  8  2  0  0  0  0
 10  4  1  0  0  0  0
 11  6  1  0  0  0  0
 13 14  1  0  0  0  0
 15 13  1  0  0  0  0
 16 13  1  0  0  0  0
 16 17  1  0  0  0  0
 17 18  1  0  0  0  0
 19 17  2  0  0  0  0
 19 20  1  0  0  0  0
 21 19  1  0  0  0  0
 22 23  1  0  0  0  0
 22 21  2  0  0  0  0
 23 16  2  0  0  0  0
M  END
>  <minimizedAffinity>
-4.75951481

>  <minimizedRMSD>
2.7812202

$$$$
