
 OpenBabel03252508463D

 44 46  0  0  0  0  0  0  0  0999 V2000
   43.0200   32.4910   41.6860 C   0  0  0  0  0  0  0  0  0  0  0  0
   43.5070   31.9920   40.8040 H   0  0  0  0  0  0  0  0  0  0  0  0
   42.0860   32.9580   41.2870 H   0  0  0  0  0  0  0  0  0  0  0  0
   43.6830   34.9000   41.8850 C   0  0  0  0  0  0  0  0  0  0  0  0
   43.9100   33.5680   42.2050 C   0  0  0  0  0  0  0  0  0  0  0  0
   44.9780   33.2600   43.0130 C   0  0  0  0  0  0  0  0  0  0  0  0
   45.7930   34.2520   43.4870 C   0  0  0  0  0  0  0  0  0  0  0  0
   45.5950   35.5650   43.1910 C   0  0  0  0  0  0  0  0  0  0  0  0
   44.5120   35.8330   42.3760 C   0  0  0  0  0  0  0  0  0  0  0  0
   45.1970   32.2370   43.2900 H   0  0  0  0  0  0  0  0  0  0  0  0
   46.6260   33.9780   44.1210 H   0  0  0  0  0  0  0  0  0  0  0  0
   46.2060   36.3840   43.5390 H   0  0  0  0  0  0  0  0  0  0  0  0
   44.2790   36.8570   42.0890 H   0  0  0  0  0  0  0  0  0  0  0  0
   40.2620   35.7810   40.5450 C   0  0  0  0  0  0  0  0  0  0  0  0
   41.2930   35.5470   41.4710 C   0  0  0  0  0  0  0  0  0  0  0  0
   42.5430   35.1690   41.0290 C   0  0  0  0  0  0  0  0  0  0  0  0
   42.7050   35.0410   39.6810 N   0  0  0  0  0  0  0  0  0  0  0  0
   41.7050   35.2680   38.7950 C   0  0  0  0  0  0  0  0  0  0  0  0
   40.4900   35.6370   39.2470 N   0  0  0  0  0  0  0  0  0  0  0  0
   39.3250   36.0730   41.0080 H   0  0  0  0  0  0  0  0  0  0  0  0
   41.1900   35.6420   42.5470 H   0  0  0  0  0  0  0  0  0  0  0  0
   41.9240   35.1420   37.7370 H   0  0  0  0  0  0  0  0  0  0  0  0
   42.6410   31.5050   42.6380 N   0  0  0  0  0  0  0  0  0  0  0  0
   43.1900   30.6300   42.5850 H   0  0  0  0  0  0  0  0  0  0  0  0
   40.9810   31.1210   42.5940 S   0  0  0  0  0  0  0  0  0  0  0  0
   40.1460   32.3710   42.3870 O   0  0  0  0  0  0  0  0  0  0  0  0
   39.8860   32.6260   41.4620 H   0  0  0  0  0  0  0  0  0  0  0  0
   40.5530   30.4130   43.8290 O   0  0  0  0  0  0  0  0  0  0  0  0
   41.1530   29.8500   44.3870 H   0  0  0  0  0  0  0  0  0  0  0  0
   40.7160   30.1140   41.2670 O   0  0  0  0  0  0  0  0  0  0  0  0
   40.4500   28.8490   41.7640 C   0  0  0  0  0  0  0  0  0  0  0  0
   40.1420   28.8040   42.8060 H   0  0  0  0  0  0  0  0  0  0  0  0
   39.5750   28.4760   41.1560 H   0  0  0  0  0  0  0  0  0  0  0  0
   41.5840   27.9120   41.4280 C   0  0  0  0  0  0  0  0  0  0  0  0
   41.6760   27.9310   40.3020 H   0  0  0  0  0  0  0  0  0  0  0  0
   41.2000   26.8780   41.6340 H   0  0  0  0  0  0  0  0  0  0  0  0
   42.8510   28.1940   42.0970 C   0  0  0  0  0  0  0  0  0  0  0  0
   44.0330   28.4230   41.4250 C   0  0  0  0  0  0  0  0  0  0  0  0
   44.0450   28.3950   40.3440 H   0  0  0  0  0  0  0  0  0  0  0  0
   45.1590   28.6800   42.2150 C   0  0  0  0  0  0  0  0  0  0  0  0
   46.1030   28.8640   41.7190 H   0  0  0  0  0  0  0  0  0  0  0  0
   45.0630   28.6980   43.5950 C   0  0  0  0  0  3  0  0  0  0  0  0
   43.8490   28.4620   44.2460 C   0  0  0  0  0  3  0  0  0  0  0  0
   42.7740   28.2150   43.4600 N   0  0  0  0  0  0  0  0  0  0  0  0
  1  5  1  0  0  0  0
  1 23  1  0  0  0  0
  2  1  1  0  0  0  0
  3  1  1  0  0  0  0
  4  5  2  0  0  0  0
  4  9  1  0  0  0  0
  5  6  1  0  0  0  0
  6 10  1  0  0  0  0
  6  7  2  0  0  0  0
  7 11  1  0  0  0  0
  8  7  1  0  0  0  0
  8 12  1  0  0  0  0
  9  8  2  0  0  0  0
 13  9  1  0  0  0  0
 14 20  1  0  0  0  0
 14 15  1  0  0  0  0
 15 21  1  0  0  0  0
 16 15  2  0  0  0  0
 16  4  1  0  0  0  0
 17 16  1  0  0  0  0
 18 19  1  0  0  0  0
 18 17  2  0  0  0  0
 19 14  2  0  0  0  0
 22 18  1  0  0  0  0
 24 23  1  0  0  0  0
 25 23  1  0  0  0  0
 25 28  1  0  0  0  0
 26 25  1  0  0  0  0
 27 26  1  0  0  0  0
 28 29  1  0  0  0  0
 30 31  1  0  0  0  0
 30 25  1  0  0  0  0
 31 32  1  0  0  0  0
 33 31  1  0  0  0  0
 34 36  1  0  0  0  0
 34 31  1  0  0  0  0
 34 37  1  0  0  0  0
 35 34  1  0  0  0  0
 37 44  1  0  0  0  0
 38 37  2  0  0  0  0
 38 40  1  0  0  0  0
 39 38  1  0  0  0  0
 40 42  2  0  0  0  0
 41 40  1  0  0  0  0
 42 43  1  0  0  0  0
 44 43  2  0  0  0  0
M  END
>  <minimizedAffinity>
-4.62990093

>  <minimizedRMSD>
0.556290329

$$$$
