
 OpenBabel03252508463D

 44 46  0  0  0  0  0  0  0  0999 V2000
   42.9430   32.4860   41.6010 C   0  0  0  0  0  0  0  0  0  0  0  0
   43.4110   32.0470   40.6790 H   0  0  0  0  0  0  0  0  0  0  0  0
   41.9970   32.9680   41.2550 H   0  0  0  0  0  0  0  0  0  0  0  0
   43.6330   34.8790   41.8810 C   0  0  0  0  0  0  0  0  0  0  0  0
   43.8390   33.5350   42.1640 C   0  0  0  0  0  0  0  0  0  0  0  0
   44.8910   33.1910   42.9780 C   0  0  0  0  0  0  0  0  0  0  0  0
   45.7110   34.1580   43.4930 C   0  0  0  0  0  0  0  0  0  0  0  0
   45.5330   35.4810   43.2330 C   0  0  0  0  0  0  0  0  0  0  0  0
   44.4660   35.7860   42.4110 C   0  0  0  0  0  0  0  0  0  0  0  0
   45.0930   32.1570   43.2280 H   0  0  0  0  0  0  0  0  0  0  0  0
   46.5310   33.8540   44.1310 H   0  0  0  0  0  0  0  0  0  0  0  0
   46.1500   36.2820   43.6130 H   0  0  0  0  0  0  0  0  0  0  0  0
   44.2490   36.8210   42.1510 H   0  0  0  0  0  0  0  0  0  0  0  0
   40.2470   35.8580   40.5180 C   0  0  0  0  0  0  0  0  0  0  0  0
   41.2620   35.5860   41.4510 C   0  0  0  0  0  0  0  0  0  0  0  0
   42.5090   35.1870   41.0170 C   0  0  0  0  0  0  0  0  0  0  0  0
   42.6830   35.0790   39.6690 N   0  0  0  0  0  0  0  0  0  0  0  0
   41.6990   35.3430   38.7760 C   0  0  0  0  0  0  0  0  0  0  0  0
   40.4870   35.7310   39.2210 N   0  0  0  0  0  0  0  0  0  0  0  0
   39.3110   36.1620   40.9760 H   0  0  0  0  0  0  0  0  0  0  0  0
   41.1490   35.6640   42.5280 H   0  0  0  0  0  0  0  0  0  0  0  0
   41.9270   35.2300   37.7190 H   0  0  0  0  0  0  0  0  0  0  0  0
   42.5940   31.4400   42.4990 N   0  0  0  0  0  0  0  0  0  0  0  0
   43.0600   30.5370   42.3010 H   0  0  0  0  0  0  0  0  0  0  0  0
   40.9140   31.1810   42.6200 S   0  0  0  0  0  0  0  0  0  0  0  0
   40.1710   32.5020   42.6800 O   0  0  0  0  0  0  0  0  0  0  0  0
   39.8250   32.8970   41.8350 H   0  0  0  0  0  0  0  0  0  0  0  0
   40.5760   30.3440   43.8020 O   0  0  0  0  0  0  0  0  0  0  0  0
   41.1870   29.6700   44.2030 H   0  0  0  0  0  0  0  0  0  0  0  0
   40.4090   30.3820   41.2230 O   0  0  0  0  0  0  0  0  0  0  0  0
   39.1320   30.8340   40.9360 C   0  0  0  0  0  0  0  0  0  0  0  0
   38.3740   30.6230   41.6880 H   0  0  0  0  0  0  0  0  0  0  0  0
   39.2260   31.9580   40.8840 H   0  0  0  0  0  0  0  0  0  0  0  0
   38.7340   30.4130   39.5430 C   0  0  0  0  0  0  0  0  0  0  0  0
   39.6970   30.3530   38.9530 H   0  0  0  0  0  0  0  0  0  0  0  0
   38.2140   31.2980   39.0900 H   0  0  0  0  0  0  0  0  0  0  0  0
   37.9490   29.1850   39.4570 C   0  0  0  0  0  0  0  0  0  0  0  0
   36.6360   29.0910   39.8630 C   0  0  0  0  0  0  0  0  0  0  0  0
   36.1410   29.9610   40.2710 H   0  0  0  0  0  0  0  0  0  0  0  0
   36.0250   27.8400   39.7120 C   0  0  0  0  0  0  0  0  0  0  0  0
   34.9930   27.7330   40.0220 H   0  0  0  0  0  0  0  0  0  0  0  0
   36.7250   26.7720   39.1820 C   0  0  0  0  0  3  0  0  0  0  0  0
   38.0590   26.9000   38.7790 C   0  0  0  0  0  3  0  0  0  0  0  0
   38.6260   28.1200   38.9350 N   0  0  0  0  0  0  0  0  0  0  0  0
  1  5  1  0  0  0  0
  1 23  1  0  0  0  0
  2  1  1  0  0  0  0
  3  1  1  0  0  0  0
  4  5  2  0  0  0  0
  4  9  1  0  0  0  0
  5  6  1  0  0  0  0
  6 10  1  0  0  0  0
  6  7  2  0  0  0  0
  7 11  1  0  0  0  0
  8  7  1  0  0  0  0
  8 12  1  0  0  0  0
  9  8  2  0  0  0  0
 13  9  1  0  0  0  0
 14 20  1  0  0  0  0
 14 15  1  0  0  0  0
 15 21  1  0  0  0  0
 16 15  2  0  0  0  0
 16  4  1  0  0  0  0
 17 16  1  0  0  0  0
 18 19  1  0  0  0  0
 18 17  2  0  0  0  0
 19 14  2  0  0  0  0
 22 18  1  0  0  0  0
 23 25  1  0  0  0  0
 24 23  1  0  0  0  0
 25 26  1  0  0  0  0
 25 28  1  0  0  0  0
 27 26  1  0  0  0  0
 28 29  1  0  0  0  0
 30 25  1  0  0  0  0
 31 30  1  0  0  0  0
 31 32  1  0  0  0  0
 33 31  1  0  0  0  0
 34 31  1  0  0  0  0
 35 34  1  0  0  0  0
 36 34  1  0  0  0  0
 37 34  1  0  0  0  0
 37 38  1  0  0  0  0
 38 39  1  0  0  0  0
 40 38  2  0  0  0  0
 40 41  1  0  0  0  0
 42 40  1  0  0  0  0
 43 44  1  0  0  0  0
 43 42  2  0  0  0  0
 44 37  2  0  0  0  0
M  END
>  <minimizedAffinity>
-5.22419071

>  <minimizedRMSD>
3.48890948

$$$$
