
 OpenBabel03252508463D

 44 46  0  0  0  0  0  0  0  0999 V2000
   43.0090   32.4420   41.7010 C   0  0  0  0  0  0  0  0  0  0  0  0
   43.4770   31.9880   40.7860 H   0  0  0  0  0  0  0  0  0  0  0  0
   42.0540   32.9040   41.3500 H   0  0  0  0  0  0  0  0  0  0  0  0
   43.6700   34.8490   41.9200 C   0  0  0  0  0  0  0  0  0  0  0  0
   43.8930   33.5150   42.2350 C   0  0  0  0  0  0  0  0  0  0  0  0
   44.9530   33.2030   43.0530 C   0  0  0  0  0  0  0  0  0  0  0  0
   45.7630   34.1920   43.5400 C   0  0  0  0  0  0  0  0  0  0  0  0
   45.5690   35.5070   43.2490 C   0  0  0  0  0  0  0  0  0  0  0  0
   44.4940   35.7790   42.4240 C   0  0  0  0  0  0  0  0  0  0  0  0
   45.1690   32.1780   43.3260 H   0  0  0  0  0  0  0  0  0  0  0  0
   46.5900   33.9140   44.1810 H   0  0  0  0  0  0  0  0  0  0  0  0
   46.1770   36.3240   43.6070 H   0  0  0  0  0  0  0  0  0  0  0  0
   44.2640   36.8040   42.1400 H   0  0  0  0  0  0  0  0  0  0  0  0
   40.2590   35.7260   40.5500 C   0  0  0  0  0  0  0  0  0  0  0  0
   41.2810   35.4860   41.4850 C   0  0  0  0  0  0  0  0  0  0  0  0
   42.5390   35.1220   41.0540 C   0  0  0  0  0  0  0  0  0  0  0  0
   42.7190   35.0150   39.7060 N   0  0  0  0  0  0  0  0  0  0  0  0
   41.7280   35.2490   38.8110 C   0  0  0  0  0  0  0  0  0  0  0  0
   40.5040   35.6030   39.2530 N   0  0  0  0  0  0  0  0  0  0  0  0
   39.3150   36.0040   41.0060 H   0  0  0  0  0  0  0  0  0  0  0  0
   41.1630   35.5640   42.5620 H   0  0  0  0  0  0  0  0  0  0  0  0
   41.9610   35.1400   37.7540 H   0  0  0  0  0  0  0  0  0  0  0  0
   42.6790   31.4120   42.6260 N   0  0  0  0  0  0  0  0  0  0  0  0
   43.2350   30.5460   42.5130 H   0  0  0  0  0  0  0  0  0  0  0  0
   41.0230   31.0080   42.6310 S   0  0  0  0  0  0  0  0  0  0  0  0
   40.1730   32.2280   42.3290 O   0  0  0  0  0  0  0  0  0  0  0  0
   39.9000   32.4030   41.3890 H   0  0  0  0  0  0  0  0  0  0  0  0
   40.6140   30.4010   43.9250 O   0  0  0  0  0  0  0  0  0  0  0  0
   41.2260   29.8920   44.5210 H   0  0  0  0  0  0  0  0  0  0  0  0
   40.7560   29.8910   41.3950 O   0  0  0  0  0  0  0  0  0  0  0  0
   40.2530   28.7440   41.9850 C   0  0  0  0  0  0  0  0  0  0  0  0
   39.7740   28.8800   42.9530 H   0  0  0  0  0  0  0  0  0  0  0  0
   39.4490   28.3830   41.2800 H   0  0  0  0  0  0  0  0  0  0  0  0
   41.2970   27.6560   41.9740 C   0  0  0  0  0  0  0  0  0  0  0  0
   42.1700   28.0720   41.3890 H   0  0  0  0  0  0  0  0  0  0  0  0
   40.8980   26.8530   41.2990 H   0  0  0  0  0  0  0  0  0  0  0  0
   41.6930   27.1520   43.2870 C   0  0  0  0  0  0  0  0  0  0  0  0
   42.7780   26.3260   43.4900 C   0  0  0  0  0  0  0  0  0  0  0  0
   43.3810   26.0210   42.6450 H   0  0  0  0  0  0  0  0  0  0  0  0
   43.0240   25.9330   44.8110 C   0  0  0  0  0  0  0  0  0  0  0  0
   43.8680   25.2850   45.0050 H   0  0  0  0  0  0  0  0  0  0  0  0
   42.2050   26.3650   45.8380 C   0  0  0  0  0  3  0  0  0  0  0  0
   41.1120   27.2030   45.5990 C   0  0  0  0  0  3  0  0  0  0  0  0
   40.8960   27.5680   44.3120 N   0  0  0  0  0  0  0  0  0  0  0  0
  1  5  1  0  0  0  0
  1 23  1  0  0  0  0
  2  1  1  0  0  0  0
  3  1  1  0  0  0  0
  4  5  2  0  0  0  0
  4  9  1  0  0  0  0
  5  6  1  0  0  0  0
  6 10  1  0  0  0  0
  6  7  2  0  0  0  0
  7 11  1  0  0  0  0
  8  7  1  0  0  0  0
  8 12  1  0  0  0  0
  9  8  2  0  0  0  0
 13  9  1  0  0  0  0
 14 20  1  0  0  0  0
 14 15  1  0  0  0  0
 15 21  1  0  0  0  0
 16 15  2  0  0  0  0
 16  4  1  0  0  0  0
 17 16  1  0  0  0  0
 18 19  1  0  0  0  0
 18 17  2  0  0  0  0
 19 14  2  0  0  0  0
 22 18  1  0  0  0  0
 23 25  1  0  0  0  0
 24 23  1  0  0  0  0
 25 28  1  0  0  0  0
 26 25  1  0  0  0  0
 27 26  1  0  0  0  0
 28 29  1  0  0  0  0
 30 31  1  0  0  0  0
 30 25  1  0  0  0  0
 31 32  1  0  0  0  0
 33 31  1  0  0  0  0
 34 31  1  0  0  0  0
 34 37  1  0  0  0  0
 35 34  1  0  0  0  0
 36 34  1  0  0  0  0
 37 38  2  0  0  0  0
 37 44  1  0  0  0  0
 38 40  1  0  0  0  0
 39 38  1  0  0  0  0
 40 41  1  0  0  0  0
 40 42  2  0  0  0  0
 43 42  1  0  0  0  0
 44 43  2  0  0  0  0
M  END
>  <minimizedAffinity>
-5.0614233

>  <minimizedRMSD>
1.57047129

$$$$
