
 OpenBabel03252505523D

 24 25  0  0  0  0  0  0  0  0999 V2000
   38.7860   31.4470   41.0130 C   0  0  0  0  0  0  0  0  0  0  0  0
   37.6100   31.7410   40.3100 C   0  0  0  0  0  0  0  0  0  0  0  0
   36.4650   31.0130   40.6210 C   0  0  0  0  0  0  0  0  0  0  0  0
   36.5340   30.0600   41.5800 N   0  0  0  0  0  0  0  0  0  0  0  0
   37.6880   29.8040   42.2370 C   0  0  0  0  0  0  0  0  0  0  0  0
   38.8030   30.4820   41.9650 N   0  0  0  0  0  0  0  0  0  0  0  0
   39.6920   32.0000   40.7890 H   0  0  0  0  0  0  0  0  0  0  0  0
   35.5700   31.2570   40.0660 H   0  0  0  0  0  0  0  0  0  0  0  0
   37.6870   32.8190   39.2790 C   0  0  0  0  0  0  0  0  0  0  0  0
   39.0330   33.1130   39.1520 F   0  0  0  0  0  0  0  0  0  0  0  0
   36.9860   33.9000   39.7540 F   0  0  0  0  0  0  0  0  0  0  0  0
   37.1430   32.3160   38.1060 F   0  0  0  0  0  0  0  0  0  0  0  0
   37.7440   28.8280   43.2130 O   0  0  0  0  0  0  0  0  0  0  0  0
   38.7550   27.8620   43.3040 C   0  0  0  0  0  0  0  0  0  0  0  0
   39.6280   28.1790   42.7300 H   0  0  0  0  0  0  0  0  0  0  0  0
   39.0740   27.7100   44.3610 H   0  0  0  0  0  0  0  0  0  0  0  0
   38.3580   26.5290   42.7860 C   0  0  0  0  0  0  0  0  0  0  0  0
   37.1250   26.1070   42.3930 C   0  0  0  0  0  0  0  0  0  0  0  0
   36.3460   26.8260   42.4690 H   0  0  0  0  0  0  0  0  0  0  0  0
   36.9070   24.8260   41.9300 C   0  0  0  0  0  0  0  0  0  0  0  0
   35.8820   24.6110   41.6480 H   0  0  0  0  0  0  0  0  0  0  0  0
   37.9780   23.9580   41.8660 C   0  0  0  0  0  3  0  0  0  0  0  0
   39.2190   24.4140   42.2710 C   0  0  0  0  0  3  0  0  0  0  0  0
   39.4000   25.6770   42.7220 N   0  0  0  0  0  0  0  0  0  0  0  0
  1  6  1  0  0  0  0
  2  3  1  0  0  0  0
  2  1  2  0  0  0  0
  3  4  2  0  0  0  0
  4  5  1  0  0  0  0
  5 13  1  0  0  0  0
  6  5  2  0  0  0  0
  7  1  1  0  0  0  0
  8  3  1  0  0  0  0
  9 11  1  0  0  0  0
  9  2  1  0  0  0  0
 10  9  1  0  0  0  0
 12  9  1  0  0  0  0
 13 14  1  0  0  0  0
 14 16  1  0  0  0  0
 15 14  1  0  0  0  0
 17 14  1  0  0  0  0
 18 19  1  0  0  0  0
 18 17  2  0  0  0  0
 20 18  1  0  0  0  0
 21 20  1  0  0  0  0
 22 20  2  0  0  0  0
 22 23  1  0  0  0  0
 23 24  2  0  0  0  0
 24 17  1  0  0  0  0
M  END
>  <minimizedAffinity>
-5.11067009

$$$$

 OpenBabel03252505523D

 24 25  0  0  0  0  0  0  0  0999 V2000
   36.5340   31.1450   40.5810 C   0  0  0  0  0  0  0  0  0  0  0  0
   37.7480   31.8000   40.3330 C   0  0  0  0  0  0  0  0  0  0  0  0
   38.8650   31.4000   41.0610 C   0  0  0  0  0  0  0  0  0  0  0  0
   38.7340   30.4060   41.9710 N   0  0  0  0  0  0  0  0  0  0  0  0
   37.5440   29.7980   42.1840 C   0  0  0  0  0  0  0  0  0  0  0  0
   36.4540   30.1550   41.5040 N   0  0  0  0  0  0  0  0  0  0  0  0
   35.6490   31.4390   40.0270 H   0  0  0  0  0  0  0  0  0  0  0  0
   39.7900   31.9190   40.8530 H   0  0  0  0  0  0  0  0  0  0  0  0
   37.7390   32.8780   39.3000 C   0  0  0  0  0  0  0  0  0  0  0  0
   37.2420   32.2850   38.1520 F   0  0  0  0  0  0  0  0  0  0  0  0
   39.0350   33.2950   39.1220 F   0  0  0  0  0  0  0  0  0  0  0  0
   36.9190   33.8970   39.7640 F   0  0  0  0  0  0  0  0  0  0  0  0
   37.4250   28.7850   43.1150 O   0  0  0  0  0  0  0  0  0  0  0  0
   38.4330   27.8560   43.4030 C   0  0  0  0  0  0  0  0  0  0  0  0
   39.3890   28.2070   43.0060 H   0  0  0  0  0  0  0  0  0  0  0  0
   38.5480   27.7140   44.5020 H   0  0  0  0  0  0  0  0  0  0  0  0
   38.1940   26.5110   42.8240 C   0  0  0  0  0  0  0  0  0  0  0  0
   37.0400   26.0060   42.3080 C   0  0  0  0  0  0  0  0  0  0  0  0
   36.2030   26.6610   42.3220 H   0  0  0  0  0  0  0  0  0  0  0  0
   36.9680   24.7250   41.8010 C   0  0  0  0  0  0  0  0  0  0  0  0
   35.9940   24.4390   41.4190 H   0  0  0  0  0  0  0  0  0  0  0  0
   38.1050   23.9440   41.8230 C   0  0  0  0  0  3  0  0  0  0  0  0
   39.2630   24.4830   42.3540 C   0  0  0  0  0  3  0  0  0  0  0  0
   39.3010   25.7440   42.8440 N   0  0  0  0  0  0  0  0  0  0  0  0
  1  6  1  0  0  0  0
  2  1  2  0  0  0  0
  2  3  1  0  0  0  0
  3  4  2  0  0  0  0
  4  5  1  0  0  0  0
  5 13  1  0  0  0  0
  6  5  2  0  0  0  0
  7  1  1  0  0  0  0
  8  3  1  0  0  0  0
  9 12  1  0  0  0  0
  9  2  1  0  0  0  0
 10  9  1  0  0  0  0
 11  9  1  0  0  0  0
 13 14  1  0  0  0  0
 14 16  1  0  0  0  0
 15 14  1  0  0  0  0
 17 24  1  0  0  0  0
 17 14  1  0  0  0  0
 18 19  1  0  0  0  0
 18 17  2  0  0  0  0
 20 22  2  0  0  0  0
 20 18  1  0  0  0  0
 21 20  1  0  0  0  0
 22 23  1  0  0  0  0
 23 24  2  0  0  0  0
M  END
>  <minimizedAffinity>
-5.03735924

$$$$

 OpenBabel03252505523D

 24 25  0  0  0  0  0  0  0  0999 V2000
   38.9440   26.8520   41.6860 C   0  0  0  0  0  0  0  0  0  0  0  0
   37.8270   26.3480   42.3670 C   0  0  0  0  0  0  0  0  0  0  0  0
   37.1280   27.2120   43.2040 C   0  0  0  0  0  0  0  0  0  0  0  0
   37.5510   28.4920   43.3270 N   0  0  0  0  0  0  0  0  0  0  0  0
   38.6350   28.9430   42.6540 C   0  0  0  0  0  0  0  0  0  0  0  0
   39.3280   28.1420   41.8430 N   0  0  0  0  0  0  0  0  0  0  0  0
   39.5060   26.1980   41.0290 H   0  0  0  0  0  0  0  0  0  0  0  0
   36.2700   26.8010   43.7180 H   0  0  0  0  0  0  0  0  0  0  0  0
   37.4800   24.9140   42.1320 C   0  0  0  0  0  0  0  0  0  0  0  0
   38.4400   24.1850   42.8130 F   0  0  0  0  0  0  0  0  0  0  0  0
   37.5480   24.6840   40.7810 F   0  0  0  0  0  0  0  0  0  0  0  0
   36.2030   24.7050   42.6370 F   0  0  0  0  0  0  0  0  0  0  0  0
   39.0570   30.2520   42.7880 O   0  0  0  0  0  0  0  0  0  0  0  0
   39.7360   30.9660   41.7920 C   0  0  0  0  0  0  0  0  0  0  0  0
   40.4970   31.6060   42.2440 H   0  0  0  0  0  0  0  0  0  0  0  0
   40.2440   30.2790   41.0780 H   0  0  0  0  0  0  0  0  0  0  0  0
   38.8580   31.8470   40.9820 C   0  0  0  0  0  0  0  0  0  0  0  0
   37.7650   31.5040   40.2450 C   0  0  0  0  0  0  0  0  0  0  0  0
   37.5090   30.4730   40.2520 H   0  0  0  0  0  0  0  0  0  0  0  0
   37.0430   32.4410   39.5360 C   0  0  0  0  0  0  0  0  0  0  0  0
   36.1950   32.0450   38.9890 H   0  0  0  0  0  0  0  0  0  0  0  0
   37.4490   33.7590   39.5830 C   0  0  0  0  0  3  0  0  0  0  0  0
   38.5630   34.0780   40.3390 C   0  0  0  0  0  3  0  0  0  0  0  0
   39.2500   33.1350   41.0240 N   0  0  0  0  0  0  0  0  0  0  0  0
  1  6  2  0  0  0  0
  1  2  1  0  0  0  0
  2  3  2  0  0  0  0
  3  4  1  0  0  0  0
  3  8  1  0  0  0  0
  5 13  1  0  0  0  0
  5  4  2  0  0  0  0
  6  5  1  0  0  0  0
  7  1  1  0  0  0  0
  9  2  1  0  0  0  0
  9 12  1  0  0  0  0
  9 10  1  0  0  0  0
 11  9  1  0  0  0  0
 14 15  1  0  0  0  0
 14 13  1  0  0  0  0
 16 14  1  0  0  0  0
 17 24  1  0  0  0  0
 17 14  1  0  0  0  0
 18 19  1  0  0  0  0
 18 17  2  0  0  0  0
 20 22  2  0  0  0  0
 20 18  1  0  0  0  0
 21 20  1  0  0  0  0
 22 23  1  0  0  0  0
 23 24  2  0  0  0  0
M  END
>  <minimizedAffinity>
-4.88897896

$$$$

 OpenBabel03252505523D

 24 25  0  0  0  0  0  0  0  0999 V2000
   38.3150   27.7210   41.0550 C   0  0  0  0  0  0  0  0  0  0  0  0
   37.0850   27.7350   41.7270 C   0  0  0  0  0  0  0  0  0  0  0  0
   36.0610   28.5160   41.1990 C   0  0  0  0  0  0  0  0  0  0  0  0
   36.2930   29.2250   40.0690 N   0  0  0  0  0  0  0  0  0  0  0  0
   37.4950   29.1880   39.4490 C   0  0  0  0  0  0  0  0  0  0  0  0
   38.4970   28.4500   39.9270 N   0  0  0  0  0  0  0  0  0  0  0  0
   39.1280   27.1210   41.4470 H   0  0  0  0  0  0  0  0  0  0  0  0
   35.1220   28.5100   41.7340 H   0  0  0  0  0  0  0  0  0  0  0  0
   36.9770   26.9010   42.9620 C   0  0  0  0  0  0  0  0  0  0  0  0
   35.8860   27.4020   43.6510 F   0  0  0  0  0  0  0  0  0  0  0  0
   38.1350   27.0670   43.6790 F   0  0  0  0  0  0  0  0  0  0  0  0
   36.7900   25.5850   42.5640 F   0  0  0  0  0  0  0  0  0  0  0  0
   37.7180   29.9160   38.2960 O   0  0  0  0  0  0  0  0  0  0  0  0
   37.2440   31.2170   38.0820 C   0  0  0  0  0  0  0  0  0  0  0  0
   37.3060   31.4680   37.0210 H   0  0  0  0  0  0  0  0  0  0  0  0
   36.1800   31.3150   38.3980 H   0  0  0  0  0  0  0  0  0  0  0  0
   38.0020   32.2610   38.8160 C   0  0  0  0  0  0  0  0  0  0  0  0
   37.5250   33.2110   39.6660 C   0  0  0  0  0  0  0  0  0  0  0  0
   36.4740   33.2040   39.8240 H   0  0  0  0  0  0  0  0  0  0  0  0
   38.3590   34.1230   40.2800 C   0  0  0  0  0  0  0  0  0  0  0  0
   37.8600   34.8290   40.9340 H   0  0  0  0  0  0  0  0  0  0  0  0
   39.7120   34.0590   40.0170 C   0  0  0  0  0  3  0  0  0  0  0  0
   40.1680   33.0830   39.1490 C   0  0  0  0  0  3  0  0  0  0  0  0
   39.3240   32.2030   38.5630 N   0  0  0  0  0  0  0  0  0  0  0  0
  1  7  1  0  0  0  0
  1  2  1  0  0  0  0
  2  9  1  0  0  0  0
  3  2  2  0  0  0  0
  3  8  1  0  0  0  0
  4  3  1  0  0  0  0
  5  6  1  0  0  0  0
  5  4  2  0  0  0  0
  6  1  2  0  0  0  0
  9 10  1  0  0  0  0
  9 11  1  0  0  0  0
 12  9  1  0  0  0  0
 13  5  1  0  0  0  0
 14 13  1  0  0  0  0
 14 16  1  0  0  0  0
 14 17  1  0  0  0  0
 15 14  1  0  0  0  0
 17 18  1  0  0  0  0
 18 19  1  0  0  0  0
 18 20  2  0  0  0  0
 20 21  1  0  0  0  0
 22 20  1  0  0  0  0
 23 22  2  0  0  0  0
 24 17  2  0  0  0  0
 24 23  1  0  0  0  0
M  END
>  <minimizedAffinity>
-4.80303669

$$$$

 OpenBabel03252505523D

 24 25  0  0  0  0  0  0  0  0999 V2000
   39.1440   27.1670   41.7850 C   0  0  0  0  0  0  0  0  0  0  0  0
   38.2700   26.2090   42.3170 C   0  0  0  0  0  0  0  0  0  0  0  0
   36.9970   26.6270   42.6960 C   0  0  0  0  0  0  0  0  0  0  0  0
   36.6600   27.9280   42.5390 N   0  0  0  0  0  0  0  0  0  0  0  0
   37.5320   28.8240   42.0230 C   0  0  0  0  0  0  0  0  0  0  0  0
   38.7590   28.4590   41.6480 N   0  0  0  0  0  0  0  0  0  0  0  0
   40.1410   26.8660   41.4830 H   0  0  0  0  0  0  0  0  0  0  0  0
   36.3410   25.8710   43.1030 H   0  0  0  0  0  0  0  0  0  0  0  0
   38.7820   24.8100   42.4300 C   0  0  0  0  0  0  0  0  0  0  0  0
   39.5630   24.7950   43.5730 F   0  0  0  0  0  0  0  0  0  0  0  0
   39.5340   24.5500   41.3120 F   0  0  0  0  0  0  0  0  0  0  0  0
   37.6830   23.9690   42.5310 F   0  0  0  0  0  0  0  0  0  0  0  0
   37.1750   30.1500   41.8670 O   0  0  0  0  0  0  0  0  0  0  0  0
   36.1690   30.5990   41.0020 C   0  0  0  0  0  0  0  0  0  0  0  0
   35.3320   29.8960   41.0050 H   0  0  0  0  0  0  0  0  0  0  0  0
   35.7820   31.5960   41.3160 H   0  0  0  0  0  0  0  0  0  0  0  0
   36.6090   30.7390   39.5920 C   0  0  0  0  0  0  0  0  0  0  0  0
   37.3690   31.7240   39.0380 C   0  0  0  0  0  0  0  0  0  0  0  0
   37.6880   32.4890   39.7020 H   0  0  0  0  0  0  0  0  0  0  0  0
   37.6990   31.7210   37.6980 C   0  0  0  0  0  0  0  0  0  0  0  0
   38.3090   32.5580   37.3770 H   0  0  0  0  0  0  0  0  0  0  0  0
   37.2410   30.6860   36.9090 C   0  0  0  0  0  3  0  0  0  0  0  0
   36.4700   29.7010   37.4990 C   0  0  0  0  0  3  0  0  0  0  0  0
   36.1630   29.7320   38.8170 N   0  0  0  0  0  0  0  0  0  0  0  0
  1  2  1  0  0  0  0
  2  9  1  0  0  0  0
  2  3  2  0  0  0  0
  3  8  1  0  0  0  0
  4  3  1  0  0  0  0
  5  4  2  0  0  0  0
  6  1  2  0  0  0  0
  6  5  1  0  0  0  0
  7  1  1  0  0  0  0
  9 12  1  0  0  0  0
  9 10  1  0  0  0  0
 11  9  1  0  0  0  0
 13  5  1  0  0  0  0
 14 15  1  0  0  0  0
 14 16  1  0  0  0  0
 14 13  1  0  0  0  0
 17 14  1  0  0  0  0
 18 17  1  0  0  0  0
 18 19  1  0  0  0  0
 20 18  2  0  0  0  0
 21 20  1  0  0  0  0
 22 23  2  0  0  0  0
 22 20  1  0  0  0  0
 23 24  1  0  0  0  0
 24 17  2  0  0  0  0
M  END
>  <minimizedAffinity>
-4.66848707

$$$$

 OpenBabel03252505523D

 24 25  0  0  0  0  0  0  0  0999 V2000
   37.2990   31.2210   38.4740 C   0  0  0  0  0  0  0  0  0  0  0  0
   37.2100   31.8940   39.7000 C   0  0  0  0  0  0  0  0  0  0  0  0
   36.5110   31.2770   40.7340 C   0  0  0  0  0  0  0  0  0  0  0  0
   35.9490   30.0650   40.5140 N   0  0  0  0  0  0  0  0  0  0  0  0
   36.0560   29.4470   39.3150 C   0  0  0  0  0  0  0  0  0  0  0  0
   36.7190   30.0080   38.3040 N   0  0  0  0  0  0  0  0  0  0  0  0
   37.8390   31.6810   37.6540 H   0  0  0  0  0  0  0  0  0  0  0  0
   36.4560   31.8150   41.6700 H   0  0  0  0  0  0  0  0  0  0  0  0
   37.8810   33.2260   39.7940 C   0  0  0  0  0  0  0  0  0  0  0  0
   36.9290   34.1470   39.3910 F   0  0  0  0  0  0  0  0  0  0  0  0
   38.9540   33.2130   38.9390 F   0  0  0  0  0  0  0  0  0  0  0  0
   38.2640   33.4080   41.1160 F   0  0  0  0  0  0  0  0  0  0  0  0
   35.4780   28.2100   39.1040 O   0  0  0  0  0  0  0  0  0  0  0  0
   36.1950   27.0490   38.7860 C   0  0  0  0  0  0  0  0  0  0  0  0
   35.6060   26.4160   38.1180 H   0  0  0  0  0  0  0  0  0  0  0  0
   37.1530   27.2950   38.2710 H   0  0  0  0  0  0  0  0  0  0  0  0
   36.5490   26.2200   39.9650 C   0  0  0  0  0  0  0  0  0  0  0  0
   37.0810   26.6220   41.1520 C   0  0  0  0  0  0  0  0  0  0  0  0
   37.2670   27.6640   41.2450 H   0  0  0  0  0  0  0  0  0  0  0  0
   37.3600   25.7270   42.1650 C   0  0  0  0  0  0  0  0  0  0  0  0
   37.7820   26.1690   43.0610 H   0  0  0  0  0  0  0  0  0  0  0  0
   37.0870   24.3910   41.9560 C   0  0  0  0  0  3  0  0  0  0  0  0
   36.5470   24.0120   40.7400 C   0  0  0  0  0  3  0  0  0  0  0  0
   36.2850   24.9140   39.7670 N   0  0  0  0  0  0  0  0  0  0  0  0
  1  2  1  0  0  0  0
  2  9  1  0  0  0  0
  2  3  2  0  0  0  0
  3  8  1  0  0  0  0
  4  3  1  0  0  0  0
  5  4  2  0  0  0  0
  6  1  2  0  0  0  0
  6  5  1  0  0  0  0
  7  1  1  0  0  0  0
  9 12  1  0  0  0  0
 10  9  1  0  0  0  0
 11  9  1  0  0  0  0
 13  5  1  0  0  0  0
 14 13  1  0  0  0  0
 14 17  1  0  0  0  0
 15 14  1  0  0  0  0
 16 14  1  0  0  0  0
 17 18  1  0  0  0  0
 18 19  1  0  0  0  0
 18 20  2  0  0  0  0
 20 21  1  0  0  0  0
 22 20  1  0  0  0  0
 23 22  2  0  0  0  0
 24 17  2  0  0  0  0
 24 23  1  0  0  0  0
M  END
>  <minimizedAffinity>
-4.59298944

$$$$

 OpenBabel03252505523D

 24 25  0  0  0  0  0  0  0  0999 V2000
   39.2330   26.9020   41.8700 C   0  0  0  0  0  0  0  0  0  0  0  0
   38.4030   25.8530   42.2890 C   0  0  0  0  0  0  0  0  0  0  0  0
   37.1070   26.1670   42.6880 C   0  0  0  0  0  0  0  0  0  0  0  0
   36.7060   27.4590   42.6570 N   0  0  0  0  0  0  0  0  0  0  0  0
   37.5370   28.4450   42.2470 C   0  0  0  0  0  0  0  0  0  0  0  0
   38.7840   28.1800   41.8570 N   0  0  0  0  0  0  0  0  0  0  0  0
   40.2470   26.6830   41.5540 H   0  0  0  0  0  0  0  0  0  0  0  0
   36.4860   25.3420   43.0070 H   0  0  0  0  0  0  0  0  0  0  0  0
   38.9850   24.4770   42.2690 C   0  0  0  0  0  0  0  0  0  0  0  0
   39.9210   24.4870   41.2500 F   0  0  0  0  0  0  0  0  0  0  0  0
   37.9660   23.5980   42.0000 F   0  0  0  0  0  0  0  0  0  0  0  0
   39.5600   24.2490   43.5120 F   0  0  0  0  0  0  0  0  0  0  0  0
   37.1140   29.7600   42.2200 O   0  0  0  0  0  0  0  0  0  0  0  0
   37.1060   30.5620   41.0710 C   0  0  0  0  0  0  0  0  0  0  0  0
   36.7240   31.5560   41.3110 H   0  0  0  0  0  0  0  0  0  0  0  0
   38.1330   30.6790   40.6540 H   0  0  0  0  0  0  0  0  0  0  0  0
   36.2620   30.0290   39.9730 C   0  0  0  0  0  0  0  0  0  0  0  0
   35.0520   29.4100   40.0620 C   0  0  0  0  0  0  0  0  0  0  0  0
   34.6640   29.2950   41.0440 H   0  0  0  0  0  0  0  0  0  0  0  0
   34.3800   28.9630   38.9430 C   0  0  0  0  0  0  0  0  0  0  0  0
   33.4260   28.4870   39.1430 H   0  0  0  0  0  0  0  0  0  0  0  0
   34.9600   29.1550   37.7060 C   0  0  0  0  0  3  0  0  0  0  0  0
   36.1900   29.7860   37.6470 C   0  0  0  0  0  3  0  0  0  0  0  0
   36.8240   30.2130   38.7630 N   0  0  0  0  0  0  0  0  0  0  0  0
  1  2  1  0  0  0  0
  2  3  2  0  0  0  0
  3  8  1  0  0  0  0
  4  3  1  0  0  0  0
  5  4  2  0  0  0  0
  6  1  2  0  0  0  0
  6  5  1  0  0  0  0
  7  1  1  0  0  0  0
  9  2  1  0  0  0  0
  9 12  1  0  0  0  0
 10  9  1  0  0  0  0
 11  9  1  0  0  0  0
 13  5  1  0  0  0  0
 14 15  1  0  0  0  0
 14 13  1  0  0  0  0
 16 14  1  0  0  0  0
 17 18  1  0  0  0  0
 17 14  1  0  0  0  0
 18 19  1  0  0  0  0
 20 21  1  0  0  0  0
 20 18  2  0  0  0  0
 22 20  1  0  0  0  0
 23 22  2  0  0  0  0
 23 24  1  0  0  0  0
 24 17  2  0  0  0  0
M  END
>  <minimizedAffinity>
-4.57244301

$$$$

 OpenBabel03252505523D

 24 25  0  0  0  0  0  0  0  0999 V2000
   37.2680   26.2870   40.6250 C   0  0  0  0  0  0  0  0  0  0  0  0
   37.7670   26.0560   41.9140 C   0  0  0  0  0  0  0  0  0  0  0  0
   37.5370   27.0250   42.8860 C   0  0  0  0  0  0  0  0  0  0  0  0
   36.8470   28.1400   42.5510 N   0  0  0  0  0  0  0  0  0  0  0  0
   36.3810   28.3290   41.2950 C   0  0  0  0  0  0  0  0  0  0  0  0
   36.5830   27.4210   40.3390 N   0  0  0  0  0  0  0  0  0  0  0  0
   37.4340   25.5470   39.8500 H   0  0  0  0  0  0  0  0  0  0  0  0
   37.9310   26.8240   43.8730 H   0  0  0  0  0  0  0  0  0  0  0  0
   38.5090   24.7780   42.1360 C   0  0  0  0  0  0  0  0  0  0  0  0
   37.5340   23.8090   42.3000 F   0  0  0  0  0  0  0  0  0  0  0  0
   39.2600   24.9250   43.2750 F   0  0  0  0  0  0  0  0  0  0  0  0
   39.2950   24.5510   41.0140 F   0  0  0  0  0  0  0  0  0  0  0  0
   35.6790   29.4720   40.9650 O   0  0  0  0  0  0  0  0  0  0  0  0
   36.2110   30.7670   41.0220 C   0  0  0  0  0  0  0  0  0  0  0  0
   35.4060   31.5040   40.9760 H   0  0  0  0  0  0  0  0  0  0  0  0
   36.7740   30.9310   41.9700 H   0  0  0  0  0  0  0  0  0  0  0  0
   37.1470   31.0810   39.9140 C   0  0  0  0  0  0  0  0  0  0  0  0
   36.8830   31.1550   38.5800 C   0  0  0  0  0  0  0  0  0  0  0  0
   35.8770   30.9640   38.2970 H   0  0  0  0  0  0  0  0  0  0  0  0
   37.8650   31.4590   37.6600 C   0  0  0  0  0  0  0  0  0  0  0  0
   37.5310   31.4880   36.6290 H   0  0  0  0  0  0  0  0  0  0  0  0
   39.1460   31.6930   38.1170 C   0  0  0  0  0  3  0  0  0  0  0  0
   39.3840   31.6090   39.4780 C   0  0  0  0  0  3  0  0  0  0  0  0
   38.3990   31.3090   40.3550 N   0  0  0  0  0  0  0  0  0  0  0  0
  1  2  1  0  0  0  0
  2  9  1  0  0  0  0
  2  3  2  0  0  0  0
  3  8  1  0  0  0  0
  4  3  1  0  0  0  0
  5  4  2  0  0  0  0
  6  1  2  0  0  0  0
  6  5  1  0  0  0  0
  7  1  1  0  0  0  0
  9 10  1  0  0  0  0
  9 11  1  0  0  0  0
 12  9  1  0  0  0  0
 13 14  1  0  0  0  0
 13  5  1  0  0  0  0
 14 16  1  0  0  0  0
 15 14  1  0  0  0  0
 17 24  1  0  0  0  0
 17 14  1  0  0  0  0
 18 17  2  0  0  0  0
 19 18  1  0  0  0  0
 20 22  2  0  0  0  0
 20 18  1  0  0  0  0
 21 20  1  0  0  0  0
 22 23  1  0  0  0  0
 23 24  2  0  0  0  0
M  END
>  <minimizedAffinity>
-4.48688984

$$$$

 OpenBabel03252505523D

 24 25  0  0  0  0  0  0  0  0999 V2000
   38.7250   31.7250   38.3900 C   0  0  0  0  0  0  0  0  0  0  0  0
   39.7700   32.3640   39.0700 C   0  0  0  0  0  0  0  0  0  0  0  0
   39.6430   32.5420   40.4440 C   0  0  0  0  0  0  0  0  0  0  0  0
   38.5250   32.0950   41.0630 N   0  0  0  0  0  0  0  0  0  0  0  0
   37.5350   31.4830   40.3730 C   0  0  0  0  0  0  0  0  0  0  0  0
   37.6250   31.2950   39.0560 N   0  0  0  0  0  0  0  0  0  0  0  0
   38.8000   31.5750   37.3190 H   0  0  0  0  0  0  0  0  0  0  0  0
   40.4620   33.0380   40.9470 H   0  0  0  0  0  0  0  0  0  0  0  0
   40.9420   32.8030   38.2540 C   0  0  0  0  0  0  0  0  0  0  0  0
   42.0300   32.1240   38.7760 F   0  0  0  0  0  0  0  0  0  0  0  0
   41.0790   34.1590   38.4170 F   0  0  0  0  0  0  0  0  0  0  0  0
   40.6870   32.4560   36.9350 F   0  0  0  0  0  0  0  0  0  0  0  0
   36.3990   31.0320   41.0160 O   0  0  0  0  0  0  0  0  0  0  0  0
   35.9090   29.7220   40.9240 C   0  0  0  0  0  0  0  0  0  0  0  0
   34.8780   29.6820   41.2830 H   0  0  0  0  0  0  0  0  0  0  0  0
   35.9210   29.3610   39.8700 H   0  0  0  0  0  0  0  0  0  0  0  0
   36.6810   28.7350   41.7190 C   0  0  0  0  0  0  0  0  0  0  0  0
   37.3240   28.9220   42.9050 C   0  0  0  0  0  0  0  0  0  0  0  0
   37.2650   29.9020   43.3120 H   0  0  0  0  0  0  0  0  0  0  0  0
   38.0080   27.9010   43.5310 C   0  0  0  0  0  0  0  0  0  0  0  0
   38.4790   28.1750   44.4690 H   0  0  0  0  0  0  0  0  0  0  0  0
   38.0320   26.6590   42.9290 C   0  0  0  0  0  3  0  0  0  0  0  0
   37.3710   26.4990   41.7250 C   0  0  0  0  0  3  0  0  0  0  0  0
   36.7090   27.5210   41.1360 N   0  0  0  0  0  0  0  0  0  0  0  0
  1  6  2  0  0  0  0
  1  2  1  0  0  0  0
  2  3  2  0  0  0  0
  3  8  1  0  0  0  0
  3  4  1  0  0  0  0
  5 13  1  0  0  0  0
  5  4  2  0  0  0  0
  6  5  1  0  0  0  0
  7  1  1  0  0  0  0
  9 11  1  0  0  0  0
  9 10  1  0  0  0  0
  9  2  1  0  0  0  0
 12  9  1  0  0  0  0
 14 13  1  0  0  0  0
 14 15  1  0  0  0  0
 14 17  1  0  0  0  0
 16 14  1  0  0  0  0
 17 18  1  0  0  0  0
 18 19  1  0  0  0  0
 18 20  2  0  0  0  0
 20 21  1  0  0  0  0
 22 20  1  0  0  0  0
 23 22  2  0  0  0  0
 24 17  2  0  0  0  0
 24 23  1  0  0  0  0
M  END
>  <minimizedAffinity>
-4.39399529

$$$$
