
 OpenBabel03252504543D

 20 21  0  0  0  0  0  0  0  0999 V2000
   35.6310   29.4550   40.6680 C   0  0  0  0  0  0  0  0  0  0  0  0
   35.0120   28.7030   40.1560 H   0  0  0  0  0  0  0  0  0  0  0  0
   34.9900   30.1360   41.2930 H   0  0  0  0  0  0  0  0  0  0  0  0
   37.2260   30.5220   37.4790 C   0  0  0  0  0  0  0  0  0  0  0  0
   36.5790   29.7160   38.4340 C   0  0  0  0  0  0  0  0  0  0  0  0
   36.3010   30.2810   39.6670 C   0  0  0  0  0  0  0  0  0  0  0  0
   36.6660   31.5860   39.9030 N   0  0  0  0  0  0  0  0  0  0  0  0
   37.2910   32.3170   38.9350 C   0  0  0  0  0  0  0  0  0  0  0  0
   37.5680   31.7920   37.7380 N   0  0  0  0  0  0  0  0  0  0  0  0
   37.4220   30.0370   36.5270 H   0  0  0  0  0  0  0  0  0  0  0  0
   36.3040   28.6920   38.2180 H   0  0  0  0  0  0  0  0  0  0  0  0
   37.5170   33.3250   39.2640 H   0  0  0  0  0  0  0  0  0  0  0  0
   36.5510   28.7470   41.5810 C   0  0  0  0  0  0  0  0  0  0  0  0
   36.7520   27.3860   41.6540 C   0  0  0  0  0  0  0  0  0  0  0  0
   36.1560   26.7830   40.9530 H   0  0  0  0  0  0  0  0  0  0  0  0
   37.6320   26.8100   42.5410 C   0  0  0  0  0  0  0  0  0  0  0  0
   37.7270   25.7170   42.5270 H   0  0  0  0  0  0  0  0  0  0  0  0
   38.3730   27.5850   43.4170 C   0  0  0  0  0  3  0  0  0  0  0  0
   38.1500   28.9480   43.3210 C   0  0  0  0  0  3  0  0  0  0  0  0
   37.2860   29.4840   42.4500 N   0  0  0  0  0  0  0  0  0  0  0  0
  1  3  1  0  0  0  0
  1 13  1  0  0  0  0
  2  1  1  0  0  0  0
  4  9  2  0  0  0  0
  4  5  1  0  0  0  0
  5  6  2  0  0  0  0
  6  7  1  0  0  0  0
  6  1  1  0  0  0  0
  8 12  1  0  0  0  0
  8  7  2  0  0  0  0
  9  8  1  0  0  0  0
 10  4  1  0  0  0  0
 11  5  1  0  0  0  0
 13 14  2  0  0  0  0
 13 20  1  0  0  0  0
 14 16  1  0  0  0  0
 15 14  1  0  0  0  0
 16 18  2  0  0  0  0
 17 16  1  0  0  0  0
 19 18  1  0  0  0  0
 20 19  2  0  0  0  0
M  END
>  <minimizedAffinity>
-4.17238855

$$$$

 OpenBabel03252504543D

 20 21  0  0  0  0  0  0  0  0999 V2000
   37.7020   28.3540   43.6790 C   0  0  0  0  0  0  0  0  0  0  0  0
   36.6300   28.2150   43.8910 H   0  0  0  0  0  0  0  0  0  0  0  0
   38.2430   28.7120   44.5970 H   0  0  0  0  0  0  0  0  0  0  0  0
   39.2040   31.0180   41.5610 C   0  0  0  0  0  0  0  0  0  0  0  0
   39.0710   30.0320   42.5550 C   0  0  0  0  0  0  0  0  0  0  0  0
   37.8540   29.3790   42.6510 C   0  0  0  0  0  0  0  0  0  0  0  0
   36.8420   29.7180   41.7840 N   0  0  0  0  0  0  0  0  0  0  0  0
   37.0340   30.6850   40.8390 C   0  0  0  0  0  0  0  0  0  0  0  0
   38.2000   31.3270   40.7280 N   0  0  0  0  0  0  0  0  0  0  0  0
   40.1760   31.5030   41.5220 H   0  0  0  0  0  0  0  0  0  0  0  0
   39.8860   29.7880   43.2230 H   0  0  0  0  0  0  0  0  0  0  0  0
   36.1500   30.8440   40.2300 H   0  0  0  0  0  0  0  0  0  0  0  0
   38.2700   27.0410   43.3110 C   0  0  0  0  0  0  0  0  0  0  0  0
   39.5040   26.5470   43.6770 C   0  0  0  0  0  0  0  0  0  0  0  0
   40.1110   27.2140   44.3070 H   0  0  0  0  0  0  0  0  0  0  0  0
   39.9550   25.3070   43.2860 C   0  0  0  0  0  0  0  0  0  0  0  0
   40.9510   24.9980   43.6260 H   0  0  0  0  0  0  0  0  0  0  0  0
   39.1770   24.4820   42.4930 C   0  0  0  0  0  3  0  0  0  0  0  0
   37.9440   25.0040   42.1420 C   0  0  0  0  0  3  0  0  0  0  0  0
   37.5290   26.2140   42.5350 N   0  0  0  0  0  0  0  0  0  0  0  0
  1  2  1  0  0  0  0
  1  3  1  0  0  0  0
  4  5  1  0  0  0  0
  5  6  2  0  0  0  0
  5 11  1  0  0  0  0
  6  1  1  0  0  0  0
  7  6  1  0  0  0  0
  8  7  2  0  0  0  0
  9  8  1  0  0  0  0
  9  4  2  0  0  0  0
 10  4  1  0  0  0  0
 12  8  1  0  0  0  0
 13 14  1  0  0  0  0
 13  1  1  0  0  0  0
 14 15  1  0  0  0  0
 16 17  1  0  0  0  0
 16 14  2  0  0  0  0
 18 16  1  0  0  0  0
 19 18  2  0  0  0  0
 19 20  1  0  0  0  0
 20 13  2  0  0  0  0
M  END
>  <minimizedAffinity>
-4.10203934

$$$$

 OpenBabel03252504543D

 20 21  0  0  0  0  0  0  0  0999 V2000
   36.7990   27.3740   42.9190 C   0  0  0  0  0  0  0  0  0  0  0  0
   37.3280   27.7560   43.8050 H   0  0  0  0  0  0  0  0  0  0  0  0
   35.7830   26.9840   43.2030 H   0  0  0  0  0  0  0  0  0  0  0  0
   37.6440   23.9850   41.6340 C   0  0  0  0  0  0  0  0  0  0  0  0
   36.9030   25.0510   42.1750 C   0  0  0  0  0  0  0  0  0  0  0  0
   37.5560   26.2580   42.3570 C   0  0  0  0  0  0  0  0  0  0  0  0
   38.8820   26.3620   42.0070 N   0  0  0  0  0  0  0  0  0  0  0  0
   39.5460   25.2890   41.4860 C   0  0  0  0  0  0  0  0  0  0  0  0
   38.9360   24.1160   41.3020 N   0  0  0  0  0  0  0  0  0  0  0  0
   37.0900   23.0580   41.5080 H   0  0  0  0  0  0  0  0  0  0  0  0
   35.8600   24.9390   42.4410 H   0  0  0  0  0  0  0  0  0  0  0  0
   40.5820   25.5190   41.2590 H   0  0  0  0  0  0  0  0  0  0  0  0
   36.5990   28.4990   41.9830 C   0  0  0  0  0  0  0  0  0  0  0  0
   35.6520   28.5810   40.9850 C   0  0  0  0  0  0  0  0  0  0  0  0
   34.9890   27.7080   40.8920 H   0  0  0  0  0  0  0  0  0  0  0  0
   35.5370   29.6720   40.1550 C   0  0  0  0  0  0  0  0  0  0  0  0
   34.7530   29.6480   39.3890 H   0  0  0  0  0  0  0  0  0  0  0  0
   36.3820   30.7610   40.2880 C   0  0  0  0  0  3  0  0  0  0  0  0
   37.3220   30.6510   41.2970 C   0  0  0  0  0  3  0  0  0  0  0  0
   37.4130   29.5770   42.0910 N   0  0  0  0  0  0  0  0  0  0  0  0
  1  3  1  0  0  0  0
  1  2  1  0  0  0  0
  4  5  1  0  0  0  0
  5  6  2  0  0  0  0
  5 11  1  0  0  0  0
  6  1  1  0  0  0  0
  7  6  1  0  0  0  0
  8  7  2  0  0  0  0
  9  8  1  0  0  0  0
  9  4  2  0  0  0  0
 10  4  1  0  0  0  0
 12  8  1  0  0  0  0
 13 20  1  0  0  0  0
 13  1  1  0  0  0  0
 14 13  2  0  0  0  0
 15 14  1  0  0  0  0
 16 18  2  0  0  0  0
 16 14  1  0  0  0  0
 17 16  1  0  0  0  0
 18 19  1  0  0  0  0
 19 20  2  0  0  0  0
M  END
>  <minimizedAffinity>
-4.10006571

$$$$

 OpenBabel03252504543D

 20 21  0  0  0  0  0  0  0  0999 V2000
   35.5790   28.9520   40.8640 C   0  0  0  0  0  0  0  0  0  0  0  0
   34.8970   29.3990   41.6030 H   0  0  0  0  0  0  0  0  0  0  0  0
   35.0070   28.3160   40.1330 H   0  0  0  0  0  0  0  0  0  0  0  0
   37.8480   26.0950   41.5960 C   0  0  0  0  0  0  0  0  0  0  0  0
   36.9350   26.9240   40.9180 C   0  0  0  0  0  0  0  0  0  0  0  0
   36.5260   28.0830   41.5550 C   0  0  0  0  0  0  0  0  0  0  0  0
   37.0220   28.3700   42.8050 N   0  0  0  0  0  0  0  0  0  0  0  0
   37.9070   27.5250   43.4110 C   0  0  0  0  0  0  0  0  0  0  0  0
   38.3140   26.4010   42.8140 N   0  0  0  0  0  0  0  0  0  0  0  0
   38.1410   25.1980   41.0570 H   0  0  0  0  0  0  0  0  0  0  0  0
   36.5630   26.6710   39.9340 H   0  0  0  0  0  0  0  0  0  0  0  0
   38.2090   27.8800   44.3900 H   0  0  0  0  0  0  0  0  0  0  0  0
   36.2100   30.0480   40.1000 C   0  0  0  0  0  0  0  0  0  0  0  0
   36.5090   30.0480   38.7550 C   0  0  0  0  0  0  0  0  0  0  0  0
   36.2430   29.1280   38.2130 H   0  0  0  0  0  0  0  0  0  0  0  0
   37.1020   31.1170   38.1240 C   0  0  0  0  0  0  0  0  0  0  0  0
   37.3020   31.0270   37.0500 H   0  0  0  0  0  0  0  0  0  0  0  0
   37.4310   32.2650   38.8240 C   0  0  0  0  0  3  0  0  0  0  0  0
   37.1190   32.2370   40.1720 C   0  0  0  0  0  3  0  0  0  0  0  0
   36.5430   31.1830   40.7620 N   0  0  0  0  0  0  0  0  0  0  0  0
  1  6  1  0  0  0  0
  1  2  1  0  0  0  0
  3  1  1  0  0  0  0
  4  9  1  0  0  0  0
  5  6  1  0  0  0  0
  5  4  2  0  0  0  0
  6  7  2  0  0  0  0
  7  8  1  0  0  0  0
  8 12  1  0  0  0  0
  9  8  2  0  0  0  0
 10  4  1  0  0  0  0
 11  5  1  0  0  0  0
 13 20  1  0  0  0  0
 13  1  1  0  0  0  0
 14 13  2  0  0  0  0
 15 14  1  0  0  0  0
 16 14  1  0  0  0  0
 16 18  2  0  0  0  0
 17 16  1  0  0  0  0
 18 19  1  0  0  0  0
 19 20  2  0  0  0  0
M  END
>  <minimizedAffinity>
-4.09750652

$$$$

 OpenBabel03252504543D

 20 21  0  0  0  0  0  0  0  0999 V2000
   36.6100   27.7080   42.9930 C   0  0  0  0  0  0  0  0  0  0  0  0
   36.6770   28.2870   43.9270 H   0  0  0  0  0  0  0  0  0  0  0  0
   35.6730   27.0870   42.9790 H   0  0  0  0  0  0  0  0  0  0  0  0
   39.9520   26.1870   43.5990 C   0  0  0  0  0  0  0  0  0  0  0  0
   38.8660   27.0780   43.6800 C   0  0  0  0  0  0  0  0  0  0  0  0
   37.7450   26.7920   42.9200 C   0  0  0  0  0  0  0  0  0  0  0  0
   37.7400   25.6660   42.1300 N   0  0  0  0  0  0  0  0  0  0  0  0
   38.8260   24.8400   42.0950 C   0  0  0  0  0  0  0  0  0  0  0  0
   39.9180   25.0960   42.8200 N   0  0  0  0  0  0  0  0  0  0  0  0
   40.8090   26.4510   44.2130 H   0  0  0  0  0  0  0  0  0  0  0  0
   38.8990   27.9550   44.3110 H   0  0  0  0  0  0  0  0  0  0  0  0
   38.6790   23.9960   41.4300 H   0  0  0  0  0  0  0  0  0  0  0  0
   36.5300   28.6610   41.8670 C   0  0  0  0  0  0  0  0  0  0  0  0
   35.8280   28.4910   40.6940 C   0  0  0  0  0  0  0  0  0  0  0  0
   35.2780   27.5420   40.6060 H   0  0  0  0  0  0  0  0  0  0  0  0
   35.8100   29.4350   39.6930 C   0  0  0  0  0  0  0  0  0  0  0  0
   35.2220   29.2130   38.7940 H   0  0  0  0  0  0  0  0  0  0  0  0
   36.5090   30.6230   39.8200 C   0  0  0  0  0  3  0  0  0  0  0  0
   37.2050   30.7660   41.0080 C   0  0  0  0  0  3  0  0  0  0  0  0
   37.2070   29.8310   41.9660 N   0  0  0  0  0  0  0  0  0  0  0  0
  1  2  1  0  0  0  0
  3  1  1  0  0  0  0
  4  5  1  0  0  0  0
  4 10  1  0  0  0  0
  5 11  1  0  0  0  0
  6  1  1  0  0  0  0
  6  5  2  0  0  0  0
  7  6  1  0  0  0  0
  8  7  2  0  0  0  0
  8  9  1  0  0  0  0
  9  4  2  0  0  0  0
 12  8  1  0  0  0  0
 13 20  1  0  0  0  0
 13  1  1  0  0  0  0
 14 13  2  0  0  0  0
 15 14  1  0  0  0  0
 16 18  2  0  0  0  0
 16 14  1  0  0  0  0
 17 16  1  0  0  0  0
 18 19  1  0  0  0  0
 19 20  2  0  0  0  0
M  END
>  <minimizedAffinity>
-4.06978369

$$$$

 OpenBabel03252504543D

 20 21  0  0  0  0  0  0  0  0999 V2000
   36.7390   27.5290   42.9610 C   0  0  0  0  0  0  0  0  0  0  0  0
   35.7130   27.2300   43.2230 H   0  0  0  0  0  0  0  0  0  0  0  0
   37.2900   27.8910   43.8720 H   0  0  0  0  0  0  0  0  0  0  0  0
   35.6800   29.6720   40.1090 C   0  0  0  0  0  0  0  0  0  0  0  0
   35.7220   28.5980   41.0170 C   0  0  0  0  0  0  0  0  0  0  0  0
   36.6840   28.6380   42.0120 C   0  0  0  0  0  0  0  0  0  0  0  0
   37.5450   29.7080   42.0690 N   0  0  0  0  0  0  0  0  0  0  0  0
   37.4540   30.7210   41.1580 C   0  0  0  0  0  0  0  0  0  0  0  0
   36.5330   30.7030   40.1900 N   0  0  0  0  0  0  0  0  0  0  0  0
   34.9090   29.5990   39.3470 H   0  0  0  0  0  0  0  0  0  0  0  0
   35.0300   27.7700   40.9460 H   0  0  0  0  0  0  0  0  0  0  0  0
   38.1960   31.4930   41.3270 H   0  0  0  0  0  0  0  0  0  0  0  0
   37.4500   26.3360   42.4550 C   0  0  0  0  0  0  0  0  0  0  0  0
   36.8940   25.1100   42.1630 C   0  0  0  0  0  0  0  0  0  0  0  0
   35.8090   25.0320   42.3300 H   0  0  0  0  0  0  0  0  0  0  0  0
   37.6340   24.0490   41.6950 C   0  0  0  0  0  0  0  0  0  0  0  0
   37.1050   23.1110   41.4890 H   0  0  0  0  0  0  0  0  0  0  0  0
   38.9980   24.1660   41.4910 C   0  0  0  0  0  3  0  0  0  0  0  0
   39.5290   25.4080   41.7930 C   0  0  0  0  0  3  0  0  0  0  0  0
   38.7860   26.4250   42.2480 N   0  0  0  0  0  0  0  0  0  0  0  0
  1  2  1  0  0  0  0
  1  3  1  0  0  0  0
  4  9  2  0  0  0  0
  4  5  1  0  0  0  0
  5  6  2  0  0  0  0
  6  7  1  0  0  0  0
  6  1  1  0  0  0  0
  8 12  1  0  0  0  0
  8  7  2  0  0  0  0
  9  8  1  0  0  0  0
 10  4  1  0  0  0  0
 11  5  1  0  0  0  0
 13  1  1  0  0  0  0
 14 15  1  0  0  0  0
 14 13  2  0  0  0  0
 16 14  1  0  0  0  0
 17 16  1  0  0  0  0
 18 16  2  0  0  0  0
 18 19  1  0  0  0  0
 19 20  2  0  0  0  0
 20 13  1  0  0  0  0
M  END
>  <minimizedAffinity>
-4.03598547

$$$$

 OpenBabel03252504543D

 20 21  0  0  0  0  0  0  0  0999 V2000
   36.4110   30.7740   40.9730 C   0  0  0  0  0  0  0  0  0  0  0  0
   35.6230   30.4700   40.2670 H   0  0  0  0  0  0  0  0  0  0  0  0
   36.0090   31.5080   41.7230 H   0  0  0  0  0  0  0  0  0  0  0  0
   38.9830   31.4910   38.3810 C   0  0  0  0  0  0  0  0  0  0  0  0
   37.9540   30.8370   39.0830 C   0  0  0  0  0  0  0  0  0  0  0  0
   37.4790   31.4410   40.2340 C   0  0  0  0  0  0  0  0  0  0  0  0
   38.0270   32.6360   40.6380 N   0  0  0  0  0  0  0  0  0  0  0  0
   39.0250   33.2220   39.9140 C   0  0  0  0  0  0  0  0  0  0  0  0
   39.4970   32.6570   38.7990 N   0  0  0  0  0  0  0  0  0  0  0  0
   39.3230   30.9810   37.4840 H   0  0  0  0  0  0  0  0  0  0  0  0
   37.5430   29.8970   38.7390 H   0  0  0  0  0  0  0  0  0  0  0  0
   39.3570   34.1570   40.3520 H   0  0  0  0  0  0  0  0  0  0  0  0
   36.8490   29.5730   41.7150 C   0  0  0  0  0  0  0  0  0  0  0  0
   36.2870   28.3170   41.6520 C   0  0  0  0  0  0  0  0  0  0  0  0
   35.4250   28.2190   40.9750 H   0  0  0  0  0  0  0  0  0  0  0  0
   36.7620   27.2520   42.3830 C   0  0  0  0  0  0  0  0  0  0  0  0
   36.2500   26.2880   42.2680 H   0  0  0  0  0  0  0  0  0  0  0  0
   37.8470   27.3940   43.2290 C   0  0  0  0  0  3  0  0  0  0  0  0
   38.3910   28.6660   43.2720 C   0  0  0  0  0  3  0  0  0  0  0  0
   37.9100   29.6870   42.5510 N   0  0  0  0  0  0  0  0  0  0  0  0
  1 13  1  0  0  0  0
  1  3  1  0  0  0  0
  2  1  1  0  0  0  0
  4  9  2  0  0  0  0
  4  5  1  0  0  0  0
  5  6  2  0  0  0  0
  6  7  1  0  0  0  0
  6  1  1  0  0  0  0
  8 12  1  0  0  0  0
  8  7  2  0  0  0  0
  9  8  1  0  0  0  0
 10  4  1  0  0  0  0
 11  5  1  0  0  0  0
 13 20  1  0  0  0  0
 14 13  2  0  0  0  0
 14 16  1  0  0  0  0
 15 14  1  0  0  0  0
 16 18  2  0  0  0  0
 17 16  1  0  0  0  0
 18 19  1  0  0  0  0
 20 19  2  0  0  0  0
M  END
>  <minimizedAffinity>
-3.99829531

$$$$

 OpenBabel03252504543D

 20 21  0  0  0  0  0  0  0  0999 V2000
   35.9170   30.0270   40.8160 C   0  0  0  0  0  0  0  0  0  0  0  0
   35.0260   29.4300   40.5670 H   0  0  0  0  0  0  0  0  0  0  0  0
   35.6250   30.9620   41.3680 H   0  0  0  0  0  0  0  0  0  0  0  0
   37.5430   32.1510   38.2280 C   0  0  0  0  0  0  0  0  0  0  0  0
   36.9090   31.7710   39.4250 C   0  0  0  0  0  0  0  0  0  0  0  0
   36.5760   30.4360   39.5780 C   0  0  0  0  0  0  0  0  0  0  0  0
   36.8730   29.5520   38.5680 N   0  0  0  0  0  0  0  0  0  0  0  0
   37.4900   29.9830   37.4290 C   0  0  0  0  0  0  0  0  0  0  0  0
   37.8200   31.2660   37.2610 N   0  0  0  0  0  0  0  0  0  0  0  0
   37.7860   33.2080   38.1530 H   0  0  0  0  0  0  0  0  0  0  0  0
   36.6890   32.4900   40.2030 H   0  0  0  0  0  0  0  0  0  0  0  0
   37.6590   29.1760   36.7230 H   0  0  0  0  0  0  0  0  0  0  0  0
   36.7700   29.2260   41.7170 C   0  0  0  0  0  0  0  0  0  0  0  0
   37.9680   29.6140   42.2780 C   0  0  0  0  0  0  0  0  0  0  0  0
   38.3050   30.6280   42.0140 H   0  0  0  0  0  0  0  0  0  0  0  0
   38.7000   28.7980   43.1100 C   0  0  0  0  0  0  0  0  0  0  0  0
   39.6410   29.1930   43.5100 H   0  0  0  0  0  0  0  0  0  0  0  0
   38.2590   27.5260   43.4290 C   0  0  0  0  0  3  0  0  0  0  0  0
   37.0540   27.1630   42.8520 C   0  0  0  0  0  3  0  0  0  0  0  0
   36.3620   27.9760   42.0450 N   0  0  0  0  0  0  0  0  0  0  0  0
  1  3  1  0  0  0  0
  1 13  1  0  0  0  0
  2  1  1  0  0  0  0
  4  5  1  0  0  0  0
  5  6  2  0  0  0  0
  5 11  1  0  0  0  0
  6  1  1  0  0  0  0
  7  6  1  0  0  0  0
  8  7  2  0  0  0  0
  9  8  1  0  0  0  0
  9  4  2  0  0  0  0
 10  4  1  0  0  0  0
 12  8  1  0  0  0  0
 13 20  2  0  0  0  0
 13 14  1  0  0  0  0
 14 16  2  0  0  0  0
 15 14  1  0  0  0  0
 16 18  1  0  0  0  0
 16 17  1  0  0  0  0
 19 18  2  0  0  0  0
 20 19  1  0  0  0  0
M  END
>  <minimizedAffinity>
-3.9909997

$$$$

 OpenBabel03252504543D

 20 21  0  0  0  0  0  0  0  0999 V2000
   39.2410   29.8610   40.6570 C   0  0  0  0  0  0  0  0  0  0  0  0
   40.2250   29.9800   41.1350 H   0  0  0  0  0  0  0  0  0  0  0  0
   39.3390   29.3030   39.6860 H   0  0  0  0  0  0  0  0  0  0  0  0
   38.7100   33.5440   40.6920 C   0  0  0  0  0  0  0  0  0  0  0  0
   39.2450   32.2780   40.9940 C   0  0  0  0  0  0  0  0  0  0  0  0
   38.6970   31.1810   40.3520 C   0  0  0  0  0  0  0  0  0  0  0  0
   37.6680   31.3720   39.4600 N   0  0  0  0  0  0  0  0  0  0  0  0
   37.1930   32.6270   39.2080 C   0  0  0  0  0  0  0  0  0  0  0  0
   37.7070   33.6990   39.8160 N   0  0  0  0  0  0  0  0  0  0  0  0
   39.1720   34.3750   41.2180 H   0  0  0  0  0  0  0  0  0  0  0  0
   40.0550   32.1590   41.7010 H   0  0  0  0  0  0  0  0  0  0  0  0
   36.3840   32.6220   38.4850 H   0  0  0  0  0  0  0  0  0  0  0  0
   38.3910   29.0490   41.5530 C   0  0  0  0  0  0  0  0  0  0  0  0
   38.2100   29.2350   42.9060 C   0  0  0  0  0  0  0  0  0  0  0  0
   38.7640   30.0780   43.3450 H   0  0  0  0  0  0  0  0  0  0  0  0
   37.3970   28.4270   43.6670 C   0  0  0  0  0  0  0  0  0  0  0  0
   37.3140   28.6510   44.7370 H   0  0  0  0  0  0  0  0  0  0  0  0
   36.7080   27.3700   43.0970 C   0  0  0  0  0  3  0  0  0  0  0  0
   36.9090   27.2080   41.7370 C   0  0  0  0  0  3  0  0  0  0  0  0
   37.7070   28.0080   41.0200 N   0  0  0  0  0  0  0  0  0  0  0  0
  1  2  1  0  0  0  0
  1 13  1  0  0  0  0
  3  1  1  0  0  0  0
  4  5  1  0  0  0  0
  4 10  1  0  0  0  0
  5 11  1  0  0  0  0
  6  1  1  0  0  0  0
  6  5  2  0  0  0  0
  7  6  1  0  0  0  0
  8  7  2  0  0  0  0
  8  9  1  0  0  0  0
  9  4  2  0  0  0  0
 12  8  1  0  0  0  0
 13 14  1  0  0  0  0
 14 15  1  0  0  0  0
 14 16  2  0  0  0  0
 16 17  1  0  0  0  0
 18 16  1  0  0  0  0
 19 18  2  0  0  0  0
 20 13  2  0  0  0  0
 20 19  1  0  0  0  0
M  END
>  <minimizedAffinity>
-3.95727205

$$$$
