
 OpenBabel03252507103D

 35 37  0  0  1  0  0  0  0  0999 V2000
   44.5130   35.5550   44.9790 C   0  0  0  0  0  0  0  0  0  0  0  0
   45.0420   35.7500   43.6890 C   0  0  0  0  0  0  0  0  0  0  0  0
   46.0840   34.9170   43.3090 C   0  0  0  0  0  0  0  0  0  0  0  0
   46.5390   33.9800   44.1640 N   0  0  0  0  0  0  0  0  0  0  0  0
   46.0210   33.8130   45.3850 C   0  0  0  0  0  0  0  0  0  0  0  0
   45.0020   34.6040   45.7990 N   0  0  0  0  0  0  0  0  0  0  0  0
   43.6940   36.2140   45.2710 H   0  0  0  0  0  0  0  0  0  0  0  0
   44.6090   36.5320   43.0720 H   0  0  0  0  0  0  0  0  0  0  0  0
   45.4810   32.4570   47.4290 C   0  0  1  0  0  0  0  0  0  0  0  0
   46.4790   32.8170   46.3690 C   0  0  1  0  0  0  0  0  0  0  0  0
   46.6260   31.4420   45.6960 C   0  0  0  0  0  0  0  0  0  0  0  0
   46.3860   30.5050   46.6500 O   0  0  0  0  0  0  0  0  0  0  0  0
   46.0800   31.1170   47.8560 C   0  0  0  0  0  0  0  0  0  0  0  0
   44.4860   32.1950   46.9670 H   0  0  0  0  0  0  0  0  0  0  0  0
   47.4290   33.1150   46.8400 H   0  0  0  0  0  0  0  0  0  0  0  0
   47.7100   31.3700   45.4380 H   0  0  0  0  0  0  0  0  0  0  0  0
   46.0700   31.3780   44.7650 H   0  0  0  0  0  0  0  0  0  0  0  0
   47.0120   31.2600   48.4380 H   0  0  0  0  0  0  0  0  0  0  0  0
   45.3160   30.5150   48.3880 H   0  0  0  0  0  0  0  0  0  0  0  0
   45.3630   33.3710   48.4340 O   0  0  0  0  0  0  0  0  0  0  0  0
   44.4260   33.5150   48.6990 H   0  0  0  0  0  0  0  0  0  0  0  0
   46.5990   35.1160   42.0340 O   0  0  0  0  0  0  0  0  0  0  0  0
   46.0530   32.6570   41.1780 O   0  0  0  0  0  0  0  0  0  0  0  0
   47.0880   33.7670   41.0890 P   0  0  1  0  0  0  0  0  0  0  0  0
   47.3190   34.2910   39.5160 O   0  0  0  0  0  0  0  0  0  0  0  0
   48.2230   34.1170   39.1690 H   0  0  0  0  0  0  0  0  0  0  0  0
   48.5400   33.2170   41.7630 O   0  0  0  0  0  0  0  0  0  0  0  0
   49.4820   32.5730   40.9680 C   0  0  0  0  0  0  0  0  0  0  0  0
   50.7140   32.3790   41.5740 C   0  0  0  0  0  0  0  0  0  0  0  0
   50.9240   32.7060   42.5910 H   0  0  0  0  0  0  0  0  0  0  0  0
   51.7470   31.7560   40.9130 C   0  0  0  0  0  0  0  0  0  0  0  0
   52.7120   31.6150   41.4160 H   0  0  0  0  0  0  0  0  0  0  0  0
   51.5650   31.3170   39.6360 C   0  0  0  0  0  0  0  0  0  0  0  0
   50.3190   31.5340   39.0750 C   0  0  0  0  0  0  0  0  0  0  0  0
   49.2920   32.1420   39.7050 N   0  0  0  0  0  0  0  0  0  0  0  0
  1  7  1  0  0  0  0
  1  6  1  0  0  0  0
  2  1  2  0  0  0  0
  3  2  1  0  0  0  0
  3  4  2  0  0  0  0
  4  5  1  0  0  0  0
  5  6  2  0  0  0  0
  5 10  1  0  0  0  0
  8  2  1  0  0  0  0
  9 14  1  6  0  0  0
  9 13  1  0  0  0  0
  9 20  1  0  0  0  0
 10 15  1  1  0  0  0
 10  9  1  0  0  0  0
 11 10  1  0  0  0  0
 11 12  1  0  0  0  0
 12 13  1  0  0  0  0
 13 19  1  0  0  0  0
 13 18  1  0  0  0  0
 16 11  1  0  0  0  0
 17 11  1  0  0  0  0
 20 21  1  0  0  0  0
 22  3  1  0  0  0  0
 24 23  2  1  0  0  0
 24 27  1  0  0  0  0
 24 22  1  0  0  0  0
 25 24  1  0  0  0  0
 26 25  1  0  0  0  0
 28 29  1  0  0  0  0
 28 27  1  0  0  0  0
 29 30  1  0  0  0  0
 31 32  1  0  0  0  0
 31 29  2  0  0  0  0
 33 31  1  0  0  0  0
 34 33  2  0  0  0  0
 34 35  1  0  0  0  0
 35 28  2  0  0  0  0
M  END
>  <minimizedAffinity>
-5.7785759

>  <minimizedRMSD>
2.28535914

$$$$
