
 OpenBabel03252508463D

 44 46  0  0  0  0  0  0  0  0999 V2000
   43.0990   32.5590   41.6200 C   0  0  0  0  0  0  0  0  0  0  0  0
   43.6220   32.0890   40.7440 H   0  0  0  0  0  0  0  0  0  0  0  0
   42.1720   33.0210   41.2020 H   0  0  0  0  0  0  0  0  0  0  0  0
   43.7080   34.9730   41.9090 C   0  0  0  0  0  0  0  0  0  0  0  0
   43.9540   33.6360   42.1930 C   0  0  0  0  0  0  0  0  0  0  0  0
   45.0090   33.3250   43.0180 C   0  0  0  0  0  0  0  0  0  0  0  0
   45.7920   34.3170   43.5420 C   0  0  0  0  0  0  0  0  0  0  0  0
   45.5750   35.6340   43.2810 C   0  0  0  0  0  0  0  0  0  0  0  0
   44.5060   35.9060   42.4490 C   0  0  0  0  0  0  0  0  0  0  0  0
   45.2420   32.2970   43.2680 H   0  0  0  0  0  0  0  0  0  0  0  0
   46.6150   34.0390   44.1870 H   0  0  0  0  0  0  0  0  0  0  0  0
   46.1610   36.4540   43.6680 H   0  0  0  0  0  0  0  0  0  0  0  0
   44.2590   36.9340   42.1870 H   0  0  0  0  0  0  0  0  0  0  0  0
   40.3100   35.8580   40.5120 C   0  0  0  0  0  0  0  0  0  0  0  0
   41.3250   35.6190   41.4550 C   0  0  0  0  0  0  0  0  0  0  0  0
   42.5840   35.2460   41.0340 C   0  0  0  0  0  0  0  0  0  0  0  0
   42.7710   35.1280   39.6880 N   0  0  0  0  0  0  0  0  0  0  0  0
   41.7870   35.3600   38.7860 C   0  0  0  0  0  0  0  0  0  0  0  0
   40.5630   35.7240   39.2180 N   0  0  0  0  0  0  0  0  0  0  0  0
   39.3640   36.1440   40.9600 H   0  0  0  0  0  0  0  0  0  0  0  0
   41.2020   35.7050   42.5300 H   0  0  0  0  0  0  0  0  0  0  0  0
   42.0260   35.2430   37.7310 H   0  0  0  0  0  0  0  0  0  0  0  0
   42.7040   31.5450   42.5360 N   0  0  0  0  0  0  0  0  0  0  0  0
   43.1990   30.6450   42.4120 H   0  0  0  0  0  0  0  0  0  0  0  0
   41.0240   31.2570   42.5480 S   0  0  0  0  0  0  0  0  0  0  0  0
   40.2570   32.5620   42.6450 O   0  0  0  0  0  0  0  0  0  0  0  0
   39.9510   33.0030   41.8070 H   0  0  0  0  0  0  0  0  0  0  0  0
   40.6360   30.3460   43.6570 O   0  0  0  0  0  0  0  0  0  0  0  0
   41.2360   29.6570   44.0500 H   0  0  0  0  0  0  0  0  0  0  0  0
   40.6100   30.5380   41.0790 O   0  0  0  0  0  0  0  0  0  0  0  0
   39.4970   29.7480   41.3130 C   0  0  0  0  0  0  0  0  0  0  0  0
   39.5300   28.7440   40.8930 H   0  0  0  0  0  0  0  0  0  0  0  0
   39.4610   29.6220   42.4350 H   0  0  0  0  0  0  0  0  0  0  0  0
   38.2410   30.5070   40.9660 C   0  0  0  0  0  0  0  0  0  0  0  0
   37.9850   31.1150   41.8840 H   0  0  0  0  0  0  0  0  0  0  0  0
   37.4190   29.7430   40.9300 H   0  0  0  0  0  0  0  0  0  0  0  0
   38.3140   31.3230   39.7570 C   0  0  0  0  0  0  0  0  0  0  0  0
   38.2240   32.6990   39.7600 C   0  0  0  0  0  0  0  0  0  0  0  0
   38.0900   33.2210   40.6970 H   0  0  0  0  0  0  0  0  0  0  0  0
   38.3140   33.3310   38.5150 C   0  0  0  0  0  0  0  0  0  0  0  0
   38.2470   34.4110   38.4820 H   0  0  0  0  0  0  0  0  0  0  0  0
   38.4850   32.5910   37.3580 C   0  0  0  0  0  0  0  0  0  0  0  0
   38.5730   31.1960   37.3900 C   0  0  0  0  0  0  0  0  0  0  0  0
   38.4830   30.6080   38.6060 N   0  0  0  0  0  0  0  0  0  0  0  0
  1  5  1  0  0  0  0
  1 23  1  0  0  0  0
  2  1  1  0  0  0  0
  3  1  1  0  0  0  0
  4  5  2  0  0  0  0
  4  9  1  0  0  0  0
  5  6  1  0  0  0  0
  6 10  1  0  0  0  0
  6  7  2  0  0  0  0
  7 11  1  0  0  0  0
  8  7  1  0  0  0  0
  8 12  1  0  0  0  0
  9  8  2  0  0  0  0
 13  9  1  0  0  0  0
 14 20  1  0  0  0  0
 14 15  1  0  0  0  0
 15 21  1  0  0  0  0
 16 15  2  0  0  0  0
 16  4  1  0  0  0  0
 17 16  1  0  0  0  0
 18 19  1  0  0  0  0
 18 17  2  0  0  0  0
 19 14  2  0  0  0  0
 22 18  1  0  0  0  0
 23 25  1  0  0  0  0
 24 23  1  0  0  0  0
 25 26  1  0  0  0  0
 25 28  1  0  0  0  0
 27 26  1  0  0  0  0
 28 29  1  0  0  0  0
 30 31  1  0  0  0  0
 30 25  1  0  0  0  0
 31 33  1  0  0  0  0
 32 31  1  0  0  0  0
 34 31  1  0  0  0  0
 34 35  1  0  0  0  0
 36 34  1  0  0  0  0
 37 38  1  0  0  0  0
 37 34  1  0  0  0  0
 38 39  1  0  0  0  0
 40 38  2  0  0  0  0
 41 40  1  0  0  0  0
 42 43  2  0  0  0  0
 42 40  1  0  0  0  0
 43 44  1  0  0  0  0
 44 37  2  0  0  0  0
M  END
>  <minimizedAffinity>
-5.80620146

>  <minimizedRMSD>
3.86151266

$$$$
