
 OpenBabel03242518563D

 41 43  0  0  1  0  0  0  0  0999 V2000
   35.7970   29.6870   37.9970 C   0  0  2  0  0  0  0  0  0  0  0  0
   36.9490   29.8290   37.0560 C   0  0  0  0  0  0  0  0  0  0  0  0
   37.7280   31.0190   37.4900 C   0  0  0  0  0  0  0  0  0  0  0  0
   37.1470   31.7910   38.6300 C   0  0  0  0  0  0  0  0  0  0  0  0
   36.9240   30.8760   39.8160 C   0  0  0  0  0  0  0  0  0  0  0  0
   36.3240   29.6150   39.4120 C   0  0  2  0  0  0  0  0  0  0  0  0
   35.1990   30.6270   37.9770 H   0  0  0  0  0  0  0  0  0  0  0  0
   37.5680   28.9080   37.0520 H   0  0  0  0  0  0  0  0  0  0  0  0
   36.5900   29.9310   35.9870 H   0  0  0  0  0  0  0  0  0  0  0  0
   38.8070   30.8340   37.6940 H   0  0  0  0  0  0  0  0  0  0  0  0
   37.7500   31.7430   36.6200 H   0  0  0  0  0  0  0  0  0  0  0  0
   36.2240   32.3460   38.3840 H   0  0  0  0  0  0  0  0  0  0  0  0
   37.9090   32.5670   38.8950 H   0  0  0  0  0  0  0  0  0  0  0  0
   36.2540   31.4290   40.5140 H   0  0  0  0  0  0  0  0  0  0  0  0
   37.9200   30.8250   40.3400 H   0  0  0  0  0  0  0  0  0  0  0  0
   35.5030   29.2780   40.0620 H   0  0  0  0  0  0  0  0  0  0  0  0
   37.4290   28.6150   39.5110 C   0  0  0  0  0  0  0  0  0  0  0  0
   38.3910   28.9260   39.0720 H   0  0  0  0  0  0  0  0  0  0  0  0
   37.1370   27.6150   39.0850 H   0  0  0  0  0  0  0  0  0  0  0  0
   37.7040   28.3750   40.9560 C   0  0  0  0  0  0  0  0  0  0  0  0
   36.5920   27.8130   41.5880 C   0  0  0  0  0  0  0  0  0  0  0  0
   35.6400   27.5700   41.1220 H   0  0  0  0  0  0  0  0  0  0  0  0
   36.5950   27.4960   42.9310 C   0  0  0  0  0  0  0  0  0  0  0  0
   35.7620   27.0610   43.4620 H   0  0  0  0  0  0  0  0  0  0  0  0
   37.7320   27.7400   43.6800 C   0  0  0  0  0  3  0  0  0  0  0  0
   38.8030   28.2870   43.0400 C   0  0  0  0  0  3  0  0  0  0  0  0
   38.7770   28.5880   41.7320 N   0  0  0  0  0  0  0  0  0  0  0  0
   34.8800   28.5660   37.6730 C   0  0  0  0  0  0  0  0  0  0  0  0
   35.1730   27.3640   37.8630 O   0  0  0  0  0  0  0  0  0  0  0  0
   32.1880   29.1680   35.2710 C   0  0  0  0  0  0  0  0  0  0  0  0
   31.1140   29.6320   36.0660 C   0  0  0  0  0  0  0  0  0  0  0  0
   31.3440   29.7220   37.4280 C   0  0  0  0  0  0  0  0  0  0  0  0
   32.5620   29.3570   37.8270 N   0  0  0  0  0  0  0  0  0  0  0  0
   33.5690   28.9250   37.0990 C   0  0  0  0  0  0  0  0  0  0  0  0
   33.3720   28.8280   35.7740 N   0  0  0  0  0  0  0  0  0  0  0  0
   32.0590   29.0770   34.1830 H   0  0  0  0  0  0  0  0  0  0  0  0
   30.1720   29.8900   35.5770 H   0  0  0  0  0  0  0  0  0  0  0  0
   30.2420   30.2030   38.2430 C   0  0  0  0  0  0  0  0  0  0  0  0
   30.4400   29.8170   39.5630 F   0  0  0  0  0  0  0  0  0  0  0  0
   29.1150   29.6030   37.7850 F   0  0  0  0  0  0  0  0  0  0  0  0
   30.1610   31.5910   38.2650 F   0  0  0  0  0  0  0  0  0  0  0  0
  1  7  1  6  0  0  0
  1  6  1  0  0  0  0
  2  3  1  0  0  0  0
  2  1  1  0  0  0  0
  3 10  1  0  0  0  0
  3  4  1  0  0  0  0
  4 13  1  0  0  0  0
  4  5  1  0  0  0  0
  5 15  1  0  0  0  0
  5 14  1  0  0  0  0
  6 17  1  0  0  0  0
  6  5  1  0  0  0  0
  6 16  1  1  0  0  0
  8  2  1  0  0  0  0
  9  2  1  0  0  0  0
 11  3  1  0  0  0  0
 12  4  1  0  0  0  0
 17 20  1  0  0  0  0
 18 17  1  0  0  0  0
 19 17  1  0  0  0  0
 20 21  2  0  0  0  0
 20 27  1  0  0  0  0
 21 23  1  0  0  0  0
 22 21  1  0  0  0  0
 23 24  1  0  0  0  0
 23 25  2  0  0  0  0
 26 25  1  0  0  0  0
 27 26  2  0  0  0  0
 28 29  2  0  0  0  0
 28  1  1  0  0  0  0
 30 35  2  0  0  0  0
 30 31  1  0  0  0  0
 31 32  2  0  0  0  0
 32 33  1  0  0  0  0
 32 38  1  0  0  0  0
 34 28  1  0  0  0  0
 34 33  2  0  0  0  0
 35 34  1  0  0  0  0
 36 30  1  0  0  0  0
 37 31  1  0  0  0  0
 38 41  1  0  0  0  0
 38 39  1  0  0  0  0
 40 38  1  0  0  0  0
M  END
>  <minimizedAffinity>
-5.81499529

$$$$

 OpenBabel03242518563D

 41 43  0  0  1  0  0  0  0  0999 V2000
   37.4000   26.0980   41.7280 C   0  0  2  0  0  0  0  0  0  0  0  0
   36.8470   24.7850   42.1760 C   0  0  0  0  0  0  0  0  0  0  0  0
   37.3960   23.7430   41.2670 C   0  0  0  0  0  0  0  0  0  0  0  0
   38.2340   24.2470   40.1380 C   0  0  0  0  0  0  0  0  0  0  0  0
   39.3690   25.0960   40.6730 C   0  0  0  0  0  0  0  0  0  0  0  0
   38.9090   26.0140   41.7020 C   0  0  2  0  0  0  0  0  0  0  0  0
   37.1190   26.2610   40.6610 H   0  0  0  0  0  0  0  0  0  0  0  0
   37.1110   24.5900   43.2360 H   0  0  0  0  0  0  0  0  0  0  0  0
   35.7160   24.7940   42.1650 H   0  0  0  0  0  0  0  0  0  0  0  0
   37.9350   22.9080   41.7700 H   0  0  0  0  0  0  0  0  0  0  0  0
   36.5160   23.2250   40.7780 H   0  0  0  0  0  0  0  0  0  0  0  0
   37.6730   24.7900   39.3570 H   0  0  0  0  0  0  0  0  0  0  0  0
   38.6530   23.3380   39.6360 H   0  0  0  0  0  0  0  0  0  0  0  0
   39.7790   25.6530   39.7990 H   0  0  0  0  0  0  0  0  0  0  0  0
   40.1740   24.3640   40.9620 H   0  0  0  0  0  0  0  0  0  0  0  0
   39.3030   27.0370   41.6030 H   0  0  0  0  0  0  0  0  0  0  0  0
   39.4250   25.4440   42.9830 C   0  0  0  0  0  0  0  0  0  0  0  0
   39.5630   24.3510   42.9940 H   0  0  0  0  0  0  0  0  0  0  0  0
   38.7950   25.7430   43.8650 H   0  0  0  0  0  0  0  0  0  0  0  0
   40.7750   26.0240   43.2340 C   0  0  0  0  0  0  0  0  0  0  0  0
   40.7180   27.4200   43.2730 C   0  0  0  0  0  0  0  0  0  0  0  0
   39.8280   28.0320   43.1430 H   0  0  0  0  0  0  0  0  0  0  0  0
   41.8390   28.1930   43.4920 C   0  0  0  0  0  0  0  0  0  0  0  0
   41.8450   29.2720   43.5310 H   0  0  0  0  0  0  0  0  0  0  0  0
   43.0620   27.5720   43.6790 C   0  0  0  0  0  3  0  0  0  0  0  0
   43.0900   26.2110   43.6360 C   0  0  0  0  0  3  0  0  0  0  0  0
   41.9850   25.4790   43.4210 N   0  0  0  0  0  0  0  0  0  0  0  0
   36.9070   27.2630   42.5030 C   0  0  0  0  0  0  0  0  0  0  0  0
   36.4860   27.1750   43.6790 O   0  0  0  0  0  0  0  0  0  0  0  0
   35.9290   30.1200   40.4400 C   0  0  0  0  0  0  0  0  0  0  0  0
   37.0210   31.0130   40.5470 C   0  0  0  0  0  0  0  0  0  0  0  0
   38.0790   30.6060   41.3410 C   0  0  0  0  0  0  0  0  0  0  0  0
   37.9370   29.4120   41.9140 N   0  0  0  0  0  0  0  0  0  0  0  0
   36.9270   28.5720   41.8220 C   0  0  0  0  0  0  0  0  0  0  0  0
   35.8880   28.9430   41.0570 N   0  0  0  0  0  0  0  0  0  0  0  0
   35.0620   30.3940   39.8220 H   0  0  0  0  0  0  0  0  0  0  0  0
   36.9780   31.9620   40.0090 H   0  0  0  0  0  0  0  0  0  0  0  0
   39.2020   31.5210   41.4470 C   0  0  0  0  0  0  0  0  0  0  0  0
   40.0370   31.3580   40.3480 F   0  0  0  0  0  0  0  0  0  0  0  0
   39.8920   31.1790   42.5640 F   0  0  0  0  0  0  0  0  0  0  0  0
   38.8080   32.8550   41.4250 F   0  0  0  0  0  0  0  0  0  0  0  0
  1  7  1  6  0  0  0
  1  2  1  0  0  0  0
  1 28  1  0  0  0  0
  2  8  1  0  0  0  0
  3 10  1  0  0  0  0
  3  2  1  0  0  0  0
  4  5  1  0  0  0  0
  4  3  1  0  0  0  0
  5 15  1  0  0  0  0
  5  6  1  0  0  0  0
  6 16  1  6  0  0  0
  6  1  1  0  0  0  0
  6 17  1  0  0  0  0
  9  2  1  0  0  0  0
 11  3  1  0  0  0  0
 12  4  1  0  0  0  0
 13  4  1  0  0  0  0
 14  5  1  0  0  0  0
 17 18  1  0  0  0  0
 17 20  1  0  0  0  0
 17 19  1  0  0  0  0
 20 21  2  0  0  0  0
 20 27  1  0  0  0  0
 21 23  1  0  0  0  0
 22 21  1  0  0  0  0
 23 24  1  0  0  0  0
 23 25  2  0  0  0  0
 26 25  1  0  0  0  0
 27 26  2  0  0  0  0
 28 29  2  0  0  0  0
 30 31  2  0  0  0  0
 30 35  1  0  0  0  0
 31 32  1  0  0  0  0
 32 38  1  0  0  0  0
 32 33  2  0  0  0  0
 34 33  1  0  0  0  0
 34 28  1  0  0  0  0
 35 34  2  0  0  0  0
 36 30  1  0  0  0  0
 37 31  1  0  0  0  0
 38 40  1  0  0  0  0
 39 38  1  0  0  0  0
 41 38  1  0  0  0  0
M  END
>  <minimizedAffinity>
-5.75475454

$$$$

 OpenBabel03242518563D

 41 43  0  0  1  0  0  0  0  0999 V2000
   37.9160   31.4100   40.1030 C   0  0  2  0  0  0  0  0  0  0  0  0
   37.0420   32.4760   39.5270 C   0  0  0  0  0  0  0  0  0  0  0  0
   37.6750   33.7840   39.8430 C   0  0  0  0  0  0  0  0  0  0  0  0
   38.9010   33.7190   40.6940 C   0  0  0  0  0  0  0  0  0  0  0  0
   39.9270   32.8060   40.0560 C   0  0  0  0  0  0  0  0  0  0  0  0
   39.3190   31.5800   39.5650 C   0  0  2  0  0  0  0  0  0  0  0  0
   38.0220   31.5860   41.1990 H   0  0  0  0  0  0  0  0  0  0  0  0
   36.9160   32.3310   38.4340 H   0  0  0  0  0  0  0  0  0  0  0  0
   35.9910   32.4080   39.9420 H   0  0  0  0  0  0  0  0  0  0  0  0
   37.8790   34.4390   38.9670 H   0  0  0  0  0  0  0  0  0  0  0  0
   36.9260   34.3840   40.4450 H   0  0  0  0  0  0  0  0  0  0  0  0
   38.7160   33.4290   41.7440 H   0  0  0  0  0  0  0  0  0  0  0  0
   39.3040   34.7630   40.7330 H   0  0  0  0  0  0  0  0  0  0  0  0
   40.6820   32.5850   40.8470 H   0  0  0  0  0  0  0  0  0  0  0  0
   40.4660   33.4470   39.3040 H   0  0  0  0  0  0  0  0  0  0  0  0
   39.8850   30.6680   39.8050 H   0  0  0  0  0  0  0  0  0  0  0  0
   39.2960   31.7310   38.0800 C   0  0  0  0  0  0  0  0  0  0  0  0
   39.3140   32.7690   37.7080 H   0  0  0  0  0  0  0  0  0  0  0  0
   38.4300   31.1890   37.6100 H   0  0  0  0  0  0  0  0  0  0  0  0
   40.5240   31.0860   37.5330 C   0  0  0  0  0  0  0  0  0  0  0  0
   40.4170   29.6940   37.5810 C   0  0  0  0  0  0  0  0  0  0  0  0
   39.5710   29.1240   37.9580 H   0  0  0  0  0  0  0  0  0  0  0  0
   41.4260   28.8660   37.1320 C   0  0  0  0  0  0  0  0  0  0  0  0
   41.3900   27.7880   37.1480 H   0  0  0  0  0  0  0  0  0  0  0  0
   42.5810   29.4280   36.6160 C   0  0  0  0  0  3  0  0  0  0  0  0
   42.6590   30.7870   36.5800 C   0  0  0  0  0  3  0  0  0  0  0  0
   41.6650   31.5730   37.0240 N   0  0  0  0  0  0  0  0  0  0  0  0
   37.3980   30.0320   39.9200 C   0  0  0  0  0  0  0  0  0  0  0  0
   36.9200   29.6170   38.8390 O   0  0  0  0  0  0  0  0  0  0  0  0
   37.7200   28.8270   43.3580 C   0  0  0  0  0  0  0  0  0  0  0  0
   37.6110   27.4220   43.2430 C   0  0  0  0  0  0  0  0  0  0  0  0
   37.4210   26.9170   41.9680 C   0  0  0  0  0  0  0  0  0  0  0  0
   37.3640   27.8260   40.9960 N   0  0  0  0  0  0  0  0  0  0  0  0
   37.4650   29.1360   41.0900 C   0  0  0  0  0  0  0  0  0  0  0  0
   37.6500   29.6510   42.3160 N   0  0  0  0  0  0  0  0  0  0  0  0
   37.8720   29.2810   44.3480 H   0  0  0  0  0  0  0  0  0  0  0  0
   37.6790   26.8140   44.1470 H   0  0  0  0  0  0  0  0  0  0  0  0
   37.3130   25.4740   41.8500 C   0  0  0  0  0  0  0  0  0  0  0  0
   38.5260   24.8880   42.1930 F   0  0  0  0  0  0  0  0  0  0  0  0
   37.0570   25.1980   40.5460 F   0  0  0  0  0  0  0  0  0  0  0  0
   36.3750   24.9350   42.7240 F   0  0  0  0  0  0  0  0  0  0  0  0
  1  7  1  1  0  0  0
  2  3  1  0  0  0  0
  2  9  1  0  0  0  0
  2  1  1  0  0  0  0
  3 11  1  0  0  0  0
  3  4  1  0  0  0  0
  4 13  1  0  0  0  0
  4 12  1  0  0  0  0
  5  4  1  0  0  0  0
  5 14  1  0  0  0  0
  6 16  1  1  0  0  0
  6  5  1  0  0  0  0
  6  1  1  0  0  0  0
  8  2  1  0  0  0  0
 10  3  1  0  0  0  0
 15  5  1  0  0  0  0
 17  6  1  0  0  0  0
 18 17  1  0  0  0  0
 19 17  1  0  0  0  0
 20 21  1  0  0  0  0
 20 17  1  0  0  0  0
 21 22  1  0  0  0  0
 23 24  1  0  0  0  0
 23 21  2  0  0  0  0
 25 23  1  0  0  0  0
 26 25  2  0  0  0  0
 26 27  1  0  0  0  0
 27 20  2  0  0  0  0
 28  1  1  0  0  0  0
 28 34  1  0  0  0  0
 29 28  2  0  0  0  0
 30 36  1  0  0  0  0
 31 30  1  0  0  0  0
 31 37  1  0  0  0  0
 32 31  2  0  0  0  0
 33 34  2  0  0  0  0
 33 32  1  0  0  0  0
 34 35  1  0  0  0  0
 35 30  2  0  0  0  0
 38 32  1  0  0  0  0
 38 39  1  0  0  0  0
 38 41  1  0  0  0  0
 40 38  1  0  0  0  0
M  END
>  <minimizedAffinity>
-5.73605156

$$$$

 OpenBabel03242518563D

 41 43  0  0  1  0  0  0  0  0999 V2000
   37.5580   26.0540   41.6810 C   0  0  2  0  0  0  0  0  0  0  0  0
   36.9430   24.7830   42.1700 C   0  0  0  0  0  0  0  0  0  0  0  0
   37.4710   23.6820   41.3200 C   0  0  0  0  0  0  0  0  0  0  0  0
   38.3540   24.1050   40.1920 C   0  0  0  0  0  0  0  0  0  0  0  0
   39.5090   24.9310   40.7180 C   0  0  0  0  0  0  0  0  0  0  0  0
   39.0630   25.9100   41.6960 C   0  0  2  0  0  0  0  0  0  0  0  0
   37.3080   26.1810   40.6020 H   0  0  0  0  0  0  0  0  0  0  0  0
   37.1740   24.6240   43.2440 H   0  0  0  0  0  0  0  0  0  0  0  0
   35.8130   24.8360   42.1310 H   0  0  0  0  0  0  0  0  0  0  0  0
   37.9640   22.8490   41.8710 H   0  0  0  0  0  0  0  0  0  0  0  0
   36.5830   23.1790   40.8310 H   0  0  0  0  0  0  0  0  0  0  0  0
   37.8330   24.6350   39.3750 H   0  0  0  0  0  0  0  0  0  0  0  0
   38.7480   23.1590   39.7390 H   0  0  0  0  0  0  0  0  0  0  0  0
   39.9620   25.4340   39.8320 H   0  0  0  0  0  0  0  0  0  0  0  0
   40.2780   24.1810   41.0580 H   0  0  0  0  0  0  0  0  0  0  0  0
   39.5000   26.9110   41.5640 H   0  0  0  0  0  0  0  0  0  0  0  0
   39.5260   25.3760   43.0120 C   0  0  0  0  0  0  0  0  0  0  0  0
   39.5560   24.2780   43.0950 H   0  0  0  0  0  0  0  0  0  0  0  0
   38.9330   25.7920   43.8720 H   0  0  0  0  0  0  0  0  0  0  0  0
   40.9280   25.8350   43.2270 C   0  0  0  0  0  0  0  0  0  0  0  0
   40.9730   27.2150   43.4400 C   0  0  0  0  0  0  0  0  0  0  0  0
   40.1230   27.8930   43.4550 H   0  0  0  0  0  0  0  0  0  0  0  0
   42.1590   27.8830   43.6640 C   0  0  0  0  0  0  0  0  0  0  0  0
   42.2440   28.9460   43.8340 H   0  0  0  0  0  0  0  0  0  0  0  0
   43.3440   27.1680   43.6790 C   0  0  0  0  0  3  0  0  0  0  0  0
   43.2730   25.8250   43.4690 C   0  0  0  0  0  3  0  0  0  0  0  0
   42.1060   25.1960   43.2530 N   0  0  0  0  0  0  0  0  0  0  0  0
   37.0950   27.2690   42.3940 C   0  0  0  0  0  0  0  0  0  0  0  0
   36.3910   27.2300   43.4300 O   0  0  0  0  0  0  0  0  0  0  0  0
   38.6570   30.5520   42.0010 C   0  0  0  0  0  0  0  0  0  0  0  0
   38.2070   30.9990   40.7370 C   0  0  0  0  0  0  0  0  0  0  0  0
   37.3700   30.1460   40.0390 C   0  0  0  0  0  0  0  0  0  0  0  0
   37.0880   28.9960   40.6500 N   0  0  0  0  0  0  0  0  0  0  0  0
   37.5000   28.5690   41.8260 C   0  0  0  0  0  0  0  0  0  0  0  0
   38.3130   29.3780   42.5230 N   0  0  0  0  0  0  0  0  0  0  0  0
   39.3250   31.1910   42.5970 H   0  0  0  0  0  0  0  0  0  0  0  0
   38.5360   31.9770   40.3770 H   0  0  0  0  0  0  0  0  0  0  0  0
   36.9040   30.6070   38.7430 C   0  0  0  0  0  0  0  0  0  0  0  0
   37.8150   30.2320   37.7630 F   0  0  0  0  0  0  0  0  0  0  0  0
   36.8610   31.9620   38.7930 F   0  0  0  0  0  0  0  0  0  0  0  0
   35.6950   30.0280   38.3730 F   0  0  0  0  0  0  0  0  0  0  0  0
  1  7  1  6  0  0  0
  1  6  1  0  0  0  0
  1  2  1  0  0  0  0
  1 28  1  0  0  0  0
  2  8  1  0  0  0  0
  3 10  1  0  0  0  0
  3  2  1  0  0  0  0
  4  5  1  0  0  0  0
  4  3  1  0  0  0  0
  5 15  1  0  0  0  0
  5  6  1  0  0  0  0
  6 16  1  6  0  0  0
  6 17  1  0  0  0  0
  9  2  1  0  0  0  0
 11  3  1  0  0  0  0
 12  4  1  0  0  0  0
 13  4  1  0  0  0  0
 14  5  1  0  0  0  0
 17 18  1  0  0  0  0
 17 20  1  0  0  0  0
 17 19  1  0  0  0  0
 20 27  2  0  0  0  0
 20 21  1  0  0  0  0
 21 22  1  0  0  0  0
 21 23  2  0  0  0  0
 23 25  1  0  0  0  0
 23 24  1  0  0  0  0
 26 25  2  0  0  0  0
 27 26  1  0  0  0  0
 28 29  2  0  0  0  0
 30 35  1  0  0  0  0
 30 36  1  0  0  0  0
 31 30  2  0  0  0  0
 32 33  2  0  0  0  0
 32 31  1  0  0  0  0
 33 34  1  0  0  0  0
 34 28  1  0  0  0  0
 34 35  2  0  0  0  0
 37 31  1  0  0  0  0
 38 40  1  0  0  0  0
 38 32  1  0  0  0  0
 39 38  1  0  0  0  0
 41 38  1  0  0  0  0
M  END
>  <minimizedAffinity>
-5.6224165

$$$$

 OpenBabel03242518563D

 41 43  0  0  1  0  0  0  0  0999 V2000
   38.8850   27.2100   42.2700 C   0  0  2  0  0  0  0  0  0  0  0  0
   39.3740   27.1240   43.6790 C   0  0  0  0  0  0  0  0  0  0  0  0
   40.8520   27.2880   43.6430 C   0  0  0  0  0  0  0  0  0  0  0  0
   41.4570   27.3910   42.2810 C   0  0  0  0  0  0  0  0  0  0  0  0
   40.8080   28.5210   41.5100 C   0  0  0  0  0  0  0  0  0  0  0  0
   39.3620   28.5100   41.6620 C   0  0  2  0  0  0  0  0  0  0  0  0
   39.3930   26.4250   41.6650 H   0  0  0  0  0  0  0  0  0  0  0  0
   38.8880   27.8970   44.3110 H   0  0  0  0  0  0  0  0  0  0  0  0
   39.0730   26.1420   44.1550 H   0  0  0  0  0  0  0  0  0  0  0  0
   41.2570   28.1060   44.2800 H   0  0  0  0  0  0  0  0  0  0  0  0
   41.3050   26.3560   44.1010 H   0  0  0  0  0  0  0  0  0  0  0  0
   41.4360   26.4540   41.6980 H   0  0  0  0  0  0  0  0  0  0  0  0
   42.5400   27.6240   42.4430 H   0  0  0  0  0  0  0  0  0  0  0  0
   41.0950   28.3740   40.4420 H   0  0  0  0  0  0  0  0  0  0  0  0
   41.3510   29.4520   41.8370 H   0  0  0  0  0  0  0  0  0  0  0  0
   38.8090   28.6680   40.7250 H   0  0  0  0  0  0  0  0  0  0  0  0
   39.0640   29.6560   42.5720 C   0  0  0  0  0  0  0  0  0  0  0  0
   39.9050   29.9950   43.2000 H   0  0  0  0  0  0  0  0  0  0  0  0
   38.1740   29.4570   43.2300 H   0  0  0  0  0  0  0  0  0  0  0  0
   38.6910   30.8280   41.7300 C   0  0  0  0  0  0  0  0  0  0  0  0
   37.4360   30.6410   41.1450 C   0  0  0  0  0  0  0  0  0  0  0  0
   36.7910   29.7740   41.2660 H   0  0  0  0  0  0  0  0  0  0  0  0
   36.8660   31.5860   40.3170 C   0  0  0  0  0  0  0  0  0  0  0  0
   35.9010   31.4870   39.8440 H   0  0  0  0  0  0  0  0  0  0  0  0
   37.5540   32.7580   40.0550 C   0  0  0  0  0  3  0  0  0  0  0  0
   38.7750   32.9150   40.6380 C   0  0  0  0  0  3  0  0  0  0  0  0
   39.3110   31.9810   41.4400 N   0  0  0  0  0  0  0  0  0  0  0  0
   37.4220   27.0150   42.1200 C   0  0  0  0  0  0  0  0  0  0  0  0
   36.6350   26.9510   43.0920 O   0  0  0  0  0  0  0  0  0  0  0  0
   36.8180   25.7630   38.7370 C   0  0  0  0  0  0  0  0  0  0  0  0
   35.9390   26.7150   38.1690 C   0  0  0  0  0  0  0  0  0  0  0  0
   35.5670   27.7760   38.9770 C   0  0  0  0  0  0  0  0  0  0  0  0
   36.0870   27.7690   40.2030 N   0  0  0  0  0  0  0  0  0  0  0  0
   36.9060   26.8910   40.7440 C   0  0  0  0  0  0  0  0  0  0  0  0
   37.2820   25.8530   39.9800 N   0  0  0  0  0  0  0  0  0  0  0  0
   37.1450   24.9010   38.1380 H   0  0  0  0  0  0  0  0  0  0  0  0
   35.6020   26.5710   37.1400 H   0  0  0  0  0  0  0  0  0  0  0  0
   34.6690   28.7550   38.3920 C   0  0  0  0  0  0  0  0  0  0  0  0
   33.8190   29.2500   39.3730 F   0  0  0  0  0  0  0  0  0  0  0  0
   33.9200   28.1070   37.4640 F   0  0  0  0  0  0  0  0  0  0  0  0
   35.3420   29.8620   37.8850 F   0  0  0  0  0  0  0  0  0  0  0  0
  1  7  1  6  0  0  0
  1  2  1  0  0  0  0
  2  9  1  0  0  0  0
  2  8  1  0  0  0  0
  3  2  1  0  0  0  0
  3 11  1  0  0  0  0
  3 10  1  0  0  0  0
  4 13  1  0  0  0  0
  4  3  1  0  0  0  0
  5  6  1  0  0  0  0
  5 15  1  0  0  0  0
  5  4  1  0  0  0  0
  6 16  1  6  0  0  0
  6  1  1  0  0  0  0
  6 17  1  0  0  0  0
 12  4  1  0  0  0  0
 14  5  1  0  0  0  0
 17 18  1  0  0  0  0
 17 19  1  0  0  0  0
 20 17  1  0  0  0  0
 21 22  1  0  0  0  0
 21 20  2  0  0  0  0
 23 21  1  0  0  0  0
 24 23  1  0  0  0  0
 25 23  2  0  0  0  0
 25 26  1  0  0  0  0
 26 27  2  0  0  0  0
 27 20  1  0  0  0  0
 28  1  1  0  0  0  0
 28 29  2  0  0  0  0
 30 35  1  0  0  0  0
 31 30  2  0  0  0  0
 31 32  1  0  0  0  0
 32 33  2  0  0  0  0
 33 34  1  0  0  0  0
 34 28  1  0  0  0  0
 35 34  2  0  0  0  0
 36 30  1  0  0  0  0
 37 31  1  0  0  0  0
 38 32  1  0  0  0  0
 38 39  1  0  0  0  0
 40 38  1  0  0  0  0
 41 38  1  0  0  0  0
M  END
>  <minimizedAffinity>
-5.58858204

$$$$

 OpenBabel03242518563D

 41 43  0  0  1  0  0  0  0  0999 V2000
   38.2570   31.0750   39.9000 C   0  0  2  0  0  0  0  0  0  0  0  0
   37.3650   31.6210   38.8330 C   0  0  0  0  0  0  0  0  0  0  0  0
   37.2430   33.0850   39.0680 C   0  0  0  0  0  0  0  0  0  0  0  0
   37.9200   33.6010   40.2960 C   0  0  0  0  0  0  0  0  0  0  0  0
   39.3850   33.2140   40.2810 C   0  0  0  0  0  0  0  0  0  0  0  0
   39.5670   31.8290   39.8790 C   0  0  2  0  0  0  0  0  0  0  0  0
   37.8180   31.3190   40.8950 H   0  0  0  0  0  0  0  0  0  0  0  0
   37.7740   31.3960   37.8270 H   0  0  0  0  0  0  0  0  0  0  0  0
   36.3550   31.1100   38.8470 H   0  0  0  0  0  0  0  0  0  0  0  0
   37.5210   33.7310   38.2050 H   0  0  0  0  0  0  0  0  0  0  0  0
   36.1440   33.3120   39.2160 H   0  0  0  0  0  0  0  0  0  0  0  0
   37.4430   33.2970   41.2440 H   0  0  0  0  0  0  0  0  0  0  0  0
   37.8280   34.7160   40.2520 H   0  0  0  0  0  0  0  0  0  0  0  0
   39.7600   33.3790   41.3180 H   0  0  0  0  0  0  0  0  0  0  0  0
   39.8910   34.0010   39.6540 H   0  0  0  0  0  0  0  0  0  0  0  0
   40.2880   31.2720   40.4960 H   0  0  0  0  0  0  0  0  0  0  0  0
   40.1090   31.9010   38.4900 C   0  0  0  0  0  0  0  0  0  0  0  0
   39.5770   32.5830   37.8070 H   0  0  0  0  0  0  0  0  0  0  0  0
   40.1840   30.8870   38.0090 H   0  0  0  0  0  0  0  0  0  0  0  0
   41.5060   32.4170   38.5670 C   0  0  0  0  0  0  0  0  0  0  0  0
   41.6860   33.4990   37.7020 C   0  0  0  0  0  0  0  0  0  0  0  0
   40.9330   33.9330   37.0480 H   0  0  0  0  0  0  0  0  0  0  0  0
   42.8950   34.1540   37.5890 C   0  0  0  0  0  0  0  0  0  0  0  0
   43.0810   34.9930   36.9360 H   0  0  0  0  0  0  0  0  0  0  0  0
   43.9660   33.7300   38.3550 C   0  0  0  0  0  3  0  0  0  0  0  0
   43.7650   32.6730   39.1910 C   0  0  0  0  0  3  0  0  0  0  0  0
   42.5790   32.0510   39.2840 N   0  0  0  0  0  0  0  0  0  0  0  0
   38.4450   29.6040   39.8430 C   0  0  0  0  0  0  0  0  0  0  0  0
   38.8470   29.0040   38.8200 O   0  0  0  0  0  0  0  0  0  0  0  0
   37.7820   28.7830   43.3440 C   0  0  0  0  0  0  0  0  0  0  0  0
   37.5710   27.3850   43.3370 C   0  0  0  0  0  0  0  0  0  0  0  0
   37.6580   26.7500   42.1090 C   0  0  0  0  0  0  0  0  0  0  0  0
   37.9320   27.5440   41.0750 N   0  0  0  0  0  0  0  0  0  0  0  0
   38.1310   28.8460   41.0690 C   0  0  0  0  0  0  0  0  0  0  0  0
   38.0520   29.4840   42.2470 N   0  0  0  0  0  0  0  0  0  0  0  0
   37.7240   29.3360   44.2930 H   0  0  0  0  0  0  0  0  0  0  0  0
   37.3520   26.8810   44.2810 H   0  0  0  0  0  0  0  0  0  0  0  0
   37.4460   25.3140   42.1020 C   0  0  0  0  0  0  0  0  0  0  0  0
   36.3040   25.0100   42.8340 F   0  0  0  0  0  0  0  0  0  0  0  0
   38.5140   24.7500   42.7200 F   0  0  0  0  0  0  0  0  0  0  0  0
   37.2170   24.8140   40.8240 F   0  0  0  0  0  0  0  0  0  0  0  0
  1  7  1  1  0  0  0
  2  9  1  0  0  0  0
  2  3  1  0  0  0  0
  2  1  1  0  0  0  0
  3 11  1  0  0  0  0
  3  4  1  0  0  0  0
  4 12  1  0  0  0  0
  5  4  1  0  0  0  0
  5 14  1  0  0  0  0
  6  1  1  0  0  0  0
  6  5  1  0  0  0  0
  6 16  1  1  0  0  0
  8  2  1  0  0  0  0
 10  3  1  0  0  0  0
 13  4  1  0  0  0  0
 15  5  1  0  0  0  0
 17 20  1  0  0  0  0
 17  6  1  0  0  0  0
 18 17  1  0  0  0  0
 19 17  1  0  0  0  0
 20 27  1  0  0  0  0
 21 20  2  0  0  0  0
 22 21  1  0  0  0  0
 23 21  1  0  0  0  0
 23 25  2  0  0  0  0
 24 23  1  0  0  0  0
 25 26  1  0  0  0  0
 26 27  2  0  0  0  0
 28  1  1  0  0  0  0
 28 34  1  0  0  0  0
 29 28  2  0  0  0  0
 30 36  1  0  0  0  0
 31 30  1  0  0  0  0
 31 37  1  0  0  0  0
 32 31  2  0  0  0  0
 33 32  1  0  0  0  0
 34 33  2  0  0  0  0
 34 35  1  0  0  0  0
 35 30  2  0  0  0  0
 38 32  1  0  0  0  0
 38 40  1  0  0  0  0
 38 39  1  0  0  0  0
 41 38  1  0  0  0  0
M  END
>  <minimizedAffinity>
-5.5632267

$$$$

 OpenBabel03242518563D

 41 43  0  0  1  0  0  0  0  0999 V2000
   37.6950   30.2570   40.2380 C   0  0  2  0  0  0  0  0  0  0  0  0
   37.0330   31.5550   40.5660 C   0  0  0  0  0  0  0  0  0  0  0  0
   37.0610   32.3870   39.3340 C   0  0  0  0  0  0  0  0  0  0  0  0
   37.7880   31.7950   38.1710 C   0  0  0  0  0  0  0  0  0  0  0  0
   37.2180   30.4310   37.8430 C   0  0  0  0  0  0  0  0  0  0  0  0
   37.0030   29.6400   39.0440 C   0  0  2  0  0  0  0  0  0  0  0  0
   38.7300   30.4620   39.8770 H   0  0  0  0  0  0  0  0  0  0  0  0
   35.9980   31.3870   40.9290 H   0  0  0  0  0  0  0  0  0  0  0  0
   37.5530   32.0700   41.4300 H   0  0  0  0  0  0  0  0  0  0  0  0
   36.0700   32.7590   38.9880 H   0  0  0  0  0  0  0  0  0  0  0  0
   37.6220   33.3390   39.5830 H   0  0  0  0  0  0  0  0  0  0  0  0
   38.8840   31.7430   38.2940 H   0  0  0  0  0  0  0  0  0  0  0  0
   37.6100   32.4900   37.3110 H   0  0  0  0  0  0  0  0  0  0  0  0
   37.9580   29.9380   37.1710 H   0  0  0  0  0  0  0  0  0  0  0  0
   36.3190   30.6340   37.1960 H   0  0  0  0  0  0  0  0  0  0  0  0
   37.3380   28.5950   38.9610 H   0  0  0  0  0  0  0  0  0  0  0  0
   35.5230   29.6350   39.2400 C   0  0  0  0  0  0  0  0  0  0  0  0
   35.0030   30.5630   38.9530 H   0  0  0  0  0  0  0  0  0  0  0  0
   35.2340   29.3640   40.2930 H   0  0  0  0  0  0  0  0  0  0  0  0
   34.9470   28.5660   38.3740 C   0  0  0  0  0  0  0  0  0  0  0  0
   35.6760   27.3800   38.4960 C   0  0  0  0  0  0  0  0  0  0  0  0
   36.5480   27.2220   39.1270 H   0  0  0  0  0  0  0  0  0  0  0  0
   35.3430   26.2400   37.7950 C   0  0  0  0  0  0  0  0  0  0  0  0
   35.8750   25.3030   37.8560 H   0  0  0  0  0  0  0  0  0  0  0  0
   34.2530   26.2660   36.9420 C   0  0  0  0  0  3  0  0  0  0  0  0
   33.5600   27.4340   36.8420 C   0  0  0  0  0  3  0  0  0  0  0  0
   33.9030   28.5320   37.5340 N   0  0  0  0  0  0  0  0  0  0  0  0
   37.7990   29.3190   41.3830 C   0  0  0  0  0  0  0  0  0  0  0  0
   37.5290   29.6440   42.5620 O   0  0  0  0  0  0  0  0  0  0  0  0
   39.8150   26.5050   40.2030 C   0  0  0  0  0  0  0  0  0  0  0  0
   39.0320   25.3680   40.5080 C   0  0  0  0  0  0  0  0  0  0  0  0
   37.8140   25.6000   41.1250 C   0  0  0  0  0  0  0  0  0  0  0  0
   37.5280   26.8800   41.3590 N   0  0  0  0  0  0  0  0  0  0  0  0
   38.2470   27.9470   41.0800 C   0  0  0  0  0  0  0  0  0  0  0  0
   39.4320   27.7480   40.4810 N   0  0  0  0  0  0  0  0  0  0  0  0
   40.7910   26.3770   39.7130 H   0  0  0  0  0  0  0  0  0  0  0  0
   39.4160   24.3790   40.2470 H   0  0  0  0  0  0  0  0  0  0  0  0
   37.0080   24.4320   41.4330 C   0  0  0  0  0  0  0  0  0  0  0  0
   36.0310   24.2730   40.4570 F   0  0  0  0  0  0  0  0  0  0  0  0
   36.3940   24.6720   42.6190 F   0  0  0  0  0  0  0  0  0  0  0  0
   37.7480   23.2540   41.4200 F   0  0  0  0  0  0  0  0  0  0  0  0
  1  7  1  6  0  0  0
  1  2  1  0  0  0  0
  1 28  1  0  0  0  0
  2  8  1  0  0  0  0
  2  9  1  0  0  0  0
  3 11  1  0  0  0  0
  3  2  1  0  0  0  0
  4 12  1  0  0  0  0
  4  3  1  0  0  0  0
  5  4  1  0  0  0  0
  5  6  1  0  0  0  0
  6 16  1  6  0  0  0
  6 17  1  0  0  0  0
  6  1  1  0  0  0  0
 10  3  1  0  0  0  0
 13  4  1  0  0  0  0
 14  5  1  0  0  0  0
 15  5  1  0  0  0  0
 17 19  1  0  0  0  0
 18 17  1  0  0  0  0
 20 21  1  0  0  0  0
 20 17  1  0  0  0  0
 21 22  1  0  0  0  0
 23 24  1  0  0  0  0
 23 21  2  0  0  0  0
 25 23  1  0  0  0  0
 26 25  2  0  0  0  0
 26 27  1  0  0  0  0
 27 20  2  0  0  0  0
 28 29  2  0  0  0  0
 30 35  2  0  0  0  0
 30 31  1  0  0  0  0
 31 32  2  0  0  0  0
 32 33  1  0  0  0  0
 32 38  1  0  0  0  0
 34 33  2  0  0  0  0
 34 28  1  0  0  0  0
 35 34  1  0  0  0  0
 36 30  1  0  0  0  0
 37 31  1  0  0  0  0
 38 40  1  0  0  0  0
 39 38  1  0  0  0  0
 41 38  1  0  0  0  0
M  END
>  <minimizedAffinity>
-5.48105001

$$$$

 OpenBabel03242518563D

 41 43  0  0  1  0  0  0  0  0999 V2000
   36.5730   28.9910   38.3610 C   0  0  2  0  0  0  0  0  0  0  0  0
   37.5210   27.9120   37.9500 C   0  0  0  0  0  0  0  0  0  0  0  0
   37.5840   27.9220   36.4640 C   0  0  0  0  0  0  0  0  0  0  0  0
   36.6630   28.8840   35.7860 C   0  0  0  0  0  0  0  0  0  0  0  0
   36.9010   30.2850   36.3080 C   0  0  0  0  0  0  0  0  0  0  0  0
   37.0270   30.3010   37.7570 C   0  0  2  0  0  0  0  0  0  0  0  0
   35.5840   28.8000   37.8840 H   0  0  0  0  0  0  0  0  0  0  0  0
   38.5200   28.0720   38.4080 H   0  0  0  0  0  0  0  0  0  0  0  0
   37.1890   26.9060   38.3480 H   0  0  0  0  0  0  0  0  0  0  0  0
   38.6030   28.0330   36.0310 H   0  0  0  0  0  0  0  0  0  0  0  0
   37.2610   26.8970   36.1060 H   0  0  0  0  0  0  0  0  0  0  0  0
   35.5930   28.6170   35.8500 H   0  0  0  0  0  0  0  0  0  0  0  0
   36.9240   28.8420   34.6980 H   0  0  0  0  0  0  0  0  0  0  0  0
   36.0240   30.8920   35.9810 H   0  0  0  0  0  0  0  0  0  0  0  0
   37.7720   30.6780   35.7140 H   0  0  0  0  0  0  0  0  0  0  0  0
   36.4700   31.1110   38.2490 H   0  0  0  0  0  0  0  0  0  0  0  0
   38.4820   30.5200   38.0120 C   0  0  0  0  0  0  0  0  0  0  0  0
   39.1020   30.6870   37.1160 H   0  0  0  0  0  0  0  0  0  0  0  0
   38.9370   29.6920   38.6220 H   0  0  0  0  0  0  0  0  0  0  0  0
   38.6240   31.7540   38.8360 C   0  0  0  0  0  0  0  0  0  0  0  0
   37.4390   32.4940   38.8320 C   0  0  0  0  0  0  0  0  0  0  0  0
   36.5190   32.2360   38.3110 H   0  0  0  0  0  0  0  0  0  0  0  0
   37.3140   33.6820   39.5230 C   0  0  0  0  0  0  0  0  0  0  0  0
   36.4210   34.2870   39.5490 H   0  0  0  0  0  0  0  0  0  0  0  0
   38.3940   34.1600   40.2440 C   0  0  0  0  0  3  0  0  0  0  0  0
   39.5370   33.4200   40.2320 C   0  0  0  0  0  3  0  0  0  0  0  0
   39.6360   32.2660   39.5520 N   0  0  0  0  0  0  0  0  0  0  0  0
   36.3540   29.0850   39.8250 C   0  0  0  0  0  0  0  0  0  0  0  0
   35.4710   29.8080   40.3410 O   0  0  0  0  0  0  0  0  0  0  0  0
   39.0990   28.0980   42.0300 C   0  0  0  0  0  0  0  0  0  0  0  0
   38.8820   26.7190   42.2560 C   0  0  0  0  0  0  0  0  0  0  0  0
   37.7770   26.1560   41.6400 C   0  0  0  0  0  0  0  0  0  0  0  0
   37.0470   26.9910   40.9020 N   0  0  0  0  0  0  0  0  0  0  0  0
   37.2390   28.2750   40.6830 C   0  0  0  0  0  0  0  0  0  0  0  0
   38.3040   28.8450   41.2700 N   0  0  0  0  0  0  0  0  0  0  0  0
   39.9630   28.5950   42.4960 H   0  0  0  0  0  0  0  0  0  0  0  0
   39.5810   26.1740   42.8940 H   0  0  0  0  0  0  0  0  0  0  0  0
   37.5570   24.7390   41.8680 C   0  0  0  0  0  0  0  0  0  0  0  0
   38.5940   24.2260   42.6370 F   0  0  0  0  0  0  0  0  0  0  0  0
   37.5810   24.1300   40.6550 F   0  0  0  0  0  0  0  0  0  0  0  0
   36.3940   24.4890   42.5900 F   0  0  0  0  0  0  0  0  0  0  0  0
  1  7  1  6  0  0  0
  1 28  1  0  0  0  0
  2  9  1  0  0  0  0
  2  1  1  0  0  0  0
  2  8  1  0  0  0  0
  3  2  1  0  0  0  0
  4 12  1  0  0  0  0
  4  5  1  0  0  0  0
  4  3  1  0  0  0  0
  5  6  1  0  0  0  0
  6 17  1  0  0  0  0
  6 16  1  1  0  0  0
  6  1  1  0  0  0  0
 10  3  1  0  0  0  0
 11  3  1  0  0  0  0
 13  4  1  0  0  0  0
 14  5  1  0  0  0  0
 15  5  1  0  0  0  0
 17 19  1  0  0  0  0
 17 20  1  0  0  0  0
 18 17  1  0  0  0  0
 20 27  1  0  0  0  0
 21 20  2  0  0  0  0
 21 23  1  0  0  0  0
 22 21  1  0  0  0  0
 23 24  1  0  0  0  0
 23 25  2  0  0  0  0
 26 25  1  0  0  0  0
 27 26  2  0  0  0  0
 28 29  2  0  0  0  0
 28 34  1  0  0  0  0
 30 31  1  0  0  0  0
 30 36  1  0  0  0  0
 31 37  1  0  0  0  0
 32 38  1  0  0  0  0
 32 31  2  0  0  0  0
 33 32  1  0  0  0  0
 34 33  2  0  0  0  0
 34 35  1  0  0  0  0
 35 30  2  0  0  0  0
 38 41  1  0  0  0  0
 38 39  1  0  0  0  0
 40 38  1  0  0  0  0
M  END
>  <minimizedAffinity>
-5.47114372

$$$$

 OpenBabel03242518563D

 41 43  0  0  1  0  0  0  0  0999 V2000
   40.1610   31.5280   39.6970 C   0  0  2  0  0  0  0  0  0  0  0  0
   40.5320   32.8800   39.1800 C   0  0  0  0  0  0  0  0  0  0  0  0
   41.3730   32.6740   37.9710 C   0  0  0  0  0  0  0  0  0  0  0  0
   41.7040   31.2520   37.6490 C   0  0  0  0  0  0  0  0  0  0  0  0
   40.4320   30.4400   37.5200 C   0  0  0  0  0  0  0  0  0  0  0  0
   39.4950   30.7430   38.5900 C   0  0  2  0  0  0  0  0  0  0  0  0
   41.0950   30.9580   39.9110 H   0  0  0  0  0  0  0  0  0  0  0  0
   39.6230   33.4760   38.9540 H   0  0  0  0  0  0  0  0  0  0  0  0
   41.0740   33.4830   39.9690 H   0  0  0  0  0  0  0  0  0  0  0  0
   41.0110   33.1770   37.0460 H   0  0  0  0  0  0  0  0  0  0  0  0
   42.3700   33.1750   38.1640 H   0  0  0  0  0  0  0  0  0  0  0  0
   42.4060   30.7740   38.3550 H   0  0  0  0  0  0  0  0  0  0  0  0
   42.2330   31.2760   36.6620 H   0  0  0  0  0  0  0  0  0  0  0  0
   40.7420   29.3700   37.5550 H   0  0  0  0  0  0  0  0  0  0  0  0
   40.0780   30.6120   36.4650 H   0  0  0  0  0  0  0  0  0  0  0  0
   39.0230   29.8570   39.0400 H   0  0  0  0  0  0  0  0  0  0  0  0
   38.4230   31.5560   37.9420 C   0  0  0  0  0  0  0  0  0  0  0  0
   38.7210   32.0910   37.0250 H   0  0  0  0  0  0  0  0  0  0  0  0
   37.9530   32.2870   38.6560 H   0  0  0  0  0  0  0  0  0  0  0  0
   37.3290   30.6310   37.5300 C   0  0  0  0  0  0  0  0  0  0  0  0
   36.5350   30.2810   38.6250 C   0  0  0  0  0  0  0  0  0  0  0  0
   36.6660   30.6190   39.6510 H   0  0  0  0  0  0  0  0  0  0  0  0
   35.4530   29.4330   38.5040 C   0  0  0  0  0  0  0  0  0  0  0  0
   34.8110   29.1350   39.3190 H   0  0  0  0  0  0  0  0  0  0  0  0
   35.1420   28.9090   37.2620 C   0  0  0  0  0  3  0  0  0  0  0  0
   35.9310   29.2660   36.2110 C   0  0  0  0  0  3  0  0  0  0  0  0
   36.9790   30.0930   36.3530 N   0  0  0  0  0  0  0  0  0  0  0  0
   39.3560   31.5520   40.9430 C   0  0  0  0  0  0  0  0  0  0  0  0
   38.8190   32.5900   41.3920 O   0  0  0  0  0  0  0  0  0  0  0  0
   40.1130   28.5640   42.9110 C   0  0  0  0  0  0  0  0  0  0  0  0
   38.8840   27.8670   42.9670 C   0  0  0  0  0  0  0  0  0  0  0  0
   37.8080   28.4530   42.3220 C   0  0  0  0  0  0  0  0  0  0  0  0
   38.0660   29.6140   41.7210 N   0  0  0  0  0  0  0  0  0  0  0  0
   39.2050   30.2730   41.6610 C   0  0  0  0  0  0  0  0  0  0  0  0
   40.2640   29.7250   42.2790 N   0  0  0  0  0  0  0  0  0  0  0  0
   40.9990   28.1430   43.4070 H   0  0  0  0  0  0  0  0  0  0  0  0
   38.8410   26.9190   43.5070 H   0  0  0  0  0  0  0  0  0  0  0  0
   36.5470   27.7350   42.3750 C   0  0  0  0  0  0  0  0  0  0  0  0
   36.6980   26.4890   41.7800 F   0  0  0  0  0  0  0  0  0  0  0  0
   35.6490   28.4500   41.6530 F   0  0  0  0  0  0  0  0  0  0  0  0
   36.1330   27.4810   43.6790 F   0  0  0  0  0  0  0  0  0  0  0  0
  1  7  1  1  0  0  0
  1 28  1  0  0  0  0
  2  1  1  0  0  0  0
  2  9  1  0  0  0  0
  3 11  1  0  0  0  0
  3  2  1  0  0  0  0
  4  3  1  0  0  0  0
  4 12  1  0  0  0  0
  5 14  1  0  0  0  0
  5  4  1  0  0  0  0
  5  6  1  0  0  0  0
  6 16  1  1  0  0  0
  6  1  1  0  0  0  0
  8  2  1  0  0  0  0
 10  3  1  0  0  0  0
 13  4  1  0  0  0  0
 15  5  1  0  0  0  0
 17  6  1  0  0  0  0
 17 19  1  0  0  0  0
 18 17  1  0  0  0  0
 20 17  1  0  0  0  0
 20 21  1  0  0  0  0
 21 22  1  0  0  0  0
 23 21  2  0  0  0  0
 23 24  1  0  0  0  0
 25 23  1  0  0  0  0
 26 27  1  0  0  0  0
 26 25  2  0  0  0  0
 27 20  2  0  0  0  0
 28 29  2  0  0  0  0
 28 34  1  0  0  0  0
 30 31  1  0  0  0  0
 30 36  1  0  0  0  0
 31 37  1  0  0  0  0
 32 38  1  0  0  0  0
 32 31  2  0  0  0  0
 33 32  1  0  0  0  0
 34 33  2  0  0  0  0
 34 35  1  0  0  0  0
 35 30  2  0  0  0  0
 38 41  1  0  0  0  0
 39 38  1  0  0  0  0
 40 38  1  0  0  0  0
M  END
>  <minimizedAffinity>
-5.45100021

$$$$
