
 OpenBabel03252508463D

 44 46  0  0  0  0  0  0  0  0999 V2000
   43.0180   32.4110   41.7250 C   0  0  0  0  0  0  0  0  0  0  0  0
   43.4950   31.9400   40.8230 H   0  0  0  0  0  0  0  0  0  0  0  0
   42.0710   32.8730   41.3540 H   0  0  0  0  0  0  0  0  0  0  0  0
   43.6770   34.8200   41.9360 C   0  0  0  0  0  0  0  0  0  0  0  0
   43.9020   33.4870   42.2540 C   0  0  0  0  0  0  0  0  0  0  0  0
   44.9640   33.1780   43.0710 C   0  0  0  0  0  0  0  0  0  0  0  0
   45.7740   34.1700   43.5540 C   0  0  0  0  0  0  0  0  0  0  0  0
   45.5770   35.4830   43.2600 C   0  0  0  0  0  0  0  0  0  0  0  0
   44.5000   35.7520   42.4370 C   0  0  0  0  0  0  0  0  0  0  0  0
   45.1820   32.1540   43.3470 H   0  0  0  0  0  0  0  0  0  0  0  0
   46.6020   33.8940   44.1950 H   0  0  0  0  0  0  0  0  0  0  0  0
   46.1840   36.3020   43.6150 H   0  0  0  0  0  0  0  0  0  0  0  0
   44.2680   36.7760   42.1500 H   0  0  0  0  0  0  0  0  0  0  0  0
   40.2620   35.6870   40.5710 C   0  0  0  0  0  0  0  0  0  0  0  0
   41.2850   35.4500   41.5040 C   0  0  0  0  0  0  0  0  0  0  0  0
   42.5440   35.0890   41.0720 C   0  0  0  0  0  0  0  0  0  0  0  0
   42.7220   34.9820   39.7240 N   0  0  0  0  0  0  0  0  0  0  0  0
   41.7290   35.2120   38.8300 C   0  0  0  0  0  0  0  0  0  0  0  0
   40.5060   35.5630   39.2730 N   0  0  0  0  0  0  0  0  0  0  0  0
   39.3170   35.9620   41.0270 H   0  0  0  0  0  0  0  0  0  0  0  0
   41.1690   35.5280   42.5810 H   0  0  0  0  0  0  0  0  0  0  0  0
   41.9610   35.1030   37.7730 H   0  0  0  0  0  0  0  0  0  0  0  0
   42.6690   31.3970   42.6600 N   0  0  0  0  0  0  0  0  0  0  0  0
   43.2270   30.5290   42.5720 H   0  0  0  0  0  0  0  0  0  0  0  0
   41.0130   30.9960   42.6410 S   0  0  0  0  0  0  0  0  0  0  0  0
   40.1740   32.2010   42.2620 O   0  0  0  0  0  0  0  0  0  0  0  0
   39.9250   32.3330   41.3080 H   0  0  0  0  0  0  0  0  0  0  0  0
   40.5700   30.4490   43.9500 O   0  0  0  0  0  0  0  0  0  0  0  0
   41.1660   29.9670   44.5850 H   0  0  0  0  0  0  0  0  0  0  0  0
   40.7750   29.8240   41.4510 O   0  0  0  0  0  0  0  0  0  0  0  0
   40.5050   28.6320   42.1020 C   0  0  0  0  0  0  0  0  0  0  0  0
   39.9730   28.7180   43.0480 H   0  0  0  0  0  0  0  0  0  0  0  0
   39.8220   28.0670   41.4020 H   0  0  0  0  0  0  0  0  0  0  0  0
   41.7560   27.7930   42.1870 C   0  0  0  0  0  0  0  0  0  0  0  0
   42.5350   28.3400   41.5780 H   0  0  0  0  0  0  0  0  0  0  0  0
   41.5520   26.8750   41.5740 H   0  0  0  0  0  0  0  0  0  0  0  0
   42.2160   27.4860   43.5380 C   0  0  0  0  0  0  0  0  0  0  0  0
   41.9360   26.3030   44.1870 C   0  0  0  0  0  0  0  0  0  0  0  0
   41.3440   25.5480   43.6880 H   0  0  0  0  0  0  0  0  0  0  0  0
   42.4530   26.1650   45.4810 C   0  0  0  0  0  0  0  0  0  0  0  0
   42.2520   25.2470   46.0190 H   0  0  0  0  0  0  0  0  0  0  0  0
   43.2030   27.1770   46.0520 C   0  0  0  0  0  3  0  0  0  0  0  0
   43.4700   28.3650   45.3660 C   0  0  0  0  0  3  0  0  0  0  0  0
   42.9580   28.4740   44.1170 N   0  0  0  0  0  0  0  0  0  0  0  0
  1  5  1  0  0  0  0
  1 23  1  0  0  0  0
  2  1  1  0  0  0  0
  3  1  1  0  0  0  0
  4  5  2  0  0  0  0
  4  9  1  0  0  0  0
  5  6  1  0  0  0  0
  6 10  1  0  0  0  0
  6  7  2  0  0  0  0
  7 11  1  0  0  0  0
  8  7  1  0  0  0  0
  8 12  1  0  0  0  0
  9  8  2  0  0  0  0
 13  9  1  0  0  0  0
 14 20  1  0  0  0  0
 14 15  1  0  0  0  0
 15 21  1  0  0  0  0
 16 15  2  0  0  0  0
 16  4  1  0  0  0  0
 17 16  1  0  0  0  0
 18 19  1  0  0  0  0
 18 17  2  0  0  0  0
 19 14  2  0  0  0  0
 22 18  1  0  0  0  0
 24 23  1  0  0  0  0
 25 23  1  0  0  0  0
 25 28  1  0  0  0  0
 26 25  1  0  0  0  0
 27 26  1  0  0  0  0
 28 29  1  0  0  0  0
 30 31  1  0  0  0  0
 30 25  1  0  0  0  0
 31 34  1  0  0  0  0
 31 32  1  0  0  0  0
 33 31  1  0  0  0  0
 34 37  1  0  0  0  0
 35 34  1  0  0  0  0
 36 34  1  0  0  0  0
 37 44  2  0  0  0  0
 37 38  1  0  0  0  0
 38 40  2  0  0  0  0
 39 38  1  0  0  0  0
 40 41  1  0  0  0  0
 40 42  1  0  0  0  0
 43 42  2  0  0  0  0
 44 43  1  0  0  0  0
M  END
>  <minimizedAffinity>
-4.9882741

>  <minimizedRMSD>
1.63061023

$$$$
