
 OpenBabel03242522343D

 20 21  0  0  0  0  0  0  0  0999 V2000
   39.3460   30.2360   42.0710 C   0  0  0  0  0  0  0  0  0  0  0  0
   40.3380   29.9890   41.6250 H   0  0  0  0  0  0  0  0  0  0  0  0
   39.5230   30.6530   43.0760 H   0  0  0  0  0  0  0  0  0  0  0  0
   36.9950   31.9000   39.7030 C   0  0  0  0  0  0  0  0  0  0  0  0
   37.4870   33.2040   39.6920 C   0  0  0  0  0  0  0  0  0  0  0  0
   38.6030   33.4980   40.4850 C   0  0  0  0  0  0  0  0  0  0  0  0
   39.1590   32.4920   41.2340 N   0  0  0  0  0  0  0  0  0  0  0  0
   38.6410   31.2420   41.2050 C   0  0  0  0  0  0  0  0  0  0  0  0
   37.5800   30.9600   40.4520 N   0  0  0  0  0  0  0  0  0  0  0  0
   36.1370   31.7300   39.0740 H   0  0  0  0  0  0  0  0  0  0  0  0
   37.0960   34.0480   39.1250 H   0  0  0  0  0  0  0  0  0  0  0  0
   39.1010   34.4550   40.5880 H   0  0  0  0  0  0  0  0  0  0  0  0
   38.5500   29.0030   42.2400 C   0  0  0  0  0  0  0  0  0  0  0  0
   37.7800   28.8830   43.3700 C   0  0  0  0  0  0  0  0  0  0  0  0
   37.7710   29.6800   44.1010 H   0  0  0  0  0  0  0  0  0  0  0  0
   36.9900   27.8110   43.6770 C   0  0  0  0  0  0  0  0  0  0  0  0
   36.3940   27.7690   44.5970 H   0  0  0  0  0  0  0  0  0  0  0  0
   36.9410   26.7510   42.8030 C   0  0  0  0  0  3  0  0  0  0  0  0
   37.7220   26.8790   41.6630 C   0  0  0  0  0  3  0  0  0  0  0  0
   38.4940   27.9630   41.3980 N   0  0  0  0  0  0  0  0  0  0  0  0
  1 13  1  0  0  0  0
  1  3  1  0  0  0  0
  2  1  1  0  0  0  0
  4  9  1  0  0  0  0
  5  4  2  0  0  0  0
  5  6  1  0  0  0  0
  6 12  1  0  0  0  0
  6  7  2  0  0  0  0
  8  7  1  0  0  0  0
  8  1  1  0  0  0  0
  9  8  2  0  0  0  0
 10  4  1  0  0  0  0
 11  5  1  0  0  0  0
 13 14  1  0  0  0  0
 14 16  2  0  0  0  0
 14 15  1  0  0  0  0
 16 17  1  0  0  0  0
 18 16  1  0  0  0  0
 19 18  2  0  0  0  0
 20 19  1  0  0  0  0
 20 13  2  0  0  0  0
M  END
>  <minimizedAffinity>
-4.21195984

$$$$

 OpenBabel03242522343D

 20 21  0  0  0  0  0  0  0  0999 V2000
   35.5280   29.0870   40.7560 C   0  0  0  0  0  0  0  0  0  0  0  0
   35.0080   28.5000   39.9640 H   0  0  0  0  0  0  0  0  0  0  0  0
   34.7600   29.4850   41.4400 H   0  0  0  0  0  0  0  0  0  0  0  0
   37.8430   27.6560   43.3050 C   0  0  0  0  0  0  0  0  0  0  0  0
   38.1980   26.4470   42.7110 C   0  0  0  0  0  0  0  0  0  0  0  0
   37.6500   26.1370   41.4600 C   0  0  0  0  0  0  0  0  0  0  0  0
   36.7900   27.0340   40.8800 N   0  0  0  0  0  0  0  0  0  0  0  0
   36.4800   28.1950   41.5020 C   0  0  0  0  0  0  0  0  0  0  0  0
   37.0000   28.4920   42.6910 N   0  0  0  0  0  0  0  0  0  0  0  0
   38.2940   27.8440   44.2650 H   0  0  0  0  0  0  0  0  0  0  0  0
   38.8710   25.6910   43.1130 H   0  0  0  0  0  0  0  0  0  0  0  0
   37.8230   25.2440   40.8710 H   0  0  0  0  0  0  0  0  0  0  0  0
   36.2190   30.2450   40.1510 C   0  0  0  0  0  0  0  0  0  0  0  0
   36.4990   30.1990   38.8080 C   0  0  0  0  0  0  0  0  0  0  0  0
   36.2130   29.3310   38.2290 H   0  0  0  0  0  0  0  0  0  0  0  0
   37.1310   31.1820   38.0990 C   0  0  0  0  0  0  0  0  0  0  0  0
   37.3290   31.0900   37.0240 H   0  0  0  0  0  0  0  0  0  0  0  0
   37.5290   32.3220   38.7550 C   0  0  0  0  0  3  0  0  0  0  0  0
   37.2420   32.3620   40.1130 C   0  0  0  0  0  3  0  0  0  0  0  0
   36.6130   31.3610   40.7790 N   0  0  0  0  0  0  0  0  0  0  0  0
  1  3  1  0  0  0  0
  1  8  1  0  0  0  0
  2  1  1  0  0  0  0
  4 10  1  0  0  0  0
  5 11  1  0  0  0  0
  5  4  1  0  0  0  0
  6  5  2  0  0  0  0
  7  6  1  0  0  0  0
  7  8  2  0  0  0  0
  8  9  1  0  0  0  0
  9  4  2  0  0  0  0
 12  6  1  0  0  0  0
 13  1  1  0  0  0  0
 13 20  1  0  0  0  0
 14 13  2  0  0  0  0
 15 14  1  0  0  0  0
 16 18  2  0  0  0  0
 16 14  1  0  0  0  0
 17 16  1  0  0  0  0
 18 19  1  0  0  0  0
 19 20  2  0  0  0  0
M  END
>  <minimizedAffinity>
-4.13110161

$$$$

 OpenBabel03242522343D

 20 21  0  0  0  0  0  0  0  0999 V2000
   37.4540   28.4520   43.6420 C   0  0  0  0  0  0  0  0  0  0  0  0
   37.7620   28.7350   44.6750 H   0  0  0  0  0  0  0  0  0  0  0  0
   36.3580   28.3420   43.6340 H   0  0  0  0  0  0  0  0  0  0  0  0
   39.4160   31.0100   41.7690 C   0  0  0  0  0  0  0  0  0  0  0  0
   38.4720   31.4650   40.8490 C   0  0  0  0  0  0  0  0  0  0  0  0
   37.1920   30.9000   40.8780 C   0  0  0  0  0  0  0  0  0  0  0  0
   36.9250   29.9270   41.8070 N   0  0  0  0  0  0  0  0  0  0  0  0
   37.8790   29.5230   42.6780 C   0  0  0  0  0  0  0  0  0  0  0  0
   39.0980   30.0590   42.6520 N   0  0  0  0  0  0  0  0  0  0  0  0
   40.3830   31.4800   41.7020 H   0  0  0  0  0  0  0  0  0  0  0  0
   38.6150   32.2310   40.0870 H   0  0  0  0  0  0  0  0  0  0  0  0
   36.3530   31.1410   40.2350 H   0  0  0  0  0  0  0  0  0  0  0  0
   38.0290   27.1360   43.2900 C   0  0  0  0  0  0  0  0  0  0  0  0
   37.2770   26.2910   42.5140 C   0  0  0  0  0  0  0  0  0  0  0  0
   36.2950   26.5980   42.1810 H   0  0  0  0  0  0  0  0  0  0  0  0
   37.6600   25.0440   42.1030 C   0  0  0  0  0  0  0  0  0  0  0  0
   37.0160   24.4110   41.4820 H   0  0  0  0  0  0  0  0  0  0  0  0
   38.8950   24.5720   42.4800 C   0  0  0  0  0  3  0  0  0  0  0  0
   39.6510   25.4330   43.2650 C   0  0  0  0  0  3  0  0  0  0  0  0
   39.2290   26.6630   43.6520 N   0  0  0  0  0  0  0  0  0  0  0  0
  1  2  1  0  0  0  0
  3  1  1  0  0  0  0
  4  9  1  0  0  0  0
  5  6  1  0  0  0  0
  5  4  2  0  0  0  0
  6  7  2  0  0  0  0
  7  8  1  0  0  0  0
  8  1  1  0  0  0  0
  9  8  2  0  0  0  0
 10  4  1  0  0  0  0
 11  5  1  0  0  0  0
 12  6  1  0  0  0  0
 13  1  1  0  0  0  0
 13 20  1  0  0  0  0
 14 13  2  0  0  0  0
 15 14  1  0  0  0  0
 16 18  2  0  0  0  0
 16 14  1  0  0  0  0
 17 16  1  0  0  0  0
 18 19  1  0  0  0  0
 19 20  2  0  0  0  0
M  END
>  <minimizedAffinity>
-4.12504387

$$$$

 OpenBabel03242522343D

 20 21  0  0  0  0  0  0  0  0999 V2000
   35.8180   29.9180   40.7420 C   0  0  0  0  0  0  0  0  0  0  0  0
   35.2340   30.6920   41.2910 H   0  0  0  0  0  0  0  0  0  0  0  0
   35.1110   29.1520   40.3850 H   0  0  0  0  0  0  0  0  0  0  0  0
   37.4530   32.3580   38.4450 C   0  0  0  0  0  0  0  0  0  0  0  0
   37.8350   31.5320   37.3880 C   0  0  0  0  0  0  0  0  0  0  0  0
   37.5320   30.1680   37.4700 C   0  0  0  0  0  0  0  0  0  0  0  0
   36.8780   29.7070   38.5840 N   0  0  0  0  0  0  0  0  0  0  0  0
   36.5300   30.5540   39.5810 C   0  0  0  0  0  0  0  0  0  0  0  0
   36.8160   31.8520   39.5050 N   0  0  0  0  0  0  0  0  0  0  0  0
   37.7100   33.3970   38.3280 H   0  0  0  0  0  0  0  0  0  0  0  0
   38.3540   31.8290   36.4780 H   0  0  0  0  0  0  0  0  0  0  0  0
   37.7600   29.4000   36.7400 H   0  0  0  0  0  0  0  0  0  0  0  0
   36.7590   29.2510   41.6660 C   0  0  0  0  0  0  0  0  0  0  0  0
   36.4640   27.9760   42.0780 C   0  0  0  0  0  0  0  0  0  0  0  0
   35.5630   27.4920   41.7240 H   0  0  0  0  0  0  0  0  0  0  0  0
   37.2250   27.2230   42.9270 C   0  0  0  0  0  0  0  0  0  0  0  0
   36.9380   26.2070   43.2230 H   0  0  0  0  0  0  0  0  0  0  0  0
   38.3890   27.7590   43.4260 C   0  0  0  0  0  3  0  0  0  0  0  0
   38.6820   29.0490   43.0050 C   0  0  0  0  0  3  0  0  0  0  0  0
   37.8950   29.7610   42.1600 N   0  0  0  0  0  0  0  0  0  0  0  0
  1  2  1  0  0  0  0
  1 13  1  0  0  0  0
  3  1  1  0  0  0  0
  4  9  1  0  0  0  0
  5  6  1  0  0  0  0
  5  4  2  0  0  0  0
  6  7  2  0  0  0  0
  7  8  1  0  0  0  0
  8  1  1  0  0  0  0
  9  8  2  0  0  0  0
 10  4  1  0  0  0  0
 11  5  1  0  0  0  0
 12  6  1  0  0  0  0
 13 14  2  0  0  0  0
 13 20  1  0  0  0  0
 14 16  1  0  0  0  0
 15 14  1  0  0  0  0
 16 17  1  0  0  0  0
 16 18  2  0  0  0  0
 19 18  1  0  0  0  0
 20 19  2  0  0  0  0
M  END
>  <minimizedAffinity>
-4.1112299

$$$$

 OpenBabel03242522343D

 20 21  0  0  0  0  0  0  0  0999 V2000
   35.3300   29.2720   40.5370 C   0  0  0  0  0  0  0  0  0  0  0  0
   34.7850   29.6900   41.4160 H   0  0  0  0  0  0  0  0  0  0  0  0
   34.5790   28.9130   39.8140 H   0  0  0  0  0  0  0  0  0  0  0  0
   37.2620   31.3650   38.1310 C   0  0  0  0  0  0  0  0  0  0  0  0
   37.7440   32.3730   38.9630 C   0  0  0  0  0  0  0  0  0  0  0  0
   37.4080   32.3280   40.3220 C   0  0  0  0  0  0  0  0  0  0  0  0
   36.6210   31.2980   40.7690 N   0  0  0  0  0  0  0  0  0  0  0  0
   36.1810   30.3430   39.9160 C   0  0  0  0  0  0  0  0  0  0  0  0
   36.5000   30.3840   38.6240 N   0  0  0  0  0  0  0  0  0  0  0  0
   37.5510   31.4480   37.0970 H   0  0  0  0  0  0  0  0  0  0  0  0
   38.3690   33.2170   38.6770 H   0  0  0  0  0  0  0  0  0  0  0  0
   37.7000   33.0310   41.0940 H   0  0  0  0  0  0  0  0  0  0  0  0
   36.1330   28.1040   40.9530 C   0  0  0  0  0  0  0  0  0  0  0  0
   36.4610   27.9870   42.2810 C   0  0  0  0  0  0  0  0  0  0  0  0
   36.1320   28.7400   42.9840 H   0  0  0  0  0  0  0  0  0  0  0  0
   37.1960   26.9720   42.8270 C   0  0  0  0  0  0  0  0  0  0  0  0
   37.4290   26.9300   43.8970 H   0  0  0  0  0  0  0  0  0  0  0  0
   37.6570   25.9700   42.0050 C   0  0  0  0  0  3  0  0  0  0  0  0
   37.3210   26.0940   40.6640 C   0  0  0  0  0  3  0  0  0  0  0  0
   36.5880   27.1220   40.1640 N   0  0  0  0  0  0  0  0  0  0  0  0
  1 13  1  0  0  0  0
  1  2  1  0  0  0  0
  3  1  1  0  0  0  0
  4  9  2  0  0  0  0
  4  5  1  0  0  0  0
  5  6  2  0  0  0  0
  6  7  1  0  0  0  0
  6 12  1  0  0  0  0
  8  1  1  0  0  0  0
  8  7  2  0  0  0  0
  9  8  1  0  0  0  0
 10  4  1  0  0  0  0
 11  5  1  0  0  0  0
 13 14  1  0  0  0  0
 14 16  2  0  0  0  0
 14 15  1  0  0  0  0
 16 17  1  0  0  0  0
 18 16  1  0  0  0  0
 19 18  2  0  0  0  0
 20 19  1  0  0  0  0
 20 13  2  0  0  0  0
M  END
>  <minimizedAffinity>
-4.09615231

$$$$

 OpenBabel03242522343D

 20 21  0  0  0  0  0  0  0  0999 V2000
   36.8200   27.4330   43.0000 C   0  0  0  0  0  0  0  0  0  0  0  0
   37.3100   27.7710   43.9430 H   0  0  0  0  0  0  0  0  0  0  0  0
   35.8250   27.0360   43.2600 H   0  0  0  0  0  0  0  0  0  0  0  0
   37.3240   30.6580   41.1990 C   0  0  0  0  0  0  0  0  0  0  0  0
   36.2990   30.6140   40.2560 C   0  0  0  0  0  0  0  0  0  0  0  0
   35.4550   29.4970   40.2460 C   0  0  0  0  0  0  0  0  0  0  0  0
   35.6780   28.4990   41.1610 N   0  0  0  0  0  0  0  0  0  0  0  0
   36.6890   28.5940   42.0560 C   0  0  0  0  0  0  0  0  0  0  0  0
   37.4910   29.6560   42.0670 N   0  0  0  0  0  0  0  0  0  0  0  0
   37.9410   31.5410   41.1630 H   0  0  0  0  0  0  0  0  0  0  0  0
   36.0660   31.3670   39.5050 H   0  0  0  0  0  0  0  0  0  0  0  0
   34.6200   29.3110   39.5820 H   0  0  0  0  0  0  0  0  0  0  0  0
   37.5920   26.3230   42.4030 C   0  0  0  0  0  0  0  0  0  0  0  0
   36.9420   25.1370   42.1700 C   0  0  0  0  0  0  0  0  0  0  0  0
   35.8950   25.0390   42.4250 H   0  0  0  0  0  0  0  0  0  0  0  0
   37.5100   24.0180   41.6280 C   0  0  0  0  0  0  0  0  0  0  0  0
   36.9400   23.0950   41.4650 H   0  0  0  0  0  0  0  0  0  0  0  0
   38.8380   24.0520   41.2750 C   0  0  0  0  0  3  0  0  0  0  0  0
   39.4890   25.2550   41.5130 C   0  0  0  0  0  3  0  0  0  0  0  0
   38.8860   26.3430   42.0550 N   0  0  0  0  0  0  0  0  0  0  0  0
  1  3  1  0  0  0  0
  1  2  1  0  0  0  0
  4  9  1  0  0  0  0
  5  4  2  0  0  0  0
  6  5  1  0  0  0  0
  6  7  2  0  0  0  0
  7  8  1  0  0  0  0
  8  9  2  0  0  0  0
  8  1  1  0  0  0  0
 10  4  1  0  0  0  0
 11  5  1  0  0  0  0
 12  6  1  0  0  0  0
 13  1  1  0  0  0  0
 14 13  1  0  0  0  0
 14 15  1  0  0  0  0
 16 14  2  0  0  0  0
 17 16  1  0  0  0  0
 18 19  2  0  0  0  0
 18 16  1  0  0  0  0
 19 20  1  0  0  0  0
 20 13  2  0  0  0  0
M  END
>  <minimizedAffinity>
-4.07269764

$$$$

 OpenBabel03242522343D

 20 21  0  0  0  0  0  0  0  0999 V2000
   36.5780   27.7420   43.0270 C   0  0  0  0  0  0  0  0  0  0  0  0
   36.5980   28.2430   44.0230 H   0  0  0  0  0  0  0  0  0  0  0  0
   35.6450   27.1590   42.9620 H   0  0  0  0  0  0  0  0  0  0  0  0
   37.3660   30.7680   40.9950 C   0  0  0  0  0  0  0  0  0  0  0  0
   36.5770   30.5580   39.8660 C   0  0  0  0  0  0  0  0  0  0  0  0
   35.7930   29.3990   39.8110 C   0  0  0  0  0  0  0  0  0  0  0  0
   35.8390   28.5260   40.8680 N   0  0  0  0  0  0  0  0  0  0  0  0
   36.6220   28.7800   41.9410 C   0  0  0  0  0  0  0  0  0  0  0  0
   37.3680   29.8820   41.9950 N   0  0  0  0  0  0  0  0  0  0  0  0
   37.9470   31.6750   40.9850 H   0  0  0  0  0  0  0  0  0  0  0  0
   36.4930   31.2060   38.9950 H   0  0  0  0  0  0  0  0  0  0  0  0
   35.1310   29.0910   39.0090 H   0  0  0  0  0  0  0  0  0  0  0  0
   37.7010   26.7880   42.9220 C   0  0  0  0  0  0  0  0  0  0  0  0
   38.8280   27.0330   43.6650 C   0  0  0  0  0  0  0  0  0  0  0  0
   38.8720   27.9070   44.3020 H   0  0  0  0  0  0  0  0  0  0  0  0
   39.9510   26.2530   43.6800 C   0  0  0  0  0  0  0  0  0  0  0  0
   40.8240   26.5000   44.2950 H   0  0  0  0  0  0  0  0  0  0  0  0
   39.9830   25.1220   42.8990 C   0  0  0  0  0  3  0  0  0  0  0  0
   38.8390   24.8790   42.1500 C   0  0  0  0  0  3  0  0  0  0  0  0
   37.7460   25.6830   42.1650 N   0  0  0  0  0  0  0  0  0  0  0  0
  1  2  1  0  0  0  0
  3  1  1  0  0  0  0
  4  9  1  0  0  0  0
  5  4  2  0  0  0  0
  6  5  1  0  0  0  0
  6  7  2  0  0  0  0
  7  8  1  0  0  0  0
  8  9  2  0  0  0  0
  8  1  1  0  0  0  0
 10  4  1  0  0  0  0
 11  5  1  0  0  0  0
 12  6  1  0  0  0  0
 13  1  1  0  0  0  0
 13 14  1  0  0  0  0
 14 16  2  0  0  0  0
 14 15  1  0  0  0  0
 16 17  1  0  0  0  0
 18 16  1  0  0  0  0
 19 20  1  0  0  0  0
 19 18  2  0  0  0  0
 20 13  2  0  0  0  0
M  END
>  <minimizedAffinity>
-4.05179596

$$$$

 OpenBabel03242522343D

 20 21  0  0  0  0  0  0  0  0999 V2000
   35.6480   29.5590   40.6700 C   0  0  0  0  0  0  0  0  0  0  0  0
   34.8120   28.9180   40.3040 H   0  0  0  0  0  0  0  0  0  0  0  0
   35.2090   30.3810   41.2580 H   0  0  0  0  0  0  0  0  0  0  0  0
   37.6080   26.7600   42.1620 C   0  0  0  0  0  0  0  0  0  0  0  0
   38.2990   27.4150   43.1800 C   0  0  0  0  0  0  0  0  0  0  0  0
   38.0900   28.7900   43.3440 C   0  0  0  0  0  0  0  0  0  0  0  0
   37.2190   29.4270   42.4970 N   0  0  0  0  0  0  0  0  0  0  0  0
   36.5730   28.7410   41.5260 C   0  0  0  0  0  0  0  0  0  0  0  0
   36.7700   27.4330   41.3680 N   0  0  0  0  0  0  0  0  0  0  0  0
   37.8050   25.7040   42.0820 H   0  0  0  0  0  0  0  0  0  0  0  0
   39.0020   26.9750   43.8840 H   0  0  0  0  0  0  0  0  0  0  0  0
   38.5480   29.4400   44.0800 H   0  0  0  0  0  0  0  0  0  0  0  0
   36.3540   30.1670   39.5230 C   0  0  0  0  0  0  0  0  0  0  0  0
   36.7630   31.4720   39.6370 C   0  0  0  0  0  0  0  0  0  0  0  0
   36.5640   32.0210   40.5480 H   0  0  0  0  0  0  0  0  0  0  0  0
   37.4240   32.1800   38.6720 C   0  0  0  0  0  0  0  0  0  0  0  0
   37.7270   33.2240   38.8190 H   0  0  0  0  0  0  0  0  0  0  0  0
   37.7190   31.5620   37.4800 C   0  0  0  0  0  3  0  0  0  0  0  0
   37.3020   30.2410   37.3720 C   0  0  0  0  0  3  0  0  0  0  0  0
   36.6460   29.5770   38.3570 N   0  0  0  0  0  0  0  0  0  0  0  0
  1  3  1  0  0  0  0
  1  8  1  0  0  0  0
  2  1  1  0  0  0  0
  4  5  1  0  0  0  0
  5  6  2  0  0  0  0
  5 11  1  0  0  0  0
  6 12  1  0  0  0  0
  7  6  1  0  0  0  0
  8  7  2  0  0  0  0
  9  8  1  0  0  0  0
  9  4  2  0  0  0  0
 10  4  1  0  0  0  0
 13 14  1  0  0  0  0
 13  1  1  0  0  0  0
 14 15  1  0  0  0  0
 16 17  1  0  0  0  0
 16 14  2  0  0  0  0
 18 16  1  0  0  0  0
 19 18  2  0  0  0  0
 19 20  1  0  0  0  0
 20 13  2  0  0  0  0
M  END
>  <minimizedAffinity>
-4.02861595

$$$$

 OpenBabel03242522343D

 20 21  0  0  0  0  0  0  0  0999 V2000
   36.8680   27.4810   43.0300 C   0  0  0  0  0  0  0  0  0  0  0  0
   35.8650   27.2080   43.4320 H   0  0  0  0  0  0  0  0  0  0  0  0
   37.4870   27.8290   43.8730 H   0  0  0  0  0  0  0  0  0  0  0  0
   37.4890   24.0780   41.6380 C   0  0  0  0  0  0  0  0  0  0  0  0
   38.8000   24.1990   41.1810 C   0  0  0  0  0  0  0  0  0  0  0  0
   39.4510   25.4270   41.3510 C   0  0  0  0  0  0  0  0  0  0  0  0
   38.7690   26.4520   41.9560 N   0  0  0  0  0  0  0  0  0  0  0  0
   37.4970   26.2790   42.3830 C   0  0  0  0  0  0  0  0  0  0  0  0
   36.8760   25.1120   42.2220 N   0  0  0  0  0  0  0  0  0  0  0  0
   37.0380   23.1120   41.4830 H   0  0  0  0  0  0  0  0  0  0  0  0
   39.3980   23.4310   40.6930 H   0  0  0  0  0  0  0  0  0  0  0  0
   40.4610   25.6820   41.0520 H   0  0  0  0  0  0  0  0  0  0  0  0
   36.7400   28.6100   42.0840 C   0  0  0  0  0  0  0  0  0  0  0  0
   35.7810   28.5250   41.1050 C   0  0  0  0  0  0  0  0  0  0  0  0
   35.1490   27.6490   41.0460 H   0  0  0  0  0  0  0  0  0  0  0  0
   35.5360   29.4770   40.1560 C   0  0  0  0  0  0  0  0  0  0  0  0
   34.7540   29.3550   39.3960 H   0  0  0  0  0  0  0  0  0  0  0  0
   36.2920   30.6250   40.1560 C   0  0  0  0  0  3  0  0  0  0  0  0
   37.2600   30.7040   41.1480 C   0  0  0  0  0  3  0  0  0  0  0  0
   37.4710   29.7330   42.0720 N   0  0  0  0  0  0  0  0  0  0  0  0
  1  2  1  0  0  0  0
  1  3  1  0  0  0  0
  4  9  1  0  0  0  0
  5  6  1  0  0  0  0
  5  4  2  0  0  0  0
  6  7  2  0  0  0  0
  7  8  1  0  0  0  0
  8  1  1  0  0  0  0
  9  8  2  0  0  0  0
 10  4  1  0  0  0  0
 11  5  1  0  0  0  0
 12  6  1  0  0  0  0
 13  1  1  0  0  0  0
 14 13  2  0  0  0  0
 15 14  1  0  0  0  0
 16 14  1  0  0  0  0
 17 16  1  0  0  0  0
 18 16  2  0  0  0  0
 18 19  1  0  0  0  0
 19 20  2  0  0  0  0
 20 13  1  0  0  0  0
M  END
>  <minimizedAffinity>
-3.9825201

$$$$
