
 OpenBabel03252508483D

 44 46  0  0  0  0  0  0  0  0999 V2000
   36.9210   27.1460   41.9240 C   0  0  0  0  0  0  0  0  0  0  0  0
   36.4240   27.5500   42.8470 H   0  0  0  0  0  0  0  0  0  0  0  0
   36.1520   26.5050   41.4280 H   0  0  0  0  0  0  0  0  0  0  0  0
   38.3320   25.0920   41.6620 C   0  0  0  0  0  0  0  0  0  0  0  0
   38.0790   26.2930   42.3120 C   0  0  0  0  0  0  0  0  0  0  0  0
   38.9220   26.6810   43.3250 C   0  0  0  0  0  0  0  0  0  0  0  0
   39.9850   25.8940   43.6790 C   0  0  0  0  0  0  0  0  0  0  0  0
   40.2580   24.7140   43.0610 C   0  0  0  0  0  0  0  0  0  0  0  0
   39.3870   24.3590   42.0480 C   0  0  0  0  0  0  0  0  0  0  0  0
   38.7660   27.6080   43.8620 H   0  0  0  0  0  0  0  0  0  0  0  0
   40.6300   26.2270   44.4810 H   0  0  0  0  0  0  0  0  0  0  0  0
   41.0800   24.0570   43.3000 H   0  0  0  0  0  0  0  0  0  0  0  0
   39.5300   23.4300   41.4990 H   0  0  0  0  0  0  0  0  0  0  0  0
   35.5280   23.5800   39.6300 C   0  0  0  0  0  0  0  0  0  0  0  0
   36.3550   23.8550   40.7330 C   0  0  0  0  0  0  0  0  0  0  0  0
   37.4120   24.7300   40.6010 C   0  0  0  0  0  0  0  0  0  0  0  0
   37.5940   25.2920   39.3710 N   0  0  0  0  0  0  0  0  0  0  0  0
   36.7910   25.0220   38.3130 C   0  0  0  0  0  0  0  0  0  0  0  0
   35.7640   24.1620   38.4630 N   0  0  0  0  0  0  0  0  0  0  0  0
   34.7320   22.8780   39.8530 H   0  0  0  0  0  0  0  0  0  0  0  0
   36.2320   23.4210   41.7200 H   0  0  0  0  0  0  0  0  0  0  0  0
   37.0110   25.5150   37.3690 H   0  0  0  0  0  0  0  0  0  0  0  0
   37.2260   28.2190   41.0410 N   0  0  0  0  0  0  0  0  0  0  0  0
   38.1800   28.1820   40.6430 H   0  0  0  0  0  0  0  0  0  0  0  0
   36.9710   29.7580   41.7280 S   0  0  0  0  0  0  0  0  0  0  0  0
   37.0630   29.6910   43.2410 O   0  0  0  0  0  0  0  0  0  0  0  0
   37.9350   29.8840   43.6780 H   0  0  0  0  0  0  0  0  0  0  0  0
   35.6630   30.3290   41.3150 O   0  0  0  0  0  0  0  0  0  0  0  0
   35.2030   30.1130   40.4600 H   0  0  0  0  0  0  0  0  0  0  0  0
   38.2060   30.7760   41.1940 O   0  0  0  0  0  0  0  0  0  0  0  0
   37.6060   31.8100   40.4950 C   0  0  0  0  0  0  0  0  0  0  0  0
   37.2540   31.5640   39.4950 H   0  0  0  0  0  0  0  0  0  0  0  0
   36.6900   32.0760   41.0990 H   0  0  0  0  0  0  0  0  0  0  0  0
   38.4750   33.0420   40.5440 C   0  0  0  0  0  0  0  0  0  0  0  0
   38.8520   33.1100   41.6070 H   0  0  0  0  0  0  0  0  0  0  0  0
   37.7760   33.9160   40.4650 H   0  0  0  0  0  0  0  0  0  0  0  0
   39.5560   33.0870   39.5630 C   0  0  0  0  0  0  0  0  0  0  0  0
   40.6360   33.9390   39.6580 C   0  0  0  0  0  0  0  0  0  0  0  0
   40.7050   34.6190   40.4950 H   0  0  0  0  0  0  0  0  0  0  0  0
   41.5860   33.8560   38.6340 C   0  0  0  0  0  0  0  0  0  0  0  0
   42.4470   34.5110   38.6790 H   0  0  0  0  0  0  0  0  0  0  0  0
   41.4270   32.9570   37.5940 C   0  0  0  0  0  3  0  0  0  0  0  0
   40.3200   32.1060   37.5270 C   0  0  0  0  0  3  0  0  0  0  0  0
   39.4140   32.2060   38.5300 N   0  0  0  0  0  0  0  0  0  0  0  0
  1  5  1  0  0  0  0
  1  2  1  0  0  0  0
  3  1  1  0  0  0  0
  4  9  2  0  0  0  0
  4  5  1  0  0  0  0
  5  6  2  0  0  0  0
  6  7  1  0  0  0  0
  6 10  1  0  0  0  0
  7 11  1  0  0  0  0
  8 12  1  0  0  0  0
  8  7  2  0  0  0  0
  9  8  1  0  0  0  0
 13  9  1  0  0  0  0
 14 20  1  0  0  0  0
 14 15  1  0  0  0  0
 15 21  1  0  0  0  0
 16 15  2  0  0  0  0
 16  4  1  0  0  0  0
 17 16  1  0  0  0  0
 18 19  1  0  0  0  0
 18 17  2  0  0  0  0
 19 14  2  0  0  0  0
 22 18  1  0  0  0  0
 23 25  1  0  0  0  0
 23  1  1  0  0  0  0
 24 23  1  0  0  0  0
 25 26  1  0  0  0  0
 26 27  1  0  0  0  0
 28 25  1  0  0  0  0
 29 28  1  0  0  0  0
 30 25  1  0  0  0  0
 31 34  1  0  0  0  0
 31 33  1  0  0  0  0
 31 30  1  0  0  0  0
 32 31  1  0  0  0  0
 34 35  1  0  0  0  0
 36 34  1  0  0  0  0
 37 38  1  0  0  0  0
 37 34  1  0  0  0  0
 38 39  1  0  0  0  0
 40 41  1  0  0  0  0
 40 38  2  0  0  0  0
 42 40  1  0  0  0  0
 43 42  2  0  0  0  0
 43 44  1  0  0  0  0
 44 37  2  0  0  0  0
M  END
>  <minimizedAffinity>
-5.79294777

$$$$

 OpenBabel03252508483D

 44 46  0  0  0  0  0  0  0  0999 V2000
   37.9100   30.5600   37.5750 C   0  0  0  0  0  0  0  0  0  0  0  0
   38.6560   31.2060   38.1120 H   0  0  0  0  0  0  0  0  0  0  0  0
   37.4280   31.2260   36.8180 H   0  0  0  0  0  0  0  0  0  0  0  0
   36.6920   30.7250   39.7590 C   0  0  0  0  0  0  0  0  0  0  0  0
   36.8710   30.0940   38.5350 C   0  0  0  0  0  0  0  0  0  0  0  0
   36.0660   29.0230   38.2260 C   0  0  0  0  0  0  0  0  0  0  0  0
   35.1130   28.5980   39.1110 C   0  0  0  0  0  0  0  0  0  0  0  0
   34.9140   29.1970   40.3160 C   0  0  0  0  0  0  0  0  0  0  0  0
   35.7430   30.2680   40.5890 C   0  0  0  0  0  0  0  0  0  0  0  0
   36.1670   28.4970   37.2850 H   0  0  0  0  0  0  0  0  0  0  0  0
   34.4950   27.7520   38.8380 H   0  0  0  0  0  0  0  0  0  0  0  0
   34.1790   28.9020   41.0480 H   0  0  0  0  0  0  0  0  0  0  0  0
   35.6540   30.8070   41.5310 H   0  0  0  0  0  0  0  0  0  0  0  0
   38.2480   34.1610   39.9820 C   0  0  0  0  0  0  0  0  0  0  0  0
   37.3250   33.1520   39.6580 C   0  0  0  0  0  0  0  0  0  0  0  0
   37.5670   31.8480   40.0340 C   0  0  0  0  0  0  0  0  0  0  0  0
   38.7230   31.6120   40.7180 N   0  0  0  0  0  0  0  0  0  0  0  0
   39.6090   32.5900   41.0260 C   0  0  0  0  0  0  0  0  0  0  0  0
   39.3540   33.8590   40.6490 N   0  0  0  0  0  0  0  0  0  0  0  0
   37.9520   35.1450   39.6340 H   0  0  0  0  0  0  0  0  0  0  0  0
   36.3980   33.3150   39.1150 H   0  0  0  0  0  0  0  0  0  0  0  0
   40.5060   32.3110   41.5740 H   0  0  0  0  0  0  0  0  0  0  0  0
   38.5950   29.5290   36.8730 N   0  0  0  0  0  0  0  0  0  0  0  0
   38.0470   28.6580   36.7590 H   0  0  0  0  0  0  0  0  0  0  0  0
   40.1140   29.1440   37.5430 S   0  0  0  0  0  0  0  0  0  0  0  0
   40.4200   30.0400   38.7280 O   0  0  0  0  0  0  0  0  0  0  0  0
   40.1850   29.7250   39.6410 H   0  0  0  0  0  0  0  0  0  0  0  0
   41.1960   29.2410   36.5280 O   0  0  0  0  0  0  0  0  0  0  0  0
   41.0620   29.1030   35.5530 H   0  0  0  0  0  0  0  0  0  0  0  0
   40.0430   27.5590   38.1160 O   0  0  0  0  0  0  0  0  0  0  0  0
   39.8890   27.6300   39.4900 C   0  0  0  0  0  0  0  0  0  0  0  0
   40.7410   27.3000   40.0810 H   0  0  0  0  0  0  0  0  0  0  0  0
   39.7550   28.7300   39.7110 H   0  0  0  0  0  0  0  0  0  0  0  0
   38.5850   26.9910   39.8990 C   0  0  0  0  0  0  0  0  0  0  0  0
   38.7440   25.8770   39.7980 H   0  0  0  0  0  0  0  0  0  0  0  0
   37.8580   27.2210   39.0750 H   0  0  0  0  0  0  0  0  0  0  0  0
   38.0880   27.3680   41.2200 C   0  0  0  0  0  0  0  0  0  0  0  0
   37.0440   26.7270   41.8520 C   0  0  0  0  0  0  0  0  0  0  0  0
   36.5520   25.9000   41.3610 H   0  0  0  0  0  0  0  0  0  0  0  0
   36.6900   27.2120   43.1160 C   0  0  0  0  0  0  0  0  0  0  0  0
   35.8750   26.7310   43.6400 H   0  0  0  0  0  0  0  0  0  0  0  0
   37.3690   28.2780   43.6790 C   0  0  0  0  0  3  0  0  0  0  0  0
   38.4240   28.9060   43.0110 C   0  0  0  0  0  3  0  0  0  0  0  0
   38.7470   28.4190   41.7890 N   0  0  0  0  0  0  0  0  0  0  0  0
  1  2  1  0  0  0  0
  1  5  1  0  0  0  0
  3  1  1  0  0  0  0
  4 16  1  0  0  0  0
  4  9  1  0  0  0  0
  5  4  2  0  0  0  0
  6  5  1  0  0  0  0
  6  7  2  0  0  0  0
  7  8  1  0  0  0  0
  8  9  2  0  0  0  0
  8 12  1  0  0  0  0
  9 13  1  0  0  0  0
 10  6  1  0  0  0  0
 11  7  1  0  0  0  0
 14 19  1  0  0  0  0
 15 14  2  0  0  0  0
 15 16  1  0  0  0  0
 16 17  2  0  0  0  0
 17 18  1  0  0  0  0
 18 22  1  0  0  0  0
 19 18  2  0  0  0  0
 20 14  1  0  0  0  0
 21 15  1  0  0  0  0
 23 25  1  0  0  0  0
 23  1  1  0  0  0  0
 24 23  1  0  0  0  0
 25 30  1  0  0  0  0
 25 26  1  0  0  0  0
 26 27  1  0  0  0  0
 28 25  1  0  0  0  0
 29 28  1  0  0  0  0
 30 31  1  0  0  0  0
 31 33  1  0  0  0  0
 31 34  1  0  0  0  0
 31 32  1  0  0  0  0
 34 37  1  0  0  0  0
 35 34  1  0  0  0  0
 36 34  1  0  0  0  0
 37 44  2  0  0  0  0
 37 38  1  0  0  0  0
 38 40  2  0  0  0  0
 39 38  1  0  0  0  0
 40 41  1  0  0  0  0
 40 42  1  0  0  0  0
 43 42  2  0  0  0  0
 44 43  1  0  0  0  0
M  END
>  <minimizedAffinity>
-5.63909197

$$$$

 OpenBabel03252508483D

 44 46  0  0  0  0  0  0  0  0999 V2000
   36.5960   27.0700   38.5520 C   0  0  0  0  0  0  0  0  0  0  0  0
   37.3900   26.7350   37.8310 H   0  0  0  0  0  0  0  0  0  0  0  0
   36.8140   28.1460   38.7570 H   0  0  0  0  0  0  0  0  0  0  0  0
   36.9560   26.9530   41.0290 C   0  0  0  0  0  0  0  0  0  0  0  0
   36.7210   26.3040   39.8240 C   0  0  0  0  0  0  0  0  0  0  0  0
   36.6060   24.9340   39.8270 C   0  0  0  0  0  0  0  0  0  0  0  0
   36.7230   24.2350   40.9980 C   0  0  0  0  0  0  0  0  0  0  0  0
   36.9510   24.8430   42.1930 C   0  0  0  0  0  0  0  0  0  0  0  0
   37.0610   26.2200   42.1470 C   0  0  0  0  0  0  0  0  0  0  0  0
   36.4250   24.3830   38.9130 H   0  0  0  0  0  0  0  0  0  0  0  0
   36.6280   23.1570   40.9680 H   0  0  0  0  0  0  0  0  0  0  0  0
   37.0510   24.3390   43.1430 H   0  0  0  0  0  0  0  0  0  0  0  0
   37.2440   26.7880   43.0580 H   0  0  0  0  0  0  0  0  0  0  0  0
   36.2550   30.6650   41.0690 C   0  0  0  0  0  0  0  0  0  0  0  0
   36.0250   29.2810   41.1510 C   0  0  0  0  0  0  0  0  0  0  0  0
   37.0680   28.3970   40.9690 C   0  0  0  0  0  0  0  0  0  0  0  0
   38.2930   28.9380   40.7120 N   0  0  0  0  0  0  0  0  0  0  0  0
   38.5060   30.2750   40.6340 C   0  0  0  0  0  0  0  0  0  0  0  0
   37.4730   31.1220   40.8150 N   0  0  0  0  0  0  0  0  0  0  0  0
   35.3620   31.2600   41.2290 H   0  0  0  0  0  0  0  0  0  0  0  0
   35.0610   28.8260   41.3540 H   0  0  0  0  0  0  0  0  0  0  0  0
   39.5160   30.6180   40.4250 H   0  0  0  0  0  0  0  0  0  0  0  0
   35.3230   26.9970   37.9220 N   0  0  0  0  0  0  0  0  0  0  0  0
   35.3090   26.4290   37.0570 H   0  0  0  0  0  0  0  0  0  0  0  0
   34.6390   28.5230   37.5920 S   0  0  0  0  0  0  0  0  0  0  0  0
   35.6800   29.6180   37.7320 O   0  0  0  0  0  0  0  0  0  0  0  0
   36.1790   29.9130   36.9230 H   0  0  0  0  0  0  0  0  0  0  0  0
   33.4760   28.8010   38.4740 O   0  0  0  0  0  0  0  0  0  0  0  0
   32.8930   28.0980   38.8690 H   0  0  0  0  0  0  0  0  0  0  0  0
   34.1210   28.5250   35.9870 O   0  0  0  0  0  0  0  0  0  0  0  0
   32.7550   28.2940   36.0010 C   0  0  0  0  0  0  0  0  0  0  0  0
   32.4400   27.2940   35.7110 H   0  0  0  0  0  0  0  0  0  0  0  0
   32.4500   28.4240   37.0800 H   0  0  0  0  0  0  0  0  0  0  0  0
   32.0370   29.3930   35.2590 C   0  0  0  0  0  0  0  0  0  0  0  0
   31.4090   28.8760   34.4740 H   0  0  0  0  0  0  0  0  0  0  0  0
   32.8210   29.9190   34.6510 H   0  0  0  0  0  0  0  0  0  0  0  0
   31.2540   30.3050   36.0890 C   0  0  0  0  0  0  0  0  0  0  0  0
   30.8310   31.5470   35.6670 C   0  0  0  0  0  0  0  0  0  0  0  0
   31.0830   31.8850   34.6720 H   0  0  0  0  0  0  0  0  0  0  0  0
   30.0880   32.2970   36.5860 C   0  0  0  0  0  0  0  0  0  0  0  0
   29.7410   33.2770   36.2860 H   0  0  0  0  0  0  0  0  0  0  0  0
   29.8070   31.7940   37.8440 C   0  0  0  0  0  3  0  0  0  0  0  0
   30.2510   30.5300   38.2410 C   0  0  0  0  0  3  0  0  0  0  0  0
   30.9680   29.8230   37.3350 N   0  0  0  0  0  0  0  0  0  0  0  0
  1  3  1  0  0  0  0
  1  5  1  0  0  0  0
  2  1  1  0  0  0  0
  4  9  1  0  0  0  0
  5  6  1  0  0  0  0
  5  4  2  0  0  0  0
  6  7  2  0  0  0  0
  7  8  1  0  0  0  0
  8 12  1  0  0  0  0
  9  8  2  0  0  0  0
  9 13  1  0  0  0  0
 10  6  1  0  0  0  0
 11  7  1  0  0  0  0
 14 15  1  0  0  0  0
 14 20  1  0  0  0  0
 15 21  1  0  0  0  0
 16  4  1  0  0  0  0
 16 15  2  0  0  0  0
 17 16  1  0  0  0  0
 18 17  2  0  0  0  0
 18 19  1  0  0  0  0
 19 14  2  0  0  0  0
 22 18  1  0  0  0  0
 23  1  1  0  0  0  0
 24 23  1  0  0  0  0
 25 26  1  0  0  0  0
 25 23  1  0  0  0  0
 25 28  1  0  0  0  0
 27 26  1  0  0  0  0
 28 29  1  0  0  0  0
 30 31  1  0  0  0  0
 30 25  1  0  0  0  0
 31 33  1  0  0  0  0
 32 31  1  0  0  0  0
 34 31  1  0  0  0  0
 34 37  1  0  0  0  0
 35 34  1  0  0  0  0
 36 34  1  0  0  0  0
 37 44  1  0  0  0  0
 38 37  2  0  0  0  0
 38 40  1  0  0  0  0
 39 38  1  0  0  0  0
 40 42  2  0  0  0  0
 41 40  1  0  0  0  0
 42 43  1  0  0  0  0
 44 43  2  0  0  0  0
M  END
>  <minimizedAffinity>
-5.54203987

$$$$

 OpenBabel03252508483D

 44 46  0  0  0  0  0  0  0  0999 V2000
   38.2310   29.0810   40.2380 C   0  0  0  0  0  0  0  0  0  0  0  0
   39.0140   28.7240   39.5150 H   0  0  0  0  0  0  0  0  0  0  0  0
   37.2770   28.6050   39.9030 H   0  0  0  0  0  0  0  0  0  0  0  0
   37.1940   31.1330   39.2410 C   0  0  0  0  0  0  0  0  0  0  0  0
   38.0910   30.5600   40.1330 C   0  0  0  0  0  0  0  0  0  0  0  0
   38.8520   31.3900   40.9220 C   0  0  0  0  0  0  0  0  0  0  0  0
   38.7210   32.7490   40.8220 C   0  0  0  0  0  0  0  0  0  0  0  0
   37.8510   33.3380   39.9580 C   0  0  0  0  0  0  0  0  0  0  0  0
   37.1050   32.4700   39.1830 C   0  0  0  0  0  0  0  0  0  0  0  0
   39.5660   30.9920   41.6320 H   0  0  0  0  0  0  0  0  0  0  0  0
   39.3350   33.3750   41.4560 H   0  0  0  0  0  0  0  0  0  0  0  0
   37.7090   34.4010   39.8400 H   0  0  0  0  0  0  0  0  0  0  0  0
   36.3840   32.8550   38.4640 H   0  0  0  0  0  0  0  0  0  0  0  0
   35.8680   28.9690   36.4420 C   0  0  0  0  0  0  0  0  0  0  0  0
   36.6950   29.8760   37.1260 C   0  0  0  0  0  0  0  0  0  0  0  0
   36.4170   30.2130   38.4340 C   0  0  0  0  0  0  0  0  0  0  0  0
   35.3220   29.6270   38.9990 N   0  0  0  0  0  0  0  0  0  0  0  0
   34.5290   28.7530   38.3320 C   0  0  0  0  0  0  0  0  0  0  0  0
   34.8180   28.4370   37.0530 N   0  0  0  0  0  0  0  0  0  0  0  0
   36.1850   28.7820   35.4210 H   0  0  0  0  0  0  0  0  0  0  0  0
   37.5710   30.3560   36.6990 H   0  0  0  0  0  0  0  0  0  0  0  0
   33.6770   28.3340   38.8610 H   0  0  0  0  0  0  0  0  0  0  0  0
   38.5280   28.5890   41.5390 N   0  0  0  0  0  0  0  0  0  0  0  0
   39.0950   27.7240   41.5470 H   0  0  0  0  0  0  0  0  0  0  0  0
   37.1460   28.3540   42.5090 S   0  0  0  0  0  0  0  0  0  0  0  0
   35.8810   28.5340   41.6910 O   0  0  0  0  0  0  0  0  0  0  0  0
   35.4570   27.7340   41.2800 H   0  0  0  0  0  0  0  0  0  0  0  0
   37.1390   29.2690   43.6800 O   0  0  0  0  0  0  0  0  0  0  0  0
   37.9590   29.6350   44.1080 H   0  0  0  0  0  0  0  0  0  0  0  0
   37.1640   26.7600   43.0610 O   0  0  0  0  0  0  0  0  0  0  0  0
   37.0870   25.9420   41.9460 C   0  0  0  0  0  0  0  0  0  0  0  0
   36.0830   25.6650   41.6290 H   0  0  0  0  0  0  0  0  0  0  0  0
   37.5290   26.5540   41.1060 H   0  0  0  0  0  0  0  0  0  0  0  0
   38.0180   24.7650   42.1010 C   0  0  0  0  0  0  0  0  0  0  0  0
   37.6980   24.0150   41.3190 H   0  0  0  0  0  0  0  0  0  0  0  0
   37.7280   24.2680   43.0650 H   0  0  0  0  0  0  0  0  0  0  0  0
   39.4430   25.0780   42.0270 C   0  0  0  0  0  0  0  0  0  0  0  0
   40.3480   24.7410   43.0110 C   0  0  0  0  0  0  0  0  0  0  0  0
   40.0060   24.2200   43.8930 H   0  0  0  0  0  0  0  0  0  0  0  0
   41.6780   25.1130   42.7850 C   0  0  0  0  0  0  0  0  0  0  0  0
   42.4150   24.8640   43.5380 H   0  0  0  0  0  0  0  0  0  0  0  0
   42.0390   25.7810   41.6280 C   0  0  0  0  0  3  0  0  0  0  0  0
   41.0950   26.1070   40.6500 C   0  0  0  0  0  3  0  0  0  0  0  0
   39.8140   25.7370   40.8910 N   0  0  0  0  0  0  0  0  0  0  0  0
  1 23  1  0  0  0  0
  2  1  1  0  0  0  0
  3  1  1  0  0  0  0
  4  5  1  0  0  0  0
  5  1  1  0  0  0  0
  5  6  2  0  0  0  0
  6 10  1  0  0  0  0
  7  6  1  0  0  0  0
  7 11  1  0  0  0  0
  8  7  2  0  0  0  0
  9  4  2  0  0  0  0
  9  8  1  0  0  0  0
 12  8  1  0  0  0  0
 13  9  1  0  0  0  0
 14 19  2  0  0  0  0
 14 15  1  0  0  0  0
 15 16  2  0  0  0  0
 16 17  1  0  0  0  0
 16  4  1  0  0  0  0
 18 22  1  0  0  0  0
 18 17  2  0  0  0  0
 19 18  1  0  0  0  0
 20 14  1  0  0  0  0
 21 15  1  0  0  0  0
 23 24  1  0  0  0  0
 23 25  1  0  0  0  0
 25 30  1  0  0  0  0
 25 28  1  0  0  0  0
 26 25  1  0  0  0  0
 27 26  1  0  0  0  0
 28 29  1  0  0  0  0
 31 34  1  0  0  0  0
 31 30  1  0  0  0  0
 32 31  1  0  0  0  0
 33 31  1  0  0  0  0
 34 36  1  0  0  0  0
 35 34  1  0  0  0  0
 37 34  1  0  0  0  0
 37 38  1  0  0  0  0
 38 39  1  0  0  0  0
 40 38  2  0  0  0  0
 40 41  1  0  0  0  0
 42 40  1  0  0  0  0
 43 44  1  0  0  0  0
 43 42  2  0  0  0  0
 44 37  2  0  0  0  0
M  END
>  <minimizedAffinity>
-5.40607214

$$$$

 OpenBabel03252508483D

 44 46  0  0  0  0  0  0  0  0999 V2000
   35.6670   29.4990   40.6180 C   0  0  0  0  0  0  0  0  0  0  0  0
   34.5470   29.4300   40.5720 H   0  0  0  0  0  0  0  0  0  0  0  0
   36.0040   29.5960   39.5570 H   0  0  0  0  0  0  0  0  0  0  0  0
   36.6810   27.2220   40.3550 C   0  0  0  0  0  0  0  0  0  0  0  0
   36.2220   28.2380   41.1840 C   0  0  0  0  0  0  0  0  0  0  0  0
   36.2910   28.0550   42.5450 C   0  0  0  0  0  0  0  0  0  0  0  0
   36.8010   26.8940   43.0610 C   0  0  0  0  0  0  0  0  0  0  0  0
   37.2580   25.8830   42.2740 C   0  0  0  0  0  0  0  0  0  0  0  0
   37.1710   26.1050   40.9120 C   0  0  0  0  0  0  0  0  0  0  0  0
   35.9450   28.8160   43.2320 H   0  0  0  0  0  0  0  0  0  0  0  0
   36.8410   26.7810   44.1360 H   0  0  0  0  0  0  0  0  0  0  0  0
   37.6680   24.9500   42.6290 H   0  0  0  0  0  0  0  0  0  0  0  0
   37.5150   25.3490   40.2080 H   0  0  0  0  0  0  0  0  0  0  0  0
   35.5100   27.4630   36.7710 C   0  0  0  0  0  0  0  0  0  0  0  0
   35.4870   27.1800   38.1470 C   0  0  0  0  0  0  0  0  0  0  0  0
   36.5860   27.4670   38.9290 C   0  0  0  0  0  0  0  0  0  0  0  0
   37.6600   28.0220   38.2980 N   0  0  0  0  0  0  0  0  0  0  0  0
   37.6740   28.2910   36.9690 C   0  0  0  0  0  0  0  0  0  0  0  0
   36.5890   28.0040   36.2230 N   0  0  0  0  0  0  0  0  0  0  0  0
   34.5910   27.1940   36.2600 H   0  0  0  0  0  0  0  0  0  0  0  0
   34.6460   26.7390   38.6730 H   0  0  0  0  0  0  0  0  0  0  0  0
   38.5740   28.7360   36.5500 H   0  0  0  0  0  0  0  0  0  0  0  0
   36.0410   30.6880   41.3030 N   0  0  0  0  0  0  0  0  0  0  0  0
   35.2470   31.3080   41.5410 H   0  0  0  0  0  0  0  0  0  0  0  0
   37.2280   31.5980   40.4860 S   0  0  0  0  0  0  0  0  0  0  0  0
   36.7630   33.0270   40.2820 O   0  0  0  0  0  0  0  0  0  0  0  0
   37.0140   33.7150   40.9550 H   0  0  0  0  0  0  0  0  0  0  0  0
   37.5870   30.9810   39.1820 O   0  0  0  0  0  0  0  0  0  0  0  0
   37.5210   30.0080   38.9880 H   0  0  0  0  0  0  0  0  0  0  0  0
   38.6040   31.6520   41.4620 O   0  0  0  0  0  0  0  0  0  0  0  0
   39.3300   30.5020   41.2040 C   0  0  0  0  0  0  0  0  0  0  0  0
   38.9730   29.8900   40.3780 H   0  0  0  0  0  0  0  0  0  0  0  0
   40.3580   30.8660   40.9100 H   0  0  0  0  0  0  0  0  0  0  0  0
   39.5430   29.7270   42.4810 C   0  0  0  0  0  0  0  0  0  0  0  0
   38.5460   29.7310   43.0130 H   0  0  0  0  0  0  0  0  0  0  0  0
   40.1830   30.3790   43.1330 H   0  0  0  0  0  0  0  0  0  0  0  0
   40.0830   28.3800   42.3160 C   0  0  0  0  0  0  0  0  0  0  0  0
   40.4320   27.5650   43.3710 C   0  0  0  0  0  0  0  0  0  0  0  0
   40.3090   27.9230   44.3840 H   0  0  0  0  0  0  0  0  0  0  0  0
   40.9340   26.3010   43.0410 C   0  0  0  0  0  0  0  0  0  0  0  0
   41.2180   25.6360   43.8470 H   0  0  0  0  0  0  0  0  0  0  0  0
   41.0620   25.9150   41.7190 C   0  0  0  0  0  3  0  0  0  0  0  0
   40.6980   26.7660   40.6720 C   0  0  0  0  0  3  0  0  0  0  0  0
   40.2150   27.9840   41.0160 N   0  0  0  0  0  0  0  0  0  0  0  0
  1  5  1  0  0  0  0
  1 23  1  0  0  0  0
  2  1  1  0  0  0  0
  3  1  1  0  0  0  0
  4  9  2  0  0  0  0
  4  5  1  0  0  0  0
  5  6  2  0  0  0  0
  6  7  1  0  0  0  0
  6 10  1  0  0  0  0
  7 11  1  0  0  0  0
  8 12  1  0  0  0  0
  8  7  2  0  0  0  0
  9  8  1  0  0  0  0
 13  9  1  0  0  0  0
 14 15  1  0  0  0  0
 15 21  1  0  0  0  0
 15 16  2  0  0  0  0
 16  4  1  0  0  0  0
 17 16  1  0  0  0  0
 18 17  2  0  0  0  0
 19 14  2  0  0  0  0
 19 18  1  0  0  0  0
 20 14  1  0  0  0  0
 22 18  1  0  0  0  0
 23 24  1  0  0  0  0
 25 23  1  0  0  0  0
 25 30  1  0  0  0  0
 26 25  1  0  0  0  0
 26 27  1  0  0  0  0
 28 25  1  0  0  0  0
 29 28  1  0  0  0  0
 31 30  1  0  0  0  0
 31 34  1  0  0  0  0
 32 31  1  0  0  0  0
 33 31  1  0  0  0  0
 34 35  1  0  0  0  0
 34 36  1  0  0  0  0
 37 34  1  0  0  0  0
 37 38  1  0  0  0  0
 38 39  1  0  0  0  0
 40 38  2  0  0  0  0
 40 41  1  0  0  0  0
 42 40  1  0  0  0  0
 43 44  1  0  0  0  0
 43 42  2  0  0  0  0
 44 37  2  0  0  0  0
M  END
>  <minimizedAffinity>
-5.39515829

$$$$

 OpenBabel03252508483D

 44 46  0  0  0  0  0  0  0  0999 V2000
   38.5100   29.4300   40.2560 C   0  0  0  0  0  0  0  0  0  0  0  0
   39.3260   29.1320   39.5430 H   0  0  0  0  0  0  0  0  0  0  0  0
   37.5970   28.8870   39.9090 H   0  0  0  0  0  0  0  0  0  0  0  0
   37.3460   31.4040   39.2400 C   0  0  0  0  0  0  0  0  0  0  0  0
   38.2660   30.8960   40.1490 C   0  0  0  0  0  0  0  0  0  0  0  0
   38.9490   31.7780   40.9530 C   0  0  0  0  0  0  0  0  0  0  0  0
   38.7220   33.1230   40.8510 C   0  0  0  0  0  0  0  0  0  0  0  0
   37.8280   33.6490   39.9710 C   0  0  0  0  0  0  0  0  0  0  0  0
   37.1620   32.7310   39.1820 C   0  0  0  0  0  0  0  0  0  0  0  0
   39.6760   31.4310   41.6760 H   0  0  0  0  0  0  0  0  0  0  0  0
   39.2760   33.7910   41.4970 H   0  0  0  0  0  0  0  0  0  0  0  0
   37.6110   34.7000   39.8510 H   0  0  0  0  0  0  0  0  0  0  0  0
   36.4280   33.0640   38.4500 H   0  0  0  0  0  0  0  0  0  0  0  0
   36.2360   29.1520   36.4170 C   0  0  0  0  0  0  0  0  0  0  0  0
   36.9830   30.1150   37.1170 C   0  0  0  0  0  0  0  0  0  0  0  0
   36.6530   30.4310   38.4180 C   0  0  0  0  0  0  0  0  0  0  0  0
   35.5910   29.7690   38.9600 N   0  0  0  0  0  0  0  0  0  0  0  0
   34.8760   28.8420   38.2780 C   0  0  0  0  0  0  0  0  0  0  0  0
   35.2140   28.5480   37.0060 N   0  0  0  0  0  0  0  0  0  0  0  0
   36.5870   28.9880   35.4030 H   0  0  0  0  0  0  0  0  0  0  0  0
   37.8310   30.6550   36.7090 H   0  0  0  0  0  0  0  0  0  0  0  0
   34.0440   28.3630   38.7890 H   0  0  0  0  0  0  0  0  0  0  0  0
   38.8260   28.9610   41.5610 N   0  0  0  0  0  0  0  0  0  0  0  0
   39.5560   28.2280   41.5830 H   0  0  0  0  0  0  0  0  0  0  0  0
   37.4670   28.4150   42.4340 S   0  0  0  0  0  0  0  0  0  0  0  0
   36.2330   28.4050   41.5530 O   0  0  0  0  0  0  0  0  0  0  0  0
   35.9880   27.5660   41.0780 H   0  0  0  0  0  0  0  0  0  0  0  0
   37.2300   29.2430   43.6460 O   0  0  0  0  0  0  0  0  0  0  0  0
   37.9440   29.7290   44.1390 H   0  0  0  0  0  0  0  0  0  0  0  0
   37.7590   26.8230   42.9080 O   0  0  0  0  0  0  0  0  0  0  0  0
   36.9720   26.0100   42.1100 C   0  0  0  0  0  0  0  0  0  0  0  0
   35.8970   26.1520   42.2040 H   0  0  0  0  0  0  0  0  0  0  0  0
   37.2400   26.2960   41.0510 H   0  0  0  0  0  0  0  0  0  0  0  0
   37.4060   24.5720   42.2470 C   0  0  0  0  0  0  0  0  0  0  0  0
   36.8310   24.1590   43.1270 H   0  0  0  0  0  0  0  0  0  0  0  0
   38.4630   24.6040   42.6250 H   0  0  0  0  0  0  0  0  0  0  0  0
   37.2560   23.7540   41.0470 C   0  0  0  0  0  0  0  0  0  0  0  0
   38.2020   22.8470   40.6190 C   0  0  0  0  0  0  0  0  0  0  0  0
   39.1130   22.7200   41.1880 H   0  0  0  0  0  0  0  0  0  0  0  0
   37.9030   22.1410   39.4490 C   0  0  0  0  0  0  0  0  0  0  0  0
   38.6250   21.4200   39.0860 H   0  0  0  0  0  0  0  0  0  0  0  0
   36.7140   22.3600   38.7760 C   0  0  0  0  0  3  0  0  0  0  0  0
   35.7750   23.2870   39.2360 C   0  0  0  0  0  3  0  0  0  0  0  0
   36.0870   23.9590   40.3700 N   0  0  0  0  0  0  0  0  0  0  0  0
  1 23  1  0  0  0  0
  2  1  1  0  0  0  0
  3  1  1  0  0  0  0
  4  5  1  0  0  0  0
  5  1  1  0  0  0  0
  5  6  2  0  0  0  0
  6 10  1  0  0  0  0
  7  6  1  0  0  0  0
  7 11  1  0  0  0  0
  8  7  2  0  0  0  0
  9  4  2  0  0  0  0
  9  8  1  0  0  0  0
 12  8  1  0  0  0  0
 13  9  1  0  0  0  0
 14 19  2  0  0  0  0
 14 15  1  0  0  0  0
 15 16  2  0  0  0  0
 16 17  1  0  0  0  0
 16  4  1  0  0  0  0
 18 22  1  0  0  0  0
 18 17  2  0  0  0  0
 19 18  1  0  0  0  0
 20 14  1  0  0  0  0
 21 15  1  0  0  0  0
 23 24  1  0  0  0  0
 23 25  1  0  0  0  0
 25 30  1  0  0  0  0
 25 28  1  0  0  0  0
 26 25  1  0  0  0  0
 27 26  1  0  0  0  0
 28 29  1  0  0  0  0
 31 32  1  0  0  0  0
 31 34  1  0  0  0  0
 31 30  1  0  0  0  0
 33 31  1  0  0  0  0
 34 36  1  0  0  0  0
 34 35  1  0  0  0  0
 37 34  1  0  0  0  0
 38 37  1  0  0  0  0
 38 39  1  0  0  0  0
 40 38  2  0  0  0  0
 41 40  1  0  0  0  0
 42 43  2  0  0  0  0
 42 40  1  0  0  0  0
 43 44  1  0  0  0  0
 44 37  2  0  0  0  0
M  END
>  <minimizedAffinity>
-5.37947845

$$$$

 OpenBabel03252508483D

 44 46  0  0  0  0  0  0  0  0999 V2000
   36.9430   27.1420   41.6490 C   0  0  0  0  0  0  0  0  0  0  0  0
   36.2890   27.4460   42.5100 H   0  0  0  0  0  0  0  0  0  0  0  0
   36.2840   26.5510   40.9670 H   0  0  0  0  0  0  0  0  0  0  0  0
   38.2670   25.0140   41.5690 C   0  0  0  0  0  0  0  0  0  0  0  0
   38.0390   26.2600   42.1410 C   0  0  0  0  0  0  0  0  0  0  0  0
   38.8490   26.6640   43.1760 C   0  0  0  0  0  0  0  0  0  0  0  0
   39.8530   25.8510   43.6250 C   0  0  0  0  0  0  0  0  0  0  0  0
   40.0990   24.6270   43.0840 C   0  0  0  0  0  0  0  0  0  0  0  0
   39.2640   24.2570   42.0470 C   0  0  0  0  0  0  0  0  0  0  0  0
   38.7100   27.6250   43.6540 H   0  0  0  0  0  0  0  0  0  0  0  0
   40.4730   26.1980   44.4410 H   0  0  0  0  0  0  0  0  0  0  0  0
   40.8770   23.9480   43.4000 H   0  0  0  0  0  0  0  0  0  0  0  0
   39.3900   23.2940   41.5560 H   0  0  0  0  0  0  0  0  0  0  0  0
   35.5700   23.4310   39.4480 C   0  0  0  0  0  0  0  0  0  0  0  0
   36.3630   23.7160   40.5730 C   0  0  0  0  0  0  0  0  0  0  0  0
   37.3840   24.6380   40.4820 C   0  0  0  0  0  0  0  0  0  0  0  0
   37.5670   25.2320   39.2680 N   0  0  0  0  0  0  0  0  0  0  0  0
   36.7980   24.9510   38.1880 C   0  0  0  0  0  0  0  0  0  0  0  0
   35.8050   24.0470   38.2980 N   0  0  0  0  0  0  0  0  0  0  0  0
   34.8000   22.6910   39.6400 H   0  0  0  0  0  0  0  0  0  0  0  0
   36.2380   23.2570   41.5490 H   0  0  0  0  0  0  0  0  0  0  0  0
   37.0150   25.4740   37.2590 H   0  0  0  0  0  0  0  0  0  0  0  0
   37.3690   28.3020   40.9430 N   0  0  0  0  0  0  0  0  0  0  0  0
   38.3760   28.3090   40.7080 H   0  0  0  0  0  0  0  0  0  0  0  0
   36.9740   29.7600   41.7330 S   0  0  0  0  0  0  0  0  0  0  0  0
   36.9290   29.5610   43.2360 O   0  0  0  0  0  0  0  0  0  0  0  0
   37.7460   29.7500   43.7700 H   0  0  0  0  0  0  0  0  0  0  0  0
   35.6820   30.3100   41.2450 O   0  0  0  0  0  0  0  0  0  0  0  0
   35.3150   30.1520   40.3350 H   0  0  0  0  0  0  0  0  0  0  0  0
   38.1990   30.8740   41.4100 O   0  0  0  0  0  0  0  0  0  0  0  0
   39.3930   30.1730   41.4000 C   0  0  0  0  0  0  0  0  0  0  0  0
   39.3200   29.1140   41.1560 H   0  0  0  0  0  0  0  0  0  0  0  0
   40.0020   30.6480   40.5760 H   0  0  0  0  0  0  0  0  0  0  0  0
   40.1670   30.4500   42.6640 C   0  0  0  0  0  0  0  0  0  0  0  0
   40.3750   29.4390   43.1260 H   0  0  0  0  0  0  0  0  0  0  0  0
   39.4350   30.9100   43.3790 H   0  0  0  0  0  0  0  0  0  0  0  0
   41.3790   31.2470   42.4970 C   0  0  0  0  0  0  0  0  0  0  0  0
   42.4790   31.1440   43.3220 C   0  0  0  0  0  0  0  0  0  0  0  0
   42.4640   30.4420   44.1440 H   0  0  0  0  0  0  0  0  0  0  0  0
   43.5610   31.9810   43.0250 C   0  0  0  0  0  0  0  0  0  0  0  0
   44.4400   31.9250   43.6530 H   0  0  0  0  0  0  0  0  0  0  0  0
   43.5040   32.8550   41.9540 C   0  0  0  0  0  3  0  0  0  0  0  0
   42.3730   32.9350   41.1360 C   0  0  0  0  0  3  0  0  0  0  0  0
   41.3390   32.1160   41.4440 N   0  0  0  0  0  0  0  0  0  0  0  0
  1  5  1  0  0  0  0
  1  2  1  0  0  0  0
  3  1  1  0  0  0  0
  4  9  2  0  0  0  0
  4  5  1  0  0  0  0
  5  6  2  0  0  0  0
  6  7  1  0  0  0  0
  6 10  1  0  0  0  0
  7 11  1  0  0  0  0
  8 12  1  0  0  0  0
  8  7  2  0  0  0  0
  9  8  1  0  0  0  0
 13  9  1  0  0  0  0
 14 20  1  0  0  0  0
 14 15  1  0  0  0  0
 15 21  1  0  0  0  0
 16 15  2  0  0  0  0
 16  4  1  0  0  0  0
 17 16  1  0  0  0  0
 18 19  1  0  0  0  0
 18 17  2  0  0  0  0
 19 14  2  0  0  0  0
 22 18  1  0  0  0  0
 23  1  1  0  0  0  0
 23 25  1  0  0  0  0
 24 23  1  0  0  0  0
 25 26  1  0  0  0  0
 26 27  1  0  0  0  0
 28 25  1  0  0  0  0
 29 28  1  0  0  0  0
 30 25  1  0  0  0  0
 31 30  1  0  0  0  0
 31 34  1  0  0  0  0
 32 31  1  0  0  0  0
 33 31  1  0  0  0  0
 34 35  1  0  0  0  0
 34 36  1  0  0  0  0
 37 34  1  0  0  0  0
 37 38  1  0  0  0  0
 38 39  1  0  0  0  0
 40 38  2  0  0  0  0
 40 41  1  0  0  0  0
 42 40  1  0  0  0  0
 43 44  1  0  0  0  0
 43 42  2  0  0  0  0
 44 37  2  0  0  0  0
M  END
>  <minimizedAffinity>
-5.37433767

$$$$

 OpenBabel03252508483D

 44 46  0  0  0  0  0  0  0  0999 V2000
   36.9380   27.2340   41.6950 C   0  0  0  0  0  0  0  0  0  0  0  0
   36.3050   27.5570   42.5650 H   0  0  0  0  0  0  0  0  0  0  0  0
   36.2720   26.6010   41.0590 H   0  0  0  0  0  0  0  0  0  0  0  0
   38.3660   25.1770   41.5930 C   0  0  0  0  0  0  0  0  0  0  0  0
   38.0710   26.3990   42.1830 C   0  0  0  0  0  0  0  0  0  0  0  0
   38.8500   26.8250   43.2330 C   0  0  0  0  0  0  0  0  0  0  0  0
   39.8880   26.0540   43.6800 C   0  0  0  0  0  0  0  0  0  0  0  0
   40.2010   24.8530   43.1210 C   0  0  0  0  0  0  0  0  0  0  0  0
   39.3950   24.4610   42.0690 C   0  0  0  0  0  0  0  0  0  0  0  0
   38.6590   27.7690   43.7270 H   0  0  0  0  0  0  0  0  0  0  0  0
   40.4820   26.4160   44.5080 H   0  0  0  0  0  0  0  0  0  0  0  0
   41.0080   24.2080   43.4340 H   0  0  0  0  0  0  0  0  0  0  0  0
   39.5730   23.5140   41.5620 H   0  0  0  0  0  0  0  0  0  0  0  0
   36.8020   24.6940   38.1870 C   0  0  0  0  0  0  0  0  0  0  0  0
   37.6950   25.1460   39.1740 C   0  0  0  0  0  0  0  0  0  0  0  0
   37.5140   24.7760   40.4900 C   0  0  0  0  0  0  0  0  0  0  0  0
   36.4460   23.9710   40.7600 N   0  0  0  0  0  0  0  0  0  0  0  0
   35.5900   23.5400   39.8020 C   0  0  0  0  0  0  0  0  0  0  0  0
   35.7840   23.9130   38.5210 N   0  0  0  0  0  0  0  0  0  0  0  0
   37.0450   25.0500   37.1910 H   0  0  0  0  0  0  0  0  0  0  0  0
   38.5510   25.7870   38.9860 H   0  0  0  0  0  0  0  0  0  0  0  0
   34.7650   22.9000   40.1070 H   0  0  0  0  0  0  0  0  0  0  0  0
   37.3110   28.3750   40.9310 N   0  0  0  0  0  0  0  0  0  0  0  0
   38.2980   28.3740   40.6200 H   0  0  0  0  0  0  0  0  0  0  0  0
   36.9780   29.8540   41.7120 S   0  0  0  0  0  0  0  0  0  0  0  0
   37.0410   29.6900   43.2180 O   0  0  0  0  0  0  0  0  0  0  0  0
   37.8950   29.8890   43.6880 H   0  0  0  0  0  0  0  0  0  0  0  0
   35.6560   30.3980   41.3060 O   0  0  0  0  0  0  0  0  0  0  0  0
   35.2240   30.2210   40.4280 H   0  0  0  0  0  0  0  0  0  0  0  0
   38.1800   30.9540   41.2750 O   0  0  0  0  0  0  0  0  0  0  0  0
   37.5950   31.8800   40.4280 C   0  0  0  0  0  0  0  0  0  0  0  0
   36.5080   31.8570   40.3790 H   0  0  0  0  0  0  0  0  0  0  0  0
   37.8730   32.8860   40.8610 H   0  0  0  0  0  0  0  0  0  0  0  0
   38.2630   31.8400   39.0760 C   0  0  0  0  0  0  0  0  0  0  0  0
   39.3660   31.9810   39.2740 H   0  0  0  0  0  0  0  0  0  0  0  0
   37.9730   32.7950   38.5610 H   0  0  0  0  0  0  0  0  0  0  0  0
   37.9850   30.6530   38.2730 C   0  0  0  0  0  0  0  0  0  0  0  0
   38.9570   29.7620   37.8700 C   0  0  0  0  0  0  0  0  0  0  0  0
   39.9860   29.9330   38.1510 H   0  0  0  0  0  0  0  0  0  0  0  0
   38.5230   28.6730   37.1050 C   0  0  0  0  0  0  0  0  0  0  0  0
   39.2610   27.9540   36.7720 H   0  0  0  0  0  0  0  0  0  0  0  0
   37.1860   28.5220   36.7850 C   0  0  0  0  0  3  0  0  0  0  0  0
   36.2250   29.4440   37.2100 C   0  0  0  0  0  3  0  0  0  0  0  0
   36.6690   30.4900   37.9490 N   0  0  0  0  0  0  0  0  0  0  0  0
  1  5  1  0  0  0  0
  1  2  1  0  0  0  0
  3  1  1  0  0  0  0
  4  9  2  0  0  0  0
  4  5  1  0  0  0  0
  5  6  2  0  0  0  0
  6  7  1  0  0  0  0
  6 10  1  0  0  0  0
  7 11  1  0  0  0  0
  8 12  1  0  0  0  0
  8  7  2  0  0  0  0
  9  8  1  0  0  0  0
 13  9  1  0  0  0  0
 14 19  2  0  0  0  0
 14 15  1  0  0  0  0
 15 16  2  0  0  0  0
 16 17  1  0  0  0  0
 16  4  1  0  0  0  0
 18 22  1  0  0  0  0
 18 17  2  0  0  0  0
 19 18  1  0  0  0  0
 20 14  1  0  0  0  0
 21 15  1  0  0  0  0
 23  1  1  0  0  0  0
 23 25  1  0  0  0  0
 24 23  1  0  0  0  0
 25 26  1  0  0  0  0
 26 27  1  0  0  0  0
 28 25  1  0  0  0  0
 29 28  1  0  0  0  0
 30 25  1  0  0  0  0
 31 33  1  0  0  0  0
 31 30  1  0  0  0  0
 32 31  1  0  0  0  0
 34 35  1  0  0  0  0
 34 31  1  0  0  0  0
 36 34  1  0  0  0  0
 37 34  1  0  0  0  0
 38 39  1  0  0  0  0
 38 37  2  0  0  0  0
 40 38  1  0  0  0  0
 41 40  1  0  0  0  0
 42 40  2  0  0  0  0
 42 43  1  0  0  0  0
 43 44  2  0  0  0  0
 44 37  1  0  0  0  0
M  END
>  <minimizedAffinity>
-5.35289812

$$$$

 OpenBabel03252508483D

 44 46  0  0  0  0  0  0  0  0999 V2000
   39.1570   31.3240   38.2120 C   0  0  0  0  0  0  0  0  0  0  0  0
   38.9870   30.7350   39.1540 H   0  0  0  0  0  0  0  0  0  0  0  0
   38.3840   30.9630   37.4900 H   0  0  0  0  0  0  0  0  0  0  0  0
   40.9060   29.7010   37.4470 C   0  0  0  0  0  0  0  0  0  0  0  0
   40.5070   31.0140   37.6650 C   0  0  0  0  0  0  0  0  0  0  0  0
   41.3880   32.0250   37.3660 C   0  0  0  0  0  0  0  0  0  0  0  0
   42.6280   31.7360   36.8640 C   0  0  0  0  0  0  0  0  0  0  0  0
   43.0460   30.4610   36.6390 C   0  0  0  0  0  0  0  0  0  0  0  0
   42.1320   29.4730   36.9530 C   0  0  0  0  0  0  0  0  0  0  0  0
   41.1240   33.0640   37.5200 H   0  0  0  0  0  0  0  0  0  0  0  0
   43.2990   32.5550   36.6390 H   0  0  0  0  0  0  0  0  0  0  0  0
   44.0100   30.1780   36.2460 H   0  0  0  0  0  0  0  0  0  0  0  0
   42.3830   28.4240   36.8040 H   0  0  0  0  0  0  0  0  0  0  0  0
   38.7890   27.1340   39.2360 C   0  0  0  0  0  0  0  0  0  0  0  0
   39.7610   28.1280   39.0330 C   0  0  0  0  0  0  0  0  0  0  0  0
   39.9390   28.6730   37.7790 C   0  0  0  0  0  0  0  0  0  0  0  0
   39.1360   28.1980   36.7840 N   0  0  0  0  0  0  0  0  0  0  0  0
   38.2000   27.2390   36.9890 C   0  0  0  0  0  0  0  0  0  0  0  0
   38.0420   26.7190   38.2220 N   0  0  0  0  0  0  0  0  0  0  0  0
   38.7410   26.7820   40.2610 H   0  0  0  0  0  0  0  0  0  0  0  0
   40.4120   28.5230   39.8070 H   0  0  0  0  0  0  0  0  0  0  0  0
   37.6040   26.9200   36.1370 H   0  0  0  0  0  0  0  0  0  0  0  0
   38.9060   32.7020   38.4640 N   0  0  0  0  0  0  0  0  0  0  0  0
   39.7380   33.2350   38.7720 H   0  0  0  0  0  0  0  0  0  0  0  0
   37.6360   32.9700   39.5690 S   0  0  0  0  0  0  0  0  0  0  0  0
   36.7980   34.1610   39.1430 O   0  0  0  0  0  0  0  0  0  0  0  0
   35.9870   34.0040   38.5890 H   0  0  0  0  0  0  0  0  0  0  0  0
   38.1490   33.1670   40.9500 O   0  0  0  0  0  0  0  0  0  0  0  0
   38.9970   32.7780   41.2920 H   0  0  0  0  0  0  0  0  0  0  0  0
   36.6320   31.6150   39.5470 O   0  0  0  0  0  0  0  0  0  0  0  0
   36.3910   31.2660   40.8650 C   0  0  0  0  0  0  0  0  0  0  0  0
   37.1370   31.5940   41.5860 H   0  0  0  0  0  0  0  0  0  0  0  0
   35.4310   31.7960   41.1350 H   0  0  0  0  0  0  0  0  0  0  0  0
   36.0630   29.7970   40.9600 C   0  0  0  0  0  0  0  0  0  0  0  0
   36.0130   29.4230   39.8950 H   0  0  0  0  0  0  0  0  0  0  0  0
   34.9950   29.7410   41.3000 H   0  0  0  0  0  0  0  0  0  0  0  0
   36.9670   29.0040   41.7890 C   0  0  0  0  0  0  0  0  0  0  0  0
   36.6530   27.7540   42.2790 C   0  0  0  0  0  0  0  0  0  0  0  0
   35.6900   27.3200   42.0500 H   0  0  0  0  0  0  0  0  0  0  0  0
   37.6320   27.1270   43.0580 C   0  0  0  0  0  0  0  0  0  0  0  0
   37.4170   26.1440   43.4580 H   0  0  0  0  0  0  0  0  0  0  0  0
   38.8420   27.7490   43.3070 C   0  0  0  0  0  3  0  0  0  0  0  0
   39.1300   29.0170   42.7950 C   0  0  0  0  0  3  0  0  0  0  0  0
   38.1670   29.6050   42.0450 N   0  0  0  0  0  0  0  0  0  0  0  0
  1 23  1  0  0  0  0
  1  2  1  0  0  0  0
  3  1  1  0  0  0  0
  4  5  1  0  0  0  0
  4 16  1  0  0  0  0
  5  1  1  0  0  0  0
  6 10  1  0  0  0  0
  6  5  2  0  0  0  0
  7  6  1  0  0  0  0
  8  7  2  0  0  0  0
  8  9  1  0  0  0  0
  9  4  2  0  0  0  0
 11  7  1  0  0  0  0
 12  8  1  0  0  0  0
 13  9  1  0  0  0  0
 14 20  1  0  0  0  0
 15 14  1  0  0  0  0
 15 21  1  0  0  0  0
 16 15  2  0  0  0  0
 17 18  2  0  0  0  0
 17 16  1  0  0  0  0
 18 19  1  0  0  0  0
 19 14  2  0  0  0  0
 22 18  1  0  0  0  0
 23 24  1  0  0  0  0
 23 25  1  0  0  0  0
 25 28  1  0  0  0  0
 26 25  1  0  0  0  0
 27 26  1  0  0  0  0
 28 29  1  0  0  0  0
 30 25  1  0  0  0  0
 30 31  1  0  0  0  0
 31 34  1  0  0  0  0
 31 33  1  0  0  0  0
 31 32  1  0  0  0  0
 34 36  1  0  0  0  0
 34 37  1  0  0  0  0
 35 34  1  0  0  0  0
 37 44  2  0  0  0  0
 37 38  1  0  0  0  0
 38 40  2  0  0  0  0
 39 38  1  0  0  0  0
 40 42  1  0  0  0  0
 40 41  1  0  0  0  0
 43 42  2  0  0  0  0
 44 43  1  0  0  0  0
M  END
>  <minimizedAffinity>
-5.32284784

$$$$
