
 OpenBabel03252508463D

 44 46  0  0  0  0  0  0  0  0999 V2000
   43.0200   32.4760   41.6480 C   0  0  0  0  0  0  0  0  0  0  0  0
   43.4960   32.0340   40.7320 H   0  0  0  0  0  0  0  0  0  0  0  0
   42.0660   32.9380   41.2950 H   0  0  0  0  0  0  0  0  0  0  0  0
   43.6660   34.8840   41.9010 C   0  0  0  0  0  0  0  0  0  0  0  0
   43.8960   33.5480   42.1990 C   0  0  0  0  0  0  0  0  0  0  0  0
   44.9560   33.2310   43.0150 C   0  0  0  0  0  0  0  0  0  0  0  0
   45.7590   34.2180   43.5190 C   0  0  0  0  0  0  0  0  0  0  0  0
   45.5570   35.5350   43.2450 C   0  0  0  0  0  0  0  0  0  0  0  0
   44.4830   35.8120   42.4210 C   0  0  0  0  0  0  0  0  0  0  0  0
   45.1770   32.2040   43.2760 H   0  0  0  0  0  0  0  0  0  0  0  0
   46.5850   33.9370   44.1580 H   0  0  0  0  0  0  0  0  0  0  0  0
   46.1580   36.3510   43.6150 H   0  0  0  0  0  0  0  0  0  0  0  0
   44.2470   36.8400   42.1500 H   0  0  0  0  0  0  0  0  0  0  0  0
   40.2610   35.7840   40.5320 C   0  0  0  0  0  0  0  0  0  0  0  0
   41.2820   35.5400   41.4670 C   0  0  0  0  0  0  0  0  0  0  0  0
   42.5360   35.1630   41.0360 C   0  0  0  0  0  0  0  0  0  0  0  0
   42.7120   35.0450   39.6880 N   0  0  0  0  0  0  0  0  0  0  0  0
   41.7210   35.2820   38.7930 C   0  0  0  0  0  0  0  0  0  0  0  0
   40.5020   35.6500   39.2360 N   0  0  0  0  0  0  0  0  0  0  0  0
   39.3200   36.0740   40.9880 H   0  0  0  0  0  0  0  0  0  0  0  0
   41.1670   35.6270   42.5430 H   0  0  0  0  0  0  0  0  0  0  0  0
   41.9520   35.1640   37.7370 H   0  0  0  0  0  0  0  0  0  0  0  0
   42.6870   31.4350   42.5590 N   0  0  0  0  0  0  0  0  0  0  0  0
   43.2060   30.5530   42.4020 H   0  0  0  0  0  0  0  0  0  0  0  0
   41.0190   31.0940   42.6210 S   0  0  0  0  0  0  0  0  0  0  0  0
   40.2060   32.3690   42.5050 O   0  0  0  0  0  0  0  0  0  0  0  0
   39.8880   32.6570   41.6080 H   0  0  0  0  0  0  0  0  0  0  0  0
   40.6590   30.3630   43.8640 O   0  0  0  0  0  0  0  0  0  0  0  0
   41.2810   29.7690   44.3640 H   0  0  0  0  0  0  0  0  0  0  0  0
   40.6350   30.1310   41.2900 O   0  0  0  0  0  0  0  0  0  0  0  0
   39.6670   29.2320   41.7050 C   0  0  0  0  0  0  0  0  0  0  0  0
   39.8460   28.1890   41.4480 H   0  0  0  0  0  0  0  0  0  0  0  0
   39.6820   29.2890   42.8330 H   0  0  0  0  0  0  0  0  0  0  0  0
   38.2980   29.7260   41.3090 C   0  0  0  0  0  0  0  0  0  0  0  0
   38.4750   30.5720   40.5810 H   0  0  0  0  0  0  0  0  0  0  0  0
   37.8860   30.2490   42.2120 H   0  0  0  0  0  0  0  0  0  0  0  0
   37.3940   28.7100   40.7760 C   0  0  0  0  0  0  0  0  0  0  0  0
   36.3800   28.9860   39.8830 C   0  0  0  0  0  0  0  0  0  0  0  0
   36.2280   30.0030   39.5470 H   0  0  0  0  0  0  0  0  0  0  0  0
   35.6030   27.8980   39.4680 C   0  0  0  0  0  0  0  0  0  0  0  0
   34.7990   28.0800   38.7670 H   0  0  0  0  0  0  0  0  0  0  0  0
   35.8600   26.6250   39.9440 C   0  0  0  0  0  3  0  0  0  0  0  0
   36.8970   26.3790   40.8490 C   0  0  0  0  0  3  0  0  0  0  0  0
   37.6340   27.4470   41.2360 N   0  0  0  0  0  0  0  0  0  0  0  0
  1  5  1  0  0  0  0
  1 23  1  0  0  0  0
  2  1  1  0  0  0  0
  3  1  1  0  0  0  0
  4  5  2  0  0  0  0
  4  9  1  0  0  0  0
  5  6  1  0  0  0  0
  6 10  1  0  0  0  0
  6  7  2  0  0  0  0
  7 11  1  0  0  0  0
  8  7  1  0  0  0  0
  8 12  1  0  0  0  0
  9  8  2  0  0  0  0
 13  9  1  0  0  0  0
 14 20  1  0  0  0  0
 14 15  1  0  0  0  0
 15 21  1  0  0  0  0
 16 15  2  0  0  0  0
 16  4  1  0  0  0  0
 17 16  1  0  0  0  0
 18 19  1  0  0  0  0
 18 17  2  0  0  0  0
 19 14  2  0  0  0  0
 22 18  1  0  0  0  0
 23 25  1  0  0  0  0
 24 23  1  0  0  0  0
 25 28  1  0  0  0  0
 26 25  1  0  0  0  0
 27 26  1  0  0  0  0
 28 29  1  0  0  0  0
 30 31  1  0  0  0  0
 30 25  1  0  0  0  0
 31 33  1  0  0  0  0
 32 31  1  0  0  0  0
 34 31  1  0  0  0  0
 34 36  1  0  0  0  0
 35 34  1  0  0  0  0
 37 44  1  0  0  0  0
 37 34  1  0  0  0  0
 38 37  2  0  0  0  0
 39 38  1  0  0  0  0
 40 38  1  0  0  0  0
 40 42  2  0  0  0  0
 41 40  1  0  0  0  0
 42 43  1  0  0  0  0
 43 44  2  0  0  0  0
M  END
>  <minimizedAffinity>
-5.4973917

>  <minimizedRMSD>
3.68821144

$$$$
