
 OpenBabel03252508463D

 44 46  0  0  0  0  0  0  0  0999 V2000
   43.0220   32.4740   41.6740 C   0  0  0  0  0  0  0  0  0  0  0  0
   43.5130   31.9960   40.7830 H   0  0  0  0  0  0  0  0  0  0  0  0
   42.0840   32.9390   41.2840 H   0  0  0  0  0  0  0  0  0  0  0  0
   43.6730   34.8840   41.9020 C   0  0  0  0  0  0  0  0  0  0  0  0
   43.9020   33.5490   42.2120 C   0  0  0  0  0  0  0  0  0  0  0  0
   44.9630   33.2390   43.0280 C   0  0  0  0  0  0  0  0  0  0  0  0
   45.7690   34.2290   43.5200 C   0  0  0  0  0  0  0  0  0  0  0  0
   45.5680   35.5440   43.2340 C   0  0  0  0  0  0  0  0  0  0  0  0
   44.4920   35.8150   42.4100 C   0  0  0  0  0  0  0  0  0  0  0  0
   45.1840   32.2140   43.2980 H   0  0  0  0  0  0  0  0  0  0  0  0
   46.5970   33.9530   44.1600 H   0  0  0  0  0  0  0  0  0  0  0  0
   46.1730   36.3630   43.5950 H   0  0  0  0  0  0  0  0  0  0  0  0
   44.2580   36.8410   42.1300 H   0  0  0  0  0  0  0  0  0  0  0  0
   40.2670   35.7830   40.5340 C   0  0  0  0  0  0  0  0  0  0  0  0
   41.2910   35.5470   41.4680 C   0  0  0  0  0  0  0  0  0  0  0  0
   42.5400   35.1550   41.0370 C   0  0  0  0  0  0  0  0  0  0  0  0
   42.7100   35.0170   39.6910 N   0  0  0  0  0  0  0  0  0  0  0  0
   41.7170   35.2460   38.7970 C   0  0  0  0  0  0  0  0  0  0  0  0
   40.5020   35.6280   39.2390 N   0  0  0  0  0  0  0  0  0  0  0  0
   39.3300   36.0850   40.9890 H   0  0  0  0  0  0  0  0  0  0  0  0
   41.1810   35.6500   42.5430 H   0  0  0  0  0  0  0  0  0  0  0  0
   41.9420   35.1110   37.7420 H   0  0  0  0  0  0  0  0  0  0  0  0
   42.6520   31.4680   42.6090 N   0  0  0  0  0  0  0  0  0  0  0  0
   43.1860   30.5860   42.5150 H   0  0  0  0  0  0  0  0  0  0  0  0
   40.9860   31.1110   42.5990 S   0  0  0  0  0  0  0  0  0  0  0  0
   40.1680   32.3730   42.3990 O   0  0  0  0  0  0  0  0  0  0  0  0
   39.8940   32.6260   41.4780 H   0  0  0  0  0  0  0  0  0  0  0  0
   40.5700   30.4180   43.8470 O   0  0  0  0  0  0  0  0  0  0  0  0
   41.1720   29.8490   44.3970 H   0  0  0  0  0  0  0  0  0  0  0  0
   40.6780   30.0990   41.2850 O   0  0  0  0  0  0  0  0  0  0  0  0
   40.2490   28.8860   41.7970 C   0  0  0  0  0  0  0  0  0  0  0  0
   39.8860   28.9060   42.8230 H   0  0  0  0  0  0  0  0  0  0  0  0
   39.3690   28.5940   41.1530 H   0  0  0  0  0  0  0  0  0  0  0  0
   41.2860   27.8210   41.5440 C   0  0  0  0  0  0  0  0  0  0  0  0
   41.5390   27.8920   40.4450 H   0  0  0  0  0  0  0  0  0  0  0  0
   40.7450   26.8400   41.6180 H   0  0  0  0  0  0  0  0  0  0  0  0
   42.4720   27.8840   42.3950 C   0  0  0  0  0  0  0  0  0  0  0  0
   43.7530   28.0210   41.9060 C   0  0  0  0  0  0  0  0  0  0  0  0
   43.9130   28.0870   40.8380 H   0  0  0  0  0  0  0  0  0  0  0  0
   44.7800   28.0660   42.8560 C   0  0  0  0  0  0  0  0  0  0  0  0
   45.7990   28.1740   42.5060 H   0  0  0  0  0  0  0  0  0  0  0  0
   44.4960   27.9770   44.2070 C   0  0  0  0  0  3  0  0  0  0  0  0
   43.1850   27.8370   44.6700 C   0  0  0  0  0  3  0  0  0  0  0  0
   42.2090   27.7960   43.7310 N   0  0  0  0  0  0  0  0  0  0  0  0
  1  5  1  0  0  0  0
  1 23  1  0  0  0  0
  2  1  1  0  0  0  0
  3  1  1  0  0  0  0
  4  5  2  0  0  0  0
  4  9  1  0  0  0  0
  5  6  1  0  0  0  0
  6 10  1  0  0  0  0
  6  7  2  0  0  0  0
  7 11  1  0  0  0  0
  8  7  1  0  0  0  0
  8 12  1  0  0  0  0
  9  8  2  0  0  0  0
 13  9  1  0  0  0  0
 14 20  1  0  0  0  0
 14 15  1  0  0  0  0
 15 21  1  0  0  0  0
 16 15  2  0  0  0  0
 16  4  1  0  0  0  0
 17 16  1  0  0  0  0
 18 19  1  0  0  0  0
 18 17  2  0  0  0  0
 19 14  2  0  0  0  0
 22 18  1  0  0  0  0
 24 23  1  0  0  0  0
 25 23  1  0  0  0  0
 25 28  1  0  0  0  0
 26 25  1  0  0  0  0
 27 26  1  0  0  0  0
 28 29  1  0  0  0  0
 30 31  1  0  0  0  0
 30 25  1  0  0  0  0
 31 32  1  0  0  0  0
 33 31  1  0  0  0  0
 34 36  1  0  0  0  0
 34 31  1  0  0  0  0
 34 37  1  0  0  0  0
 35 34  1  0  0  0  0
 37 44  1  0  0  0  0
 38 37  2  0  0  0  0
 38 40  1  0  0  0  0
 39 38  1  0  0  0  0
 40 42  2  0  0  0  0
 41 40  1  0  0  0  0
 42 43  1  0  0  0  0
 44 43  2  0  0  0  0
M  END
>  <minimizedAffinity>
-4.70189333

>  <minimizedRMSD>
0.555697203

$$$$
