
 OpenBabel03252506483D

 41 44  0  0  1  0  0  0  0  0999 V2000
   37.2040   30.2970   40.9660 N   0  0  1  0  0  0  0  0  0  0  0  0
   35.9230   30.3850   40.3200 C   0  0  0  0  0  0  0  0  0  0  0  0
   35.1310   29.1110   40.4150 C   0  0  0  0  0  0  0  0  0  0  0  0
   35.8310   28.0690   39.5600 C   0  0  0  0  0  0  0  0  0  0  0  0
   37.3240   28.1860   39.7080 C   0  0  0  0  0  0  0  0  0  0  0  0
   37.6670   28.9320   40.9790 C   0  0  2  0  0  0  0  0  0  0  0  0
   36.0710   30.6070   39.2450 H   0  0  0  0  0  0  0  0  0  0  0  0
   35.3390   31.2100   40.7980 H   0  0  0  0  0  0  0  0  0  0  0  0
   34.8860   28.7770   41.4190 H   0  0  0  0  0  0  0  0  0  0  0  0
   34.1620   29.3220   39.8960 H   0  0  0  0  0  0  0  0  0  0  0  0
   35.5720   28.2320   38.4860 H   0  0  0  0  0  0  0  0  0  0  0  0
   35.5070   27.0550   39.8500 H   0  0  0  0  0  0  0  0  0  0  0  0
   37.8450   27.2230   39.6830 H   0  0  0  0  0  0  0  0  0  0  0  0
   37.7040   28.8100   38.8720 H   0  0  0  0  0  0  0  0  0  0  0  0
   38.7780   28.9750   41.0320 H   0  0  0  0  0  0  0  0  0  0  0  0
   38.7460   32.3740   40.9910 C   0  0  1  0  0  0  0  0  0  0  0  0
   37.5980   32.5800   40.0770 C   0  0  0  0  0  0  0  0  0  0  0  0
   38.0910   31.2090   40.3400 C   0  0  2  0  0  0  0  0  0  0  0  0
   38.5580   32.5310   42.0900 H   0  0  0  0  0  0  0  0  0  0  0  0
   37.8540   33.1270   39.1380 H   0  0  0  0  0  0  0  0  0  0  0  0
   36.6550   32.9260   40.5360 H   0  0  0  0  0  0  0  0  0  0  0  0
   38.7050   30.7800   39.4950 H   0  0  0  0  0  0  0  0  0  0  0  0
   41.2490   32.2280   41.1080 C   0  0  0  0  0  0  0  0  0  0  0  0
   40.0850   32.8000   40.5710 C   0  0  0  0  0  0  0  0  0  0  0  0
   40.2510   33.8070   39.5940 C   0  0  0  0  0  0  0  0  0  0  0  0
   41.5080   34.1590   39.2350 N   0  0  0  0  0  0  0  0  0  0  0  0
   42.6070   33.5900   39.7680 C   0  0  0  0  0  0  0  0  0  0  0  0
   42.4860   32.6080   40.7210 N   0  0  0  0  0  0  0  0  0  0  0  0
   41.1800   31.4520   41.8620 H   0  0  0  0  0  0  0  0  0  0  0  0
   39.3810   34.2740   39.1550 H   0  0  0  0  0  0  0  0  0  0  0  0
   43.5120   34.0130   39.3410 H   0  0  0  0  0  0  0  0  0  0  0  0
   37.2420   28.1650   42.1130 N   0  0  0  0  0  0  0  0  0  0  0  0
   36.5170   28.1630   42.8650 H   0  0  0  0  0  0  0  0  0  0  0  0
   37.9800   26.9680   42.4390 C   0  0  0  0  0  0  0  0  0  0  0  0
   37.8340   25.6280   42.1650 C   0  0  0  0  0  0  0  0  0  0  0  0
   36.9560   25.4800   41.5950 H   0  0  0  0  0  0  0  0  0  0  0  0
   38.7780   24.7550   42.6470 C   0  0  0  0  0  0  0  0  0  0  0  0
   38.5770   23.7190   42.3790 H   0  0  0  0  0  0  0  0  0  0  0  0
   39.8640   25.1760   43.3930 C   0  0  0  0  0  3  0  0  0  0  0  0
   39.9690   26.5300   43.6420 C   0  0  0  0  0  3  0  0  0  0  0  0
   39.0440   27.4120   43.1740 N   0  0  0  0  0  0  0  0  0  0  0  0
  1  2  1  6  0  0  0
  1  6  1  0  0  0  0
  2  3  1  0  0  0  0
  2  8  1  0  0  0  0
  3  9  1  0  0  0  0
  4  5  1  0  0  0  0
  4 12  1  0  0  0  0
  4  3  1  0  0  0  0
  5  6  1  0  0  0  0
  6 15  1  1  0  0  0
  6 32  1  0  0  0  0
  7  2  1  0  0  0  0
 10  3  1  0  0  0  0
 11  4  1  0  0  0  0
 13  5  1  0  0  0  0
 14  5  1  0  0  0  0
 16 19  1  1  0  0  0
 17 18  1  0  0  0  0
 17 21  1  0  0  0  0
 17 16  1  0  0  0  0
 18 22  1  6  0  0  0
 18  1  1  0  0  0  0
 18 16  1  0  0  0  0
 20 17  1  0  0  0  0
 23 29  1  0  0  0  0
 24 16  1  0  0  0  0
 24 23  2  0  0  0  0
 25 24  1  0  0  0  0
 26 25  2  0  0  0  0
 26 27  1  0  0  0  0
 27 28  2  0  0  0  0
 28 23  1  0  0  0  0
 30 25  1  0  0  0  0
 31 27  1  0  0  0  0
 32 34  1  0  0  0  0
 32 33  1  0  0  0  0
 34 41  1  0  0  0  0
 35 34  2  0  0  0  0
 35 37  1  0  0  0  0
 36 35  1  0  0  0  0
 37 39  2  0  0  0  0
 38 37  1  0  0  0  0
 39 40  1  0  0  0  0
 41 40  2  0  0  0  0
M  END
>  <minimizedAffinity>
-5.27804041

$$$$

 OpenBabel03252506483D

 41 44  0  0  1  0  0  0  0  0999 V2000
   38.3230   30.7350   38.9860 N   0  0  1  0  0  0  0  0  0  0  0  0
   39.2510   31.7170   38.4960 C   0  0  0  0  0  0  0  0  0  0  0  0
   39.7950   32.6020   39.5820 C   0  0  0  0  0  0  0  0  0  0  0  0
   38.6560   33.4790   40.0740 C   0  0  0  0  0  0  0  0  0  0  0  0
   37.3780   32.6870   40.1460 C   0  0  0  0  0  0  0  0  0  0  0  0
   37.6820   31.2060   40.1870 C   0  0  2  0  0  0  0  0  0  0  0  0
   38.7390   32.3680   37.7600 H   0  0  0  0  0  0  0  0  0  0  0  0
   40.1020   31.1880   38.0010 H   0  0  0  0  0  0  0  0  0  0  0  0
   40.3490   32.1020   40.3700 H   0  0  0  0  0  0  0  0  0  0  0  0
   40.5080   33.2980   39.0720 H   0  0  0  0  0  0  0  0  0  0  0  0
   38.5030   34.3280   39.3640 H   0  0  0  0  0  0  0  0  0  0  0  0
   38.8940   33.8920   41.0690 H   0  0  0  0  0  0  0  0  0  0  0  0
   36.7360   32.9640   40.9880 H   0  0  0  0  0  0  0  0  0  0  0  0
   36.8140   32.8600   39.2050 H   0  0  0  0  0  0  0  0  0  0  0  0
   36.7010   30.6820   40.2490 H   0  0  0  0  0  0  0  0  0  0  0  0
   36.7000   29.1060   37.8000 C   0  0  1  0  0  0  0  0  0  0  0  0
   37.8770   29.3930   36.9470 C   0  0  0  0  0  0  0  0  0  0  0  0
   37.4290   30.3950   37.9400 C   0  0  2  0  0  0  0  0  0  0  0  0
   36.8340   28.3410   38.6140 H   0  0  0  0  0  0  0  0  0  0  0  0
   37.6400   29.4940   35.8600 H   0  0  0  0  0  0  0  0  0  0  0  0
   38.7850   28.7930   37.1370 H   0  0  0  0  0  0  0  0  0  0  0  0
   36.8690   31.2640   37.4840 H   0  0  0  0  0  0  0  0  0  0  0  0
   35.1760   29.1100   35.8060 C   0  0  0  0  0  0  0  0  0  0  0  0
   35.3640   29.0730   37.1960 C   0  0  0  0  0  0  0  0  0  0  0  0
   34.2070   28.9930   38.0030 C   0  0  0  0  0  0  0  0  0  0  0  0
   32.9970   28.9550   37.3970 N   0  0  0  0  0  0  0  0  0  0  0  0
   32.8490   28.9920   36.0580 C   0  0  0  0  0  0  0  0  0  0  0  0
   33.9500   29.0710   35.2400 N   0  0  0  0  0  0  0  0  0  0  0  0
   36.0290   29.1740   35.1390 H   0  0  0  0  0  0  0  0  0  0  0  0
   34.3070   28.9620   39.0790 H   0  0  0  0  0  0  0  0  0  0  0  0
   31.7990   28.9490   35.7800 H   0  0  0  0  0  0  0  0  0  0  0  0
   38.3780   30.8940   41.4010 N   0  0  0  0  0  0  0  0  0  0  0  0
   39.1500   31.2500   42.0070 H   0  0  0  0  0  0  0  0  0  0  0  0
   37.9770   29.7130   42.1300 C   0  0  0  0  0  0  0  0  0  0  0  0
   38.4230   29.0660   43.2580 C   0  0  0  0  0  0  0  0  0  0  0  0
   39.2670   29.5720   43.6430 H   0  0  0  0  0  0  0  0  0  0  0  0
   37.7550   27.9400   43.6730 C   0  0  0  0  0  0  0  0  0  0  0  0
   38.1810   27.4980   44.5730 H   0  0  0  0  0  0  0  0  0  0  0  0
   36.6570   27.4400   42.9980 C   0  0  0  0  0  3  0  0  0  0  0  0
   36.2460   28.1230   41.8710 C   0  0  0  0  0  3  0  0  0  0  0  0
   36.8940   29.2400   41.4430 N   0  0  0  0  0  0  0  0  0  0  0  0
  1  2  1  6  0  0  0
  1  6  1  0  0  0  0
  2  3  1  0  0  0  0
  3  4  1  0  0  0  0
  3  9  1  0  0  0  0
  4  5  1  0  0  0  0
  4 12  1  0  0  0  0
  5  6  1  0  0  0  0
  5 13  1  0  0  0  0
  6 15  1  1  0  0  0
  6 32  1  0  0  0  0
  7  2  1  0  0  0  0
  8  2  1  0  0  0  0
 10  3  1  0  0  0  0
 11  4  1  0  0  0  0
 14  5  1  0  0  0  0
 16 18  1  0  0  0  0
 16 19  1  1  0  0  0
 17 21  1  0  0  0  0
 17 16  1  0  0  0  0
 17 18  1  0  0  0  0
 18 22  1  6  0  0  0
 18  1  1  0  0  0  0
 20 17  1  0  0  0  0
 23 24  1  0  0  0  0
 24 16  1  0  0  0  0
 24 25  2  0  0  0  0
 25 30  1  0  0  0  0
 26 25  1  0  0  0  0
 27 26  2  0  0  0  0
 28 23  2  0  0  0  0
 28 27  1  0  0  0  0
 29 23  1  0  0  0  0
 31 27  1  0  0  0  0
 32 33  1  0  0  0  0
 32 34  1  0  0  0  0
 34 35  1  0  0  0  0
 35 36  1  0  0  0  0
 35 37  2  0  0  0  0
 37 38  1  0  0  0  0
 39 37  1  0  0  0  0
 40 39  2  0  0  0  0
 41 40  1  0  0  0  0
 41 34  2  0  0  0  0
M  END
>  <minimizedAffinity>
-5.26030874

$$$$

 OpenBabel03252506483D

 41 44  0  0  1  0  0  0  0  0999 V2000
   37.7150   31.4750   39.5100 N   0  0  1  0  0  0  0  0  0  0  0  0
   36.9210   32.5910   39.9480 C   0  0  0  0  0  0  0  0  0  0  0  0
   37.5020   33.9170   39.5450 C   0  0  0  0  0  0  0  0  0  0  0  0
   38.7780   34.1210   40.3430 C   0  0  0  0  0  0  0  0  0  0  0  0
   39.5400   32.8280   40.4550 C   0  0  0  0  0  0  0  0  0  0  0  0
   39.0960   31.8650   39.3760 C   0  0  2  0  0  0  0  0  0  0  0  0
   36.8520   32.5790   41.0530 H   0  0  0  0  0  0  0  0  0  0  0  0
   35.8990   32.4950   39.5050 H   0  0  0  0  0  0  0  0  0  0  0  0
   37.6080   34.0850   38.4780 H   0  0  0  0  0  0  0  0  0  0  0  0
   36.7840   34.6860   39.9270 H   0  0  0  0  0  0  0  0  0  0  0  0
   38.5230   34.4690   41.3740 H   0  0  0  0  0  0  0  0  0  0  0  0
   39.4120   34.8860   39.8620 H   0  0  0  0  0  0  0  0  0  0  0  0
   40.6270   32.9540   40.4250 H   0  0  0  0  0  0  0  0  0  0  0  0
   39.2700   32.3540   41.4220 H   0  0  0  0  0  0  0  0  0  0  0  0
   39.7000   30.9390   39.5090 H   0  0  0  0  0  0  0  0  0  0  0  0
   36.4450   29.3480   40.2540 C   0  0  1  0  0  0  0  0  0  0  0  0
   36.2920   30.4300   41.2540 C   0  0  0  0  0  0  0  0  0  0  0  0
   37.4970   30.3900   40.3950 C   0  0  2  0  0  0  0  0  0  0  0  0
   35.7830   29.3960   39.3450 H   0  0  0  0  0  0  0  0  0  0  0  0
   36.3130   30.0790   42.3150 H   0  0  0  0  0  0  0  0  0  0  0  0
   35.5000   31.1750   41.0600 H   0  0  0  0  0  0  0  0  0  0  0  0
   38.4180   30.0090   40.9270 H   0  0  0  0  0  0  0  0  0  0  0  0
   36.8220   27.6570   42.0710 C   0  0  0  0  0  0  0  0  0  0  0  0
   36.6950   27.9760   40.7110 C   0  0  0  0  0  0  0  0  0  0  0  0
   36.8100   26.9160   39.7840 C   0  0  0  0  0  0  0  0  0  0  0  0
   37.0320   25.6660   40.2560 N   0  0  0  0  0  0  0  0  0  0  0  0
   37.1480   25.3910   41.5700 C   0  0  0  0  0  0  0  0  0  0  0  0
   37.0430   26.3960   42.5010 N   0  0  0  0  0  0  0  0  0  0  0  0
   36.7440   28.4330   42.8250 H   0  0  0  0  0  0  0  0  0  0  0  0
   36.7180   27.1180   38.7260 H   0  0  0  0  0  0  0  0  0  0  0  0
   37.3200   24.3310   41.7330 H   0  0  0  0  0  0  0  0  0  0  0  0
   39.4490   32.3910   38.0900 N   0  0  0  0  0  0  0  0  0  0  0  0
   39.0130   32.8050   37.2360 H   0  0  0  0  0  0  0  0  0  0  0  0
   40.8460   32.4140   37.7260 C   0  0  0  0  0  0  0  0  0  0  0  0
   41.8220   33.3810   37.6690 C   0  0  0  0  0  0  0  0  0  0  0  0
   41.4100   34.3140   37.9480 H   0  0  0  0  0  0  0  0  0  0  0  0
   43.0860   33.0120   37.2770 C   0  0  0  0  0  0  0  0  0  0  0  0
   43.7880   33.8450   37.2620 H   0  0  0  0  0  0  0  0  0  0  0  0
   43.4060   31.7100   36.9420 C   0  0  0  0  0  3  0  0  0  0  0  0
   42.3940   30.7740   37.0150 C   0  0  0  0  0  3  0  0  0  0  0  0
   41.1350   31.1190   37.4000 N   0  0  0  0  0  0  0  0  0  0  0  0
  1  2  1  1  0  0  0
  1 18  1  0  0  0  0
  2  7  1  0  0  0  0
  3 10  1  0  0  0  0
  3  2  1  0  0  0  0
  3  4  1  0  0  0  0
  4  5  1  0  0  0  0
  4 11  1  0  0  0  0
  5 14  1  0  0  0  0
  6 15  1  1  0  0  0
  6  1  1  0  0  0  0
  6  5  1  0  0  0  0
  8  2  1  0  0  0  0
  9  3  1  0  0  0  0
 12  4  1  0  0  0  0
 13  5  1  0  0  0  0
 16 19  1  6  0  0  0
 16 18  1  0  0  0  0
 16 24  1  0  0  0  0
 16 17  1  0  0  0  0
 17 20  1  0  0  0  0
 18 22  1  1  0  0  0
 18 17  1  0  0  0  0
 21 17  1  0  0  0  0
 23 28  1  0  0  0  0
 23 29  1  0  0  0  0
 24 23  2  0  0  0  0
 25 26  2  0  0  0  0
 25 24  1  0  0  0  0
 26 27  1  0  0  0  0
 27 31  1  0  0  0  0
 27 28  2  0  0  0  0
 30 25  1  0  0  0  0
 32  6  1  0  0  0  0
 33 32  1  0  0  0  0
 34 32  1  0  0  0  0
 35 34  1  0  0  0  0
 35 36  1  0  0  0  0
 37 35  2  0  0  0  0
 38 37  1  0  0  0  0
 39 40  2  0  0  0  0
 39 37  1  0  0  0  0
 40 41  1  0  0  0  0
 41 34  2  0  0  0  0
M  END
>  <minimizedAffinity>
-5.17019558

$$$$

 OpenBabel03252506483D

 41 44  0  0  1  0  0  0  0  0999 V2000
   37.1110   29.0780   41.7620 N   0  0  1  0  0  0  0  0  0  0  0  0
   36.8010   27.9670   42.6190 C   0  0  0  0  0  0  0  0  0  0  0  0
   37.8430   27.7370   43.6780 C   0  0  0  0  0  0  0  0  0  0  0  0
   39.1020   27.2450   42.9860 C   0  0  0  0  0  0  0  0  0  0  0  0
   39.3150   27.9880   41.6940 C   0  0  0  0  0  0  0  0  0  0  0  0
   38.5350   29.2850   41.7020 C   0  0  2  0  0  0  0  0  0  0  0  0
   36.7350   27.0440   42.0100 H   0  0  0  0  0  0  0  0  0  0  0  0
   35.8190   28.1620   43.1150 H   0  0  0  0  0  0  0  0  0  0  0  0
   38.0030   28.5550   44.3730 H   0  0  0  0  0  0  0  0  0  0  0  0
   37.4720   26.8670   44.2770 H   0  0  0  0  0  0  0  0  0  0  0  0
   39.0000   26.1570   42.7520 H   0  0  0  0  0  0  0  0  0  0  0  0
   39.9780   27.3820   43.6420 H   0  0  0  0  0  0  0  0  0  0  0  0
   40.3680   28.1820   41.4670 H   0  0  0  0  0  0  0  0  0  0  0  0
   38.8870   27.3760   40.8730 H   0  0  0  0  0  0  0  0  0  0  0  0
   38.7430   29.7860   40.7300 H   0  0  0  0  0  0  0  0  0  0  0  0
   35.9050   29.9120   39.6300 C   0  0  1  0  0  0  0  0  0  0  0  0
   35.0270   29.0130   40.4150 C   0  0  0  0  0  0  0  0  0  0  0  0
   36.4970   28.8640   40.5020 C   0  0  2  0  0  0  0  0  0  0  0  0
   35.9800   30.9810   39.9760 H   0  0  0  0  0  0  0  0  0  0  0  0
   34.4010   28.3280   39.7940 H   0  0  0  0  0  0  0  0  0  0  0  0
   34.4680   29.4720   41.2500 H   0  0  0  0  0  0  0  0  0  0  0  0
   36.8980   27.9840   39.9160 H   0  0  0  0  0  0  0  0  0  0  0  0
   34.9520   29.1050   37.4530 C   0  0  0  0  0  0  0  0  0  0  0  0
   35.9530   29.7760   38.1710 C   0  0  0  0  0  0  0  0  0  0  0  0
   37.0200   30.3310   37.4280 C   0  0  0  0  0  0  0  0  0  0  0  0
   37.0140   30.1870   36.0820 N   0  0  0  0  0  0  0  0  0  0  0  0
   36.0360   29.5370   35.4200 C   0  0  0  0  0  0  0  0  0  0  0  0
   34.9840   28.9840   36.1080 N   0  0  0  0  0  0  0  0  0  0  0  0
   34.1110   28.6590   37.9730 H   0  0  0  0  0  0  0  0  0  0  0  0
   37.8130   30.8560   37.9420 H   0  0  0  0  0  0  0  0  0  0  0  0
   36.2220   29.5380   34.3500 H   0  0  0  0  0  0  0  0  0  0  0  0
   39.0590   30.1510   42.7170 N   0  0  0  0  0  0  0  0  0  0  0  0
   38.8730   30.4560   43.6980 H   0  0  0  0  0  0  0  0  0  0  0  0
   40.2410   30.9210   42.4090 C   0  0  0  0  0  0  0  0  0  0  0  0
   41.5200   30.9860   42.9110 C   0  0  0  0  0  0  0  0  0  0  0  0
   41.6150   30.3120   43.7190 H   0  0  0  0  0  0  0  0  0  0  0  0
   42.4070   31.8600   42.3300 C   0  0  0  0  0  0  0  0  0  0  0  0
   43.3910   31.8400   42.7950 H   0  0  0  0  0  0  0  0  0  0  0  0
   42.0580   32.6700   41.2650 C   0  0  0  0  0  3  0  0  0  0  0  0
   40.7640   32.5690   40.7960 C   0  0  0  0  0  3  0  0  0  0  0  0
   39.8700   31.7110   41.3570 N   0  0  0  0  0  0  0  0  0  0  0  0
  1  2  1  1  0  0  0
  2  8  1  0  0  0  0
  2  3  1  0  0  0  0
  3 10  1  0  0  0  0
  3  9  1  0  0  0  0
  4 12  1  0  0  0  0
  4  3  1  0  0  0  0
  5  6  1  0  0  0  0
  5  4  1  0  0  0  0
  6 15  1  6  0  0  0
  6  1  1  0  0  0  0
  6 32  1  0  0  0  0
  7  2  1  0  0  0  0
 11  4  1  0  0  0  0
 13  5  1  0  0  0  0
 14  5  1  0  0  0  0
 16 19  1  1  0  0  0
 16 17  1  0  0  0  0
 16 18  1  0  0  0  0
 17 18  1  0  0  0  0
 17 21  1  0  0  0  0
 18 22  1  6  0  0  0
 18  1  1  0  0  0  0
 20 17  1  0  0  0  0
 23 29  1  0  0  0  0
 23 24  1  0  0  0  0
 24 16  1  0  0  0  0
 25 30  1  0  0  0  0
 25 24  2  0  0  0  0
 26 25  1  0  0  0  0
 27 26  2  0  0  0  0
 27 28  1  0  0  0  0
 28 23  2  0  0  0  0
 31 27  1  0  0  0  0
 32 33  1  0  0  0  0
 34 32  1  0  0  0  0
 34 35  1  0  0  0  0
 35 36  1  0  0  0  0
 37 38  1  0  0  0  0
 37 35  2  0  0  0  0
 39 37  1  0  0  0  0
 40 39  2  0  0  0  0
 40 41  1  0  0  0  0
 41 34  2  0  0  0  0
M  END
>  <minimizedAffinity>
-5.14492226

$$$$

 OpenBabel03252506483D

 41 44  0  0  1  0  0  0  0  0999 V2000
   39.6100   31.9820   39.6100 N   0  0  1  0  0  0  0  0  0  0  0  0
   39.6080   33.4180   39.5460 C   0  0  0  0  0  0  0  0  0  0  0  0
   38.4380   34.0340   40.2590 C   0  0  0  0  0  0  0  0  0  0  0  0
   37.1860   33.6930   39.4690 C   0  0  0  0  0  0  0  0  0  0  0  0
   37.2560   32.2790   38.9590 C   0  0  0  0  0  0  0  0  0  0  0  0
   38.2660   31.4850   39.7590 C   0  0  2  0  0  0  0  0  0  0  0  0
   39.5580   33.7360   38.4860 H   0  0  0  0  0  0  0  0  0  0  0  0
   40.5530   33.7960   40.0080 H   0  0  0  0  0  0  0  0  0  0  0  0
   38.3670   33.8280   41.3230 H   0  0  0  0  0  0  0  0  0  0  0  0
   38.5690   35.1400   40.1490 H   0  0  0  0  0  0  0  0  0  0  0  0
   37.1000   34.3790   38.5910 H   0  0  0  0  0  0  0  0  0  0  0  0
   36.2890   33.8180   40.1000 H   0  0  0  0  0  0  0  0  0  0  0  0
   36.2890   31.7650   38.9550 H   0  0  0  0  0  0  0  0  0  0  0  0
   37.6410   32.3090   37.9190 H   0  0  0  0  0  0  0  0  0  0  0  0
   38.2610   30.4530   39.3400 H   0  0  0  0  0  0  0  0  0  0  0  0
   41.7610   31.2300   38.3850 C   0  0  1  0  0  0  0  0  0  0  0  0
   41.1630   32.4130   37.7240 C   0  0  0  0  0  0  0  0  0  0  0  0
   40.2980   31.4790   38.4780 C   0  0  2  0  0  0  0  0  0  0  0  0
   42.3800   31.4180   39.3060 H   0  0  0  0  0  0  0  0  0  0  0  0
   41.2230   32.3920   36.6090 H   0  0  0  0  0  0  0  0  0  0  0  0
   41.4170   33.4000   38.1520 H   0  0  0  0  0  0  0  0  0  0  0  0
   39.6960   30.7880   37.8160 H   0  0  0  0  0  0  0  0  0  0  0  0
   42.3800   28.8190   38.0570 C   0  0  0  0  0  0  0  0  0  0  0  0
   42.2740   30.1280   37.5630 C   0  0  0  0  0  0  0  0  0  0  0  0
   42.6770   30.3510   36.2270 C   0  0  0  0  0  0  0  0  0  0  0  0
   43.1350   29.2990   35.5070 N   0  0  0  0  0  0  0  0  0  0  0  0
   43.2240   28.0520   36.0090 C   0  0  0  0  0  0  0  0  0  0  0  0
   42.8430   27.7980   37.3040 N   0  0  0  0  0  0  0  0  0  0  0  0
   42.0860   28.5930   39.0760 H   0  0  0  0  0  0  0  0  0  0  0  0
   42.6110   31.3440   35.8070 H   0  0  0  0  0  0  0  0  0  0  0  0
   43.6130   27.3600   35.2680 H   0  0  0  0  0  0  0  0  0  0  0  0
   37.8160   31.3670   41.1150 N   0  0  0  0  0  0  0  0  0  0  0  0
   37.6780   31.9410   41.9760 H   0  0  0  0  0  0  0  0  0  0  0  0
   37.3800   30.0690   41.5750 C   0  0  0  0  0  0  0  0  0  0  0  0
   36.4000   29.1810   41.2000 C   0  0  0  0  0  0  0  0  0  0  0  0
   35.8480   29.5860   40.3940 H   0  0  0  0  0  0  0  0  0  0  0  0
   36.2920   27.9970   41.8870 C   0  0  0  0  0  0  0  0  0  0  0  0
   35.4890   27.3610   41.5180 H   0  0  0  0  0  0  0  0  0  0  0  0
   37.1320   27.6710   42.9360 C   0  0  0  0  0  3  0  0  0  0  0  0
   38.1000   28.5930   43.2770 C   0  0  0  0  0  3  0  0  0  0  0  0
   38.2240   29.7730   42.6090 N   0  0  0  0  0  0  0  0  0  0  0  0
  1  2  1  6  0  0  0
  1  6  1  0  0  0  0
  2  8  1  0  0  0  0
  2  3  1  0  0  0  0
  3  9  1  0  0  0  0
  4 12  1  0  0  0  0
  4  3  1  0  0  0  0
  5  4  1  0  0  0  0
  5  6  1  0  0  0  0
  6 15  1  6  0  0  0
  6 32  1  0  0  0  0
  7  2  1  0  0  0  0
 10  3  1  0  0  0  0
 11  4  1  0  0  0  0
 13  5  1  0  0  0  0
 14  5  1  0  0  0  0
 16 18  1  0  0  0  0
 16 19  1  1  0  0  0
 17 21  1  0  0  0  0
 17 16  1  0  0  0  0
 17 18  1  0  0  0  0
 18 22  1  6  0  0  0
 18  1  1  0  0  0  0
 20 17  1  0  0  0  0
 23 29  1  0  0  0  0
 24 23  1  0  0  0  0
 24 16  1  0  0  0  0
 25 24  2  0  0  0  0
 26 27  2  0  0  0  0
 26 25  1  0  0  0  0
 27 28  1  0  0  0  0
 28 23  2  0  0  0  0
 30 25  1  0  0  0  0
 31 27  1  0  0  0  0
 32 34  1  0  0  0  0
 32 33  1  0  0  0  0
 34 41  1  0  0  0  0
 35 34  2  0  0  0  0
 35 37  1  0  0  0  0
 36 35  1  0  0  0  0
 37 39  2  0  0  0  0
 38 37  1  0  0  0  0
 39 40  1  0  0  0  0
 41 40  2  0  0  0  0
M  END
>  <minimizedAffinity>
-5.14438725

$$$$

 OpenBabel03252506483D

 41 44  0  0  1  0  0  0  0  0999 V2000
   36.9240   26.9920   41.7980 N   0  0  1  0  0  0  0  0  0  0  0  0
   37.1960   27.0990   43.2050 C   0  0  0  0  0  0  0  0  0  0  0  0
   37.2780   28.5240   43.6790 C   0  0  0  0  0  0  0  0  0  0  0  0
   38.5320   29.1360   43.0790 C   0  0  0  0  0  0  0  0  0  0  0  0
   38.7160   28.6720   41.6590 C   0  0  0  0  0  0  0  0  0  0  0  0
   37.4050   28.1590   41.1040 C   0  0  2  0  0  0  0  0  0  0  0  0
   38.1680   26.6170   43.4270 H   0  0  0  0  0  0  0  0  0  0  0  0
   36.3810   26.5790   43.7660 H   0  0  0  0  0  0  0  0  0  0  0  0
   36.3810   29.1200   43.5480 H   0  0  0  0  0  0  0  0  0  0  0  0
   37.4720   28.4620   44.7790 H   0  0  0  0  0  0  0  0  0  0  0  0
   39.4240   28.8150   43.6710 H   0  0  0  0  0  0  0  0  0  0  0  0
   38.4710   30.2370   43.1060 H   0  0  0  0  0  0  0  0  0  0  0  0
   39.1330   29.4380   40.9970 H   0  0  0  0  0  0  0  0  0  0  0  0
   39.4070   27.8040   41.6690 H   0  0  0  0  0  0  0  0  0  0  0  0
   37.6070   27.8430   40.0550 H   0  0  0  0  0  0  0  0  0  0  0  0
   36.6770   24.6180   40.8000 C   0  0  1  0  0  0  0  0  0  0  0  0
   37.2630   24.5600   42.1590 C   0  0  0  0  0  0  0  0  0  0  0  0
   37.4590   25.7680   41.3260 C   0  0  2  0  0  0  0  0  0  0  0  0
   35.5590   24.7370   40.7300 H   0  0  0  0  0  0  0  0  0  0  0  0
   38.0630   23.7910   42.2790 H   0  0  0  0  0  0  0  0  0  0  0  0
   36.5530   24.5820   43.0060 H   0  0  0  0  0  0  0  0  0  0  0  0
   38.4910   25.8380   40.8690 H   0  0  0  0  0  0  0  0  0  0  0  0
   38.0320   22.6520   40.0260 C   0  0  0  0  0  0  0  0  0  0  0  0
   37.2300   23.7680   39.7400 C   0  0  0  0  0  0  0  0  0  0  0  0
   36.9630   24.0420   38.3800 C   0  0  0  0  0  0  0  0  0  0  0  0
   37.4900   23.2210   37.4400 N   0  0  0  0  0  0  0  0  0  0  0  0
   38.2560   22.1560   37.7460 C   0  0  0  0  0  0  0  0  0  0  0  0
   38.5380   21.8580   39.0570 N   0  0  0  0  0  0  0  0  0  0  0  0
   38.2690   22.3970   41.0530 H   0  0  0  0  0  0  0  0  0  0  0  0
   36.3500   24.8910   38.1160 H   0  0  0  0  0  0  0  0  0  0  0  0
   38.5730   21.6320   36.8480 H   0  0  0  0  0  0  0  0  0  0  0  0
   36.4650   29.2380   41.0210 N   0  0  0  0  0  0  0  0  0  0  0  0
   35.5450   29.5430   41.4080 H   0  0  0  0  0  0  0  0  0  0  0  0
   36.7730   30.3410   40.1410 C   0  0  0  0  0  0  0  0  0  0  0  0
   36.9540   31.6950   40.3020 C   0  0  0  0  0  0  0  0  0  0  0  0
   36.8100   31.9500   41.3180 H   0  0  0  0  0  0  0  0  0  0  0  0
   37.2630   32.4490   39.1970 C   0  0  0  0  0  0  0  0  0  0  0  0
   37.3860   33.5070   39.4230 H   0  0  0  0  0  0  0  0  0  0  0  0
   37.3970   31.8960   37.9370 C   0  0  0  0  0  3  0  0  0  0  0  0
   37.2060   30.5340   37.8240 C   0  0  0  0  0  3  0  0  0  0  0  0
   36.8990   29.7680   38.9070 N   0  0  0  0  0  0  0  0  0  0  0  0
  1  2  1  1  0  0  0
  2  7  1  0  0  0  0
  2  3  1  0  0  0  0
  2  8  1  0  0  0  0
  3 10  1  0  0  0  0
  4 12  1  0  0  0  0
  4 11  1  0  0  0  0
  4  3  1  0  0  0  0
  5 14  1  0  0  0  0
  5  4  1  0  0  0  0
  6 15  1  6  0  0  0
  6  5  1  0  0  0  0
  6  1  1  0  0  0  0
  9  3  1  0  0  0  0
 13  5  1  0  0  0  0
 16 19  1  6  0  0  0
 16 18  1  0  0  0  0
 16 17  1  0  0  0  0
 17 20  1  0  0  0  0
 17 21  1  0  0  0  0
 18 22  1  6  0  0  0
 18  1  1  0  0  0  0
 18 17  1  0  0  0  0
 23 29  1  0  0  0  0
 24 23  1  0  0  0  0
 24 16  1  0  0  0  0
 25 24  2  0  0  0  0
 26 27  2  0  0  0  0
 26 25  1  0  0  0  0
 27 28  1  0  0  0  0
 28 23  2  0  0  0  0
 30 25  1  0  0  0  0
 31 27  1  0  0  0  0
 32  6  1  0  0  0  0
 32 33  1  0  0  0  0
 34 35  1  0  0  0  0
 34 32  1  0  0  0  0
 35 36  1  0  0  0  0
 37 38  1  0  0  0  0
 37 35  2  0  0  0  0
 39 37  1  0  0  0  0
 40 39  2  0  0  0  0
 40 41  1  0  0  0  0
 41 34  2  0  0  0  0
M  END
>  <minimizedAffinity>
-5.1386857

$$$$

 OpenBabel03252506483D

 41 44  0  0  1  0  0  0  0  0999 V2000
   38.7010   28.6180   41.7230 N   0  0  1  0  0  0  0  0  0  0  0  0
   38.4550   27.2060   41.6100 C   0  0  0  0  0  0  0  0  0  0  0  0
   36.9990   26.8540   41.7350 C   0  0  0  0  0  0  0  0  0  0  0  0
   36.5840   27.1210   43.1720 C   0  0  0  0  0  0  0  0  0  0  0  0
   37.2270   28.3830   43.6780 C   0  0  0  0  0  0  0  0  0  0  0  0
   37.6750   29.2440   42.5170 C   0  0  2  0  0  0  0  0  0  0  0  0
   38.9980   26.6750   42.4160 H   0  0  0  0  0  0  0  0  0  0  0  0
   38.8260   26.8590   40.6140 H   0  0  0  0  0  0  0  0  0  0  0  0
   36.3390   27.2870   40.9900 H   0  0  0  0  0  0  0  0  0  0  0  0
   36.9490   25.7430   41.6110 H   0  0  0  0  0  0  0  0  0  0  0  0
   36.9160   26.2730   43.8200 H   0  0  0  0  0  0  0  0  0  0  0  0
   35.4860   27.2070   43.2430 H   0  0  0  0  0  0  0  0  0  0  0  0
   36.5880   28.9620   44.3530 H   0  0  0  0  0  0  0  0  0  0  0  0
   38.1500   28.1020   44.2270 H   0  0  0  0  0  0  0  0  0  0  0  0
   38.1300   30.1600   42.9580 H   0  0  0  0  0  0  0  0  0  0  0  0
   41.1360   29.4560   41.4730 C   0  0  1  0  0  0  0  0  0  0  0  0
   41.0980   27.9830   41.6280 C   0  0  0  0  0  0  0  0  0  0  0  0
   40.0180   28.8100   42.2110 C   0  0  2  0  0  0  0  0  0  0  0  0
   40.9150   29.8670   40.4490 H   0  0  0  0  0  0  0  0  0  0  0  0
   41.9250   27.5680   42.2540 H   0  0  0  0  0  0  0  0  0  0  0  0
   40.9100   27.3930   40.7130 H   0  0  0  0  0  0  0  0  0  0  0  0
   40.1020   28.9400   43.3300 H   0  0  0  0  0  0  0  0  0  0  0  0
   43.1420   29.6130   42.9740 C   0  0  0  0  0  0  0  0  0  0  0  0
   42.1510   30.2300   42.1950 C   0  0  0  0  0  0  0  0  0  0  0  0
   42.1710   31.6410   42.1240 C   0  0  0  0  0  0  0  0  0  0  0  0
   43.1340   32.3090   42.8010 N   0  0  0  0  0  0  0  0  0  0  0  0
   44.0730   31.6870   43.5410 C   0  0  0  0  0  0  0  0  0  0  0  0
   44.0860   30.3170   43.6350 N   0  0  0  0  0  0  0  0  0  0  0  0
   43.1720   28.5320   43.0650 H   0  0  0  0  0  0  0  0  0  0  0  0
   41.4260   32.1570   41.5350 H   0  0  0  0  0  0  0  0  0  0  0  0
   44.7490   32.4050   43.9980 H   0  0  0  0  0  0  0  0  0  0  0  0
   36.5280   29.6840   41.7780 N   0  0  0  0  0  0  0  0  0  0  0  0
   35.4860   29.6990   41.8310 H   0  0  0  0  0  0  0  0  0  0  0  0
   36.7490   30.3460   40.5130 C   0  0  0  0  0  0  0  0  0  0  0  0
   36.6580   29.9770   39.1920 C   0  0  0  0  0  0  0  0  0  0  0  0
   36.3730   28.9610   39.1290 H   0  0  0  0  0  0  0  0  0  0  0  0
   36.9400   30.9160   38.2290 C   0  0  0  0  0  0  0  0  0  0  0  0
   36.8410   30.5310   37.2160 H   0  0  0  0  0  0  0  0  0  0  0  0
   37.3090   32.2110   38.5450 C   0  0  0  0  0  3  0  0  0  0  0  0
   37.3860   32.5350   39.8840 C   0  0  0  0  0  3  0  0  0  0  0  0
   37.1110   31.6190   40.8530 N   0  0  0  0  0  0  0  0  0  0  0  0
  1  2  1  1  0  0  0
  1 18  1  0  0  0  0
  1  6  1  0  0  0  0
  2  3  1  0  0  0  0
  2  7  1  0  0  0  0
  3  4  1  0  0  0  0
  4 12  1  0  0  0  0
  4  5  1  0  0  0  0
  4 11  1  0  0  0  0
  5 14  1  0  0  0  0
  5 13  1  0  0  0  0
  6 15  1  1  0  0  0
  6  5  1  0  0  0  0
  8  2  1  0  0  0  0
  9  3  1  0  0  0  0
 10  3  1  0  0  0  0
 16 19  1  6  0  0  0
 16 17  1  0  0  0  0
 16 24  1  0  0  0  0
 16 18  1  0  0  0  0
 17 18  1  0  0  0  0
 17 20  1  0  0  0  0
 18 22  1  1  0  0  0
 21 17  1  0  0  0  0
 23 29  1  0  0  0  0
 23 28  1  0  0  0  0
 24 23  2  0  0  0  0
 25 24  1  0  0  0  0
 25 26  2  0  0  0  0
 26 27  1  0  0  0  0
 27 28  2  0  0  0  0
 27 31  1  0  0  0  0
 30 25  1  0  0  0  0
 32 33  1  0  0  0  0
 32  6  1  0  0  0  0
 34 41  1  0  0  0  0
 34 32  1  0  0  0  0
 35 34  2  0  0  0  0
 36 35  1  0  0  0  0
 37 39  2  0  0  0  0
 37 35  1  0  0  0  0
 38 37  1  0  0  0  0
 39 40  1  0  0  0  0
 40 41  2  0  0  0  0
M  END
>  <minimizedAffinity>
-5.11334133

$$$$

 OpenBabel03252506483D

 41 44  0  0  1  0  0  0  0  0999 V2000
   37.0950   29.9110   40.7710 N   0  0  1  0  0  0  0  0  0  0  0  0
   37.4850   31.2670   41.0440 C   0  0  0  0  0  0  0  0  0  0  0  0
   37.1890   32.2020   39.9040 C   0  0  0  0  0  0  0  0  0  0  0  0
   38.1210   31.8410   38.7600 C   0  0  0  0  0  0  0  0  0  0  0  0
   38.2680   30.3480   38.6530 C   0  0  0  0  0  0  0  0  0  0  0  0
   37.1170   29.6580   39.3530 C   0  0  2  0  0  0  0  0  0  0  0  0
   38.5770   31.3030   41.2290 H   0  0  0  0  0  0  0  0  0  0  0  0
   36.9370   31.6200   41.9520 H   0  0  0  0  0  0  0  0  0  0  0  0
   36.1450   32.2900   39.6220 H   0  0  0  0  0  0  0  0  0  0  0  0
   37.5200   33.2120   40.2530 H   0  0  0  0  0  0  0  0  0  0  0  0
   39.1310   32.2810   38.9480 H   0  0  0  0  0  0  0  0  0  0  0  0
   37.7340   32.2460   37.8090 H   0  0  0  0  0  0  0  0  0  0  0  0
   38.3540   29.9870   37.6230 H   0  0  0  0  0  0  0  0  0  0  0  0
   39.1850   30.0530   39.2040 H   0  0  0  0  0  0  0  0  0  0  0  0
   37.2810   28.5630   39.2290 H   0  0  0  0  0  0  0  0  0  0  0  0
   37.4400   28.0180   42.5010 C   0  0  1  0  0  0  0  0  0  0  0  0
   38.0210   29.2910   42.9890 C   0  0  0  0  0  0  0  0  0  0  0  0
   37.9160   29.0420   41.5330 C   0  0  2  0  0  0  0  0  0  0  0  0
   36.3280   27.8880   42.6160 H   0  0  0  0  0  0  0  0  0  0  0  0
   38.9860   29.1720   43.5390 H   0  0  0  0  0  0  0  0  0  0  0  0
   37.3270   29.9960   43.4810 H   0  0  0  0  0  0  0  0  0  0  0  0
   38.8990   28.7620   41.0510 H   0  0  0  0  0  0  0  0  0  0  0  0
   37.8330   25.5870   42.0180 C   0  0  0  0  0  0  0  0  0  0  0  0
   38.1870   26.7690   42.6850 C   0  0  0  0  0  0  0  0  0  0  0  0
   39.3080   26.7170   43.5440 C   0  0  0  0  0  0  0  0  0  0  0  0
   39.9690   25.5420   43.6730 N   0  0  0  0  0  0  0  0  0  0  0  0
   39.6040   24.4220   43.0180 C   0  0  0  0  0  0  0  0  0  0  0  0
   38.5200   24.4340   42.1740 N   0  0  0  0  0  0  0  0  0  0  0  0
   36.9800   25.5700   41.3480 H   0  0  0  0  0  0  0  0  0  0  0  0
   39.6150   27.6050   44.0770 H   0  0  0  0  0  0  0  0  0  0  0  0
   40.2670   23.5950   43.2590 H   0  0  0  0  0  0  0  0  0  0  0  0
   35.8930   29.9580   38.6710 N   0  0  0  0  0  0  0  0  0  0  0  0
   35.2770   30.7660   38.4290 H   0  0  0  0  0  0  0  0  0  0  0  0
   35.1630   28.8660   38.0710 C   0  0  0  0  0  0  0  0  0  0  0  0
   34.0060   28.7530   37.3370 C   0  0  0  0  0  0  0  0  0  0  0  0
   33.5700   29.7080   37.2200 H   0  0  0  0  0  0  0  0  0  0  0  0
   33.6220   27.5050   36.9100 C   0  0  0  0  0  0  0  0  0  0  0  0
   32.6950   27.5170   36.3380 H   0  0  0  0  0  0  0  0  0  0  0  0
   34.3560   26.3680   37.1910 C   0  0  0  0  0  3  0  0  0  0  0  0
   35.5100   26.5300   37.9310 C   0  0  0  0  0  3  0  0  0  0  0  0
   35.9080   27.7570   38.3640 N   0  0  0  0  0  0  0  0  0  0  0  0
  1  2  1  6  0  0  0
  1 18  1  0  0  0  0
  2  7  1  0  0  0  0
  2  8  1  0  0  0  0
  3 10  1  0  0  0  0
  3  2  1  0  0  0  0
  4 11  1  0  0  0  0
  4  3  1  0  0  0  0
  5  4  1  0  0  0  0
  5 14  1  0  0  0  0
  5  6  1  0  0  0  0
  6 15  1  6  0  0  0
  6  1  1  0  0  0  0
  9  3  1  0  0  0  0
 12  4  1  0  0  0  0
 13  5  1  0  0  0  0
 16 19  1  1  0  0  0
 16 24  1  0  0  0  0
 16 17  1  0  0  0  0
 17 21  1  0  0  0  0
 17 20  1  0  0  0  0
 18 22  1  6  0  0  0
 18 16  1  0  0  0  0
 18 17  1  0  0  0  0
 23 28  2  0  0  0  0
 23 24  1  0  0  0  0
 24 25  2  0  0  0  0
 25 26  1  0  0  0  0
 25 30  1  0  0  0  0
 27 31  1  0  0  0  0
 27 26  2  0  0  0  0
 28 27  1  0  0  0  0
 29 23  1  0  0  0  0
 32  6  1  0  0  0  0
 33 32  1  0  0  0  0
 34 41  1  0  0  0  0
 34 32  1  0  0  0  0
 35 34  2  0  0  0  0
 36 35  1  0  0  0  0
 37 39  2  0  0  0  0
 37 35  1  0  0  0  0
 38 37  1  0  0  0  0
 39 40  1  0  0  0  0
 40 41  2  0  0  0  0
M  END
>  <minimizedAffinity>
-5.09700441

$$$$

 OpenBabel03252506483D

 41 44  0  0  1  0  0  0  0  0999 V2000
   38.3520   28.1600   41.4720 N   0  0  1  0  0  0  0  0  0  0  0  0
   38.0190   26.8000   41.8000 C   0  0  0  0  0  0  0  0  0  0  0  0
   36.6130   26.6480   42.3100 C   0  0  0  0  0  0  0  0  0  0  0  0
   36.5430   27.3150   43.6730 C   0  0  0  0  0  0  0  0  0  0  0  0
   37.3440   28.5900   43.6750 C   0  0  0  0  0  0  0  0  0  0  0  0
   37.5610   29.0730   42.2580 C   0  0  2  0  0  0  0  0  0  0  0  0
   38.7020   26.4380   42.5930 H   0  0  0  0  0  0  0  0  0  0  0  0
   38.1400   26.1730   40.8830 H   0  0  0  0  0  0  0  0  0  0  0  0
   35.8250   26.9440   41.6250 H   0  0  0  0  0  0  0  0  0  0  0  0
   36.4830   25.5540   42.5050 H   0  0  0  0  0  0  0  0  0  0  0  0
   36.9710   26.6310   44.4460 H   0  0  0  0  0  0  0  0  0  0  0  0
   35.4950   27.5340   43.9390 H   0  0  0  0  0  0  0  0  0  0  0  0
   36.9010   29.3860   44.2820 H   0  0  0  0  0  0  0  0  0  0  0  0
   38.3510   28.3610   44.0800 H   0  0  0  0  0  0  0  0  0  0  0  0
   38.1470   30.0170   42.3310 H   0  0  0  0  0  0  0  0  0  0  0  0
   40.4630   28.7260   42.8550 C   0  0  1  0  0  0  0  0  0  0  0  0
   40.2690   29.7080   41.7630 C   0  0  0  0  0  0  0  0  0  0  0  0
   39.7520   28.3290   41.6110 C   0  0  2  0  0  0  0  0  0  0  0  0
   39.8460   28.8680   43.7860 H   0  0  0  0  0  0  0  0  0  0  0  0
   41.2160   30.0390   41.2730 H   0  0  0  0  0  0  0  0  0  0  0  0
   39.5720   30.5410   41.9650 H   0  0  0  0  0  0  0  0  0  0  0  0
   40.3850   27.6820   40.9350 H   0  0  0  0  0  0  0  0  0  0  0  0
   42.0460   26.8650   43.4320 C   0  0  0  0  0  0  0  0  0  0  0  0
   41.8100   28.2150   43.1330 C   0  0  0  0  0  0  0  0  0  0  0  0
   42.9300   29.0760   43.1010 C   0  0  0  0  0  0  0  0  0  0  0  0
   44.1540   28.5540   43.3550 N   0  0  0  0  0  0  0  0  0  0  0  0
   44.3490   27.2510   43.6380 C   0  0  0  0  0  0  0  0  0  0  0  0
   43.2840   26.3840   43.6800 N   0  0  0  0  0  0  0  0  0  0  0  0
   41.2220   26.1610   43.4710 H   0  0  0  0  0  0  0  0  0  0  0  0
   42.7930   30.1240   42.8750 H   0  0  0  0  0  0  0  0  0  0  0  0
   45.4010   27.0420   43.8070 H   0  0  0  0  0  0  0  0  0  0  0  0
   36.3000   29.4290   41.6750 N   0  0  0  0  0  0  0  0  0  0  0  0
   35.3060   29.6040   41.9390 H   0  0  0  0  0  0  0  0  0  0  0  0
   36.2490   29.6480   40.2480 C   0  0  0  0  0  0  0  0  0  0  0  0
   36.9650   30.4060   39.3520 C   0  0  0  0  0  0  0  0  0  0  0  0
   37.7060   30.9550   39.8690 H   0  0  0  0  0  0  0  0  0  0  0  0
   36.6250   30.3440   38.0230 C   0  0  0  0  0  0  0  0  0  0  0  0
   37.2460   30.9780   37.3930 H   0  0  0  0  0  0  0  0  0  0  0  0
   35.5930   29.5480   37.5600 C   0  0  0  0  0  3  0  0  0  0  0  0
   34.9030   28.8040   38.4960 C   0  0  0  0  0  3  0  0  0  0  0  0
   35.2240   28.8520   39.8180 N   0  0  0  0  0  0  0  0  0  0  0  0
  1 18  1  0  0  0  0
  1  2  1  1  0  0  0
  1  6  1  0  0  0  0
  2  3  1  0  0  0  0
  2  7  1  0  0  0  0
  3 10  1  0  0  0  0
  3  4  1  0  0  0  0
  4  5  1  0  0  0  0
  4 12  1  0  0  0  0
  4 11  1  0  0  0  0
  5 14  1  0  0  0  0
  5 13  1  0  0  0  0
  6 15  1  1  0  0  0
  6  5  1  0  0  0  0
  8  2  1  0  0  0  0
  9  3  1  0  0  0  0
 16 24  1  0  0  0  0
 16 19  1  1  0  0  0
 17 21  1  0  0  0  0
 17 16  1  0  0  0  0
 18 22  1  6  0  0  0
 18 17  1  0  0  0  0
 18 16  1  0  0  0  0
 20 17  1  0  0  0  0
 23 29  1  0  0  0  0
 23 28  1  0  0  0  0
 24 23  2  0  0  0  0
 25 24  1  0  0  0  0
 25 26  2  0  0  0  0
 26 27  1  0  0  0  0
 27 28  2  0  0  0  0
 27 31  1  0  0  0  0
 30 25  1  0  0  0  0
 32 33  1  0  0  0  0
 32  6  1  0  0  0  0
 34 32  1  0  0  0  0
 35 36  1  0  0  0  0
 35 34  2  0  0  0  0
 37 35  1  0  0  0  0
 38 37  1  0  0  0  0
 39 37  2  0  0  0  0
 39 40  1  0  0  0  0
 40 41  2  0  0  0  0
 41 34  1  0  0  0  0
M  END
>  <minimizedAffinity>
-4.90540695

$$$$
