
 OpenBabel03252503223D

 39 43  0  0  1  0  0  0  0  0999 V2000
   37.8680   28.3860   42.0550 C   0  0  1  0  0  0  0  0  0  0  0  0
   36.4950   28.1060   42.4200 C   0  0  0  0  0  0  0  0  0  0  0  0
   36.9890   27.6080   41.0850 C   0  0  2  0  0  0  0  0  0  0  0  0
   38.7420   27.8230   42.4510 H   0  0  0  0  0  0  0  0  0  0  0  0
   35.7280   28.8980   42.4030 H   0  0  0  0  0  0  0  0  0  0  0  0
   36.2570   27.3320   43.2000 H   0  0  0  0  0  0  0  0  0  0  0  0
   36.5550   28.0940   40.2030 H   0  0  0  0  0  0  0  0  0  0  0  0
   37.2820   26.1500   40.9960 C   0  0  0  0  0  0  0  0  0  0  0  0
   37.0820   25.2470   42.0180 C   0  0  0  0  0  0  0  0  0  0  0  0
   37.3610   23.9070   41.8760 C   0  0  0  0  0  0  0  0  0  0  0  0
   37.8620   23.4390   40.6710 C   0  0  0  0  0  0  0  0  0  0  0  0
   38.1600   22.1300   40.4770 N   0  0  0  0  0  0  0  0  0  0  0  0
   38.6480   21.6820   39.3080 C   0  0  0  0  0  0  0  0  0  0  0  0
   38.8840   22.5250   38.2100 C   0  0  0  0  0  0  0  0  0  0  0  0
   38.5900   23.8740   38.3720 C   0  0  0  0  0  0  0  0  0  0  0  0
   38.0870   24.3040   39.5960 C   0  0  0  0  0  0  0  0  0  0  0  0
   37.7860   25.6380   39.8070 C   0  0  0  0  0  0  0  0  0  0  0  0
   36.6930   25.6320   42.9410 H   0  0  0  0  0  0  0  0  0  0  0  0
   37.2000   23.2020   42.6900 H   0  0  0  0  0  0  0  0  0  0  0  0
   38.8950   20.6440   39.1240 H   0  0  0  0  0  0  0  0  0  0  0  0
   39.2760   22.1470   37.2750 H   0  0  0  0  0  0  0  0  0  0  0  0
   38.7570   24.5540   37.5520 H   0  0  0  0  0  0  0  0  0  0  0  0
   38.0090   26.2390   38.9260 H   0  0  0  0  0  0  0  0  0  0  0  0
   39.6710   30.1050   41.7070 C   0  0  0  0  0  0  0  0  0  0  0  0
   38.2990   29.7490   41.6360 C   0  0  0  0  0  0  0  0  0  0  0  0
   37.4090   30.6980   41.1740 C   0  0  0  0  0  0  0  0  0  0  0  0
   37.9050   31.9160   40.8150 N   0  0  0  0  0  0  0  0  0  0  0  0
   39.2060   32.2320   40.8900 C   0  0  0  0  0  0  0  0  0  0  0  0
   40.0980   31.3210   41.3400 N   0  0  0  0  0  0  0  0  0  0  0  0
   40.4130   29.3850   42.0670 H   0  0  0  0  0  0  0  0  0  0  0  0
   36.3760   30.4570   41.1110 H   0  0  0  0  0  0  0  0  0  0  0  0
   39.6980   33.5520   40.4950 C   0  0  0  0  0  0  0  0  0  0  0  0
   38.8430   34.6340   40.5010 C   0  0  0  0  0  0  0  0  0  0  0  0
   37.8010   34.5610   40.7900 H   0  0  0  0  0  0  0  0  0  0  0  0
   39.2490   35.9180   40.1350 C   0  0  0  0  0  0  0  0  0  0  0  0
   38.6270   36.7890   40.1230 H   0  0  0  0  0  0  0  0  0  0  0  0
   40.5810   36.0360   39.7610 C   0  0  0  0  0  3  0  0  0  0  0  0
   41.4420   34.9610   39.7520 C   0  0  0  0  0  3  0  0  0  0  0  0
   40.9930   33.7290   40.1190 N   0  0  0  0  0  0  0  0  0  0  0  0
  1  2  1  0  0  0  0
  1  4  1  1  0  0  0
  2  6  1  0  0  0  0
  3  7  1  6  0  0  0
  3  1  1  0  0  0  0
  3  2  1  0  0  0  0
  5  2  1  0  0  0  0
  8  3  1  0  0  0  0
  8  9  1  0  0  0  0
  9 18  1  0  0  0  0
 10  9  2  0  0  0  0
 10 19  1  0  0  0  0
 11 10  1  0  0  0  0
 12 11  1  0  0  0  0
 13 12  2  0  0  0  0
 14 15  2  0  0  0  0
 14 13  1  0  0  0  0
 15 16  1  0  0  0  0
 16 17  1  0  0  0  0
 16 11  2  0  0  0  0
 17  8  2  0  0  0  0
 20 13  1  0  0  0  0
 21 14  1  0  0  0  0
 22 15  1  0  0  0  0
 23 17  1  0  0  0  0
 24 30  1  0  0  0  0
 25 24  1  0  0  0  0
 25  1  1  0  0  0  0
 26 25  2  0  0  0  0
 27 28  2  0  0  0  0
 27 26  1  0  0  0  0
 28 29  1  0  0  0  0
 29 24  2  0  0  0  0
 31 26  1  0  0  0  0
 32 33  1  0  0  0  0
 32 28  1  0  0  0  0
 33 34  1  0  0  0  0
 35 33  2  0  0  0  0
 36 35  1  0  0  0  0
 37 35  1  0  0  0  0
 38 37  2  0  0  0  0
 38 39  1  0  0  0  0
 39 32  2  0  0  0  0
M  END
>  <minimizedAffinity>
-6.38118553

$$$$

 OpenBabel03252503223D

 39 43  0  0  1  0  0  0  0  0999 V2000
   34.5600   29.2680   37.7000 C   0  0  1  0  0  0  0  0  0  0  0  0
   34.3360   28.5760   36.4480 C   0  0  0  0  0  0  0  0  0  0  0  0
   33.2090   28.6130   37.4490 C   0  0  2  0  0  0  0  0  0  0  0  0
   34.5320   30.3750   37.8100 H   0  0  0  0  0  0  0  0  0  0  0  0
   34.7930   27.5920   36.2510 H   0  0  0  0  0  0  0  0  0  0  0  0
   34.1930   29.1520   35.4940 H   0  0  0  0  0  0  0  0  0  0  0  0
   32.9510   27.6550   37.9150 H   0  0  0  0  0  0  0  0  0  0  0  0
   32.0960   29.5570   37.1490 C   0  0  0  0  0  0  0  0  0  0  0  0
   31.1470   29.9660   38.0620 C   0  0  0  0  0  0  0  0  0  0  0  0
   30.1450   30.8490   37.7310 C   0  0  0  0  0  0  0  0  0  0  0  0
   30.0760   31.3490   36.4390 C   0  0  0  0  0  0  0  0  0  0  0  0
   29.1070   32.2180   36.0560 N   0  0  0  0  0  0  0  0  0  0  0  0
   29.0440   32.6980   34.8040 C   0  0  0  0  0  0  0  0  0  0  0  0
   29.9650   32.3410   33.8060 C   0  0  0  0  0  0  0  0  0  0  0  0
   30.9720   31.4520   34.1610 C   0  0  0  0  0  0  0  0  0  0  0  0
   31.0080   30.9740   35.4670 C   0  0  0  0  0  0  0  0  0  0  0  0
   31.9890   30.0830   35.8670 C   0  0  0  0  0  0  0  0  0  0  0  0
   31.2210   29.5660   39.0540 H   0  0  0  0  0  0  0  0  0  0  0  0
   29.4000   31.1660   38.4600 H   0  0  0  0  0  0  0  0  0  0  0  0
   28.2820   33.3920   34.4690 H   0  0  0  0  0  0  0  0  0  0  0  0
   29.8990   32.7380   32.8010 H   0  0  0  0  0  0  0  0  0  0  0  0
   31.6990   31.1540   33.4230 H   0  0  0  0  0  0  0  0  0  0  0  0
   32.6570   29.8320   35.0440 H   0  0  0  0  0  0  0  0  0  0  0  0
   36.4310   27.7530   38.4310 C   0  0  0  0  0  0  0  0  0  0  0  0
   35.4110   28.6800   38.7720 C   0  0  0  0  0  0  0  0  0  0  0  0
   35.2500   29.0010   40.1040 C   0  0  0  0  0  0  0  0  0  0  0  0
   36.0810   28.4080   41.0080 N   0  0  0  0  0  0  0  0  0  0  0  0
   37.0390   27.5340   40.6650 C   0  0  0  0  0  0  0  0  0  0  0  0
   37.2170   27.2030   39.3660 N   0  0  0  0  0  0  0  0  0  0  0  0
   36.5950   27.4680   37.3870 H   0  0  0  0  0  0  0  0  0  0  0  0
   34.4940   29.6920   40.3860 H   0  0  0  0  0  0  0  0  0  0  0  0
   37.9100   26.9200   41.6660 C   0  0  0  0  0  0  0  0  0  0  0  0
   38.2040   27.5980   42.8310 C   0  0  0  0  0  0  0  0  0  0  0  0
   37.8150   28.5860   43.0520 H   0  0  0  0  0  0  0  0  0  0  0  0
   39.0270   27.0680   43.8250 C   0  0  0  0  0  0  0  0  0  0  0  0
   39.2850   27.5520   44.7440 H   0  0  0  0  0  0  0  0  0  0  0  0
   39.5370   25.8030   43.5630 C   0  0  0  0  0  3  0  0  0  0  0  0
   39.2490   25.1190   42.4030 C   0  0  0  0  0  3  0  0  0  0  0  0
   38.4390   25.6830   41.4660 N   0  0  0  0  0  0  0  0  0  0  0  0
  1  4  1  6  0  0  0
  1 25  1  0  0  0  0
  2  3  1  0  0  0  0
  2  1  1  0  0  0  0
  3  1  1  0  0  0  0
  3  7  1  1  0  0  0
  5  2  1  0  0  0  0
  6  2  1  0  0  0  0
  8  3  1  0  0  0  0
  8  9  1  0  0  0  0
  9 18  1  0  0  0  0
 10  9  2  0  0  0  0
 10 19  1  0  0  0  0
 11 10  1  0  0  0  0
 12 11  1  0  0  0  0
 13 12  2  0  0  0  0
 14 15  2  0  0  0  0
 14 13  1  0  0  0  0
 15 16  1  0  0  0  0
 16 17  1  0  0  0  0
 16 11  2  0  0  0  0
 17  8  2  0  0  0  0
 20 13  1  0  0  0  0
 21 14  1  0  0  0  0
 22 15  1  0  0  0  0
 23 17  1  0  0  0  0
 24 25  2  0  0  0  0
 24 29  1  0  0  0  0
 25 26  1  0  0  0  0
 26 31  1  0  0  0  0
 26 27  2  0  0  0  0
 28 27  1  0  0  0  0
 28 32  1  0  0  0  0
 29 28  2  0  0  0  0
 30 24  1  0  0  0  0
 32 33  1  0  0  0  0
 33 34  1  0  0  0  0
 33 35  2  0  0  0  0
 35 36  1  0  0  0  0
 37 35  1  0  0  0  0
 38 37  2  0  0  0  0
 39 32  2  0  0  0  0
 39 38  1  0  0  0  0
M  END
>  <minimizedAffinity>
-6.35894251

$$$$

 OpenBabel03252503223D

 39 43  0  0  1  0  0  0  0  0999 V2000
   38.7630   28.0150   41.7610 C   0  0  1  0  0  0  0  0  0  0  0  0
   38.1770   27.6170   43.0240 C   0  0  0  0  0  0  0  0  0  0  0  0
   37.2930   27.6250   41.8030 C   0  0  2  0  0  0  0  0  0  0  0  0
   39.4070   27.3520   41.1400 H   0  0  0  0  0  0  0  0  0  0  0  0
   37.9520   28.3600   43.8060 H   0  0  0  0  0  0  0  0  0  0  0  0
   38.4180   26.6160   43.4760 H   0  0  0  0  0  0  0  0  0  0  0  0
   36.5060   28.3890   41.7870 H   0  0  0  0  0  0  0  0  0  0  0  0
   36.9740   26.2940   41.2150 C   0  0  0  0  0  0  0  0  0  0  0  0
   37.0060   25.1030   41.9080 C   0  0  0  0  0  0  0  0  0  0  0  0
   36.6920   23.9020   41.3140 C   0  0  0  0  0  0  0  0  0  0  0  0
   36.3300   23.8770   39.9760 C   0  0  0  0  0  0  0  0  0  0  0  0
   36.0150   22.7210   39.3390 N   0  0  0  0  0  0  0  0  0  0  0  0
   35.6670   22.7020   38.0420 C   0  0  0  0  0  0  0  0  0  0  0  0
   35.6040   23.8630   37.2550 C   0  0  0  0  0  0  0  0  0  0  0  0
   35.9200   25.0660   37.8730 C   0  0  0  0  0  0  0  0  0  0  0  0
   36.2770   25.0500   39.2180 C   0  0  0  0  0  0  0  0  0  0  0  0
   36.6060   26.2220   39.8760 C   0  0  0  0  0  0  0  0  0  0  0  0
   37.2890   25.1480   42.9410 H   0  0  0  0  0  0  0  0  0  0  0  0
   36.7210   22.9660   41.8710 H   0  0  0  0  0  0  0  0  0  0  0  0
   35.4110   21.7960   37.5070 H   0  0  0  0  0  0  0  0  0  0  0  0
   35.3210   23.8290   36.2110 H   0  0  0  0  0  0  0  0  0  0  0  0
   35.8830   25.9800   37.3030 H   0  0  0  0  0  0  0  0  0  0  0  0
   36.5570   27.0810   39.2070 H   0  0  0  0  0  0  0  0  0  0  0  0
   39.0110   29.9130   40.1280 C   0  0  0  0  0  0  0  0  0  0  0  0
   39.0800   29.4400   41.4650 C   0  0  0  0  0  0  0  0  0  0  0  0
   39.4440   30.3370   42.4490 C   0  0  0  0  0  0  0  0  0  0  0  0
   39.7130   31.6200   42.0740 N   0  0  0  0  0  0  0  0  0  0  0  0
   39.6420   32.0460   40.8040 C   0  0  0  0  0  0  0  0  0  0  0  0
   39.2880   31.1870   39.8220 N   0  0  0  0  0  0  0  0  0  0  0  0
   38.7270   29.2370   39.3150 H   0  0  0  0  0  0  0  0  0  0  0  0
   39.5030   30.0090   43.4580 H   0  0  0  0  0  0  0  0  0  0  0  0
   39.9390   33.4320   40.4440 C   0  0  0  0  0  0  0  0  0  0  0  0
   38.9510   34.3920   40.5270 C   0  0  0  0  0  0  0  0  0  0  0  0
   37.9410   34.1710   40.8540 H   0  0  0  0  0  0  0  0  0  0  0  0
   39.1700   35.7290   40.1980 C   0  0  0  0  0  0  0  0  0  0  0  0
   38.4390   36.5100   40.2460 H   0  0  0  0  0  0  0  0  0  0  0  0
   40.4570   36.0360   39.7770 C   0  0  0  0  0  3  0  0  0  0  0  0
   41.4490   35.0850   39.6910 C   0  0  0  0  0  3  0  0  0  0  0  0
   41.1820   33.7930   40.0250 N   0  0  0  0  0  0  0  0  0  0  0  0
  1  4  1  6  0  0  0
  1  3  1  0  0  0  0
  1  2  1  0  0  0  0
  2  6  1  0  0  0  0
  2  5  1  0  0  0  0
  3  7  1  6  0  0  0
  3  2  1  0  0  0  0
  8  3  1  0  0  0  0
  8  9  1  0  0  0  0
  9 18  1  0  0  0  0
 10 19  1  0  0  0  0
 10  9  2  0  0  0  0
 11 10  1  0  0  0  0
 12 11  1  0  0  0  0
 13 12  2  0  0  0  0
 14 15  2  0  0  0  0
 14 13  1  0  0  0  0
 15 16  1  0  0  0  0
 16 17  1  0  0  0  0
 16 11  2  0  0  0  0
 17  8  2  0  0  0  0
 20 13  1  0  0  0  0
 21 14  1  0  0  0  0
 22 15  1  0  0  0  0
 23 17  1  0  0  0  0
 24 25  1  0  0  0  0
 25  1  1  0  0  0  0
 25 26  2  0  0  0  0
 26 31  1  0  0  0  0
 27 26  1  0  0  0  0
 28 27  2  0  0  0  0
 29 24  2  0  0  0  0
 29 28  1  0  0  0  0
 30 24  1  0  0  0  0
 32 33  1  0  0  0  0
 32 28  1  0  0  0  0
 33 34  1  0  0  0  0
 35 36  1  0  0  0  0
 35 33  2  0  0  0  0
 37 35  1  0  0  0  0
 38 37  2  0  0  0  0
 38 39  1  0  0  0  0
 39 32  2  0  0  0  0
M  END
>  <minimizedAffinity>
-6.24350548

$$$$

 OpenBabel03252503223D

 39 43  0  0  1  0  0  0  0  0999 V2000
   37.7760   28.1160   40.9520 C   0  0  1  0  0  0  0  0  0  0  0  0
   36.6250   27.7680   41.7590 C   0  0  0  0  0  0  0  0  0  0  0  0
   36.4850   27.7010   40.2590 C   0  0  2  0  0  0  0  0  0  0  0  0
   38.6410   27.4370   40.7790 H   0  0  0  0  0  0  0  0  0  0  0  0
   36.0390   28.5430   42.2790 H   0  0  0  0  0  0  0  0  0  0  0  0
   36.5950   26.7950   42.3210 H   0  0  0  0  0  0  0  0  0  0  0  0
   35.8220   28.4480   39.8070 H   0  0  0  0  0  0  0  0  0  0  0  0
   36.5000   26.3370   39.6590 C   0  0  0  0  0  0  0  0  0  0  0  0
   35.9790   26.0190   38.4230 C   0  0  0  0  0  0  0  0  0  0  0  0
   36.0290   24.7420   37.9140 C   0  0  0  0  0  0  0  0  0  0  0  0
   36.6210   23.7340   38.6600 C   0  0  0  0  0  0  0  0  0  0  0  0
   36.6950   22.4560   38.2090 N   0  0  0  0  0  0  0  0  0  0  0  0
   37.2660   21.4820   38.9360 C   0  0  0  0  0  0  0  0  0  0  0  0
   37.8260   21.7100   40.2040 C   0  0  0  0  0  0  0  0  0  0  0  0
   37.7690   23.0070   40.6990 C   0  0  0  0  0  0  0  0  0  0  0  0
   37.1690   23.9910   39.9200 C   0  0  0  0  0  0  0  0  0  0  0  0
   37.0830   25.2960   40.3720 C   0  0  0  0  0  0  0  0  0  0  0  0
   35.5270   26.8160   37.8650 H   0  0  0  0  0  0  0  0  0  0  0  0
   35.6140   24.5010   36.9360 H   0  0  0  0  0  0  0  0  0  0  0  0
   37.3390   20.4540   38.6030 H   0  0  0  0  0  0  0  0  0  0  0  0
   38.2840   20.9130   40.7760 H   0  0  0  0  0  0  0  0  0  0  0  0
   38.1880   23.2220   41.6690 H   0  0  0  0  0  0  0  0  0  0  0  0
   37.5160   25.4010   41.3660 H   0  0  0  0  0  0  0  0  0  0  0  0
   39.5020   29.8140   40.2700 C   0  0  0  0  0  0  0  0  0  0  0  0
   38.2100   29.5310   40.7860 C   0  0  0  0  0  0  0  0  0  0  0  0
   37.3990   30.5980   41.1170 C   0  0  0  0  0  0  0  0  0  0  0  0
   37.8900   31.8550   40.9260 N   0  0  0  0  0  0  0  0  0  0  0  0
   39.1150   32.1010   40.4370 C   0  0  0  0  0  0  0  0  0  0  0  0
   39.9290   31.0740   40.1060 N   0  0  0  0  0  0  0  0  0  0  0  0
   40.1790   29.0000   39.9940 H   0  0  0  0  0  0  0  0  0  0  0  0
   36.4270   30.4140   41.5050 H   0  0  0  0  0  0  0  0  0  0  0  0
   39.6050   33.4660   40.2480 C   0  0  0  0  0  0  0  0  0  0  0  0
   38.7150   34.5200   40.2280 C   0  0  0  0  0  0  0  0  0  0  0  0
   37.6450   34.3900   40.3470 H   0  0  0  0  0  0  0  0  0  0  0  0
   39.1170   35.8440   40.0510 C   0  0  0  0  0  0  0  0  0  0  0  0
   38.4680   36.6950   40.0280 H   0  0  0  0  0  0  0  0  0  0  0  0
   40.4830   36.0340   39.8960 C   0  0  0  0  0  3  0  0  0  0  0  0
   41.3800   34.9890   39.9150 C   0  0  0  0  0  3  0  0  0  0  0  0
   40.9330   33.7150   40.0920 N   0  0  0  0  0  0  0  0  0  0  0  0
  1  4  1  6  0  0  0
  1  2  1  0  0  0  0
  2  5  1  0  0  0  0
  2  6  1  0  0  0  0
  3  7  1  6  0  0  0
  3  1  1  0  0  0  0
  3  2  1  0  0  0  0
  8  3  1  0  0  0  0
  8 17  1  0  0  0  0
  9  8  2  0  0  0  0
 10  9  1  0  0  0  0
 10 11  2  0  0  0  0
 11 16  1  0  0  0  0
 12 11  1  0  0  0  0
 12 13  2  0  0  0  0
 13 14  1  0  0  0  0
 14 15  2  0  0  0  0
 14 21  1  0  0  0  0
 15 22  1  0  0  0  0
 16 17  2  0  0  0  0
 16 15  1  0  0  0  0
 17 23  1  0  0  0  0
 18  9  1  0  0  0  0
 19 10  1  0  0  0  0
 20 13  1  0  0  0  0
 24 25  1  0  0  0  0
 25  1  1  0  0  0  0
 25 26  2  0  0  0  0
 26 31  1  0  0  0  0
 27 26  1  0  0  0  0
 28 27  2  0  0  0  0
 29 24  2  0  0  0  0
 29 28  1  0  0  0  0
 30 24  1  0  0  0  0
 32 28  1  0  0  0  0
 33 32  1  0  0  0  0
 33 34  1  0  0  0  0
 35 33  2  0  0  0  0
 36 35  1  0  0  0  0
 37 38  2  0  0  0  0
 37 35  1  0  0  0  0
 38 39  1  0  0  0  0
 39 32  2  0  0  0  0
M  END
>  <minimizedAffinity>
-6.05592108

$$$$

 OpenBabel03252503223D

 39 43  0  0  1  0  0  0  0  0999 V2000
   37.2550   28.5540   41.8200 C   0  0  1  0  0  0  0  0  0  0  0  0
   38.0380   28.9410   42.9750 C   0  0  0  0  0  0  0  0  0  0  0  0
   38.5950   29.2450   41.6060 C   0  0  2  0  0  0  0  0  0  0  0  0
   36.3700   29.1220   41.4520 H   0  0  0  0  0  0  0  0  0  0  0  0
   38.5760   28.1900   43.5750 H   0  0  0  0  0  0  0  0  0  0  0  0
   37.7280   29.8170   43.6080 H   0  0  0  0  0  0  0  0  0  0  0  0
   39.4830   28.6730   41.3140 H   0  0  0  0  0  0  0  0  0  0  0  0
   38.5110   30.6640   41.1640 C   0  0  0  0  0  0  0  0  0  0  0  0
   37.3520   31.2930   40.7620 C   0  0  0  0  0  0  0  0  0  0  0  0
   37.3320   32.6120   40.3720 C   0  0  0  0  0  0  0  0  0  0  0  0
   38.5100   33.3430   40.3790 C   0  0  0  0  0  0  0  0  0  0  0  0
   38.5490   34.6460   40.0000 N   0  0  0  0  0  0  0  0  0  0  0  0
   39.6940   35.3490   40.0070 C   0  0  0  0  0  0  0  0  0  0  0  0
   40.9230   34.7960   40.4010 C   0  0  0  0  0  0  0  0  0  0  0  0
   40.9210   33.4640   40.7960 C   0  0  0  0  0  0  0  0  0  0  0  0
   39.7190   32.7640   40.7770 C   0  0  0  0  0  0  0  0  0  0  0  0
   39.6680   31.4340   41.1550 C   0  0  0  0  0  0  0  0  0  0  0  0
   36.4530   30.7070   40.7650 H   0  0  0  0  0  0  0  0  0  0  0  0
   36.4100   33.1000   40.0550 H   0  0  0  0  0  0  0  0  0  0  0  0
   39.7560   36.3880   39.7090 H   0  0  0  0  0  0  0  0  0  0  0  0
   41.8350   35.3780   40.4010 H   0  0  0  0  0  0  0  0  0  0  0  0
   41.8450   33.0030   41.1060 H   0  0  0  0  0  0  0  0  0  0  0  0
   40.6540   31.0620   41.4300 H   0  0  0  0  0  0  0  0  0  0  0  0
   36.8480   26.8220   40.0410 C   0  0  0  0  0  0  0  0  0  0  0  0
   37.1490   27.1310   41.3940 C   0  0  0  0  0  0  0  0  0  0  0  0
   37.3340   26.0800   42.2690 C   0  0  0  0  0  0  0  0  0  0  0  0
   37.2160   24.8130   41.7790 N   0  0  0  0  0  0  0  0  0  0  0  0
   36.9310   24.5440   40.4970 C   0  0  0  0  0  0  0  0  0  0  0  0
   36.7440   25.5550   39.6190 N   0  0  0  0  0  0  0  0  0  0  0  0
   36.6930   27.6230   39.3110 H   0  0  0  0  0  0  0  0  0  0  0  0
   37.5610   26.2840   43.2880 H   0  0  0  0  0  0  0  0  0  0  0  0
   36.8130   23.1690   40.0110 C   0  0  0  0  0  0  0  0  0  0  0  0
   35.7030   22.7890   39.2860 C   0  0  0  0  0  0  0  0  0  0  0  0
   34.8920   23.4680   39.0490 H   0  0  0  0  0  0  0  0  0  0  0  0
   35.5300   21.4950   38.7950 C   0  0  0  0  0  0  0  0  0  0  0  0
   34.6900   21.1500   38.2280 H   0  0  0  0  0  0  0  0  0  0  0  0
   36.5570   20.6060   39.0860 C   0  0  0  0  0  3  0  0  0  0  0  0
   37.6680   20.9770   39.8100 C   0  0  0  0  0  3  0  0  0  0  0  0
   37.7870   22.2540   40.2650 N   0  0  0  0  0  0  0  0  0  0  0  0
  1  4  1  6  0  0  0
  1  2  1  0  0  0  0
  2  5  1  0  0  0  0
  2  6  1  0  0  0  0
  3  7  1  6  0  0  0
  3  1  1  0  0  0  0
  3  2  1  0  0  0  0
  8  3  1  0  0  0  0
  9 18  1  0  0  0  0
  9  8  2  0  0  0  0
 10 11  2  0  0  0  0
 10  9  1  0  0  0  0
 11 16  1  0  0  0  0
 12 13  2  0  0  0  0
 12 11  1  0  0  0  0
 13 14  1  0  0  0  0
 14 21  1  0  0  0  0
 14 15  2  0  0  0  0
 15 22  1  0  0  0  0
 16 15  1  0  0  0  0
 16 17  2  0  0  0  0
 17  8  1  0  0  0  0
 17 23  1  0  0  0  0
 19 10  1  0  0  0  0
 20 13  1  0  0  0  0
 24 25  1  0  0  0  0
 25  1  1  0  0  0  0
 25 26  2  0  0  0  0
 26 31  1  0  0  0  0
 27 26  1  0  0  0  0
 28 27  2  0  0  0  0
 29 24  2  0  0  0  0
 29 28  1  0  0  0  0
 30 24  1  0  0  0  0
 32 39  1  0  0  0  0
 32 28  1  0  0  0  0
 33 32  2  0  0  0  0
 34 33  1  0  0  0  0
 35 37  2  0  0  0  0
 35 33  1  0  0  0  0
 36 35  1  0  0  0  0
 37 38  1  0  0  0  0
 38 39  2  0  0  0  0
M  END
>  <minimizedAffinity>
-5.95158148

$$$$

 OpenBabel03252503223D

 39 43  0  0  1  0  0  0  0  0999 V2000
   37.1300   28.1510   42.1050 C   0  0  1  0  0  0  0  0  0  0  0  0
   36.7700   27.1790   43.1170 C   0  0  0  0  0  0  0  0  0  0  0  0
   37.9640   26.8850   42.2450 C   0  0  2  0  0  0  0  0  0  0  0  0
   37.6730   29.0980   42.3210 H   0  0  0  0  0  0  0  0  0  0  0  0
   35.8910   26.5270   42.9920 H   0  0  0  0  0  0  0  0  0  0  0  0
   36.9670   27.3860   44.2040 H   0  0  0  0  0  0  0  0  0  0  0  0
   37.8490   26.0530   41.5400 H   0  0  0  0  0  0  0  0  0  0  0  0
   39.3000   27.0760   42.8760 C   0  0  0  0  0  0  0  0  0  0  0  0
   39.8870   26.1880   43.7530 C   0  0  0  0  0  0  0  0  0  0  0  0
   41.1290   26.4110   44.2980 C   0  0  0  0  0  0  0  0  0  0  0  0
   41.8240   27.5630   43.9640 C   0  0  0  0  0  0  0  0  0  0  0  0
   43.0510   27.8360   44.4750 N   0  0  0  0  0  0  0  0  0  0  0  0
   43.7190   28.9550   44.1500 C   0  0  0  0  0  0  0  0  0  0  0  0
   43.2050   29.9160   43.2650 C   0  0  0  0  0  0  0  0  0  0  0  0
   41.9500   29.6710   42.7210 C   0  0  0  0  0  0  0  0  0  0  0  0
   41.2850   28.5020   43.0800 C   0  0  0  0  0  0  0  0  0  0  0  0
   40.0320   28.2170   42.5690 C   0  0  0  0  0  0  0  0  0  0  0  0
   39.3300   25.3040   43.9960 H   0  0  0  0  0  0  0  0  0  0  0  0
   41.5840   25.7020   44.9910 H   0  0  0  0  0  0  0  0  0  0  0  0
   44.6980   29.2000   44.5420 H   0  0  0  0  0  0  0  0  0  0  0  0
   43.7570   30.8120   43.0130 H   0  0  0  0  0  0  0  0  0  0  0  0
   41.5210   30.3850   42.0370 H   0  0  0  0  0  0  0  0  0  0  0  0
   39.6830   29.0090   41.9070 H   0  0  0  0  0  0  0  0  0  0  0  0
   36.7220   27.6040   39.6830 C   0  0  0  0  0  0  0  0  0  0  0  0
   36.3330   28.3040   40.8560 C   0  0  0  0  0  0  0  0  0  0  0  0
   35.2140   29.1090   40.7860 C   0  0  0  0  0  0  0  0  0  0  0  0
   34.5540   29.1810   39.5950 N   0  0  0  0  0  0  0  0  0  0  0  0
   34.9380   28.5110   38.4980 C   0  0  0  0  0  0  0  0  0  0  0  0
   36.0310   27.7160   38.5410 N   0  0  0  0  0  0  0  0  0  0  0  0
   37.6020   26.9540   39.6920 H   0  0  0  0  0  0  0  0  0  0  0  0
   34.9010   29.6440   41.6490 H   0  0  0  0  0  0  0  0  0  0  0  0
   34.2010   28.6160   37.2390 C   0  0  0  0  0  0  0  0  0  0  0  0
   32.9070   29.0920   37.2370 C   0  0  0  0  0  0  0  0  0  0  0  0
   32.3920   29.4030   38.1390 H   0  0  0  0  0  0  0  0  0  0  0  0
   32.1510   29.2160   36.0710 C   0  0  0  0  0  0  0  0  0  0  0  0
   31.1460   29.5800   36.0160 H   0  0  0  0  0  0  0  0  0  0  0  0
   32.7910   28.8250   34.9030 C   0  0  0  0  0  3  0  0  0  0  0  0
   34.0830   28.3470   34.8960 C   0  0  0  0  0  3  0  0  0  0  0  0
   34.7760   28.2470   36.0630 N   0  0  0  0  0  0  0  0  0  0  0  0
  1  3  1  0  0  0  0
  1  4  1  1  0  0  0
  1  2  1  0  0  0  0
  2  6  1  0  0  0  0
  3  7  1  6  0  0  0
  3  8  1  0  0  0  0
  3  2  1  0  0  0  0
  5  2  1  0  0  0  0
  8  9  1  0  0  0  0
  9 18  1  0  0  0  0
  9 10  2  0  0  0  0
 10 19  1  0  0  0  0
 11 10  1  0  0  0  0
 11 12  1  0  0  0  0
 13 12  2  0  0  0  0
 13 20  1  0  0  0  0
 14 13  1  0  0  0  0
 15 16  1  0  0  0  0
 15 14  2  0  0  0  0
 16 11  2  0  0  0  0
 17  8  2  0  0  0  0
 17 16  1  0  0  0  0
 21 14  1  0  0  0  0
 22 15  1  0  0  0  0
 23 17  1  0  0  0  0
 24 30  1  0  0  0  0
 24 25  1  0  0  0  0
 25  1  1  0  0  0  0
 26 25  2  0  0  0  0
 26 31  1  0  0  0  0
 27 26  1  0  0  0  0
 28 29  1  0  0  0  0
 28 27  2  0  0  0  0
 29 24  2  0  0  0  0
 32 28  1  0  0  0  0
 33 32  1  0  0  0  0
 33 34  1  0  0  0  0
 35 33  2  0  0  0  0
 36 35  1  0  0  0  0
 37 35  1  0  0  0  0
 38 37  2  0  0  0  0
 38 39  1  0  0  0  0
 39 32  2  0  0  0  0
M  END
>  <minimizedAffinity>
-5.84596729

$$$$

 OpenBabel03252503223D

 39 43  0  0  1  0  0  0  0  0999 V2000
   38.4600   31.8610   39.6770 C   0  0  1  0  0  0  0  0  0  0  0  0
   37.3650   32.5430   39.0190 C   0  0  0  0  0  0  0  0  0  0  0  0
   38.2470   31.6480   38.1850 C   0  0  2  0  0  0  0  0  0  0  0  0
   38.3350   30.9490   40.3030 H   0  0  0  0  0  0  0  0  0  0  0  0
   37.4110   33.6240   38.8090 H   0  0  0  0  0  0  0  0  0  0  0  0
   36.3040   32.2090   39.1820 H   0  0  0  0  0  0  0  0  0  0  0  0
   38.8800   32.1550   37.4470 H   0  0  0  0  0  0  0  0  0  0  0  0
   37.6730   30.3260   37.8100 C   0  0  0  0  0  0  0  0  0  0  0  0
   38.4170   29.2100   37.4910 C   0  0  0  0  0  0  0  0  0  0  0  0
   37.8320   28.0090   37.1620 C   0  0  0  0  0  0  0  0  0  0  0  0
   36.4490   27.9060   37.1450 C   0  0  0  0  0  0  0  0  0  0  0  0
   35.8190   26.7480   36.8230 N   0  0  0  0  0  0  0  0  0  0  0  0
   34.4790   26.6540   36.8060 C   0  0  0  0  0  0  0  0  0  0  0  0
   33.6380   27.7350   37.1170 C   0  0  0  0  0  0  0  0  0  0  0  0
   34.2480   28.9380   37.4520 C   0  0  0  0  0  0  0  0  0  0  0  0
   35.6380   29.0010   37.4590 C   0  0  0  0  0  0  0  0  0  0  0  0
   36.2910   30.1780   37.7800 C   0  0  0  0  0  0  0  0  0  0  0  0
   39.4840   29.3140   37.5110 H   0  0  0  0  0  0  0  0  0  0  0  0
   38.4300   27.1330   36.9110 H   0  0  0  0  0  0  0  0  0  0  0  0
   33.9490   25.7450   36.5530 H   0  0  0  0  0  0  0  0  0  0  0  0
   32.5600   27.6410   37.1000 H   0  0  0  0  0  0  0  0  0  0  0  0
   33.6370   29.7910   37.6980 H   0  0  0  0  0  0  0  0  0  0  0  0
   35.5840   30.9790   37.9910 H   0  0  0  0  0  0  0  0  0  0  0  0
   40.7340   31.8860   40.7520 C   0  0  0  0  0  0  0  0  0  0  0  0
   39.6930   32.5870   40.0900 C   0  0  0  0  0  0  0  0  0  0  0  0
   39.8720   33.9350   39.8530 C   0  0  0  0  0  0  0  0  0  0  0  0
   41.0380   34.5060   40.2700 N   0  0  0  0  0  0  0  0  0  0  0  0
   42.0090   33.8250   40.8950 C   0  0  0  0  0  0  0  0  0  0  0  0
   41.8580   32.5040   41.1390 N   0  0  0  0  0  0  0  0  0  0  0  0
   40.6360   30.8150   40.9610 H   0  0  0  0  0  0  0  0  0  0  0  0
   39.1080   34.4840   39.3580 H   0  0  0  0  0  0  0  0  0  0  0  0
   43.2460   34.4760   41.3270 C   0  0  0  0  0  0  0  0  0  0  0  0
   43.2200   35.3810   42.3660 C   0  0  0  0  0  0  0  0  0  0  0  0
   42.3110   35.6440   42.8960 H   0  0  0  0  0  0  0  0  0  0  0  0
   44.3630   36.0360   42.8260 C   0  0  0  0  0  0  0  0  0  0  0  0
   44.3960   36.7450   43.6270 H   0  0  0  0  0  0  0  0  0  0  0  0
   45.5390   35.7140   42.1620 C   0  0  0  0  0  3  0  0  0  0  0  0
   45.5750   34.8120   41.1220 C   0  0  0  0  0  3  0  0  0  0  0  0
   44.4290   34.2010   40.7140 N   0  0  0  0  0  0  0  0  0  0  0  0
  1 25  1  0  0  0  0
  1  4  1  1  0  0  0
  2  6  1  0  0  0  0
  2  1  1  0  0  0  0
  3  7  1  6  0  0  0
  3  2  1  0  0  0  0
  3  1  1  0  0  0  0
  5  2  1  0  0  0  0
  8  3  1  0  0  0  0
  9 18  1  0  0  0  0
  9  8  2  0  0  0  0
 10  9  1  0  0  0  0
 11 10  2  0  0  0  0
 11 16  1  0  0  0  0
 12 11  1  0  0  0  0
 13 12  2  0  0  0  0
 13 14  1  0  0  0  0
 14 15  2  0  0  0  0
 15 16  1  0  0  0  0
 15 22  1  0  0  0  0
 16 17  2  0  0  0  0
 17  8  1  0  0  0  0
 17 23  1  0  0  0  0
 19 10  1  0  0  0  0
 20 13  1  0  0  0  0
 21 14  1  0  0  0  0
 24 30  1  0  0  0  0
 24 29  1  0  0  0  0
 25 24  2  0  0  0  0
 26 25  1  0  0  0  0
 26 27  2  0  0  0  0
 27 28  1  0  0  0  0
 28 29  2  0  0  0  0
 28 32  1  0  0  0  0
 31 26  1  0  0  0  0
 32 33  1  0  0  0  0
 33 35  2  0  0  0  0
 33 34  1  0  0  0  0
 35 36  1  0  0  0  0
 37 35  1  0  0  0  0
 38 37  2  0  0  0  0
 39 38  1  0  0  0  0
 39 32  2  0  0  0  0
M  END
>  <minimizedAffinity>
-5.80914688

$$$$

 OpenBabel03252503223D

 39 43  0  0  1  0  0  0  0  0999 V2000
   38.5680   26.3610   41.1530 C   0  0  1  0  0  0  0  0  0  0  0  0
   38.2640   25.8020   42.4540 C   0  0  0  0  0  0  0  0  0  0  0  0
   37.2380   25.6490   41.3590 C   0  0  2  0  0  0  0  0  0  0  0  0
   39.2490   25.8790   40.4160 H   0  0  0  0  0  0  0  0  0  0  0  0
   37.9920   26.4510   43.3030 H   0  0  0  0  0  0  0  0  0  0  0  0
   38.7770   24.8680   42.8100 H   0  0  0  0  0  0  0  0  0  0  0  0
   36.3090   26.2170   41.4910 H   0  0  0  0  0  0  0  0  0  0  0  0
   37.1400   24.2990   40.7370 C   0  0  0  0  0  0  0  0  0  0  0  0
   38.0980   23.3140   40.8460 C   0  0  0  0  0  0  0  0  0  0  0  0
   37.9500   22.0800   40.2570 C   0  0  0  0  0  0  0  0  0  0  0  0
   36.8040   21.8070   39.5260 C   0  0  0  0  0  0  0  0  0  0  0  0
   36.6070   20.6090   38.9200 N   0  0  0  0  0  0  0  0  0  0  0  0
   35.4960   20.3500   38.2110 C   0  0  0  0  0  0  0  0  0  0  0  0
   34.4650   21.2890   38.0450 C   0  0  0  0  0  0  0  0  0  0  0  0
   34.6310   22.5280   38.6510 C   0  0  0  0  0  0  0  0  0  0  0  0
   35.7940   22.7630   39.3780 C   0  0  0  0  0  0  0  0  0  0  0  0
   36.0080   23.9830   39.9950 C   0  0  0  0  0  0  0  0  0  0  0  0
   38.9760   23.5490   41.4170 H   0  0  0  0  0  0  0  0  0  0  0  0
   38.7130   21.3080   40.3490 H   0  0  0  0  0  0  0  0  0  0  0  0
   35.3110   19.4050   37.7160 H   0  0  0  0  0  0  0  0  0  0  0  0
   33.5750   21.0630   37.4710 H   0  0  0  0  0  0  0  0  0  0  0  0
   33.8620   23.2760   38.5470 H   0  0  0  0  0  0  0  0  0  0  0  0
   35.1830   24.6700   39.8120 H   0  0  0  0  0  0  0  0  0  0  0  0
   38.5350   28.7270   42.0060 C   0  0  0  0  0  0  0  0  0  0  0  0
   38.5220   27.8290   40.9070 C   0  0  0  0  0  0  0  0  0  0  0  0
   38.4670   28.3640   39.6360 C   0  0  0  0  0  0  0  0  0  0  0  0
   38.4280   29.7220   39.5170 N   0  0  0  0  0  0  0  0  0  0  0  0
   38.4410   30.5540   40.5700 C   0  0  0  0  0  0  0  0  0  0  0  0
   38.4940   30.0540   41.8250 N   0  0  0  0  0  0  0  0  0  0  0  0
   38.5780   28.3480   43.0320 H   0  0  0  0  0  0  0  0  0  0  0  0
   38.4560   27.7140   38.7960 H   0  0  0  0  0  0  0  0  0  0  0  0
   38.3980   32.0060   40.3990 C   0  0  0  0  0  0  0  0  0  0  0  0
   37.3810   32.5830   39.6690 C   0  0  0  0  0  0  0  0  0  0  0  0
   36.5900   32.0070   39.2030 H   0  0  0  0  0  0  0  0  0  0  0  0
   37.2830   33.9600   39.4700 C   0  0  0  0  0  0  0  0  0  0  0  0
   36.5150   34.4560   38.9130 H   0  0  0  0  0  0  0  0  0  0  0  0
   38.2860   34.7190   40.0580 C   0  0  0  0  0  3  0  0  0  0  0  0
   39.3060   34.1510   40.7880 C   0  0  0  0  0  3  0  0  0  0  0  0
   39.3530   32.8010   40.9530 N   0  0  0  0  0  0  0  0  0  0  0  0
  1  4  1  6  0  0  0
  1  3  1  0  0  0  0
  1  2  1  0  0  0  0
  2  6  1  0  0  0  0
  2  5  1  0  0  0  0
  3  7  1  1  0  0  0
  3  2  1  0  0  0  0
  8  9  1  0  0  0  0
  8  3  1  0  0  0  0
  9 18  1  0  0  0  0
 10 19  1  0  0  0  0
 10  9  2  0  0  0  0
 11 10  1  0  0  0  0
 12 11  2  0  0  0  0
 13 12  1  0  0  0  0
 14 13  2  0  0  0  0
 14 15  1  0  0  0  0
 15 16  2  0  0  0  0
 16 11  1  0  0  0  0
 16 17  1  0  0  0  0
 17  8  2  0  0  0  0
 20 13  1  0  0  0  0
 21 14  1  0  0  0  0
 22 15  1  0  0  0  0
 23 17  1  0  0  0  0
 24 30  1  0  0  0  0
 25  1  1  0  0  0  0
 25 24  2  0  0  0  0
 26 25  1  0  0  0  0
 27 26  2  0  0  0  0
 27 28  1  0  0  0  0
 28 29  2  0  0  0  0
 29 24  1  0  0  0  0
 31 26  1  0  0  0  0
 32 28  1  0  0  0  0
 32 39  1  0  0  0  0
 33 32  2  0  0  0  0
 34 33  1  0  0  0  0
 35 33  1  0  0  0  0
 35 37  2  0  0  0  0
 36 35  1  0  0  0  0
 37 38  1  0  0  0  0
 38 39  2  0  0  0  0
M  END
>  <minimizedAffinity>
-5.6502943

$$$$

 OpenBabel03252503223D

 39 43  0  0  1  0  0  0  0  0999 V2000
   36.9940   28.4050   40.3820 C   0  0  1  0  0  0  0  0  0  0  0  0
   35.8470   28.1250   39.5430 C   0  0  0  0  0  0  0  0  0  0  0  0
   37.1660   27.4930   39.1750 C   0  0  2  0  0  0  0  0  0  0  0  0
   37.1740   27.9180   41.3670 H   0  0  0  0  0  0  0  0  0  0  0  0
   35.4490   28.8850   38.8510 H   0  0  0  0  0  0  0  0  0  0  0  0
   35.0320   27.4390   39.9000 H   0  0  0  0  0  0  0  0  0  0  0  0
   37.6320   27.8610   38.2530 H   0  0  0  0  0  0  0  0  0  0  0  0
   37.3100   26.0450   39.4920 C   0  0  0  0  0  0  0  0  0  0  0  0
   36.6010   25.3820   40.4710 C   0  0  0  0  0  0  0  0  0  0  0  0
   36.7690   24.0380   40.7140 C   0  0  0  0  0  0  0  0  0  0  0  0
   37.6780   23.3170   39.9550 C   0  0  0  0  0  0  0  0  0  0  0  0
   37.8870   21.9910   40.1540 N   0  0  0  0  0  0  0  0  0  0  0  0
   38.7710   21.2970   39.4180 C   0  0  0  0  0  0  0  0  0  0  0  0
   39.5370   21.8840   38.3980 C   0  0  0  0  0  0  0  0  0  0  0  0
   39.3500   23.2410   38.1650 C   0  0  0  0  0  0  0  0  0  0  0  0
   38.4270   23.9300   38.9470 C   0  0  0  0  0  0  0  0  0  0  0  0
   38.2110   25.2840   38.7560 C   0  0  0  0  0  0  0  0  0  0  0  0
   35.9040   25.9610   41.0440 H   0  0  0  0  0  0  0  0  0  0  0  0
   36.2040   23.5240   41.4900 H   0  0  0  0  0  0  0  0  0  0  0  0
   38.9600   20.2390   39.5540 H   0  0  0  0  0  0  0  0  0  0  0  0
   40.2440   21.3100   37.8140 H   0  0  0  0  0  0  0  0  0  0  0  0
   39.9200   23.7290   37.3910 H   0  0  0  0  0  0  0  0  0  0  0  0
   38.8480   25.6800   37.9670 H   0  0  0  0  0  0  0  0  0  0  0  0
   36.9210   30.9190   40.3920 C   0  0  0  0  0  0  0  0  0  0  0  0
   37.6850   29.7230   40.3420 C   0  0  0  0  0  0  0  0  0  0  0  0
   39.0580   29.8380   40.2570 C   0  0  0  0  0  0  0  0  0  0  0  0
   39.5920   31.0920   40.2260 N   0  0  0  0  0  0  0  0  0  0  0  0
   38.8520   32.2090   40.2750 C   0  0  0  0  0  0  0  0  0  0  0  0
   37.5050   32.1250   40.3580 N   0  0  0  0  0  0  0  0  0  0  0  0
   35.8290   30.8780   40.4600 H   0  0  0  0  0  0  0  0  0  0  0  0
   39.6530   28.9580   40.2180 H   0  0  0  0  0  0  0  0  0  0  0  0
   39.4660   33.5360   40.2400 C   0  0  0  0  0  0  0  0  0  0  0  0
   38.6700   34.6600   40.1690 C   0  0  0  0  0  0  0  0  0  0  0  0
   37.5870   34.6150   40.1370 H   0  0  0  0  0  0  0  0  0  0  0  0
   39.1930   35.9530   40.1320 C   0  0  0  0  0  0  0  0  0  0  0  0
   38.6200   36.8560   40.0770 H   0  0  0  0  0  0  0  0  0  0  0  0
   40.5780   36.0360   40.1710 C   0  0  0  0  0  3  0  0  0  0  0  0
   41.3810   34.9190   40.2420 C   0  0  0  0  0  3  0  0  0  0  0  0
   40.8180   33.6800   40.2760 N   0  0  0  0  0  0  0  0  0  0  0  0
  1  4  1  1  0  0  0
  2  6  1  0  0  0  0
  2  1  1  0  0  0  0
  3  7  1  6  0  0  0
  3  8  1  0  0  0  0
  3  2  1  0  0  0  0
  3  1  1  0  0  0  0
  5  2  1  0  0  0  0
  8  9  1  0  0  0  0
  9 10  2  0  0  0  0
  9 18  1  0  0  0  0
 10 19  1  0  0  0  0
 11 12  1  0  0  0  0
 11 10  1  0  0  0  0
 13 20  1  0  0  0  0
 13 12  2  0  0  0  0
 14 13  1  0  0  0  0
 15 14  2  0  0  0  0
 15 16  1  0  0  0  0
 16 11  2  0  0  0  0
 17 16  1  0  0  0  0
 17  8  2  0  0  0  0
 21 14  1  0  0  0  0
 22 15  1  0  0  0  0
 23 17  1  0  0  0  0
 24 30  1  0  0  0  0
 25  1  1  0  0  0  0
 25 24  2  0  0  0  0
 26 25  1  0  0  0  0
 27 26  2  0  0  0  0
 27 28  1  0  0  0  0
 28 29  2  0  0  0  0
 29 24  1  0  0  0  0
 31 26  1  0  0  0  0
 32 28  1  0  0  0  0
 32 39  1  0  0  0  0
 33 32  2  0  0  0  0
 34 33  1  0  0  0  0
 35 33  1  0  0  0  0
 35 37  2  0  0  0  0
 36 35  1  0  0  0  0
 37 38  1  0  0  0  0
 38 39  2  0  0  0  0
M  END
>  <minimizedAffinity>
-5.60657549

$$$$
