
 OpenBabel03252506593D

 23 24  0  0  0  0  0  0  0  0999 V2000
   46.5920   33.1480   45.9530 C   0  0  0  0  0  0  0  0  0  0  0  0
   46.6680   32.4140   45.1110 H   0  0  0  0  0  0  0  0  0  0  0  0
   47.4620   33.8110   45.9810 H   0  0  0  0  0  0  0  0  0  0  0  0
   46.4560   32.3530   47.1760 C   0  0  0  0  0  0  0  0  0  0  0  0
   45.2910   32.3530   47.9330 C   0  0  0  0  0  0  0  0  0  0  0  0
   45.2420   31.5510   49.0960 C   0  0  0  0  0  0  0  0  0  0  0  0
   46.3510   30.8210   49.4050 N   0  0  0  0  0  0  0  0  0  0  0  0
   47.4550   30.8530   48.6430 C   0  0  0  0  0  0  0  0  0  0  0  0
   47.5130   31.6030   47.5480 N   0  0  0  0  0  0  0  0  0  0  0  0
   44.4370   32.9550   47.6380 H   0  0  0  0  0  0  0  0  0  0  0  0
   44.3520   31.5270   49.7080 H   0  0  0  0  0  0  0  0  0  0  0  0
   48.3440   30.2640   48.8970 H   0  0  0  0  0  0  0  0  0  0  0  0
   45.3870   34.0330   45.8270 C   0  0  0  0  0  0  0  0  0  0  0  0
   45.5830   34.9690   46.3900 H   0  0  0  0  0  0  0  0  0  0  0  0
   44.4590   33.5840   46.2510 H   0  0  0  0  0  0  0  0  0  0  0  0
   45.0880   34.4460   44.4400 C   0  0  0  0  0  0  0  0  0  0  0  0
   44.9200   35.7670   44.0960 C   0  0  0  0  0  0  0  0  0  0  0  0
   45.0090   36.5300   44.8600 H   0  0  0  0  0  0  0  0  0  0  0  0
   44.6400   36.1190   42.7790 C   0  0  0  0  0  0  0  0  0  0  0  0
   44.5130   37.1570   42.5300 H   0  0  0  0  0  0  0  0  0  0  0  0
   44.5450   35.0680   41.8680 C   0  0  0  0  0  3  0  0  0  0  0  0
   44.7210   33.7520   42.2550 C   0  0  0  0  0  3  0  0  0  0  0  0
   44.9910   33.4410   43.5360 N   0  0  0  0  0  0  0  0  0  0  0  0
  1  3  1  0  0  0  0
  1  4  1  0  0  0  0
  2  1  1  0  0  0  0
  4  9  2  0  0  0  0
  4  5  1  0  0  0  0
  5  6  2  0  0  0  0
  6  7  1  0  0  0  0
  6 11  1  0  0  0  0
  8 12  1  0  0  0  0
  8  7  2  0  0  0  0
  9  8  1  0  0  0  0
 10  5  1  0  0  0  0
 13  1  1  0  0  0  0
 13 15  1  0  0  0  0
 13 14  1  0  0  0  0
 16 13  1  0  0  0  0
 17 16  1  0  0  0  0
 17 18  1  0  0  0  0
 19 17  2  0  0  0  0
 20 19  1  0  0  0  0
 21 22  2  0  0  0  0
 21 19  1  0  0  0  0
 22 23  1  0  0  0  0
 23 16  2  0  0  0  0
M  END
>  <minimizedAffinity>
-4.2898097

>  <minimizedRMSD>
6.4736371

$$$$
