
 OpenBabel03252502423D

 23 24  0  0  0  0  0  0  0  0999 V2000
   38.9770   29.0240   42.8690 C   0  0  0  0  0  0  0  0  0  0  0  0
   39.6640   29.5240   43.5470 H   0  0  0  0  0  0  0  0  0  0  0  0
   39.4980   28.3400   42.1430 H   0  0  0  0  0  0  0  0  0  0  0  0
   38.3680   32.0280   40.6940 C   0  0  0  0  0  0  0  0  0  0  0  0
   39.0200   31.0800   41.4950 C   0  0  0  0  0  0  0  0  0  0  0  0
   38.2680   30.0170   42.0230 C   0  0  0  0  0  0  0  0  0  0  0  0
   36.9500   29.9780   41.7210 N   0  0  0  0  0  0  0  0  0  0  0  0
   36.3590   30.9090   40.9460 C   0  0  0  0  0  0  0  0  0  0  0  0
   37.0490   31.9280   40.4320 N   0  0  0  0  0  0  0  0  0  0  0  0
   39.0420   32.8040   40.3400 H   0  0  0  0  0  0  0  0  0  0  0  0
   40.0790   31.1240   41.7300 H   0  0  0  0  0  0  0  0  0  0  0  0
   35.2940   30.8460   40.7240 H   0  0  0  0  0  0  0  0  0  0  0  0
   37.9510   28.1650   43.5630 C   0  0  0  0  0  0  0  0  0  0  0  0
   38.1690   28.1770   44.6390 H   0  0  0  0  0  0  0  0  0  0  0  0
   36.9440   28.5520   43.3140 H   0  0  0  0  0  0  0  0  0  0  0  0
   38.0940   26.7520   43.0680 C   0  0  0  0  0  0  0  0  0  0  0  0
   36.9780   26.2260   42.4480 C   0  0  0  0  0  0  0  0  0  0  0  0
   36.0770   26.7950   42.3350 H   0  0  0  0  0  0  0  0  0  0  0  0
   37.1280   24.9120   41.9940 C   0  0  0  0  0  0  0  0  0  0  0  0
   36.2930   24.4310   41.4990 H   0  0  0  0  0  0  0  0  0  0  0  0
   38.3440   24.2650   42.1950 C   0  0  0  0  0  3  0  0  0  0  0  0
   39.4140   24.8810   42.8310 C   0  0  0  0  0  3  0  0  0  0  0  0
   39.2790   26.1630   43.2790 N   0  0  0  0  0  0  0  0  0  0  0  0
  1  2  1  0  0  0  0
  1 13  1  0  0  0  0
  3  1  1  0  0  0  0
  4  5  1  0  0  0  0
  5 11  1  0  0  0  0
  5  6  2  0  0  0  0
  6  1  1  0  0  0  0
  7  6  1  0  0  0  0
  8  7  2  0  0  0  0
  9  4  2  0  0  0  0
  9  8  1  0  0  0  0
 10  4  1  0  0  0  0
 12  8  1  0  0  0  0
 13 14  1  0  0  0  0
 15 13  1  0  0  0  0
 16 23  1  0  0  0  0
 16 13  1  0  0  0  0
 17 16  2  0  0  0  0
 18 17  1  0  0  0  0
 19 21  2  0  0  0  0
 19 17  1  0  0  0  0
 20 19  1  0  0  0  0
 21 22  1  0  0  0  0
 22 23  2  0  0  0  0
M  END
>  <minimizedAffinity>
-4.41773748

$$$$

 OpenBabel03252502423D

 23 24  0  0  0  0  0  0  0  0999 V2000
   38.9280   29.1560   42.8900 C   0  0  0  0  0  0  0  0  0  0  0  0
   39.5410   29.6530   43.6380 H   0  0  0  0  0  0  0  0  0  0  0  0
   39.5240   28.4850   42.2110 H   0  0  0  0  0  0  0  0  0  0  0  0
   36.3280   30.9160   40.8230 C   0  0  0  0  0  0  0  0  0  0  0  0
   36.9400   29.9830   41.6720 C   0  0  0  0  0  0  0  0  0  0  0  0
   38.2980   30.1550   41.9890 C   0  0  0  0  0  0  0  0  0  0  0  0
   38.9330   31.2190   41.4470 N   0  0  0  0  0  0  0  0  0  0  0  0
   38.3100   32.0940   40.6330 C   0  0  0  0  0  0  0  0  0  0  0  0
   37.0210   31.9550   40.3170 N   0  0  0  0  0  0  0  0  0  0  0  0
   35.2800   30.6870   40.6450 H   0  0  0  0  0  0  0  0  0  0  0  0
   36.4180   29.1330   42.1000 H   0  0  0  0  0  0  0  0  0  0  0  0
   38.8530   32.9400   40.2150 H   0  0  0  0  0  0  0  0  0  0  0  0
   37.8460   28.2810   43.4700 C   0  0  0  0  0  0  0  0  0  0  0  0
   37.8940   28.3600   44.5640 H   0  0  0  0  0  0  0  0  0  0  0  0
   36.8730   28.6010   43.0480 H   0  0  0  0  0  0  0  0  0  0  0  0
   38.1260   26.8540   43.0870 C   0  0  0  0  0  0  0  0  0  0  0  0
   37.1090   26.2120   42.4100 C   0  0  0  0  0  0  0  0  0  0  0  0
   36.1860   26.7070   42.1790 H   0  0  0  0  0  0  0  0  0  0  0  0
   37.3860   24.8860   42.0610 C   0  0  0  0  0  0  0  0  0  0  0  0
   36.6340   24.3170   41.5290 H   0  0  0  0  0  0  0  0  0  0  0  0
   38.6180   24.3420   42.4110 C   0  0  0  0  0  3  0  0  0  0  0  0
   39.5820   25.0710   43.0950 C   0  0  0  0  0  3  0  0  0  0  0  0
   39.3230   26.3660   43.4400 N   0  0  0  0  0  0  0  0  0  0  0  0
  1 13  1  0  0  0  0
  1  2  1  0  0  0  0
  3  1  1  0  0  0  0
  4  5  1  0  0  0  0
  5  6  2  0  0  0  0
  5 11  1  0  0  0  0
  6  1  1  0  0  0  0
  7  6  1  0  0  0  0
  8  7  2  0  0  0  0
  9  8  1  0  0  0  0
  9  4  2  0  0  0  0
 10  4  1  0  0  0  0
 12  8  1  0  0  0  0
 13 14  1  0  0  0  0
 15 13  1  0  0  0  0
 16 23  1  0  0  0  0
 16 13  1  0  0  0  0
 17 16  2  0  0  0  0
 18 17  1  0  0  0  0
 19 17  1  0  0  0  0
 19 21  2  0  0  0  0
 20 19  1  0  0  0  0
 21 22  1  0  0  0  0
 22 23  2  0  0  0  0
M  END
>  <minimizedAffinity>
-4.38371658

$$$$

 OpenBabel03252502423D

 23 24  0  0  0  0  0  0  0  0999 V2000
   37.8120   28.9280   43.2960 C   0  0  0  0  0  0  0  0  0  0  0  0
   37.4620   29.3780   44.2220 H   0  0  0  0  0  0  0  0  0  0  0  0
   38.9040   28.6570   43.3270 H   0  0  0  0  0  0  0  0  0  0  0  0
   38.7400   31.4910   40.7090 C   0  0  0  0  0  0  0  0  0  0  0  0
   38.8400   30.5790   41.7690 C   0  0  0  0  0  0  0  0  0  0  0  0
   37.6850   29.8890   42.1720 C   0  0  0  0  0  0  0  0  0  0  0  0
   36.5380   30.1540   41.5040 N   0  0  0  0  0  0  0  0  0  0  0  0
   36.4820   31.0390   40.4890 C   0  0  0  0  0  0  0  0  0  0  0  0
   37.5640   31.7070   40.0860 N   0  0  0  0  0  0  0  0  0  0  0  0
   39.6910   31.9670   40.4810 H   0  0  0  0  0  0  0  0  0  0  0  0
   39.7670   30.3760   42.2960 H   0  0  0  0  0  0  0  0  0  0  0  0
   35.5410   31.2270   39.9740 H   0  0  0  0  0  0  0  0  0  0  0  0
   37.0940   27.6560   42.9250 C   0  0  0  0  0  0  0  0  0  0  0  0
   36.3290   27.4610   43.6890 H   0  0  0  0  0  0  0  0  0  0  0  0
   36.6760   27.7740   41.9060 H   0  0  0  0  0  0  0  0  0  0  0  0
   38.0820   26.5220   42.9460 C   0  0  0  0  0  0  0  0  0  0  0  0
   39.2330   26.7530   43.6710 C   0  0  0  0  0  0  0  0  0  0  0  0
   39.4010   27.6820   44.1800 H   0  0  0  0  0  0  0  0  0  0  0  0
   40.1400   25.6880   43.6800 C   0  0  0  0  0  0  0  0  0  0  0  0
   41.0690   25.7970   44.2270 H   0  0  0  0  0  0  0  0  0  0  0  0
   39.8200   24.5260   42.9840 C   0  0  0  0  0  3  0  0  0  0  0  0
   38.6310   24.3880   42.2810 C   0  0  0  0  0  3  0  0  0  0  0  0
   37.7380   25.4200   42.2660 N   0  0  0  0  0  0  0  0  0  0  0  0
  1  3  1  0  0  0  0
  1  2  1  0  0  0  0
  4  5  1  0  0  0  0
  5  6  2  0  0  0  0
  5 11  1  0  0  0  0
  6  1  1  0  0  0  0
  7  6  1  0  0  0  0
  8  7  2  0  0  0  0
  9  8  1  0  0  0  0
  9  4  2  0  0  0  0
 10  4  1  0  0  0  0
 12  8  1  0  0  0  0
 13 16  1  0  0  0  0
 13  1  1  0  0  0  0
 13 14  1  0  0  0  0
 15 13  1  0  0  0  0
 16 17  1  0  0  0  0
 17 19  2  0  0  0  0
 17 18  1  0  0  0  0
 19 20  1  0  0  0  0
 21 19  1  0  0  0  0
 22 21  2  0  0  0  0
 23 22  1  0  0  0  0
 23 16  2  0  0  0  0
M  END
>  <minimizedAffinity>
-4.34154224

$$$$

 OpenBabel03252502423D

 23 24  0  0  0  0  0  0  0  0999 V2000
   37.8100   28.3460   43.4090 C   0  0  0  0  0  0  0  0  0  0  0  0
   37.5560   28.4890   44.4560 H   0  0  0  0  0  0  0  0  0  0  0  0
   36.9210   28.4470   42.7250 H   0  0  0  0  0  0  0  0  0  0  0  0
   37.9970   24.8030   42.1680 C   0  0  0  0  0  0  0  0  0  0  0  0
   37.5350   26.1070   42.3930 C   0  0  0  0  0  0  0  0  0  0  0  0
   38.3160   26.9680   43.1820 C   0  0  0  0  0  0  0  0  0  0  0  0
   39.4750   26.4770   43.6800 N   0  0  0  0  0  0  0  0  0  0  0  0
   39.8850   25.2150   43.4400 C   0  0  0  0  0  0  0  0  0  0  0  0
   39.1630   24.3780   42.6950 N   0  0  0  0  0  0  0  0  0  0  0  0
   37.3170   24.2250   41.5470 H   0  0  0  0  0  0  0  0  0  0  0  0
   36.6040   26.4890   41.9890 H   0  0  0  0  0  0  0  0  0  0  0  0
   40.8240   24.8530   43.8570 H   0  0  0  0  0  0  0  0  0  0  0  0
   38.8300   29.3250   42.8880 C   0  0  0  0  0  0  0  0  0  0  0  0
   39.1830   29.9310   43.7330 H   0  0  0  0  0  0  0  0  0  0  0  0
   39.6380   28.7570   42.3880 H   0  0  0  0  0  0  0  0  0  0  0  0
   38.1590   30.2390   41.9000 C   0  0  0  0  0  0  0  0  0  0  0  0
   36.8430   29.9380   41.6150 C   0  0  0  0  0  0  0  0  0  0  0  0
   36.3430   29.1070   42.0720 H   0  0  0  0  0  0  0  0  0  0  0  0
   36.2340   30.7980   40.6940 C   0  0  0  0  0  0  0  0  0  0  0  0
   35.2010   30.6230   40.4190 H   0  0  0  0  0  0  0  0  0  0  0  0
   36.9770   31.8480   40.1610 C   0  0  0  0  0  3  0  0  0  0  0  0
   38.3020   32.0700   40.5130 C   0  0  0  0  0  3  0  0  0  0  0  0
   38.9060   31.2380   41.4100 N   0  0  0  0  0  0  0  0  0  0  0  0
  1  2  1  0  0  0  0
  3  1  1  0  0  0  0
  4  5  2  0  0  0  0
  4  9  1  0  0  0  0
  5  6  1  0  0  0  0
  6  1  1  0  0  0  0
  6  7  2  0  0  0  0
  8  7  1  0  0  0  0
  8 12  1  0  0  0  0
  9  8  2  0  0  0  0
 10  4  1  0  0  0  0
 11  5  1  0  0  0  0
 13  1  1  0  0  0  0
 13 14  1  0  0  0  0
 15 13  1  0  0  0  0
 16 13  1  0  0  0  0
 17 16  1  0  0  0  0
 17 18  1  0  0  0  0
 19 17  2  0  0  0  0
 20 19  1  0  0  0  0
 21 22  2  0  0  0  0
 21 19  1  0  0  0  0
 22 23  1  0  0  0  0
 23 16  2  0  0  0  0
M  END
>  <minimizedAffinity>
-4.31189919

$$$$

 OpenBabel03252502423D

 23 24  0  0  0  0  0  0  0  0999 V2000
   35.4170   29.0530   40.3510 C   0  0  0  0  0  0  0  0  0  0  0  0
   34.4360   29.0070   39.8860 H   0  0  0  0  0  0  0  0  0  0  0  0
   35.3680   29.2360   41.4610 H   0  0  0  0  0  0  0  0  0  0  0  0
   37.2860   32.3110   40.1980 C   0  0  0  0  0  0  0  0  0  0  0  0
   36.5500   31.2250   40.6940 C   0  0  0  0  0  0  0  0  0  0  0  0
   36.1970   30.1940   39.8070 C   0  0  0  0  0  0  0  0  0  0  0  0
   36.5920   30.3190   38.5190 N   0  0  0  0  0  0  0  0  0  0  0  0
   37.2980   31.3790   38.0800 C   0  0  0  0  0  0  0  0  0  0  0  0
   37.6480   32.3710   38.9010 N   0  0  0  0  0  0  0  0  0  0  0  0
   37.5040   33.0470   40.9670 H   0  0  0  0  0  0  0  0  0  0  0  0
   36.2390   31.1370   41.7300 H   0  0  0  0  0  0  0  0  0  0  0  0
   37.6000   31.4460   37.0360 H   0  0  0  0  0  0  0  0  0  0  0  0
   36.2300   27.7940   40.1890 C   0  0  0  0  0  0  0  0  0  0  0  0
   35.5420   26.9390   40.2060 H   0  0  0  0  0  0  0  0  0  0  0  0
   36.8110   27.8710   39.2490 H   0  0  0  0  0  0  0  0  0  0  0  0
   37.1660   27.6710   41.3600 C   0  0  0  0  0  0  0  0  0  0  0  0
   36.5790   27.7990   42.6020 C   0  0  0  0  0  0  0  0  0  0  0  0
   35.5270   27.9750   42.7130 H   0  0  0  0  0  0  0  0  0  0  0  0
   37.4630   27.6810   43.6800 C   0  0  0  0  0  0  0  0  0  0  0  0
   37.0750   27.7720   44.6870 H   0  0  0  0  0  0  0  0  0  0  0  0
   38.8120   27.4520   43.4220 C   0  0  0  0  0  3  0  0  0  0  0  0
   39.3090   27.3370   42.1300 C   0  0  0  0  0  3  0  0  0  0  0  0
   38.4550   27.4500   41.0710 N   0  0  0  0  0  0  0  0  0  0  0  0
  1  3  1  0  0  0  0
  2  1  1  0  0  0  0
  4  5  1  0  0  0  0
  4 10  1  0  0  0  0
  5 11  1  0  0  0  0
  6  1  1  0  0  0  0
  6  5  2  0  0  0  0
  7  6  1  0  0  0  0
  8  7  2  0  0  0  0
  8  9  1  0  0  0  0
  9  4  2  0  0  0  0
 12  8  1  0  0  0  0
 13 14  1  0  0  0  0
 13  1  1  0  0  0  0
 13 16  1  0  0  0  0
 15 13  1  0  0  0  0
 16 17  1  0  0  0  0
 17 18  1  0  0  0  0
 17 19  2  0  0  0  0
 19 20  1  0  0  0  0
 21 19  1  0  0  0  0
 22 21  2  0  0  0  0
 23 16  2  0  0  0  0
 23 22  1  0  0  0  0
M  END
>  <minimizedAffinity>
-4.28937435

$$$$

 OpenBabel03252502423D

 23 24  0  0  0  0  0  0  0  0999 V2000
   37.1510   27.7700   42.8970 C   0  0  0  0  0  0  0  0  0  0  0  0
   36.3560   27.6360   43.6260 H   0  0  0  0  0  0  0  0  0  0  0  0
   36.7670   27.8490   41.8410 H   0  0  0  0  0  0  0  0  0  0  0  0
   40.0840   25.5540   43.6790 C   0  0  0  0  0  0  0  0  0  0  0  0
   39.2200   26.6580   43.6720 C   0  0  0  0  0  0  0  0  0  0  0  0
   38.0540   26.5910   42.8910 C   0  0  0  0  0  0  0  0  0  0  0  0
   37.8410   25.4560   42.1870 N   0  0  0  0  0  0  0  0  0  0  0  0
   38.6980   24.4150   42.2200 C   0  0  0  0  0  0  0  0  0  0  0  0
   39.8110   24.4520   42.9540 N   0  0  0  0  0  0  0  0  0  0  0  0
   40.9520   25.7140   44.3150 H   0  0  0  0  0  0  0  0  0  0  0  0
   39.4020   27.5640   44.2420 H   0  0  0  0  0  0  0  0  0  0  0  0
   38.4930   23.5160   41.6400 H   0  0  0  0  0  0  0  0  0  0  0  0
   37.9790   29.0100   43.1160 C   0  0  0  0  0  0  0  0  0  0  0  0
   37.6610   29.4700   44.0610 H   0  0  0  0  0  0  0  0  0  0  0  0
   39.0490   28.7230   43.1050 H   0  0  0  0  0  0  0  0  0  0  0  0
   37.6980   29.9790   42.0010 C   0  0  0  0  0  0  0  0  0  0  0  0
   36.4460   29.8780   41.4290 C   0  0  0  0  0  0  0  0  0  0  0  0
   35.7310   29.1540   41.7650 H   0  0  0  0  0  0  0  0  0  0  0  0
   36.2020   30.7880   40.3950 C   0  0  0  0  0  0  0  0  0  0  0  0
   35.2400   30.7670   39.8970 H   0  0  0  0  0  0  0  0  0  0  0  0
   37.2030   31.6860   40.0390 C   0  0  0  0  0  3  0  0  0  0  0  0
   38.4370   31.7110   40.6760 C   0  0  0  0  0  3  0  0  0  0  0  0
   38.6860   30.8290   41.6880 N   0  0  0  0  0  0  0  0  0  0  0  0
  1 13  1  0  0  0  0
  1  2  1  0  0  0  0
  3  1  1  0  0  0  0
  4 10  1  0  0  0  0
  5  4  1  0  0  0  0
  5 11  1  0  0  0  0
  6  1  1  0  0  0  0
  6  5  2  0  0  0  0
  7  8  2  0  0  0  0
  7  6  1  0  0  0  0
  8  9  1  0  0  0  0
  9  4  2  0  0  0  0
 12  8  1  0  0  0  0
 13 14  1  0  0  0  0
 15 13  1  0  0  0  0
 16 13  1  0  0  0  0
 17 18  1  0  0  0  0
 17 16  2  0  0  0  0
 19 17  1  0  0  0  0
 20 19  1  0  0  0  0
 21 19  2  0  0  0  0
 21 22  1  0  0  0  0
 22 23  2  0  0  0  0
 23 16  1  0  0  0  0
M  END
>  <minimizedAffinity>
-4.270329

$$$$

 OpenBabel03252502423D

 23 24  0  0  0  0  0  0  0  0999 V2000
   35.9130   30.3770   40.5780 C   0  0  0  0  0  0  0  0  0  0  0  0
   35.0590   31.0290   40.7370 H   0  0  0  0  0  0  0  0  0  0  0  0
   36.7960   30.6460   41.2230 H   0  0  0  0  0  0  0  0  0  0  0  0
   36.4390   29.6280   36.9320 C   0  0  0  0  0  0  0  0  0  0  0  0
   35.9840   29.5300   38.2550 C   0  0  0  0  0  0  0  0  0  0  0  0
   36.4060   30.4980   39.1820 C   0  0  0  0  0  0  0  0  0  0  0  0
   37.2330   31.4700   38.7340 N   0  0  0  0  0  0  0  0  0  0  0  0
   37.6490   31.5300   37.4530 C   0  0  0  0  0  0  0  0  0  0  0  0
   37.2630   30.6250   36.5520 N   0  0  0  0  0  0  0  0  0  0  0  0
   36.0530   28.8310   36.3020 H   0  0  0  0  0  0  0  0  0  0  0  0
   35.3210   28.7450   38.6010 H   0  0  0  0  0  0  0  0  0  0  0  0
   38.3150   32.3280   37.1270 H   0  0  0  0  0  0  0  0  0  0  0  0
   35.6350   28.9240   40.8650 C   0  0  0  0  0  0  0  0  0  0  0  0
   34.6650   28.8570   41.3760 H   0  0  0  0  0  0  0  0  0  0  0  0
   35.6670   28.3650   39.9100 H   0  0  0  0  0  0  0  0  0  0  0  0
   36.6950   28.4060   41.7970 C   0  0  0  0  0  0  0  0  0  0  0  0
   36.8810   27.0380   41.7820 C   0  0  0  0  0  0  0  0  0  0  0  0
   36.3010   26.3990   41.1460 H   0  0  0  0  0  0  0  0  0  0  0  0
   37.8710   26.5740   42.6540 C   0  0  0  0  0  0  0  0  0  0  0  0
   38.0720   25.5110   42.6980 H   0  0  0  0  0  0  0  0  0  0  0  0
   38.5630   27.4940   43.4360 C   0  0  0  0  0  3  0  0  0  0  0  0
   38.3040   28.8570   43.3800 C   0  0  0  0  0  3  0  0  0  0  0  0
   37.3400   29.3210   42.5330 N   0  0  0  0  0  0  0  0  0  0  0  0
  1  2  1  0  0  0  0
  1 13  1  0  0  0  0
  1  3  1  0  0  0  0
  4  5  1  0  0  0  0
  5 11  1  0  0  0  0
  5  6  2  0  0  0  0
  6  1  1  0  0  0  0
  7  6  1  0  0  0  0
  8  7  2  0  0  0  0
  9  4  2  0  0  0  0
  9  8  1  0  0  0  0
 10  4  1  0  0  0  0
 12  8  1  0  0  0  0
 13 14  1  0  0  0  0
 13 16  1  0  0  0  0
 15 13  1  0  0  0  0
 16 23  1  0  0  0  0
 17 16  2  0  0  0  0
 17 19  1  0  0  0  0
 18 17  1  0  0  0  0
 19 20  1  0  0  0  0
 19 21  2  0  0  0  0
 22 21  1  0  0  0  0
 23 22  2  0  0  0  0
M  END
>  <minimizedAffinity>
-4.17344284

$$$$

 OpenBabel03252502423D

 23 24  0  0  0  0  0  0  0  0999 V2000
   36.6830   27.5980   42.9200 C   0  0  0  0  0  0  0  0  0  0  0  0
   35.9410   26.8640   42.6180 H   0  0  0  0  0  0  0  0  0  0  0  0
   36.4600   28.0570   43.9240 H   0  0  0  0  0  0  0  0  0  0  0  0
   35.7250   29.8320   40.0530 C   0  0  0  0  0  0  0  0  0  0  0  0
   35.7240   28.7630   40.9600 C   0  0  0  0  0  0  0  0  0  0  0  0
   36.7000   28.7400   41.9700 C   0  0  0  0  0  0  0  0  0  0  0  0
   37.5860   29.7610   42.0020 N   0  0  0  0  0  0  0  0  0  0  0  0
   37.5540   30.7730   41.1120 C   0  0  0  0  0  0  0  0  0  0  0  0
   36.6390   30.8190   40.1430 N   0  0  0  0  0  0  0  0  0  0  0  0
   34.9300   29.7490   39.3160 H   0  0  0  0  0  0  0  0  0  0  0  0
   35.0070   27.9490   40.9230 H   0  0  0  0  0  0  0  0  0  0  0  0
   38.2840   31.5790   41.1680 H   0  0  0  0  0  0  0  0  0  0  0  0
   38.0800   27.0450   43.0330 C   0  0  0  0  0  0  0  0  0  0  0  0
   38.7800   27.8130   42.6770 H   0  0  0  0  0  0  0  0  0  0  0  0
   38.2550   26.7460   44.0850 H   0  0  0  0  0  0  0  0  0  0  0  0
   38.1970   25.8460   42.1340 C   0  0  0  0  0  0  0  0  0  0  0  0
   37.1170   24.9860   42.1500 C   0  0  0  0  0  0  0  0  0  0  0  0
   36.2600   25.1710   42.7670 H   0  0  0  0  0  0  0  0  0  0  0  0
   37.2430   23.8760   41.3070 C   0  0  0  0  0  0  0  0  0  0  0  0
   36.4350   23.1560   41.2690 H   0  0  0  0  0  0  0  0  0  0  0  0
   38.4010   23.7350   40.5490 C   0  0  0  0  0  3  0  0  0  0  0  0
   39.4370   24.6580   40.6010 C   0  0  0  0  0  3  0  0  0  0  0  0
   39.3260   25.7450   41.4190 N   0  0  0  0  0  0  0  0  0  0  0  0
  1 13  1  0  0  0  0
  1  3  1  0  0  0  0
  2  1  1  0  0  0  0
  4  9  2  0  0  0  0
  4  5  1  0  0  0  0
  5  6  2  0  0  0  0
  6  7  1  0  0  0  0
  6  1  1  0  0  0  0
  8 12  1  0  0  0  0
  8  7  2  0  0  0  0
  9  8  1  0  0  0  0
 10  4  1  0  0  0  0
 11  5  1  0  0  0  0
 13 15  1  0  0  0  0
 14 13  1  0  0  0  0
 16 17  1  0  0  0  0
 16 13  1  0  0  0  0
 17 18  1  0  0  0  0
 19 17  2  0  0  0  0
 20 19  1  0  0  0  0
 21 22  2  0  0  0  0
 21 19  1  0  0  0  0
 22 23  1  0  0  0  0
 23 16  2  0  0  0  0
M  END
>  <minimizedAffinity>
-4.06149817

$$$$

 OpenBabel03252502423D

 23 24  0  0  0  0  0  0  0  0999 V2000
   37.2180   27.9250   42.7250 C   0  0  0  0  0  0  0  0  0  0  0  0
   37.8110   28.8340   42.7870 H   0  0  0  0  0  0  0  0  0  0  0  0
   36.4620   27.8370   43.5550 H   0  0  0  0  0  0  0  0  0  0  0  0
   38.5000   24.4130   42.3330 C   0  0  0  0  0  0  0  0  0  0  0  0
   37.6920   25.5520   42.2100 C   0  0  0  0  0  0  0  0  0  0  0  0
   38.0870   26.7290   42.8670 C   0  0  0  0  0  0  0  0  0  0  0  0
   39.2330   26.6850   43.5850 N   0  0  0  0  0  0  0  0  0  0  0  0
   39.9840   25.5690   43.6800 C   0  0  0  0  0  0  0  0  0  0  0  0
   39.6320   24.4390   43.0650 N   0  0  0  0  0  0  0  0  0  0  0  0
   38.1010   23.5630   41.7860 H   0  0  0  0  0  0  0  0  0  0  0  0
   36.7740   25.5740   41.6300 H   0  0  0  0  0  0  0  0  0  0  0  0
   40.9010   25.5710   44.2670 H   0  0  0  0  0  0  0  0  0  0  0  0
   36.4280   27.7960   41.4480 C   0  0  0  0  0  0  0  0  0  0  0  0
   36.8460   26.9610   40.8710 H   0  0  0  0  0  0  0  0  0  0  0  0
   35.3610   27.6580   41.7090 H   0  0  0  0  0  0  0  0  0  0  0  0
   36.6000   29.0570   40.6470 C   0  0  0  0  0  0  0  0  0  0  0  0
   36.6310   30.2260   41.3800 C   0  0  0  0  0  0  0  0  0  0  0  0
   36.5370   30.2220   42.4480 H   0  0  0  0  0  0  0  0  0  0  0  0
   36.7930   31.3880   40.6190 C   0  0  0  0  0  0  0  0  0  0  0  0
   36.8240   32.3450   41.1260 H   0  0  0  0  0  0  0  0  0  0  0  0
   36.9040   31.2770   39.2360 C   0  0  0  0  0  3  0  0  0  0  0  0
   36.8620   30.0500   38.5870 C   0  0  0  0  0  3  0  0  0  0  0  0
   36.7050   28.9090   39.3190 N   0  0  0  0  0  0  0  0  0  0  0  0
  1  2  1  0  0  0  0
  1  6  1  0  0  0  0
  1  3  1  0  0  0  0
  4  9  1  0  0  0  0
  5  4  2  0  0  0  0
  5  6  1  0  0  0  0
  6  7  2  0  0  0  0
  7  8  1  0  0  0  0
  8 12  1  0  0  0  0
  9  8  2  0  0  0  0
 10  4  1  0  0  0  0
 11  5  1  0  0  0  0
 13 15  1  0  0  0  0
 13  1  1  0  0  0  0
 14 13  1  0  0  0  0
 16 17  1  0  0  0  0
 16 13  1  0  0  0  0
 17 18  1  0  0  0  0
 19 20  1  0  0  0  0
 19 17  2  0  0  0  0
 21 19  1  0  0  0  0
 22 21  2  0  0  0  0
 22 23  1  0  0  0  0
 23 16  2  0  0  0  0
M  END
>  <minimizedAffinity>
-4.03877544

$$$$
