
 OpenBabel03252508433D

 30 32  0  0  0  0  0  0  0  0999 V2000
   46.1910   34.3990   41.6140 C   0  0  0  0  0  0  0  0  0  0  0  0
   46.7060   34.3930   42.9000 C   0  0  0  0  0  0  0  0  0  0  0  0
   48.0890   34.4160   43.0390 C   0  0  0  0  0  0  0  0  0  0  0  0
   48.8910   34.4440   41.9370 C   0  0  0  0  0  0  0  0  0  0  0  0
   48.4030   34.4510   40.6600 C   0  0  0  0  0  0  0  0  0  0  0  0
   47.0060   34.4270   40.5340 C   0  0  0  0  0  0  0  0  0  0  0  0
   48.4800   34.4100   44.0610 H   0  0  0  0  0  0  0  0  0  0  0  0
   49.9610   34.4620   42.0780 H   0  0  0  0  0  0  0  0  0  0  0  0
   49.0480   34.4740   39.7930 H   0  0  0  0  0  0  0  0  0  0  0  0
   46.5530   34.4320   39.5430 H   0  0  0  0  0  0  0  0  0  0  0  0
   42.5310   35.3180   41.3580 C   0  0  0  0  0  0  0  0  0  0  0  0
   43.9220   35.4600   41.4570 C   0  0  0  0  0  0  0  0  0  0  0  0
   44.7430   34.3550   41.5110 C   0  0  0  0  0  0  0  0  0  0  0  0
   44.1010   33.1840   41.4610 N   0  0  0  0  0  0  0  0  0  0  0  0
   42.7710   33.0100   41.3660 C   0  0  0  0  0  0  0  0  0  0  0  0
   41.9810   34.0930   41.3150 N   0  0  0  0  0  0  0  0  0  0  0  0
   41.9830   36.2390   41.3240 H   0  0  0  0  0  0  0  0  0  0  0  0
   44.3760   36.4400   41.4920 H   0  0  0  0  0  0  0  0  0  0  0  0
   42.3090   32.0360   41.3300 H   0  0  0  0  0  0  0  0  0  0  0  0
   45.8340   34.3610   44.0860 C   0  0  0  0  0  0  0  0  0  0  0  0
   46.0650   35.2460   44.7340 H   0  0  0  0  0  0  0  0  0  0  0  0
   44.7860   34.5060   43.7060 H   0  0  0  0  0  0  0  0  0  0  0  0
   45.8690   33.1840   44.9360 C   0  0  0  0  0  0  0  0  0  0  0  0
   46.0300   31.8070   44.7400 C   0  0  0  0  0  0  0  0  0  0  0  0
   46.1750   31.6420   43.6580 H   0  0  0  0  0  0  0  0  0  0  0  0
   46.0140   30.8690   45.7420 C   0  0  0  0  0  0  0  0  0  0  0  0
   46.1550   29.8580   45.3900 H   0  0  0  0  0  0  0  0  0  0  0  0
   45.8260   31.3000   47.0240 C   0  0  0  0  0  3  0  0  0  0  0  0
   45.6680   32.6540   47.2140 C   0  0  0  0  0  3  0  0  0  0  0  0
   45.6880   33.5700   46.2130 N   0  0  0  0  0  0  0  0  0  0  0  0
  1  2  1  0  0  0  0
  2  3  2  0  0  0  0
  2 20  1  0  0  0  0
  3  7  1  0  0  0  0
  4  8  1  0  0  0  0
  4  3  1  0  0  0  0
  5  4  2  0  0  0  0
  6  5  1  0  0  0  0
  6  1  2  0  0  0  0
  9  5  1  0  0  0  0
 10  6  1  0  0  0  0
 11 12  1  0  0  0  0
 12 18  1  0  0  0  0
 12 13  2  0  0  0  0
 13  1  1  0  0  0  0
 14 13  1  0  0  0  0
 15 14  2  0  0  0  0
 16 11  2  0  0  0  0
 16 15  1  0  0  0  0
 17 11  1  0  0  0  0
 19 15  1  0  0  0  0
 20 21  1  0  0  0  0
 20 23  1  0  0  0  0
 22 20  1  0  0  0  0
 23 30  1  0  0  0  0
 24 23  2  0  0  0  0
 24 26  1  0  0  0  0
 25 24  1  0  0  0  0
 26 28  2  0  0  0  0
 27 26  1  0  0  0  0
 28 29  1  0  0  0  0
 30 29  2  0  0  0  0
M  END
>  <minimizedAffinity>
-5.13904619

>  <minimizedRMSD>
4.95438671

$$$$
