
 OpenBabel03252506313D

 31 33  0  0  1  0  0  0  0  0999 V2000
   44.6080   35.7740   44.5940 C   0  0  0  0  0  0  0  0  0  0  0  0
   44.4900   35.4050   43.2480 C   0  0  0  0  0  0  0  0  0  0  0  0
   44.7830   34.0970   42.8760 C   0  0  0  0  0  0  0  0  0  0  0  0
   45.1720   33.2380   43.8620 N   0  0  0  0  0  0  0  0  0  0  0  0
   45.2760   33.6220   45.1430 C   0  0  0  0  0  0  0  0  0  0  0  0
   44.9980   34.8730   45.5120 N   0  0  0  0  0  0  0  0  0  0  0  0
   45.6910   32.6490   46.0950 N   0  0  0  0  0  0  0  0  0  0  0  0
   45.5550   32.8030   47.5430 C   0  0  0  0  0  0  0  0  0  0  0  0
   46.8040   32.1370   48.0400 C   0  0  0  0  0  0  0  0  0  0  0  0
   47.4370   31.4280   46.8760 C   0  0  0  0  0  0  0  0  0  0  0  0
   46.3040   31.3630   45.8670 C   0  0  2  0  0  0  0  0  0  0  0  0
   44.3790   36.7960   44.8790 H   0  0  0  0  0  0  0  0  0  0  0  0
   44.6870   33.8310   41.8420 H   0  0  0  0  0  0  0  0  0  0  0  0
   44.6480   32.3280   47.9270 H   0  0  0  0  0  0  0  0  0  0  0  0
   45.6370   33.8960   47.7630 H   0  0  0  0  0  0  0  0  0  0  0  0
   47.4970   32.8170   48.5620 H   0  0  0  0  0  0  0  0  0  0  0  0
   46.5060   31.3520   48.7910 H   0  0  0  0  0  0  0  0  0  0  0  0
   47.6930   30.3760   47.1280 H   0  0  0  0  0  0  0  0  0  0  0  0
   48.3010   31.9820   46.4460 H   0  0  0  0  0  0  0  0  0  0  0  0
   45.6530   30.5320   46.1340 H   0  0  0  0  0  0  0  0  0  0  0  0
   46.8870   31.2320   44.5080 C   0  0  0  0  0  0  0  0  0  0  0  0
   46.3410   30.3430   43.5790 C   0  0  0  0  0  0  0  0  0  0  0  0
   45.4850   29.7740   43.9010 H   0  0  0  0  0  0  0  0  0  0  0  0
   46.8910   30.2160   42.3060 C   0  0  0  0  0  0  0  0  0  0  0  0
   46.4020   29.5010   41.6500 H   0  0  0  0  0  0  0  0  0  0  0  0
   47.9930   30.9930   41.9860 C   0  0  0  0  0  3  0  0  0  0  0  0
   48.5170   31.8630   42.9150 C   0  0  0  0  0  3  0  0  0  0  0  0
   47.9510   31.9510   44.1300 N   0  0  0  0  0  0  0  0  0  0  0  0
   44.0660   36.4240   42.3210 N   0  0  0  0  0  0  0  0  0  0  0  0
   44.2630   37.4040   42.5340 H   0  0  0  0  0  0  0  0  0  0  0  0
   43.5630   36.0690   41.4530 H   0  0  0  0  0  0  0  0  0  0  0  0
  1 12  1  0  0  0  0
  1  6  1  0  0  0  0
  2  1  2  0  0  0  0
  3  2  1  0  0  0  0
  3  4  2  0  0  0  0
  4  5  1  0  0  0  0
  5  6  2  0  0  0  0
  5  7  1  0  0  0  0
  7  8  1  0  0  0  0
  8 15  1  0  0  0  0
  8 14  1  0  0  0  0
  8  9  1  0  0  0  0
  9 16  1  0  0  0  0
  9 17  1  0  0  0  0
 10 18  1  0  0  0  0
 10  9  1  0  0  0  0
 11  7  1  0  0  0  0
 11 20  1  1  0  0  0
 11 10  1  0  0  0  0
 13  3  1  0  0  0  0
 19 10  1  0  0  0  0
 21 11  1  0  0  0  0
 22 23  1  0  0  0  0
 22 21  2  0  0  0  0
 24 22  1  0  0  0  0
 25 24  1  0  0  0  0
 26 24  2  0  0  0  0
 26 27  1  0  0  0  0
 27 28  2  0  0  0  0
 28 21  1  0  0  0  0
 29 30  1  0  0  0  0
 29  2  1  0  0  0  0
 31 29  1  0  0  0  0
M  END
>  <minimizedAffinity>
-4.35326672

>  <minimizedRMSD>
1.97841787

$$$$
