
 OpenBabel03252507233D

 46 49  0  0  1  0  0  0  0  0999 V2000
   39.1280   29.4360   40.3550 C   0  0  0  0  0  0  0  0  0  0  0  0
   39.6980   28.9630   39.3360 O   0  0  0  0  0  0  0  0  0  0  0  0
   38.7050   28.6490   41.4560 N   0  0  0  0  0  0  0  0  0  0  0  0
   38.8330   28.8910   42.9040 C   0  0  0  0  0  0  0  0  0  0  0  0
   37.4630   28.7490   43.5590 C   0  0  0  0  0  0  0  0  0  0  0  0
   36.9950   27.3360   43.4440 C   0  0  0  0  0  0  0  0  0  0  0  0
   37.8070   26.6020   42.4030 C   0  0  0  0  0  0  0  0  0  0  0  0
   38.0500   27.4030   41.1750 C   0  0  2  0  0  0  0  0  0  0  0  0
   39.4860   28.1170   43.3550 H   0  0  0  0  0  0  0  0  0  0  0  0
   39.2150   29.9150   43.1050 H   0  0  0  0  0  0  0  0  0  0  0  0
   37.4950   29.1440   44.5740 H   0  0  0  0  0  0  0  0  0  0  0  0
   36.7900   29.3920   42.9320 H   0  0  0  0  0  0  0  0  0  0  0  0
   35.9220   27.2830   43.2520 H   0  0  0  0  0  0  0  0  0  0  0  0
   37.2110   26.8600   44.4320 H   0  0  0  0  0  0  0  0  0  0  0  0
   38.7120   26.1310   42.8270 H   0  0  0  0  0  0  0  0  0  0  0  0
   37.1440   25.7420   42.0860 H   0  0  0  0  0  0  0  0  0  0  0  0
   37.0270   27.6920   40.7840 H   0  0  0  0  0  0  0  0  0  0  0  0
   39.9610   31.6860   40.8290 C   0  0  0  0  0  0  0  0  0  0  0  0
   38.8990   30.8620   40.3900 C   0  0  0  0  0  0  0  0  0  0  0  0
   37.6860   31.4190   40.0110 C   0  0  0  0  0  0  0  0  0  0  0  0
   37.5720   32.7650   40.0790 N   0  0  0  0  0  0  0  0  0  0  0  0
   38.5810   33.5790   40.4980 C   0  0  0  0  0  0  0  0  0  0  0  0
   39.7600   33.0180   40.8660 N   0  0  0  0  0  0  0  0  0  0  0  0
   40.8960   31.2270   41.1200 H   0  0  0  0  0  0  0  0  0  0  0  0
   38.4560   34.6520   40.5410 H   0  0  0  0  0  0  0  0  0  0  0  0
   36.6270   30.5470   39.5750 C   0  0  0  0  0  0  0  0  0  0  0  0
   35.7280   30.0560   40.4580 C   0  0  0  0  0  0  0  0  0  0  0  0
   34.7220   29.2230   40.0120 C   0  0  0  0  0  0  0  0  0  0  0  0
   34.5880   28.8550   38.6740 C   0  0  0  0  0  0  0  0  0  0  0  0
   35.5370   29.3850   37.8090 C   0  0  0  0  0  0  0  0  0  0  0  0
   36.4980   30.1910   38.2780 N   0  0  0  0  0  0  0  0  0  0  0  0
   35.6970   30.2400   41.5170 H   0  0  0  0  0  0  0  0  0  0  0  0
   33.9710   28.7980   40.6740 H   0  0  0  0  0  0  0  0  0  0  0  0
   33.8020   28.2030   38.3270 H   0  0  0  0  0  0  0  0  0  0  0  0
   35.5170   29.1590   36.7570 H   0  0  0  0  0  0  0  0  0  0  0  0
   38.6930   26.5730   40.1260 C   0  0  0  0  0  0  0  0  0  0  0  0
   39.1760   27.0560   39.2850 H   0  0  0  0  0  0  0  0  0  0  0  0
   39.5130   25.9860   40.5930 H   0  0  0  0  0  0  0  0  0  0  0  0
   37.7490   25.4930   39.6220 C   0  0  0  0  0  0  0  0  0  0  0  0
   36.5290   25.8050   39.0520 C   0  0  0  0  0  0  0  0  0  0  0  0
   36.2480   26.8450   38.9610 H   0  0  0  0  0  0  0  0  0  0  0  0
   35.7900   24.7170   38.6510 C   0  0  0  0  0  0  0  0  0  0  0  0
   34.8170   24.9200   38.1950 H   0  0  0  0  0  0  0  0  0  0  0  0
   36.2860   23.4530   38.8350 C   0  0  0  0  0  3  0  0  0  0  0  0
   37.5230   23.2040   39.4170 C   0  0  0  0  0  3  0  0  0  0  0  0
   38.2610   24.2620   39.8150 N   0  0  0  0  0  0  0  0  0  0  0  0
  1 19  1  0  0  0  0
  1  3  1  0  0  0  0
  2  1  2  0  0  0  0
  3  4  1  0  0  0  0
  4 10  1  0  0  0  0
  4  9  1  0  0  0  0
  4  5  1  0  0  0  0
  5 11  1  0  0  0  0
  6  5  1  0  0  0  0
  6 14  1  0  0  0  0
  7 15  1  0  0  0  0
  7  6  1  0  0  0  0
  8 17  1  6  0  0  0
  8  3  1  0  0  0  0
  8  7  1  0  0  0  0
 12  5  1  0  0  0  0
 13  6  1  0  0  0  0
 16  7  1  0  0  0  0
 18 23  1  0  0  0  0
 18 24  1  0  0  0  0
 19 18  2  0  0  0  0
 20 21  2  0  0  0  0
 20 19  1  0  0  0  0
 21 22  1  0  0  0  0
 22 25  1  0  0  0  0
 22 23  2  0  0  0  0
 26 20  1  0  0  0  0
 26 27  1  0  0  0  0
 27 32  1  0  0  0  0
 28 27  2  0  0  0  0
 28 33  1  0  0  0  0
 29 28  1  0  0  0  0
 30 31  1  0  0  0  0
 30 29  2  0  0  0  0
 31 26  2  0  0  0  0
 34 29  1  0  0  0  0
 35 30  1  0  0  0  0
 36 38  1  0  0  0  0
 36  8  1  0  0  0  0
 37 36  1  0  0  0  0
 39 46  1  0  0  0  0
 39 36  1  0  0  0  0
 40 39  2  0  0  0  0
 41 40  1  0  0  0  0
 42 44  2  0  0  0  0
 42 40  1  0  0  0  0
 43 42  1  0  0  0  0
 44 45  1  0  0  0  0
 45 46  2  0  0  0  0
M  END
>  <minimizedAffinity>
-6.15674686

$$$$

 OpenBabel03252507233D

 46 49  0  0  1  0  0  0  0  0999 V2000
   38.7720   30.5930   41.7400 C   0  0  0  0  0  0  0  0  0  0  0  0
   39.2640   30.2990   42.8630 O   0  0  0  0  0  0  0  0  0  0  0  0
   37.4920   30.1670   41.3060 N   0  0  0  0  0  0  0  0  0  0  0  0
   36.4240   30.9130   40.6170 C   0  0  0  0  0  0  0  0  0  0  0  0
   35.9990   30.1440   39.3710 C   0  0  0  0  0  0  0  0  0  0  0  0
   35.3720   28.8490   39.7690 C   0  0  0  0  0  0  0  0  0  0  0  0
   35.7010   28.5320   41.2080 C   0  0  0  0  0  0  0  0  0  0  0  0
   37.1190   28.8060   41.5610 C   0  0  2  0  0  0  0  0  0  0  0  0
   35.5320   30.9780   41.2730 H   0  0  0  0  0  0  0  0  0  0  0  0
   36.7770   31.9200   40.3070 H   0  0  0  0  0  0  0  0  0  0  0  0
   35.3850   30.7790   38.7350 H   0  0  0  0  0  0  0  0  0  0  0  0
   36.9650   29.9160   38.8450 H   0  0  0  0  0  0  0  0  0  0  0  0
   35.6490   28.0420   39.0880 H   0  0  0  0  0  0  0  0  0  0  0  0
   34.2670   29.0120   39.7080 H   0  0  0  0  0  0  0  0  0  0  0  0
   34.9660   28.9560   41.9150 H   0  0  0  0  0  0  0  0  0  0  0  0
   35.5730   27.4100   41.2840 H   0  0  0  0  0  0  0  0  0  0  0  0
   37.7430   28.1910   40.8410 H   0  0  0  0  0  0  0  0  0  0  0  0
   39.5340   32.8120   41.0470 C   0  0  0  0  0  0  0  0  0  0  0  0
   39.5710   31.4120   40.8570 C   0  0  0  0  0  0  0  0  0  0  0  0
   40.3500   30.8580   39.8510 C   0  0  0  0  0  0  0  0  0  0  0  0
   41.0610   31.7090   39.0770 N   0  0  0  0  0  0  0  0  0  0  0  0
   41.0420   33.0610   39.2420 C   0  0  0  0  0  0  0  0  0  0  0  0
   40.2740   33.5860   40.2290 N   0  0  0  0  0  0  0  0  0  0  0  0
   38.9180   33.2180   41.8380 H   0  0  0  0  0  0  0  0  0  0  0  0
   41.6230   33.7130   38.6040 H   0  0  0  0  0  0  0  0  0  0  0  0
   40.3570   29.4280   39.6850 C   0  0  0  0  0  0  0  0  0  0  0  0
   39.5830   28.8370   38.7460 C   0  0  0  0  0  0  0  0  0  0  0  0
   39.6100   27.4640   38.6080 C   0  0  0  0  0  0  0  0  0  0  0  0
   40.4090   26.6450   39.4040 C   0  0  0  0  0  0  0  0  0  0  0  0
   41.1850   27.3000   40.3520 C   0  0  0  0  0  0  0  0  0  0  0  0
   41.1320   28.6350   40.4560 N   0  0  0  0  0  0  0  0  0  0  0  0
   38.9120   29.3250   38.0620 H   0  0  0  0  0  0  0  0  0  0  0  0
   39.0110   26.9340   37.8730 H   0  0  0  0  0  0  0  0  0  0  0  0
   40.4300   25.5710   39.2950 H   0  0  0  0  0  0  0  0  0  0  0  0
   41.8340   26.7530   41.0130 H   0  0  0  0  0  0  0  0  0  0  0  0
   37.4250   28.3090   42.9250 C   0  0  0  0  0  0  0  0  0  0  0  0
   37.8920   28.9740   43.6420 H   0  0  0  0  0  0  0  0  0  0  0  0
   36.4710   28.0250   43.4210 H   0  0  0  0  0  0  0  0  0  0  0  0
   38.1840   26.9940   42.8770 C   0  0  0  0  0  0  0  0  0  0  0  0
   37.7260   25.9180   42.1390 C   0  0  0  0  0  0  0  0  0  0  0  0
   36.8060   26.0240   41.5810 H   0  0  0  0  0  0  0  0  0  0  0  0
   38.5230   24.7990   42.2030 C   0  0  0  0  0  0  0  0  0  0  0  0
   38.1960   23.9250   41.6320 H   0  0  0  0  0  0  0  0  0  0  0  0
   39.6660   24.8210   42.9580 C   0  0  0  0  0  3  0  0  0  0  0  0
   40.0740   25.9350   43.6800 C   0  0  0  0  0  3  0  0  0  0  0  0
   39.3020   27.0420   43.6270 N   0  0  0  0  0  0  0  0  0  0  0  0
  1  2  2  0  0  0  0
  3  8  1  0  0  0  0
  3  1  1  0  0  0  0
  4  9  1  0  0  0  0
  4  3  1  0  0  0  0
  5  6  1  0  0  0  0
  5  4  1  0  0  0  0
  6  7  1  0  0  0  0
  7 16  1  0  0  0  0
  7  8  1  0  0  0  0
  7 15  1  0  0  0  0
  8 17  1  6  0  0  0
  8 36  1  0  0  0  0
 10  4  1  0  0  0  0
 11  5  1  0  0  0  0
 12  5  1  0  0  0  0
 13  6  1  0  0  0  0
 14  6  1  0  0  0  0
 18 24  1  0  0  0  0
 19 18  1  0  0  0  0
 19  1  1  0  0  0  0
 20 19  2  0  0  0  0
 21 22  2  0  0  0  0
 21 20  1  0  0  0  0
 22 23  1  0  0  0  0
 23 18  2  0  0  0  0
 25 22  1  0  0  0  0
 26 20  1  0  0  0  0
 26 31  1  0  0  0  0
 27 26  2  0  0  0  0
 28 27  1  0  0  0  0
 28 29  2  0  0  0  0
 29 30  1  0  0  0  0
 30 31  2  0  0  0  0
 30 35  1  0  0  0  0
 32 27  1  0  0  0  0
 33 28  1  0  0  0  0
 34 29  1  0  0  0  0
 36 38  1  0  0  0  0
 36 37  1  0  0  0  0
 39 36  1  0  0  0  0
 39 46  1  0  0  0  0
 40 42  1  0  0  0  0
 40 39  2  0  0  0  0
 41 40  1  0  0  0  0
 42 44  2  0  0  0  0
 43 42  1  0  0  0  0
 44 45  1  0  0  0  0
 46 45  2  0  0  0  0
M  END
>  <minimizedAffinity>
-5.74809837

$$$$

 OpenBabel03252507233D

 46 49  0  0  1  0  0  0  0  0999 V2000
   37.0370   30.4170   39.5240 C   0  0  0  0  0  0  0  0  0  0  0  0
   35.8890   30.1420   39.9680 O   0  0  0  0  0  0  0  0  0  0  0  0
   37.7630   29.5740   38.6460 N   0  0  0  0  0  0  0  0  0  0  0  0
   38.5400   29.9010   37.4380 C   0  0  0  0  0  0  0  0  0  0  0  0
   39.9360   29.3000   37.5610 C   0  0  0  0  0  0  0  0  0  0  0  0
   39.8420   27.8100   37.5670 C   0  0  0  0  0  0  0  0  0  0  0  0
   38.4210   27.3790   37.8440 C   0  0  0  0  0  0  0  0  0  0  0  0
   37.7680   28.1660   38.9230 C   0  0  2  0  0  0  0  0  0  0  0  0
   38.0660   29.4330   36.5510 H   0  0  0  0  0  0  0  0  0  0  0  0
   38.6400   31.0010   37.3140 H   0  0  0  0  0  0  0  0  0  0  0  0
   40.5890   29.7190   36.7970 H   0  0  0  0  0  0  0  0  0  0  0  0
   40.2900   29.6310   38.5730 H   0  0  0  0  0  0  0  0  0  0  0  0
   40.5570   27.3650   38.2620 H   0  0  0  0  0  0  0  0  0  0  0  0
   40.0930   27.4820   36.5280 H   0  0  0  0  0  0  0  0  0  0  0  0
   37.8200   27.2830   36.9220 H   0  0  0  0  0  0  0  0  0  0  0  0
   38.5210   26.3260   38.2450 H   0  0  0  0  0  0  0  0  0  0  0  0
   38.4290   28.0490   39.8360 H   0  0  0  0  0  0  0  0  0  0  0  0
   37.1600   32.8530   39.3410 C   0  0  0  0  0  0  0  0  0  0  0  0
   37.6330   31.6640   39.9430 C   0  0  0  0  0  0  0  0  0  0  0  0
   38.6360   31.7110   40.9010 C   0  0  0  0  0  0  0  0  0  0  0  0
   39.1290   32.9290   41.2240 N   0  0  0  0  0  0  0  0  0  0  0  0
   38.6890   34.0870   40.6580 C   0  0  0  0  0  0  0  0  0  0  0  0
   37.7080   34.0230   39.7230 N   0  0  0  0  0  0  0  0  0  0  0  0
   36.3770   32.7880   38.5970 H   0  0  0  0  0  0  0  0  0  0  0  0
   39.1060   35.0430   40.9400 H   0  0  0  0  0  0  0  0  0  0  0  0
   39.0960   30.4790   41.4870 C   0  0  0  0  0  0  0  0  0  0  0  0
   38.4280   29.9120   42.5170 C   0  0  0  0  0  0  0  0  0  0  0  0
   38.8900   28.7300   43.0590 C   0  0  0  0  0  0  0  0  0  0  0  0
   40.0320   28.0840   42.5880 C   0  0  0  0  0  0  0  0  0  0  0  0
   40.6810   28.7060   41.5300 C   0  0  0  0  0  0  0  0  0  0  0  0
   40.2020   29.8530   41.0300 N   0  0  0  0  0  0  0  0  0  0  0  0
   37.5390   30.2860   42.9940 H   0  0  0  0  0  0  0  0  0  0  0  0
   38.3960   28.2280   43.8870 H   0  0  0  0  0  0  0  0  0  0  0  0
   40.3930   27.1590   43.0130 H   0  0  0  0  0  0  0  0  0  0  0  0
   41.5720   28.2840   41.0970 H   0  0  0  0  0  0  0  0  0  0  0  0
   36.4480   27.5830   39.2700 C   0  0  0  0  0  0  0  0  0  0  0  0
   35.7030   28.2030   39.7580 H   0  0  0  0  0  0  0  0  0  0  0  0
   35.9440   27.2640   38.3330 H   0  0  0  0  0  0  0  0  0  0  0  0
   36.6040   26.2770   40.0320 C   0  0  0  0  0  0  0  0  0  0  0  0
   37.1260   26.2420   41.3120 C   0  0  0  0  0  0  0  0  0  0  0  0
   37.4230   27.1720   41.7780 H   0  0  0  0  0  0  0  0  0  0  0  0
   37.2070   24.9840   41.8630 C   0  0  0  0  0  0  0  0  0  0  0  0
   37.6140   24.9120   42.8750 H   0  0  0  0  0  0  0  0  0  0  0  0
   36.7850   23.8980   41.1410 C   0  0  0  0  0  3  0  0  0  0  0  0
   36.2700   23.9990   39.8560 C   0  0  0  0  0  3  0  0  0  0  0  0
   36.1830   25.2280   39.3010 N   0  0  0  0  0  0  0  0  0  0  0  0
  1 19  1  0  0  0  0
  1  2  2  0  0  0  0
  3  8  1  0  0  0  0
  3  1  1  0  0  0  0
  4  5  1  0  0  0  0
  4  3  1  0  0  0  0
  5  6  1  0  0  0  0
  5 12  1  0  0  0  0
  6  7  1  0  0  0  0
  6 13  1  0  0  0  0
  7 16  1  0  0  0  0
  7  8  1  0  0  0  0
  8 36  1  0  0  0  0
  8 17  1  1  0  0  0
  9  4  1  0  0  0  0
 10  4  1  0  0  0  0
 11  5  1  0  0  0  0
 14  6  1  0  0  0  0
 15  7  1  0  0  0  0
 18 23  2  0  0  0  0
 18 19  1  0  0  0  0
 19 20  2  0  0  0  0
 20 21  1  0  0  0  0
 20 26  1  0  0  0  0
 22 25  1  0  0  0  0
 22 21  2  0  0  0  0
 23 22  1  0  0  0  0
 24 18  1  0  0  0  0
 26 27  1  0  0  0  0
 27 32  1  0  0  0  0
 27 28  2  0  0  0  0
 28 33  1  0  0  0  0
 29 34  1  0  0  0  0
 29 28  1  0  0  0  0
 30 29  2  0  0  0  0
 31 26  2  0  0  0  0
 31 30  1  0  0  0  0
 35 30  1  0  0  0  0
 36 37  1  0  0  0  0
 36 39  1  0  0  0  0
 38 36  1  0  0  0  0
 39 40  1  0  0  0  0
 40 41  1  0  0  0  0
 40 42  2  0  0  0  0
 42 43  1  0  0  0  0
 44 42  1  0  0  0  0
 45 44  2  0  0  0  0
 46 45  1  0  0  0  0
 46 39  2  0  0  0  0
M  END
>  <minimizedAffinity>
-5.72598886

$$$$

 OpenBabel03252507233D

 46 49  0  0  1  0  0  0  0  0999 V2000
   37.9390   29.3470   39.7660 C   0  0  0  0  0  0  0  0  0  0  0  0
   37.7340   28.8090   38.6440 O   0  0  0  0  0  0  0  0  0  0  0  0
   37.8870   28.6450   40.9960 N   0  0  0  0  0  0  0  0  0  0  0  0
   38.7890   28.6960   42.1600 C   0  0  0  0  0  0  0  0  0  0  0  0
   37.9680   28.9530   43.4190 C   0  0  0  0  0  0  0  0  0  0  0  0
   37.0690   27.7900   43.6790 C   0  0  0  0  0  0  0  0  0  0  0  0
   36.9610   26.9290   42.4430 C   0  0  0  0  0  0  0  0  0  0  0  0
   36.8110   27.7160   41.1910 C   0  0  2  0  0  0  0  0  0  0  0  0
   39.2810   27.7120   42.2930 H   0  0  0  0  0  0  0  0  0  0  0  0
   39.5340   29.5140   42.0520 H   0  0  0  0  0  0  0  0  0  0  0  0
   38.6280   29.2200   44.2440 H   0  0  0  0  0  0  0  0  0  0  0  0
   37.3280   29.8370   43.1560 H   0  0  0  0  0  0  0  0  0  0  0  0
   36.0940   28.1120   44.0520 H   0  0  0  0  0  0  0  0  0  0  0  0
   37.5750   27.1800   44.4670 H   0  0  0  0  0  0  0  0  0  0  0  0
   37.7420   26.1490   42.4000 H   0  0  0  0  0  0  0  0  0  0  0  0
   35.9870   26.3690   42.5760 H   0  0  0  0  0  0  0  0  0  0  0  0
   35.8900   28.3600   41.3360 H   0  0  0  0  0  0  0  0  0  0  0  0
   37.2280   31.6450   40.2080 C   0  0  0  0  0  0  0  0  0  0  0  0
   38.2440   30.7590   39.7820 C   0  0  0  0  0  0  0  0  0  0  0  0
   39.4850   31.2450   39.3940 C   0  0  0  0  0  0  0  0  0  0  0  0
   39.6710   32.5830   39.4450 N   0  0  0  0  0  0  0  0  0  0  0  0
   38.7080   33.4560   39.8530 C   0  0  0  0  0  0  0  0  0  0  0  0
   37.5000   32.9640   40.2280 N   0  0  0  0  0  0  0  0  0  0  0  0
   36.2700   31.2410   40.5050 H   0  0  0  0  0  0  0  0  0  0  0  0
   38.8910   34.5210   39.8810 H   0  0  0  0  0  0  0  0  0  0  0  0
   40.4920   30.3120   38.9600 C   0  0  0  0  0  0  0  0  0  0  0  0
   40.6940   30.0740   37.6450 C   0  0  0  0  0  0  0  0  0  0  0  0
   41.6670   29.1750   37.2570 C   0  0  0  0  0  0  0  0  0  0  0  0
   42.4630   28.4880   38.1730 C   0  0  0  0  0  0  0  0  0  0  0  0
   42.2150   28.7670   39.5110 C   0  0  0  0  0  0  0  0  0  0  0  0
   41.2620   29.6460   39.8480 N   0  0  0  0  0  0  0  0  0  0  0  0
   40.1640   30.5170   36.8200 H   0  0  0  0  0  0  0  0  0  0  0  0
   41.8750   28.9440   36.2160 H   0  0  0  0  0  0  0  0  0  0  0  0
   43.2230   27.7850   37.8690 H   0  0  0  0  0  0  0  0  0  0  0  0
   42.7780   28.2870   40.2920 H   0  0  0  0  0  0  0  0  0  0  0  0
   36.5310   26.8210   40.0400 C   0  0  0  0  0  0  0  0  0  0  0  0
   35.5040   26.6420   39.7420 H   0  0  0  0  0  0  0  0  0  0  0  0
   36.9920   27.2610   39.1300 H   0  0  0  0  0  0  0  0  0  0  0  0
   37.2610   25.4950   40.1820 C   0  0  0  0  0  0  0  0  0  0  0  0
   36.6140   24.3540   40.6210 C   0  0  0  0  0  0  0  0  0  0  0  0
   35.5620   24.4140   40.8630 H   0  0  0  0  0  0  0  0  0  0  0  0
   37.4130   23.2380   40.7000 C   0  0  0  0  0  0  0  0  0  0  0  0
   36.9400   22.3130   41.0430 H   0  0  0  0  0  0  0  0  0  0  0  0
   38.7370   23.3230   40.3550 C   0  0  0  0  0  3  0  0  0  0  0  0
   39.3300   24.5020   39.9200 C   0  0  0  0  0  3  0  0  0  0  0  0
   38.5580   25.6070   39.8370 N   0  0  0  0  0  0  0  0  0  0  0  0
  1 19  1  0  0  0  0
  1  3  1  0  0  0  0
  2  1  2  0  0  0  0
  3  8  1  0  0  0  0
  3  4  1  0  0  0  0
  4  9  1  0  0  0  0
  4  5  1  0  0  0  0
  5  6  1  0  0  0  0
  5 11  1  0  0  0  0
  6 13  1  0  0  0  0
  6 14  1  0  0  0  0
  7 16  1  0  0  0  0
  7  6  1  0  0  0  0
  8 17  1  1  0  0  0
  8  7  1  0  0  0  0
 10  4  1  0  0  0  0
 12  5  1  0  0  0  0
 15  7  1  0  0  0  0
 18 23  1  0  0  0  0
 18 24  1  0  0  0  0
 19 18  2  0  0  0  0
 20 21  2  0  0  0  0
 20 19  1  0  0  0  0
 21 22  1  0  0  0  0
 22 25  1  0  0  0  0
 22 23  2  0  0  0  0
 26 20  1  0  0  0  0
 26 31  1  0  0  0  0
 27 26  2  0  0  0  0
 28 27  1  0  0  0  0
 28 29  2  0  0  0  0
 29 30  1  0  0  0  0
 30 31  2  0  0  0  0
 30 35  1  0  0  0  0
 32 27  1  0  0  0  0
 33 28  1  0  0  0  0
 34 29  1  0  0  0  0
 36 39  1  0  0  0  0
 36  8  1  0  0  0  0
 37 36  1  0  0  0  0
 38 36  1  0  0  0  0
 39 40  1  0  0  0  0
 40 42  2  0  0  0  0
 40 41  1  0  0  0  0
 42 43  1  0  0  0  0
 44 42  1  0  0  0  0
 45 44  2  0  0  0  0
 46 45  1  0  0  0  0
 46 39  2  0  0  0  0
M  END
>  <minimizedAffinity>
-5.71436834

$$$$

 OpenBabel03252507233D

 46 49  0  0  1  0  0  0  0  0999 V2000
   40.1900   28.9150   40.0210 C   0  0  0  0  0  0  0  0  0  0  0  0
   39.7520   28.2620   39.0360 O   0  0  0  0  0  0  0  0  0  0  0  0
   41.0480   28.3690   41.0080 N   0  0  0  0  0  0  0  0  0  0  0  0
   42.2540   28.9340   41.6390 C   0  0  0  0  0  0  0  0  0  0  0  0
   42.1090   28.8610   43.1550 C   0  0  0  0  0  0  0  0  0  0  0  0
   42.0810   27.4320   43.5880 C   0  0  0  0  0  0  0  0  0  0  0  0
   41.8100   26.5350   42.4040 C   0  0  0  0  0  0  0  0  0  0  0  0
   40.7490   27.0560   41.5020 C   0  0  2  0  0  0  0  0  0  0  0  0
   43.1380   28.3200   41.3700 H   0  0  0  0  0  0  0  0  0  0  0  0
   42.3950   29.9990   41.3490 H   0  0  0  0  0  0  0  0  0  0  0  0
   42.8740   29.4730   43.6310 H   0  0  0  0  0  0  0  0  0  0  0  0
   41.0990   29.3070   43.3570 H   0  0  0  0  0  0  0  0  0  0  0  0
   41.3730   27.2750   44.4040 H   0  0  0  0  0  0  0  0  0  0  0  0
   43.1120   27.2010   43.9520 H   0  0  0  0  0  0  0  0  0  0  0  0
   42.7350   26.2240   41.8870 H   0  0  0  0  0  0  0  0  0  0  0  0
   41.3910   25.5880   42.8610 H   0  0  0  0  0  0  0  0  0  0  0  0
   39.8280   27.1890   42.1490 H   0  0  0  0  0  0  0  0  0  0  0  0
   40.5090   31.2580   39.3950 C   0  0  0  0  0  0  0  0  0  0  0  0
   39.7850   30.2980   40.1380 C   0  0  0  0  0  0  0  0  0  0  0  0
   38.7260   30.6850   40.9470 C   0  0  0  0  0  0  0  0  0  0  0  0
   38.4260   32.0030   40.9880 N   0  0  0  0  0  0  0  0  0  0  0  0
   39.1080   32.9460   40.2810 C   0  0  0  0  0  0  0  0  0  0  0  0
   40.1410   32.5510   39.4950 N   0  0  0  0  0  0  0  0  0  0  0  0
   41.3300   30.9300   38.7720 H   0  0  0  0  0  0  0  0  0  0  0  0
   38.8410   33.9920   40.3370 H   0  0  0  0  0  0  0  0  0  0  0  0
   38.0180   29.6780   41.6930 C   0  0  0  0  0  0  0  0  0  0  0  0
   38.3250   29.4310   42.9860 C   0  0  0  0  0  0  0  0  0  0  0  0
   37.6280   28.4600   43.6780 C   0  0  0  0  0  0  0  0  0  0  0  0
   36.6070   27.7110   43.0960 C   0  0  0  0  0  0  0  0  0  0  0  0
   36.3300   28.0030   41.7670 C   0  0  0  0  0  0  0  0  0  0  0  0
   37.0280   28.9520   41.1290 N   0  0  0  0  0  0  0  0  0  0  0  0
   39.0850   29.9160   43.5740 H   0  0  0  0  0  0  0  0  0  0  0  0
   37.8310   28.2170   44.7180 H   0  0  0  0  0  0  0  0  0  0  0  0
   36.0630   26.9520   43.6380 H   0  0  0  0  0  0  0  0  0  0  0  0
   35.5590   27.4770   41.2310 H   0  0  0  0  0  0  0  0  0  0  0  0
   40.4040   26.0520   40.4650 C   0  0  0  0  0  0  0  0  0  0  0  0
   40.4420   26.3330   39.4180 H   0  0  0  0  0  0  0  0  0  0  0  0
   41.1270   25.2110   40.5320 H   0  0  0  0  0  0  0  0  0  0  0  0
   39.0750   25.3810   40.7660 C   0  0  0  0  0  0  0  0  0  0  0  0
   38.8070   24.8240   42.0030 C   0  0  0  0  0  0  0  0  0  0  0  0
   39.5660   24.8760   42.7720 H   0  0  0  0  0  0  0  0  0  0  0  0
   37.5620   24.2510   42.1150 C   0  0  0  0  0  0  0  0  0  0  0  0
   37.3110   23.7980   43.0790 H   0  0  0  0  0  0  0  0  0  0  0  0
   36.7070   24.2660   41.0440 C   0  0  0  0  0  3  0  0  0  0  0  0
   37.0360   24.8430   39.8240 C   0  0  0  0  0  3  0  0  0  0  0  0
   38.2550   25.4110   39.6980 N   0  0  0  0  0  0  0  0  0  0  0  0
  1 19  1  0  0  0  0
  1  3  1  0  0  0  0
  2  1  2  0  0  0  0
  3  8  1  0  0  0  0
  3  4  1  0  0  0  0
  4  5  1  0  0  0  0
  5 12  1  0  0  0  0
  5  6  1  0  0  0  0
  5 11  1  0  0  0  0
  6 14  1  0  0  0  0
  6 13  1  0  0  0  0
  7 16  1  0  0  0  0
  7  6  1  0  0  0  0
  8 17  1  1  0  0  0
  8  7  1  0  0  0  0
  9  4  1  0  0  0  0
 10  4  1  0  0  0  0
 15  7  1  0  0  0  0
 18 23  2  0  0  0  0
 18 19  1  0  0  0  0
 19 20  2  0  0  0  0
 20 21  1  0  0  0  0
 20 26  1  0  0  0  0
 22 25  1  0  0  0  0
 22 21  2  0  0  0  0
 23 22  1  0  0  0  0
 24 18  1  0  0  0  0
 26 27  1  0  0  0  0
 27 32  1  0  0  0  0
 27 28  2  0  0  0  0
 28 33  1  0  0  0  0
 29 34  1  0  0  0  0
 29 28  1  0  0  0  0
 30 29  2  0  0  0  0
 31 26  2  0  0  0  0
 31 30  1  0  0  0  0
 35 30  1  0  0  0  0
 36 38  1  0  0  0  0
 36 39  1  0  0  0  0
 36  8  1  0  0  0  0
 37 36  1  0  0  0  0
 39 40  1  0  0  0  0
 40 42  2  0  0  0  0
 40 41  1  0  0  0  0
 42 43  1  0  0  0  0
 44 42  1  0  0  0  0
 45 44  2  0  0  0  0
 46 45  1  0  0  0  0
 46 39  2  0  0  0  0
M  END
>  <minimizedAffinity>
-5.61829996

$$$$

 OpenBabel03252507233D

 46 49  0  0  1  0  0  0  0  0999 V2000
   40.1200   26.3990   40.0590 C   0  0  0  0  0  0  0  0  0  0  0  0
   40.2180   27.2730   39.1560 O   0  0  0  0  0  0  0  0  0  0  0  0
   39.0160   25.5180   40.1850 N   0  0  0  0  0  0  0  0  0  0  0  0
   38.9790   24.0710   40.4600 C   0  0  0  0  0  0  0  0  0  0  0  0
   38.0440   23.8090   41.6360 C   0  0  0  0  0  0  0  0  0  0  0  0
   36.6450   24.1650   41.2540 C   0  0  0  0  0  0  0  0  0  0  0  0
   36.6470   25.0200   40.0090 C   0  0  0  0  0  0  0  0  0  0  0  0
   37.7010   26.0670   40.0170 C   0  0  2  0  0  0  0  0  0  0  0  0
   38.5550   23.5370   39.5860 H   0  0  0  0  0  0  0  0  0  0  0  0
   39.9890   23.6890   40.7220 H   0  0  0  0  0  0  0  0  0  0  0  0
   38.1790   22.7900   41.9970 H   0  0  0  0  0  0  0  0  0  0  0  0
   38.3840   24.5300   42.4260 H   0  0  0  0  0  0  0  0  0  0  0  0
   36.1100   24.6330   42.0830 H   0  0  0  0  0  0  0  0  0  0  0  0
   36.1420   23.2000   40.9950 H   0  0  0  0  0  0  0  0  0  0  0  0
   36.6090   24.4200   39.0820 H   0  0  0  0  0  0  0  0  0  0  0  0
   35.6600   25.5720   40.0480 H   0  0  0  0  0  0  0  0  0  0  0  0
   37.5200   26.6840   40.9510 H   0  0  0  0  0  0  0  0  0  0  0  0
   42.3660   25.6010   40.6120 C   0  0  0  0  0  0  0  0  0  0  0  0
   41.2020   26.2990   41.0110 C   0  0  0  0  0  0  0  0  0  0  0  0
   41.1180   26.8610   42.2770 C   0  0  0  0  0  0  0  0  0  0  0  0
   42.1850   26.7130   43.0940 N   0  0  0  0  0  0  0  0  0  0  0  0
   43.3160   26.0460   42.7320 C   0  0  0  0  0  0  0  0  0  0  0  0
   43.3820   25.5020   41.4910 N   0  0  0  0  0  0  0  0  0  0  0  0
   42.4050   25.1720   39.6200 H   0  0  0  0  0  0  0  0  0  0  0  0
   44.1510   25.9460   43.4110 H   0  0  0  0  0  0  0  0  0  0  0  0
   39.9150   27.5590   42.6490 C   0  0  0  0  0  0  0  0  0  0  0  0
   38.9350   26.9290   43.3350 C   0  0  0  0  0  0  0  0  0  0  0  0
   37.7920   27.6230   43.6800 C   0  0  0  0  0  0  0  0  0  0  0  0
   37.5970   28.9620   43.3460 C   0  0  0  0  0  0  0  0  0  0  0  0
   38.6320   29.5620   42.6410 C   0  0  0  0  0  0  0  0  0  0  0  0
   39.7260   28.8570   42.3250 N   0  0  0  0  0  0  0  0  0  0  0  0
   38.9300   25.9040   43.6610 H   0  0  0  0  0  0  0  0  0  0  0  0
   36.9710   27.1710   44.2300 H   0  0  0  0  0  0  0  0  0  0  0  0
   36.7030   29.5030   43.6150 H   0  0  0  0  0  0  0  0  0  0  0  0
   38.5740   30.5930   42.3380 H   0  0  0  0  0  0  0  0  0  0  0  0
   37.5390   26.9830   38.8600 C   0  0  0  0  0  0  0  0  0  0  0  0
   38.3550   27.6410   38.5830 H   0  0  0  0  0  0  0  0  0  0  0  0
   37.3780   26.3720   37.9460 H   0  0  0  0  0  0  0  0  0  0  0  0
   36.2510   27.7820   38.9640 C   0  0  0  0  0  0  0  0  0  0  0  0
   35.9630   28.5520   40.0770 C   0  0  0  0  0  0  0  0  0  0  0  0
   36.6790   28.5850   40.8860 H   0  0  0  0  0  0  0  0  0  0  0  0
   34.7560   29.2100   40.0200 C   0  0  0  0  0  0  0  0  0  0  0  0
   34.4900   29.8300   40.8810 H   0  0  0  0  0  0  0  0  0  0  0  0
   33.9550   29.0670   38.9180 C   0  0  0  0  0  3  0  0  0  0  0  0
   34.3010   28.2760   37.8300 C   0  0  0  0  0  3  0  0  0  0  0  0
   35.4830   27.6230   37.8700 N   0  0  0  0  0  0  0  0  0  0  0  0
  1  3  1  0  0  0  0
  1 19  1  0  0  0  0
  2  1  2  0  0  0  0
  3  4  1  0  0  0  0
  4 10  1  0  0  0  0
  4  5  1  0  0  0  0
  5 11  1  0  0  0  0
  5 12  1  0  0  0  0
  6  5  1  0  0  0  0
  6 13  1  0  0  0  0
  7  8  1  0  0  0  0
  7 16  1  0  0  0  0
  7  6  1  0  0  0  0
  8  3  1  0  0  0  0
  8 17  1  1  0  0  0
  9  4  1  0  0  0  0
 14  6  1  0  0  0  0
 15  7  1  0  0  0  0
 18 19  2  0  0  0  0
 18 23  1  0  0  0  0
 19 20  1  0  0  0  0
 20 26  1  0  0  0  0
 20 21  2  0  0  0  0
 22 21  1  0  0  0  0
 22 25  1  0  0  0  0
 23 22  2  0  0  0  0
 24 18  1  0  0  0  0
 26 27  1  0  0  0  0
 27 32  1  0  0  0  0
 27 28  2  0  0  0  0
 28 33  1  0  0  0  0
 29 34  1  0  0  0  0
 29 28  1  0  0  0  0
 30 29  2  0  0  0  0
 31 30  1  0  0  0  0
 31 26  2  0  0  0  0
 35 30  1  0  0  0  0
 36 39  1  0  0  0  0
 36  8  1  0  0  0  0
 37 36  1  0  0  0  0
 38 36  1  0  0  0  0
 39 40  1  0  0  0  0
 40 41  1  0  0  0  0
 42 40  2  0  0  0  0
 42 43  1  0  0  0  0
 44 42  1  0  0  0  0
 45 46  1  0  0  0  0
 45 44  2  0  0  0  0
 46 39  2  0  0  0  0
M  END
>  <minimizedAffinity>
-5.58175707

$$$$

 OpenBabel03252507233D

 46 49  0  0  1  0  0  0  0  0999 V2000
   38.0760   27.5100   39.3840 C   0  0  0  0  0  0  0  0  0  0  0  0
   38.7510   28.0770   38.4840 O   0  0  0  0  0  0  0  0  0  0  0  0
   37.7220   28.1280   40.6100 N   0  0  0  0  0  0  0  0  0  0  0  0
   36.4420   28.1330   41.3390 C   0  0  0  0  0  0  0  0  0  0  0  0
   36.6830   27.6980   42.7800 C   0  0  0  0  0  0  0  0  0  0  0  0
   37.5270   28.7120   43.4760 C   0  0  0  0  0  0  0  0  0  0  0  0
   38.1910   29.6190   42.4670 C   0  0  0  0  0  0  0  0  0  0  0  0
   38.7300   28.8910   41.2890 C   0  0  2  0  0  0  0  0  0  0  0  0
   36.0400   29.1660   41.3780 H   0  0  0  0  0  0  0  0  0  0  0  0
   35.7160   27.4310   40.8750 H   0  0  0  0  0  0  0  0  0  0  0  0
   35.7320   27.4760   43.2640 H   0  0  0  0  0  0  0  0  0  0  0  0
   37.2800   26.7520   42.6860 H   0  0  0  0  0  0  0  0  0  0  0  0
   38.2450   28.2420   44.1520 H   0  0  0  0  0  0  0  0  0  0  0  0
   36.8220   29.3400   44.0750 H   0  0  0  0  0  0  0  0  0  0  0  0
   37.5710   30.4980   42.2150 H   0  0  0  0  0  0  0  0  0  0  0  0
   39.0900   30.0350   43.0130 H   0  0  0  0  0  0  0  0  0  0  0  0
   39.4520   28.1220   41.7020 H   0  0  0  0  0  0  0  0  0  0  0  0
   38.3070   25.1170   39.8370 C   0  0  0  0  0  0  0  0  0  0  0  0
   37.6450   26.1530   39.1390 C   0  0  0  0  0  0  0  0  0  0  0  0
   36.6190   25.8600   38.2500 C   0  0  0  0  0  0  0  0  0  0  0  0
   36.2900   24.5580   38.0910 N   0  0  0  0  0  0  0  0  0  0  0  0
   36.9130   23.5430   38.7530 C   0  0  0  0  0  0  0  0  0  0  0  0
   37.9140   23.8470   39.6170 N   0  0  0  0  0  0  0  0  0  0  0  0
   39.1030   25.3730   40.5230 H   0  0  0  0  0  0  0  0  0  0  0  0
   36.6240   22.5130   38.6000 H   0  0  0  0  0  0  0  0  0  0  0  0
   35.9730   26.9410   37.5540 C   0  0  0  0  0  0  0  0  0  0  0  0
   34.9450   27.6120   38.1200 C   0  0  0  0  0  0  0  0  0  0  0  0
   34.3440   28.6460   37.4300 C   0  0  0  0  0  0  0  0  0  0  0  0
   34.7540   29.0350   36.1550 C   0  0  0  0  0  0  0  0  0  0  0  0
   35.8130   28.3150   35.6180 C   0  0  0  0  0  0  0  0  0  0  0  0
   36.3710   27.3180   36.3190 N   0  0  0  0  0  0  0  0  0  0  0  0
   34.5110   27.4320   39.0870 H   0  0  0  0  0  0  0  0  0  0  0  0
   33.5150   29.2200   37.8330 H   0  0  0  0  0  0  0  0  0  0  0  0
   34.2840   29.8430   35.6160 H   0  0  0  0  0  0  0  0  0  0  0  0
   36.2000   28.5410   34.6400 H   0  0  0  0  0  0  0  0  0  0  0  0
   39.5220   29.8040   40.4270 C   0  0  0  0  0  0  0  0  0  0  0  0
   40.5590   30.0010   40.6710 H   0  0  0  0  0  0  0  0  0  0  0  0
   39.5750   29.3680   39.4060 H   0  0  0  0  0  0  0  0  0  0  0  0
   38.7920   31.1170   40.1960 C   0  0  0  0  0  0  0  0  0  0  0  0
   37.6790   31.1940   39.3790 C   0  0  0  0  0  0  0  0  0  0  0  0
   37.3220   30.2930   38.9000 H   0  0  0  0  0  0  0  0  0  0  0  0
   37.1370   32.4530   39.2680 C   0  0  0  0  0  0  0  0  0  0  0  0
   36.2540   32.5580   38.6310 H   0  0  0  0  0  0  0  0  0  0  0  0
   37.7080   33.5010   39.9420 C   0  0  0  0  0  3  0  0  0  0  0  0
   38.8300   33.3590   40.7490 C   0  0  0  0  0  3  0  0  0  0  0  0
   39.3740   32.1280   40.8680 N   0  0  0  0  0  0  0  0  0  0  0  0
  1  3  1  0  0  0  0
  2  1  2  0  0  0  0
  3  8  1  0  0  0  0
  3  4  1  0  0  0  0
  4  9  1  0  0  0  0
  4  5  1  0  0  0  0
  5 11  1  0  0  0  0
  5  6  1  0  0  0  0
  6 14  1  0  0  0  0
  6 13  1  0  0  0  0
  7 16  1  0  0  0  0
  7  6  1  0  0  0  0
  8 17  1  1  0  0  0
  8  7  1  0  0  0  0
 10  4  1  0  0  0  0
 12  5  1  0  0  0  0
 15  7  1  0  0  0  0
 18 24  1  0  0  0  0
 19  1  1  0  0  0  0
 19 18  2  0  0  0  0
 20 19  1  0  0  0  0
 21 20  2  0  0  0  0
 21 22  1  0  0  0  0
 22 23  2  0  0  0  0
 23 18  1  0  0  0  0
 25 22  1  0  0  0  0
 26 27  1  0  0  0  0
 26 20  1  0  0  0  0
 27 32  1  0  0  0  0
 28 33  1  0  0  0  0
 28 27  2  0  0  0  0
 29 28  1  0  0  0  0
 30 29  2  0  0  0  0
 30 31  1  0  0  0  0
 31 26  2  0  0  0  0
 34 29  1  0  0  0  0
 35 30  1  0  0  0  0
 36 37  1  0  0  0  0
 36  8  1  0  0  0  0
 38 36  1  0  0  0  0
 39 36  1  0  0  0  0
 39 46  1  0  0  0  0
 40 39  2  0  0  0  0
 41 40  1  0  0  0  0
 42 40  1  0  0  0  0
 42 44  2  0  0  0  0
 43 42  1  0  0  0  0
 44 45  1  0  0  0  0
 45 46  2  0  0  0  0
M  END
>  <minimizedAffinity>
-5.5271163

$$$$

 OpenBabel03252507233D

 46 49  0  0  1  0  0  0  0  0999 V2000
   37.5780   27.8850   41.0130 C   0  0  0  0  0  0  0  0  0  0  0  0
   37.3970   28.4770   42.1110 O   0  0  0  0  0  0  0  0  0  0  0  0
   37.6570   28.5500   39.7640 N   0  0  0  0  0  0  0  0  0  0  0  0
   38.5890   28.3570   38.6390 C   0  0  0  0  0  0  0  0  0  0  0  0
   37.7920   28.1610   37.3550 C   0  0  0  0  0  0  0  0  0  0  0  0
   37.0490   29.4150   37.0290 C   0  0  0  0  0  0  0  0  0  0  0  0
   36.9990   30.3190   38.2370 C   0  0  0  0  0  0  0  0  0  0  0  0
   36.7080   29.5940   39.5020 C   0  0  2  0  0  0  0  0  0  0  0  0
   39.2010   29.2710   38.5020 H   0  0  0  0  0  0  0  0  0  0  0  0
   39.2260   27.4600   38.7990 H   0  0  0  0  0  0  0  0  0  0  0  0
   38.4450   27.7930   36.5650 H   0  0  0  0  0  0  0  0  0  0  0  0
   37.0410   27.3680   37.6140 H   0  0  0  0  0  0  0  0  0  0  0  0
   36.0570   29.2000   36.6250 H   0  0  0  0  0  0  0  0  0  0  0  0
   37.6540   29.9360   36.2470 H   0  0  0  0  0  0  0  0  0  0  0  0
   37.8660   31.0020   38.2920 H   0  0  0  0  0  0  0  0  0  0  0  0
   36.1050   30.9870   38.0500 H   0  0  0  0  0  0  0  0  0  0  0  0
   35.7230   29.0600   39.3350 H   0  0  0  0  0  0  0  0  0  0  0  0
   36.6150   25.6750   40.5970 C   0  0  0  0  0  0  0  0  0  0  0  0
   37.7120   26.4470   41.0460 C   0  0  0  0  0  0  0  0  0  0  0  0
   38.8690   25.8290   41.4990 C   0  0  0  0  0  0  0  0  0  0  0  0
   38.8950   24.4760   41.4900 N   0  0  0  0  0  0  0  0  0  0  0  0
   37.8510   23.7130   41.0620 C   0  0  0  0  0  0  0  0  0  0  0  0
   36.7270   24.3330   40.6230 N   0  0  0  0  0  0  0  0  0  0  0  0
   35.7250   26.1820   40.2490 H   0  0  0  0  0  0  0  0  0  0  0  0
   37.9060   22.6330   41.0690 H   0  0  0  0  0  0  0  0  0  0  0  0
   39.9620   26.6480   41.9530 C   0  0  0  0  0  0  0  0  0  0  0  0
   40.1510   26.8790   43.2720 C   0  0  0  0  0  0  0  0  0  0  0  0
   41.2090   27.6680   43.6790 C   0  0  0  0  0  0  0  0  0  0  0  0
   42.1030   28.2480   42.7810 C   0  0  0  0  0  0  0  0  0  0  0  0
   41.8650   27.9800   41.4390 C   0  0  0  0  0  0  0  0  0  0  0  0
   40.8280   27.2090   41.0820 N   0  0  0  0  0  0  0  0  0  0  0  0
   39.5510   26.5110   44.0850 H   0  0  0  0  0  0  0  0  0  0  0  0
   41.4110   27.8890   44.7240 H   0  0  0  0  0  0  0  0  0  0  0  0
   42.9290   28.8640   43.1000 H   0  0  0  0  0  0  0  0  0  0  0  0
   42.5000   28.3830   40.6700 H   0  0  0  0  0  0  0  0  0  0  0  0
   36.4950   30.5510   40.6170 C   0  0  0  0  0  0  0  0  0  0  0  0
   35.4940   30.9140   40.8230 H   0  0  0  0  0  0  0  0  0  0  0  0
   36.7920   30.0580   41.5670 H   0  0  0  0  0  0  0  0  0  0  0  0
   37.4570   31.7240   40.5290 C   0  0  0  0  0  0  0  0  0  0  0  0
   37.0890   32.9210   39.9410 C   0  0  0  0  0  0  0  0  0  0  0  0
   36.0900   33.0180   39.5410 H   0  0  0  0  0  0  0  0  0  0  0  0
   38.0730   33.8820   39.9360 C   0  0  0  0  0  0  0  0  0  0  0  0
   37.8230   34.8440   39.4800 H   0  0  0  0  0  0  0  0  0  0  0  0
   39.2970   33.6050   40.4880 C   0  0  0  0  0  3  0  0  0  0  0  0
   39.6060   32.3790   41.0640 C   0  0  0  0  0  3  0  0  0  0  0  0
   38.6500   31.4250   41.0770 N   0  0  0  0  0  0  0  0  0  0  0  0
  1 19  1  0  0  0  0
  1  2  2  0  0  0  0
  3  1  1  0  0  0  0
  4 10  1  0  0  0  0
  4  3  1  0  0  0  0
  5 12  1  0  0  0  0
  5  4  1  0  0  0  0
  6  5  1  0  0  0  0
  6  7  1  0  0  0  0
  7 15  1  0  0  0  0
  7  8  1  0  0  0  0
  8 17  1  6  0  0  0
  8  3  1  0  0  0  0
  8 36  1  0  0  0  0
  9  4  1  0  0  0  0
 11  5  1  0  0  0  0
 13  6  1  0  0  0  0
 14  6  1  0  0  0  0
 16  7  1  0  0  0  0
 18 23  2  0  0  0  0
 18 19  1  0  0  0  0
 19 20  2  0  0  0  0
 20 26  1  0  0  0  0
 21 20  1  0  0  0  0
 22 25  1  0  0  0  0
 22 21  2  0  0  0  0
 23 22  1  0  0  0  0
 24 18  1  0  0  0  0
 26 27  1  0  0  0  0
 27 28  2  0  0  0  0
 27 32  1  0  0  0  0
 28 33  1  0  0  0  0
 29 34  1  0  0  0  0
 29 28  1  0  0  0  0
 30 29  2  0  0  0  0
 31 30  1  0  0  0  0
 31 26  2  0  0  0  0
 35 30  1  0  0  0  0
 36 37  1  0  0  0  0
 36 38  1  0  0  0  0
 39 36  1  0  0  0  0
 39 46  1  0  0  0  0
 40 39  2  0  0  0  0
 41 40  1  0  0  0  0
 42 40  1  0  0  0  0
 42 44  2  0  0  0  0
 43 42  1  0  0  0  0
 44 45  1  0  0  0  0
 45 46  2  0  0  0  0
M  END
>  <minimizedAffinity>
-5.43916368

$$$$

 OpenBabel03252507233D

 46 49  0  0  1  0  0  0  0  0999 V2000
   37.3160   28.8400   38.8840 C   0  0  0  0  0  0  0  0  0  0  0  0
   38.3750   28.1570   38.9340 O   0  0  0  0  0  0  0  0  0  0  0  0
   36.0580   28.3130   38.5000 N   0  0  0  0  0  0  0  0  0  0  0  0
   34.7230   28.5100   39.0920 C   0  0  0  0  0  0  0  0  0  0  0  0
   33.7510   28.9470   38.0020 C   0  0  0  0  0  0  0  0  0  0  0  0
   33.5750   27.8420   37.0130 C   0  0  0  0  0  0  0  0  0  0  0  0
   34.6780   26.8230   37.1700 C   0  0  0  0  0  0  0  0  0  0  0  0
   36.0190   27.4330   37.3670 C   0  0  2  0  0  0  0  0  0  0  0  0
   34.3460   27.5460   39.4910 H   0  0  0  0  0  0  0  0  0  0  0  0
   34.7470   29.2950   39.8780 H   0  0  0  0  0  0  0  0  0  0  0  0
   32.8290   29.3150   38.4530 H   0  0  0  0  0  0  0  0  0  0  0  0
   34.2750   29.7950   37.4880 H   0  0  0  0  0  0  0  0  0  0  0  0
   33.5000   28.2250   35.9930 H   0  0  0  0  0  0  0  0  0  0  0  0
   32.6140   27.3380   37.2830 H   0  0  0  0  0  0  0  0  0  0  0  0
   34.4250   26.0330   37.9010 H   0  0  0  0  0  0  0  0  0  0  0  0
   34.7190   26.2990   36.1680 H   0  0  0  0  0  0  0  0  0  0  0  0
   36.1900   28.1040   36.4700 H   0  0  0  0  0  0  0  0  0  0  0  0
   37.2160   31.1900   38.2150 C   0  0  0  0  0  0  0  0  0  0  0  0
   37.4070   30.2370   39.2410 C   0  0  0  0  0  0  0  0  0  0  0  0
   37.6730   30.6450   40.5410 C   0  0  0  0  0  0  0  0  0  0  0  0
   37.7370   31.9750   40.7730 N   0  0  0  0  0  0  0  0  0  0  0  0
   37.5560   32.9120   39.8010 C   0  0  0  0  0  0  0  0  0  0  0  0
   37.2980   32.4970   38.5360 N   0  0  0  0  0  0  0  0  0  0  0  0
   37.0110   30.8460   37.2110 H   0  0  0  0  0  0  0  0  0  0  0  0
   37.6150   33.9690   40.0220 H   0  0  0  0  0  0  0  0  0  0  0  0
   37.8670   29.6440   41.5570 C   0  0  0  0  0  0  0  0  0  0  0  0
   36.8120   28.9880   42.0920 C   0  0  0  0  0  0  0  0  0  0  0  0
   37.0280   28.0320   43.0640 C   0  0  0  0  0  0  0  0  0  0  0  0
   38.3020   27.7070   43.5290 C   0  0  0  0  0  0  0  0  0  0  0  0
   39.3500   28.4090   42.9480 C   0  0  0  0  0  0  0  0  0  0  0  0
   39.1010   29.3290   42.0070 N   0  0  0  0  0  0  0  0  0  0  0  0
   35.7750   29.1250   41.8470 H   0  0  0  0  0  0  0  0  0  0  0  0
   36.2210   27.4730   43.5310 H   0  0  0  0  0  0  0  0  0  0  0  0
   38.4690   26.9600   44.2900 H   0  0  0  0  0  0  0  0  0  0  0  0
   40.3700   28.2290   43.2410 H   0  0  0  0  0  0  0  0  0  0  0  0
   37.0770   26.3940   37.3350 C   0  0  0  0  0  0  0  0  0  0  0  0
   37.4910   26.0840   36.3820 H   0  0  0  0  0  0  0  0  0  0  0  0
   37.9630   26.7740   37.8890 H   0  0  0  0  0  0  0  0  0  0  0  0
   36.6740   25.1690   38.1400 C   0  0  0  0  0  0  0  0  0  0  0  0
   36.5690   25.2100   39.5190 C   0  0  0  0  0  0  0  0  0  0  0  0
   36.7760   26.1410   40.0290 H   0  0  0  0  0  0  0  0  0  0  0  0
   36.2000   24.0200   40.0990 C   0  0  0  0  0  0  0  0  0  0  0  0
   36.1050   24.0090   41.1890 H   0  0  0  0  0  0  0  0  0  0  0  0
   35.9710   22.9210   39.3130 C   0  0  0  0  0  3  0  0  0  0  0  0
   36.0950   22.9440   37.9290 C   0  0  0  0  0  3  0  0  0  0  0  0
   36.4560   24.1060   37.3440 N   0  0  0  0  0  0  0  0  0  0  0  0
  1  2  2  0  0  0  0
  1 19  1  0  0  0  0
  3  1  1  0  0  0  0
  3  4  1  0  0  0  0
  4  9  1  0  0  0  0
  4 10  1  0  0  0  0
  5 11  1  0  0  0  0
  5  4  1  0  0  0  0
  6  7  1  0  0  0  0
  6 14  1  0  0  0  0
  6  5  1  0  0  0  0
  7  8  1  0  0  0  0
  7 15  1  0  0  0  0
  8 17  1  6  0  0  0
  8  3  1  0  0  0  0
 12  5  1  0  0  0  0
 13  6  1  0  0  0  0
 16  7  1  0  0  0  0
 18 23  2  0  0  0  0
 18 19  1  0  0  0  0
 19 20  2  0  0  0  0
 20 21  1  0  0  0  0
 20 26  1  0  0  0  0
 22 25  1  0  0  0  0
 22 21  2  0  0  0  0
 23 22  1  0  0  0  0
 24 18  1  0  0  0  0
 26 31  2  0  0  0  0
 26 27  1  0  0  0  0
 27 28  2  0  0  0  0
 28 29  1  0  0  0  0
 28 33  1  0  0  0  0
 29 34  1  0  0  0  0
 30 35  1  0  0  0  0
 30 29  2  0  0  0  0
 31 30  1  0  0  0  0
 32 27  1  0  0  0  0
 36  8  1  0  0  0  0
 36 38  1  0  0  0  0
 36 39  1  0  0  0  0
 37 36  1  0  0  0  0
 39 40  1  0  0  0  0
 40 41  1  0  0  0  0
 40 42  2  0  0  0  0
 42 43  1  0  0  0  0
 44 42  1  0  0  0  0
 45 44  2  0  0  0  0
 46 45  1  0  0  0  0
 46 39  2  0  0  0  0
M  END
>  <minimizedAffinity>
-5.41884661

$$$$
