
 OpenBabel03252507223D

 46 49  0  0  1  0  0  0  0  0999 V2000
   46.7660   32.2520   44.1640 C   0  0  0  0  0  0  0  0  0  0  0  0
   48.0100   32.3210   44.3530 O   0  0  0  0  0  0  0  0  0  0  0  0
   46.1160   31.1270   43.5980 N   0  0  0  0  0  0  0  0  0  0  0  0
   44.8740   30.4440   43.9980 C   0  0  0  0  0  0  0  0  0  0  0  0
   43.9530   30.3300   42.7880 C   0  0  0  0  0  0  0  0  0  0  0  0
   44.5730   29.4350   41.7670 C   0  0  0  0  0  0  0  0  0  0  0  0
   46.0430   29.2480   42.0620 C   0  0  0  0  0  0  0  0  0  0  0  0
   46.7270   30.5070   42.4570 C   0  0  2  0  0  0  0  0  0  0  0  0
   45.1060   29.4100   44.3240 H   0  0  0  0  0  0  0  0  0  0  0  0
   44.3430   31.0130   44.7920 H   0  0  0  0  0  0  0  0  0  0  0  0
   42.9530   30.0410   43.1100 H   0  0  0  0  0  0  0  0  0  0  0  0
   43.9200   31.3700   42.3670 H   0  0  0  0  0  0  0  0  0  0  0  0
   44.3920   29.7970   40.7530 H   0  0  0  0  0  0  0  0  0  0  0  0
   44.0790   28.4390   41.8900 H   0  0  0  0  0  0  0  0  0  0  0  0
   46.2340   28.3950   42.7370 H   0  0  0  0  0  0  0  0  0  0  0  0
   46.4920   28.9490   41.0680 H   0  0  0  0  0  0  0  0  0  0  0  0
   46.5580   31.2340   41.6030 H   0  0  0  0  0  0  0  0  0  0  0  0
   45.5640   34.2880   43.5360 C   0  0  0  0  0  0  0  0  0  0  0  0
   45.9690   33.3930   44.5530 C   0  0  0  0  0  0  0  0  0  0  0  0
   45.6080   33.6180   45.8740 C   0  0  0  0  0  0  0  0  0  0  0  0
   44.8600   34.7150   46.1350 N   0  0  0  0  0  0  0  0  0  0  0  0
   44.4580   35.5900   45.1720 C   0  0  0  0  0  0  0  0  0  0  0  0
   44.8200   35.3560   43.8860 N   0  0  0  0  0  0  0  0  0  0  0  0
   45.8590   34.0900   42.5150 H   0  0  0  0  0  0  0  0  0  0  0  0
   43.8610   36.4580   45.4160 H   0  0  0  0  0  0  0  0  0  0  0  0
   46.0440   32.6880   46.8820 C   0  0  0  0  0  0  0  0  0  0  0  0
   45.2250   31.7030   47.3160 C   0  0  0  0  0  0  0  0  0  0  0  0
   45.6710   30.8240   48.2830 C   0  0  0  0  0  0  0  0  0  0  0  0
   46.9450   30.9060   48.8430 C   0  0  0  0  0  0  0  0  0  0  0  0
   47.7470   31.9340   48.3640 C   0  0  0  0  0  0  0  0  0  0  0  0
   47.2790   32.7680   47.4240 N   0  0  0  0  0  0  0  0  0  0  0  0
   44.2190   31.5100   46.9900 H   0  0  0  0  0  0  0  0  0  0  0  0
   45.0590   30.0140   48.6700 H   0  0  0  0  0  0  0  0  0  0  0  0
   47.2920   30.2190   49.5990 H   0  0  0  0  0  0  0  0  0  0  0  0
   48.7460   32.0790   48.7350 H   0  0  0  0  0  0  0  0  0  0  0  0
   48.1930   30.2970   42.5580 C   0  0  0  0  0  0  0  0  0  0  0  0
   48.7240   30.6570   43.4330 H   0  0  0  0  0  0  0  0  0  0  0  0
   48.3930   29.2040   42.5670 H   0  0  0  0  0  0  0  0  0  0  0  0
   48.9060   30.7620   41.3000 C   0  0  0  0  0  0  0  0  0  0  0  0
   49.9530   30.0460   40.7510 C   0  0  0  0  0  0  0  0  0  0  0  0
   50.2650   29.1290   41.2340 H   0  0  0  0  0  0  0  0  0  0  0  0
   50.4960   30.6020   39.6180 C   0  0  0  0  0  0  0  0  0  0  0  0
   51.3280   30.0660   39.1530 H   0  0  0  0  0  0  0  0  0  0  0  0
   49.9880   31.7760   39.1260 C   0  0  0  0  0  3  0  0  0  0  0  0
   48.9310   32.4500   39.7230 C   0  0  0  0  0  3  0  0  0  0  0  0
   48.3870   31.9160   40.8390 N   0  0  0  0  0  0  0  0  0  0  0  0
  1  2  2  0  0  0  0
  1 19  1  0  0  0  0
  3  4  1  0  0  0  0
  3  1  1  0  0  0  0
  4  9  1  0  0  0  0
  4 10  1  0  0  0  0
  5 11  1  0  0  0  0
  5  4  1  0  0  0  0
  6 14  1  0  0  0  0
  6  7  1  0  0  0  0
  6  5  1  0  0  0  0
  7  8  1  0  0  0  0
  7 15  1  0  0  0  0
  8 17  1  6  0  0  0
  8 36  1  0  0  0  0
  8  3  1  0  0  0  0
 12  5  1  0  0  0  0
 13  6  1  0  0  0  0
 16  7  1  0  0  0  0
 18 23  2  0  0  0  0
 18 19  1  0  0  0  0
 19 20  2  0  0  0  0
 20 21  1  0  0  0  0
 20 26  1  0  0  0  0
 22 25  1  0  0  0  0
 22 21  2  0  0  0  0
 23 22  1  0  0  0  0
 24 18  1  0  0  0  0
 26 27  2  0  0  0  0
 26 31  1  0  0  0  0
 27 28  1  0  0  0  0
 28 33  1  0  0  0  0
 28 29  2  0  0  0  0
 29 34  1  0  0  0  0
 30 35  1  0  0  0  0
 30 29  1  0  0  0  0
 31 30  2  0  0  0  0
 32 27  1  0  0  0  0
 36 38  1  0  0  0  0
 36 37  1  0  0  0  0
 39 36  1  0  0  0  0
 40 41  1  0  0  0  0
 40 39  2  0  0  0  0
 42 40  1  0  0  0  0
 43 42  1  0  0  0  0
 44 42  2  0  0  0  0
 44 45  1  0  0  0  0
 45 46  2  0  0  0  0
 46 39  1  0  0  0  0
M  END
>  <minimizedAffinity>
-4.5575614

>  <minimizedRMSD>
2.77865338

$$$$
