
 OpenBabel03252505303D

 26 27  0  0  0  0  0  0  0  0999 V2000
   46.9320   32.1990   48.3550 O   0  0  0  0  0  0  0  0  0  0  0  0
   45.9160   32.4500   47.2530 P   0  0  1  0  0  0  0  0  0  0  0  0
   44.6140   33.3640   47.8290 O   0  0  0  0  0  0  0  0  0  0  0  0
   44.3780   32.9890   48.7310 H   0  0  0  0  0  0  0  0  0  0  0  0
   46.7010   33.2450   45.9890 O   0  0  0  0  0  0  0  0  0  0  0  0
   44.4720   35.6470   44.6250 C   0  0  0  0  0  0  0  0  0  0  0  0
   44.8690   35.7920   43.2770 C   0  0  0  0  0  0  0  0  0  0  0  0
   45.9680   34.9920   42.8800 C   0  0  0  0  0  0  0  0  0  0  0  0
   46.5410   34.1700   43.8010 N   0  0  0  0  0  0  0  0  0  0  0  0
   46.1120   34.0840   45.0610 C   0  0  0  0  0  0  0  0  0  0  0  0
   45.0870   34.8100   45.4820 N   0  0  0  0  0  0  0  0  0  0  0  0
   43.6350   36.2280   45.0020 H   0  0  0  0  0  0  0  0  0  0  0  0
   44.3500   36.4680   42.6320 H   0  0  0  0  0  0  0  0  0  0  0  0
   46.3020   35.0730   41.8610 H   0  0  0  0  0  0  0  0  0  0  0  0
   45.3130   30.9510   46.7850 O   0  0  0  0  0  0  0  0  0  0  0  0
   45.0650   30.2010   47.9200 C   0  0  0  0  0  0  0  0  0  0  0  0
   43.9470   30.1070   48.0100 H   0  0  0  0  0  0  0  0  0  0  0  0
   45.4120   30.6830   48.8450 H   0  0  0  0  0  0  0  0  0  0  0  0
   45.6630   28.8490   47.7560 C   0  0  0  0  0  0  0  0  0  0  0  0
   46.9520   28.6080   47.3280 C   0  0  0  0  0  0  0  0  0  0  0  0
   47.5670   29.4650   47.0960 H   0  0  0  0  0  0  0  0  0  0  0  0
   47.4650   27.3320   47.1910 C   0  0  0  0  0  0  0  0  0  0  0  0
   48.4860   27.1720   46.8510 H   0  0  0  0  0  0  0  0  0  0  0  0
   46.6250   26.2610   47.5060 C   0  0  0  0  0  3  0  0  0  0  0  0
   45.3190   26.5050   47.9400 C   0  0  0  0  0  3  0  0  0  0  0  0
   44.8750   27.7730   48.0540 N   0  0  0  0  0  0  0  0  0  0  0  0
  2  3  1  0  0  0  0
  2  1  2  1  0  0  0
  3  4  1  0  0  0  0
  5  2  1  0  0  0  0
  6 12  1  0  0  0  0
  6 11  1  0  0  0  0
  7  6  2  0  0  0  0
  8  7  1  0  0  0  0
  8  9  2  0  0  0  0
  9 10  1  0  0  0  0
 10 11  2  0  0  0  0
 10  5  1  0  0  0  0
 13  7  1  0  0  0  0
 14  8  1  0  0  0  0
 15  2  1  0  0  0  0
 15 16  1  0  0  0  0
 16 17  1  0  0  0  0
 16 18  1  0  0  0  0
 19 16  1  0  0  0  0
 19 26  1  0  0  0  0
 20 19  2  0  0  0  0
 21 20  1  0  0  0  0
 22 20  1  0  0  0  0
 22 24  2  0  0  0  0
 23 22  1  0  0  0  0
 24 25  1  0  0  0  0
 25 26  2  0  0  0  0
M  END
>  <minimizedAffinity>
-4.49852562

>  <minimizedRMSD>
1.37710178

$$$$
