
 OpenBabel03252508433D

 30 32  0  0  0  0  0  0  0  0999 V2000
   47.3880   34.7620   42.1400 C   0  0  0  0  0  0  0  0  0  0  0  0
   47.8670   33.6370   42.7910 C   0  0  0  0  0  0  0  0  0  0  0  0
   49.2420   33.5300   42.9600 C   0  0  0  0  0  0  0  0  0  0  0  0
   50.0720   34.5080   42.4970 C   0  0  0  0  0  0  0  0  0  0  0  0
   49.6190   35.6250   41.8530 C   0  0  0  0  0  0  0  0  0  0  0  0
   48.2290   35.7210   41.6870 C   0  0  0  0  0  0  0  0  0  0  0  0
   49.6060   32.6350   43.4760 H   0  0  0  0  0  0  0  0  0  0  0  0
   51.1350   34.3960   42.6440 H   0  0  0  0  0  0  0  0  0  0  0  0
   50.2850   36.3950   41.4890 H   0  0  0  0  0  0  0  0  0  0  0  0
   47.8030   36.5870   41.1820 H   0  0  0  0  0  0  0  0  0  0  0  0
   43.6920   35.4280   42.5970 C   0  0  0  0  0  0  0  0  0  0  0  0
   45.0710   35.4150   42.8510 C   0  0  0  0  0  0  0  0  0  0  0  0
   45.9470   34.8270   41.9650 C   0  0  0  0  0  0  0  0  0  0  0  0
   45.3690   34.2940   40.8840 N   0  0  0  0  0  0  0  0  0  0  0  0
   44.0530   34.2890   40.6080 C   0  0  0  0  0  0  0  0  0  0  0  0
   43.2100   34.8630   41.4780 N   0  0  0  0  0  0  0  0  0  0  0  0
   43.0980   35.9090   43.3490 H   0  0  0  0  0  0  0  0  0  0  0  0
   45.4720   35.8650   43.7470 H   0  0  0  0  0  0  0  0  0  0  0  0
   43.6450   33.8410   39.7150 H   0  0  0  0  0  0  0  0  0  0  0  0
   46.9670   32.5840   43.2880 C   0  0  0  0  0  0  0  0  0  0  0  0
   45.9370   32.7620   42.8840 H   0  0  0  0  0  0  0  0  0  0  0  0
   47.3290   31.6220   42.8320 H   0  0  0  0  0  0  0  0  0  0  0  0
   46.8420   32.4070   44.7240 C   0  0  0  0  0  0  0  0  0  0  0  0
   46.3710   33.1770   45.7950 C   0  0  0  0  0  0  0  0  0  0  0  0
   46.0100   34.1340   45.3810 H   0  0  0  0  0  0  0  0  0  0  0  0
   46.3720   32.7710   47.1070 C   0  0  0  0  0  0  0  0  0  0  0  0
   45.9680   33.5080   47.7870 H   0  0  0  0  0  0  0  0  0  0  0  0
   46.8620   31.5310   47.3980 C   0  0  0  0  0  3  0  0  0  0  0  0
   47.3240   30.7770   46.3430 C   0  0  0  0  0  3  0  0  0  0  0  0
   47.3170   31.1900   45.0510 N   0  0  0  0  0  0  0  0  0  0  0  0
  1  2  1  0  0  0  0
  2  3  2  0  0  0  0
  2 20  1  0  0  0  0
  3  7  1  0  0  0  0
  4  8  1  0  0  0  0
  4  3  1  0  0  0  0
  5  4  2  0  0  0  0
  6  5  1  0  0  0  0
  6  1  2  0  0  0  0
  9  5  1  0  0  0  0
 10  6  1  0  0  0  0
 11 12  1  0  0  0  0
 11 17  1  0  0  0  0
 12 18  1  0  0  0  0
 13  1  1  0  0  0  0
 13 12  2  0  0  0  0
 14 13  1  0  0  0  0
 15 14  2  0  0  0  0
 15 16  1  0  0  0  0
 16 11  2  0  0  0  0
 19 15  1  0  0  0  0
 20 23  1  0  0  0  0
 21 20  1  0  0  0  0
 22 20  1  0  0  0  0
 23 30  2  0  0  0  0
 23 24  1  0  0  0  0
 24 26  2  0  0  0  0
 25 24  1  0  0  0  0
 26 28  1  0  0  0  0
 26 27  1  0  0  0  0
 29 28  2  0  0  0  0
 30 29  1  0  0  0  0
M  END
>  <minimizedAffinity>
-5.18786907

>  <minimizedRMSD>
5.14727545

$$$$
