
 OpenBabel03242517493D

 42 45  0  0  0  0  0  0  0  0999 V2000
   36.8220   28.5370   42.5140 C   0  0  0  0  0  0  0  0  0  0  0  0
   37.4690   29.6290   41.9340 C   0  0  0  0  0  0  0  0  0  0  0  0
   38.8460   29.7040   42.0640 C   0  0  0  0  0  0  0  0  0  0  0  0
   39.4850   28.7330   42.7350 N   0  0  0  0  0  0  0  0  0  0  0  0
   38.8130   27.6790   43.2880 C   0  0  0  0  0  0  0  0  0  0  0  0
   37.4950   27.5480   43.2010 N   0  0  0  0  0  0  0  0  0  0  0  0
   35.7530   28.4090   42.4550 H   0  0  0  0  0  0  0  0  0  0  0  0
   39.4010   30.5310   41.6330 H   0  0  0  0  0  0  0  0  0  0  0  0
   39.6290   26.6510   44.0180 C   0  0  0  0  0  0  0  0  0  0  0  0
   40.1780   27.1000   44.8520 H   0  0  0  0  0  0  0  0  0  0  0  0
   38.8830   25.9430   44.4320 H   0  0  0  0  0  0  0  0  0  0  0  0
   40.5550   25.9190   43.0420 C   0  0  0  0  0  0  0  0  0  0  0  0
   41.2300   25.2840   43.6510 H   0  0  0  0  0  0  0  0  0  0  0  0
   41.2140   26.7090   42.6160 H   0  0  0  0  0  0  0  0  0  0  0  0
   39.8030   25.1790   42.0270 C   0  0  0  0  0  0  0  0  0  0  0  0
   38.8300   24.2490   42.3340 C   0  0  0  0  0  0  0  0  0  0  0  0
   38.5860   24.0320   43.3460 H   0  0  0  0  0  0  0  0  0  0  0  0
   38.2040   23.6300   41.2700 C   0  0  0  0  0  0  0  0  0  0  0  0
   37.4400   22.8970   41.4080 H   0  0  0  0  0  0  0  0  0  0  0  0
   38.5320   23.9210   39.9470 C   0  0  0  0  0  3  0  0  0  0  0  0
   39.5150   24.8620   39.7010 C   0  0  0  0  0  3  0  0  0  0  0  0
   40.1290   25.4690   40.7390 N   0  0  0  0  0  0  0  0  0  0  0  0
   36.5490   30.8700   41.0630 S   0  0  0  0  0  0  0  0  0  0  0  0
   36.6510   30.5950   39.3180 C   0  0  0  0  0  0  0  0  0  0  0  0
   35.9230   29.6120   38.6470 C   0  0  0  0  0  0  0  0  0  0  0  0
   36.0590   29.4600   37.2750 C   0  0  0  0  0  0  0  0  0  0  0  0
   36.8960   30.2550   36.5490 C   0  0  0  0  0  0  0  0  0  0  0  0
   37.6170   31.2280   37.2130 C   0  0  0  0  0  0  0  0  0  0  0  0
   37.5070   31.4100   38.5880 C   0  0  0  0  0  0  0  0  0  0  0  0
   35.2770   29.0080   39.2430 H   0  0  0  0  0  0  0  0  0  0  0  0
   35.4500   28.6640   36.8300 H   0  0  0  0  0  0  0  0  0  0  0  0
   36.9540   30.0820   35.4840 H   0  0  0  0  0  0  0  0  0  0  0  0
   38.2840   31.8600   36.6340 H   0  0  0  0  0  0  0  0  0  0  0  0
   38.2680   32.4320   39.2660 C   0  0  0  0  0  0  0  0  0  0  0  0
   37.7650   33.6530   39.6290 C   0  0  0  0  0  0  0  0  0  0  0  0
   38.5100   34.6330   40.2840 C   0  0  0  0  0  0  0  0  0  0  0  0
   39.7930   34.3630   40.5760 N   0  0  0  0  0  0  0  0  0  0  0  0
   40.2900   33.1660   40.2210 C   0  0  0  0  0  0  0  0  0  0  0  0
   39.5540   32.2350   39.5900 N   0  0  0  0  0  0  0  0  0  0  0  0
   36.7140   33.8600   39.3850 H   0  0  0  0  0  0  0  0  0  0  0  0
   37.9990   35.5490   40.5140 H   0  0  0  0  0  0  0  0  0  0  0  0
   41.3380   33.0030   40.4830 H   0  0  0  0  0  0  0  0  0  0  0  0
  1  6  1  0  0  0  0
  2  3  1  0  0  0  0
  2  1  2  0  0  0  0
  3  4  2  0  0  0  0
  4  5  1  0  0  0  0
  5  9  1  0  0  0  0
  6  5  2  0  0  0  0
  7  1  1  0  0  0  0
  8  3  1  0  0  0  0
  9 11  1  0  0  0  0
  9 10  1  0  0  0  0
 12 13  1  0  0  0  0
 12  9  1  0  0  0  0
 14 12  1  0  0  0  0
 15 16  1  0  0  0  0
 15 12  1  0  0  0  0
 16 17  1  0  0  0  0
 18 19  1  0  0  0  0
 18 16  2  0  0  0  0
 20 18  1  0  0  0  0
 21 20  2  0  0  0  0
 21 22  1  0  0  0  0
 22 15  2  0  0  0  0
 23  2  1  0  0  0  0
 24 23  1  0  0  0  0
 25 30  1  0  0  0  0
 25 24  1  0  0  0  0
 26 25  2  0  0  0  0
 27 28  2  0  0  0  0
 27 26  1  0  0  0  0
 28 29  1  0  0  0  0
 29 34  1  0  0  0  0
 29 24  2  0  0  0  0
 31 26  1  0  0  0  0
 32 27  1  0  0  0  0
 33 28  1  0  0  0  0
 34 39  2  0  0  0  0
 34 35  1  0  0  0  0
 35 36  2  0  0  0  0
 36 41  1  0  0  0  0
 36 37  1  0  0  0  0
 38 42  1  0  0  0  0
 38 37  2  0  0  0  0
 39 38  1  0  0  0  0
 40 35  1  0  0  0  0
M  END
>  <minimizedAffinity>
-6.21931791

$$$$

 OpenBabel03242517493D

 42 45  0  0  0  0  0  0  0  0999 V2000
   36.9070   28.7620   36.9360 C   0  0  0  0  0  0  0  0  0  0  0  0
   36.7710   28.5490   38.3090 C   0  0  0  0  0  0  0  0  0  0  0  0
   35.4870   28.5030   38.8280 C   0  0  0  0  0  0  0  0  0  0  0  0
   34.4480   28.6650   37.9950 N   0  0  0  0  0  0  0  0  0  0  0  0
   34.6240   28.8710   36.6560 C   0  0  0  0  0  0  0  0  0  0  0  0
   35.8260   28.9270   36.0950 N   0  0  0  0  0  0  0  0  0  0  0  0
   37.8720   28.8100   36.4580 H   0  0  0  0  0  0  0  0  0  0  0  0
   35.3230   28.3400   39.8880 H   0  0  0  0  0  0  0  0  0  0  0  0
   33.3900   29.0410   35.8180 C   0  0  0  0  0  0  0  0  0  0  0  0
   33.4660   29.9230   35.1740 H   0  0  0  0  0  0  0  0  0  0  0  0
   33.3630   28.1390   35.1740 H   0  0  0  0  0  0  0  0  0  0  0  0
   32.1450   29.0800   36.7100 C   0  0  0  0  0  0  0  0  0  0  0  0
   32.4900   28.9440   37.7550 H   0  0  0  0  0  0  0  0  0  0  0  0
   31.5850   28.1470   36.4710 H   0  0  0  0  0  0  0  0  0  0  0  0
   31.3610   30.2990   36.5000 C   0  0  0  0  0  0  0  0  0  0  0  0
   31.3730   31.0120   35.3190 C   0  0  0  0  0  0  0  0  0  0  0  0
   31.9680   30.6940   34.4970 H   0  0  0  0  0  0  0  0  0  0  0  0
   30.5810   32.1420   35.2670 C   0  0  0  0  0  0  0  0  0  0  0  0
   30.5250   32.7580   34.3970 H   0  0  0  0  0  0  0  0  0  0  0  0
   29.8050   32.5530   36.3500 C   0  0  0  0  0  3  0  0  0  0  0  0
   29.8340   31.7970   37.5080 C   0  0  0  0  0  3  0  0  0  0  0  0
   30.6060   30.6910   37.5610 N   0  0  0  0  0  0  0  0  0  0  0  0
   38.1990   28.3440   39.3400 S   0  0  0  0  0  0  0  0  0  0  0  0
   37.7070   28.0100   41.0070 C   0  0  0  0  0  0  0  0  0  0  0  0
   37.3680   26.7390   41.4730 C   0  0  0  0  0  0  0  0  0  0  0  0
   36.9920   26.5600   42.7960 C   0  0  0  0  0  0  0  0  0  0  0  0
   36.9430   27.6050   43.6700 C   0  0  0  0  0  0  0  0  0  0  0  0
   37.2790   28.8630   43.2100 C   0  0  0  0  0  0  0  0  0  0  0  0
   37.6600   29.0820   41.8900 C   0  0  0  0  0  0  0  0  0  0  0  0
   37.4160   25.9440   40.7640 H   0  0  0  0  0  0  0  0  0  0  0  0
   36.7420   25.5300   43.0760 H   0  0  0  0  0  0  0  0  0  0  0  0
   36.6420   27.3940   44.6870 H   0  0  0  0  0  0  0  0  0  0  0  0
   37.2390   29.6940   43.9080 H   0  0  0  0  0  0  0  0  0  0  0  0
   38.0080   30.4030   41.4250 C   0  0  0  0  0  0  0  0  0  0  0  0
   39.2450   30.9710   41.5740 C   0  0  0  0  0  0  0  0  0  0  0  0
   39.5690   32.2490   41.1220 C   0  0  0  0  0  0  0  0  0  0  0  0
   38.6140   32.9630   40.5030 N   0  0  0  0  0  0  0  0  0  0  0  0
   37.3980   32.4090   40.3550 C   0  0  0  0  0  0  0  0  0  0  0  0
   37.1070   31.1740   40.8000 N   0  0  0  0  0  0  0  0  0  0  0  0
   40.0170   30.3760   42.0810 H   0  0  0  0  0  0  0  0  0  0  0  0
   40.5750   32.5800   41.3000 H   0  0  0  0  0  0  0  0  0  0  0  0
   36.6620   33.0360   39.8460 H   0  0  0  0  0  0  0  0  0  0  0  0
  1  2  1  0  0  0  0
  2  3  2  0  0  0  0
  2 23  1  0  0  0  0
  3  8  1  0  0  0  0
  4  3  1  0  0  0  0
  5  4  2  0  0  0  0
  6  5  1  0  0  0  0
  6  1  2  0  0  0  0
  7  1  1  0  0  0  0
  9  5  1  0  0  0  0
  9 12  1  0  0  0  0
 10  9  1  0  0  0  0
 11  9  1  0  0  0  0
 12 13  1  0  0  0  0
 14 12  1  0  0  0  0
 15 12  1  0  0  0  0
 15 22  1  0  0  0  0
 16 15  2  0  0  0  0
 17 16  1  0  0  0  0
 18 16  1  0  0  0  0
 18 20  2  0  0  0  0
 19 18  1  0  0  0  0
 20 21  1  0  0  0  0
 21 22  2  0  0  0  0
 23 24  1  0  0  0  0
 24 25  2  0  0  0  0
 24 29  1  0  0  0  0
 25 26  1  0  0  0  0
 26 31  1  0  0  0  0
 26 27  2  0  0  0  0
 27 32  1  0  0  0  0
 28 27  1  0  0  0  0
 28 33  1  0  0  0  0
 29 28  2  0  0  0  0
 30 25  1  0  0  0  0
 34 35  1  0  0  0  0
 34 29  1  0  0  0  0
 35 40  1  0  0  0  0
 36 41  1  0  0  0  0
 36 35  2  0  0  0  0
 37 36  1  0  0  0  0
 38 37  2  0  0  0  0
 38 39  1  0  0  0  0
 39 34  2  0  0  0  0
 42 38  1  0  0  0  0
M  END
>  <minimizedAffinity>
-5.99312735

$$$$

 OpenBabel03242517493D

 42 45  0  0  0  0  0  0  0  0999 V2000
   36.5030   30.2420   38.5810 C   0  0  0  0  0  0  0  0  0  0  0  0
   35.9460   30.0040   39.8380 C   0  0  0  0  0  0  0  0  0  0  0  0
   34.7840   29.2520   39.8940 C   0  0  0  0  0  0  0  0  0  0  0  0
   34.2560   28.7930   38.7490 N   0  0  0  0  0  0  0  0  0  0  0  0
   34.8340   29.0490   37.5370 C   0  0  0  0  0  0  0  0  0  0  0  0
   35.9460   29.7630   37.4140 N   0  0  0  0  0  0  0  0  0  0  0  0
   37.4060   30.8170   38.4560 H   0  0  0  0  0  0  0  0  0  0  0  0
   34.3070   29.0360   40.8440 H   0  0  0  0  0  0  0  0  0  0  0  0
   34.1570   28.4870   36.3200 C   0  0  0  0  0  0  0  0  0  0  0  0
   34.4550   29.0280   35.4160 H   0  0  0  0  0  0  0  0  0  0  0  0
   34.5320   27.4470   36.2450 H   0  0  0  0  0  0  0  0  0  0  0  0
   32.6380   28.4780   36.5160 C   0  0  0  0  0  0  0  0  0  0  0  0
   32.4500   28.3090   37.5960 H   0  0  0  0  0  0  0  0  0  0  0  0
   32.2840   27.5480   36.0160 H   0  0  0  0  0  0  0  0  0  0  0  0
   32.0120   29.6940   35.9910 C   0  0  0  0  0  0  0  0  0  0  0  0
   32.2100   30.1520   34.7050 C   0  0  0  0  0  0  0  0  0  0  0  0
   32.8400   29.6250   34.0300 H   0  0  0  0  0  0  0  0  0  0  0  0
   31.5530   31.3140   34.3500 C   0  0  0  0  0  0  0  0  0  0  0  0
   31.6440   31.7460   33.3780 H   0  0  0  0  0  0  0  0  0  0  0  0
   30.7280   32.0000   35.2420 C   0  0  0  0  0  3  0  0  0  0  0  0
   30.5690   31.4920   36.5180 C   0  0  0  0  0  3  0  0  0  0  0  0
   31.2090   30.3560   36.8670 N   0  0  0  0  0  0  0  0  0  0  0  0
   36.7080   30.6470   41.3050 S   0  0  0  0  0  0  0  0  0  0  0  0
   37.6110   29.3720   42.1340 C   0  0  0  0  0  0  0  0  0  0  0  0
   37.0140   28.3920   42.9280 C   0  0  0  0  0  0  0  0  0  0  0  0
   37.7930   27.4250   43.5450 C   0  0  0  0  0  0  0  0  0  0  0  0
   39.1480   27.4000   43.3960 C   0  0  0  0  0  0  0  0  0  0  0  0
   39.7410   28.3690   42.6100 C   0  0  0  0  0  0  0  0  0  0  0  0
   38.9920   29.3560   41.9760 C   0  0  0  0  0  0  0  0  0  0  0  0
   35.9530   28.4390   43.0240 H   0  0  0  0  0  0  0  0  0  0  0  0
   37.2410   26.6960   44.1500 H   0  0  0  0  0  0  0  0  0  0  0  0
   39.6950   26.6180   43.9050 H   0  0  0  0  0  0  0  0  0  0  0  0
   40.8200   28.3480   42.4930 H   0  0  0  0  0  0  0  0  0  0  0  0
   39.6270   30.3610   41.1570 C   0  0  0  0  0  0  0  0  0  0  0  0
   40.0260   31.5870   41.6170 C   0  0  0  0  0  0  0  0  0  0  0  0
   40.6390   32.5510   40.8160 C   0  0  0  0  0  0  0  0  0  0  0  0
   40.8490   32.2580   39.5220 N   0  0  0  0  0  0  0  0  0  0  0  0
   40.4580   31.0550   39.0680 C   0  0  0  0  0  0  0  0  0  0  0  0
   39.8680   30.1400   39.8570 N   0  0  0  0  0  0  0  0  0  0  0  0
   39.8490   31.8130   42.6760 H   0  0  0  0  0  0  0  0  0  0  0  0
   40.9050   33.4740   41.2960 H   0  0  0  0  0  0  0  0  0  0  0  0
   40.6530   30.8730   38.0080 H   0  0  0  0  0  0  0  0  0  0  0  0
  1  2  1  0  0  0  0
  2  3  2  0  0  0  0
  2 23  1  0  0  0  0
  3  8  1  0  0  0  0
  4  3  1  0  0  0  0
  5  4  2  0  0  0  0
  6  5  1  0  0  0  0
  6  1  2  0  0  0  0
  7  1  1  0  0  0  0
  9 12  1  0  0  0  0
  9  5  1  0  0  0  0
 10  9  1  0  0  0  0
 11  9  1  0  0  0  0
 12 13  1  0  0  0  0
 14 12  1  0  0  0  0
 15 12  1  0  0  0  0
 15 22  1  0  0  0  0
 16 15  2  0  0  0  0
 17 16  1  0  0  0  0
 18 16  1  0  0  0  0
 18 20  2  0  0  0  0
 19 18  1  0  0  0  0
 20 21  1  0  0  0  0
 21 22  2  0  0  0  0
 23 24  1  0  0  0  0
 24 25  1  0  0  0  0
 25 30  1  0  0  0  0
 25 26  2  0  0  0  0
 26 31  1  0  0  0  0
 27 26  1  0  0  0  0
 27 32  1  0  0  0  0
 28 27  2  0  0  0  0
 29 24  2  0  0  0  0
 29 28  1  0  0  0  0
 33 28  1  0  0  0  0
 34 35  1  0  0  0  0
 34 29  1  0  0  0  0
 35 40  1  0  0  0  0
 36 41  1  0  0  0  0
 36 35  2  0  0  0  0
 37 36  1  0  0  0  0
 38 37  2  0  0  0  0
 38 39  1  0  0  0  0
 39 34  2  0  0  0  0
 42 38  1  0  0  0  0
M  END
>  <minimizedAffinity>
-5.83844471

$$$$

 OpenBabel03242517493D

 42 45  0  0  0  0  0  0  0  0999 V2000
   39.2890   31.1400   40.6760 C   0  0  0  0  0  0  0  0  0  0  0  0
   38.0670   31.8120   40.6110 C   0  0  0  0  0  0  0  0  0  0  0  0
   38.0830   33.1380   40.2130 C   0  0  0  0  0  0  0  0  0  0  0  0
   39.2600   33.7080   39.9130 N   0  0  0  0  0  0  0  0  0  0  0  0
   40.4350   33.0150   39.9890 C   0  0  0  0  0  0  0  0  0  0  0  0
   40.4900   31.7430   40.3640 N   0  0  0  0  0  0  0  0  0  0  0  0
   39.3580   30.1080   40.9770 H   0  0  0  0  0  0  0  0  0  0  0  0
   37.1630   33.7090   40.1450 H   0  0  0  0  0  0  0  0  0  0  0  0
   41.6930   33.7520   39.6310 C   0  0  0  0  0  0  0  0  0  0  0  0
   41.7430   34.7210   40.1390 H   0  0  0  0  0  0  0  0  0  0  0  0
   42.5120   33.1120   40.0150 H   0  0  0  0  0  0  0  0  0  0  0  0
   41.8120   33.8900   38.1100 C   0  0  0  0  0  0  0  0  0  0  0  0
   42.1160   34.9370   37.9020 H   0  0  0  0  0  0  0  0  0  0  0  0
   40.7680   33.8160   37.7270 H   0  0  0  0  0  0  0  0  0  0  0  0
   42.7140   32.8880   37.5390 C   0  0  0  0  0  0  0  0  0  0  0  0
   44.0890   33.0090   37.5610 C   0  0  0  0  0  0  0  0  0  0  0  0
   44.5540   33.8560   38.0040 H   0  0  0  0  0  0  0  0  0  0  0  0
   44.8120   31.9830   36.9840 C   0  0  0  0  0  0  0  0  0  0  0  0
   45.8790   31.9870   36.9520 H   0  0  0  0  0  0  0  0  0  0  0  0
   44.1930   30.8760   36.4040 C   0  0  0  0  0  3  0  0  0  0  0  0
   42.8120   30.8120   36.4120 C   0  0  0  0  0  3  0  0  0  0  0  0
   42.1030   31.8120   36.9760 N   0  0  0  0  0  0  0  0  0  0  0  0
   36.5540   30.9840   41.0260 S   0  0  0  0  0  0  0  0  0  0  0  0
   36.8890   29.3310   41.5620 C   0  0  0  0  0  0  0  0  0  0  0  0
   37.3230   29.0090   42.8480 C   0  0  0  0  0  0  0  0  0  0  0  0
   37.5630   27.6870   43.1910 C   0  0  0  0  0  0  0  0  0  0  0  0
   37.3850   26.6750   42.2950 C   0  0  0  0  0  0  0  0  0  0  0  0
   36.9550   26.9930   41.0210 C   0  0  0  0  0  0  0  0  0  0  0  0
   36.7040   28.3070   40.6410 C   0  0  0  0  0  0  0  0  0  0  0  0
   37.4520   29.8230   43.5250 H   0  0  0  0  0  0  0  0  0  0  0  0
   37.9010   27.5250   44.2220 H   0  0  0  0  0  0  0  0  0  0  0  0
   37.5910   25.6670   42.6290 H   0  0  0  0  0  0  0  0  0  0  0  0
   36.8150   26.1850   40.3090 H   0  0  0  0  0  0  0  0  0  0  0  0
   36.2560   28.6230   39.3060 C   0  0  0  0  0  0  0  0  0  0  0  0
   34.9400   28.6860   38.9310 C   0  0  0  0  0  0  0  0  0  0  0  0
   34.5190   28.9910   37.6370 C   0  0  0  0  0  0  0  0  0  0  0  0
   35.4560   29.2380   36.7080 N   0  0  0  0  0  0  0  0  0  0  0  0
   36.7490   29.1760   37.0720 C   0  0  0  0  0  0  0  0  0  0  0  0
   37.1330   28.8800   38.3250 N   0  0  0  0  0  0  0  0  0  0  0  0
   34.1840   28.4830   39.7010 H   0  0  0  0  0  0  0  0  0  0  0  0
   33.4580   29.0090   37.4710 H   0  0  0  0  0  0  0  0  0  0  0  0
   37.4660   29.3850   36.2750 H   0  0  0  0  0  0  0  0  0  0  0  0
  1  7  1  0  0  0  0
  2  1  1  0  0  0  0
  2 23  1  0  0  0  0
  3  2  2  0  0  0  0
  4  5  2  0  0  0  0
  4  3  1  0  0  0  0
  5  6  1  0  0  0  0
  6  1  2  0  0  0  0
  8  3  1  0  0  0  0
  9  5  1  0  0  0  0
  9 11  1  0  0  0  0
  9 10  1  0  0  0  0
 12  9  1  0  0  0  0
 13 12  1  0  0  0  0
 14 12  1  0  0  0  0
 15 16  1  0  0  0  0
 15 12  1  0  0  0  0
 16 17  1  0  0  0  0
 18 16  2  0  0  0  0
 19 18  1  0  0  0  0
 20 21  2  0  0  0  0
 20 18  1  0  0  0  0
 21 22  1  0  0  0  0
 22 15  2  0  0  0  0
 23 24  1  0  0  0  0
 24 25  1  0  0  0  0
 25 26  2  0  0  0  0
 25 30  1  0  0  0  0
 26 31  1  0  0  0  0
 27 32  1  0  0  0  0
 27 26  1  0  0  0  0
 28 27  2  0  0  0  0
 29 28  1  0  0  0  0
 29 24  2  0  0  0  0
 33 28  1  0  0  0  0
 34 29  1  0  0  0  0
 35 34  1  0  0  0  0
 35 40  1  0  0  0  0
 36 35  2  0  0  0  0
 37 38  2  0  0  0  0
 37 36  1  0  0  0  0
 38 39  1  0  0  0  0
 39 34  2  0  0  0  0
 41 36  1  0  0  0  0
 42 38  1  0  0  0  0
M  END
>  <minimizedAffinity>
-5.68652534

$$$$

 OpenBabel03242517493D

 42 45  0  0  0  0  0  0  0  0999 V2000
   35.5930   26.7060   37.7900 C   0  0  0  0  0  0  0  0  0  0  0  0
   36.2860   27.7790   38.3530 C   0  0  0  0  0  0  0  0  0  0  0  0
   35.7070   29.0340   38.2660 C   0  0  0  0  0  0  0  0  0  0  0  0
   34.5210   29.1570   37.6500 N   0  0  0  0  0  0  0  0  0  0  0  0
   33.8750   28.0800   37.1120 C   0  0  0  0  0  0  0  0  0  0  0  0
   34.3740   26.8510   37.1600 N   0  0  0  0  0  0  0  0  0  0  0  0
   35.9780   25.6990   37.8180 H   0  0  0  0  0  0  0  0  0  0  0  0
   36.2010   29.9040   38.6860 H   0  0  0  0  0  0  0  0  0  0  0  0
   32.5540   28.3330   36.4450 C   0  0  0  0  0  0  0  0  0  0  0  0
   32.6830   28.5630   35.3830 H   0  0  0  0  0  0  0  0  0  0  0  0
   32.0080   27.3720   36.5300 H   0  0  0  0  0  0  0  0  0  0  0  0
   31.7880   29.4320   37.1870 C   0  0  0  0  0  0  0  0  0  0  0  0
   32.4480   29.7950   38.0010 H   0  0  0  0  0  0  0  0  0  0  0  0
   30.9550   28.9080   37.7090 H   0  0  0  0  0  0  0  0  0  0  0  0
   31.3330   30.4880   36.2800 C   0  0  0  0  0  0  0  0  0  0  0  0
   30.5100   31.5230   36.6760 C   0  0  0  0  0  0  0  0  0  0  0  0
   30.1670   31.5910   37.6800 H   0  0  0  0  0  0  0  0  0  0  0  0
   30.1640   32.4470   35.7100 C   0  0  0  0  0  0  0  0  0  0  0  0
   29.5320   33.2800   35.9200 H   0  0  0  0  0  0  0  0  0  0  0  0
   30.6180   32.3480   34.3950 C   0  0  0  0  0  3  0  0  0  0  0  0
   31.4410   31.2900   34.0580 C   0  0  0  0  0  3  0  0  0  0  0  0
   31.7810   30.3850   35.0000 N   0  0  0  0  0  0  0  0  0  0  0  0
   37.8500   27.5300   39.1500 S   0  0  0  0  0  0  0  0  0  0  0  0
   37.7020   27.8130   40.8910 C   0  0  0  0  0  0  0  0  0  0  0  0
   37.6820   29.0830   41.4690 C   0  0  0  0  0  0  0  0  0  0  0  0
   37.5620   29.2200   42.8430 C   0  0  0  0  0  0  0  0  0  0  0  0
   37.4610   28.1350   43.6620 C   0  0  0  0  0  0  0  0  0  0  0  0
   37.4810   26.8770   43.0910 C   0  0  0  0  0  0  0  0  0  0  0  0
   37.6000   26.7000   41.7160 C   0  0  0  0  0  0  0  0  0  0  0  0
   37.7620   29.9110   40.8010 H   0  0  0  0  0  0  0  0  0  0  0  0
   37.5550   30.2530   43.2110 H   0  0  0  0  0  0  0  0  0  0  0  0
   37.3700   28.3140   44.7240 H   0  0  0  0  0  0  0  0  0  0  0  0
   37.4010   26.0130   43.7440 H   0  0  0  0  0  0  0  0  0  0  0  0
   37.6190   25.3790   41.1350 C   0  0  0  0  0  0  0  0  0  0  0  0
   36.5010   24.7000   40.7310 C   0  0  0  0  0  0  0  0  0  0  0  0
   36.5310   23.4220   40.1710 C   0  0  0  0  0  0  0  0  0  0  0  0
   37.7250   22.8260   40.0200 N   0  0  0  0  0  0  0  0  0  0  0  0
   38.8250   23.4900   40.4160 C   0  0  0  0  0  0  0  0  0  0  0  0
   38.7730   24.7200   40.9540 N   0  0  0  0  0  0  0  0  0  0  0  0
   35.5310   25.1990   40.8600 H   0  0  0  0  0  0  0  0  0  0  0  0
   35.5850   22.9980   39.8950 H   0  0  0  0  0  0  0  0  0  0  0  0
   39.7670   22.9550   40.2700 H   0  0  0  0  0  0  0  0  0  0  0  0
  1  7  1  0  0  0  0
  1  2  1  0  0  0  0
  2 23  1  0  0  0  0
  3  2  2  0  0  0  0
  3  8  1  0  0  0  0
  4  3  1  0  0  0  0
  5  6  1  0  0  0  0
  5  4  2  0  0  0  0
  6  1  2  0  0  0  0
  9 11  1  0  0  0  0
  9  5  1  0  0  0  0
  9 12  1  0  0  0  0
 10  9  1  0  0  0  0
 12 14  1  0  0  0  0
 12 13  1  0  0  0  0
 15 16  1  0  0  0  0
 15 12  1  0  0  0  0
 16 17  1  0  0  0  0
 18 19  1  0  0  0  0
 18 16  2  0  0  0  0
 20 18  1  0  0  0  0
 21 20  2  0  0  0  0
 21 22  1  0  0  0  0
 22 15  2  0  0  0  0
 23 24  1  0  0  0  0
 24 25  2  0  0  0  0
 24 29  1  0  0  0  0
 25 26  1  0  0  0  0
 26 31  1  0  0  0  0
 26 27  2  0  0  0  0
 27 32  1  0  0  0  0
 28 27  1  0  0  0  0
 28 33  1  0  0  0  0
 29 28  2  0  0  0  0
 30 25  1  0  0  0  0
 34 29  1  0  0  0  0
 35 40  1  0  0  0  0
 35 34  2  0  0  0  0
 36 35  1  0  0  0  0
 37 36  2  0  0  0  0
 37 38  1  0  0  0  0
 38 39  2  0  0  0  0
 39 34  1  0  0  0  0
 41 36  1  0  0  0  0
 42 38  1  0  0  0  0
M  END
>  <minimizedAffinity>
-5.56580353

$$$$

 OpenBabel03242517493D

 42 45  0  0  0  0  0  0  0  0999 V2000
   35.0570   26.4040   37.3580 C   0  0  0  0  0  0  0  0  0  0  0  0
   35.8770   27.4590   37.7650 C   0  0  0  0  0  0  0  0  0  0  0  0
   35.4120   28.7480   37.5600 C   0  0  0  0  0  0  0  0  0  0  0  0
   34.2110   28.9190   36.9880 N   0  0  0  0  0  0  0  0  0  0  0  0
   33.4390   27.8580   36.6040 C   0  0  0  0  0  0  0  0  0  0  0  0
   33.8250   26.5990   36.7710 N   0  0  0  0  0  0  0  0  0  0  0  0
   35.3490   25.3740   37.4840 H   0  0  0  0  0  0  0  0  0  0  0  0
   36.0070   29.6060   37.8570 H   0  0  0  0  0  0  0  0  0  0  0  0
   32.1130   28.1660   35.9720 C   0  0  0  0  0  0  0  0  0  0  0  0
   31.6460   27.2600   35.5690 H   0  0  0  0  0  0  0  0  0  0  0  0
   31.4850   28.5400   36.8060 H   0  0  0  0  0  0  0  0  0  0  0  0
   32.2710   29.2580   34.9110 C   0  0  0  0  0  0  0  0  0  0  0  0
   32.0410   28.7930   33.9300 H   0  0  0  0  0  0  0  0  0  0  0  0
   33.3640   29.4730   34.8740 H   0  0  0  0  0  0  0  0  0  0  0  0
   31.4560   30.4360   35.2130 C   0  0  0  0  0  0  0  0  0  0  0  0
   30.9980   30.7350   36.4800 C   0  0  0  0  0  0  0  0  0  0  0  0
   31.2270   30.1030   37.3040 H   0  0  0  0  0  0  0  0  0  0  0  0
   30.2390   31.8810   36.6120 C   0  0  0  0  0  0  0  0  0  0  0  0
   29.8410   32.1940   37.5520 H   0  0  0  0  0  0  0  0  0  0  0  0
   29.9430   32.7030   35.5260 C   0  0  0  0  0  3  0  0  0  0  0  0
   30.4300   32.3520   34.2800 C   0  0  0  0  0  3  0  0  0  0  0  0
   31.1720   31.2330   34.1470 N   0  0  0  0  0  0  0  0  0  0  0  0
   37.4530   27.1470   38.5150 S   0  0  0  0  0  0  0  0  0  0  0  0
   37.2440   26.2460   40.0230 C   0  0  0  0  0  0  0  0  0  0  0  0
   37.1580   24.8550   40.0870 C   0  0  0  0  0  0  0  0  0  0  0  0
   36.9950   24.2230   41.3110 C   0  0  0  0  0  0  0  0  0  0  0  0
   36.9140   24.9310   42.4730 C   0  0  0  0  0  0  0  0  0  0  0  0
   36.9990   26.3080   42.4110 C   0  0  0  0  0  0  0  0  0  0  0  0
   37.1630   26.9770   41.2020 C   0  0  0  0  0  0  0  0  0  0  0  0
   37.2250   24.3310   39.1610 H   0  0  0  0  0  0  0  0  0  0  0  0
   36.9370   23.1290   41.2680 H   0  0  0  0  0  0  0  0  0  0  0  0
   36.7870   24.3750   43.3920 H   0  0  0  0  0  0  0  0  0  0  0  0
   36.9340   26.8700   43.3380 H   0  0  0  0  0  0  0  0  0  0  0  0
   37.2490   28.4170   41.1550 C   0  0  0  0  0  0  0  0  0  0  0  0
   36.1650   29.2520   41.0980 C   0  0  0  0  0  0  0  0  0  0  0  0
   36.2610   30.6420   41.0520 C   0  0  0  0  0  0  0  0  0  0  0  0
   37.4870   31.1920   41.0650 N   0  0  0  0  0  0  0  0  0  0  0  0
   38.5530   30.3760   41.1210 C   0  0  0  0  0  0  0  0  0  0  0  0
   38.4380   29.0380   41.1640 N   0  0  0  0  0  0  0  0  0  0  0  0
   35.1700   28.7880   41.0880 H   0  0  0  0  0  0  0  0  0  0  0  0
   35.3360   31.1850   41.0100 H   0  0  0  0  0  0  0  0  0  0  0  0
   39.5230   30.8800   41.1280 H   0  0  0  0  0  0  0  0  0  0  0  0
  1  7  1  0  0  0  0
  1  2  1  0  0  0  0
  2 23  1  0  0  0  0
  3  2  2  0  0  0  0
  3  8  1  0  0  0  0
  4  3  1  0  0  0  0
  5  6  1  0  0  0  0
  5  4  2  0  0  0  0
  6  1  2  0  0  0  0
  9  5  1  0  0  0  0
  9 11  1  0  0  0  0
 10  9  1  0  0  0  0
 12 15  1  0  0  0  0
 12  9  1  0  0  0  0
 13 12  1  0  0  0  0
 14 12  1  0  0  0  0
 15 16  1  0  0  0  0
 16 18  2  0  0  0  0
 16 17  1  0  0  0  0
 18 19  1  0  0  0  0
 20 18  1  0  0  0  0
 21 20  2  0  0  0  0
 22 21  1  0  0  0  0
 22 15  2  0  0  0  0
 23 24  1  0  0  0  0
 24 25  2  0  0  0  0
 24 29  1  0  0  0  0
 25 26  1  0  0  0  0
 26 27  2  0  0  0  0
 27 32  1  0  0  0  0
 28 27  1  0  0  0  0
 28 33  1  0  0  0  0
 29 28  2  0  0  0  0
 30 25  1  0  0  0  0
 31 26  1  0  0  0  0
 34 39  1  0  0  0  0
 34 29  1  0  0  0  0
 35 34  2  0  0  0  0
 36 37  2  0  0  0  0
 36 35  1  0  0  0  0
 37 38  1  0  0  0  0
 38 42  1  0  0  0  0
 38 39  2  0  0  0  0
 40 35  1  0  0  0  0
 41 36  1  0  0  0  0
M  END
>  <minimizedAffinity>
-5.54630995

$$$$

 OpenBabel03242517493D

 42 45  0  0  0  0  0  0  0  0999 V2000
   35.5760   28.7790   36.9170 C   0  0  0  0  0  0  0  0  0  0  0  0
   35.3640   28.9160   38.2900 C   0  0  0  0  0  0  0  0  0  0  0  0
   34.0560   29.0440   38.7280 C   0  0  0  0  0  0  0  0  0  0  0  0
   33.0670   29.0320   37.8220 N   0  0  0  0  0  0  0  0  0  0  0  0
   33.3180   28.8960   36.4850 C   0  0  0  0  0  0  0  0  0  0  0  0
   34.5460   28.7700   35.9990 N   0  0  0  0  0  0  0  0  0  0  0  0
   36.5640   28.6740   36.5000 H   0  0  0  0  0  0  0  0  0  0  0  0
   33.8320   29.1530   39.7850 H   0  0  0  0  0  0  0  0  0  0  0  0
   32.1350   28.8970   35.5600 C   0  0  0  0  0  0  0  0  0  0  0  0
   32.0650   27.9550   35.0060 H   0  0  0  0  0  0  0  0  0  0  0  0
   31.2550   28.9750   36.2300 H   0  0  0  0  0  0  0  0  0  0  0  0
   32.1900   30.1130   34.6310 C   0  0  0  0  0  0  0  0  0  0  0  0
   32.2640   29.7260   33.5940 H   0  0  0  0  0  0  0  0  0  0  0  0
   33.1770   30.5890   34.8290 H   0  0  0  0  0  0  0  0  0  0  0  0
   31.0560   31.0150   34.8450 C   0  0  0  0  0  0  0  0  0  0  0  0
   30.6410   31.4260   36.0950 C   0  0  0  0  0  0  0  0  0  0  0  0
   31.1430   31.0920   36.9720 H   0  0  0  0  0  0  0  0  0  0  0  0
   29.5560   32.2790   36.1410 C   0  0  0  0  0  0  0  0  0  0  0  0
   29.1630   32.6500   37.0620 H   0  0  0  0  0  0  0  0  0  0  0  0
   28.9040   32.7110   34.9870 C   0  0  0  0  0  3  0  0  0  0  0  0
   29.3660   32.2660   33.7620 C   0  0  0  0  0  3  0  0  0  0  0  0
   30.4260   31.4320   33.7130 N   0  0  0  0  0  0  0  0  0  0  0  0
   36.7280   28.9210   39.4230 S   0  0  0  0  0  0  0  0  0  0  0  0
   37.2810   30.5780   39.7060 C   0  0  0  0  0  0  0  0  0  0  0  0
   36.9940   31.6450   38.8540 C   0  0  0  0  0  0  0  0  0  0  0  0
   37.4650   32.9160   39.1470 C   0  0  0  0  0  0  0  0  0  0  0  0
   38.2110   33.1600   40.2610 C   0  0  0  0  0  0  0  0  0  0  0  0
   38.4950   32.1050   41.1060 C   0  0  0  0  0  0  0  0  0  0  0  0
   38.0410   30.8160   40.8450 C   0  0  0  0  0  0  0  0  0  0  0  0
   36.4080   31.4210   37.9910 H   0  0  0  0  0  0  0  0  0  0  0  0
   37.1920   33.6940   38.4230 H   0  0  0  0  0  0  0  0  0  0  0  0
   38.5460   34.1750   40.4290 H   0  0  0  0  0  0  0  0  0  0  0  0
   39.0910   32.3010   41.9930 H   0  0  0  0  0  0  0  0  0  0  0  0
   38.3470   29.7240   41.7370 C   0  0  0  0  0  0  0  0  0  0  0  0
   39.5240   29.0250   41.7230 C   0  0  0  0  0  0  0  0  0  0  0  0
   39.8090   27.9710   42.5910 C   0  0  0  0  0  0  0  0  0  0  0  0
   38.8750   27.6240   43.4920 N   0  0  0  0  0  0  0  0  0  0  0  0
   37.7180   28.3080   43.5090 C   0  0  0  0  0  0  0  0  0  0  0  0
   37.4640   29.3210   42.6630 N   0  0  0  0  0  0  0  0  0  0  0  0
   40.2790   29.3200   40.9810 H   0  0  0  0  0  0  0  0  0  0  0  0
   40.7690   27.5040   42.4780 H   0  0  0  0  0  0  0  0  0  0  0  0
   36.9980   27.9810   44.2620 H   0  0  0  0  0  0  0  0  0  0  0  0
  1  2  1  0  0  0  0
  2  3  2  0  0  0  0
  2 23  1  0  0  0  0
  3  8  1  0  0  0  0
  4  3  1  0  0  0  0
  5  4  2  0  0  0  0
  6  5  1  0  0  0  0
  6  1  2  0  0  0  0
  7  1  1  0  0  0  0
  9 11  1  0  0  0  0
  9  5  1  0  0  0  0
 10  9  1  0  0  0  0
 12 14  1  0  0  0  0
 12 15  1  0  0  0  0
 12  9  1  0  0  0  0
 13 12  1  0  0  0  0
 15 16  1  0  0  0  0
 16 18  2  0  0  0  0
 16 17  1  0  0  0  0
 18 19  1  0  0  0  0
 20 18  1  0  0  0  0
 21 20  2  0  0  0  0
 22 21  1  0  0  0  0
 22 15  2  0  0  0  0
 23 24  1  0  0  0  0
 24 29  1  0  0  0  0
 25 26  1  0  0  0  0
 25 24  2  0  0  0  0
 26 27  2  0  0  0  0
 27 32  1  0  0  0  0
 27 28  1  0  0  0  0
 28 33  1  0  0  0  0
 29 28  2  0  0  0  0
 29 34  1  0  0  0  0
 30 25  1  0  0  0  0
 31 26  1  0  0  0  0
 34 39  1  0  0  0  0
 35 34  2  0  0  0  0
 35 36  1  0  0  0  0
 36 37  2  0  0  0  0
 37 38  1  0  0  0  0
 38 42  1  0  0  0  0
 39 38  2  0  0  0  0
 40 35  1  0  0  0  0
 41 36  1  0  0  0  0
M  END
>  <minimizedAffinity>
-5.5228796

$$$$

 OpenBabel03242517493D

 42 45  0  0  0  0  0  0  0  0999 V2000
   38.7660   31.0160   39.3010 C   0  0  0  0  0  0  0  0  0  0  0  0
   37.9420   31.7490   40.1570 C   0  0  0  0  0  0  0  0  0  0  0  0
   38.2940   33.0630   40.4170 C   0  0  0  0  0  0  0  0  0  0  0  0
   39.3970   33.5630   39.8400 N   0  0  0  0  0  0  0  0  0  0  0  0
   40.1770   32.8110   39.0070 C   0  0  0  0  0  0  0  0  0  0  0  0
   39.8980   31.5470   38.7170 N   0  0  0  0  0  0  0  0  0  0  0  0
   38.5590   29.9880   39.0510 H   0  0  0  0  0  0  0  0  0  0  0  0
   37.6900   33.6800   41.0750 H   0  0  0  0  0  0  0  0  0  0  0  0
   41.3890   33.4720   38.4170 C   0  0  0  0  0  0  0  0  0  0  0  0
   42.2100   32.7580   38.2960 H   0  0  0  0  0  0  0  0  0  0  0  0
   41.0650   33.8070   37.4110 H   0  0  0  0  0  0  0  0  0  0  0  0
   41.7950   34.6840   39.2610 C   0  0  0  0  0  0  0  0  0  0  0  0
   40.8880   35.0220   39.8020 H   0  0  0  0  0  0  0  0  0  0  0  0
   42.0070   35.4940   38.5270 H   0  0  0  0  0  0  0  0  0  0  0  0
   42.9290   34.3840   40.1390 C   0  0  0  0  0  0  0  0  0  0  0  0
   44.0960   33.7980   39.6930 C   0  0  0  0  0  0  0  0  0  0  0  0
   44.2170   33.5370   38.6690 H   0  0  0  0  0  0  0  0  0  0  0  0
   45.0790   33.5750   40.6360 C   0  0  0  0  0  0  0  0  0  0  0  0
   46.0160   33.1270   40.3870 H   0  0  0  0  0  0  0  0  0  0  0  0
   44.9110   33.9200   41.9770 C   0  0  0  0  0  3  0  0  0  0  0  0
   43.7190   34.5040   42.3640 C   0  0  0  0  0  3  0  0  0  0  0  0
   42.7560   34.7240   41.4440 N   0  0  0  0  0  0  0  0  0  0  0  0
   36.5000   31.0120   40.8790 S   0  0  0  0  0  0  0  0  0  0  0  0
   36.9040   29.4380   41.5800 C   0  0  0  0  0  0  0  0  0  0  0  0
   37.5660   29.2810   42.7980 C   0  0  0  0  0  0  0  0  0  0  0  0
   37.8460   28.0110   43.2800 C   0  0  0  0  0  0  0  0  0  0  0  0
   37.4870   26.8920   42.5890 C   0  0  0  0  0  0  0  0  0  0  0  0
   36.8310   27.0460   41.3830 C   0  0  0  0  0  0  0  0  0  0  0  0
   36.5340   28.3040   40.8670 C   0  0  0  0  0  0  0  0  0  0  0  0
   37.8320   30.1750   43.3140 H   0  0  0  0  0  0  0  0  0  0  0  0
   38.3680   27.9810   44.2430 H   0  0  0  0  0  0  0  0  0  0  0  0
   37.7360   25.9330   43.0220 H   0  0  0  0  0  0  0  0  0  0  0  0
   36.5470   26.1530   40.8330 H   0  0  0  0  0  0  0  0  0  0  0  0
   35.8480   28.4470   39.6060 C   0  0  0  0  0  0  0  0  0  0  0  0
   36.4360   28.2580   38.3840 C   0  0  0  0  0  0  0  0  0  0  0  0
   35.7630   28.4000   37.1710 C   0  0  0  0  0  0  0  0  0  0  0  0
   34.4640   28.7410   37.2040 N   0  0  0  0  0  0  0  0  0  0  0  0
   33.8830   28.9280   38.4020 C   0  0  0  0  0  0  0  0  0  0  0  0
   34.5510   28.7860   39.5600 N   0  0  0  0  0  0  0  0  0  0  0  0
   37.4980   27.9790   38.3710 H   0  0  0  0  0  0  0  0  0  0  0  0
   36.3370   28.2240   36.2810 H   0  0  0  0  0  0  0  0  0  0  0  0
   32.8270   29.2040   38.3670 H   0  0  0  0  0  0  0  0  0  0  0  0
  1  2  1  0  0  0  0
  2  3  2  0  0  0  0
  2 23  1  0  0  0  0
  3  8  1  0  0  0  0
  4  3  1  0  0  0  0
  5  4  2  0  0  0  0
  6  5  1  0  0  0  0
  6  1  2  0  0  0  0
  7  1  1  0  0  0  0
  9  5  1  0  0  0  0
  9 12  1  0  0  0  0
 10  9  1  0  0  0  0
 11  9  1  0  0  0  0
 12 13  1  0  0  0  0
 12 15  1  0  0  0  0
 14 12  1  0  0  0  0
 15 22  1  0  0  0  0
 16 15  2  0  0  0  0
 16 18  1  0  0  0  0
 17 16  1  0  0  0  0
 18 20  2  0  0  0  0
 19 18  1  0  0  0  0
 20 21  1  0  0  0  0
 22 21  2  0  0  0  0
 23 24  1  0  0  0  0
 24 25  1  0  0  0  0
 25 26  2  0  0  0  0
 25 30  1  0  0  0  0
 26 31  1  0  0  0  0
 27 32  1  0  0  0  0
 27 26  1  0  0  0  0
 28 27  2  0  0  0  0
 29 28  1  0  0  0  0
 29 24  2  0  0  0  0
 33 28  1  0  0  0  0
 34 29  1  0  0  0  0
 35 34  2  0  0  0  0
 36 37  2  0  0  0  0
 36 35  1  0  0  0  0
 37 38  1  0  0  0  0
 38 39  2  0  0  0  0
 39 34  1  0  0  0  0
 40 35  1  0  0  0  0
 41 36  1  0  0  0  0
 42 38  1  0  0  0  0
M  END
>  <minimizedAffinity>
-5.50443268

$$$$

 OpenBabel03242517493D

 42 45  0  0  0  0  0  0  0  0999 V2000
   38.3120   30.8900   38.9300 C   0  0  0  0  0  0  0  0  0  0  0  0
   37.5830   31.3430   40.0310 C   0  0  0  0  0  0  0  0  0  0  0  0
   38.0400   32.4790   40.6800 C   0  0  0  0  0  0  0  0  0  0  0  0
   39.1480   33.0820   40.2230 N   0  0  0  0  0  0  0  0  0  0  0  0
   39.8320   32.6050   39.1400 C   0  0  0  0  0  0  0  0  0  0  0  0
   39.4500   31.5230   38.4750 N   0  0  0  0  0  0  0  0  0  0  0  0
   38.0190   30.0140   38.3730 H   0  0  0  0  0  0  0  0  0  0  0  0
   37.5130   32.8760   41.5410 H   0  0  0  0  0  0  0  0  0  0  0  0
   41.0600   33.3590   38.7170 C   0  0  0  0  0  0  0  0  0  0  0  0
   41.7180   32.7330   38.1040 H   0  0  0  0  0  0  0  0  0  0  0  0
   40.6780   34.1860   38.0860 H   0  0  0  0  0  0  0  0  0  0  0  0
   41.7810   33.9290   39.9420 C   0  0  0  0  0  0  0  0  0  0  0  0
   41.5130   33.2860   40.8050 H   0  0  0  0  0  0  0  0  0  0  0  0
   41.2810   34.9030   40.1470 H   0  0  0  0  0  0  0  0  0  0  0  0
   43.2230   34.0500   39.7200 C   0  0  0  0  0  0  0  0  0  0  0  0
   43.8160   33.8760   38.4860 C   0  0  0  0  0  0  0  0  0  0  0  0
   43.2310   33.6410   37.6300 H   0  0  0  0  0  0  0  0  0  0  0  0
   45.1880   34.0220   38.4300 C   0  0  0  0  0  0  0  0  0  0  0  0
   45.7360   33.9050   37.5210 H   0  0  0  0  0  0  0  0  0  0  0  0
   45.9470   34.3290   39.5580 C   0  0  0  0  0  3  0  0  0  0  0  0
   45.2970   34.4920   40.7670 C   0  0  0  0  0  3  0  0  0  0  0  0
   43.9560   34.3510   40.8260 N   0  0  0  0  0  0  0  0  0  0  0  0
   36.1270   30.4870   40.5700 S   0  0  0  0  0  0  0  0  0  0  0  0
   35.8530   29.0550   39.5670 C   0  0  0  0  0  0  0  0  0  0  0  0
   35.1340   29.0750   38.3710 C   0  0  0  0  0  0  0  0  0  0  0  0
   34.9640   27.9080   37.6420 C   0  0  0  0  0  0  0  0  0  0  0  0
   35.4870   26.7220   38.0630 C   0  0  0  0  0  0  0  0  0  0  0  0
   36.1990   26.7010   39.2470 C   0  0  0  0  0  0  0  0  0  0  0  0
   36.3900   27.8510   40.0060 C   0  0  0  0  0  0  0  0  0  0  0  0
   34.7390   30.0180   38.0690 H   0  0  0  0  0  0  0  0  0  0  0  0
   34.3860   28.0150   36.7160 H   0  0  0  0  0  0  0  0  0  0  0  0
   35.3160   25.8500   37.4460 H   0  0  0  0  0  0  0  0  0  0  0  0
   36.6130   25.7550   39.5820 H   0  0  0  0  0  0  0  0  0  0  0  0
   37.1360   27.8120   41.2400 C   0  0  0  0  0  0  0  0  0  0  0  0
   36.5730   27.6330   42.4750 C   0  0  0  0  0  0  0  0  0  0  0  0
   37.3040   27.5980   43.6620 C   0  0  0  0  0  0  0  0  0  0  0  0
   38.6370   27.7460   43.5880 N   0  0  0  0  0  0  0  0  0  0  0  0
   39.1940   27.9220   42.3770 C   0  0  0  0  0  0  0  0  0  0  0  0
   38.4700   27.9530   41.2460 N   0  0  0  0  0  0  0  0  0  0  0  0
   35.4820   27.5130   42.5210 H   0  0  0  0  0  0  0  0  0  0  0  0
   36.7440   27.4510   44.5660 H   0  0  0  0  0  0  0  0  0  0  0  0
   40.2810   28.0380   42.3790 H   0  0  0  0  0  0  0  0  0  0  0  0
  1  2  1  0  0  0  0
  2 23  1  0  0  0  0
  2  3  2  0  0  0  0
  3  8  1  0  0  0  0
  4  3  1  0  0  0  0
  5  4  2  0  0  0  0
  6  1  2  0  0  0  0
  6  5  1  0  0  0  0
  7  1  1  0  0  0  0
  9  5  1  0  0  0  0
  9 12  1  0  0  0  0
 10  9  1  0  0  0  0
 11  9  1  0  0  0  0
 12 14  1  0  0  0  0
 12 13  1  0  0  0  0
 15 12  1  0  0  0  0
 15 22  1  0  0  0  0
 16 15  2  0  0  0  0
 17 16  1  0  0  0  0
 18 16  1  0  0  0  0
 18 20  2  0  0  0  0
 19 18  1  0  0  0  0
 20 21  1  0  0  0  0
 21 22  2  0  0  0  0
 24 29  1  0  0  0  0
 24 23  1  0  0  0  0
 25 24  2  0  0  0  0
 26 27  2  0  0  0  0
 26 25  1  0  0  0  0
 27 28  1  0  0  0  0
 28 33  1  0  0  0  0
 28 29  2  0  0  0  0
 29 34  1  0  0  0  0
 30 25  1  0  0  0  0
 31 26  1  0  0  0  0
 32 27  1  0  0  0  0
 34 39  2  0  0  0  0
 34 35  1  0  0  0  0
 35 40  1  0  0  0  0
 35 36  2  0  0  0  0
 36 41  1  0  0  0  0
 37 36  1  0  0  0  0
 38 42  1  0  0  0  0
 38 37  2  0  0  0  0
 39 38  1  0  0  0  0
M  END
>  <minimizedAffinity>
-5.48345852

$$$$
