
 OpenBabel03252507223D

 46 49  0  0  1  0  0  0  0  0999 V2000
   46.7540   32.2680   44.1400 C   0  0  0  0  0  0  0  0  0  0  0  0
   48.0000   32.3390   44.3130 O   0  0  0  0  0  0  0  0  0  0  0  0
   46.1000   31.1420   43.5790 N   0  0  0  0  0  0  0  0  0  0  0  0
   44.8640   30.4560   43.9930 C   0  0  0  0  0  0  0  0  0  0  0  0
   43.9280   30.3420   42.7950 C   0  0  0  0  0  0  0  0  0  0  0  0
   44.5380   29.4510   41.7640 C   0  0  0  0  0  0  0  0  0  0  0  0
   46.0110   29.2670   42.0410 C   0  0  0  0  0  0  0  0  0  0  0  0
   46.6980   30.5270   42.4300 C   0  0  2  0  0  0  0  0  0  0  0  0
   45.1020   29.4220   44.3140 H   0  0  0  0  0  0  0  0  0  0  0  0
   44.3420   31.0220   44.7950 H   0  0  0  0  0  0  0  0  0  0  0  0
   42.9330   30.0500   43.1280 H   0  0  0  0  0  0  0  0  0  0  0  0
   43.8880   31.3830   42.3760 H   0  0  0  0  0  0  0  0  0  0  0  0
   44.3440   29.8150   40.7530 H   0  0  0  0  0  0  0  0  0  0  0  0
   44.0480   28.4540   41.8910 H   0  0  0  0  0  0  0  0  0  0  0  0
   46.2130   28.4120   42.7120 H   0  0  0  0  0  0  0  0  0  0  0  0
   46.4490   28.9700   41.0410 H   0  0  0  0  0  0  0  0  0  0  0  0
   46.5170   31.2540   41.5800 H   0  0  0  0  0  0  0  0  0  0  0  0
   45.5480   34.3080   43.5320 C   0  0  0  0  0  0  0  0  0  0  0  0
   45.9590   33.4070   44.5410 C   0  0  0  0  0  0  0  0  0  0  0  0
   45.6060   33.6230   45.8660 C   0  0  0  0  0  0  0  0  0  0  0  0
   44.8600   34.7180   46.1380 N   0  0  0  0  0  0  0  0  0  0  0  0
   44.4510   35.6000   45.1830 C   0  0  0  0  0  0  0  0  0  0  0  0
   44.8060   35.3740   43.8940 N   0  0  0  0  0  0  0  0  0  0  0  0
   45.8370   34.1170   42.5080 H   0  0  0  0  0  0  0  0  0  0  0  0
   43.8560   36.4660   45.4360 H   0  0  0  0  0  0  0  0  0  0  0  0
   46.0490   32.6870   46.8650 C   0  0  0  0  0  0  0  0  0  0  0  0
   45.2360   31.6930   47.2900 C   0  0  0  0  0  0  0  0  0  0  0  0
   45.6870   30.8080   48.2490 C   0  0  0  0  0  0  0  0  0  0  0  0
   46.9610   30.8930   48.8090 C   0  0  0  0  0  0  0  0  0  0  0  0
   47.7560   31.9300   48.3390 C   0  0  0  0  0  0  0  0  0  0  0  0
   47.2830   32.7690   47.4070 N   0  0  0  0  0  0  0  0  0  0  0  0
   44.2300   31.4960   46.9630 H   0  0  0  0  0  0  0  0  0  0  0  0
   45.0800   29.9910   48.6290 H   0  0  0  0  0  0  0  0  0  0  0  0
   47.3120   30.2010   49.5590 H   0  0  0  0  0  0  0  0  0  0  0  0
   48.7550   32.0780   48.7110 H   0  0  0  0  0  0  0  0  0  0  0  0
   48.1650   30.3190   42.5130 C   0  0  0  0  0  0  0  0  0  0  0  0
   48.7090   30.6950   43.3720 H   0  0  0  0  0  0  0  0  0  0  0  0
   48.3670   29.2270   42.5380 H   0  0  0  0  0  0  0  0  0  0  0  0
   48.8590   30.7620   41.2350 C   0  0  0  0  0  0  0  0  0  0  0  0
   49.8270   29.9850   40.6280 C   0  0  0  0  0  0  0  0  0  0  0  0
   50.0900   29.0370   41.0770 H   0  0  0  0  0  0  0  0  0  0  0  0
   50.3630   30.5280   39.4850 C   0  0  0  0  0  0  0  0  0  0  0  0
   51.1330   29.9450   38.9720 H   0  0  0  0  0  0  0  0  0  0  0  0
   49.9230   31.7480   39.0400 C   0  0  0  0  0  3  0  0  0  0  0  0
   48.9440   32.4830   39.6960 C   0  0  0  0  0  3  0  0  0  0  0  0
   48.4080   31.9620   40.8220 N   0  0  0  0  0  0  0  0  0  0  0  0
  1  2  2  0  0  0  0
  1 19  1  0  0  0  0
  3  4  1  0  0  0  0
  3  1  1  0  0  0  0
  4  9  1  0  0  0  0
  4 10  1  0  0  0  0
  5 11  1  0  0  0  0
  5  4  1  0  0  0  0
  6 14  1  0  0  0  0
  6  7  1  0  0  0  0
  6  5  1  0  0  0  0
  7  8  1  0  0  0  0
  7 15  1  0  0  0  0
  8 17  1  6  0  0  0
  8 36  1  0  0  0  0
  8  3  1  0  0  0  0
 12  5  1  0  0  0  0
 13  6  1  0  0  0  0
 16  7  1  0  0  0  0
 18 23  2  0  0  0  0
 18 19  1  0  0  0  0
 19 20  2  0  0  0  0
 20 21  1  0  0  0  0
 20 26  1  0  0  0  0
 22 25  1  0  0  0  0
 22 21  2  0  0  0  0
 23 22  1  0  0  0  0
 24 18  1  0  0  0  0
 26 27  2  0  0  0  0
 26 31  1  0  0  0  0
 27 28  1  0  0  0  0
 28 33  1  0  0  0  0
 28 29  2  0  0  0  0
 29 34  1  0  0  0  0
 30 35  1  0  0  0  0
 30 29  1  0  0  0  0
 31 30  2  0  0  0  0
 32 27  1  0  0  0  0
 36 38  1  0  0  0  0
 36 37  1  0  0  0  0
 39 36  1  0  0  0  0
 40 41  1  0  0  0  0
 40 39  2  0  0  0  0
 42 40  1  0  0  0  0
 43 42  1  0  0  0  0
 44 42  2  0  0  0  0
 44 45  1  0  0  0  0
 45 46  2  0  0  0  0
 46 39  1  0  0  0  0
M  END
>  <minimizedAffinity>
-4.55270147

>  <minimizedRMSD>
2.78962588

$$$$
