
 OpenBabel03242517473D

 42 45  0  0  0  0  0  0  0  0999 V2000
   38.5690   31.8110   41.2160 C   0  0  0  0  0  0  0  0  0  0  0  0
   39.8640   31.6110   40.7360 C   0  0  0  0  0  0  0  0  0  0  0  0
   40.1420   30.3990   40.1240 C   0  0  0  0  0  0  0  0  0  0  0  0
   39.1640   29.4860   40.0240 N   0  0  0  0  0  0  0  0  0  0  0  0
   37.9080   29.7220   40.5080 C   0  0  0  0  0  0  0  0  0  0  0  0
   37.5750   30.8600   41.1050 N   0  0  0  0  0  0  0  0  0  0  0  0
   38.2760   32.7260   41.7030 H   0  0  0  0  0  0  0  0  0  0  0  0
   41.1320   30.1890   39.7320 H   0  0  0  0  0  0  0  0  0  0  0  0
   36.8910   28.6300   40.3420 C   0  0  0  0  0  0  0  0  0  0  0  0
   36.1040   28.7020   41.1010 H   0  0  0  0  0  0  0  0  0  0  0  0
   36.4370   28.8170   39.3490 H   0  0  0  0  0  0  0  0  0  0  0  0
   37.5780   27.2610   40.3500 C   0  0  0  0  0  0  0  0  0  0  0  0
   38.3770   27.3030   41.1190 H   0  0  0  0  0  0  0  0  0  0  0  0
   38.1200   27.2000   39.3790 H   0  0  0  0  0  0  0  0  0  0  0  0
   36.6210   26.1710   40.5520 C   0  0  0  0  0  0  0  0  0  0  0  0
   36.9920   24.9030   40.9530 C   0  0  0  0  0  0  0  0  0  0  0  0
   38.0120   24.6670   41.1350 H   0  0  0  0  0  0  0  0  0  0  0  0
   35.9780   23.9770   41.1020 C   0  0  0  0  0  0  0  0  0  0  0  0
   36.1660   22.9720   41.4080 H   0  0  0  0  0  0  0  0  0  0  0  0
   34.6420   24.2960   40.8610 C   0  0  0  0  0  0  0  0  0  0  0  0
   34.3320   25.5830   40.4610 C   0  0  0  0  0  0  0  0  0  0  0  0
   35.3200   26.4910   40.3140 N   0  0  0  0  0  0  0  0  0  0  0  0
   41.1000   32.8710   40.9080 S   0  0  0  0  0  0  0  0  0  0  0  0
   41.0200   33.9960   39.5450 C   0  0  0  0  0  0  0  0  0  0  0  0
   39.9510   34.0520   38.6500 C   0  0  0  0  0  0  0  0  0  0  0  0
   39.9650   34.9640   37.6060 C   0  0  0  0  0  0  0  0  0  0  0  0
   41.0070   35.8240   37.4240 C   0  0  0  0  0  0  0  0  0  0  0  0
   42.0660   35.7690   38.3100 C   0  0  0  0  0  0  0  0  0  0  0  0
   42.0880   34.8670   39.3690 C   0  0  0  0  0  0  0  0  0  0  0  0
   39.1520   33.3670   38.8210 H   0  0  0  0  0  0  0  0  0  0  0  0
   39.0850   34.9390   36.9520 H   0  0  0  0  0  0  0  0  0  0  0  0
   40.9520   36.5090   36.5900 H   0  0  0  0  0  0  0  0  0  0  0  0
   42.8960   36.4540   38.1630 H   0  0  0  0  0  0  0  0  0  0  0  0
   43.2020   34.8240   40.2850 C   0  0  0  0  0  0  0  0  0  0  0  0
   44.2930   34.0110   40.1320 C   0  0  0  0  0  0  0  0  0  0  0  0
   45.3640   33.9770   41.0250 C   0  0  0  0  0  0  0  0  0  0  0  0
   45.3220   34.7890   42.0940 N   0  0  0  0  0  0  0  0  0  0  0  0
   44.2520   35.5880   42.2480 C   0  0  0  0  0  0  0  0  0  0  0  0
   43.2300   35.6040   41.3750 N   0  0  0  0  0  0  0  0  0  0  0  0
   44.3150   33.3530   39.2530 H   0  0  0  0  0  0  0  0  0  0  0  0
   46.1610   33.2960   40.7920 H   0  0  0  0  0  0  0  0  0  0  0  0
   44.2730   36.2250   43.1360 H   0  0  0  0  0  0  0  0  0  0  0  0
  1  7  1  0  0  0  0
  2 23  1  0  0  0  0
  2  1  2  0  0  0  0
  3  2  1  0  0  0  0
  4  3  2  0  0  0  0
  4  5  1  0  0  0  0
  5  6  2  0  0  0  0
  6  1  1  0  0  0  0
  8  3  1  0  0  0  0
  9 12  1  0  0  0  0
  9  5  1  0  0  0  0
  9 10  1  0  0  0  0
 11  9  1  0  0  0  0
 12 15  1  0  0  0  0
 12 13  1  0  0  0  0
 14 12  1  0  0  0  0
 15 16  1  0  0  0  0
 16 18  2  0  0  0  0
 16 17  1  0  0  0  0
 18 19  1  0  0  0  0
 20 18  1  0  0  0  0
 21 20  2  0  0  0  0
 22 21  1  0  0  0  0
 22 15  2  0  0  0  0
 24 23  1  0  0  0  0
 25 30  1  0  0  0  0
 25 24  2  0  0  0  0
 26 25  1  0  0  0  0
 27 26  2  0  0  0  0
 27 28  1  0  0  0  0
 28 29  2  0  0  0  0
 29 24  1  0  0  0  0
 29 34  1  0  0  0  0
 31 26  1  0  0  0  0
 32 27  1  0  0  0  0
 33 28  1  0  0  0  0
 34 39  1  0  0  0  0
 35 34  2  0  0  0  0
 35 36  1  0  0  0  0
 36 37  2  0  0  0  0
 37 38  1  0  0  0  0
 38 42  1  0  0  0  0
 39 38  2  0  0  0  0
 40 35  1  0  0  0  0
 41 36  1  0  0  0  0
M  END
>  <minimizedAffinity>
-5.48631334

>  <minimizedRMSD>
2.91123939

$$$$
