
 OpenBabel03242523443D

 30 32  0  0  1  0  0  0  0  0999 V2000
   35.7960   28.7850   39.8490 C   0  0  2  0  0  0  0  0  0  0  0  0
   35.1800   28.5550   40.7180 H   0  0  0  0  0  0  0  0  0  0  0  0
   35.5950   27.7850   37.6200 C   0  0  0  0  0  0  0  0  0  0  0  0
   34.9910   28.5570   38.6360 C   0  0  0  0  0  0  0  0  0  0  0  0
   33.6940   29.0660   38.4420 C   0  0  0  0  0  0  0  0  0  0  0  0
   33.1230   28.7630   37.2660 N   0  0  0  0  0  0  0  0  0  0  0  0
   33.7000   28.0320   36.3090 C   0  0  0  0  0  0  0  0  0  0  0  0
   34.9340   27.5380   36.4740 N   0  0  0  0  0  0  0  0  0  0  0  0
   36.5920   27.3870   37.7540 H   0  0  0  0  0  0  0  0  0  0  0  0
   33.2560   29.6520   39.2330 H   0  0  0  0  0  0  0  0  0  0  0  0
   33.2230   27.8020   35.3750 H   0  0  0  0  0  0  0  0  0  0  0  0
   36.2510   30.2120   39.8490 C   0  0  0  0  0  0  0  0  0  0  0  0
   36.2460   31.1340   40.8820 C   0  0  0  0  0  0  0  0  0  0  0  0
   36.7550   32.3020   40.4390 N   0  0  0  0  0  0  0  0  0  0  0  0
   37.0810   32.1160   39.1260 C   0  0  0  0  0  0  0  0  0  0  0  0
   36.7690   30.8360   38.7760 N   0  0  0  0  0  0  0  0  0  0  0  0
   35.8820   30.9300   41.8970 H   0  0  0  0  0  0  0  0  0  0  0  0
   36.8510   33.1470   41.0460 H   0  0  0  0  0  0  0  0  0  0  0  0
   37.5110   32.9370   38.5670 H   0  0  0  0  0  0  0  0  0  0  0  0
   36.9840   27.8860   39.8000 C   0  0  0  0  0  0  0  0  0  0  0  0
   36.7570   26.8840   39.3870 H   0  0  0  0  0  0  0  0  0  0  0  0
   37.7750   28.3360   39.1290 H   0  0  0  0  0  0  0  0  0  0  0  0
   37.6280   27.7040   41.1230 C   0  0  0  0  0  0  0  0  0  0  0  0
   36.7060   27.5790   42.1630 C   0  0  0  0  0  0  0  0  0  0  0  0
   35.6240   27.6100   42.0290 H   0  0  0  0  0  0  0  0  0  0  0  0
   37.1240   27.4030   43.4610 C   0  0  0  0  0  0  0  0  0  0  0  0
   36.4390   27.3020   44.2940 H   0  0  0  0  0  0  0  0  0  0  0  0
   38.5010   27.3580   43.6790 C   0  0  0  0  0  3  0  0  0  0  0  0
   39.4100   27.4830   42.6340 C   0  0  0  0  0  3  0  0  0  0  0  0
   38.9600   27.6520   41.3950 N   0  0  0  0  0  0  0  0  0  0  0  0
  1  2  1  1  0  0  0
  3  9  1  0  0  0  0
  3  4  1  0  0  0  0
  4  1  1  0  0  0  0
  5  4  2  0  0  0  0
  5 10  1  0  0  0  0
  6  5  1  0  0  0  0
  7  8  1  0  0  0  0
  7  6  2  0  0  0  0
  8  3  2  0  0  0  0
 11  7  1  0  0  0  0
 12  1  1  0  0  0  0
 12 13  2  0  0  0  0
 13 17  1  0  0  0  0
 14 13  1  0  0  0  0
 14 18  1  0  0  0  0
 15 14  1  0  0  0  0
 16 15  2  0  0  0  0
 16 12  1  0  0  0  0
 19 15  1  0  0  0  0
 20  1  1  0  0  0  0
 20 23  1  0  0  0  0
 21 20  1  0  0  0  0
 22 20  1  0  0  0  0
 23 30  2  0  0  0  0
 23 24  1  0  0  0  0
 24 26  2  0  0  0  0
 25 24  1  0  0  0  0
 26 28  1  0  0  0  0
 26 27  1  0  0  0  0
 29 28  2  0  0  0  0
 30 29  1  0  0  0  0
M  END
>  <minimizedAffinity>
-4.87775135

$$$$

 OpenBabel03242523443D

 30 32  0  0  1  0  0  0  0  0999 V2000
   36.7000   29.3260   39.1550 C   0  0  2  0  0  0  0  0  0  0  0  0
   35.8210   28.9360   39.6660 H   0  0  0  0  0  0  0  0  0  0  0  0
   35.2240   29.2860   37.1970 C   0  0  0  0  0  0  0  0  0  0  0  0
   36.5290   29.1090   37.7070 C   0  0  0  0  0  0  0  0  0  0  0  0
   37.5680   28.7320   36.8360 C   0  0  0  0  0  0  0  0  0  0  0  0
   37.2170   28.5680   35.5520 N   0  0  0  0  0  0  0  0  0  0  0  0
   35.9800   28.7380   35.0760 C   0  0  0  0  0  0  0  0  0  0  0  0
   34.9760   29.0960   35.8880 N   0  0  0  0  0  0  0  0  0  0  0  0
   34.4140   29.5750   37.8530 H   0  0  0  0  0  0  0  0  0  0  0  0
   38.5540   28.6040   37.2510 H   0  0  0  0  0  0  0  0  0  0  0  0
   35.7220   28.6010   34.0430 H   0  0  0  0  0  0  0  0  0  0  0  0
   36.8780   30.7940   39.3900 C   0  0  0  0  0  0  0  0  0  0  0  0
   36.6460   31.5330   40.5380 C   0  0  0  0  0  0  0  0  0  0  0  0
   36.9490   32.8260   40.3050 N   0  0  0  0  0  0  0  0  0  0  0  0
   37.3740   32.9030   39.0090 C   0  0  0  0  0  0  0  0  0  0  0  0
   37.3260   31.6570   38.4590 N   0  0  0  0  0  0  0  0  0  0  0  0
   36.2730   31.1150   41.4820 H   0  0  0  0  0  0  0  0  0  0  0  0
   36.8530   33.5730   41.0300 H   0  0  0  0  0  0  0  0  0  0  0  0
   37.6710   33.8630   38.6070 H   0  0  0  0  0  0  0  0  0  0  0  0
   37.9250   28.6010   39.5970 C   0  0  0  0  0  0  0  0  0  0  0  0
   38.0870   27.6480   39.0560 H   0  0  0  0  0  0  0  0  0  0  0  0
   38.8370   29.2380   39.4010 H   0  0  0  0  0  0  0  0  0  0  0  0
   37.9340   28.3120   41.0520 C   0  0  0  0  0  0  0  0  0  0  0  0
   36.7450   27.7330   41.4970 C   0  0  0  0  0  0  0  0  0  0  0  0
   35.8920   27.5120   40.8530 H   0  0  0  0  0  0  0  0  0  0  0  0
   36.5740   27.3980   42.8190 C   0  0  0  0  0  0  0  0  0  0  0  0
   35.6670   26.9480   43.2030 H   0  0  0  0  0  0  0  0  0  0  0  0
   37.6400   27.6640   43.6800 C   0  0  0  0  0  3  0  0  0  0  0  0
   38.8200   28.2410   43.2230 C   0  0  0  0  0  3  0  0  0  0  0  0
   38.9400   28.5480   41.9360 N   0  0  0  0  0  0  0  0  0  0  0  0
  1 12  1  0  0  0  0
  1 20  1  0  0  0  0
  1  2  1  1  0  0  0
  3  4  1  0  0  0  0
  3  9  1  0  0  0  0
  4  1  1  0  0  0  0
  5 10  1  0  0  0  0
  5  4  2  0  0  0  0
  6  5  1  0  0  0  0
  7  6  2  0  0  0  0
  7  8  1  0  0  0  0
  8  3  2  0  0  0  0
 11  7  1  0  0  0  0
 12 13  2  0  0  0  0
 13 17  1  0  0  0  0
 14 13  1  0  0  0  0
 14 18  1  0  0  0  0
 15 14  1  0  0  0  0
 16 15  2  0  0  0  0
 16 12  1  0  0  0  0
 19 15  1  0  0  0  0
 20 23  1  0  0  0  0
 21 20  1  0  0  0  0
 22 20  1  0  0  0  0
 23 24  2  0  0  0  0
 23 30  1  0  0  0  0
 24 26  1  0  0  0  0
 25 24  1  0  0  0  0
 26 27  1  0  0  0  0
 26 28  2  0  0  0  0
 29 28  1  0  0  0  0
 30 29  2  0  0  0  0
M  END
>  <minimizedAffinity>
-4.8700366

$$$$

 OpenBabel03242523443D

 30 32  0  0  1  0  0  0  0  0999 V2000
   36.8930   29.0740   39.7310 C   0  0  2  0  0  0  0  0  0  0  0  0
   37.4960   28.6500   38.9280 H   0  0  0  0  0  0  0  0  0  0  0  0
   36.4720   28.0330   41.9110 C   0  0  0  0  0  0  0  0  0  0  0  0
   37.4190   28.5800   41.0160 C   0  0  0  0  0  0  0  0  0  0  0  0
   38.7740   28.6360   41.3900 C   0  0  0  0  0  0  0  0  0  0  0  0
   39.0600   28.1480   42.6060 N   0  0  0  0  0  0  0  0  0  0  0  0
   38.1600   27.6320   43.4470 C   0  0  0  0  0  0  0  0  0  0  0  0
   36.8650   27.5690   43.1120 N   0  0  0  0  0  0  0  0  0  0  0  0
   35.4270   27.9830   41.6390 H   0  0  0  0  0  0  0  0  0  0  0  0
   39.4740   29.0580   40.6880 H   0  0  0  0  0  0  0  0  0  0  0  0
   38.4130   27.2460   44.4170 H   0  0  0  0  0  0  0  0  0  0  0  0
   36.9530   30.5700   39.7440 C   0  0  0  0  0  0  0  0  0  0  0  0
   36.5860   31.4550   40.7440 C   0  0  0  0  0  0  0  0  0  0  0  0
   36.8180   32.7170   40.3290 N   0  0  0  0  0  0  0  0  0  0  0  0
   37.3340   32.6290   39.0670 C   0  0  0  0  0  0  0  0  0  0  0  0
   37.4110   31.3130   38.7190 N   0  0  0  0  0  0  0  0  0  0  0  0
   36.1720   31.1580   41.7150 H   0  0  0  0  0  0  0  0  0  0  0  0
   36.6170   33.5550   40.9200 H   0  0  0  0  0  0  0  0  0  0  0  0
   37.5960   33.5360   38.5390 H   0  0  0  0  0  0  0  0  0  0  0  0
   35.4740   28.6360   39.6050 C   0  0  0  0  0  0  0  0  0  0  0  0
   35.3030   27.6000   39.9590 H   0  0  0  0  0  0  0  0  0  0  0  0
   34.8120   29.3020   40.2340 H   0  0  0  0  0  0  0  0  0  0  0  0
   34.9560   28.7400   38.2190 C   0  0  0  0  0  0  0  0  0  0  0  0
   33.5760   28.9430   38.1690 C   0  0  0  0  0  0  0  0  0  0  0  0
   32.9370   29.0190   39.0490 H   0  0  0  0  0  0  0  0  0  0  0  0
   32.9230   29.0630   36.9660 C   0  0  0  0  0  0  0  0  0  0  0  0
   31.8550   29.2210   36.8860 H   0  0  0  0  0  0  0  0  0  0  0  0
   33.7030   28.9720   35.8130 C   0  0  0  0  0  3  0  0  0  0  0  0
   35.0780   28.7700   35.8760 C   0  0  0  0  0  3  0  0  0  0  0  0
   35.6670   28.6590   37.0620 N   0  0  0  0  0  0  0  0  0  0  0  0
  1  2  1  6  0  0  0
  1 12  1  0  0  0  0
  1  4  1  0  0  0  0
  3  8  1  0  0  0  0
  4  5  1  0  0  0  0
  4  3  2  0  0  0  0
  5  6  2  0  0  0  0
  6  7  1  0  0  0  0
  7 11  1  0  0  0  0
  8  7  2  0  0  0  0
  9  3  1  0  0  0  0
 10  5  1  0  0  0  0
 12 13  2  0  0  0  0
 13 17  1  0  0  0  0
 14 13  1  0  0  0  0
 14 18  1  0  0  0  0
 15 14  1  0  0  0  0
 16 15  2  0  0  0  0
 16 12  1  0  0  0  0
 19 15  1  0  0  0  0
 20  1  1  0  0  0  0
 20 21  1  0  0  0  0
 20 22  1  0  0  0  0
 23 20  1  0  0  0  0
 24 23  1  0  0  0  0
 24 25  1  0  0  0  0
 26 24  2  0  0  0  0
 27 26  1  0  0  0  0
 28 29  2  0  0  0  0
 28 26  1  0  0  0  0
 29 30  1  0  0  0  0
 30 23  2  0  0  0  0
M  END
>  <minimizedAffinity>
-4.81096888

$$$$

 OpenBabel03242523443D

 30 32  0  0  1  0  0  0  0  0999 V2000
   37.3770   30.6010   40.5110 C   0  0  2  0  0  0  0  0  0  0  0  0
   36.4480   30.5160   41.0750 H   0  0  0  0  0  0  0  0  0  0  0  0
   38.3070   29.8690   38.3630 C   0  0  0  0  0  0  0  0  0  0  0  0
   37.1580   30.0310   39.1690 C   0  0  0  0  0  0  0  0  0  0  0  0
   35.8980   29.6650   38.6620 C   0  0  0  0  0  0  0  0  0  0  0  0
   35.8960   29.1750   37.4130 N   0  0  0  0  0  0  0  0  0  0  0  0
   36.9860   29.0240   36.6560 C   0  0  0  0  0  0  0  0  0  0  0  0
   38.1950   29.3670   37.1200 N   0  0  0  0  0  0  0  0  0  0  0  0
   39.2820   30.1460   38.7380 H   0  0  0  0  0  0  0  0  0  0  0  0
   35.0380   29.7990   39.2980 H   0  0  0  0  0  0  0  0  0  0  0  0
   36.9600   28.6290   35.6590 H   0  0  0  0  0  0  0  0  0  0  0  0
   37.8040   32.0270   40.3510 C   0  0  0  0  0  0  0  0  0  0  0  0
   37.2660   33.0200   39.5510 C   0  0  0  0  0  0  0  0  0  0  0  0
   37.9640   34.1610   39.7270 N   0  0  0  0  0  0  0  0  0  0  0  0
   38.9420   33.8870   40.6400 C   0  0  0  0  0  0  0  0  0  0  0  0
   38.8360   32.5810   41.0140 N   0  0  0  0  0  0  0  0  0  0  0  0
   36.4070   32.8830   38.8830 H   0  0  0  0  0  0  0  0  0  0  0  0
   37.7370   35.0490   39.2230 H   0  0  0  0  0  0  0  0  0  0  0  0
   39.6270   34.6730   40.9310 H   0  0  0  0  0  0  0  0  0  0  0  0
   38.4630   29.8280   41.1770 C   0  0  0  0  0  0  0  0  0  0  0  0
   39.3640   29.7060   40.5440 H   0  0  0  0  0  0  0  0  0  0  0  0
   38.8000   30.3700   42.1100 H   0  0  0  0  0  0  0  0  0  0  0  0
   38.0270   28.4820   41.6230 C   0  0  0  0  0  0  0  0  0  0  0  0
   37.1650   28.5280   42.7200 C   0  0  0  0  0  0  0  0  0  0  0  0
   36.8400   29.4490   43.2050 H   0  0  0  0  0  0  0  0  0  0  0  0
   36.6600   27.3730   43.2690 C   0  0  0  0  0  0  0  0  0  0  0  0
   35.9890   27.3670   44.1200 H   0  0  0  0  0  0  0  0  0  0  0  0
   37.0510   26.1700   42.6800 C   0  0  0  0  0  3  0  0  0  0  0  0
   37.9100   26.1390   41.5870 C   0  0  0  0  0  3  0  0  0  0  0  0
   38.3740   27.2800   41.0890 N   0  0  0  0  0  0  0  0  0  0  0  0
  1  2  1  1  0  0  0
  1 20  1  0  0  0  0
  3  9  1  0  0  0  0
  3  4  1  0  0  0  0
  4  1  1  0  0  0  0
  5  4  2  0  0  0  0
  5 10  1  0  0  0  0
  6  5  1  0  0  0  0
  7  8  1  0  0  0  0
  7  6  2  0  0  0  0
  8  3  2  0  0  0  0
 11  7  1  0  0  0  0
 12  1  1  0  0  0  0
 12 16  1  0  0  0  0
 13 14  1  0  0  0  0
 13 12  2  0  0  0  0
 14 15  1  0  0  0  0
 15 19  1  0  0  0  0
 15 16  2  0  0  0  0
 17 13  1  0  0  0  0
 18 14  1  0  0  0  0
 20 23  1  0  0  0  0
 20 22  1  0  0  0  0
 21 20  1  0  0  0  0
 23 24  1  0  0  0  0
 24 25  1  0  0  0  0
 24 26  2  0  0  0  0
 26 27  1  0  0  0  0
 28 26  1  0  0  0  0
 29 28  2  0  0  0  0
 30 29  1  0  0  0  0
 30 23  2  0  0  0  0
M  END
>  <minimizedAffinity>
-4.76233435

$$$$

 OpenBabel03242523443D

 30 32  0  0  1  0  0  0  0  0999 V2000
   37.3920   30.5870   40.4460 C   0  0  2  0  0  0  0  0  0  0  0  0
   36.4670   30.4950   41.0150 H   0  0  0  0  0  0  0  0  0  0  0  0
   35.8240   29.7120   38.7770 C   0  0  0  0  0  0  0  0  0  0  0  0
   37.1570   30.0600   39.0900 C   0  0  0  0  0  0  0  0  0  0  0  0
   38.1660   29.8800   38.1260 C   0  0  0  0  0  0  0  0  0  0  0  0
   37.7610   29.3750   36.9510 N   0  0  0  0  0  0  0  0  0  0  0  0
   36.4980   29.0490   36.6610 C   0  0  0  0  0  0  0  0  0  0  0  0
   35.5230   29.2120   37.5640 N   0  0  0  0  0  0  0  0  0  0  0  0
   35.0380   29.8440   39.5060 H   0  0  0  0  0  0  0  0  0  0  0  0
   39.1730   30.1530   38.3920 H   0  0  0  0  0  0  0  0  0  0  0  0
   36.1980   28.6460   35.7120 H   0  0  0  0  0  0  0  0  0  0  0  0
   37.8330   32.0130   40.3250 C   0  0  0  0  0  0  0  0  0  0  0  0
   37.3070   33.0310   39.5490 C   0  0  0  0  0  0  0  0  0  0  0  0
   38.0140   34.1610   39.7570 N   0  0  0  0  0  0  0  0  0  0  0  0
   38.9870   33.8550   40.6660 C   0  0  0  0  0  0  0  0  0  0  0  0
   38.8680   32.5410   41.0060 N   0  0  0  0  0  0  0  0  0  0  0  0
   36.4490   32.9200   38.8750 H   0  0  0  0  0  0  0  0  0  0  0  0
   37.7980   35.0640   39.2760 H   0  0  0  0  0  0  0  0  0  0  0  0
   39.6770   34.6270   40.9800 H   0  0  0  0  0  0  0  0  0  0  0  0
   38.4760   29.7840   41.0800 C   0  0  0  0  0  0  0  0  0  0  0  0
   39.3500   29.6290   40.4180 H   0  0  0  0  0  0  0  0  0  0  0  0
   38.8610   30.3210   41.9980 H   0  0  0  0  0  0  0  0  0  0  0  0
   38.0130   28.4560   41.5510 C   0  0  0  0  0  0  0  0  0  0  0  0
   37.1420   28.5390   42.6380 C   0  0  0  0  0  0  0  0  0  0  0  0
   36.8280   29.4760   43.1010 H   0  0  0  0  0  0  0  0  0  0  0  0
   36.6130   27.4050   43.2070 C   0  0  0  0  0  0  0  0  0  0  0  0
   35.9340   27.4290   44.0510 H   0  0  0  0  0  0  0  0  0  0  0  0
   36.9880   26.1840   42.6470 C   0  0  0  0  0  3  0  0  0  0  0  0
   37.8570   26.1150   41.5630 C   0  0  0  0  0  3  0  0  0  0  0  0
   38.3450   27.2370   41.0460 N   0  0  0  0  0  0  0  0  0  0  0  0
  1  2  1  1  0  0  0
  1 20  1  0  0  0  0
  3  4  1  0  0  0  0
  3  9  1  0  0  0  0
  4  1  1  0  0  0  0
  5 10  1  0  0  0  0
  5  4  2  0  0  0  0
  6  5  1  0  0  0  0
  7  6  2  0  0  0  0
  7  8  1  0  0  0  0
  8  3  2  0  0  0  0
 11  7  1  0  0  0  0
 12  1  1  0  0  0  0
 12 16  1  0  0  0  0
 13 14  1  0  0  0  0
 13 12  2  0  0  0  0
 14 15  1  0  0  0  0
 15 19  1  0  0  0  0
 15 16  2  0  0  0  0
 17 13  1  0  0  0  0
 18 14  1  0  0  0  0
 20 23  1  0  0  0  0
 20 22  1  0  0  0  0
 21 20  1  0  0  0  0
 23 24  1  0  0  0  0
 24 25  1  0  0  0  0
 24 26  2  0  0  0  0
 26 27  1  0  0  0  0
 28 26  1  0  0  0  0
 29 28  2  0  0  0  0
 30 23  2  0  0  0  0
 30 29  1  0  0  0  0
M  END
>  <minimizedAffinity>
-4.74151134

$$$$

 OpenBabel03242523443D

 30 32  0  0  1  0  0  0  0  0999 V2000
   37.8820   29.7960   39.3330 C   0  0  2  0  0  0  0  0  0  0  0  0
   38.7290   29.2170   39.7020 H   0  0  0  0  0  0  0  0  0  0  0  0
   39.5250   31.6160   39.3340 C   0  0  0  0  0  0  0  0  0  0  0  0
   38.1800   31.2270   39.5230 C   0  0  0  0  0  0  0  0  0  0  0  0
   37.2230   32.1920   39.8840 C   0  0  0  0  0  0  0  0  0  0  0  0
   37.6860   33.4430   40.0230 N   0  0  0  0  0  0  0  0  0  0  0  0
   38.9590   33.8050   39.8430 C   0  0  0  0  0  0  0  0  0  0  0  0
   39.8860   32.9020   39.4990 N   0  0  0  0  0  0  0  0  0  0  0  0
   40.2720   30.8860   39.0570 H   0  0  0  0  0  0  0  0  0  0  0  0
   36.2050   31.8670   40.0210 H   0  0  0  0  0  0  0  0  0  0  0  0
   39.3070   34.8140   39.9600 H   0  0  0  0  0  0  0  0  0  0  0  0
   37.6360   29.5570   37.8750 C   0  0  0  0  0  0  0  0  0  0  0  0
   38.3970   28.8480   36.9620 C   0  0  0  0  0  0  0  0  0  0  0  0
   37.7940   28.8850   35.7550 N   0  0  0  0  0  0  0  0  0  0  0  0
   36.6510   29.6180   35.9090 C   0  0  0  0  0  0  0  0  0  0  0  0
   36.5650   30.0240   37.2080 N   0  0  0  0  0  0  0  0  0  0  0  0
   39.3400   28.3410   37.1980 H   0  0  0  0  0  0  0  0  0  0  0  0
   38.1880   28.4160   34.9080 H   0  0  0  0  0  0  0  0  0  0  0  0
   36.0060   29.7750   35.0550 H   0  0  0  0  0  0  0  0  0  0  0  0
   36.6500   29.4670   40.1050 C   0  0  0  0  0  0  0  0  0  0  0  0
   35.9980   30.3440   40.2810 H   0  0  0  0  0  0  0  0  0  0  0  0
   36.0290   28.7170   39.5310 H   0  0  0  0  0  0  0  0  0  0  0  0
   36.9390   28.8360   41.4160 C   0  0  0  0  0  0  0  0  0  0  0  0
   36.7420   27.4540   41.4080 C   0  0  0  0  0  0  0  0  0  0  0  0
   36.4090   26.8880   40.5380 H   0  0  0  0  0  0  0  0  0  0  0  0
   36.9610   26.7040   42.5390 C   0  0  0  0  0  0  0  0  0  0  0  0
   36.8180   25.6310   42.5730 H   0  0  0  0  0  0  0  0  0  0  0  0
   37.3860   27.3880   43.6780 C   0  0  0  0  0  3  0  0  0  0  0  0
   37.5800   28.7650   43.6720 C   0  0  0  0  0  3  0  0  0  0  0  0
   37.3550   29.4500   42.5560 N   0  0  0  0  0  0  0  0  0  0  0  0
  1  4  1  0  0  0  0
  1  2  1  1  0  0  0
  1 20  1  0  0  0  0
  3  8  2  0  0  0  0
  3  4  1  0  0  0  0
  4  5  2  0  0  0  0
  5 10  1  0  0  0  0
  5  6  1  0  0  0  0
  7 11  1  0  0  0  0
  7  6  2  0  0  0  0
  8  7  1  0  0  0  0
  9  3  1  0  0  0  0
 12  1  1  0  0  0  0
 13 17  1  0  0  0  0
 13 12  2  0  0  0  0
 14 15  1  0  0  0  0
 14 13  1  0  0  0  0
 15 16  2  0  0  0  0
 16 12  1  0  0  0  0
 18 14  1  0  0  0  0
 19 15  1  0  0  0  0
 20 21  1  0  0  0  0
 20 23  1  0  0  0  0
 22 20  1  0  0  0  0
 23 30  1  0  0  0  0
 24 23  2  0  0  0  0
 24 26  1  0  0  0  0
 25 24  1  0  0  0  0
 26 27  1  0  0  0  0
 26 28  2  0  0  0  0
 29 28  1  0  0  0  0
 30 29  2  0  0  0  0
M  END
>  <minimizedAffinity>
-4.7052846

$$$$

 OpenBabel03242523443D

 30 32  0  0  1  0  0  0  0  0999 V2000
   36.4160   28.7210   39.6280 C   0  0  2  0  0  0  0  0  0  0  0  0
   37.3030   28.1590   39.3390 H   0  0  0  0  0  0  0  0  0  0  0  0
   37.1040   30.6140   38.2290 C   0  0  0  0  0  0  0  0  0  0  0  0
   36.7200   30.1590   39.5100 C   0  0  0  0  0  0  0  0  0  0  0  0
   36.6600   31.0700   40.5800 C   0  0  0  0  0  0  0  0  0  0  0  0
   36.9840   32.3370   40.2810 N   0  0  0  0  0  0  0  0  0  0  0  0
   37.3460   32.7610   39.0680 C   0  0  0  0  0  0  0  0  0  0  0  0
   37.4100   31.9100   38.0350 N   0  0  0  0  0  0  0  0  0  0  0  0
   37.1550   29.9260   37.3970 H   0  0  0  0  0  0  0  0  0  0  0  0
   36.3630   30.6960   41.5460 H   0  0  0  0  0  0  0  0  0  0  0  0
   37.6010   33.7810   38.8520 H   0  0  0  0  0  0  0  0  0  0  0  0
   35.2480   28.4140   38.7440 C   0  0  0  0  0  0  0  0  0  0  0  0
   33.9730   28.9550   38.7550 C   0  0  0  0  0  0  0  0  0  0  0  0
   33.2410   28.3900   37.7720 N   0  0  0  0  0  0  0  0  0  0  0  0
   34.0550   27.4930   37.1410 C   0  0  0  0  0  0  0  0  0  0  0  0
   35.2780   27.5160   37.7420 N   0  0  0  0  0  0  0  0  0  0  0  0
   33.6290   29.7220   39.4590 H   0  0  0  0  0  0  0  0  0  0  0  0
   32.2440   28.6430   37.5890 H   0  0  0  0  0  0  0  0  0  0  0  0
   33.6660   26.9200   36.3100 H   0  0  0  0  0  0  0  0  0  0  0  0
   36.0550   28.4330   41.0450 C   0  0  0  0  0  0  0  0  0  0  0  0
   35.8990   29.3470   41.6510 H   0  0  0  0  0  0  0  0  0  0  0  0
   35.0830   27.8570   41.0820 H   0  0  0  0  0  0  0  0  0  0  0  0
   37.0560   27.5870   41.7380 C   0  0  0  0  0  0  0  0  0  0  0  0
   37.6240   28.2160   42.8470 C   0  0  0  0  0  0  0  0  0  0  0  0
   37.3680   29.2230   43.1770 H   0  0  0  0  0  0  0  0  0  0  0  0
   38.5750   27.5800   43.6100 C   0  0  0  0  0  0  0  0  0  0  0  0
   39.0390   28.0350   44.4760 H   0  0  0  0  0  0  0  0  0  0  0  0
   38.9340   26.2890   43.2220 C   0  0  0  0  0  3  0  0  0  0  0  0
   38.3600   25.6730   42.1160 C   0  0  0  0  0  3  0  0  0  0  0  0
   37.4450   26.3260   41.4070 N   0  0  0  0  0  0  0  0  0  0  0  0
  1  2  1  6  0  0  0
  1 20  1  0  0  0  0
  3  4  1  0  0  0  0
  4  1  1  0  0  0  0
  4  5  2  0  0  0  0
  5 10  1  0  0  0  0
  6  5  1  0  0  0  0
  7  6  2  0  0  0  0
  8  3  2  0  0  0  0
  8  7  1  0  0  0  0
  9  3  1  0  0  0  0
 11  7  1  0  0  0  0
 12 13  2  0  0  0  0
 12  1  1  0  0  0  0
 13 17  1  0  0  0  0
 14 13  1  0  0  0  0
 15 16  2  0  0  0  0
 15 14  1  0  0  0  0
 16 12  1  0  0  0  0
 18 14  1  0  0  0  0
 19 15  1  0  0  0  0
 20 22  1  0  0  0  0
 20 21  1  0  0  0  0
 20 23  1  0  0  0  0
 23 24  1  0  0  0  0
 24 25  1  0  0  0  0
 24 26  2  0  0  0  0
 26 27  1  0  0  0  0
 28 26  1  0  0  0  0
 29 28  2  0  0  0  0
 30 23  2  0  0  0  0
 30 29  1  0  0  0  0
M  END
>  <minimizedAffinity>
-4.67860794

$$$$

 OpenBabel03242523443D

 30 32  0  0  1  0  0  0  0  0999 V2000
   40.1960   31.1920   40.7410 C   0  0  2  0  0  0  0  0  0  0  0  0
   40.3150   30.2210   40.2590 H   0  0  0  0  0  0  0  0  0  0  0  0
   42.1400   32.5280   41.4090 C   0  0  0  0  0  0  0  0  0  0  0  0
   41.3350   32.0440   40.3550 C   0  0  0  0  0  0  0  0  0  0  0  0
   41.6420   32.3990   39.0290 C   0  0  0  0  0  0  0  0  0  0  0  0
   42.7110   33.1940   38.8750 N   0  0  0  0  0  0  0  0  0  0  0  0
   43.4690   33.6490   39.8770 C   0  0  0  0  0  0  0  0  0  0  0  0
   43.1930   33.3230   41.1460 N   0  0  0  0  0  0  0  0  0  0  0  0
   41.9170   32.2650   42.4340 H   0  0  0  0  0  0  0  0  0  0  0  0
   41.0110   32.0160   38.2440 H   0  0  0  0  0  0  0  0  0  0  0  0
   44.3210   34.2850   39.7290 H   0  0  0  0  0  0  0  0  0  0  0  0
   38.9330   31.8740   40.3150 C   0  0  0  0  0  0  0  0  0  0  0  0
   38.4040   33.0820   40.7370 C   0  0  0  0  0  0  0  0  0  0  0  0
   37.2480   33.3150   40.0810 N   0  0  0  0  0  0  0  0  0  0  0  0
   37.0490   32.2540   39.2450 C   0  0  0  0  0  0  0  0  0  0  0  0
   38.0840   31.3800   39.3960 N   0  0  0  0  0  0  0  0  0  0  0  0
   38.8650   33.7350   41.4890 H   0  0  0  0  0  0  0  0  0  0  0  0
   36.6690   34.1710   40.2370 H   0  0  0  0  0  0  0  0  0  0  0  0
   36.1690   32.2350   38.6160 H   0  0  0  0  0  0  0  0  0  0  0  0
   40.2040   31.0420   42.2240 C   0  0  0  0  0  0  0  0  0  0  0  0
   41.2180   31.1030   42.6640 H   0  0  0  0  0  0  0  0  0  0  0  0
   39.6010   31.8750   42.6940 H   0  0  0  0  0  0  0  0  0  0  0  0
   39.5780   29.7780   42.6820 C   0  0  0  0  0  0  0  0  0  0  0  0
   40.4860   28.7210   42.7610 C   0  0  0  0  0  0  0  0  0  0  0  0
   41.5450   28.8040   42.5140 H   0  0  0  0  0  0  0  0  0  0  0  0
   40.0810   27.4720   43.1680 C   0  0  0  0  0  0  0  0  0  0  0  0
   40.7550   26.6270   43.2420 H   0  0  0  0  0  0  0  0  0  0  0  0
   38.7330   27.3200   43.4930 C   0  0  0  0  0  3  0  0  0  0  0  0
   37.8380   28.3810   43.4100 C   0  0  0  0  0  3  0  0  0  0  0  0
   38.2740   29.5720   43.0120 N   0  0  0  0  0  0  0  0  0  0  0  0
  1  2  1  6  0  0  0
  1 20  1  0  0  0  0
  3  9  1  0  0  0  0
  4  1  1  0  0  0  0
  4  3  2  0  0  0  0
  5  4  1  0  0  0  0
  6  5  2  0  0  0  0
  6  7  1  0  0  0  0
  7  8  2  0  0  0  0
  8  3  1  0  0  0  0
 10  5  1  0  0  0  0
 11  7  1  0  0  0  0
 12 13  2  0  0  0  0
 12  1  1  0  0  0  0
 13 17  1  0  0  0  0
 14 18  1  0  0  0  0
 14 13  1  0  0  0  0
 15 16  2  0  0  0  0
 15 14  1  0  0  0  0
 16 12  1  0  0  0  0
 19 15  1  0  0  0  0
 20 21  1  0  0  0  0
 20 23  1  0  0  0  0
 20 22  1  0  0  0  0
 23 24  2  0  0  0  0
 23 30  1  0  0  0  0
 24 26  1  0  0  0  0
 25 24  1  0  0  0  0
 26 27  1  0  0  0  0
 26 28  2  0  0  0  0
 29 28  1  0  0  0  0
 30 29  2  0  0  0  0
M  END
>  <minimizedAffinity>
-4.6599288

$$$$

 OpenBabel03242523443D

 30 32  0  0  1  0  0  0  0  0999 V2000
   37.5860   29.1640   38.7700 C   0  0  2  0  0  0  0  0  0  0  0  0
   38.4600   28.6030   39.0990 H   0  0  0  0  0  0  0  0  0  0  0  0
   39.0140   31.1570   38.7250 C   0  0  0  0  0  0  0  0  0  0  0  0
   37.7860   30.5820   39.1200 C   0  0  0  0  0  0  0  0  0  0  0  0
   36.8480   31.3630   39.8190 C   0  0  0  0  0  0  0  0  0  0  0  0
   37.2130   32.6320   40.0580 N   0  0  0  0  0  0  0  0  0  0  0  0
   38.3760   33.1690   39.6810 C   0  0  0  0  0  0  0  0  0  0  0  0
   39.2830   32.4430   39.0150 N   0  0  0  0  0  0  0  0  0  0  0  0
   39.7460   30.5700   38.1870 H   0  0  0  0  0  0  0  0  0  0  0  0
   35.9200   30.8990   40.1090 H   0  0  0  0  0  0  0  0  0  0  0  0
   38.6470   34.1880   39.8830 H   0  0  0  0  0  0  0  0  0  0  0  0
   37.3880   29.0700   37.2890 C   0  0  0  0  0  0  0  0  0  0  0  0
   38.1030   28.3430   36.3520 C   0  0  0  0  0  0  0  0  0  0  0  0
   37.5720   28.5470   35.1290 N   0  0  0  0  0  0  0  0  0  0  0  0
   36.5220   29.4040   35.2950 C   0  0  0  0  0  0  0  0  0  0  0  0
   36.4180   29.7180   36.6170 N   0  0  0  0  0  0  0  0  0  0  0  0
   38.9640   27.7040   36.5860 H   0  0  0  0  0  0  0  0  0  0  0  0
   37.9490   28.0980   34.2640 H   0  0  0  0  0  0  0  0  0  0  0  0
   35.9460   29.7060   34.4290 H   0  0  0  0  0  0  0  0  0  0  0  0
   36.3610   28.6770   39.4660 C   0  0  0  0  0  0  0  0  0  0  0  0
   35.8610   29.4590   40.0700 H   0  0  0  0  0  0  0  0  0  0  0  0
   35.6030   28.3280   38.7040 H   0  0  0  0  0  0  0  0  0  0  0  0
   36.6200   27.5110   40.3460 C   0  0  0  0  0  0  0  0  0  0  0  0
   36.6920   27.8570   41.6960 C   0  0  0  0  0  0  0  0  0  0  0  0
   36.5730   28.8720   42.0760 H   0  0  0  0  0  0  0  0  0  0  0  0
   36.9270   26.9020   42.6570 C   0  0  0  0  0  0  0  0  0  0  0  0
   36.9900   27.1300   43.7140 H   0  0  0  0  0  0  0  0  0  0  0  0
   37.0860   25.5880   42.2160 C   0  0  0  0  0  3  0  0  0  0  0  0
   37.0110   25.2570   40.8670 C   0  0  0  0  0  3  0  0  0  0  0  0
   36.7830   26.2130   39.9730 N   0  0  0  0  0  0  0  0  0  0  0  0
  1  2  1  1  0  0  0
  1  4  1  0  0  0  0
  1 20  1  0  0  0  0
  3  8  2  0  0  0  0
  3  4  1  0  0  0  0
  4  5  2  0  0  0  0
  5  6  1  0  0  0  0
  5 10  1  0  0  0  0
  7 11  1  0  0  0  0
  7  6  2  0  0  0  0
  8  7  1  0  0  0  0
  9  3  1  0  0  0  0
 12  1  1  0  0  0  0
 13 17  1  0  0  0  0
 13 12  2  0  0  0  0
 14 15  1  0  0  0  0
 14 13  1  0  0  0  0
 15 16  2  0  0  0  0
 16 12  1  0  0  0  0
 18 14  1  0  0  0  0
 19 15  1  0  0  0  0
 20 21  1  0  0  0  0
 20 23  1  0  0  0  0
 22 20  1  0  0  0  0
 23 24  1  0  0  0  0
 24 25  1  0  0  0  0
 24 26  2  0  0  0  0
 26 27  1  0  0  0  0
 28 26  1  0  0  0  0
 29 28  2  0  0  0  0
 30 23  2  0  0  0  0
 30 29  1  0  0  0  0
M  END
>  <minimizedAffinity>
-4.62146378

$$$$
