
 OpenBabel03252506593D

 23 24  0  0  0  0  0  0  0  0999 V2000
   46.7180   32.9230   44.0460 C   0  0  0  0  0  0  0  0  0  0  0  0
   45.9230   33.0610   43.2690 H   0  0  0  0  0  0  0  0  0  0  0  0
   46.5840   33.6210   44.8780 H   0  0  0  0  0  0  0  0  0  0  0  0
   47.9980   33.1130   43.3590 C   0  0  0  0  0  0  0  0  0  0  0  0
   48.7620   32.0440   42.9090 C   0  0  0  0  0  0  0  0  0  0  0  0
   49.9820   32.3170   42.2500 C   0  0  0  0  0  0  0  0  0  0  0  0
   50.3360   33.6240   42.0950 N   0  0  0  0  0  0  0  0  0  0  0  0
   49.5650   34.6250   42.5460 C   0  0  0  0  0  0  0  0  0  0  0  0
   48.4170   34.3810   43.1680 N   0  0  0  0  0  0  0  0  0  0  0  0
   48.4300   31.0210   43.0610 H   0  0  0  0  0  0  0  0  0  0  0  0
   50.6010   31.5100   41.8860 H   0  0  0  0  0  0  0  0  0  0  0  0
   49.8550   35.6750   42.4190 H   0  0  0  0  0  0  0  0  0  0  0  0
   46.6980   31.5450   44.6390 C   0  0  0  0  0  0  0  0  0  0  0  0
   47.7480   31.2130   44.7800 H   0  0  0  0  0  0  0  0  0  0  0  0
   46.2000   30.7880   43.9900 H   0  0  0  0  0  0  0  0  0  0  0  0
   46.0650   31.4740   45.9720 C   0  0  0  0  0  0  0  0  0  0  0  0
   45.6630   30.2800   46.5210 C   0  0  0  0  0  0  0  0  0  0  0  0
   45.8120   29.3620   45.9640 H   0  0  0  0  0  0  0  0  0  0  0  0
   45.0690   30.2510   47.7810 C   0  0  0  0  0  0  0  0  0  0  0  0
   44.7610   29.3080   48.1930 H   0  0  0  0  0  0  0  0  0  0  0  0
   44.9200   31.4820   48.4190 C   0  0  0  0  0  3  0  0  0  0  0  0
   45.3390   32.6620   47.8310 C   0  0  0  0  0  3  0  0  0  0  0  0
   45.9090   32.6590   46.6120 N   0  0  0  0  0  0  0  0  0  0  0  0
  1 13  1  0  0  0  0
  1  3  1  0  0  0  0
  2  1  1  0  0  0  0
  4  1  1  0  0  0  0
  5 10  1  0  0  0  0
  5  4  2  0  0  0  0
  6  5  1  0  0  0  0
  7  6  2  0  0  0  0
  7  8  1  0  0  0  0
  8  9  2  0  0  0  0
  9  4  1  0  0  0  0
 11  6  1  0  0  0  0
 12  8  1  0  0  0  0
 13 14  1  0  0  0  0
 13 16  1  0  0  0  0
 15 13  1  0  0  0  0
 16 17  2  0  0  0  0
 16 23  1  0  0  0  0
 17 19  1  0  0  0  0
 18 17  1  0  0  0  0
 19 20  1  0  0  0  0
 19 21  2  0  0  0  0
 22 21  1  0  0  0  0
 23 22  2  0  0  0  0
M  END
>  <minimizedAffinity>
-3.66971922

>  <minimizedRMSD>
6.84351492

$$$$
