
 OpenBabel03252503003D

 21 22  0  0  0  0  0  0  0  0999 V2000
   37.4800   28.1250   43.3640 C   0  0  0  0  0  0  0  0  0  0  0  0
   38.1090   28.9020   43.8400 H   0  0  0  0  0  0  0  0  0  0  0  0
   36.6580   27.8770   44.0610 H   0  0  0  0  0  0  0  0  0  0  0  0
   38.2850   26.8820   43.1780 C   0  0  0  0  0  0  0  0  0  0  0  0
   39.5630   26.7540   43.6790 C   0  0  0  0  0  0  0  0  0  0  0  0
   40.0220   27.5760   44.2340 H   0  0  0  0  0  0  0  0  0  0  0  0
   40.2140   25.5570   43.4450 C   0  0  0  0  0  0  0  0  0  0  0  0
   41.2100   25.4010   43.8120 H   0  0  0  0  0  0  0  0  0  0  0  0
   39.5680   24.5620   42.7340 C   0  0  0  0  0  3  0  0  0  0  0  0
   38.2780   24.7060   42.2350 C   0  0  0  0  0  3  0  0  0  0  0  0
   37.6680   25.8870   42.4790 N   0  0  0  0  0  0  0  0  0  0  0  0
   36.8370   28.6160   41.7640 S   0  0  0  0  0  0  0  0  0  0  0  0
   36.7000   31.1450   40.6110 C   0  0  0  0  0  0  0  0  0  0  0  0
   37.4960   30.2400   41.3360 C   0  0  0  0  0  0  0  0  0  0  0  0
   38.7750   30.5870   41.7190 C   0  0  0  0  0  0  0  0  0  0  0  0
   39.2070   31.8330   41.3600 N   0  0  0  0  0  0  0  0  0  0  0  0
   38.4380   32.6770   40.6720 C   0  0  0  0  0  0  0  0  0  0  0  0
   37.2060   32.3630   40.2950 N   0  0  0  0  0  0  0  0  0  0  0  0
   35.6990   30.8410   40.3250 H   0  0  0  0  0  0  0  0  0  0  0  0
   39.3910   29.8840   42.2800 H   0  0  0  0  0  0  0  0  0  0  0  0
   38.7690   33.6690   40.3800 H   0  0  0  0  0  0  0  0  0  0  0  0
  1  2  1  0  0  0  0
  1  3  1  0  0  0  0
  4  1  1  0  0  0  0
  4  5  1  0  0  0  0
  5  6  1  0  0  0  0
  7  5  2  0  0  0  0
  7  8  1  0  0  0  0
  9  7  1  0  0  0  0
 10 11  1  0  0  0  0
 10  9  2  0  0  0  0
 11  4  2  0  0  0  0
 12  1  1  0  0  0  0
 13 14  1  0  0  0  0
 14 15  2  0  0  0  0
 14 12  1  0  0  0  0
 15 20  1  0  0  0  0
 16 15  1  0  0  0  0
 17 16  2  0  0  0  0
 18 13  2  0  0  0  0
 18 17  1  0  0  0  0
 19 13  1  0  0  0  0
 21 17  1  0  0  0  0
M  END
>  <minimizedAffinity>
-4.09055901

$$$$

 OpenBabel03252503003D

 21 22  0  0  0  0  0  0  0  0999 V2000
   36.3110   30.7060   40.9910 C   0  0  0  0  0  0  0  0  0  0  0  0
   36.3730   31.6200   41.6140 H   0  0  0  0  0  0  0  0  0  0  0  0
   35.2420   30.4720   40.8350 H   0  0  0  0  0  0  0  0  0  0  0  0
   36.9040   29.5580   41.7390 C   0  0  0  0  0  0  0  0  0  0  0  0
   36.3000   28.3190   41.7820 C   0  0  0  0  0  0  0  0  0  0  0  0
   35.3570   28.1480   41.2570 H   0  0  0  0  0  0  0  0  0  0  0  0
   36.9400   27.3320   42.5070 C   0  0  0  0  0  0  0  0  0  0  0  0
   36.5160   26.3480   42.5740 H   0  0  0  0  0  0  0  0  0  0  0  0
   38.1320   27.6230   43.1450 C   0  0  0  0  0  3  0  0  0  0  0  0
   38.7290   28.8780   43.0930 C   0  0  0  0  0  3  0  0  0  0  0  0
   38.0800   29.8230   42.3770 N   0  0  0  0  0  0  0  0  0  0  0  0
   37.1720   30.8540   39.4270 S   0  0  0  0  0  0  0  0  0  0  0  0
   39.5230   32.1360   38.6680 C   0  0  0  0  0  0  0  0  0  0  0  0
   38.4440   32.1260   39.5710 C   0  0  0  0  0  0  0  0  0  0  0  0
   38.3550   33.0790   40.5640 C   0  0  0  0  0  0  0  0  0  0  0  0
   39.3550   34.0100   40.6110 N   0  0  0  0  0  0  0  0  0  0  0  0
   40.3690   34.0040   39.7480 C   0  0  0  0  0  0  0  0  0  0  0  0
   40.4730   33.0970   38.7870 N   0  0  0  0  0  0  0  0  0  0  0  0
   39.5630   31.3730   37.9000 H   0  0  0  0  0  0  0  0  0  0  0  0
   37.5190   33.0690   41.2620 H   0  0  0  0  0  0  0  0  0  0  0  0
   41.1700   34.7380   39.7760 H   0  0  0  0  0  0  0  0  0  0  0  0
  1  2  1  0  0  0  0
  1  4  1  0  0  0  0
  3  1  1  0  0  0  0
  4  5  2  0  0  0  0
  4 11  1  0  0  0  0
  5  7  1  0  0  0  0
  6  5  1  0  0  0  0
  7  8  1  0  0  0  0
  7  9  2  0  0  0  0
 10  9  1  0  0  0  0
 11 10  2  0  0  0  0
 12 14  1  0  0  0  0
 12  1  1  0  0  0  0
 13 18  2  0  0  0  0
 13 14  1  0  0  0  0
 14 15  2  0  0  0  0
 15 16  1  0  0  0  0
 15 20  1  0  0  0  0
 17 21  1  0  0  0  0
 17 16  2  0  0  0  0
 18 17  1  0  0  0  0
 19 13  1  0  0  0  0
M  END
>  <minimizedAffinity>
-4.07696247

$$$$

 OpenBabel03252503003D

 21 22  0  0  0  0  0  0  0  0999 V2000
   37.0340   27.9980   43.1010 C   0  0  0  0  0  0  0  0  0  0  0  0
   37.5720   28.7730   43.6800 H   0  0  0  0  0  0  0  0  0  0  0  0
   36.1380   27.7020   43.6780 H   0  0  0  0  0  0  0  0  0  0  0  0
   37.8950   26.7840   42.9800 C   0  0  0  0  0  0  0  0  0  0  0  0
   37.5280   25.6970   42.2160 C   0  0  0  0  0  0  0  0  0  0  0  0
   36.5820   25.7010   41.6710 H   0  0  0  0  0  0  0  0  0  0  0  0
   38.4050   24.6290   42.1800 C   0  0  0  0  0  0  0  0  0  0  0  0
   38.1720   23.7560   41.6010 H   0  0  0  0  0  0  0  0  0  0  0  0
   39.5850   24.6960   42.8970 C   0  0  0  0  0  3  0  0  0  0  0  0
   39.9420   25.8000   43.6640 C   0  0  0  0  0  3  0  0  0  0  0  0
   39.0650   26.8280   43.6800 N   0  0  0  0  0  0  0  0  0  0  0  0
   36.5860   28.5290   41.4490 S   0  0  0  0  0  0  0  0  0  0  0  0
   38.6440   30.4020   41.5270 C   0  0  0  0  0  0  0  0  0  0  0  0
   37.3170   30.1480   41.1320 C   0  0  0  0  0  0  0  0  0  0  0  0
   36.5760   31.1280   40.5060 C   0  0  0  0  0  0  0  0  0  0  0  0
   37.1950   32.3290   40.2990 N   0  0  0  0  0  0  0  0  0  0  0  0
   38.4520   32.5510   40.6810 C   0  0  0  0  0  0  0  0  0  0  0  0
   39.1820   31.6230   41.2830 N   0  0  0  0  0  0  0  0  0  0  0  0
   39.1990   29.6100   42.0160 H   0  0  0  0  0  0  0  0  0  0  0  0
   35.5490   30.9300   40.2010 H   0  0  0  0  0  0  0  0  0  0  0  0
   38.9560   33.5000   40.5220 H   0  0  0  0  0  0  0  0  0  0  0  0
  1  3  1  0  0  0  0
  1  2  1  0  0  0  0
  4  1  1  0  0  0  0
  4 11  1  0  0  0  0
  5  4  2  0  0  0  0
  6  5  1  0  0  0  0
  7  5  1  0  0  0  0
  7  9  2  0  0  0  0
  8  7  1  0  0  0  0
  9 10  1  0  0  0  0
 10 11  2  0  0  0  0
 12  1  1  0  0  0  0
 13 19  1  0  0  0  0
 14 12  1  0  0  0  0
 14 13  2  0  0  0  0
 15 14  1  0  0  0  0
 16 15  2  0  0  0  0
 16 17  1  0  0  0  0
 17 18  2  0  0  0  0
 18 13  1  0  0  0  0
 20 15  1  0  0  0  0
 21 17  1  0  0  0  0
M  END
>  <minimizedAffinity>
-4.05895901

$$$$

 OpenBabel03252503003D

 21 22  0  0  0  0  0  0  0  0999 V2000
   36.5460   27.4960   40.0180 C   0  0  0  0  0  0  0  0  0  0  0  0
   36.0470   26.5240   39.8370 H   0  0  0  0  0  0  0  0  0  0  0  0
   37.3180   27.6330   39.2390 H   0  0  0  0  0  0  0  0  0  0  0  0
   37.2540   27.4490   41.3310 C   0  0  0  0  0  0  0  0  0  0  0  0
   36.6130   27.7200   42.5220 C   0  0  0  0  0  0  0  0  0  0  0  0
   35.5520   27.9770   42.5290 H   0  0  0  0  0  0  0  0  0  0  0  0
   37.3720   27.6470   43.6750 C   0  0  0  0  0  0  0  0  0  0  0  0
   36.9250   27.8470   44.6300 H   0  0  0  0  0  0  0  0  0  0  0  0
   38.7110   27.3140   43.5870 C   0  0  0  0  0  3  0  0  0  0  0  0
   39.3440   27.0440   42.3780 C   0  0  0  0  0  3  0  0  0  0  0  0
   38.5770   27.1230   41.2680 N   0  0  0  0  0  0  0  0  0  0  0  0
   35.4100   28.8820   40.0480 S   0  0  0  0  0  0  0  0  0  0  0  0
   36.7140   30.6950   38.3880 C   0  0  0  0  0  0  0  0  0  0  0  0
   36.3230   30.4000   39.7070 C   0  0  0  0  0  0  0  0  0  0  0  0
   36.6340   31.2630   40.7370 C   0  0  0  0  0  0  0  0  0  0  0  0
   37.3270   32.3930   40.4040 N   0  0  0  0  0  0  0  0  0  0  0  0
   37.6890   32.6550   39.1490 C   0  0  0  0  0  0  0  0  0  0  0  0
   37.4000   31.8400   38.1450 N   0  0  0  0  0  0  0  0  0  0  0  0
   36.4540   29.9970   37.6010 H   0  0  0  0  0  0  0  0  0  0  0  0
   36.3300   31.0320   41.7580 H   0  0  0  0  0  0  0  0  0  0  0  0
   38.2400   33.5500   38.8710 H   0  0  0  0  0  0  0  0  0  0  0  0
  1 12  1  0  0  0  0
  1  4  1  0  0  0  0
  2  1  1  0  0  0  0
  3  1  1  0  0  0  0
  4  5  1  0  0  0  0
  5  6  1  0  0  0  0
  5  7  2  0  0  0  0
  7  8  1  0  0  0  0
  9  7  1  0  0  0  0
 10  9  2  0  0  0  0
 11  4  2  0  0  0  0
 11 10  1  0  0  0  0
 13 14  1  0  0  0  0
 14 12  1  0  0  0  0
 14 15  2  0  0  0  0
 15 20  1  0  0  0  0
 16 15  1  0  0  0  0
 17 16  2  0  0  0  0
 18 13  2  0  0  0  0
 18 17  1  0  0  0  0
 19 13  1  0  0  0  0
 21 17  1  0  0  0  0
M  END
>  <minimizedAffinity>
-4.03759336

$$$$

 OpenBabel03252503003D

 21 22  0  0  0  0  0  0  0  0999 V2000
   37.2090   30.7590   39.2240 C   0  0  0  0  0  0  0  0  0  0  0  0
   37.8250   29.8780   38.9590 H   0  0  0  0  0  0  0  0  0  0  0  0
   36.5800   31.0100   38.3490 H   0  0  0  0  0  0  0  0  0  0  0  0
   38.1010   31.9310   39.4690 C   0  0  0  0  0  0  0  0  0  0  0  0
   37.6180   33.1360   39.9320 C   0  0  0  0  0  0  0  0  0  0  0  0
   36.5530   33.2610   40.1350 H   0  0  0  0  0  0  0  0  0  0  0  0
   38.5390   34.1510   40.1220 C   0  0  0  0  0  0  0  0  0  0  0  0
   38.2200   35.1100   40.4820 H   0  0  0  0  0  0  0  0  0  0  0  0
   39.8730   33.9180   39.8440 C   0  0  0  0  0  3  0  0  0  0  0  0
   40.3440   32.6950   39.3760 C   0  0  0  0  0  3  0  0  0  0  0  0
   39.4220   31.7230   39.2010 N   0  0  0  0  0  0  0  0  0  0  0  0
   36.2040   30.5080   40.6860 S   0  0  0  0  0  0  0  0  0  0  0  0
   38.1490   29.6220   42.4680 C   0  0  0  0  0  0  0  0  0  0  0  0
   36.9940   29.2770   41.7410 C   0  0  0  0  0  0  0  0  0  0  0  0
   36.4670   28.0060   41.8300 C   0  0  0  0  0  0  0  0  0  0  0  0
   37.1190   27.1260   42.6490 N   0  0  0  0  0  0  0  0  0  0  0  0
   38.2120   27.4710   43.3300 C   0  0  0  0  0  0  0  0  0  0  0  0
   38.7340   28.6870   43.2580 N   0  0  0  0  0  0  0  0  0  0  0  0
   38.5380   30.6290   42.3760 H   0  0  0  0  0  0  0  0  0  0  0  0
   35.5730   27.7410   41.2670 H   0  0  0  0  0  0  0  0  0  0  0  0
   38.7390   26.7820   43.9830 H   0  0  0  0  0  0  0  0  0  0  0  0
  1  4  1  0  0  0  0
  1 12  1  0  0  0  0
  2  1  1  0  0  0  0
  3  1  1  0  0  0  0
  4  5  1  0  0  0  0
  5  7  2  0  0  0  0
  5  6  1  0  0  0  0
  7  8  1  0  0  0  0
  9  7  1  0  0  0  0
 10  9  2  0  0  0  0
 11 10  1  0  0  0  0
 11  4  2  0  0  0  0
 12 14  1  0  0  0  0
 13 18  1  0  0  0  0
 14 15  1  0  0  0  0
 14 13  2  0  0  0  0
 15 16  2  0  0  0  0
 16 17  1  0  0  0  0
 17 21  1  0  0  0  0
 18 17  2  0  0  0  0
 19 13  1  0  0  0  0
 20 15  1  0  0  0  0
M  END
>  <minimizedAffinity>
-3.96330929

$$$$

 OpenBabel03252503003D

 21 22  0  0  0  0  0  0  0  0999 V2000
   40.0760   30.8790   40.8420 C   0  0  0  0  0  0  0  0  0  0  0  0
   41.0960   31.2800   40.6800 H   0  0  0  0  0  0  0  0  0  0  0  0
   39.9670   29.9650   40.2300 H   0  0  0  0  0  0  0  0  0  0  0  0
   39.0730   31.8640   40.3390 C   0  0  0  0  0  0  0  0  0  0  0  0
   38.0000   31.4850   39.5610 C   0  0  0  0  0  0  0  0  0  0  0  0
   37.8570   30.4360   39.2930 H   0  0  0  0  0  0  0  0  0  0  0  0
   37.1360   32.4840   39.1530 C   0  0  0  0  0  0  0  0  0  0  0  0
   36.2830   32.2480   38.5460 H   0  0  0  0  0  0  0  0  0  0  0  0
   37.3810   33.7910   39.5320 C   0  0  0  0  0  3  0  0  0  0  0  0
   38.4690   34.1580   40.3170 C   0  0  0  0  0  3  0  0  0  0  0  0
   39.2950   33.1590   40.7020 N   0  0  0  0  0  0  0  0  0  0  0  0
   39.7120   30.5450   42.5650 S   0  0  0  0  0  0  0  0  0  0  0  0
   37.3280   29.1290   42.3280 C   0  0  0  0  0  0  0  0  0  0  0  0
   38.6900   29.0620   42.6750 C   0  0  0  0  0  0  0  0  0  0  0  0
   39.2450   27.8730   43.0990 C   0  0  0  0  0  0  0  0  0  0  0  0
   38.4100   26.7920   43.1570 N   0  0  0  0  0  0  0  0  0  0  0  0
   37.1230   26.8740   42.8250 C   0  0  0  0  0  0  0  0  0  0  0  0
   36.5700   28.0070   42.4150 N   0  0  0  0  0  0  0  0  0  0  0  0
   36.9230   30.0780   41.9990 H   0  0  0  0  0  0  0  0  0  0  0  0
   40.3000   27.8230   43.3670 H   0  0  0  0  0  0  0  0  0  0  0  0
   36.4490   26.0230   42.8670 H   0  0  0  0  0  0  0  0  0  0  0  0
  1 12  1  0  0  0  0
  2  1  1  0  0  0  0
  3  1  1  0  0  0  0
  4 11  1  0  0  0  0
  4  1  1  0  0  0  0
  5  4  2  0  0  0  0
  6  5  1  0  0  0  0
  7  9  2  0  0  0  0
  7  5  1  0  0  0  0
  8  7  1  0  0  0  0
  9 10  1  0  0  0  0
 10 11  2  0  0  0  0
 12 14  1  0  0  0  0
 13 18  2  0  0  0  0
 13 14  1  0  0  0  0
 14 15  2  0  0  0  0
 15 16  1  0  0  0  0
 15 20  1  0  0  0  0
 17 21  1  0  0  0  0
 17 16  2  0  0  0  0
 18 17  1  0  0  0  0
 19 13  1  0  0  0  0
M  END
>  <minimizedAffinity>
-3.94770694

$$$$

 OpenBabel03252503003D

 21 22  0  0  0  0  0  0  0  0999 V2000
   36.9810   29.2820   41.6990 C   0  0  0  0  0  0  0  0  0  0  0  0
   37.1180   28.5290   40.8990 H   0  0  0  0  0  0  0  0  0  0  0  0
   35.8960   29.4720   41.8060 H   0  0  0  0  0  0  0  0  0  0  0  0
   37.6090   30.5700   41.2790 C   0  0  0  0  0  0  0  0  0  0  0  0
   36.9460   31.4870   40.4910 C   0  0  0  0  0  0  0  0  0  0  0  0
   35.9270   31.2870   40.1530 H   0  0  0  0  0  0  0  0  0  0  0  0
   37.6280   32.6440   40.1650 C   0  0  0  0  0  0  0  0  0  0  0  0
   37.1610   33.3940   39.5540 H   0  0  0  0  0  0  0  0  0  0  0  0
   38.9170   32.8270   40.6300 C   0  0  0  0  0  3  0  0  0  0  0  0
   39.5730   31.8910   41.4240 C   0  0  0  0  0  3  0  0  0  0  0  0
   38.8810   30.7710   41.7270 N   0  0  0  0  0  0  0  0  0  0  0  0
   37.7050   28.7940   43.2640 S   0  0  0  0  0  0  0  0  0  0  0  0
   37.7330   26.1600   42.3650 C   0  0  0  0  0  0  0  0  0  0  0  0
   38.4210   27.1470   43.0940 C   0  0  0  0  0  0  0  0  0  0  0  0
   39.6370   26.8610   43.6800 C   0  0  0  0  0  0  0  0  0  0  0  0
   40.1180   25.5920   43.5090 N   0  0  0  0  0  0  0  0  0  0  0  0
   39.4510   24.6710   42.8150 C   0  0  0  0  0  0  0  0  0  0  0  0
   38.2810   24.9250   42.2450 N   0  0  0  0  0  0  0  0  0  0  0  0
   36.7790   26.4170   41.9180 H   0  0  0  0  0  0  0  0  0  0  0  0
   40.1690   27.6260   44.2440 H   0  0  0  0  0  0  0  0  0  0  0  0
   39.8210   23.6600   42.6720 H   0  0  0  0  0  0  0  0  0  0  0  0
  1  3  1  0  0  0  0
  1 12  1  0  0  0  0
  2  1  1  0  0  0  0
  4  1  1  0  0  0  0
  4 11  1  0  0  0  0
  5  4  2  0  0  0  0
  6  5  1  0  0  0  0
  7  5  1  0  0  0  0
  7  9  2  0  0  0  0
  8  7  1  0  0  0  0
  9 10  1  0  0  0  0
 10 11  2  0  0  0  0
 13 14  1  0  0  0  0
 14 12  1  0  0  0  0
 14 15  2  0  0  0  0
 15 20  1  0  0  0  0
 16 15  1  0  0  0  0
 17 16  2  0  0  0  0
 18 13  2  0  0  0  0
 18 17  1  0  0  0  0
 19 13  1  0  0  0  0
 21 17  1  0  0  0  0
M  END
>  <minimizedAffinity>
-3.94545889

$$$$

 OpenBabel03252503003D

 21 22  0  0  0  0  0  0  0  0999 V2000
   36.4790   29.0890   39.8340 C   0  0  0  0  0  0  0  0  0  0  0  0
   35.6500   28.8440   39.1420 H   0  0  0  0  0  0  0  0  0  0  0  0
   37.4040   29.1870   39.2360 H   0  0  0  0  0  0  0  0  0  0  0  0
   36.6880   27.9510   40.7770 C   0  0  0  0  0  0  0  0  0  0  0  0
   36.6660   28.1180   42.1450 C   0  0  0  0  0  0  0  0  0  0  0  0
   36.4900   29.1060   42.5760 H   0  0  0  0  0  0  0  0  0  0  0  0
   36.8720   26.9920   42.9200 C   0  0  0  0  0  0  0  0  0  0  0  0
   36.8650   27.0620   43.9910 H   0  0  0  0  0  0  0  0  0  0  0  0
   37.0880   25.7740   42.3020 C   0  0  0  0  0  3  0  0  0  0  0  0
   37.1080   25.6210   40.9200 C   0  0  0  0  0  3  0  0  0  0  0  0
   36.9030   26.7400   40.1890 N   0  0  0  0  0  0  0  0  0  0  0  0
   36.1810   30.5670   40.8020 S   0  0  0  0  0  0  0  0  0  0  0  0
   37.4900   32.8810   39.9800 C   0  0  0  0  0  0  0  0  0  0  0  0
   37.6100   31.6600   40.6670 C   0  0  0  0  0  0  0  0  0  0  0  0
   38.8130   31.2930   41.2350 C   0  0  0  0  0  0  0  0  0  0  0  0
   39.8520   32.1710   41.0920 N   0  0  0  0  0  0  0  0  0  0  0  0
   39.7180   33.3230   40.4380 C   0  0  0  0  0  0  0  0  0  0  0  0
   38.5720   33.6940   39.8850 N   0  0  0  0  0  0  0  0  0  0  0  0
   36.5310   33.1400   39.5450 H   0  0  0  0  0  0  0  0  0  0  0  0
   38.9040   30.3470   41.7660 H   0  0  0  0  0  0  0  0  0  0  0  0
   40.5360   34.0290   40.3170 H   0  0  0  0  0  0  0  0  0  0  0  0
  1  4  1  0  0  0  0
  1 12  1  0  0  0  0
  2  1  1  0  0  0  0
  3  1  1  0  0  0  0
  4  5  1  0  0  0  0
  5  6  1  0  0  0  0
  5  7  2  0  0  0  0
  7  8  1  0  0  0  0
  9  7  1  0  0  0  0
 10  9  2  0  0  0  0
 11  4  2  0  0  0  0
 11 10  1  0  0  0  0
 13 14  1  0  0  0  0
 14 12  1  0  0  0  0
 14 15  2  0  0  0  0
 15 20  1  0  0  0  0
 16 15  1  0  0  0  0
 17 16  2  0  0  0  0
 18 13  2  0  0  0  0
 18 17  1  0  0  0  0
 19 13  1  0  0  0  0
 21 17  1  0  0  0  0
M  END
>  <minimizedAffinity>
-3.94086099

$$$$

 OpenBabel03252503003D

 21 22  0  0  0  0  0  0  0  0999 V2000
   36.2980   28.3890   41.4180 C   0  0  0  0  0  0  0  0  0  0  0  0
   36.3730   27.4700   40.8050 H   0  0  0  0  0  0  0  0  0  0  0  0
   35.2360   28.5290   41.6950 H   0  0  0  0  0  0  0  0  0  0  0  0
   36.6900   29.5680   40.5890 C   0  0  0  0  0  0  0  0  0  0  0  0
   36.4650   30.8640   41.0030 C   0  0  0  0  0  0  0  0  0  0  0  0
   35.9880   31.0590   41.9660 H   0  0  0  0  0  0  0  0  0  0  0  0
   36.8700   31.8750   40.1510 C   0  0  0  0  0  0  0  0  0  0  0  0
   36.7210   32.9030   40.4220 H   0  0  0  0  0  0  0  0  0  0  0  0
   37.4670   31.5500   38.9480 C   0  0  0  0  0  3  0  0  0  0  0  0
   37.6870   30.2380   38.5440 C   0  0  0  0  0  3  0  0  0  0  0  0
   37.2810   29.2710   39.3970 N   0  0  0  0  0  0  0  0  0  0  0  0
   37.3440   28.3600   42.8730 S   0  0  0  0  0  0  0  0  0  0  0  0
   39.4490   26.7180   43.6580 C   0  0  0  0  0  0  0  0  0  0  0  0
   38.2620   26.8070   42.9080 C   0  0  0  0  0  0  0  0  0  0  0  0
   37.7990   25.7170   42.2020 C   0  0  0  0  0  0  0  0  0  0  0  0
   38.5460   24.5750   42.2760 N   0  0  0  0  0  0  0  0  0  0  0  0
   39.6680   24.5100   42.9910 C   0  0  0  0  0  0  0  0  0  0  0  0
   40.1300   25.5460   43.6770 N   0  0  0  0  0  0  0  0  0  0  0  0
   39.7860   27.5930   44.2020 H   0  0  0  0  0  0  0  0  0  0  0  0
   36.8790   25.7880   41.6210 H   0  0  0  0  0  0  0  0  0  0  0  0
   40.2720   23.6080   43.0570 H   0  0  0  0  0  0  0  0  0  0  0  0
  1  3  1  0  0  0  0
  1 12  1  0  0  0  0
  2  1  1  0  0  0  0
  4  5  1  0  0  0  0
  4  1  1  0  0  0  0
  5  6  1  0  0  0  0
  7  8  1  0  0  0  0
  7  5  2  0  0  0  0
  9  7  1  0  0  0  0
 10  9  2  0  0  0  0
 10 11  1  0  0  0  0
 11  4  2  0  0  0  0
 12 14  1  0  0  0  0
 13 18  1  0  0  0  0
 13 19  1  0  0  0  0
 14 13  2  0  0  0  0
 15 16  2  0  0  0  0
 15 14  1  0  0  0  0
 16 17  1  0  0  0  0
 17 21  1  0  0  0  0
 17 18  2  0  0  0  0
 20 15  1  0  0  0  0
M  END
>  <minimizedAffinity>
-3.90014887

$$$$
