
 OpenBabel03252509233D

 26 28  0  0  1  0  0  0  0  0999 V2000
   46.5170   35.0280   41.9480 C   0  0  1  0  0  0  0  0  0  0  0  0
   48.0440   35.3090   41.9270 C   0  0  0  0  0  0  0  0  0  0  0  0
   47.3530   34.0410   41.3690 C   0  0  2  0  0  0  0  0  0  0  0  0
   45.9450   35.7640   41.3550 H   0  0  0  0  0  0  0  0  0  0  0  0
   48.6180   35.2310   42.8410 H   0  0  0  0  0  0  0  0  0  0  0  0
   48.4120   35.9970   41.1450 H   0  0  0  0  0  0  0  0  0  0  0  0
   47.6630   33.1300   41.9210 H   0  0  0  0  0  0  0  0  0  0  0  0
   44.6550   35.4220   45.1780 C   0  0  0  0  0  0  0  0  0  0  0  0
   45.1160   35.7230   43.8580 C   0  0  0  0  0  0  0  0  0  0  0  0
   46.0420   34.8440   43.3670 C   0  0  0  0  0  0  0  0  0  0  0  0
   46.4960   33.7500   44.1060 N   0  0  0  0  0  0  0  0  0  0  0  0
   46.0210   33.5310   45.3340 C   0  0  0  0  0  0  0  0  0  0  0  0
   45.0980   34.3650   45.8770 N   0  0  0  0  0  0  0  0  0  0  0  0
   43.9210   36.0790   45.6220 H   0  0  0  0  0  0  0  0  0  0  0  0
   46.4780   32.6460   45.7550 H   0  0  0  0  0  0  0  0  0  0  0  0
   44.6730   36.8580   43.1420 N   0  0  0  0  0  0  0  0  0  0  0  0
   44.6540   37.7640   43.6960 H   0  0  0  0  0  0  0  0  0  0  0  0
   44.3820   36.8470   42.1590 H   0  0  0  0  0  0  0  0  0  0  0  0
   47.3380   33.9040   39.8780 C   0  0  0  0  0  0  0  0  0  0  0  0
   48.3440   34.5490   39.1860 C   0  0  0  0  0  0  0  0  0  0  0  0
   49.0950   35.1180   39.6810 H   0  0  0  0  0  0  0  0  0  0  0  0
   48.2940   34.3950   37.8100 C   0  0  0  0  0  0  0  0  0  0  0  0
   49.0950   34.9070   37.2570 H   0  0  0  0  0  0  0  0  0  0  0  0
   47.3070   33.6500   37.1900 C   0  0  0  0  0  3  0  0  0  0  0  0
   46.3150   33.0190   37.9410 C   0  0  0  0  0  3  0  0  0  0  0  0
   46.3740   33.1760   39.2850 N   0  0  0  0  0  0  0  0  0  0  0  0
  1  4  1  6  0  0  0
  1 10  1  0  0  0  0
  2  1  1  0  0  0  0
  2  5  1  0  0  0  0
  3  7  1  1  0  0  0
  3  2  1  0  0  0  0
  3  1  1  0  0  0  0
  6  2  1  0  0  0  0
  8 14  1  0  0  0  0
  8 13  1  0  0  0  0
  9  8  2  0  0  0  0
 10  9  1  0  0  0  0
 10 11  2  0  0  0  0
 11 12  1  0  0  0  0
 12 15  1  0  0  0  0
 12 13  2  0  0  0  0
 16 17  1  0  0  0  0
 16  9  1  0  0  0  0
 18 16  1  0  0  0  0
 19  3  1  0  0  0  0
 20 21  1  0  0  0  0
 20 19  2  0  0  0  0
 22 20  1  0  0  0  0
 23 22  1  0  0  0  0
 24 22  2  0  0  0  0
 24 25  1  0  0  0  0
 25 26  2  0  0  0  0
 26 19  1  0  0  0  0
M  END
>  <minimizedAffinity>
-5.39838266

>  <minimizedRMSD>
0.154368609

$$$$
