
 OpenBabel03252502353D

 39 41  0  0  1  0  0  0  0  0999 V2000
   38.0320   31.8430   40.8850 C   0  0  2  0  0  0  0  0  0  0  0  0
   37.5070   32.7650   39.7750 C   0  0  0  0  0  0  0  0  0  0  0  0
   38.1050   34.1260   40.1000 C   0  0  0  0  0  0  0  0  0  0  0  0
   39.5810   33.9640   39.7710 C   0  0  0  0  0  0  0  0  0  0  0  0
   40.2080   32.9790   40.6780 C   0  0  0  0  0  0  0  0  0  0  0  0
   39.4940   31.6660   40.8490 C   0  0  2  0  0  0  0  0  0  0  0  0
   37.7590   32.3630   41.8370 H   0  0  0  0  0  0  0  0  0  0  0  0
   37.8440   32.4370   38.7790 H   0  0  0  0  0  0  0  0  0  0  0  0
   36.4240   32.8470   39.8850 H   0  0  0  0  0  0  0  0  0  0  0  0
   37.7210   34.8760   39.3660 H   0  0  0  0  0  0  0  0  0  0  0  0
   37.9300   34.3960   41.1400 H   0  0  0  0  0  0  0  0  0  0  0  0
   39.6600   33.7050   38.7070 H   0  0  0  0  0  0  0  0  0  0  0  0
   40.0860   34.9360   39.9190 H   0  0  0  0  0  0  0  0  0  0  0  0
   41.2290   32.7340   40.2590 H   0  0  0  0  0  0  0  0  0  0  0  0
   40.4410   33.4390   41.6670 H   0  0  0  0  0  0  0  0  0  0  0  0
   39.7850   31.2920   41.8840 H   0  0  0  0  0  0  0  0  0  0  0  0
   40.0470   30.6600   39.9180 C   0  0  0  0  0  0  0  0  0  0  0  0
   39.9550   30.8050   38.5290 C   0  0  0  0  0  0  0  0  0  0  0  0
   39.5110   31.7050   38.1260 H   0  0  0  0  0  0  0  0  0  0  0  0
   40.4400   29.7850   37.7290 C   0  0  0  0  0  0  0  0  0  0  0  0
   40.3470   29.9410   36.6580 H   0  0  0  0  0  0  0  0  0  0  0  0
   41.0110   28.6300   38.1870 C   0  0  0  0  0  3  0  0  0  0  0  0
   41.0720   28.5520   39.5720 C   0  0  0  0  0  3  0  0  0  0  0  0
   40.6120   29.5210   40.4160 N   0  0  0  0  0  0  0  0  0  0  0  0
   35.6350   29.1440   39.8140 C   0  0  0  0  0  0  0  0  0  0  0  0
   36.3390   30.3650   39.7600 C   0  0  0  0  0  0  0  0  0  0  0  0
   37.2470   30.6160   40.8180 C   0  0  0  0  0  0  0  0  0  0  0  0
   37.3810   29.6840   41.8020 N   0  0  0  0  0  0  0  0  0  0  0  0
   36.6920   28.5450   41.8070 C   0  0  0  0  0  0  0  0  0  0  0  0
   35.8160   28.2740   40.8120 N   0  0  0  0  0  0  0  0  0  0  0  0
   36.2220   31.0970   38.9690 H   0  0  0  0  0  0  0  0  0  0  0  0
   34.6800   28.8810   38.6960 C   0  0  0  0  0  0  0  0  0  0  0  0
   34.9740   29.6510   37.5900 F   0  0  0  0  0  0  0  0  0  0  0  0
   34.7010   27.5180   38.4090 F   0  0  0  0  0  0  0  0  0  0  0  0
   33.3810   29.1430   39.1190 F   0  0  0  0  0  0  0  0  0  0  0  0
   36.8650   27.5550   42.9020 C   0  0  0  0  0  0  0  0  0  0  0  0
   35.7430   27.4650   43.6770 F   0  0  0  0  0  0  0  0  0  0  0  0
   37.9990   27.8810   43.6780 F   0  0  0  0  0  0  0  0  0  0  0  0
   37.1510   26.3110   42.4050 F   0  0  0  0  0  0  0  0  0  0  0  0
  1  7  1  1  0  0  0
  2  9  1  0  0  0  0
  2  3  1  0  0  0  0
  2  1  1  0  0  0  0
  3 11  1  0  0  0  0
  4 13  1  0  0  0  0
  4  3  1  0  0  0  0
  4  5  1  0  0  0  0
  5  6  1  0  0  0  0
  5 15  1  0  0  0  0
  6  1  1  0  0  0  0
  6 16  1  1  0  0  0
  8  2  1  0  0  0  0
 10  3  1  0  0  0  0
 12  4  1  0  0  0  0
 14  5  1  0  0  0  0
 17 24  1  0  0  0  0
 17  6  1  0  0  0  0
 18 17  2  0  0  0  0
 19 18  1  0  0  0  0
 20 22  2  0  0  0  0
 20 18  1  0  0  0  0
 21 20  1  0  0  0  0
 22 23  1  0  0  0  0
 23 24  2  0  0  0  0
 25 30  1  0  0  0  0
 26 25  2  0  0  0  0
 26 27  1  0  0  0  0
 27  1  1  0  0  0  0
 27 28  2  0  0  0  0
 28 29  1  0  0  0  0
 29 36  1  0  0  0  0
 30 29  2  0  0  0  0
 31 26  1  0  0  0  0
 32 35  1  0  0  0  0
 32 25  1  0  0  0  0
 33 32  1  0  0  0  0
 34 32  1  0  0  0  0
 36 37  1  0  0  0  0
 36 38  1  0  0  0  0
 39 36  1  0  0  0  0
M  END
>  <minimizedAffinity>
-6.18521214

$$$$

 OpenBabel03252502353D

 39 41  0  0  1  0  0  0  0  0999 V2000
   38.0200   31.8720   40.9030 C   0  0  2  0  0  0  0  0  0  0  0  0
   37.4220   32.7160   39.7690 C   0  0  0  0  0  0  0  0  0  0  0  0
   37.9500   34.1200   40.0240 C   0  0  0  0  0  0  0  0  0  0  0  0
   39.4260   34.0250   39.6670 C   0  0  0  0  0  0  0  0  0  0  0  0
   40.1250   33.1150   40.5980 C   0  0  0  0  0  0  0  0  0  0  0  0
   39.4890   31.7740   40.8400 C   0  0  2  0  0  0  0  0  0  0  0  0
   37.7390   32.4160   41.8390 H   0  0  0  0  0  0  0  0  0  0  0  0
   37.7550   32.3650   38.7800 H   0  0  0  0  0  0  0  0  0  0  0  0
   36.3380   32.7440   39.9010 H   0  0  0  0  0  0  0  0  0  0  0  0
   37.5090   34.8170   39.2680 H   0  0  0  0  0  0  0  0  0  0  0  0
   37.7820   34.4240   41.0550 H   0  0  0  0  0  0  0  0  0  0  0  0
   39.4960   33.7260   38.6130 H   0  0  0  0  0  0  0  0  0  0  0  0
   39.8790   35.0280   39.7630 H   0  0  0  0  0  0  0  0  0  0  0  0
   41.1490   32.9080   40.1660 H   0  0  0  0  0  0  0  0  0  0  0  0
   40.3530   33.6280   41.5620 H   0  0  0  0  0  0  0  0  0  0  0  0
   39.8220   31.4600   41.8820 H   0  0  0  0  0  0  0  0  0  0  0  0
   40.0770   30.7600   39.9380 C   0  0  0  0  0  0  0  0  0  0  0  0
   39.9000   30.8100   38.5510 C   0  0  0  0  0  0  0  0  0  0  0  0
   39.3580   31.6420   38.1230 H   0  0  0  0  0  0  0  0  0  0  0  0
   40.4280   29.7860   37.7850 C   0  0  0  0  0  0  0  0  0  0  0  0
   40.2660   29.8660   36.7140 H   0  0  0  0  0  0  0  0  0  0  0  0
   41.1200   28.7130   38.2750 C   0  0  0  0  0  3  0  0  0  0  0  0
   41.2620   28.7270   39.6570 C   0  0  0  0  0  3  0  0  0  0  0  0
   40.7650   29.7060   40.4680 N   0  0  0  0  0  0  0  0  0  0  0  0
   36.7460   28.4470   41.8100 C   0  0  0  0  0  0  0  0  0  0  0  0
   37.4930   29.6370   41.9260 C   0  0  0  0  0  0  0  0  0  0  0  0
   37.3040   30.6020   40.9050 C   0  0  0  0  0  0  0  0  0  0  0  0
   36.4320   30.3260   39.8960 N   0  0  0  0  0  0  0  0  0  0  0  0
   35.7490   29.1850   39.8320 C   0  0  0  0  0  0  0  0  0  0  0  0
   35.9070   28.2420   40.7900 N   0  0  0  0  0  0  0  0  0  0  0  0
   38.1830   29.8420   42.7370 H   0  0  0  0  0  0  0  0  0  0  0  0
   36.9460   27.4320   42.8880 C   0  0  0  0  0  0  0  0  0  0  0  0
   35.8180   27.3000   43.6710 F   0  0  0  0  0  0  0  0  0  0  0  0
   37.3190   26.2270   42.2950 F   0  0  0  0  0  0  0  0  0  0  0  0
   38.0290   27.7970   43.6790 F   0  0  0  0  0  0  0  0  0  0  0  0
   34.8100   28.9210   38.7120 C   0  0  0  0  0  0  0  0  0  0  0  0
   35.1090   29.6830   37.6180 F   0  0  0  0  0  0  0  0  0  0  0  0
   33.4780   29.1320   39.1340 F   0  0  0  0  0  0  0  0  0  0  0  0
   34.8340   27.6020   38.3440 F   0  0  0  0  0  0  0  0  0  0  0  0
  1 27  1  0  0  0  0
  1  7  1  1  0  0  0
  2  9  1  0  0  0  0
  2  3  1  0  0  0  0
  2  1  1  0  0  0  0
  3 11  1  0  0  0  0
  4 13  1  0  0  0  0
  4  3  1  0  0  0  0
  4  5  1  0  0  0  0
  5  6  1  0  0  0  0
  5 15  1  0  0  0  0
  6  1  1  0  0  0  0
  6 16  1  1  0  0  0
  8  2  1  0  0  0  0
 10  3  1  0  0  0  0
 12  4  1  0  0  0  0
 14  5  1  0  0  0  0
 17 24  1  0  0  0  0
 17  6  1  0  0  0  0
 18 17  2  0  0  0  0
 19 18  1  0  0  0  0
 20 22  2  0  0  0  0
 20 18  1  0  0  0  0
 21 20  1  0  0  0  0
 22 23  1  0  0  0  0
 23 24  2  0  0  0  0
 25 26  1  0  0  0  0
 25 32  1  0  0  0  0
 26 31  1  0  0  0  0
 27 26  2  0  0  0  0
 28 27  1  0  0  0  0
 29 28  2  0  0  0  0
 29 30  1  0  0  0  0
 30 25  2  0  0  0  0
 32 33  1  0  0  0  0
 32 35  1  0  0  0  0
 34 32  1  0  0  0  0
 36 38  1  0  0  0  0
 36 29  1  0  0  0  0
 37 36  1  0  0  0  0
 39 36  1  0  0  0  0
M  END
>  <minimizedAffinity>
-6.06906605

$$$$

 OpenBabel03252502353D

 39 41  0  0  1  0  0  0  0  0999 V2000
   35.8260   29.6150   38.6780 C   0  0  2  0  0  0  0  0  0  0  0  0
   34.7420   28.5270   38.7030 C   0  0  0  0  0  0  0  0  0  0  0  0
   33.7760   28.9310   37.5990 C   0  0  0  0  0  0  0  0  0  0  0  0
   34.5470   28.6480   36.3180 C   0  0  0  0  0  0  0  0  0  0  0  0
   35.7260   29.5340   36.2180 C   0  0  0  0  0  0  0  0  0  0  0  0
   36.6100   29.6230   37.4310 C   0  0  2  0  0  0  0  0  0  0  0  0
   35.2610   30.5780   38.7510 H   0  0  0  0  0  0  0  0  0  0  0  0
   35.1590   27.5310   38.4880 H   0  0  0  0  0  0  0  0  0  0  0  0
   34.2070   28.6010   39.6510 H   0  0  0  0  0  0  0  0  0  0  0  0
   32.9170   28.2160   37.5880 H   0  0  0  0  0  0  0  0  0  0  0  0
   33.4810   29.9740   37.6940 H   0  0  0  0  0  0  0  0  0  0  0  0
   34.7890   27.5770   36.3040 H   0  0  0  0  0  0  0  0  0  0  0  0
   33.8890   28.8550   35.4550 H   0  0  0  0  0  0  0  0  0  0  0  0
   36.3750   29.1420   35.3790 H   0  0  0  0  0  0  0  0  0  0  0  0
   35.4330   30.5490   35.8610 H   0  0  0  0  0  0  0  0  0  0  0  0
   37.0970   30.6510   37.3810 H   0  0  0  0  0  0  0  0  0  0  0  0
   37.7350   28.6710   37.3140 C   0  0  0  0  0  0  0  0  0  0  0  0
   39.0690   29.0940   37.3070 C   0  0  0  0  0  0  0  0  0  0  0  0
   39.2830   30.1460   37.4420 H   0  0  0  0  0  0  0  0  0  0  0  0
   40.0580   28.1440   37.1280 C   0  0  0  0  0  0  0  0  0  0  0  0
   41.0780   28.5180   37.1290 H   0  0  0  0  0  0  0  0  0  0  0  0
   39.8410   26.8050   36.9550 C   0  0  0  0  0  3  0  0  0  0  0  0
   38.4970   26.4530   36.9740 C   0  0  0  0  0  3  0  0  0  0  0  0
   37.4750   27.3400   37.1460 N   0  0  0  0  0  0  0  0  0  0  0  0
   37.1980   28.3570   41.9500 C   0  0  0  0  0  0  0  0  0  0  0  0
   36.3930   28.3810   40.7930 C   0  0  0  0  0  0  0  0  0  0  0  0
   36.5970   29.4680   39.9070 C   0  0  0  0  0  0  0  0  0  0  0  0
   37.5360   30.4030   40.2200 N   0  0  0  0  0  0  0  0  0  0  0  0
   38.2710   30.3340   41.3290 C   0  0  0  0  0  0  0  0  0  0  0  0
   38.1020   29.3100   42.1960 N   0  0  0  0  0  0  0  0  0  0  0  0
   35.6490   27.6290   40.5570 H   0  0  0  0  0  0  0  0  0  0  0  0
   36.9820   27.2100   42.8820 C   0  0  0  0  0  0  0  0  0  0  0  0
   35.8740   27.4100   43.6790 F   0  0  0  0  0  0  0  0  0  0  0  0
   36.8840   26.0420   42.1290 F   0  0  0  0  0  0  0  0  0  0  0  0
   38.1080   27.0350   43.6780 F   0  0  0  0  0  0  0  0  0  0  0  0
   39.2840   31.3770   41.6360 C   0  0  0  0  0  0  0  0  0  0  0  0
   39.7650   31.2480   42.9090 F   0  0  0  0  0  0  0  0  0  0  0  0
   38.7380   32.6640   41.4240 F   0  0  0  0  0  0  0  0  0  0  0  0
   40.3380   31.3180   40.7640 F   0  0  0  0  0  0  0  0  0  0  0  0
  1  2  1  0  0  0  0
  1  7  1  1  0  0  0
  1 27  1  0  0  0  0
  2  9  1  0  0  0  0
  3 11  1  0  0  0  0
  3  2  1  0  0  0  0
  4  3  1  0  0  0  0
  5  4  1  0  0  0  0
  5  6  1  0  0  0  0
  6 16  1  6  0  0  0
  6  1  1  0  0  0  0
  8  2  1  0  0  0  0
 10  3  1  0  0  0  0
 12  4  1  0  0  0  0
 13  4  1  0  0  0  0
 14  5  1  0  0  0  0
 15  5  1  0  0  0  0
 17  6  1  0  0  0  0
 18 17  1  0  0  0  0
 18 19  1  0  0  0  0
 20 21  1  0  0  0  0
 20 18  2  0  0  0  0
 22 23  2  0  0  0  0
 22 20  1  0  0  0  0
 23 24  1  0  0  0  0
 24 17  2  0  0  0  0
 25 30  1  0  0  0  0
 25 32  1  0  0  0  0
 26 25  2  0  0  0  0
 27 28  2  0  0  0  0
 27 26  1  0  0  0  0
 28 29  1  0  0  0  0
 29 36  1  0  0  0  0
 29 30  2  0  0  0  0
 31 26  1  0  0  0  0
 32 35  1  0  0  0  0
 32 33  1  0  0  0  0
 34 32  1  0  0  0  0
 36 37  1  0  0  0  0
 38 36  1  0  0  0  0
 39 36  1  0  0  0  0
M  END
>  <minimizedAffinity>
-5.85193872

$$$$

 OpenBabel03252502353D

 39 41  0  0  1  0  0  0  0  0999 V2000
   39.6150   29.2590   38.7410 C   0  0  2  0  0  0  0  0  0  0  0  0
   40.7950   29.0560   39.7020 C   0  0  0  0  0  0  0  0  0  0  0  0
   42.0230   29.0780   38.8030 C   0  0  0  0  0  0  0  0  0  0  0  0
   42.1410   30.5360   38.3830 C   0  0  0  0  0  0  0  0  0  0  0  0
   40.9820   30.9320   37.5570 C   0  0  0  0  0  0  0  0  0  0  0  0
   39.6200   30.5800   38.0880 C   0  0  2  0  0  0  0  0  0  0  0  0
   39.7510   28.4730   37.9570 H   0  0  0  0  0  0  0  0  0  0  0  0
   40.8610   29.8670   40.4440 H   0  0  0  0  0  0  0  0  0  0  0  0
   40.7180   28.0540   40.1290 H   0  0  0  0  0  0  0  0  0  0  0  0
   42.9310   28.8760   39.4230 H   0  0  0  0  0  0  0  0  0  0  0  0
   41.9050   28.4020   37.9580 H   0  0  0  0  0  0  0  0  0  0  0  0
   42.2670   31.1360   39.2940 H   0  0  0  0  0  0  0  0  0  0  0  0
   43.0540   30.6560   37.7730 H   0  0  0  0  0  0  0  0  0  0  0  0
   41.0040   32.0580   37.4580 H   0  0  0  0  0  0  0  0  0  0  0  0
   41.1030   30.5810   36.5050 H   0  0  0  0  0  0  0  0  0  0  0  0
   38.9510   30.4730   37.1730 H   0  0  0  0  0  0  0  0  0  0  0  0
   39.0520   31.7230   38.8340 C   0  0  0  0  0  0  0  0  0  0  0  0
   37.7620   32.2050   38.5850 C   0  0  0  0  0  0  0  0  0  0  0  0
   37.1450   31.6930   37.8600 H   0  0  0  0  0  0  0  0  0  0  0  0
   37.3320   33.3200   39.2820 C   0  0  0  0  0  0  0  0  0  0  0  0
   36.3250   33.6590   39.0560 H   0  0  0  0  0  0  0  0  0  0  0  0
   38.0720   34.0020   40.2090 C   0  0  0  0  0  3  0  0  0  0  0  0
   39.3390   33.4710   40.4090 C   0  0  0  0  0  3  0  0  0  0  0  0
   39.8230   32.3760   39.7540 N   0  0  0  0  0  0  0  0  0  0  0  0
   37.2050   28.2790   41.4630 C   0  0  0  0  0  0  0  0  0  0  0  0
   38.4420   28.5850   40.8590 C   0  0  0  0  0  0  0  0  0  0  0  0
   38.4050   28.9290   39.4850 C   0  0  0  0  0  0  0  0  0  0  0  0
   37.2030   28.9420   38.8440 N   0  0  0  0  0  0  0  0  0  0  0  0
   36.0610   28.6450   39.4610 C   0  0  0  0  0  0  0  0  0  0  0  0
   36.0610   28.3120   40.7720 N   0  0  0  0  0  0  0  0  0  0  0  0
   39.3910   28.5700   41.3830 H   0  0  0  0  0  0  0  0  0  0  0  0
   37.2460   27.9180   42.9120 C   0  0  0  0  0  0  0  0  0  0  0  0
   38.1990   26.9530   43.1630 F   0  0  0  0  0  0  0  0  0  0  0  0
   37.4680   29.0800   43.6490 F   0  0  0  0  0  0  0  0  0  0  0  0
   35.9970   27.4630   43.3170 F   0  0  0  0  0  0  0  0  0  0  0  0
   34.7710   28.6680   38.7250 C   0  0  0  0  0  0  0  0  0  0  0  0
   34.4540   27.4330   38.2310 F   0  0  0  0  0  0  0  0  0  0  0  0
   34.8140   29.6350   37.6960 F   0  0  0  0  0  0  0  0  0  0  0  0
   33.7470   29.0900   39.5310 F   0  0  0  0  0  0  0  0  0  0  0  0
  1  7  1  6  0  0  0
  1 27  1  0  0  0  0
  1  2  1  0  0  0  0
  2  9  1  0  0  0  0
  2  8  1  0  0  0  0
  3 10  1  0  0  0  0
  3  2  1  0  0  0  0
  4  3  1  0  0  0  0
  4 12  1  0  0  0  0
  5  6  1  0  0  0  0
  5  4  1  0  0  0  0
  6 16  1  6  0  0  0
  6  1  1  0  0  0  0
  6 17  1  0  0  0  0
 11  3  1  0  0  0  0
 13  4  1  0  0  0  0
 14  5  1  0  0  0  0
 15  5  1  0  0  0  0
 17 24  1  0  0  0  0
 18 17  2  0  0  0  0
 18 20  1  0  0  0  0
 19 18  1  0  0  0  0
 20 22  2  0  0  0  0
 21 20  1  0  0  0  0
 22 23  1  0  0  0  0
 24 23  2  0  0  0  0
 25 32  1  0  0  0  0
 26 31  1  0  0  0  0
 26 25  1  0  0  0  0
 27 26  2  0  0  0  0
 28 29  2  0  0  0  0
 28 27  1  0  0  0  0
 29 30  1  0  0  0  0
 30 25  2  0  0  0  0
 32 33  1  0  0  0  0
 32 35  1  0  0  0  0
 32 34  1  0  0  0  0
 36 29  1  0  0  0  0
 36 39  1  0  0  0  0
 37 36  1  0  0  0  0
 38 36  1  0  0  0  0
M  END
>  <minimizedAffinity>
-5.81859922

$$$$

 OpenBabel03252502353D

 39 41  0  0  1  0  0  0  0  0999 V2000
   38.3500   28.8750   41.9600 C   0  0  2  0  0  0  0  0  0  0  0  0
   39.1870   27.5900   41.8790 C   0  0  0  0  0  0  0  0  0  0  0  0
   38.8780   26.8550   43.1750 C   0  0  0  0  0  0  0  0  0  0  0  0
   37.4480   26.3710   42.9880 C   0  0  0  0  0  0  0  0  0  0  0  0
   36.5210   27.5170   42.9000 C   0  0  0  0  0  0  0  0  0  0  0  0
   36.8980   28.6220   41.9510 C   0  0  2  0  0  0  0  0  0  0  0  0
   38.6270   29.3300   42.9440 H   0  0  0  0  0  0  0  0  0  0  0  0
   38.8970   26.9680   41.0190 H   0  0  0  0  0  0  0  0  0  0  0  0
   40.2420   27.8690   41.9030 H   0  0  0  0  0  0  0  0  0  0  0  0
   39.5000   25.9270   43.2240 H   0  0  0  0  0  0  0  0  0  0  0  0
   38.9940   27.5090   44.0380 H   0  0  0  0  0  0  0  0  0  0  0  0
   37.4320   25.7130   42.1090 H   0  0  0  0  0  0  0  0  0  0  0  0
   37.1620   25.7650   43.8670 H   0  0  0  0  0  0  0  0  0  0  0  0
   35.5230   27.1210   42.5460 H   0  0  0  0  0  0  0  0  0  0  0  0
   36.2900   27.9230   43.9130 H   0  0  0  0  0  0  0  0  0  0  0  0
   36.4190   29.5650   42.3720 H   0  0  0  0  0  0  0  0  0  0  0  0
   36.2390   28.4190   40.6430 C   0  0  0  0  0  0  0  0  0  0  0  0
   35.2670   29.3000   40.1570 C   0  0  0  0  0  0  0  0  0  0  0  0
   35.0280   30.1830   40.7340 H   0  0  0  0  0  0  0  0  0  0  0  0
   34.6520   29.0010   38.9550 C   0  0  0  0  0  0  0  0  0  0  0  0
   33.9050   29.7130   38.6170 H   0  0  0  0  0  0  0  0  0  0  0  0
   34.9190   27.9010   38.1870 C   0  0  0  0  0  3  0  0  0  0  0  0
   35.8930   27.0700   38.7250 C   0  0  0  0  0  3  0  0  0  0  0  0
   36.5360   27.3080   39.9060 N   0  0  0  0  0  0  0  0  0  0  0  0
   40.0400   30.2470   38.8890 C   0  0  0  0  0  0  0  0  0  0  0  0
   39.6200   29.2860   39.8310 C   0  0  0  0  0  0  0  0  0  0  0  0
   38.8410   29.7640   40.9140 C   0  0  0  0  0  0  0  0  0  0  0  0
   38.5520   31.0930   40.9780 N   0  0  0  0  0  0  0  0  0  0  0  0
   38.9740   31.9610   40.0610 C   0  0  0  0  0  0  0  0  0  0  0  0
   39.7200   31.5390   39.0140 N   0  0  0  0  0  0  0  0  0  0  0  0
   39.8580   28.2300   39.7660 H   0  0  0  0  0  0  0  0  0  0  0  0
   40.8610   29.7410   37.7480 C   0  0  0  0  0  0  0  0  0  0  0  0
   40.1320   28.8910   36.9420 F   0  0  0  0  0  0  0  0  0  0  0  0
   41.3590   30.8350   37.0430 F   0  0  0  0  0  0  0  0  0  0  0  0
   41.9830   29.0810   38.2350 F   0  0  0  0  0  0  0  0  0  0  0  0
   38.6400   33.4050   40.1690 C   0  0  0  0  0  0  0  0  0  0  0  0
   38.7920   33.8600   41.4490 F   0  0  0  0  0  0  0  0  0  0  0  0
   37.3280   33.6380   39.6960 F   0  0  0  0  0  0  0  0  0  0  0  0
   39.4280   34.1600   39.3420 F   0  0  0  0  0  0  0  0  0  0  0  0
  1  7  1  1  0  0  0
  2  9  1  0  0  0  0
  2  1  1  0  0  0  0
  2  3  1  0  0  0  0
  3 10  1  0  0  0  0
  3 11  1  0  0  0  0
  4  3  1  0  0  0  0
  4 13  1  0  0  0  0
  5  4  1  0  0  0  0
  5 15  1  0  0  0  0
  6  1  1  0  0  0  0
  6 16  1  1  0  0  0
  6  5  1  0  0  0  0
  8  2  1  0  0  0  0
 12  4  1  0  0  0  0
 14  5  1  0  0  0  0
 17  6  1  0  0  0  0
 18 17  1  0  0  0  0
 18 19  1  0  0  0  0
 20 18  2  0  0  0  0
 21 20  1  0  0  0  0
 22 23  2  0  0  0  0
 22 20  1  0  0  0  0
 23 24  1  0  0  0  0
 24 17  2  0  0  0  0
 25 30  2  0  0  0  0
 25 26  1  0  0  0  0
 26 27  2  0  0  0  0
 27 28  1  0  0  0  0
 27  1  1  0  0  0  0
 29 36  1  0  0  0  0
 29 28  2  0  0  0  0
 30 29  1  0  0  0  0
 31 26  1  0  0  0  0
 32 35  1  0  0  0  0
 32 25  1  0  0  0  0
 33 32  1  0  0  0  0
 34 32  1  0  0  0  0
 36 37  1  0  0  0  0
 38 36  1  0  0  0  0
 39 36  1  0  0  0  0
M  END
>  <minimizedAffinity>
-5.81356716

$$$$

 OpenBabel03252502353D

 39 41  0  0  1  0  0  0  0  0999 V2000
   38.3980   28.8780   41.9740 C   0  0  2  0  0  0  0  0  0  0  0  0
   39.2320   27.5990   41.8090 C   0  0  0  0  0  0  0  0  0  0  0  0
   38.9500   26.7980   43.0720 C   0  0  0  0  0  0  0  0  0  0  0  0
   37.5150   26.3240   42.8900 C   0  0  0  0  0  0  0  0  0  0  0  0
   36.5880   27.4740   42.8800 C   0  0  0  0  0  0  0  0  0  0  0  0
   36.9460   28.6260   41.9810 C   0  0  2  0  0  0  0  0  0  0  0  0
   38.6950   29.2820   42.9730 H   0  0  0  0  0  0  0  0  0  0  0  0
   38.9240   27.0220   40.9240 H   0  0  0  0  0  0  0  0  0  0  0  0
   40.2880   27.8770   41.8260 H   0  0  0  0  0  0  0  0  0  0  0  0
   39.5710   25.8690   43.0600 H   0  0  0  0  0  0  0  0  0  0  0  0
   39.0840   27.4080   43.9640 H   0  0  0  0  0  0  0  0  0  0  0  0
   37.4800   25.7130   41.9790 H   0  0  0  0  0  0  0  0  0  0  0  0
   37.2460   25.6740   43.7420 H   0  0  0  0  0  0  0  0  0  0  0  0
   35.5820   27.0970   42.5270 H   0  0  0  0  0  0  0  0  0  0  0  0
   36.3780   27.8270   43.9170 H   0  0  0  0  0  0  0  0  0  0  0  0
   36.4770   29.5460   42.4600 H   0  0  0  0  0  0  0  0  0  0  0  0
   36.2600   28.4890   40.6790 C   0  0  0  0  0  0  0  0  0  0  0  0
   35.2540   29.3740   40.2740 C   0  0  0  0  0  0  0  0  0  0  0  0
   35.0080   30.2110   40.9130 H   0  0  0  0  0  0  0  0  0  0  0  0
   34.6180   29.1370   39.0690 C   0  0  0  0  0  0  0  0  0  0  0  0
   33.8440   29.8490   38.7960 H   0  0  0  0  0  0  0  0  0  0  0  0
   34.8930   28.0960   38.2250 C   0  0  0  0  0  3  0  0  0  0  0  0
   35.9000   27.2590   38.6860 C   0  0  0  0  0  3  0  0  0  0  0  0
   36.5660   27.4370   39.8640 N   0  0  0  0  0  0  0  0  0  0  0  0
   39.0770   32.0060   39.9930 C   0  0  0  0  0  0  0  0  0  0  0  0
   38.5700   31.2020   41.0340 C   0  0  0  0  0  0  0  0  0  0  0  0
   38.8690   29.8190   40.9640 C   0  0  0  0  0  0  0  0  0  0  0  0
   39.6110   29.3600   39.9190 N   0  0  0  0  0  0  0  0  0  0  0  0
   40.0670   30.1620   38.9590 C   0  0  0  0  0  0  0  0  0  0  0  0
   39.8000   31.4880   38.9950 N   0  0  0  0  0  0  0  0  0  0  0  0
   37.9800   31.5830   41.8600 H   0  0  0  0  0  0  0  0  0  0  0  0
   38.7620   33.4640   40.0680 C   0  0  0  0  0  0  0  0  0  0  0  0
   38.6970   33.8980   41.3770 F   0  0  0  0  0  0  0  0  0  0  0  0
   39.7160   34.1610   39.3300 F   0  0  0  0  0  0  0  0  0  0  0  0
   37.5530   33.7160   39.4290 F   0  0  0  0  0  0  0  0  0  0  0  0
   40.8710   29.6210   37.8330 C   0  0  0  0  0  0  0  0  0  0  0  0
   40.1820   28.6670   37.1390 F   0  0  0  0  0  0  0  0  0  0  0  0
   42.1020   29.1170   38.3110 F   0  0  0  0  0  0  0  0  0  0  0  0
   41.2370   30.6130   36.9630 F   0  0  0  0  0  0  0  0  0  0  0  0
  1  6  1  0  0  0  0
  1  7  1  1  0  0  0
  2  9  1  0  0  0  0
  2  1  1  0  0  0  0
  2  3  1  0  0  0  0
  3 11  1  0  0  0  0
  4  3  1  0  0  0  0
  4 13  1  0  0  0  0
  5  4  1  0  0  0  0
  5 15  1  0  0  0  0
  6 16  1  1  0  0  0
  6  5  1  0  0  0  0
  8  2  1  0  0  0  0
 10  3  1  0  0  0  0
 12  4  1  0  0  0  0
 14  5  1  0  0  0  0
 17  6  1  0  0  0  0
 18 17  1  0  0  0  0
 18 19  1  0  0  0  0
 20 18  2  0  0  0  0
 21 20  1  0  0  0  0
 22 23  2  0  0  0  0
 22 20  1  0  0  0  0
 23 24  1  0  0  0  0
 24 17  2  0  0  0  0
 25 32  1  0  0  0  0
 25 26  1  0  0  0  0
 26 31  1  0  0  0  0
 27 26  2  0  0  0  0
 27  1  1  0  0  0  0
 28 27  1  0  0  0  0
 29 30  1  0  0  0  0
 29 28  2  0  0  0  0
 30 25  2  0  0  0  0
 32 33  1  0  0  0  0
 34 32  1  0  0  0  0
 35 32  1  0  0  0  0
 36 38  1  0  0  0  0
 36 29  1  0  0  0  0
 37 36  1  0  0  0  0
 39 36  1  0  0  0  0
M  END
>  <minimizedAffinity>
-5.7924614

$$$$

 OpenBabel03252502353D

 39 41  0  0  1  0  0  0  0  0999 V2000
   35.8120   29.6120   38.8040 C   0  0  2  0  0  0  0  0  0  0  0  0
   34.6820   28.5880   38.9870 C   0  0  0  0  0  0  0  0  0  0  0  0
   33.6740   28.9390   37.9030 C   0  0  0  0  0  0  0  0  0  0  0  0
   34.3560   28.5020   36.6150 C   0  0  0  0  0  0  0  0  0  0  0  0
   35.5670   29.3130   36.3710 C   0  0  0  0  0  0  0  0  0  0  0  0
   36.5230   29.4660   37.5220 C   0  0  2  0  0  0  0  0  0  0  0  0
   35.2970   30.6050   38.8160 H   0  0  0  0  0  0  0  0  0  0  0  0
   35.0390   27.5560   38.8450 H   0  0  0  0  0  0  0  0  0  0  0  0
   34.2060   28.7750   39.9520 H   0  0  0  0  0  0  0  0  0  0  0  0
   32.7830   28.2720   38.0050 H   0  0  0  0  0  0  0  0  0  0  0  0
   33.4340   30.0010   37.9160 H   0  0  0  0  0  0  0  0  0  0  0  0
   34.5470   27.4240   36.6880 H   0  0  0  0  0  0  0  0  0  0  0  0
   33.6590   28.6650   35.7730 H   0  0  0  0  0  0  0  0  0  0  0  0
   36.1480   28.8140   35.5390 H   0  0  0  0  0  0  0  0  0  0  0  0
   35.3020   30.3060   35.9370 H   0  0  0  0  0  0  0  0  0  0  0  0
   37.0530   30.4590   37.3500 H   0  0  0  0  0  0  0  0  0  0  0  0
   37.5930   28.4500   37.4350 C   0  0  0  0  0  0  0  0  0  0  0  0
   38.9300   28.7970   37.2080 C   0  0  0  0  0  0  0  0  0  0  0  0
   39.1930   29.8440   37.1440 H   0  0  0  0  0  0  0  0  0  0  0  0
   39.8580   27.7800   37.0750 C   0  0  0  0  0  0  0  0  0  0  0  0
   40.8830   28.0970   36.8990 H   0  0  0  0  0  0  0  0  0  0  0  0
   39.5770   26.4440   37.1490 C   0  0  0  0  0  3  0  0  0  0  0  0
   38.2350   26.1690   37.3770 C   0  0  0  0  0  3  0  0  0  0  0  0
   37.2710   27.1250   37.5170 N   0  0  0  0  0  0  0  0  0  0  0  0
   38.3800   30.3190   41.4640 C   0  0  0  0  0  0  0  0  0  0  0  0
   37.6370   30.5080   40.2810 C   0  0  0  0  0  0  0  0  0  0  0  0
   36.6450   29.5370   39.9990 C   0  0  0  0  0  0  0  0  0  0  0  0
   36.4730   28.5020   40.8670 N   0  0  0  0  0  0  0  0  0  0  0  0
   37.2030   28.3680   41.9730 C   0  0  0  0  0  0  0  0  0  0  0  0
   38.1590   29.2780   42.2730 N   0  0  0  0  0  0  0  0  0  0  0  0
   37.7850   31.3380   39.5990 H   0  0  0  0  0  0  0  0  0  0  0  0
   39.4250   31.3450   41.7610 C   0  0  0  0  0  0  0  0  0  0  0  0
   39.8290   31.2850   43.0790 F   0  0  0  0  0  0  0  0  0  0  0  0
   40.4860   31.1620   40.8770 F   0  0  0  0  0  0  0  0  0  0  0  0
   38.9300   32.6120   41.4770 F   0  0  0  0  0  0  0  0  0  0  0  0
   36.9870   27.2220   42.8940 C   0  0  0  0  0  0  0  0  0  0  0  0
   35.8850   27.4120   43.6800 F   0  0  0  0  0  0  0  0  0  0  0  0
   38.1430   27.0020   43.6770 F   0  0  0  0  0  0  0  0  0  0  0  0
   36.8310   26.0520   42.2000 F   0  0  0  0  0  0  0  0  0  0  0  0
  1  7  1  6  0  0  0
  1  2  1  0  0  0  0
  1 27  1  0  0  0  0
  2  9  1  0  0  0  0
  3 11  1  0  0  0  0
  3 10  1  0  0  0  0
  3  2  1  0  0  0  0
  4 12  1  0  0  0  0
  4  3  1  0  0  0  0
  5  4  1  0  0  0  0
  5  6  1  0  0  0  0
  6 16  1  6  0  0  0
  6  1  1  0  0  0  0
  8  2  1  0  0  0  0
 13  4  1  0  0  0  0
 14  5  1  0  0  0  0
 15  5  1  0  0  0  0
 17 24  1  0  0  0  0
 17  6  1  0  0  0  0
 18 17  2  0  0  0  0
 19 18  1  0  0  0  0
 20 22  2  0  0  0  0
 20 18  1  0  0  0  0
 21 20  1  0  0  0  0
 22 23  1  0  0  0  0
 23 24  2  0  0  0  0
 25 32  1  0  0  0  0
 25 30  1  0  0  0  0
 26 25  2  0  0  0  0
 27 26  1  0  0  0  0
 27 28  2  0  0  0  0
 28 29  1  0  0  0  0
 29 30  2  0  0  0  0
 29 36  1  0  0  0  0
 31 26  1  0  0  0  0
 32 33  1  0  0  0  0
 34 32  1  0  0  0  0
 35 32  1  0  0  0  0
 36 38  1  0  0  0  0
 36 37  1  0  0  0  0
 39 36  1  0  0  0  0
M  END
>  <minimizedAffinity>
-5.78790426

$$$$

 OpenBabel03252502353D

 39 41  0  0  1  0  0  0  0  0999 V2000
   37.8150   25.7670   39.3730 C   0  0  2  0  0  0  0  0  0  0  0  0
   36.6280   24.8040   39.5200 C   0  0  0  0  0  0  0  0  0  0  0  0
   37.2710   23.4320   39.6660 C   0  0  0  0  0  0  0  0  0  0  0  0
   37.8890   23.4650   41.0560 C   0  0  0  0  0  0  0  0  0  0  0  0
   38.9720   24.4680   41.1170 C   0  0  0  0  0  0  0  0  0  0  0  0
   38.6580   25.8370   40.5790 C   0  0  2  0  0  0  0  0  0  0  0  0
   38.4230   25.3400   38.5360 H   0  0  0  0  0  0  0  0  0  0  0  0
   36.0270   25.0320   40.4140 H   0  0  0  0  0  0  0  0  0  0  0  0
   36.0690   24.8070   38.5830 H   0  0  0  0  0  0  0  0  0  0  0  0
   36.4660   22.6580   39.7200 H   0  0  0  0  0  0  0  0  0  0  0  0
   38.0030   23.2540   38.8810 H   0  0  0  0  0  0  0  0  0  0  0  0
   37.0790   23.6370   41.7770 H   0  0  0  0  0  0  0  0  0  0  0  0
   38.3270   22.4740   41.2720 H   0  0  0  0  0  0  0  0  0  0  0  0
   39.2450   24.6090   42.2050 H   0  0  0  0  0  0  0  0  0  0  0  0
   39.9120   24.0690   40.6680 H   0  0  0  0  0  0  0  0  0  0  0  0
   39.6540   26.2670   40.2330 H   0  0  0  0  0  0  0  0  0  0  0  0
   38.2260   26.7290   41.6750 C   0  0  0  0  0  0  0  0  0  0  0  0
   37.0430   26.5070   42.3900 C   0  0  0  0  0  0  0  0  0  0  0  0
   36.4550   25.6280   42.1650 H   0  0  0  0  0  0  0  0  0  0  0  0
   36.6780   27.4270   43.3570 C   0  0  0  0  0  0  0  0  0  0  0  0
   35.7530   27.2140   43.8850 H   0  0  0  0  0  0  0  0  0  0  0  0
   37.3860   28.5520   43.6800 C   0  0  0  0  0  3  0  0  0  0  0  0
   38.5470   28.7110   42.9350 C   0  0  0  0  0  3  0  0  0  0  0  0
   38.9630   27.8410   41.9690 N   0  0  0  0  0  0  0  0  0  0  0  0
   35.4940   28.4730   38.1600 C   0  0  0  0  0  0  0  0  0  0  0  0
   35.8950   27.1960   38.6040 C   0  0  0  0  0  0  0  0  0  0  0  0
   37.2700   27.0390   38.9110 C   0  0  0  0  0  0  0  0  0  0  0  0
   38.1020   28.1060   38.7610 N   0  0  0  0  0  0  0  0  0  0  0  0
   37.6720   29.2940   38.3380 C   0  0  0  0  0  0  0  0  0  0  0  0
   36.3660   29.4780   38.0360 N   0  0  0  0  0  0  0  0  0  0  0  0
   35.2200   26.3550   38.7180 H   0  0  0  0  0  0  0  0  0  0  0  0
   34.0450   28.6360   37.8380 C   0  0  0  0  0  0  0  0  0  0  0  0
   33.8590   29.5010   36.7790 F   0  0  0  0  0  0  0  0  0  0  0  0
   33.5030   27.3770   37.5910 F   0  0  0  0  0  0  0  0  0  0  0  0
   33.3680   29.1100   38.9560 F   0  0  0  0  0  0  0  0  0  0  0  0
   38.6130   30.4330   38.1860 C   0  0  0  0  0  0  0  0  0  0  0  0
   39.0280   30.9060   39.3990 F   0  0  0  0  0  0  0  0  0  0  0  0
   38.0180   31.4560   37.4130 F   0  0  0  0  0  0  0  0  0  0  0  0
   39.7160   30.0720   37.4590 F   0  0  0  0  0  0  0  0  0  0  0  0
  1  7  1  6  0  0  0
  1  2  1  0  0  0  0
  1  6  1  0  0  0  0
  2  3  1  0  0  0  0
  2  8  1  0  0  0  0
  3 10  1  0  0  0  0
  3  4  1  0  0  0  0
  4  5  1  0  0  0  0
  4 13  1  0  0  0  0
  4 12  1  0  0  0  0
  5 14  1  0  0  0  0
  6 16  1  6  0  0  0
  6  5  1  0  0  0  0
  6 17  1  0  0  0  0
  9  2  1  0  0  0  0
 11  3  1  0  0  0  0
 15  5  1  0  0  0  0
 17 24  2  0  0  0  0
 17 18  1  0  0  0  0
 18 20  2  0  0  0  0
 19 18  1  0  0  0  0
 20 22  1  0  0  0  0
 20 21  1  0  0  0  0
 23 22  2  0  0  0  0
 24 23  1  0  0  0  0
 25 26  1  0  0  0  0
 26 31  1  0  0  0  0
 26 27  2  0  0  0  0
 27  1  1  0  0  0  0
 28 27  1  0  0  0  0
 29 28  2  0  0  0  0
 30 25  2  0  0  0  0
 30 29  1  0  0  0  0
 32 25  1  0  0  0  0
 32 35  1  0  0  0  0
 33 32  1  0  0  0  0
 34 32  1  0  0  0  0
 36 29  1  0  0  0  0
 36 37  1  0  0  0  0
 38 36  1  0  0  0  0
 39 36  1  0  0  0  0
M  END
>  <minimizedAffinity>
-5.77747631

$$$$

 OpenBabel03252502353D

 39 41  0  0  1  0  0  0  0  0999 V2000
   37.3390   24.7970   39.3620 C   0  0  2  0  0  0  0  0  0  0  0  0
   36.3050   23.9460   40.1120 C   0  0  0  0  0  0  0  0  0  0  0  0
   36.2810   22.6260   39.3550 C   0  0  0  0  0  0  0  0  0  0  0  0
   37.6120   21.9780   39.7090 C   0  0  0  0  0  0  0  0  0  0  0  0
   38.7340   22.7750   39.1710 C   0  0  0  0  0  0  0  0  0  0  0  0
   38.7070   24.2540   39.4440 C   0  0  2  0  0  0  0  0  0  0  0  0
   37.0070   24.7680   38.2940 H   0  0  0  0  0  0  0  0  0  0  0  0
   36.6020   23.7710   41.1580 H   0  0  0  0  0  0  0  0  0  0  0  0
   35.3260   24.4120   39.9890 H   0  0  0  0  0  0  0  0  0  0  0  0
   35.5020   21.9620   39.8050 H   0  0  0  0  0  0  0  0  0  0  0  0
   36.1600   22.7860   38.2850 H   0  0  0  0  0  0  0  0  0  0  0  0
   37.6390   21.8460   40.7980 H   0  0  0  0  0  0  0  0  0  0  0  0
   37.6520   20.9750   39.2470 H   0  0  0  0  0  0  0  0  0  0  0  0
   39.6850   22.3830   39.6390 H   0  0  0  0  0  0  0  0  0  0  0  0
   38.8830   22.5730   38.0840 H   0  0  0  0  0  0  0  0  0  0  0  0
   39.2810   24.7350   38.5870 H   0  0  0  0  0  0  0  0  0  0  0  0
   39.5040   24.5650   40.6500 C   0  0  0  0  0  0  0  0  0  0  0  0
   40.6780   25.3230   40.5880 C   0  0  0  0  0  0  0  0  0  0  0  0
   40.9830   25.7360   39.6360 H   0  0  0  0  0  0  0  0  0  0  0  0
   41.3990   25.5130   41.7530 C   0  0  0  0  0  0  0  0  0  0  0  0
   42.3030   26.1070   41.6570 H   0  0  0  0  0  0  0  0  0  0  0  0
   41.0570   25.0150   42.9800 C   0  0  0  0  0  3  0  0  0  0  0  0
   39.8820   24.2740   42.9710 C   0  0  0  0  0  3  0  0  0  0  0  0
   39.1260   24.0510   41.8570 N   0  0  0  0  0  0  0  0  0  0  0  0
   37.0480   27.8570   41.5360 C   0  0  0  0  0  0  0  0  0  0  0  0
   37.2270   26.4970   41.2100 C   0  0  0  0  0  0  0  0  0  0  0  0
   37.1760   26.1680   39.8320 C   0  0  0  0  0  0  0  0  0  0  0  0
   36.9620   27.1620   38.9270 N   0  0  0  0  0  0  0  0  0  0  0  0
   36.7990   28.4340   39.2880 C   0  0  0  0  0  0  0  0  0  0  0  0
   36.8410   28.7820   40.5950 N   0  0  0  0  0  0  0  0  0  0  0  0
   37.3970   25.7160   41.9420 H   0  0  0  0  0  0  0  0  0  0  0  0
   37.1030   28.2020   42.9880 C   0  0  0  0  0  0  0  0  0  0  0  0
   35.9830   27.7500   43.6560 F   0  0  0  0  0  0  0  0  0  0  0  0
   38.2790   27.6790   43.5220 F   0  0  0  0  0  0  0  0  0  0  0  0
   37.2160   29.5790   43.1380 F   0  0  0  0  0  0  0  0  0  0  0  0
   36.5640   29.4900   38.2690 C   0  0  0  0  0  0  0  0  0  0  0  0
   37.4430   29.3860   37.2280 F   0  0  0  0  0  0  0  0  0  0  0  0
   36.6290   30.7680   38.8690 F   0  0  0  0  0  0  0  0  0  0  0  0
   35.2890   29.4240   37.7720 F   0  0  0  0  0  0  0  0  0  0  0  0
  1  7  1  6  0  0  0
  1  6  1  0  0  0  0
  1 27  1  0  0  0  0
  1  2  1  0  0  0  0
  2  8  1  0  0  0  0
  3  4  1  0  0  0  0
  3 10  1  0  0  0  0
  3  2  1  0  0  0  0
  4 12  1  0  0  0  0
  5  6  1  0  0  0  0
  5 14  1  0  0  0  0
  5  4  1  0  0  0  0
  6 16  1  6  0  0  0
  6 17  1  0  0  0  0
  9  2  1  0  0  0  0
 11  3  1  0  0  0  0
 13  4  1  0  0  0  0
 15  5  1  0  0  0  0
 17 24  1  0  0  0  0
 18 17  2  0  0  0  0
 18 20  1  0  0  0  0
 19 18  1  0  0  0  0
 20 22  2  0  0  0  0
 21 20  1  0  0  0  0
 23 22  1  0  0  0  0
 24 23  2  0  0  0  0
 25 32  1  0  0  0  0
 26 25  1  0  0  0  0
 26 31  1  0  0  0  0
 27 26  2  0  0  0  0
 28 29  2  0  0  0  0
 28 27  1  0  0  0  0
 29 30  1  0  0  0  0
 30 25  2  0  0  0  0
 32 35  1  0  0  0  0
 32 34  1  0  0  0  0
 32 33  1  0  0  0  0
 36 38  1  0  0  0  0
 36 29  1  0  0  0  0
 37 36  1  0  0  0  0
 39 36  1  0  0  0  0
M  END
>  <minimizedAffinity>
-5.67468023

$$$$
