
 OpenBabel03252509233D

 26 28  0  0  1  0  0  0  0  0999 V2000
   46.4330   34.7700   42.0480 C   0  0  1  0  0  0  0  0  0  0  0  0
   47.9060   35.2640   42.0210 C   0  0  0  0  0  0  0  0  0  0  0  0
   47.4300   33.8270   41.6950 C   0  0  2  0  0  0  0  0  0  0  0  0
   45.8010   35.2920   41.3070 H   0  0  0  0  0  0  0  0  0  0  0  0
   48.4310   35.4420   42.9500 H   0  0  0  0  0  0  0  0  0  0  0  0
   48.2200   35.8410   41.1330 H   0  0  0  0  0  0  0  0  0  0  0  0
   47.8310   33.0890   42.4210 H   0  0  0  0  0  0  0  0  0  0  0  0
   44.5080   35.6550   45.1410 C   0  0  0  0  0  0  0  0  0  0  0  0
   45.0250   35.7680   43.8120 C   0  0  0  0  0  0  0  0  0  0  0  0
   45.9070   34.7840   43.4610 C   0  0  0  0  0  0  0  0  0  0  0  0
   46.2690   33.7600   44.3380 N   0  0  0  0  0  0  0  0  0  0  0  0
   45.7460   33.7170   45.5650 C   0  0  0  0  0  0  0  0  0  0  0  0
   44.8620   34.6640   45.9740 N   0  0  0  0  0  0  0  0  0  0  0  0
   43.8040   36.4020   45.4780 H   0  0  0  0  0  0  0  0  0  0  0  0
   46.1340   32.8630   46.1030 H   0  0  0  0  0  0  0  0  0  0  0  0
   44.6750   36.8350   42.9530 N   0  0  0  0  0  0  0  0  0  0  0  0
   44.6980   37.8000   43.3960 H   0  0  0  0  0  0  0  0  0  0  0  0
   44.4140   36.7250   41.9680 H   0  0  0  0  0  0  0  0  0  0  0  0
   47.5220   33.4150   40.2580 C   0  0  0  0  0  0  0  0  0  0  0  0
   48.7540   32.9800   39.8170 C   0  0  0  0  0  0  0  0  0  0  0  0
   49.6030   32.9360   40.4580 H   0  0  0  0  0  0  0  0  0  0  0  0
   48.7970   32.6070   38.4810 C   0  0  0  0  0  0  0  0  0  0  0  0
   49.7770   32.2600   38.1280 H   0  0  0  0  0  0  0  0  0  0  0  0
   47.6800   32.6730   37.6670 C   0  0  0  0  0  3  0  0  0  0  0  0
   46.4590   33.1210   38.1680 C   0  0  0  0  0  3  0  0  0  0  0  0
   46.4310   33.4830   39.4740 N   0  0  0  0  0  0  0  0  0  0  0  0
  1  4  1  6  0  0  0
  1 10  1  0  0  0  0
  2  1  1  0  0  0  0
  2  5  1  0  0  0  0
  3  2  1  0  0  0  0
  3  1  1  0  0  0  0
  3  7  1  1  0  0  0
  6  2  1  0  0  0  0
  8 14  1  0  0  0  0
  8 13  1  0  0  0  0
  9  8  2  0  0  0  0
 10  9  1  0  0  0  0
 10 11  2  0  0  0  0
 11 12  1  0  0  0  0
 12 13  2  0  0  0  0
 12 15  1  0  0  0  0
 16 17  1  0  0  0  0
 16  9  1  0  0  0  0
 18 16  1  0  0  0  0
 19  3  1  0  0  0  0
 20 19  1  0  0  0  0
 20 21  1  0  0  0  0
 22 20  2  0  0  0  0
 23 22  1  0  0  0  0
 24 25  2  0  0  0  0
 24 22  1  0  0  0  0
 25 26  1  0  0  0  0
 26 19  2  0  0  0  0
M  END
>  <minimizedAffinity>
-4.70509958

>  <minimizedRMSD>
0.485339433

$$$$
