
 OpenBabel03252509223D

 26 28  0  0  1  0  0  0  0  0999 V2000
   46.5180   35.0290   41.9470 C   0  0  1  0  0  0  0  0  0  0  0  0
   48.0460   35.3090   41.9270 C   0  0  0  0  0  0  0  0  0  0  0  0
   47.3540   34.0420   41.3690 C   0  0  2  0  0  0  0  0  0  0  0  0
   45.9480   35.7650   41.3530 H   0  0  0  0  0  0  0  0  0  0  0  0
   48.6190   35.2310   42.8410 H   0  0  0  0  0  0  0  0  0  0  0  0
   48.4140   35.9970   41.1450 H   0  0  0  0  0  0  0  0  0  0  0  0
   47.6630   33.1300   41.9200 H   0  0  0  0  0  0  0  0  0  0  0  0
   44.6550   35.4230   45.1760 C   0  0  0  0  0  0  0  0  0  0  0  0
   45.1170   35.7240   43.8560 C   0  0  0  0  0  0  0  0  0  0  0  0
   46.0430   34.8450   43.3660 C   0  0  0  0  0  0  0  0  0  0  0  0
   46.4960   33.7510   44.1050 N   0  0  0  0  0  0  0  0  0  0  0  0
   46.0210   33.5320   45.3330 C   0  0  0  0  0  0  0  0  0  0  0  0
   45.0970   34.3670   45.8760 N   0  0  0  0  0  0  0  0  0  0  0  0
   43.9200   36.0800   45.6190 H   0  0  0  0  0  0  0  0  0  0  0  0
   46.4780   32.6480   45.7550 H   0  0  0  0  0  0  0  0  0  0  0  0
   44.6730   36.8590   43.1390 N   0  0  0  0  0  0  0  0  0  0  0  0
   44.6540   37.7650   43.6930 H   0  0  0  0  0  0  0  0  0  0  0  0
   44.3840   36.8480   42.1560 H   0  0  0  0  0  0  0  0  0  0  0  0
   47.3400   33.9040   39.8770 C   0  0  0  0  0  0  0  0  0  0  0  0
   48.3440   34.5500   39.1860 C   0  0  0  0  0  0  0  0  0  0  0  0
   49.0950   35.1210   39.6790 H   0  0  0  0  0  0  0  0  0  0  0  0
   48.2950   34.3970   37.8090 C   0  0  0  0  0  0  0  0  0  0  0  0
   49.0940   34.9110   37.2560 H   0  0  0  0  0  0  0  0  0  0  0  0
   47.3080   33.6490   37.1900 C   0  0  0  0  0  3  0  0  0  0  0  0
   46.3180   33.0170   37.9410 C   0  0  0  0  0  3  0  0  0  0  0  0
   46.3770   33.1740   39.2840 N   0  0  0  0  0  0  0  0  0  0  0  0
  1  4  1  6  0  0  0
  1 10  1  0  0  0  0
  2  1  1  0  0  0  0
  2  5  1  0  0  0  0
  3  7  1  1  0  0  0
  3  2  1  0  0  0  0
  3  1  1  0  0  0  0
  6  2  1  0  0  0  0
  8 14  1  0  0  0  0
  8 13  1  0  0  0  0
  9  8  2  0  0  0  0
 10  9  1  0  0  0  0
 10 11  2  0  0  0  0
 11 12  1  0  0  0  0
 12 15  1  0  0  0  0
 12 13  2  0  0  0  0
 16 17  1  0  0  0  0
 16  9  1  0  0  0  0
 18 16  1  0  0  0  0
 19  3  1  0  0  0  0
 20 21  1  0  0  0  0
 20 19  2  0  0  0  0
 22 20  1  0  0  0  0
 23 22  1  0  0  0  0
 24 22  2  0  0  0  0
 24 25  1  0  0  0  0
 25 26  2  0  0  0  0
 26 19  1  0  0  0  0
M  END
>  <minimizedAffinity>
-5.40142775

>  <minimizedRMSD>
0.340195775

$$$$
