
 OpenBabel03242519473D

 37 39  0  0  1  0  0  0  0  0999 V2000
   46.6920   32.8150   46.5890 C   0  0  2  0  0  0  0  0  0  0  0  0
   47.0860   32.7560   45.1650 C   0  0  1  0  0  0  0  0  0  0  0  0
   46.5960   31.4400   44.7280 O   0  0  0  0  0  0  0  0  0  0  0  0
   47.2680   30.7070   45.7380 C   0  0  0  0  0  0  0  0  0  0  0  0
   46.6240   31.3470   46.9900 C   0  0  2  0  0  0  0  0  0  0  0  0
   47.3920   33.3520   47.2460 H   0  0  0  0  0  0  0  0  0  0  0  0
   48.1880   32.6670   45.0410 H   0  0  0  0  0  0  0  0  0  0  0  0
   47.1820   29.6480   45.6810 H   0  0  0  0  0  0  0  0  0  0  0  0
   48.3250   31.0800   45.7780 H   0  0  0  0  0  0  0  0  0  0  0  0
   47.2630   31.0710   47.8570 H   0  0  0  0  0  0  0  0  0  0  0  0
   44.7200   35.2580   43.9840 C   0  0  0  0  0  0  0  0  0  0  0  0
   45.3290   35.7910   42.8410 C   0  0  0  0  0  0  0  0  0  0  0  0
   46.5880   35.2740   42.4570 C   0  0  0  0  0  0  0  0  0  0  0  0
   47.1420   34.2940   43.2040 N   0  0  0  0  0  0  0  0  0  0  0  0
   46.5230   33.8000   44.3060 C   0  0  0  0  0  0  0  0  0  0  0  0
   45.3130   34.2750   44.7010 N   0  0  0  0  0  0  0  0  0  0  0  0
   44.8240   36.5680   42.3020 H   0  0  0  0  0  0  0  0  0  0  0  0
   47.0640   35.6760   41.5810 H   0  0  0  0  0  0  0  0  0  0  0  0
   43.4770   35.7390   44.4060 O   0  0  0  0  0  0  0  0  0  0  0  0
   43.5160   36.6910   44.7820 H   0  0  0  0  0  0  0  0  0  0  0  0
   45.3650   33.3560   46.6930 O   0  0  0  0  0  0  0  0  0  0  0  0
   45.2130   33.5890   47.6550 H   0  0  0  0  0  0  0  0  0  0  0  0
   45.3440   30.9090   47.0820 O   0  0  0  0  0  0  0  0  0  0  0  0
   45.0330   29.9460   47.9990 C   0  0  0  0  0  0  0  0  0  0  0  0
   43.8740   29.7340   47.8980 H   0  0  0  0  0  0  0  0  0  0  0  0
   45.2190   30.2030   49.0020 H   0  0  0  0  0  0  0  0  0  0  0  0
   45.6070   28.5610   47.6730 C   0  0  0  0  0  0  0  0  0  0  0  0
   46.2840   28.6090   46.8120 H   0  0  0  0  0  0  0  0  0  0  0  0
   46.1480   28.2510   48.6010 H   0  0  0  0  0  0  0  0  0  0  0  0
   44.5440   27.5670   47.4210 C   0  0  0  0  0  0  0  0  0  0  0  0
   44.1230   26.4510   48.0980 C   0  0  0  0  0  0  0  0  0  0  0  0
   44.6670   26.2380   49.0000 H   0  0  0  0  0  0  0  0  0  0  0  0
   43.0950   25.6190   47.7270 C   0  0  0  0  0  0  0  0  0  0  0  0
   42.8830   24.7770   48.3680 H   0  0  0  0  0  0  0  0  0  0  0  0
   42.3870   25.8730   46.5880 C   0  0  0  0  0  0  0  0  0  0  0  0
   42.8000   26.9910   45.8990 C   0  0  0  0  0  0  0  0  0  0  0  0
   43.8080   27.7820   46.2870 N   0  0  0  0  0  0  0  0  0  0  0  0
  1 21  1  0  0  0  0
  1  5  1  0  0  0  0
  1  6  1  1  0  0  0
  2  7  1  6  0  0  0
  2  1  1  0  0  0  0
  3  2  1  0  0  0  0
  3  4  1  0  0  0  0
  4  9  1  0  0  0  0
  4  5  1  0  0  0  0
  5 23  1  0  0  0  0
  5 10  1  1  0  0  0
  8  4  1  0  0  0  0
 11 19  1  0  0  0  0
 11 16  1  0  0  0  0
 12 11  2  0  0  0  0
 13 12  1  0  0  0  0
 13 14  2  0  0  0  0
 14 15  1  0  0  0  0
 15 16  2  0  0  0  0
 15  2  1  0  0  0  0
 17 12  1  0  0  0  0
 18 13  1  0  0  0  0
 19 20  1  0  0  0  0
 21 22  1  0  0  0  0
 23 24  1  0  0  0  0
 24 26  1  0  0  0  0
 25 24  1  0  0  0  0
 27 24  1  0  0  0  0
 27 29  1  0  0  0  0
 28 27  1  0  0  0  0
 30 27  1  0  0  0  0
 30 31  1  0  0  0  0
 31 32  1  0  0  0  0
 33 31  2  0  0  0  0
 33 34  1  0  0  0  0
 35 33  1  0  0  0  0
 36 37  1  0  0  0  0
 36 35  2  0  0  0  0
 37 30  2  0  0  0  0
M  END
>  <minimizedAffinity>
-5.6312108

>  <minimizedRMSD>
1.12157905

$$$$
