
 OpenBabel03252503503D

 20 21  0  0  0  0  0  0  0  0999 V2000
   47.5920   34.9600   42.3350 C   0  0  0  0  0  0  0  0  0  0  0  0
   47.8170   33.9790   43.3130 C   0  0  0  0  0  0  0  0  0  0  0  0
   46.7610   33.6540   44.1660 C   0  0  0  0  0  0  0  0  0  0  0  0
   45.5850   34.2950   44.0060 N   0  0  0  0  0  0  0  0  0  0  0  0
   45.3910   35.2420   43.0520 C   0  0  0  0  0  0  0  0  0  0  0  0
   46.3930   35.5740   42.2170 N   0  0  0  0  0  0  0  0  0  0  0  0
   48.7670   33.5040   43.3950 H   0  0  0  0  0  0  0  0  0  0  0  0
   44.4140   35.7260   42.9730 H   0  0  0  0  0  0  0  0  0  0  0  0
   46.9250   32.6430   45.2060 C   0  0  0  0  0  0  0  0  0  0  0  0
   46.6150   32.9480   46.4920 C   0  0  0  0  0  0  0  0  0  0  0  0
   46.2510   33.9410   46.7200 H   0  0  0  0  0  0  0  0  0  0  0  0
   46.7720   31.9860   47.4770 C   0  0  0  0  0  0  0  0  0  0  0  0
   46.5140   32.2820   48.4690 H   0  0  0  0  0  0  0  0  0  0  0  0
   47.2450   30.7390   47.0910 C   0  0  0  0  0  0  0  0  0  0  0  0
   47.5570   30.4460   45.7670 C   0  0  0  0  0  0  0  0  0  0  0  0
   47.3820   31.4250   44.8580 N   0  0  0  0  0  0  0  0  0  0  0  0
   48.7440   35.2910   41.4330 C   0  0  0  0  0  0  0  0  0  0  0  0
   48.3830   35.2030   40.1020 F   0  0  0  0  0  0  0  0  0  0  0  0
   49.1970   36.5550   41.7420 F   0  0  0  0  0  0  0  0  0  0  0  0
   49.7960   34.4130   41.6990 F   0  0  0  0  0  0  0  0  0  0  0  0
  1  2  1  0  0  0  0
  2  7  1  0  0  0  0
  2  3  2  0  0  0  0
  3  9  1  0  0  0  0
  4  3  1  0  0  0  0
  5  4  2  0  0  0  0
  6  1  2  0  0  0  0
  6  5  1  0  0  0  0
  8  5  1  0  0  0  0
  9 10  1  0  0  0  0
 10 11  1  0  0  0  0
 10 12  2  0  0  0  0
 12 13  1  0  0  0  0
 14 12  1  0  0  0  0
 15 14  2  0  0  0  0
 16  9  2  0  0  0  0
 16 15  1  0  0  0  0
 17 20  1  0  0  0  0
 17 19  1  0  0  0  0
 17  1  1  0  0  0  0
 18 17  1  0  0  0  0
M  END
>  <minimizedAffinity>
-5.06331873

>  <minimizedRMSD>
0.272943437

$$$$
