
 OpenBabel03252506493D

 28 30  0  0  0  0  0  0  0  0999 V2000
   38.3470   26.7720   43.0760 C   0  0  0  0  0  0  0  0  0  0  0  0
   39.5710   26.4840   43.6780 C   0  0  0  0  0  0  0  0  0  0  0  0
   40.1980   25.2700   43.3770 C   0  0  0  0  0  0  0  0  0  0  0  0
   39.5800   24.4270   42.5080 N   0  0  0  0  0  0  0  0  0  0  0  0
   38.3920   24.7310   41.9370 C   0  0  0  0  0  0  0  0  0  0  0  0
   37.7700   25.9070   42.2200 N   0  0  0  0  0  0  0  0  0  0  0  0
   40.0700   27.1520   44.3710 H   0  0  0  0  0  0  0  0  0  0  0  0
   41.1510   25.0160   43.8290 H   0  0  0  0  0  0  0  0  0  0  0  0
   37.7370   23.8120   41.0020 C   0  0  0  0  0  0  0  0  0  0  0  0
   36.4450   24.1240   40.5800 C   0  0  0  0  0  0  0  0  0  0  0  0
   35.8900   24.9880   40.8880 H   0  0  0  0  0  0  0  0  0  0  0  0
   35.8810   23.2250   39.7030 C   0  0  0  0  0  0  0  0  0  0  0  0
   34.8800   23.3490   39.2970 H   0  0  0  0  0  0  0  0  0  0  0  0
   36.5280   22.0890   39.2580 C   0  0  0  0  0  3  0  0  0  0  0  0
   37.8200   21.8160   39.7060 C   0  0  0  0  0  3  0  0  0  0  0  0
   38.3590   22.7020   40.5620 N   0  0  0  0  0  0  0  0  0  0  0  0
   37.6120   28.3450   43.5130 S   0  0  0  0  0  0  0  0  0  0  0  0
   35.8850   29.4130   41.0420 Cl  0  0  0  0  0  0  0  0  0  0  0  0
   37.4240   30.1770   41.3850 C   0  0  0  0  0  0  0  0  0  0  0  0
   38.1060   29.6690   42.4540 C   0  0  0  0  0  0  0  0  0  0  0  0
   39.3360   30.2440   42.7650 C   0  0  0  0  0  0  0  0  0  0  0  0
   39.8210   31.2950   41.9950 C   0  0  0  0  0  0  0  0  0  0  0  0
   39.1270   31.8090   40.9100 C   0  0  0  0  0  0  0  0  0  0  0  0
   37.9010   31.2170   40.6190 C   0  0  0  0  0  0  0  0  0  0  0  0
   36.9420   31.7930   39.2640 Cl  0  0  0  0  0  0  0  0  0  0  0  0
   39.9500   29.9140   43.5900 H   0  0  0  0  0  0  0  0  0  0  0  0
   40.7830   31.7310   42.2540 H   0  0  0  0  0  0  0  0  0  0  0  0
   39.5190   32.6270   40.3210 H   0  0  0  0  0  0  0  0  0  0  0  0
  1 17  1  0  0  0  0
  1  2  1  0  0  0  0
  2  7  1  0  0  0  0
  3  2  2  0  0  0  0
  3  8  1  0  0  0  0
  4  3  1  0  0  0  0
  5  6  1  0  0  0  0
  5  4  2  0  0  0  0
  6  1  2  0  0  0  0
  9  5  1  0  0  0  0
 10 11  1  0  0  0  0
 10  9  1  0  0  0  0
 12 10  2  0  0  0  0
 13 12  1  0  0  0  0
 14 12  1  0  0  0  0
 14 15  2  0  0  0  0
 15 16  1  0  0  0  0
 16  9  2  0  0  0  0
 18 19  1  0  0  0  0
 19 20  1  0  0  0  0
 20 21  2  0  0  0  0
 20 17  1  0  0  0  0
 21 26  1  0  0  0  0
 22 27  1  0  0  0  0
 22 21  1  0  0  0  0
 23 22  2  0  0  0  0
 24 23  1  0  0  0  0
 24 19  2  0  0  0  0
 25 24  1  0  0  0  0
 28 23  1  0  0  0  0
M  END
>  <minimizedAffinity>
-5.65081358

$$$$

 OpenBabel03252506493D

 28 30  0  0  0  0  0  0  0  0999 V2000
   38.2470   26.8850   43.0210 C   0  0  0  0  0  0  0  0  0  0  0  0
   39.4420   26.5990   43.6790 C   0  0  0  0  0  0  0  0  0  0  0  0
   40.0630   25.3680   43.4400 C   0  0  0  0  0  0  0  0  0  0  0  0
   39.4670   24.5080   42.5730 N   0  0  0  0  0  0  0  0  0  0  0  0
   38.3070   24.8090   41.9460 C   0  0  0  0  0  0  0  0  0  0  0  0
   37.6910   26.0010   42.1690 N   0  0  0  0  0  0  0  0  0  0  0  0
   39.9230   27.2810   44.3720 H   0  0  0  0  0  0  0  0  0  0  0  0
   40.9930   25.1160   43.9370 H   0  0  0  0  0  0  0  0  0  0  0  0
   37.6760   23.8710   41.0140 C   0  0  0  0  0  0  0  0  0  0  0  0
   36.4070   24.1890   40.5310 C   0  0  0  0  0  0  0  0  0  0  0  0
   35.8530   25.0700   40.7890 H   0  0  0  0  0  0  0  0  0  0  0  0
   35.8650   23.2700   39.6590 C   0  0  0  0  0  0  0  0  0  0  0  0
   34.8830   23.3960   39.2090 H   0  0  0  0  0  0  0  0  0  0  0  0
   36.5110   22.1120   39.2760 C   0  0  0  0  0  3  0  0  0  0  0  0
   37.7800   21.8340   39.7850 C   0  0  0  0  0  3  0  0  0  0  0  0
   38.2970   22.7390   40.6350 N   0  0  0  0  0  0  0  0  0  0  0  0
   37.5180   28.4800   43.3810 S   0  0  0  0  0  0  0  0  0  0  0  0
   39.5450   30.7770   42.4680 Cl  0  0  0  0  0  0  0  0  0  0  0  0
   38.1160   30.4840   41.4980 C   0  0  0  0  0  0  0  0  0  0  0  0
   37.2960   29.4890   41.9490 C   0  0  0  0  0  0  0  0  0  0  0  0
   36.1460   29.2200   41.2100 C   0  0  0  0  0  0  0  0  0  0  0  0
   35.8730   29.9550   40.0630 C   0  0  0  0  0  0  0  0  0  0  0  0
   36.7070   30.9660   39.6080 C   0  0  0  0  0  0  0  0  0  0  0  0
   37.8500   31.2160   40.3630 C   0  0  0  0  0  0  0  0  0  0  0  0
   38.9730   32.4760   39.8730 Cl  0  0  0  0  0  0  0  0  0  0  0  0
   35.4350   28.4530   41.4840 H   0  0  0  0  0  0  0  0  0  0  0  0
   34.9710   29.7300   39.5000 H   0  0  0  0  0  0  0  0  0  0  0  0
   36.4810   31.5290   38.7130 H   0  0  0  0  0  0  0  0  0  0  0  0
  1 17  1  0  0  0  0
  1  2  1  0  0  0  0
  2  7  1  0  0  0  0
  3  2  2  0  0  0  0
  3  8  1  0  0  0  0
  4  3  1  0  0  0  0
  5  6  1  0  0  0  0
  5  4  2  0  0  0  0
  6  1  2  0  0  0  0
  9  5  1  0  0  0  0
 10 11  1  0  0  0  0
 10  9  2  0  0  0  0
 12 10  1  0  0  0  0
 13 12  1  0  0  0  0
 14 12  2  0  0  0  0
 14 15  1  0  0  0  0
 15 16  2  0  0  0  0
 16  9  1  0  0  0  0
 19 20  1  0  0  0  0
 19 18  1  0  0  0  0
 20 17  1  0  0  0  0
 21 26  1  0  0  0  0
 21 20  2  0  0  0  0
 22 21  1  0  0  0  0
 23 22  2  0  0  0  0
 23 24  1  0  0  0  0
 24 19  2  0  0  0  0
 25 24  1  0  0  0  0
 27 22  1  0  0  0  0
 28 23  1  0  0  0  0
M  END
>  <minimizedAffinity>
-5.57756758

$$$$

 OpenBabel03252506493D

 28 30  0  0  0  0  0  0  0  0999 V2000
   36.7330   29.0050   41.5150 C   0  0  0  0  0  0  0  0  0  0  0  0
   35.6640   28.7770   40.6500 C   0  0  0  0  0  0  0  0  0  0  0  0
   35.5250   29.5940   39.5230 C   0  0  0  0  0  0  0  0  0  0  0  0
   36.4460   30.5740   39.3250 N   0  0  0  0  0  0  0  0  0  0  0  0
   37.4760   30.7740   40.1790 C   0  0  0  0  0  0  0  0  0  0  0  0
   37.6230   29.9890   41.2800 N   0  0  0  0  0  0  0  0  0  0  0  0
   34.9260   27.9970   40.8020 H   0  0  0  0  0  0  0  0  0  0  0  0
   34.7040   29.4420   38.8300 H   0  0  0  0  0  0  0  0  0  0  0  0
   38.4600   31.8360   39.9530 C   0  0  0  0  0  0  0  0  0  0  0  0
   38.3020   33.0300   40.6560 C   0  0  0  0  0  0  0  0  0  0  0  0
   37.5130   33.2330   41.3530 H   0  0  0  0  0  0  0  0  0  0  0  0
   39.2570   33.9900   40.4030 C   0  0  0  0  0  0  0  0  0  0  0  0
   39.2510   34.9650   40.8840 H   0  0  0  0  0  0  0  0  0  0  0  0
   40.3040   33.8080   39.5210 C   0  0  0  0  0  3  0  0  0  0  0  0
   40.4220   32.5970   38.8390 C   0  0  0  0  0  3  0  0  0  0  0  0
   39.4840   31.6680   39.0960 N   0  0  0  0  0  0  0  0  0  0  0  0
   36.8380   27.9170   42.9330 S   0  0  0  0  0  0  0  0  0  0  0  0
   39.9930   27.6960   43.4040 Cl  0  0  0  0  0  0  0  0  0  0  0  0
   39.1330   26.2920   42.8070 C   0  0  0  0  0  0  0  0  0  0  0  0
   37.7890   26.4590   42.6290 C   0  0  0  0  0  0  0  0  0  0  0  0
   37.0620   25.3700   42.1550 C   0  0  0  0  0  0  0  0  0  0  0  0
   37.7120   24.1710   41.8830 C   0  0  0  0  0  0  0  0  0  0  0  0
   39.0770   24.0040   42.0630 C   0  0  0  0  0  0  0  0  0  0  0  0
   39.7810   25.1070   42.5370 C   0  0  0  0  0  0  0  0  0  0  0  0
   41.5150   25.0010   42.8010 Cl  0  0  0  0  0  0  0  0  0  0  0  0
   35.9950   25.4020   41.9820 H   0  0  0  0  0  0  0  0  0  0  0  0
   37.1270   23.3330   41.5140 H   0  0  0  0  0  0  0  0  0  0  0  0
   39.5670   23.0650   41.8470 H   0  0  0  0  0  0  0  0  0  0  0  0
  1 17  1  0  0  0  0
  2  7  1  0  0  0  0
  2  1  2  0  0  0  0
  3  2  1  0  0  0  0
  4  3  2  0  0  0  0
  4  5  1  0  0  0  0
  5  6  2  0  0  0  0
  6  1  1  0  0  0  0
  8  3  1  0  0  0  0
  9  5  1  0  0  0  0
  9 10  1  0  0  0  0
 10 11  1  0  0  0  0
 12 10  2  0  0  0  0
 12 13  1  0  0  0  0
 14 12  1  0  0  0  0
 15 16  1  0  0  0  0
 15 14  2  0  0  0  0
 16  9  2  0  0  0  0
 19 18  1  0  0  0  0
 20 19  1  0  0  0  0
 20 17  1  0  0  0  0
 21 20  2  0  0  0  0
 22 23  2  0  0  0  0
 22 21  1  0  0  0  0
 23 24  1  0  0  0  0
 24 25  1  0  0  0  0
 24 19  2  0  0  0  0
 26 21  1  0  0  0  0
 27 22  1  0  0  0  0
 28 23  1  0  0  0  0
M  END
>  <minimizedAffinity>
-5.48797274

$$$$

 OpenBabel03252506493D

 28 30  0  0  0  0  0  0  0  0999 V2000
   38.2310   31.2870   39.4810 C   0  0  0  0  0  0  0  0  0  0  0  0
   37.2790   32.2260   39.8730 C   0  0  0  0  0  0  0  0  0  0  0  0
   37.6710   33.5620   40.0120 C   0  0  0  0  0  0  0  0  0  0  0  0
   38.9680   33.8790   39.7570 N   0  0  0  0  0  0  0  0  0  0  0  0
   39.8730   32.9480   39.3770 C   0  0  0  0  0  0  0  0  0  0  0  0
   39.5060   31.6460   39.2380 N   0  0  0  0  0  0  0  0  0  0  0  0
   36.2430   31.9800   40.0780 H   0  0  0  0  0  0  0  0  0  0  0  0
   36.9540   34.3170   40.3160 H   0  0  0  0  0  0  0  0  0  0  0  0
   41.2670   33.3060   39.1060 C   0  0  0  0  0  0  0  0  0  0  0  0
   41.6440   33.4910   37.7750 C   0  0  0  0  0  0  0  0  0  0  0  0
   40.9900   33.3910   36.9320 H   0  0  0  0  0  0  0  0  0  0  0  0
   42.9660   33.8250   37.5820 C   0  0  0  0  0  0  0  0  0  0  0  0
   43.3900   33.9970   36.5950 H   0  0  0  0  0  0  0  0  0  0  0  0
   43.8720   33.9730   38.6130 C   0  0  0  0  0  3  0  0  0  0  0  0
   43.4510   33.7770   39.9290 C   0  0  0  0  0  3  0  0  0  0  0  0
   42.1580   33.4520   40.1040 N   0  0  0  0  0  0  0  0  0  0  0  0
   37.6480   29.6010   39.3260 S   0  0  0  0  0  0  0  0  0  0  0  0
   36.7750   26.5400   39.6330 Cl  0  0  0  0  0  0  0  0  0  0  0  0
   37.2590   27.4230   41.0660 C   0  0  0  0  0  0  0  0  0  0  0  0
   37.6190   28.7250   40.8590 C   0  0  0  0  0  0  0  0  0  0  0  0
   38.0110   29.4680   41.9700 C   0  0  0  0  0  0  0  0  0  0  0  0
   38.0250   28.8760   43.2280 C   0  0  0  0  0  0  0  0  0  0  0  0
   37.6590   27.5540   43.4350 C   0  0  0  0  0  0  0  0  0  0  0  0
   37.2700   26.8330   42.3100 C   0  0  0  0  0  0  0  0  0  0  0  0
   36.7880   25.1500   42.4630 Cl  0  0  0  0  0  0  0  0  0  0  0  0
   38.3140   30.5040   41.9100 H   0  0  0  0  0  0  0  0  0  0  0  0
   38.3350   29.4730   44.0820 H   0  0  0  0  0  0  0  0  0  0  0  0
   37.6750   27.1090   44.4210 H   0  0  0  0  0  0  0  0  0  0  0  0
  1  2  1  0  0  0  0
  2  3  2  0  0  0  0
  2  7  1  0  0  0  0
  3  8  1  0  0  0  0
  4  3  1  0  0  0  0
  5  4  2  0  0  0  0
  6  5  1  0  0  0  0
  6  1  2  0  0  0  0
  9  5  1  0  0  0  0
  9 16  1  0  0  0  0
 10  9  2  0  0  0  0
 11 10  1  0  0  0  0
 12 10  1  0  0  0  0
 12 14  2  0  0  0  0
 13 12  1  0  0  0  0
 14 15  1  0  0  0  0
 15 16  2  0  0  0  0
 17  1  1  0  0  0  0
 17 20  1  0  0  0  0
 18 19  1  0  0  0  0
 19 24  1  0  0  0  0
 20 19  2  0  0  0  0
 20 21  1  0  0  0  0
 21 22  2  0  0  0  0
 22 23  1  0  0  0  0
 22 27  1  0  0  0  0
 23 28  1  0  0  0  0
 24 25  1  0  0  0  0
 24 23  2  0  0  0  0
 26 21  1  0  0  0  0
M  END
>  <minimizedAffinity>
-5.42208433

$$$$

 OpenBabel03252506493D

 28 30  0  0  0  0  0  0  0  0999 V2000
   37.3300   29.5130   41.9400 C   0  0  0  0  0  0  0  0  0  0  0  0
   36.3750   30.1170   41.1220 C   0  0  0  0  0  0  0  0  0  0  0  0
   36.7210   31.2880   40.4400 C   0  0  0  0  0  0  0  0  0  0  0  0
   37.9760   31.7820   40.6070 N   0  0  0  0  0  0  0  0  0  0  0  0
   38.8840   31.1760   41.4070 C   0  0  0  0  0  0  0  0  0  0  0  0
   38.5630   30.0380   42.0770 N   0  0  0  0  0  0  0  0  0  0  0  0
   35.3730   29.7280   40.9830 H   0  0  0  0  0  0  0  0  0  0  0  0
   36.0010   31.7820   39.7950 H   0  0  0  0  0  0  0  0  0  0  0  0
   40.2330   31.7210   41.5790 C   0  0  0  0  0  0  0  0  0  0  0  0
   41.0510   31.1390   42.5480 C   0  0  0  0  0  0  0  0  0  0  0  0
   40.7680   30.3220   43.1810 H   0  0  0  0  0  0  0  0  0  0  0  0
   42.3070   31.6920   42.6640 C   0  0  0  0  0  0  0  0  0  0  0  0
   43.0420   31.3340   43.3800 H   0  0  0  0  0  0  0  0  0  0  0  0
   42.7490   32.7460   41.8890 C   0  0  0  0  0  3  0  0  0  0  0  0
   41.8960   33.2970   40.9310 C   0  0  0  0  0  3  0  0  0  0  0  0
   40.6730   32.7470   40.8280 N   0  0  0  0  0  0  0  0  0  0  0  0
   36.8090   28.0190   42.7770 S   0  0  0  0  0  0  0  0  0  0  0  0
   36.7350   25.6840   40.5940 Cl  0  0  0  0  0  0  0  0  0  0  0  0
   38.0250   25.6850   41.7790 C   0  0  0  0  0  0  0  0  0  0  0  0
   37.9920   26.7110   42.6800 C   0  0  0  0  0  0  0  0  0  0  0  0
   38.9980   26.7550   43.6430 C   0  0  0  0  0  0  0  0  0  0  0  0
   39.9830   25.7730   43.6580 C   0  0  0  0  0  0  0  0  0  0  0  0
   40.0130   24.7320   42.7420 C   0  0  0  0  0  0  0  0  0  0  0  0
   38.9970   24.7100   41.7910 C   0  0  0  0  0  0  0  0  0  0  0  0
   38.9440   23.4330   40.5850 Cl  0  0  0  0  0  0  0  0  0  0  0  0
   39.0600   27.5260   44.3980 H   0  0  0  0  0  0  0  0  0  0  0  0
   40.7590   25.8250   44.4170 H   0  0  0  0  0  0  0  0  0  0  0  0
   40.7860   23.9760   42.7680 H   0  0  0  0  0  0  0  0  0  0  0  0
  1  6  1  0  0  0  0
  1 17  1  0  0  0  0
  2  1  2  0  0  0  0
  3  4  2  0  0  0  0
  3  2  1  0  0  0  0
  4  5  1  0  0  0  0
  5  9  1  0  0  0  0
  5  6  2  0  0  0  0
  7  2  1  0  0  0  0
  8  3  1  0  0  0  0
  9 10  1  0  0  0  0
 10 12  2  0  0  0  0
 10 11  1  0  0  0  0
 12 13  1  0  0  0  0
 14 12  1  0  0  0  0
 15 14  2  0  0  0  0
 16 15  1  0  0  0  0
 16  9  2  0  0  0  0
 18 19  1  0  0  0  0
 19 24  2  0  0  0  0
 19 20  1  0  0  0  0
 20 17  1  0  0  0  0
 20 21  2  0  0  0  0
 21 22  1  0  0  0  0
 21 26  1  0  0  0  0
 22 27  1  0  0  0  0
 23 28  1  0  0  0  0
 23 22  2  0  0  0  0
 24 23  1  0  0  0  0
 25 24  1  0  0  0  0
M  END
>  <minimizedAffinity>
-5.40380669

$$$$

 OpenBabel03252506493D

 28 30  0  0  0  0  0  0  0  0999 V2000
   36.8950   28.5430   38.4230 C   0  0  0  0  0  0  0  0  0  0  0  0
   36.5350   28.5050   37.0760 C   0  0  0  0  0  0  0  0  0  0  0  0
   36.7360   29.6480   36.2950 C   0  0  0  0  0  0  0  0  0  0  0  0
   37.2750   30.7440   36.8910 N   0  0  0  0  0  0  0  0  0  0  0  0
   37.6160   30.7550   38.2000 C   0  0  0  0  0  0  0  0  0  0  0  0
   37.4270   29.6520   38.9720 N   0  0  0  0  0  0  0  0  0  0  0  0
   36.1050   27.6340   36.5950 H   0  0  0  0  0  0  0  0  0  0  0  0
   36.4660   29.6510   35.2440 H   0  0  0  0  0  0  0  0  0  0  0  0
   38.1970   31.9450   38.8280 C   0  0  0  0  0  0  0  0  0  0  0  0
   37.3230   32.8640   39.4100 C   0  0  0  0  0  0  0  0  0  0  0  0
   36.2560   32.7680   39.4330 H   0  0  0  0  0  0  0  0  0  0  0  0
   37.9250   33.9620   39.9840 C   0  0  0  0  0  0  0  0  0  0  0  0
   37.3610   34.7530   40.4710 H   0  0  0  0  0  0  0  0  0  0  0  0
   39.2920   34.1610   39.9970 C   0  0  0  0  0  3  0  0  0  0  0  0
   40.1270   33.2140   39.4020 C   0  0  0  0  0  3  0  0  0  0  0  0
   39.5270   32.1480   38.8450 N   0  0  0  0  0  0  0  0  0  0  0  0
   36.6060   27.0390   39.3510 S   0  0  0  0  0  0  0  0  0  0  0  0
   39.1510   25.3680   40.3280 Cl  0  0  0  0  0  0  0  0  0  0  0  0
   38.3390   26.4090   41.4780 C   0  0  0  0  0  0  0  0  0  0  0  0
   37.2600   27.0920   40.9910 C   0  0  0  0  0  0  0  0  0  0  0  0
   36.5810   27.9330   41.8700 C   0  0  0  0  0  0  0  0  0  0  0  0
   37.0120   28.0490   43.1860 C   0  0  0  0  0  0  0  0  0  0  0  0
   38.1070   27.3540   43.6780 C   0  0  0  0  0  0  0  0  0  0  0  0
   38.7680   26.5210   42.7820 C   0  0  0  0  0  0  0  0  0  0  0  0
   40.1680   25.5960   43.3040 Cl  0  0  0  0  0  0  0  0  0  0  0  0
   35.7170   28.5140   41.5810 H   0  0  0  0  0  0  0  0  0  0  0  0
   36.4680   28.7110   43.8570 H   0  0  0  0  0  0  0  0  0  0  0  0
   38.4290   27.4560   44.7060 H   0  0  0  0  0  0  0  0  0  0  0  0
  1  6  1  0  0  0  0
  1 17  1  0  0  0  0
  2  1  2  0  0  0  0
  3  4  2  0  0  0  0
  3  2  1  0  0  0  0
  4  5  1  0  0  0  0
  5  9  1  0  0  0  0
  5  6  2  0  0  0  0
  7  2  1  0  0  0  0
  8  3  1  0  0  0  0
  9 16  2  0  0  0  0
  9 10  1  0  0  0  0
 10 11  1  0  0  0  0
 10 12  2  0  0  0  0
 12 14  1  0  0  0  0
 12 13  1  0  0  0  0
 15 14  2  0  0  0  0
 16 15  1  0  0  0  0
 17 20  1  0  0  0  0
 18 19  1  0  0  0  0
 19 24  1  0  0  0  0
 20 19  2  0  0  0  0
 20 21  1  0  0  0  0
 21 22  2  0  0  0  0
 22 23  1  0  0  0  0
 22 27  1  0  0  0  0
 23 28  1  0  0  0  0
 24 25  1  0  0  0  0
 24 23  2  0  0  0  0
 26 21  1  0  0  0  0
M  END
>  <minimizedAffinity>
-5.34320021

$$$$

 OpenBabel03252506493D

 28 30  0  0  0  0  0  0  0  0999 V2000
   37.9800   31.5400   40.1270 C   0  0  0  0  0  0  0  0  0  0  0  0
   38.1570   32.8940   40.4080 C   0  0  0  0  0  0  0  0  0  0  0  0
   39.2370   33.5650   39.8240 C   0  0  0  0  0  0  0  0  0  0  0  0
   40.0630   32.8600   39.0060 N   0  0  0  0  0  0  0  0  0  0  0  0
   39.8680   31.5460   38.7490 C   0  0  0  0  0  0  0  0  0  0  0  0
   38.8240   30.8800   39.3110 N   0  0  0  0  0  0  0  0  0  0  0  0
   37.5020   33.4620   41.0590 H   0  0  0  0  0  0  0  0  0  0  0  0
   39.4020   34.6190   40.0220 H   0  0  0  0  0  0  0  0  0  0  0  0
   40.7680   30.8000   37.8660 C   0  0  0  0  0  0  0  0  0  0  0  0
   40.5190   29.4390   37.6840 C   0  0  0  0  0  0  0  0  0  0  0  0
   39.7170   28.8940   38.1420 H   0  0  0  0  0  0  0  0  0  0  0  0
   41.3970   28.7900   36.8440 C   0  0  0  0  0  0  0  0  0  0  0  0
   41.3160   27.7300   36.6170 H   0  0  0  0  0  0  0  0  0  0  0  0
   42.4530   29.4180   36.2160 C   0  0  0  0  0  3  0  0  0  0  0  0
   42.6650   30.7810   36.4270 C   0  0  0  0  0  3  0  0  0  0  0  0
   41.8000   31.4020   37.2490 N   0  0  0  0  0  0  0  0  0  0  0  0
   36.5750   30.7560   40.9140 S   0  0  0  0  0  0  0  0  0  0  0  0
   36.1090   28.0200   39.3270 Cl  0  0  0  0  0  0  0  0  0  0  0  0
   36.7680   27.9480   40.9480 C   0  0  0  0  0  0  0  0  0  0  0  0
   36.9400   29.1550   41.5650 C   0  0  0  0  0  0  0  0  0  0  0  0
   37.4610   29.1490   42.8570 C   0  0  0  0  0  0  0  0  0  0  0  0
   37.7840   27.9420   43.4660 C   0  0  0  0  0  0  0  0  0  0  0  0
   37.6080   26.7180   42.8370 C   0  0  0  0  0  0  0  0  0  0  0  0
   37.0850   26.7500   41.5480 C   0  0  0  0  0  0  0  0  0  0  0  0
   36.8230   25.2540   40.6630 Cl  0  0  0  0  0  0  0  0  0  0  0  0
   37.6340   30.0500   43.4280 H   0  0  0  0  0  0  0  0  0  0  0  0
   38.1900   27.9580   44.4740 H   0  0  0  0  0  0  0  0  0  0  0  0
   37.8640   25.7870   43.3260 H   0  0  0  0  0  0  0  0  0  0  0  0
  1  2  1  0  0  0  0
  1 17  1  0  0  0  0
  2  7  1  0  0  0  0
  3  8  1  0  0  0  0
  3  2  2  0  0  0  0
  4  3  1  0  0  0  0
  5  4  2  0  0  0  0
  5  6  1  0  0  0  0
  6  1  2  0  0  0  0
  9  5  1  0  0  0  0
 10  9  1  0  0  0  0
 10 11  1  0  0  0  0
 12 10  2  0  0  0  0
 13 12  1  0  0  0  0
 14 15  2  0  0  0  0
 14 12  1  0  0  0  0
 15 16  1  0  0  0  0
 16  9  2  0  0  0  0
 17 20  1  0  0  0  0
 18 19  1  0  0  0  0
 19 24  2  0  0  0  0
 19 20  1  0  0  0  0
 20 21  2  0  0  0  0
 21 26  1  0  0  0  0
 21 22  1  0  0  0  0
 22 27  1  0  0  0  0
 23 28  1  0  0  0  0
 23 22  2  0  0  0  0
 24 23  1  0  0  0  0
 25 24  1  0  0  0  0
M  END
>  <minimizedAffinity>
-5.33944416

$$$$

 OpenBabel03252506493D

 28 30  0  0  0  0  0  0  0  0999 V2000
   39.1620   28.6310   42.6850 C   0  0  0  0  0  0  0  0  0  0  0  0
   40.5390   28.5580   42.8910 C   0  0  0  0  0  0  0  0  0  0  0  0
   41.3440   29.6030   42.4250 C   0  0  0  0  0  0  0  0  0  0  0  0
   40.7400   30.6430   41.7910 N   0  0  0  0  0  0  0  0  0  0  0  0
   39.4020   30.6900   41.6040 C   0  0  0  0  0  0  0  0  0  0  0  0
   38.6060   29.6820   42.0510 N   0  0  0  0  0  0  0  0  0  0  0  0
   41.0260   27.7320   43.3960 H   0  0  0  0  0  0  0  0  0  0  0  0
   42.4190   29.5760   42.5690 H   0  0  0  0  0  0  0  0  0  0  0  0
   38.7660   31.8180   40.9180 C   0  0  0  0  0  0  0  0  0  0  0  0
   37.6440   31.5520   40.1320 C   0  0  0  0  0  0  0  0  0  0  0  0
   37.2080   30.5830   39.9900 H   0  0  0  0  0  0  0  0  0  0  0  0
   37.0890   32.6500   39.5130 C   0  0  0  0  0  0  0  0  0  0  0  0
   36.2130   32.5830   38.8720 H   0  0  0  0  0  0  0  0  0  0  0  0
   37.5880   33.9310   39.6440 C   0  0  0  0  0  3  0  0  0  0  0  0
   38.7130   34.1500   40.4400 C   0  0  0  0  0  3  0  0  0  0  0  0
   39.2440   33.0700   41.0390 N   0  0  0  0  0  0  0  0  0  0  0  0
   38.2030   27.2550   43.3120 S   0  0  0  0  0  0  0  0  0  0  0  0
   36.3390   27.6780   40.7490 Cl  0  0  0  0  0  0  0  0  0  0  0  0
   37.1040   26.1190   40.9840 C   0  0  0  0  0  0  0  0  0  0  0  0
   37.8850   26.0110   42.0990 C   0  0  0  0  0  0  0  0  0  0  0  0
   38.5140   24.7900   42.3290 C   0  0  0  0  0  0  0  0  0  0  0  0
   38.3320   23.7410   41.4350 C   0  0  0  0  0  0  0  0  0  0  0  0
   37.5370   23.8530   40.3030 C   0  0  0  0  0  0  0  0  0  0  0  0
   36.9200   25.0830   40.0970 C   0  0  0  0  0  0  0  0  0  0  0  0
   35.8920   25.3300   38.6920 Cl  0  0  0  0  0  0  0  0  0  0  0  0
   39.1510   24.6050   43.1820 H   0  0  0  0  0  0  0  0  0  0  0  0
   38.8310   22.7950   41.6310 H   0  0  0  0  0  0  0  0  0  0  0  0
   37.4060   23.0260   39.6180 H   0  0  0  0  0  0  0  0  0  0  0  0
  1  2  1  0  0  0  0
  1 17  1  0  0  0  0
  2  7  1  0  0  0  0
  3  8  1  0  0  0  0
  3  2  2  0  0  0  0
  4  3  1  0  0  0  0
  5  4  2  0  0  0  0
  5  6  1  0  0  0  0
  6  1  2  0  0  0  0
  9 16  1  0  0  0  0
  9  5  1  0  0  0  0
 10  9  2  0  0  0  0
 11 10  1  0  0  0  0
 12 14  2  0  0  0  0
 12 10  1  0  0  0  0
 13 12  1  0  0  0  0
 14 15  1  0  0  0  0
 15 16  2  0  0  0  0
 18 19  1  0  0  0  0
 19 20  1  0  0  0  0
 20 21  2  0  0  0  0
 20 17  1  0  0  0  0
 21 26  1  0  0  0  0
 22 27  1  0  0  0  0
 22 21  1  0  0  0  0
 23 22  2  0  0  0  0
 24 23  1  0  0  0  0
 24 19  2  0  0  0  0
 25 24  1  0  0  0  0
 28 23  1  0  0  0  0
M  END
>  <minimizedAffinity>
-5.26321173

$$$$

 OpenBabel03252506493D

 28 30  0  0  0  0  0  0  0  0999 V2000
   34.4190   28.9780   35.6560 C   0  0  0  0  0  0  0  0  0  0  0  0
   35.4670   28.7430   34.7670 C   0  0  0  0  0  0  0  0  0  0  0  0
   36.7810   28.8430   35.2370 C   0  0  0  0  0  0  0  0  0  0  0  0
   36.9720   29.1640   36.5440 N   0  0  0  0  0  0  0  0  0  0  0  0
   35.9380   29.3860   37.3860 C   0  0  0  0  0  0  0  0  0  0  0  0
   34.6550   29.2940   36.9440 N   0  0  0  0  0  0  0  0  0  0  0  0
   35.3220   28.4860   33.7240 H   0  0  0  0  0  0  0  0  0  0  0  0
   37.6190   28.6660   34.5700 H   0  0  0  0  0  0  0  0  0  0  0  0
   36.1590   29.7320   38.7930 C   0  0  0  0  0  0  0  0  0  0  0  0
   35.8480   28.7720   39.7560 C   0  0  0  0  0  0  0  0  0  0  0  0
   35.4560   27.7960   39.5460 H   0  0  0  0  0  0  0  0  0  0  0  0
   36.0770   29.1530   41.0590 C   0  0  0  0  0  0  0  0  0  0  0  0
   35.8770   28.5000   41.9060 H   0  0  0  0  0  0  0  0  0  0  0  0
   36.5780   30.3900   41.4130 C   0  0  0  0  0  3  0  0  0  0  0  0
   36.8760   31.3200   40.4160 C   0  0  0  0  0  3  0  0  0  0  0  0
   36.6470   30.9350   39.1480 N   0  0  0  0  0  0  0  0  0  0  0  0
   32.7700   28.8300   34.9760 S   0  0  0  0  0  0  0  0  0  0  0  0
   31.4220   29.5130   37.7950 Cl  0  0  0  0  0  0  0  0  0  0  0  0
   31.1520   30.6010   36.4490 C   0  0  0  0  0  0  0  0  0  0  0  0
   31.7580   30.2470   35.2770 C   0  0  0  0  0  0  0  0  0  0  0  0
   31.5720   31.0820   34.1780 C   0  0  0  0  0  0  0  0  0  0  0  0
   30.7930   32.2260   34.3040 C   0  0  0  0  0  0  0  0  0  0  0  0
   30.1780   32.5840   35.4950 C   0  0  0  0  0  0  0  0  0  0  0  0
   30.3790   31.7330   36.5780 C   0  0  0  0  0  0  0  0  0  0  0  0
   29.6440   32.0950   38.1330 Cl  0  0  0  0  0  0  0  0  0  0  0  0
   32.0090   30.8880   33.2080 H   0  0  0  0  0  0  0  0  0  0  0  0
   30.6600   32.8650   33.4350 H   0  0  0  0  0  0  0  0  0  0  0  0
   29.5740   33.4780   35.5760 H   0  0  0  0  0  0  0  0  0  0  0  0
  1  6  1  0  0  0  0
  2  3  1  0  0  0  0
  2  1  2  0  0  0  0
  3  4  2  0  0  0  0
  4  5  1  0  0  0  0
  5  9  1  0  0  0  0
  6  5  2  0  0  0  0
  7  2  1  0  0  0  0
  8  3  1  0  0  0  0
  9 16  2  0  0  0  0
  9 10  1  0  0  0  0
 10 12  2  0  0  0  0
 11 10  1  0  0  0  0
 12 14  1  0  0  0  0
 12 13  1  0  0  0  0
 15 14  2  0  0  0  0
 16 15  1  0  0  0  0
 17 20  1  0  0  0  0
 17  1  1  0  0  0  0
 19 24  1  0  0  0  0
 19 18  1  0  0  0  0
 20 19  2  0  0  0  0
 21 22  2  0  0  0  0
 21 20  1  0  0  0  0
 22 23  1  0  0  0  0
 23 28  1  0  0  0  0
 23 24  2  0  0  0  0
 24 25  1  0  0  0  0
 26 21  1  0  0  0  0
 27 22  1  0  0  0  0
M  END
>  <minimizedAffinity>
-5.23474503

$$$$
