
 OpenBabel03242522223D

 27 29  0  0  0  0  0  0  0  0999 V2000
   44.4580   35.8540   44.8940 C   0  0  0  0  0  0  0  0  0  0  0  0
   45.1130   35.7580   43.6500 C   0  0  0  0  0  0  0  0  0  0  0  0
   46.0350   34.7500   43.4010 C   0  0  0  0  0  0  0  0  0  0  0  0
   46.2600   33.8780   44.4160 N   0  0  0  0  0  0  0  0  0  0  0  0
   45.6310   33.9800   45.5960 C   0  0  0  0  0  0  0  0  0  0  0  0
   44.7490   34.9440   45.8330 N   0  0  0  0  0  0  0  0  0  0  0  0
   43.7400   36.6690   45.0400 H   0  0  0  0  0  0  0  0  0  0  0  0
   44.8890   36.4820   42.8840 H   0  0  0  0  0  0  0  0  0  0  0  0
   44.5530   33.0950   41.4780 Cl  0  0  0  0  0  0  0  0  0  0  0  0
   46.1000   33.8750   41.1360 C   0  0  0  0  0  0  0  0  0  0  0  0
   46.7220   34.6370   42.1130 C   0  0  0  0  0  0  0  0  0  0  0  0
   47.9200   35.2210   41.8000 C   0  0  0  0  0  0  0  0  0  0  0  0
   48.4960   35.0600   40.5530 C   0  0  0  0  0  0  0  0  0  0  0  0
   47.8300   34.2850   39.6120 C   0  0  0  0  0  0  0  0  0  0  0  0
   48.5380   34.0660   38.0260 Cl  0  0  0  0  0  0  0  0  0  0  0  0
   46.6230   33.6750   39.8710 C   0  0  0  0  0  0  0  0  0  0  0  0
   48.3970   35.8130   42.5640 H   0  0  0  0  0  0  0  0  0  0  0  0
   49.4270   35.5290   40.3490 H   0  0  0  0  0  0  0  0  0  0  0  0
   46.0940   33.0690   39.1450 H   0  0  0  0  0  0  0  0  0  0  0  0
   45.9710   32.9660   46.6090 C   0  0  0  0  0  0  0  0  0  0  0  0
   45.1720   32.8740   47.7360 C   0  0  0  0  0  0  0  0  0  0  0  0
   44.3100   33.4940   47.9320 H   0  0  0  0  0  0  0  0  0  0  0  0
   45.4970   31.9210   48.6850 C   0  0  0  0  0  0  0  0  0  0  0  0
   44.9600   31.7410   49.6100 H   0  0  0  0  0  0  0  0  0  0  0  0
   46.6020   31.1370   48.4200 C   0  0  0  0  0  0  0  0  0  0  0  0
   47.4100   31.2200   47.2950 C   0  0  0  0  0  0  0  0  0  0  0  0
   47.0390   32.1770   46.3990 N   0  0  0  0  0  0  0  0  0  0  0  0
  1  7  1  0  0  0  0
  1  6  1  0  0  0  0
  2  1  2  0  0  0  0
  3  2  1  0  0  0  0
  3  4  2  0  0  0  0
  4  5  1  0  0  0  0
  5  6  2  0  0  0  0
  5 20  1  0  0  0  0
  8  2  1  0  0  0  0
 10  9  1  0  0  0  0
 10 11  1  0  0  0  0
 11  3  1  0  0  0  0
 12 11  2  0  0  0  0
 12 17  1  0  0  0  0
 13 12  1  0  0  0  0
 14 16  1  0  0  0  0
 14 13  2  0  0  0  0
 15 14  1  0  0  0  0
 16 10  2  0  0  0  0
 18 13  1  0  0  0  0
 19 16  1  0  0  0  0
 20 21  1  0  0  0  0
 21 22  1  0  0  0  0
 21 23  2  0  0  0  0
 23 24  1  0  0  0  0
 25 23  1  0  0  0  0
 26 25  2  0  0  0  0
 27 20  2  0  0  0  0
 27 26  1  0  0  0  0
M  END
>  <minimizedAffinity>
-6.69751358

>  <minimizedRMSD>
0.352850556

$$$$
