
 OpenBabel03252509233D

 26 28  0  0  1  0  0  0  0  0999 V2000
   46.4630   34.7570   42.0340 C   0  0  1  0  0  0  0  0  0  0  0  0
   47.9300   35.2670   42.0030 C   0  0  0  0  0  0  0  0  0  0  0  0
   47.4690   33.8260   41.6760 C   0  0  2  0  0  0  0  0  0  0  0  0
   45.8230   35.2730   41.2970 H   0  0  0  0  0  0  0  0  0  0  0  0
   48.4560   35.4490   42.9310 H   0  0  0  0  0  0  0  0  0  0  0  0
   48.2350   35.8500   41.1160 H   0  0  0  0  0  0  0  0  0  0  0  0
   47.8800   33.0910   42.3990 H   0  0  0  0  0  0  0  0  0  0  0  0
   44.5320   35.6080   45.1330 C   0  0  0  0  0  0  0  0  0  0  0  0
   45.0430   35.7300   43.8020 C   0  0  0  0  0  0  0  0  0  0  0  0
   45.9420   34.7630   43.4490 C   0  0  0  0  0  0  0  0  0  0  0  0
   46.3250   33.7460   44.3250 N   0  0  0  0  0  0  0  0  0  0  0  0
   45.8080   33.6950   45.5540 C   0  0  0  0  0  0  0  0  0  0  0  0
   44.9070   34.6250   45.9650 N   0  0  0  0  0  0  0  0  0  0  0  0
   43.8150   36.3420   45.4710 H   0  0  0  0  0  0  0  0  0  0  0  0
   46.2130   32.8480   46.0920 H   0  0  0  0  0  0  0  0  0  0  0  0
   44.6700   36.7900   42.9430 N   0  0  0  0  0  0  0  0  0  0  0  0
   44.6760   37.7550   43.3860 H   0  0  0  0  0  0  0  0  0  0  0  0
   44.4070   36.6740   41.9590 H   0  0  0  0  0  0  0  0  0  0  0  0
   47.5600   33.4180   40.2380 C   0  0  0  0  0  0  0  0  0  0  0  0
   46.4000   33.4960   39.4960 C   0  0  0  0  0  0  0  0  0  0  0  0
   45.4790   33.8300   39.9170 H   0  0  0  0  0  0  0  0  0  0  0  0
   46.5280   33.1100   38.1700 C   0  0  0  0  0  0  0  0  0  0  0  0
   45.6040   33.1720   37.5790 H   0  0  0  0  0  0  0  0  0  0  0  0
   47.7340   32.6800   37.6470 C   0  0  0  0  0  3  0  0  0  0  0  0
   48.8760   32.6200   38.4450 C   0  0  0  0  0  3  0  0  0  0  0  0
   48.7370   33.0010   39.7370 N   0  0  0  0  0  0  0  0  0  0  0  0
  1  4  1  6  0  0  0
  1 10  1  0  0  0  0
  2  1  1  0  0  0  0
  2  5  1  0  0  0  0
  3  2  1  0  0  0  0
  3  1  1  0  0  0  0
  3  7  1  1  0  0  0
  6  2  1  0  0  0  0
  8 14  1  0  0  0  0
  8 13  1  0  0  0  0
  9  8  2  0  0  0  0
 10  9  1  0  0  0  0
 10 11  2  0  0  0  0
 11 12  1  0  0  0  0
 12 13  2  0  0  0  0
 12 15  1  0  0  0  0
 16 17  1  0  0  0  0
 16  9  1  0  0  0  0
 18 16  1  0  0  0  0
 19  3  1  0  0  0  0
 20 21  1  0  0  0  0
 20 19  2  0  0  0  0
 22 20  1  0  0  0  0
 23 22  1  0  0  0  0
 24 22  2  0  0  0  0
 24 25  1  0  0  0  0
 25 26  2  0  0  0  0
 26 19  1  0  0  0  0
M  END
>  <minimizedAffinity>
-4.76758575

>  <minimizedRMSD>
0.474591523

$$$$
