
 OpenBabel03252503523D

 20 21  0  0  0  0  0  0  0  0999 V2000
   36.9250   27.7310   41.6230 C   0  0  0  0  0  0  0  0  0  0  0  0
   37.2920   29.0850   41.6200 C   0  0  0  0  0  0  0  0  0  0  0  0
   37.2830   29.7620   40.3990 C   0  0  0  0  0  0  0  0  0  0  0  0
   36.9220   29.0820   39.2920 N   0  0  0  0  0  0  0  0  0  0  0  0
   36.5700   27.7710   39.3190 C   0  0  0  0  0  0  0  0  0  0  0  0
   36.5710   27.0960   40.4830 N   0  0  0  0  0  0  0  0  0  0  0  0
   37.5700   29.5740   42.5260 H   0  0  0  0  0  0  0  0  0  0  0  0
   36.2860   27.2760   38.3870 H   0  0  0  0  0  0  0  0  0  0  0  0
   37.6540   31.1710   40.3220 C   0  0  0  0  0  0  0  0  0  0  0  0
   36.9380   32.0120   39.5330 C   0  0  0  0  0  0  0  0  0  0  0  0
   36.1010   31.6160   38.9720 H   0  0  0  0  0  0  0  0  0  0  0  0
   37.2940   33.3490   39.4620 C   0  0  0  0  0  0  0  0  0  0  0  0
   36.6960   33.9620   38.8250 H   0  0  0  0  0  0  0  0  0  0  0  0
   38.3820   33.7680   40.2170 C   0  0  0  0  0  3  0  0  0  0  0  0
   39.1020   32.8900   41.0210 C   0  0  0  0  0  3  0  0  0  0  0  0
   38.7050   31.6030   41.0450 N   0  0  0  0  0  0  0  0  0  0  0  0
   36.9450   27.0290   42.9480 C   0  0  0  0  0  0  0  0  0  0  0  0
   38.1200   27.2750   43.6310 F   0  0  0  0  0  0  0  0  0  0  0  0
   35.8510   27.4370   43.6800 F   0  0  0  0  0  0  0  0  0  0  0  0
   36.7950   25.6570   42.7390 F   0  0  0  0  0  0  0  0  0  0  0  0
  1 17  1  0  0  0  0
  2  1  1  0  0  0  0
  2  7  1  0  0  0  0
  3  2  2  0  0  0  0
  4  5  2  0  0  0  0
  4  3  1  0  0  0  0
  5  6  1  0  0  0  0
  6  1  2  0  0  0  0
  8  5  1  0  0  0  0
  9  3  1  0  0  0  0
  9 16  1  0  0  0  0
 10  9  2  0  0  0  0
 11 10  1  0  0  0  0
 12 10  1  0  0  0  0
 12 14  2  0  0  0  0
 13 12  1  0  0  0  0
 14 15  1  0  0  0  0
 15 16  2  0  0  0  0
 17 18  1  0  0  0  0
 17 19  1  0  0  0  0
 20 17  1  0  0  0  0
M  END
>  <minimizedAffinity>
-4.98021412

$$$$

 OpenBabel03252503523D

 20 21  0  0  0  0  0  0  0  0999 V2000
   37.2720   26.8290   42.0000 C   0  0  0  0  0  0  0  0  0  0  0  0
   37.2760   27.7630   40.9530 C   0  0  0  0  0  0  0  0  0  0  0  0
   37.3740   29.1160   41.2850 C   0  0  0  0  0  0  0  0  0  0  0  0
   37.4590   29.4520   42.5880 N   0  0  0  0  0  0  0  0  0  0  0  0
   37.4540   28.5290   43.5850 C   0  0  0  0  0  0  0  0  0  0  0  0
   37.3610   27.2190   43.2910 N   0  0  0  0  0  0  0  0  0  0  0  0
   37.2050   27.4410   39.9390 H   0  0  0  0  0  0  0  0  0  0  0  0
   37.5260   28.8660   44.6220 H   0  0  0  0  0  0  0  0  0  0  0  0
   37.3830   30.1410   40.2470 C   0  0  0  0  0  0  0  0  0  0  0  0
   37.0970   31.4280   40.5730 C   0  0  0  0  0  0  0  0  0  0  0  0
   36.8650   31.6670   41.6030 H   0  0  0  0  0  0  0  0  0  0  0  0
   37.1060   32.3990   39.5840 C   0  0  0  0  0  0  0  0  0  0  0  0
   36.8730   33.3920   39.8990 H   0  0  0  0  0  0  0  0  0  0  0  0
   37.4140   32.0000   38.2910 C   0  0  0  0  0  3  0  0  0  0  0  0
   37.7060   30.6760   37.9780 C   0  0  0  0  0  3  0  0  0  0  0  0
   37.6790   29.7800   38.9840 N   0  0  0  0  0  0  0  0  0  0  0  0
   37.1660   25.3830   41.6150 C   0  0  0  0  0  0  0  0  0  0  0  0
   38.4130   24.8090   41.4590 F   0  0  0  0  0  0  0  0  0  0  0  0
   36.4320   24.7240   42.5760 F   0  0  0  0  0  0  0  0  0  0  0  0
   36.4440   25.2820   40.4230 F   0  0  0  0  0  0  0  0  0  0  0  0
  1  6  1  0  0  0  0
  2  3  1  0  0  0  0
  2  1  2  0  0  0  0
  3  4  2  0  0  0  0
  4  5  1  0  0  0  0
  5  8  1  0  0  0  0
  6  5  2  0  0  0  0
  7  2  1  0  0  0  0
  9 10  1  0  0  0  0
  9  3  1  0  0  0  0
 10 11  1  0  0  0  0
 12 13  1  0  0  0  0
 12 10  2  0  0  0  0
 14 12  1  0  0  0  0
 15 14  2  0  0  0  0
 15 16  1  0  0  0  0
 16  9  2  0  0  0  0
 17  1  1  0  0  0  0
 17 19  1  0  0  0  0
 18 17  1  0  0  0  0
 20 17  1  0  0  0  0
M  END
>  <minimizedAffinity>
-4.77308655

$$$$

 OpenBabel03252503523D

 20 21  0  0  0  0  0  0  0  0999 V2000
   37.2570   26.7880   42.0050 C   0  0  0  0  0  0  0  0  0  0  0  0
   37.2240   27.7740   41.0070 C   0  0  0  0  0  0  0  0  0  0  0  0
   37.3140   29.1090   41.4060 C   0  0  0  0  0  0  0  0  0  0  0  0
   37.4290   29.3800   42.7220 N   0  0  0  0  0  0  0  0  0  0  0  0
   37.4600   28.4080   43.6700 C   0  0  0  0  0  0  0  0  0  0  0  0
   37.3740   27.1130   43.3120 N   0  0  0  0  0  0  0  0  0  0  0  0
   37.1310   27.5040   39.9810 H   0  0  0  0  0  0  0  0  0  0  0  0
   37.5550   28.6920   44.7210 H   0  0  0  0  0  0  0  0  0  0  0  0
   37.2850   30.1860   40.4220 C   0  0  0  0  0  0  0  0  0  0  0  0
   37.1100   29.8900   39.1080 C   0  0  0  0  0  0  0  0  0  0  0  0
   36.9950   28.8540   38.8170 H   0  0  0  0  0  0  0  0  0  0  0  0
   37.0820   30.9160   38.1760 C   0  0  0  0  0  0  0  0  0  0  0  0
   36.9420   30.6230   37.1590 H   0  0  0  0  0  0  0  0  0  0  0  0
   37.2380   32.2140   38.6420 C   0  0  0  0  0  3  0  0  0  0  0  0
   37.4160   32.4970   39.9920 C   0  0  0  0  0  3  0  0  0  0  0  0
   37.4330   31.4550   40.8470 N   0  0  0  0  0  0  0  0  0  0  0  0
   37.1580   25.3620   41.5490 C   0  0  0  0  0  0  0  0  0  0  0  0
   38.4070   24.8150   41.3270 F   0  0  0  0  0  0  0  0  0  0  0  0
   36.4620   24.6440   42.4970 F   0  0  0  0  0  0  0  0  0  0  0  0
   36.4010   25.3120   40.3760 F   0  0  0  0  0  0  0  0  0  0  0  0
  1  6  1  0  0  0  0
  2  3  1  0  0  0  0
  2  1  2  0  0  0  0
  3  4  2  0  0  0  0
  4  5  1  0  0  0  0
  5  8  1  0  0  0  0
  6  5  2  0  0  0  0
  7  2  1  0  0  0  0
  9 16  1  0  0  0  0
  9  3  1  0  0  0  0
 10  9  2  0  0  0  0
 11 10  1  0  0  0  0
 12 14  2  0  0  0  0
 12 10  1  0  0  0  0
 13 12  1  0  0  0  0
 14 15  1  0  0  0  0
 15 16  2  0  0  0  0
 17  1  1  0  0  0  0
 17 19  1  0  0  0  0
 18 17  1  0  0  0  0
 20 17  1  0  0  0  0
M  END
>  <minimizedAffinity>
-4.75759697

$$$$

 OpenBabel03252503523D

 20 21  0  0  0  0  0  0  0  0999 V2000
   36.8030   28.4930   41.9140 C   0  0  0  0  0  0  0  0  0  0  0  0
   36.1060   28.2740   40.7160 C   0  0  0  0  0  0  0  0  0  0  0  0
   36.0160   29.3330   39.8100 C   0  0  0  0  0  0  0  0  0  0  0  0
   36.6020   30.5040   40.1320 N   0  0  0  0  0  0  0  0  0  0  0  0
   37.2720   30.6930   41.2980 C   0  0  0  0  0  0  0  0  0  0  0  0
   37.3720   29.6880   42.1880 N   0  0  0  0  0  0  0  0  0  0  0  0
   35.6610   27.3270   40.5130 H   0  0  0  0  0  0  0  0  0  0  0  0
   37.7250   31.6660   41.5000 H   0  0  0  0  0  0  0  0  0  0  0  0
   35.3050   29.1750   38.5450 C   0  0  0  0  0  0  0  0  0  0  0  0
   33.9680   28.9420   38.5520 C   0  0  0  0  0  0  0  0  0  0  0  0
   33.4540   28.8760   39.5020 H   0  0  0  0  0  0  0  0  0  0  0  0
   33.2960   28.7930   37.3490 C   0  0  0  0  0  0  0  0  0  0  0  0
   32.2470   28.6100   37.4150 H   0  0  0  0  0  0  0  0  0  0  0  0
   34.0380   28.8930   36.1790 C   0  0  0  0  0  3  0  0  0  0  0  0
   35.4080   29.1340   36.1940 C   0  0  0  0  0  3  0  0  0  0  0  0
   36.0020   29.2690   37.3970 N   0  0  0  0  0  0  0  0  0  0  0  0
   36.8830   27.3390   42.8690 C   0  0  0  0  0  0  0  0  0  0  0  0
   38.0440   27.3830   43.6170 F   0  0  0  0  0  0  0  0  0  0  0  0
   35.7690   27.3600   43.6790 F   0  0  0  0  0  0  0  0  0  0  0  0
   36.8280   26.1460   42.1460 F   0  0  0  0  0  0  0  0  0  0  0  0
  1  6  1  0  0  0  0
  1 17  1  0  0  0  0
  2  1  2  0  0  0  0
  3  4  2  0  0  0  0
  3  2  1  0  0  0  0
  4  5  1  0  0  0  0
  5  8  1  0  0  0  0
  5  6  2  0  0  0  0
  7  2  1  0  0  0  0
  9 10  1  0  0  0  0
  9  3  1  0  0  0  0
 10 11  1  0  0  0  0
 12 13  1  0  0  0  0
 12 10  2  0  0  0  0
 14 15  2  0  0  0  0
 14 12  1  0  0  0  0
 15 16  1  0  0  0  0
 16  9  2  0  0  0  0
 17 18  1  0  0  0  0
 17 19  1  0  0  0  0
 20 17  1  0  0  0  0
M  END
>  <minimizedAffinity>
-4.7429533

$$$$

 OpenBabel03252503523D

 20 21  0  0  0  0  0  0  0  0999 V2000
   37.2440   28.5480   42.1570 C   0  0  0  0  0  0  0  0  0  0  0  0
   38.4900   29.1900   42.2260 C   0  0  0  0  0  0  0  0  0  0  0  0
   38.6250   30.4240   41.5860 C   0  0  0  0  0  0  0  0  0  0  0  0
   37.5560   30.9310   40.9380 N   0  0  0  0  0  0  0  0  0  0  0  0
   36.3600   30.2900   40.8850 C   0  0  0  0  0  0  0  0  0  0  0  0
   36.2040   29.1000   41.4940 N   0  0  0  0  0  0  0  0  0  0  0  0
   39.3020   28.7440   42.7530 H   0  0  0  0  0  0  0  0  0  0  0  0
   35.5310   30.7540   40.3440 H   0  0  0  0  0  0  0  0  0  0  0  0
   39.8920   31.1470   41.6180 C   0  0  0  0  0  0  0  0  0  0  0  0
   40.8160   30.8410   42.5630 C   0  0  0  0  0  0  0  0  0  0  0  0
   40.5920   30.0610   43.2800 H   0  0  0  0  0  0  0  0  0  0  0  0
   42.0180   31.5300   42.5900 C   0  0  0  0  0  0  0  0  0  0  0  0
   42.7060   31.2470   43.3560 H   0  0  0  0  0  0  0  0  0  0  0  0
   42.2190   32.5140   41.6310 C   0  0  0  0  0  3  0  0  0  0  0  0
   41.2590   32.8130   40.6700 C   0  0  0  0  0  3  0  0  0  0  0  0
   40.1110   32.1060   40.6980 N   0  0  0  0  0  0  0  0  0  0  0  0
   37.1280   27.2240   42.8530 C   0  0  0  0  0  0  0  0  0  0  0  0
   37.0330   26.1850   41.9470 F   0  0  0  0  0  0  0  0  0  0  0  0
   38.2190   27.0640   43.6800 F   0  0  0  0  0  0  0  0  0  0  0  0
   36.0010   27.2410   43.6770 F   0  0  0  0  0  0  0  0  0  0  0  0
  1  2  1  0  0  0  0
  1 17  1  0  0  0  0
  2  7  1  0  0  0  0
  3  9  1  0  0  0  0
  3  2  2  0  0  0  0
  4  3  1  0  0  0  0
  5  4  2  0  0  0  0
  5  6  1  0  0  0  0
  6  1  2  0  0  0  0
  8  5  1  0  0  0  0
  9 10  1  0  0  0  0
 10 12  2  0  0  0  0
 10 11  1  0  0  0  0
 12 13  1  0  0  0  0
 14 12  1  0  0  0  0
 15 16  1  0  0  0  0
 15 14  2  0  0  0  0
 16  9  2  0  0  0  0
 17 20  1  0  0  0  0
 17 19  1  0  0  0  0
 18 17  1  0  0  0  0
M  END
>  <minimizedAffinity>
-4.53795004

$$$$

 OpenBabel03252503523D

 20 21  0  0  0  0  0  0  0  0999 V2000
   35.6580   29.0960   39.9020 C   0  0  0  0  0  0  0  0  0  0  0  0
   36.3870   28.0290   40.4480 C   0  0  0  0  0  0  0  0  0  0  0  0
   37.2370   28.3010   41.5220 C   0  0  0  0  0  0  0  0  0  0  0  0
   37.3110   29.5680   41.9770 N   0  0  0  0  0  0  0  0  0  0  0  0
   36.5950   30.5860   41.4310 C   0  0  0  0  0  0  0  0  0  0  0  0
   35.7690   30.3490   40.3950 N   0  0  0  0  0  0  0  0  0  0  0  0
   36.2900   27.0450   40.0490 H   0  0  0  0  0  0  0  0  0  0  0  0
   36.6990   31.5920   41.8450 H   0  0  0  0  0  0  0  0  0  0  0  0
   38.0250   27.2390   42.1390 C   0  0  0  0  0  0  0  0  0  0  0  0
   37.8200   25.9490   41.7690 C   0  0  0  0  0  0  0  0  0  0  0  0
   37.0690   25.7340   41.0190 H   0  0  0  0  0  0  0  0  0  0  0  0
   38.5700   24.9430   42.3570 C   0  0  0  0  0  0  0  0  0  0  0  0
   38.3650   23.9490   42.0270 H   0  0  0  0  0  0  0  0  0  0  0  0
   39.5110   25.3130   43.3090 C   0  0  0  0  0  3  0  0  0  0  0  0
   39.7070   26.6410   43.6740 C   0  0  0  0  0  3  0  0  0  0  0  0
   38.9450   27.5710   43.0650 N   0  0  0  0  0  0  0  0  0  0  0  0
   34.7540   28.7750   38.7490 C   0  0  0  0  0  0  0  0  0  0  0  0
   34.8650   27.4490   38.3740 F   0  0  0  0  0  0  0  0  0  0  0  0
   33.4590   29.0830   39.1050 F   0  0  0  0  0  0  0  0  0  0  0  0
   35.0790   29.6020   37.6720 F   0  0  0  0  0  0  0  0  0  0  0  0
  1  6  2  0  0  0  0
  1  2  1  0  0  0  0
  2  3  2  0  0  0  0
  3  4  1  0  0  0  0
  3  9  1  0  0  0  0
  5  8  1  0  0  0  0
  5  4  2  0  0  0  0
  6  5  1  0  0  0  0
  7  2  1  0  0  0  0
  9 16  1  0  0  0  0
 10  9  2  0  0  0  0
 10 12  1  0  0  0  0
 11 10  1  0  0  0  0
 12 14  2  0  0  0  0
 13 12  1  0  0  0  0
 14 15  1  0  0  0  0
 16 15  2  0  0  0  0
 17 19  1  0  0  0  0
 17  1  1  0  0  0  0
 18 17  1  0  0  0  0
 20 17  1  0  0  0  0
M  END
>  <minimizedAffinity>
-4.49376726

$$$$

 OpenBabel03252503523D

 20 21  0  0  0  0  0  0  0  0999 V2000
   39.9350   32.7110   40.3770 C   0  0  0  0  0  0  0  0  0  0  0  0
   39.5830   31.5160   41.0220 C   0  0  0  0  0  0  0  0  0  0  0  0
   38.2280   31.1900   41.0980 C   0  0  0  0  0  0  0  0  0  0  0  0
   37.3320   32.0360   40.5500 N   0  0  0  0  0  0  0  0  0  0  0  0
   37.6970   33.1890   39.9300 C   0  0  0  0  0  0  0  0  0  0  0  0
   38.9970   33.5250   39.8440 N   0  0  0  0  0  0  0  0  0  0  0  0
   40.3330   30.8830   41.4390 H   0  0  0  0  0  0  0  0  0  0  0  0
   36.9230   33.8330   39.5060 H   0  0  0  0  0  0  0  0  0  0  0  0
   37.7900   29.9620   41.7550 C   0  0  0  0  0  0  0  0  0  0  0  0
   38.4490   29.5190   42.8560 C   0  0  0  0  0  0  0  0  0  0  0  0
   39.2920   30.0890   43.2260 H   0  0  0  0  0  0  0  0  0  0  0  0
   38.0310   28.3530   43.4780 C   0  0  0  0  0  0  0  0  0  0  0  0
   38.5870   28.0530   44.3380 H   0  0  0  0  0  0  0  0  0  0  0  0
   36.9400   27.6880   42.9340 C   0  0  0  0  0  3  0  0  0  0  0  0
   36.2780   28.1600   41.8050 C   0  0  0  0  0  3  0  0  0  0  0  0
   36.7340   29.2990   41.2480 N   0  0  0  0  0  0  0  0  0  0  0  0
   41.3980   33.0360   40.3100 C   0  0  0  0  0  0  0  0  0  0  0  0
   41.6990   34.1610   41.0550 F   0  0  0  0  0  0  0  0  0  0  0  0
   42.1130   31.9430   40.7510 F   0  0  0  0  0  0  0  0  0  0  0  0
   41.7590   33.2380   38.9770 F   0  0  0  0  0  0  0  0  0  0  0  0
  1  2  1  0  0  0  0
  2  3  2  0  0  0  0
  2  7  1  0  0  0  0
  3  9  1  0  0  0  0
  4  3  1  0  0  0  0
  5  4  2  0  0  0  0
  6  5  1  0  0  0  0
  6  1  2  0  0  0  0
  8  5  1  0  0  0  0
  9 10  1  0  0  0  0
 10 11  1  0  0  0  0
 10 12  2  0  0  0  0
 12 13  1  0  0  0  0
 14 12  1  0  0  0  0
 15 14  2  0  0  0  0
 16  9  2  0  0  0  0
 16 15  1  0  0  0  0
 17  1  1  0  0  0  0
 17 19  1  0  0  0  0
 17 18  1  0  0  0  0
 20 17  1  0  0  0  0
M  END
>  <minimizedAffinity>
-4.43903255

$$$$

 OpenBabel03252503523D

 20 21  0  0  0  0  0  0  0  0999 V2000
   35.2610   29.0970   38.3570 C   0  0  0  0  0  0  0  0  0  0  0  0
   35.6640   28.5870   39.6010 C   0  0  0  0  0  0  0  0  0  0  0  0
   36.9590   28.8750   40.0360 C   0  0  0  0  0  0  0  0  0  0  0  0
   37.7510   29.6240   39.2420 N   0  0  0  0  0  0  0  0  0  0  0  0
   37.3380   30.1070   38.0410 C   0  0  0  0  0  0  0  0  0  0  0  0
   36.0950   29.8430   37.6000 N   0  0  0  0  0  0  0  0  0  0  0  0
   34.9970   27.9990   40.1880 H   0  0  0  0  0  0  0  0  0  0  0  0
   38.0280   30.7090   37.4440 H   0  0  0  0  0  0  0  0  0  0  0  0
   37.4450   28.3760   41.3180 C   0  0  0  0  0  0  0  0  0  0  0  0
   36.5570   27.9580   42.2560 C   0  0  0  0  0  0  0  0  0  0  0  0
   35.4990   28.0050   42.0300 H   0  0  0  0  0  0  0  0  0  0  0  0
   37.0210   27.4860   43.4730 C   0  0  0  0  0  0  0  0  0  0  0  0
   36.2770   27.1720   44.1710 H   0  0  0  0  0  0  0  0  0  0  0  0
   38.3950   27.4630   43.6730 C   0  0  0  0  0  3  0  0  0  0  0  0
   39.2890   27.8950   42.6990 C   0  0  0  0  0  3  0  0  0  0  0  0
   38.7730   28.3430   41.5380 N   0  0  0  0  0  0  0  0  0  0  0  0
   33.8650   28.7710   37.9150 C   0  0  0  0  0  0  0  0  0  0  0  0
   33.7200   27.4220   37.6550 F   0  0  0  0  0  0  0  0  0  0  0  0
   32.9860   29.1860   38.8920 F   0  0  0  0  0  0  0  0  0  0  0  0
   33.5660   29.5120   36.7690 F   0  0  0  0  0  0  0  0  0  0  0  0
  1  2  1  0  0  0  0
  2  3  2  0  0  0  0
  2  7  1  0  0  0  0
  3  9  1  0  0  0  0
  4  3  1  0  0  0  0
  5  4  2  0  0  0  0
  6  5  1  0  0  0  0
  6  1  2  0  0  0  0
  8  5  1  0  0  0  0
  9 16  2  0  0  0  0
  9 10  1  0  0  0  0
 10 12  2  0  0  0  0
 11 10  1  0  0  0  0
 12 14  1  0  0  0  0
 12 13  1  0  0  0  0
 15 14  2  0  0  0  0
 16 15  1  0  0  0  0
 17  1  1  0  0  0  0
 17 19  1  0  0  0  0
 18 17  1  0  0  0  0
 20 17  1  0  0  0  0
M  END
>  <minimizedAffinity>
-4.41562033

$$$$

 OpenBabel03252503523D

 20 21  0  0  0  0  0  0  0  0999 V2000
   38.1860   31.6110   40.1480 C   0  0  0  0  0  0  0  0  0  0  0  0
   37.7030   30.3280   40.4460 C   0  0  0  0  0  0  0  0  0  0  0  0
   38.2420   29.6670   41.5520 C   0  0  0  0  0  0  0  0  0  0  0  0
   39.1950   30.2940   42.2720 N   0  0  0  0  0  0  0  0  0  0  0  0
   39.6470   31.5370   41.9640 C   0  0  0  0  0  0  0  0  0  0  0  0
   39.1430   32.1950   40.9030 N   0  0  0  0  0  0  0  0  0  0  0  0
   36.9480   29.8790   39.8420 H   0  0  0  0  0  0  0  0  0  0  0  0
   40.4210   31.9910   42.5870 H   0  0  0  0  0  0  0  0  0  0  0  0
   37.7870   28.3300   41.9190 C   0  0  0  0  0  0  0  0  0  0  0  0
   37.0050   28.1660   43.0170 C   0  0  0  0  0  0  0  0  0  0  0  0
   36.7360   29.0370   43.6010 H   0  0  0  0  0  0  0  0  0  0  0  0
   36.5740   26.8950   43.3630 C   0  0  0  0  0  0  0  0  0  0  0  0
   35.9640   26.8270   44.2360 H   0  0  0  0  0  0  0  0  0  0  0  0
   36.9700   25.8380   42.5550 C   0  0  0  0  0  3  0  0  0  0  0  0
   37.7700   26.0270   41.4330 C   0  0  0  0  0  3  0  0  0  0  0  0
   38.1550   27.2880   41.1510 N   0  0  0  0  0  0  0  0  0  0  0  0
   37.5900   32.2970   38.9550 C   0  0  0  0  0  0  0  0  0  0  0  0
   37.0840   33.5380   39.2870 F   0  0  0  0  0  0  0  0  0  0  0  0
   38.5550   32.3990   37.9780 F   0  0  0  0  0  0  0  0  0  0  0  0
   36.5740   31.4940   38.4300 F   0  0  0  0  0  0  0  0  0  0  0  0
  1  2  2  0  0  0  0
  1  6  1  0  0  0  0
  2  3  1  0  0  0  0
  3  9  1  0  0  0  0
  3  4  2  0  0  0  0
  5  4  1  0  0  0  0
  5  8  1  0  0  0  0
  6  5  2  0  0  0  0
  7  2  1  0  0  0  0
  9 10  1  0  0  0  0
 10 12  2  0  0  0  0
 10 11  1  0  0  0  0
 12 13  1  0  0  0  0
 14 12  1  0  0  0  0
 15 14  2  0  0  0  0
 16 15  1  0  0  0  0
 16  9  2  0  0  0  0
 17 18  1  0  0  0  0
 17  1  1  0  0  0  0
 19 17  1  0  0  0  0
 20 17  1  0  0  0  0
M  END
>  <minimizedAffinity>
-4.34418249

$$$$
