
 OpenBabel03252506493D

 28 30  0  0  0  0  0  0  0  0999 V2000
   48.1520   33.7060   40.3190 C   0  0  0  0  0  0  0  0  0  0  0  0
   49.1690   32.8430   40.7230 C   0  0  0  0  0  0  0  0  0  0  0  0
   49.2590   32.4980   42.0760 C   0  0  0  0  0  0  0  0  0  0  0  0
   48.3440   33.0230   42.9340 N   0  0  0  0  0  0  0  0  0  0  0  0
   47.3660   33.8590   42.5160 C   0  0  0  0  0  0  0  0  0  0  0  0
   47.2660   34.2040   41.2040 N   0  0  0  0  0  0  0  0  0  0  0  0
   49.9010   32.4200   40.0450 H   0  0  0  0  0  0  0  0  0  0  0  0
   50.0390   31.8290   42.4230 H   0  0  0  0  0  0  0  0  0  0  0  0
   46.3880   34.4180   43.4520 C   0  0  0  0  0  0  0  0  0  0  0  0
   45.6850   35.5560   43.0560 C   0  0  0  0  0  0  0  0  0  0  0  0
   45.8050   36.0570   42.1160 H   0  0  0  0  0  0  0  0  0  0  0  0
   44.7800   36.0360   43.9770 C   0  0  0  0  0  0  0  0  0  0  0  0
   44.1670   36.9160   43.7940 H   0  0  0  0  0  0  0  0  0  0  0  0
   44.5650   35.4500   45.2080 C   0  0  0  0  0  0  0  0  0  0  0  0
   45.2910   34.3130   45.5630 C   0  0  0  0  0  0  0  0  0  0  0  0
   46.1710   33.8550   44.6550 N   0  0  0  0  0  0  0  0  0  0  0  0
   48.1060   34.0970   38.5720 S   0  0  0  0  0  0  0  0  0  0  0  0
   49.4860   31.4590   37.4060 Cl  0  0  0  0  0  0  0  0  0  0  0  0
   47.7880   31.7360   37.0740 C   0  0  0  0  0  0  0  0  0  0  0  0
   47.2670   32.8820   37.6030 C   0  0  0  0  0  0  0  0  0  0  0  0
   45.9200   33.1460   37.3660 C   0  0  0  0  0  0  0  0  0  0  0  0
   45.1640   32.2540   36.6140 C   0  0  0  0  0  0  0  0  0  0  0  0
   45.6950   31.0910   36.0770 C   0  0  0  0  0  0  0  0  0  0  0  0
   47.0430   30.8500   36.3280 C   0  0  0  0  0  0  0  0  0  0  0  0
   47.8150   29.4040   35.6940 Cl  0  0  0  0  0  0  0  0  0  0  0  0
   45.4150   34.0250   37.7410 H   0  0  0  0  0  0  0  0  0  0  0  0
   44.1140   32.4780   36.4400 H   0  0  0  0  0  0  0  0  0  0  0  0
   45.0930   30.4080   35.4940 H   0  0  0  0  0  0  0  0  0  0  0  0
  1  2  2  0  0  0  0
  1  6  1  0  0  0  0
  2  3  1  0  0  0  0
  3  8  1  0  0  0  0
  3  4  2  0  0  0  0
  5  4  1  0  0  0  0
  5  9  1  0  0  0  0
  6  5  2  0  0  0  0
  7  2  1  0  0  0  0
  9 16  1  0  0  0  0
 10  9  2  0  0  0  0
 10 12  1  0  0  0  0
 11 10  1  0  0  0  0
 12 14  2  0  0  0  0
 13 12  1  0  0  0  0
 14 15  1  0  0  0  0
 16 15  2  0  0  0  0
 17  1  1  0  0  0  0
 19 18  1  0  0  0  0
 19 20  1  0  0  0  0
 20 17  1  0  0  0  0
 21 20  2  0  0  0  0
 21 26  1  0  0  0  0
 22 21  1  0  0  0  0
 23 24  1  0  0  0  0
 23 22  2  0  0  0  0
 24 19  2  0  0  0  0
 25 24  1  0  0  0  0
 27 22  1  0  0  0  0
 28 23  1  0  0  0  0
M  END
>  <minimizedAffinity>
-4.70304155

>  <minimizedRMSD>
6.11572599

$$$$
