
 OpenBabel03252509233D

 26 28  0  0  1  0  0  0  0  0999 V2000
   46.5180   35.0290   41.9470 C   0  0  1  0  0  0  0  0  0  0  0  0
   48.0450   35.3100   41.9270 C   0  0  0  0  0  0  0  0  0  0  0  0
   47.3550   34.0420   41.3690 C   0  0  2  0  0  0  0  0  0  0  0  0
   45.9460   35.7640   41.3530 H   0  0  0  0  0  0  0  0  0  0  0  0
   48.6180   35.2330   42.8410 H   0  0  0  0  0  0  0  0  0  0  0  0
   48.4130   35.9980   41.1450 H   0  0  0  0  0  0  0  0  0  0  0  0
   47.6650   33.1310   41.9210 H   0  0  0  0  0  0  0  0  0  0  0  0
   44.6550   35.4220   45.1770 C   0  0  0  0  0  0  0  0  0  0  0  0
   45.1170   35.7230   43.8560 C   0  0  0  0  0  0  0  0  0  0  0  0
   46.0430   34.8440   43.3660 C   0  0  0  0  0  0  0  0  0  0  0  0
   46.4960   33.7500   44.1050 N   0  0  0  0  0  0  0  0  0  0  0  0
   46.0210   33.5310   45.3330 C   0  0  0  0  0  0  0  0  0  0  0  0
   45.0980   34.3660   45.8760 N   0  0  0  0  0  0  0  0  0  0  0  0
   43.9210   36.0790   45.6200 H   0  0  0  0  0  0  0  0  0  0  0  0
   46.4780   32.6470   45.7540 H   0  0  0  0  0  0  0  0  0  0  0  0
   44.6730   36.8580   43.1400 N   0  0  0  0  0  0  0  0  0  0  0  0
   44.6540   37.7640   43.6940 H   0  0  0  0  0  0  0  0  0  0  0  0
   44.3830   36.8480   42.1570 H   0  0  0  0  0  0  0  0  0  0  0  0
   47.3400   33.9040   39.8770 C   0  0  0  0  0  0  0  0  0  0  0  0
   48.3440   34.5500   39.1860 C   0  0  0  0  0  0  0  0  0  0  0  0
   49.0950   35.1210   39.6790 H   0  0  0  0  0  0  0  0  0  0  0  0
   48.2940   34.3960   37.8080 C   0  0  0  0  0  0  0  0  0  0  0  0
   49.0930   34.9110   37.2560 H   0  0  0  0  0  0  0  0  0  0  0  0
   47.3070   33.6490   37.1900 C   0  0  0  0  0  3  0  0  0  0  0  0
   46.3170   33.0180   37.9410 C   0  0  0  0  0  3  0  0  0  0  0  0
   46.3780   33.1750   39.2860 N   0  0  0  0  0  0  0  0  0  0  0  0
  1  4  1  6  0  0  0
  1 10  1  0  0  0  0
  2  1  1  0  0  0  0
  2  5  1  0  0  0  0
  3  7  1  1  0  0  0
  3  2  1  0  0  0  0
  3  1  1  0  0  0  0
  6  2  1  0  0  0  0
  8 14  1  0  0  0  0
  8 13  1  0  0  0  0
  9  8  2  0  0  0  0
 10  9  1  0  0  0  0
 10 11  2  0  0  0  0
 11 12  1  0  0  0  0
 12 15  1  0  0  0  0
 12 13  2  0  0  0  0
 16 17  1  0  0  0  0
 16  9  1  0  0  0  0
 18 16  1  0  0  0  0
 19  3  1  0  0  0  0
 20 21  1  0  0  0  0
 20 19  2  0  0  0  0
 22 20  1  0  0  0  0
 23 22  1  0  0  0  0
 24 22  2  0  0  0  0
 24 25  1  0  0  0  0
 25 26  2  0  0  0  0
 26 19  1  0  0  0  0
M  END
>  <minimizedAffinity>
-5.3982091

>  <minimizedRMSD>
0.614194572

$$$$
