
 OpenBabel03242519483D

 37 39  0  0  1  0  0  0  0  0999 V2000
   39.2280   30.9600   39.2120 C   0  0  2  0  0  0  0  0  0  0  0  0
   39.3080   32.4170   39.4520 C   0  0  1  0  0  0  0  0  0  0  0  0
   38.8250   32.5630   40.8330 O   0  0  0  0  0  0  0  0  0  0  0  0
   37.5970   31.8910   40.6160 C   0  0  0  0  0  0  0  0  0  0  0  0
   38.1360   30.5100   40.1740 C   0  0  2  0  0  0  0  0  0  0  0  0
   38.9680   30.6690   38.1840 H   0  0  0  0  0  0  0  0  0  0  0  0
   38.5520   32.9780   38.8610 H   0  0  0  0  0  0  0  0  0  0  0  0
   36.9260   31.8670   41.4410 H   0  0  0  0  0  0  0  0  0  0  0  0
   37.1500   32.3030   39.6730 H   0  0  0  0  0  0  0  0  0  0  0  0
   37.2870   29.9720   39.6970 H   0  0  0  0  0  0  0  0  0  0  0  0
   42.2410   33.8560   37.8460 C   0  0  0  0  0  0  0  0  0  0  0  0
   43.0990   34.1600   38.9110 C   0  0  0  0  0  0  0  0  0  0  0  0
   42.6640   33.8560   40.2220 C   0  0  0  0  0  0  0  0  0  0  0  0
   41.4470   33.2890   40.3870 N   0  0  0  0  0  0  0  0  0  0  0  0
   40.6420   33.0090   39.3320 C   0  0  0  0  0  0  0  0  0  0  0  0
   41.0320   33.2880   38.0600 N   0  0  0  0  0  0  0  0  0  0  0  0
   44.0480   34.6090   38.6970 H   0  0  0  0  0  0  0  0  0  0  0  0
   43.3140   34.0840   41.0460 H   0  0  0  0  0  0  0  0  0  0  0  0
   42.6250   34.1410   36.5330 O   0  0  0  0  0  0  0  0  0  0  0  0
   42.6480   35.1440   36.3240 H   0  0  0  0  0  0  0  0  0  0  0  0
   40.4560   30.3420   39.6300 O   0  0  0  0  0  0  0  0  0  0  0  0
   40.4620   29.4110   39.2580 H   0  0  0  0  0  0  0  0  0  0  0  0
   38.6490   29.8850   41.2620 O   0  0  0  0  0  0  0  0  0  0  0  0
   37.8090   29.5010   42.2680 C   0  0  0  0  0  0  0  0  0  0  0  0
   36.9660   28.8310   41.7780 H   0  0  0  0  0  0  0  0  0  0  0  0
   37.3290   30.2850   42.7780 H   0  0  0  0  0  0  0  0  0  0  0  0
   38.4300   28.5030   43.2550 C   0  0  0  0  0  0  0  0  0  0  0  0
   39.5070   28.6750   43.3620 H   0  0  0  0  0  0  0  0  0  0  0  0
   37.8900   28.6810   44.2180 H   0  0  0  0  0  0  0  0  0  0  0  0
   38.1820   27.1030   42.8560 C   0  0  0  0  0  0  0  0  0  0  0  0
   37.0580   26.4260   42.4550 C   0  0  0  0  0  0  0  0  0  0  0  0
   36.1630   27.0200   42.4180 H   0  0  0  0  0  0  0  0  0  0  0  0
   36.9940   25.1000   42.1060 C   0  0  0  0  0  0  0  0  0  0  0  0
   36.0310   24.7110   41.8100 H   0  0  0  0  0  0  0  0  0  0  0  0
   38.1200   24.3280   42.1400 C   0  0  0  0  0  3  0  0  0  0  0  0
   39.2540   24.9950   42.5410 C   0  0  0  0  0  3  0  0  0  0  0  0
   39.2840   26.2910   42.8760 N   0  0  0  0  0  0  0  0  0  0  0  0
  1  6  1  6  0  0  0
  1  2  1  0  0  0  0
  1 21  1  0  0  0  0
  1  5  1  0  0  0  0
  2  7  1  6  0  0  0
  2  3  1  0  0  0  0
  4  3  1  0  0  0  0
  4  8  1  0  0  0  0
  5 10  1  6  0  0  0
  5  4  1  0  0  0  0
  5 23  1  0  0  0  0
  9  4  1  0  0  0  0
 11 16  2  0  0  0  0
 11 12  1  0  0  0  0
 12 13  2  0  0  0  0
 13 14  1  0  0  0  0
 13 18  1  0  0  0  0
 15  2  1  0  0  0  0
 15 14  2  0  0  0  0
 16 15  1  0  0  0  0
 17 12  1  0  0  0  0
 19 11  1  0  0  0  0
 20 19  1  0  0  0  0
 22 21  1  0  0  0  0
 23 24  1  0  0  0  0
 24 26  1  0  0  0  0
 24 27  1  0  0  0  0
 25 24  1  0  0  0  0
 27 28  1  0  0  0  0
 27 29  1  0  0  0  0
 30 37  1  0  0  0  0
 30 27  1  0  0  0  0
 31 30  2  0  0  0  0
 32 31  1  0  0  0  0
 33 35  2  0  0  0  0
 33 31  1  0  0  0  0
 34 33  1  0  0  0  0
 35 36  1  0  0  0  0
 36 37  2  0  0  0  0
M  END
>  <minimizedAffinity>
-5.56475496

$$$$

 OpenBabel03242519483D

 37 39  0  0  1  0  0  0  0  0999 V2000
   37.6880   29.1170   42.2470 C   0  0  2  0  0  0  0  0  0  0  0  0
   37.1190   27.7580   42.3770 C   0  0  1  0  0  0  0  0  0  0  0  0
   36.4960   27.5210   41.0660 O   0  0  0  0  0  0  0  0  0  0  0  0
   35.6960   28.6890   41.0870 C   0  0  0  0  0  0  0  0  0  0  0  0
   36.8070   29.7600   41.1830 C   0  0  2  0  0  0  0  0  0  0  0  0
   37.6700   29.7210   43.1660 H   0  0  0  0  0  0  0  0  0  0  0  0
   36.2540   27.7340   43.0740 H   0  0  0  0  0  0  0  0  0  0  0  0
   35.0260   28.8100   40.2690 H   0  0  0  0  0  0  0  0  0  0  0  0
   35.2040   28.7430   42.0940 H   0  0  0  0  0  0  0  0  0  0  0  0
   36.3150   30.7070   41.4960 H   0  0  0  0  0  0  0  0  0  0  0  0
   38.6640   24.4640   42.2380 C   0  0  0  0  0  0  0  0  0  0  0  0
   39.7960   24.5840   43.0540 C   0  0  0  0  0  0  0  0  0  0  0  0
   40.0370   25.8300   43.6780 C   0  0  0  0  0  0  0  0  0  0  0  0
   39.1680   26.8420   43.4610 N   0  0  0  0  0  0  0  0  0  0  0  0
   38.0810   26.6910   42.6650 C   0  0  0  0  0  0  0  0  0  0  0  0
   37.8210   25.5060   42.0510 N   0  0  0  0  0  0  0  0  0  0  0  0
   40.4370   23.7330   43.1750 H   0  0  0  0  0  0  0  0  0  0  0  0
   40.9030   25.9320   44.3060 H   0  0  0  0  0  0  0  0  0  0  0  0
   38.3860   23.2540   41.5970 O   0  0  0  0  0  0  0  0  0  0  0  0
   39.0430   23.0330   40.8420 H   0  0  0  0  0  0  0  0  0  0  0  0
   39.0180   29.0260   41.7130 O   0  0  0  0  0  0  0  0  0  0  0  0
   39.4530   29.9190   41.8420 H   0  0  0  0  0  0  0  0  0  0  0  0
   37.4360   29.8300   39.9840 O   0  0  0  0  0  0  0  0  0  0  0  0
   36.7150   30.1580   38.8720 C   0  0  0  0  0  0  0  0  0  0  0  0
   35.7780   30.7810   39.2370 H   0  0  0  0  0  0  0  0  0  0  0  0
   36.3520   29.3430   38.3140 H   0  0  0  0  0  0  0  0  0  0  0  0
   37.4030   31.1830   37.9590 C   0  0  0  0  0  0  0  0  0  0  0  0
   38.1240   30.6950   37.2950 H   0  0  0  0  0  0  0  0  0  0  0  0
   36.5700   31.6540   37.3820 H   0  0  0  0  0  0  0  0  0  0  0  0
   38.0710   32.2500   38.7320 C   0  0  0  0  0  0  0  0  0  0  0  0
   37.6100   33.2270   39.5750 C   0  0  0  0  0  0  0  0  0  0  0  0
   36.5440   33.2360   39.7170 H   0  0  0  0  0  0  0  0  0  0  0  0
   38.3770   34.1570   40.2330 C   0  0  0  0  0  0  0  0  0  0  0  0
   37.8640   34.8650   40.8670 H   0  0  0  0  0  0  0  0  0  0  0  0
   39.7330   34.1610   40.0730 C   0  0  0  0  0  3  0  0  0  0  0  0
   40.2090   33.1850   39.2290 C   0  0  0  0  0  3  0  0  0  0  0  0
   39.4330   32.2910   38.6010 N   0  0  0  0  0  0  0  0  0  0  0  0
  1  2  1  0  0  0  0
  1  6  1  1  0  0  0
  2 15  1  0  0  0  0
  2  7  1  1  0  0  0
  3  4  1  0  0  0  0
  3  2  1  0  0  0  0
  4  5  1  0  0  0  0
  4  9  1  0  0  0  0
  5 10  1  1  0  0  0
  5  1  1  0  0  0  0
  8  4  1  0  0  0  0
 11 12  1  0  0  0  0
 12 17  1  0  0  0  0
 12 13  2  0  0  0  0
 13 18  1  0  0  0  0
 14 13  1  0  0  0  0
 15 14  2  0  0  0  0
 16 11  2  0  0  0  0
 16 15  1  0  0  0  0
 19 11  1  0  0  0  0
 20 19  1  0  0  0  0
 21 22  1  0  0  0  0
 21  1  1  0  0  0  0
 23  5  1  0  0  0  0
 24 25  1  0  0  0  0
 24 23  1  0  0  0  0
 26 24  1  0  0  0  0
 27 30  1  0  0  0  0
 27 24  1  0  0  0  0
 28 27  1  0  0  0  0
 29 27  1  0  0  0  0
 30 31  1  0  0  0  0
 31 32  1  0  0  0  0
 31 33  2  0  0  0  0
 33 34  1  0  0  0  0
 35 33  1  0  0  0  0
 36 35  2  0  0  0  0
 37 30  2  0  0  0  0
 37 36  1  0  0  0  0
M  END
>  <minimizedAffinity>
-5.55944633

$$$$

 OpenBabel03242519483D

 37 39  0  0  1  0  0  0  0  0999 V2000
   38.1940   29.8430   40.2390 C   0  0  2  0  0  0  0  0  0  0  0  0
   37.8640   31.1960   39.7390 C   0  0  1  0  0  0  0  0  0  0  0  0
   37.1600   31.8160   40.8710 O   0  0  0  0  0  0  0  0  0  0  0  0
   36.1900   30.7920   41.0020 C   0  0  0  0  0  0  0  0  0  0  0  0
   37.1220   29.5920   41.2910 C   0  0  2  0  0  0  0  0  0  0  0  0
   38.1720   29.0460   39.4810 H   0  0  0  0  0  0  0  0  0  0  0  0
   37.0860   31.1670   38.9450 H   0  0  0  0  0  0  0  0  0  0  0  0
   35.4320   30.9570   41.7300 H   0  0  0  0  0  0  0  0  0  0  0  0
   35.7980   30.5660   39.9750 H   0  0  0  0  0  0  0  0  0  0  0  0
   36.5190   28.6710   41.1320 H   0  0  0  0  0  0  0  0  0  0  0  0
   40.6550   32.3930   37.7330 C   0  0  0  0  0  0  0  0  0  0  0  0
   41.1410   33.4960   38.4470 C   0  0  0  0  0  0  0  0  0  0  0  0
   40.4970   33.8380   39.6590 C   0  0  0  0  0  0  0  0  0  0  0  0
   39.4490   33.0900   40.0710 N   0  0  0  0  0  0  0  0  0  0  0  0
   39.0060   32.0270   39.3540 C   0  0  0  0  0  0  0  0  0  0  0  0
   39.6040   31.6720   38.1860 N   0  0  0  0  0  0  0  0  0  0  0  0
   41.9770   34.0390   38.0530 H   0  0  0  0  0  0  0  0  0  0  0  0
   40.8610   34.6830   40.2150 H   0  0  0  0  0  0  0  0  0  0  0  0
   41.2570   32.0180   36.5280 O   0  0  0  0  0  0  0  0  0  0  0  0
   41.0850   32.6800   35.7650 H   0  0  0  0  0  0  0  0  0  0  0  0
   39.4630   29.8820   40.9110 O   0  0  0  0  0  0  0  0  0  0  0  0
   39.7610   28.9340   41.0410 H   0  0  0  0  0  0  0  0  0  0  0  0
   37.6100   29.7260   42.5490 O   0  0  0  0  0  0  0  0  0  0  0  0
   37.5140   28.6760   43.4170 C   0  0  0  0  0  0  0  0  0  0  0  0
   36.9120   29.0600   44.3600 H   0  0  0  0  0  0  0  0  0  0  0  0
   38.4290   28.2930   43.7640 H   0  0  0  0  0  0  0  0  0  0  0  0
   36.5950   27.5450   42.9330 C   0  0  0  0  0  0  0  0  0  0  0  0
   35.8240   27.3200   43.6770 H   0  0  0  0  0  0  0  0  0  0  0  0
   36.1480   27.9290   41.9830 H   0  0  0  0  0  0  0  0  0  0  0  0
   37.3530   26.3200   42.6070 C   0  0  0  0  0  0  0  0  0  0  0  0
   36.9930   25.1070   42.0760 C   0  0  0  0  0  0  0  0  0  0  0  0
   35.9480   25.0090   41.8420 H   0  0  0  0  0  0  0  0  0  0  0  0
   37.8350   24.0520   41.8240 C   0  0  0  0  0  0  0  0  0  0  0  0
   37.3990   23.1600   41.4010 H   0  0  0  0  0  0  0  0  0  0  0  0
   39.1660   24.1570   42.1080 C   0  0  0  0  0  3  0  0  0  0  0  0
   39.5400   25.3690   42.6420 C   0  0  0  0  0  3  0  0  0  0  0  0
   38.6940   26.3800   42.8760 N   0  0  0  0  0  0  0  0  0  0  0  0
  1  6  1  6  0  0  0
  1 21  1  0  0  0  0
  1  5  1  0  0  0  0
  2  7  1  6  0  0  0
  2  1  1  0  0  0  0
  2  3  1  0  0  0  0
  3  4  1  0  0  0  0
  4  5  1  0  0  0  0
  4  8  1  0  0  0  0
  5 10  1  6  0  0  0
  5 23  1  0  0  0  0
  9  4  1  0  0  0  0
 11 16  2  0  0  0  0
 11 12  1  0  0  0  0
 12 13  2  0  0  0  0
 13 14  1  0  0  0  0
 13 18  1  0  0  0  0
 15  2  1  0  0  0  0
 15 14  2  0  0  0  0
 16 15  1  0  0  0  0
 17 12  1  0  0  0  0
 19 11  1  0  0  0  0
 20 19  1  0  0  0  0
 21 22  1  0  0  0  0
 23 24  1  0  0  0  0
 24 26  1  0  0  0  0
 24 25  1  0  0  0  0
 27 24  1  0  0  0  0
 27 28  1  0  0  0  0
 29 27  1  0  0  0  0
 30 37  1  0  0  0  0
 30 27  1  0  0  0  0
 31 30  2  0  0  0  0
 32 31  1  0  0  0  0
 33 31  1  0  0  0  0
 33 35  2  0  0  0  0
 34 33  1  0  0  0  0
 35 36  1  0  0  0  0
 36 37  2  0  0  0  0
M  END
>  <minimizedAffinity>
-5.55223322

$$$$

 OpenBabel03242519483D

 37 39  0  0  1  0  0  0  0  0999 V2000
   36.2230   28.4600   41.6550 C   0  0  2  0  0  0  0  0  0  0  0  0
   37.2440   29.5160   41.8340 C   0  0  1  0  0  0  0  0  0  0  0  0
   38.4470   28.7660   42.2220 O   0  0  0  0  0  0  0  0  0  0  0  0
   37.8400   28.0970   43.3130 C   0  0  0  0  0  0  0  0  0  0  0  0
   36.7210   27.3410   42.5600 C   0  0  2  0  0  0  0  0  0  0  0  0
   35.1990   28.7460   41.9390 H   0  0  0  0  0  0  0  0  0  0  0  0
   37.0390   30.1440   42.7290 H   0  0  0  0  0  0  0  0  0  0  0  0
   38.4820   27.4810   43.8980 H   0  0  0  0  0  0  0  0  0  0  0  0
   37.2750   28.8630   43.9060 H   0  0  0  0  0  0  0  0  0  0  0  0
   35.9900   27.0010   43.3270 H   0  0  0  0  0  0  0  0  0  0  0  0
   37.2770   32.4370   39.6630 C   0  0  0  0  0  0  0  0  0  0  0  0
   38.0030   32.0200   38.5400 C   0  0  0  0  0  0  0  0  0  0  0  0
   38.4930   30.6930   38.5210 C   0  0  0  0  0  0  0  0  0  0  0  0
   38.2380   29.8920   39.5800 N   0  0  0  0  0  0  0  0  0  0  0  0
   37.5300   30.3300   40.6510 C   0  0  0  0  0  0  0  0  0  0  0  0
   37.0460   31.5990   40.6990 N   0  0  0  0  0  0  0  0  0  0  0  0
   38.1630   32.7150   37.7400 H   0  0  0  0  0  0  0  0  0  0  0  0
   39.0510   30.3620   37.6650 H   0  0  0  0  0  0  0  0  0  0  0  0
   36.7760   33.7400   39.7290 O   0  0  0  0  0  0  0  0  0  0  0  0
   37.5050   34.4510   39.8460 H   0  0  0  0  0  0  0  0  0  0  0  0
   36.2700   27.9790   40.3020 O   0  0  0  0  0  0  0  0  0  0  0  0
   35.4400   27.4380   40.1500 H   0  0  0  0  0  0  0  0  0  0  0  0
   37.2890   26.3350   41.8500 O   0  0  0  0  0  0  0  0  0  0  0  0
   37.0100   25.0410   42.1860 C   0  0  0  0  0  0  0  0  0  0  0  0
   36.0450   24.7270   41.5790 H   0  0  0  0  0  0  0  0  0  0  0  0
   36.8080   24.8740   43.2040 H   0  0  0  0  0  0  0  0  0  0  0  0
   38.0270   24.0220   41.6540 C   0  0  0  0  0  0  0  0  0  0  0  0
   37.9010   23.0500   42.1420 H   0  0  0  0  0  0  0  0  0  0  0  0
   37.8200   23.9590   40.5570 H   0  0  0  0  0  0  0  0  0  0  0  0
   39.4180   24.4920   41.8200 C   0  0  0  0  0  0  0  0  0  0  0  0
   40.2160   24.6930   42.9170 C   0  0  0  0  0  0  0  0  0  0  0  0
   39.7520   24.4690   43.8600 H   0  0  0  0  0  0  0  0  0  0  0  0
   41.5150   25.1370   42.9020 C   0  0  0  0  0  0  0  0  0  0  0  0
   42.0130   25.2440   43.8540 H   0  0  0  0  0  0  0  0  0  0  0  0
   42.1270   25.4220   41.7150 C   0  0  0  0  0  3  0  0  0  0  0  0
   41.3370   25.2240   40.6070 C   0  0  0  0  0  3  0  0  0  0  0  0
   40.0710   24.7900   40.6540 N   0  0  0  0  0  0  0  0  0  0  0  0
  1  2  1  0  0  0  0
  1  6  1  1  0  0  0
  1  5  1  0  0  0  0
  2  3  1  0  0  0  0
  2  7  1  1  0  0  0
  3  4  1  0  0  0  0
  4  8  1  0  0  0  0
  4  9  1  0  0  0  0
  5  4  1  0  0  0  0
  5 10  1  1  0  0  0
 11 19  1  0  0  0  0
 11 16  1  0  0  0  0
 12 11  2  0  0  0  0
 13 12  1  0  0  0  0
 13 14  2  0  0  0  0
 14 15  1  0  0  0  0
 15 16  2  0  0  0  0
 15  2  1  0  0  0  0
 17 12  1  0  0  0  0
 18 13  1  0  0  0  0
 19 20  1  0  0  0  0
 21  1  1  0  0  0  0
 22 21  1  0  0  0  0
 23 24  1  0  0  0  0
 23  5  1  0  0  0  0
 24 26  1  0  0  0  0
 25 24  1  0  0  0  0
 27 30  1  0  0  0  0
 27 28  1  0  0  0  0
 27 24  1  0  0  0  0
 29 27  1  0  0  0  0
 30 31  1  0  0  0  0
 31 32  1  0  0  0  0
 33 31  2  0  0  0  0
 33 34  1  0  0  0  0
 35 33  1  0  0  0  0
 36 37  1  0  0  0  0
 36 35  2  0  0  0  0
 37 30  2  0  0  0  0
M  END
>  <minimizedAffinity>
-5.37827969

$$$$

 OpenBabel03242519483D

 37 39  0  0  1  0  0  0  0  0999 V2000
   36.4960   29.0300   41.4880 C   0  0  2  0  0  0  0  0  0  0  0  0
   37.5480   28.1710   40.9020 C   0  0  1  0  0  0  0  0  0  0  0  0
   38.3750   29.1160   40.1370 O   0  0  0  0  0  0  0  0  0  0  0  0
   37.3040   29.6410   39.3730 C   0  0  0  0  0  0  0  0  0  0  0  0
   36.4250   30.2000   40.5160 C   0  0  2  0  0  0  0  0  0  0  0  0
   35.5070   28.5590   41.5840 H   0  0  0  0  0  0  0  0  0  0  0  0
   37.1430   27.4970   40.1150 H   0  0  0  0  0  0  0  0  0  0  0  0
   37.5680   30.3480   38.6240 H   0  0  0  0  0  0  0  0  0  0  0  0
   36.7030   28.7730   38.9930 H   0  0  0  0  0  0  0  0  0  0  0  0
   35.4160   30.3870   40.0850 H   0  0  0  0  0  0  0  0  0  0  0  0
   38.9320   25.3430   42.7290 C   0  0  0  0  0  0  0  0  0  0  0  0
   39.8950   25.9170   43.5690 C   0  0  0  0  0  0  0  0  0  0  0  0
   40.0730   27.3190   43.5140 C   0  0  0  0  0  0  0  0  0  0  0  0
   39.3100   28.0370   42.6600 N   0  0  0  0  0  0  0  0  0  0  0  0
   38.3860   27.4470   41.8610 C   0  0  0  0  0  0  0  0  0  0  0  0
   38.1900   26.1030   41.8900 N   0  0  0  0  0  0  0  0  0  0  0  0
   40.4600   25.2790   44.2180 H   0  0  0  0  0  0  0  0  0  0  0  0
   40.8090   27.7700   44.1540 H   0  0  0  0  0  0  0  0  0  0  0  0
   38.7220   23.9610   42.7450 O   0  0  0  0  0  0  0  0  0  0  0  0
   39.4980   23.4270   42.3420 H   0  0  0  0  0  0  0  0  0  0  0  0
   36.9510   29.5410   42.7520 O   0  0  0  0  0  0  0  0  0  0  0  0
   36.1540   29.9280   43.2210 H   0  0  0  0  0  0  0  0  0  0  0  0
   37.0280   31.3070   41.0150 O   0  0  0  0  0  0  0  0  0  0  0  0
   37.2990   32.3530   40.1800 C   0  0  0  0  0  0  0  0  0  0  0  0
   36.4670   33.1720   40.3700 H   0  0  0  0  0  0  0  0  0  0  0  0
   37.2850   32.1250   39.1530 H   0  0  0  0  0  0  0  0  0  0  0  0
   38.5650   33.1390   40.5500 C   0  0  0  0  0  0  0  0  0  0  0  0
   38.3260   34.1840   40.7760 H   0  0  0  0  0  0  0  0  0  0  0  0
   38.9770   32.6100   41.4450 H   0  0  0  0  0  0  0  0  0  0  0  0
   39.5860   33.0760   39.4840 C   0  0  0  0  0  0  0  0  0  0  0  0
   39.7840   32.2300   38.4230 C   0  0  0  0  0  0  0  0  0  0  0  0
   39.0560   31.4440   38.3300 H   0  0  0  0  0  0  0  0  0  0  0  0
   40.7980   32.3110   37.5010 C   0  0  0  0  0  0  0  0  0  0  0  0
   40.8180   31.5680   36.7180 H   0  0  0  0  0  0  0  0  0  0  0  0
   41.7290   33.3060   37.5950 C   0  0  0  0  0  3  0  0  0  0  0  0
   41.5420   34.1610   38.6560 C   0  0  0  0  0  3  0  0  0  0  0  0
   40.5410   34.0540   39.5400 N   0  0  0  0  0  0  0  0  0  0  0  0
  1  6  1  1  0  0  0
  1 21  1  0  0  0  0
  2  7  1  6  0  0  0
  2  1  1  0  0  0  0
  2 15  1  0  0  0  0
  3  2  1  0  0  0  0
  4  3  1  0  0  0  0
  4  5  1  0  0  0  0
  5 10  1  6  0  0  0
  5 23  1  0  0  0  0
  5  1  1  0  0  0  0
  8  4  1  0  0  0  0
  9  4  1  0  0  0  0
 11 19  1  0  0  0  0
 11 12  1  0  0  0  0
 12 17  1  0  0  0  0
 13 12  2  0  0  0  0
 13 18  1  0  0  0  0
 14 13  1  0  0  0  0
 15 16  1  0  0  0  0
 15 14  2  0  0  0  0
 16 11  2  0  0  0  0
 20 19  1  0  0  0  0
 21 22  1  0  0  0  0
 24 25  1  0  0  0  0
 24 27  1  0  0  0  0
 24 23  1  0  0  0  0
 26 24  1  0  0  0  0
 27 28  1  0  0  0  0
 27 29  1  0  0  0  0
 30 37  1  0  0  0  0
 30 27  1  0  0  0  0
 31 30  2  0  0  0  0
 32 31  1  0  0  0  0
 33 35  2  0  0  0  0
 33 31  1  0  0  0  0
 34 33  1  0  0  0  0
 35 36  1  0  0  0  0
 36 37  2  0  0  0  0
M  END
>  <minimizedAffinity>
-5.37217522

$$$$

 OpenBabel03242519483D

 37 39  0  0  1  0  0  0  0  0999 V2000
   37.6470   27.2070   38.3380 C   0  0  2  0  0  0  0  0  0  0  0  0
   36.6540   28.1750   37.8210 C   0  0  1  0  0  0  0  0  0  0  0  0
   35.3680   27.6090   38.2520 O   0  0  0  0  0  0  0  0  0  0  0  0
   35.5770   26.3390   37.6590 C   0  0  0  0  0  0  0  0  0  0  0  0
   36.8530   25.9090   38.4190 C   0  0  2  0  0  0  0  0  0  0  0  0
   38.5360   27.0660   37.7060 H   0  0  0  0  0  0  0  0  0  0  0  0
   36.5840   28.1450   36.7120 H   0  0  0  0  0  0  0  0  0  0  0  0
   34.7640   25.6550   37.7240 H   0  0  0  0  0  0  0  0  0  0  0  0
   35.9480   26.5120   36.6150 H   0  0  0  0  0  0  0  0  0  0  0  0
   37.2930   25.0590   37.8530 H   0  0  0  0  0  0  0  0  0  0  0  0
   36.3140   30.9890   40.1050 C   0  0  0  0  0  0  0  0  0  0  0  0
   36.9580   32.0440   39.4450 C   0  0  0  0  0  0  0  0  0  0  0  0
   37.5210   31.7870   38.1730 C   0  0  0  0  0  0  0  0  0  0  0  0
   37.4130   30.5430   37.6550 N   0  0  0  0  0  0  0  0  0  0  0  0
   36.7820   29.5450   38.3230 C   0  0  0  0  0  0  0  0  0  0  0  0
   36.2300   29.7600   39.5460 N   0  0  0  0  0  0  0  0  0  0  0  0
   37.0010   33.0020   39.9230 H   0  0  0  0  0  0  0  0  0  0  0  0
   38.0160   32.5890   37.6580 H   0  0  0  0  0  0  0  0  0  0  0  0
   35.7460   31.1940   41.3660 O   0  0  0  0  0  0  0  0  0  0  0  0
   36.4390   31.3310   42.1070 H   0  0  0  0  0  0  0  0  0  0  0  0
   38.0160   27.5750   39.6760 O   0  0  0  0  0  0  0  0  0  0  0  0
   38.8350   27.0480   39.9150 H   0  0  0  0  0  0  0  0  0  0  0  0
   36.5090   25.6080   39.6950 O   0  0  0  0  0  0  0  0  0  0  0  0
   36.9650   24.4490   40.2530 C   0  0  0  0  0  0  0  0  0  0  0  0
   38.1330   24.4120   40.0680 H   0  0  0  0  0  0  0  0  0  0  0  0
   36.5570   23.5650   39.8550 H   0  0  0  0  0  0  0  0  0  0  0  0
   36.9180   24.4310   41.7870 C   0  0  0  0  0  0  0  0  0  0  0  0
   35.9160   24.1710   42.1460 H   0  0  0  0  0  0  0  0  0  0  0  0
   37.6710   23.6610   42.0870 H   0  0  0  0  0  0  0  0  0  0  0  0
   37.3410   25.7210   42.3680 C   0  0  0  0  0  0  0  0  0  0  0  0
   36.6550   26.7680   42.9300 C   0  0  0  0  0  0  0  0  0  0  0  0
   35.5880   26.6430   42.9630 H   0  0  0  0  0  0  0  0  0  0  0  0
   37.2070   27.9170   43.4390 C   0  0  0  0  0  0  0  0  0  0  0  0
   36.5310   28.6520   43.8500 H   0  0  0  0  0  0  0  0  0  0  0  0
   38.5600   28.0950   43.4130 C   0  0  0  0  0  3  0  0  0  0  0  0
   39.2600   27.0520   42.8510 C   0  0  0  0  0  3  0  0  0  0  0  0
   38.6920   25.9430   42.3630 N   0  0  0  0  0  0  0  0  0  0  0  0
  1  6  1  6  0  0  0
  1  5  1  0  0  0  0
  1 21  1  0  0  0  0
  2  7  1  6  0  0  0
  2  3  1  0  0  0  0
  2 15  1  0  0  0  0
  2  1  1  0  0  0  0
  4  8  1  0  0  0  0
  4  3  1  0  0  0  0
  4  5  1  0  0  0  0
  5 10  1  6  0  0  0
  5 23  1  0  0  0  0
  9  4  1  0  0  0  0
 11 19  1  0  0  0  0
 12 17  1  0  0  0  0
 12 11  2  0  0  0  0
 13 12  1  0  0  0  0
 14 13  2  0  0  0  0
 14 15  1  0  0  0  0
 15 16  2  0  0  0  0
 16 11  1  0  0  0  0
 18 13  1  0  0  0  0
 19 20  1  0  0  0  0
 21 22  1  0  0  0  0
 23 24  1  0  0  0  0
 24 27  1  0  0  0  0
 25 24  1  0  0  0  0
 26 24  1  0  0  0  0
 27 29  1  0  0  0  0
 27 28  1  0  0  0  0
 27 30  1  0  0  0  0
 30 31  1  0  0  0  0
 31 32  1  0  0  0  0
 31 33  2  0  0  0  0
 33 34  1  0  0  0  0
 35 33  1  0  0  0  0
 36 35  2  0  0  0  0
 37 30  2  0  0  0  0
 37 36  1  0  0  0  0
M  END
>  <minimizedAffinity>
-5.3193593

$$$$

 OpenBabel03242519483D

 37 39  0  0  1  0  0  0  0  0999 V2000
   37.9890   25.4080   39.4680 C   0  0  2  0  0  0  0  0  0  0  0  0
   36.7100   26.0300   39.8760 C   0  0  1  0  0  0  0  0  0  0  0  0
   36.7660   25.9950   41.3450 O   0  0  0  0  0  0  0  0  0  0  0  0
   37.0010   24.6010   41.4360 C   0  0  0  0  0  0  0  0  0  0  0  0
   38.3320   24.5140   40.6530 C   0  0  2  0  0  0  0  0  0  0  0  0
   37.9450   24.8100   38.5460 H   0  0  0  0  0  0  0  0  0  0  0  0
   35.8390   25.3790   39.6420 H   0  0  0  0  0  0  0  0  0  0  0  0
   37.0320   24.1970   42.4200 H   0  0  0  0  0  0  0  0  0  0  0  0
   36.2710   24.0910   40.7530 H   0  0  0  0  0  0  0  0  0  0  0  0
   38.4860   23.4420   40.3990 H   0  0  0  0  0  0  0  0  0  0  0  0
   35.8780   29.5680   40.0730 C   0  0  0  0  0  0  0  0  0  0  0  0
   36.0890   30.0410   38.7720 C   0  0  0  0  0  0  0  0  0  0  0  0
   36.5250   29.1190   37.7920 C   0  0  0  0  0  0  0  0  0  0  0  0
   36.7150   27.8300   38.1530 N   0  0  0  0  0  0  0  0  0  0  0  0
   36.5000   27.4060   39.4230 C   0  0  0  0  0  0  0  0  0  0  0  0
   36.0800   28.2680   40.3870 N   0  0  0  0  0  0  0  0  0  0  0  0
   35.9160   31.0790   38.5650 H   0  0  0  0  0  0  0  0  0  0  0  0
   36.6900   29.4710   36.7900 H   0  0  0  0  0  0  0  0  0  0  0  0
   35.4510   30.4420   41.0760 O   0  0  0  0  0  0  0  0  0  0  0  0
   36.1670   31.1170   41.3600 H   0  0  0  0  0  0  0  0  0  0  0  0
   39.0030   26.4220   39.3800 O   0  0  0  0  0  0  0  0  0  0  0  0
   39.7840   26.0210   38.8970 H   0  0  0  0  0  0  0  0  0  0  0  0
   39.3130   25.0500   41.4200 O   0  0  0  0  0  0  0  0  0  0  0  0
   39.5050   24.5740   42.6860 C   0  0  0  0  0  0  0  0  0  0  0  0
   40.4110   23.8160   42.6380 H   0  0  0  0  0  0  0  0  0  0  0  0
   38.6870   24.0600   43.1020 H   0  0  0  0  0  0  0  0  0  0  0  0
   40.0550   25.6160   43.6700 C   0  0  0  0  0  0  0  0  0  0  0  0
   39.8790   25.3080   44.7070 H   0  0  0  0  0  0  0  0  0  0  0  0
   41.1470   25.6760   43.4410 H   0  0  0  0  0  0  0  0  0  0  0  0
   39.4750   26.9550   43.4380 C   0  0  0  0  0  0  0  0  0  0  0  0
   38.2390   27.4970   43.6800 C   0  0  0  0  0  0  0  0  0  0  0  0
   37.5310   26.8250   44.1300 H   0  0  0  0  0  0  0  0  0  0  0  0
   37.8530   28.7860   43.4060 C   0  0  0  0  0  0  0  0  0  0  0  0
   36.8400   29.0640   43.6560 H   0  0  0  0  0  0  0  0  0  0  0  0
   38.7370   29.6590   42.8400 C   0  0  0  0  0  3  0  0  0  0  0  0
   39.9820   29.1270   42.5920 C   0  0  0  0  0  3  0  0  0  0  0  0
   40.3280   27.8640   42.8710 N   0  0  0  0  0  0  0  0  0  0  0  0
  1  6  1  6  0  0  0
  1  2  1  0  0  0  0
  1  5  1  0  0  0  0
  2  7  1  6  0  0  0
  2  3  1  0  0  0  0
  3  4  1  0  0  0  0
  4  8  1  0  0  0  0
  5 10  1  6  0  0  0
  5 23  1  0  0  0  0
  5  4  1  0  0  0  0
  9  4  1  0  0  0  0
 11 16  1  0  0  0  0
 11 19  1  0  0  0  0
 12 11  2  0  0  0  0
 13 14  2  0  0  0  0
 13 12  1  0  0  0  0
 14 15  1  0  0  0  0
 15  2  1  0  0  0  0
 15 16  2  0  0  0  0
 17 12  1  0  0  0  0
 18 13  1  0  0  0  0
 19 20  1  0  0  0  0
 21  1  1  0  0  0  0
 22 21  1  0  0  0  0
 23 24  1  0  0  0  0
 24 26  1  0  0  0  0
 24 27  1  0  0  0  0
 25 24  1  0  0  0  0
 27 28  1  0  0  0  0
 29 27  1  0  0  0  0
 30 27  1  0  0  0  0
 30 31  1  0  0  0  0
 31 32  1  0  0  0  0
 33 34  1  0  0  0  0
 33 31  2  0  0  0  0
 35 33  1  0  0  0  0
 36 35  2  0  0  0  0
 36 37  1  0  0  0  0
 37 30  2  0  0  0  0
M  END
>  <minimizedAffinity>
-5.20217562

$$$$

 OpenBabel03242519483D

 37 39  0  0  1  0  0  0  0  0999 V2000
   40.5760   30.0860   42.5370 C   0  0  2  0  0  0  0  0  0  0  0  0
   40.4470   30.3130   41.0810 C   0  0  1  0  0  0  0  0  0  0  0  0
   39.4000   29.3630   40.6780 O   0  0  0  0  0  0  0  0  0  0  0  0
   40.0420   28.2220   41.2190 C   0  0  0  0  0  0  0  0  0  0  0  0
   40.1090   28.6460   42.7040 C   0  0  2  0  0  0  0  0  0  0  0  0
   41.5930   30.2020   42.9400 H   0  0  0  0  0  0  0  0  0  0  0  0
   41.3400   29.9550   40.5240 H   0  0  0  0  0  0  0  0  0  0  0  0
   39.5630   27.2890   41.0400 H   0  0  0  0  0  0  0  0  0  0  0  0
   41.1160   28.2550   40.8970 H   0  0  0  0  0  0  0  0  0  0  0  0
   40.8430   27.9730   43.1990 H   0  0  0  0  0  0  0  0  0  0  0  0
   38.2650   33.1060   40.2460 C   0  0  0  0  0  0  0  0  0  0  0  0
   39.1480   34.1610   39.9810 C   0  0  0  0  0  0  0  0  0  0  0  0
   40.5360   33.9080   40.0850 C   0  0  0  0  0  0  0  0  0  0  0  0
   40.9450   32.6670   40.4320 N   0  0  0  0  0  0  0  0  0  0  0  0
   40.0620   31.6690   40.6810 C   0  0  0  0  0  0  0  0  0  0  0  0
   38.7220   31.8790   40.5890 N   0  0  0  0  0  0  0  0  0  0  0  0
   38.7440   35.1170   39.7120 H   0  0  0  0  0  0  0  0  0  0  0  0
   41.2220   34.7110   39.8840 H   0  0  0  0  0  0  0  0  0  0  0  0
   36.8850   33.3080   40.1600 O   0  0  0  0  0  0  0  0  0  0  0  0
   36.5140   33.9020   40.9070 H   0  0  0  0  0  0  0  0  0  0  0  0
   39.6440   30.9290   43.2330 O   0  0  0  0  0  0  0  0  0  0  0  0
   39.9010   30.9210   44.2020 H   0  0  0  0  0  0  0  0  0  0  0  0
   38.8580   28.5800   43.2230 O   0  0  0  0  0  0  0  0  0  0  0  0
   38.2200   27.3730   43.2740 C   0  0  0  0  0  0  0  0  0  0  0  0
   38.2050   27.0370   44.4080 H   0  0  0  0  0  0  0  0  0  0  0  0
   38.6740   26.6000   42.7240 H   0  0  0  0  0  0  0  0  0  0  0  0
   36.7160   27.4460   42.9770 C   0  0  0  0  0  0  0  0  0  0  0  0
   36.2350   26.4760   43.1420 H   0  0  0  0  0  0  0  0  0  0  0  0
   36.3240   28.2210   43.6810 H   0  0  0  0  0  0  0  0  0  0  0  0
   36.4460   27.9140   41.6020 C   0  0  0  0  0  0  0  0  0  0  0  0
   36.5040   27.3030   40.3750 C   0  0  0  0  0  0  0  0  0  0  0  0
   36.8060   26.2720   40.3970 H   0  0  0  0  0  0  0  0  0  0  0  0
   36.2110   27.8860   39.1670 C   0  0  0  0  0  0  0  0  0  0  0  0
   36.3040   27.2710   38.2840 H   0  0  0  0  0  0  0  0  0  0  0  0
   35.8200   29.1930   39.1150 C   0  0  0  0  0  3  0  0  0  0  0  0
   35.7580   29.8170   40.3400 C   0  0  0  0  0  3  0  0  0  0  0  0
   36.0510   29.2200   41.5020 N   0  0  0  0  0  0  0  0  0  0  0  0
  1  5  1  0  0  0  0
  1  6  1  1  0  0  0
  1 21  1  0  0  0  0
  2  7  1  6  0  0  0
  2  1  1  0  0  0  0
  3  2  1  0  0  0  0
  3  4  1  0  0  0  0
  4  5  1  0  0  0  0
  5 10  1  1  0  0  0
  5 23  1  0  0  0  0
  8  4  1  0  0  0  0
  9  4  1  0  0  0  0
 11 16  1  0  0  0  0
 12 13  1  0  0  0  0
 12 11  2  0  0  0  0
 13 14  2  0  0  0  0
 14 15  1  0  0  0  0
 15  2  1  0  0  0  0
 16 15  2  0  0  0  0
 17 12  1  0  0  0  0
 18 13  1  0  0  0  0
 19 11  1  0  0  0  0
 19 20  1  0  0  0  0
 21 22  1  0  0  0  0
 23 24  1  0  0  0  0
 24 25  1  0  0  0  0
 26 24  1  0  0  0  0
 27 28  1  0  0  0  0
 27 24  1  0  0  0  0
 27 29  1  0  0  0  0
 30 27  1  0  0  0  0
 31 32  1  0  0  0  0
 31 30  2  0  0  0  0
 33 31  1  0  0  0  0
 34 33  1  0  0  0  0
 35 33  2  0  0  0  0
 35 36  1  0  0  0  0
 36 37  2  0  0  0  0
 37 30  1  0  0  0  0
M  END
>  <minimizedAffinity>
-5.11017418

$$$$

 OpenBabel03242519483D

 37 39  0  0  1  0  0  0  0  0999 V2000
   39.0240   31.9050   38.6580 C   0  0  2  0  0  0  0  0  0  0  0  0
   39.5590   33.0890   39.3640 C   0  0  1  0  0  0  0  0  0  0  0  0
   38.7270   33.1720   40.5740 O   0  0  0  0  0  0  0  0  0  0  0  0
   37.4900   33.1890   39.8820 C   0  0  0  0  0  0  0  0  0  0  0  0
   37.5860   31.8280   39.1540 C   0  0  2  0  0  0  0  0  0  0  0  0
   39.0410   31.9680   37.5600 H   0  0  0  0  0  0  0  0  0  0  0  0
   39.3210   34.0350   38.8300 H   0  0  0  0  0  0  0  0  0  0  0  0
   36.6220   33.3160   40.4840 H   0  0  0  0  0  0  0  0  0  0  0  0
   37.5820   33.9310   39.0460 H   0  0  0  0  0  0  0  0  0  0  0  0
   36.8150   31.8380   38.3520 H   0  0  0  0  0  0  0  0  0  0  0  0
   42.4730   32.6950   41.5100 C   0  0  0  0  0  0  0  0  0  0  0  0
   43.5600   32.8150   40.6350 C   0  0  0  0  0  0  0  0  0  0  0  0
   43.2890   33.0460   39.2660 C   0  0  0  0  0  0  0  0  0  0  0  0
   42.0010   33.1400   38.8670 N   0  0  0  0  0  0  0  0  0  0  0  0
   40.9720   33.0190   39.7430 C   0  0  0  0  0  0  0  0  0  0  0  0
   41.2000   32.7970   41.0640 N   0  0  0  0  0  0  0  0  0  0  0  0
   44.5530   32.7290   41.0300 H   0  0  0  0  0  0  0  0  0  0  0  0
   44.1160   33.1400   38.5860 H   0  0  0  0  0  0  0  0  0  0  0  0
   42.6910   32.4630   42.8710 O   0  0  0  0  0  0  0  0  0  0  0  0
   43.0500   31.5250   43.0710 H   0  0  0  0  0  0  0  0  0  0  0  0
   39.7060   30.7280   39.1190 O   0  0  0  0  0  0  0  0  0  0  0  0
   39.4880   29.9880   38.4800 H   0  0  0  0  0  0  0  0  0  0  0  0
   37.4210   30.8420   40.0700 O   0  0  0  0  0  0  0  0  0  0  0  0
   36.2360   30.7470   40.7410 C   0  0  0  0  0  0  0  0  0  0  0  0
   35.4010   31.2010   40.0370 H   0  0  0  0  0  0  0  0  0  0  0  0
   36.1920   31.2670   41.6540 H   0  0  0  0  0  0  0  0  0  0  0  0
   35.7210   29.3100   40.9040 C   0  0  0  0  0  0  0  0  0  0  0  0
   34.7210   29.2990   41.3500 H   0  0  0  0  0  0  0  0  0  0  0  0
   35.7110   28.8920   39.8670 H   0  0  0  0  0  0  0  0  0  0  0  0
   36.6410   28.4810   41.7100 C   0  0  0  0  0  0  0  0  0  0  0  0
   37.2190   28.6490   42.9430 C   0  0  0  0  0  0  0  0  0  0  0  0
   36.9610   29.5660   43.4420 H   0  0  0  0  0  0  0  0  0  0  0  0
   38.0630   27.7650   43.5670 C   0  0  0  0  0  0  0  0  0  0  0  0
   38.4370   28.0400   44.5420 H   0  0  0  0  0  0  0  0  0  0  0  0
   38.3990   26.5920   42.9550 C   0  0  0  0  0  3  0  0  0  0  0  0
   37.8270   26.4120   41.7170 C   0  0  0  0  0  3  0  0  0  0  0  0
   37.0060   27.2940   41.1340 N   0  0  0  0  0  0  0  0  0  0  0  0
  1  6  1  6  0  0  0
  1 21  1  0  0  0  0
  1  5  1  0  0  0  0
  1  2  1  0  0  0  0
  2  7  1  6  0  0  0
  2 15  1  0  0  0  0
  2  3  1  0  0  0  0
  4  8  1  0  0  0  0
  4  3  1  0  0  0  0
  5 10  1  6  0  0  0
  5  4  1  0  0  0  0
  5 23  1  0  0  0  0
  9  4  1  0  0  0  0
 11 19  1  0  0  0  0
 12 17  1  0  0  0  0
 12 11  2  0  0  0  0
 13 12  1  0  0  0  0
 14 13  2  0  0  0  0
 14 15  1  0  0  0  0
 15 16  2  0  0  0  0
 16 11  1  0  0  0  0
 18 13  1  0  0  0  0
 19 20  1  0  0  0  0
 22 21  1  0  0  0  0
 23 24  1  0  0  0  0
 24 27  1  0  0  0  0
 24 26  1  0  0  0  0
 25 24  1  0  0  0  0
 27 28  1  0  0  0  0
 27 30  1  0  0  0  0
 29 27  1  0  0  0  0
 30 31  1  0  0  0  0
 31 32  1  0  0  0  0
 31 33  2  0  0  0  0
 33 34  1  0  0  0  0
 35 33  1  0  0  0  0
 36 35  2  0  0  0  0
 37 30  2  0  0  0  0
 37 36  1  0  0  0  0
M  END
>  <minimizedAffinity>
-5.07996321

$$$$
