
 OpenBabel03252508143D

 36 39  0  0  1  0  0  0  0  0999 V2000
   47.0910   30.7530   46.8290 C   0  0  0  0  0  0  0  0  0  0  0  0
   48.1100   30.3620   46.8750 H   0  0  0  0  0  0  0  0  0  0  0  0
   46.3250   29.9530   46.8260 H   0  0  0  0  0  0  0  0  0  0  0  0
   46.8570   31.5840   48.0680 C   0  0  1  0  0  0  0  0  0  0  0  0
   46.2510   30.8840   49.2340 C   0  0  0  0  0  0  0  0  0  0  0  0
   47.6390   31.3010   49.2920 C   0  0  1  0  0  0  0  0  0  0  0  0
   46.5490   32.6320   47.8980 H   0  0  0  0  0  0  0  0  0  0  0  0
   45.4950   31.4580   49.8380 H   0  0  0  0  0  0  0  0  0  0  0  0
   45.9320   29.8180   49.1560 H   0  0  0  0  0  0  0  0  0  0  0  0
   47.8650   32.2070   49.9340 H   0  0  0  0  0  0  0  0  0  0  0  0
   48.7970   30.3880   49.1820 C   0  0  0  0  0  0  0  0  0  0  0  0
   49.6750   30.3190   50.4610 C   0  0  0  0  0  0  0  0  0  0  0  0
   50.1940   31.0580   49.2760 C   0  0  0  0  0  0  0  0  0  0  0  0
   48.7130   29.4630   48.5900 H   0  0  0  0  0  0  0  0  0  0  0  0
   49.3540   30.9140   51.3340 H   0  0  0  0  0  0  0  0  0  0  0  0
   50.0660   29.3100   50.6750 H   0  0  0  0  0  0  0  0  0  0  0  0
   50.1940   32.1680   49.2700 H   0  0  0  0  0  0  0  0  0  0  0  0
   50.9570   30.5440   48.6650 H   0  0  0  0  0  0  0  0  0  0  0  0
   46.3670   32.7540   45.8100 C   0  0  0  0  0  2  0  0  0  0  0  0
   46.8910   31.6140   45.5880 C   0  0  0  0  0  2  0  0  0  0  0  0
   45.1150   35.5210   43.7310 C   0  0  0  0  0  0  0  0  0  0  0  0
   45.6840   35.2800   42.4860 C   0  0  0  0  0  0  0  0  0  0  0  0
   46.4990   34.1640   42.3960 C   0  0  0  0  0  0  0  0  0  0  0  0
   46.6680   33.4230   43.4910 N   0  0  0  0  0  0  0  0  0  0  0  0
   46.1230   33.6520   44.6750 C   0  0  0  0  0  0  0  0  0  0  0  0
   45.3470   34.7140   44.7710 N   0  0  0  0  0  0  0  0  0  0  0  0
   44.4660   36.4010   43.8230 H   0  0  0  0  0  0  0  0  0  0  0  0
   45.5460   35.8790   41.6110 H   0  0  0  0  0  0  0  0  0  0  0  0
   47.1930   33.7430   41.1710 C   0  0  0  0  0  0  0  0  0  0  0  0
   47.4840   32.4300   40.8790 C   0  0  0  0  0  0  0  0  0  0  0  0
   47.2050   31.6620   41.5580 H   0  0  0  0  0  0  0  0  0  0  0  0
   48.1290   32.0220   39.7420 C   0  0  0  0  0  0  0  0  0  0  0  0
   48.3430   30.9830   39.5420 H   0  0  0  0  0  0  0  0  0  0  0  0
   48.5230   32.9600   38.8130 C   0  0  0  0  0  3  0  0  0  0  0  0
   48.2190   34.2710   39.1290 C   0  0  0  0  0  3  0  0  0  0  0  0
   47.5930   34.6370   40.2380 N   0  0  0  0  0  0  0  0  0  0  0  0
  1  2  1  0  0  0  0
  1  4  1  0  0  0  0
  3  1  1  0  0  0  0
  4  7  1  6  0  0  0
  4  5  1  0  0  0  0
  4  6  1  0  0  0  0
  5  6  1  0  0  0  0
  5  8  1  0  0  0  0
  6 10  1  1  0  0  0
  9  5  1  0  0  0  0
 11 13  1  0  0  0  0
 11  6  1  0  0  0  0
 11 12  1  0  0  0  0
 12 16  1  0  0  0  0
 12 15  1  0  0  0  0
 13 12  1  0  0  0  0
 14 11  1  0  0  0  0
 17 13  1  0  0  0  0
 18 13  1  0  0  0  0
 20 19  1  0  0  0  0
 20  1  1  0  0  0  0
 21 27  1  0  0  0  0
 21 26  1  0  0  0  0
 22 21  2  0  0  0  0
 23 22  1  0  0  0  0
 23 24  2  0  0  0  0
 24 25  1  0  0  0  0
 25 26  2  0  0  0  0
 25 19  1  0  0  0  0
 28 22  1  0  0  0  0
 29 23  1  0  0  0  0
 30 29  1  0  0  0  0
 30 31  1  0  0  0  0
 32 30  2  0  0  0  0
 33 32  1  0  0  0  0
 34 35  2  0  0  0  0
 34 32  1  0  0  0  0
 35 36  1  0  0  0  0
 36 29  2  0  0  0  0
M  END
>  <minimizedAffinity>
-4.75630093

>  <minimizedRMSD>
1.16172695

$$$$
