
 OpenBabel03252507583D

 26 28  0  0  1  0  0  0  0  0999 V2000
   46.7300   32.3350   46.0670 C   0  0  1  0  0  0  0  0  0  0  0  0
   46.9970   32.4030   47.5350 C   0  0  0  0  0  0  0  0  0  0  0  0
   45.8020   31.6630   47.0350 C   0  0  2  0  0  0  0  0  0  0  0  0
   47.4480   31.8140   45.4350 H   0  0  0  0  0  0  0  0  0  0  0  0
   46.8900   33.4010   48.0210 H   0  0  0  0  0  0  0  0  0  0  0  0
   47.9050   31.8630   47.8890 H   0  0  0  0  0  0  0  0  0  0  0  0
   44.8300   32.1090   47.2760 H   0  0  0  0  0  0  0  0  0  0  0  0
   45.9060   34.8120   43.4880 C   0  0  0  0  0  0  0  0  0  0  0  0
   44.9500   35.6520   44.1170 C   0  0  0  0  0  0  0  0  0  0  0  0
   44.6060   35.3330   45.4420 C   0  0  0  0  0  0  0  0  0  0  0  0
   45.1840   34.2720   46.0350 N   0  0  0  0  0  0  0  0  0  0  0  0
   46.0970   33.5040   45.3730 C   0  0  0  0  0  0  0  0  0  0  0  0
   46.4720   33.7490   44.1120 N   0  0  0  0  0  0  0  0  0  0  0  0
   44.5110   36.4940   43.6030 H   0  0  0  0  0  0  0  0  0  0  0  0
   43.8970   35.9170   45.9780 H   0  0  0  0  0  0  0  0  0  0  0  0
   46.2220   35.1880   42.1380 C   0  0  0  0  0  0  0  0  0  0  0  0
   47.3580   35.0330   41.5940 O   0  0  0  0  0  0  0  0  0  0  0  0
   45.3900   35.6330   41.5870 H   0  0  0  0  0  0  0  0  0  0  0  0
   45.8740   30.1630   47.1550 C   0  0  0  0  0  0  0  0  0  0  0  0
   47.1310   29.6170   47.3820 C   0  0  0  0  0  0  0  0  0  0  0  0
   48.0150   30.2310   47.4690 H   0  0  0  0  0  0  0  0  0  0  0  0
   47.1460   28.2350   47.4850 C   0  0  0  0  0  0  0  0  0  0  0  0
   48.1370   27.7950   47.6650 H   0  0  0  0  0  0  0  0  0  0  0  0
   46.0030   27.4570   47.3710 C   0  0  0  0  0  0  0  0  0  0  0  0
   44.7730   28.0750   47.1430 C   0  0  0  0  0  0  0  0  0  0  0  0
   44.7500   29.4300   47.0400 N   0  0  0  0  0  0  0  0  0  0  0  0
  1  4  1  6  0  0  0
  1  3  1  0  0  0  0
  1  2  1  0  0  0  0
  2  6  1  0  0  0  0
  2  5  1  0  0  0  0
  3 19  1  0  0  0  0
  3  7  1  1  0  0  0
  3  2  1  0  0  0  0
  8 13  2  0  0  0  0
  8  9  1  0  0  0  0
  9 10  2  0  0  0  0
 10 15  1  0  0  0  0
 10 11  1  0  0  0  0
 12 11  2  0  0  0  0
 12  1  1  0  0  0  0
 13 12  1  0  0  0  0
 14  9  1  0  0  0  0
 16  8  1  0  0  0  0
 17 16  2  0  0  0  0
 18 16  1  0  0  0  0
 19 20  1  0  0  0  0
 20 21  1  0  0  0  0
 20 22  2  0  0  0  0
 22 23  1  0  0  0  0
 24 22  1  0  0  0  0
 25 24  2  0  0  0  0
 26 25  1  0  0  0  0
 26 19  2  0  0  0  0
M  END
>  <minimizedAffinity>
-4.51465797

>  <minimizedRMSD>
1.63091695

$$$$
