
 OpenBabel03252508193D

 46 50  0  0  1  0  0  0  0  0999 V2000
   36.0310   29.2290   40.6530 C   0  0  0  0  0  0  0  0  0  0  0  0
   36.0870   30.3300   40.8960 H   0  0  0  0  0  0  0  0  0  0  0  0
   35.6930   28.7510   41.5610 H   0  0  0  0  0  0  0  0  0  0  0  0
   37.3020   28.7520   40.0550 C   0  0  1  0  0  0  0  0  0  0  0  0
   38.4140   29.7460   40.0160 C   0  0  0  0  0  0  0  0  0  0  0  0
   38.5070   28.5830   40.9000 C   0  0  1  0  0  0  0  0  0  0  0  0
   37.2110   28.2900   39.0240 H   0  0  0  0  0  0  0  0  0  0  0  0
   39.1120   29.8410   39.1790 H   0  0  0  0  0  0  0  0  0  0  0  0
   38.2470   30.7320   40.5240 H   0  0  0  0  0  0  0  0  0  0  0  0
   39.1790   27.7750   40.5480 H   0  0  0  0  0  0  0  0  0  0  0  0
   38.3530   28.7050   42.3650 C   0  0  2  0  0  0  0  0  0  0  0  0
   39.5520   28.1870   43.1920 C   0  0  0  0  0  0  0  0  0  0  0  0
   38.3120   27.4280   43.2110 C   0  0  2  0  0  0  0  0  0  0  0  0
   37.9950   29.6610   42.8100 H   0  0  0  0  0  0  0  0  0  0  0  0
   40.3910   27.7380   42.6220 H   0  0  0  0  0  0  0  0  0  0  0  0
   39.8780   28.7090   44.0860 H   0  0  0  0  0  0  0  0  0  0  0  0
   37.6160   27.5970   44.0910 H   0  0  0  0  0  0  0  0  0  0  0  0
   38.1170   26.1520   42.5280 C   0  0  0  0  0  0  0  0  0  0  0  0
   36.9330   25.5950   42.1200 C   0  0  0  0  0  0  0  0  0  0  0  0
   36.0240   26.1550   42.2950 H   0  0  0  0  0  0  0  0  0  0  0  0
   36.7760   24.3910   41.4930 C   0  0  0  0  0  0  0  0  0  0  0  0
   35.8030   24.0260   41.2050 H   0  0  0  0  0  0  0  0  0  0  0  0
   37.9040   23.6410   41.2320 C   0  0  0  0  0  3  0  0  0  0  0  0
   39.1030   24.1790   41.6320 C   0  0  0  0  0  3  0  0  0  0  0  0
   39.2000   25.3710   42.2480 N   0  0  0  0  0  0  0  0  0  0  0  0
   35.1310   28.3140   38.6720 C   0  0  0  0  0  3  0  0  0  0  0  0
   34.8820   29.0260   39.6870 C   0  0  0  0  0  3  0  0  0  0  0  0
   32.8530   26.8280   36.1840 C   0  0  0  0  0  0  0  0  0  0  0  0
   32.0160   27.8830   35.8550 C   0  0  0  0  0  0  0  0  0  0  0  0
   32.2560   29.0700   36.4860 C   0  0  0  0  0  0  0  0  0  0  0  0
   33.2710   29.1750   37.3860 N   0  0  0  0  0  0  0  0  0  0  0  0
   34.0690   28.1190   37.6810 C   0  0  0  0  0  0  0  0  0  0  0  0
   33.8350   26.9720   37.0710 N   0  0  0  0  0  0  0  0  0  0  0  0
   32.6660   25.8860   35.6870 H   0  0  0  0  0  0  0  0  0  0  0  0
   31.2060   27.8580   35.1600 H   0  0  0  0  0  0  0  0  0  0  0  0
   31.4600   30.2650   36.2430 C   0  0  0  0  0  0  0  0  0  0  0  0
   30.6500   30.8570   37.1880 C   0  0  0  0  0  0  0  0  0  0  0  0
   29.8960   31.9900   36.9550 C   0  0  0  0  0  0  0  0  0  0  0  0
   29.9350   32.5800   35.7200 C   0  0  0  0  0  0  0  0  0  0  0  0
   30.7260   32.0310   34.7420 C   0  0  0  0  0  0  0  0  0  0  0  0
   31.4630   30.8950   35.0250 C   0  0  0  0  0  0  0  0  0  0  0  0
   30.5990   30.4060   38.1850 H   0  0  0  0  0  0  0  0  0  0  0  0
   29.2730   32.4190   37.7320 H   0  0  0  0  0  0  0  0  0  0  0  0
   29.3420   33.4700   35.5390 H   0  0  0  0  0  0  0  0  0  0  0  0
   30.7800   32.4740   33.7500 H   0  0  0  0  0  0  0  0  0  0  0  0
   32.0700   30.5030   34.2170 H   0  0  0  0  0  0  0  0  0  0  0  0
  1  2  1  0  0  0  0
  1  3  1  0  0  0  0
  4  7  1  6  0  0  0
  4  1  1  0  0  0  0
  4  6  1  0  0  0  0
  5  4  1  0  0  0  0
  5  9  1  0  0  0  0
  5  6  1  0  0  0  0
  6 10  1  6  0  0  0
  6 11  1  0  0  0  0
  8  5  1  0  0  0  0
 11 14  1  1  0  0  0
 11 12  1  0  0  0  0
 11 13  1  0  0  0  0
 12 13  1  0  0  0  0
 12 16  1  0  0  0  0
 13 17  1  1  0  0  0
 15 12  1  0  0  0  0
 18 13  1  0  0  0  0
 19 20  1  0  0  0  0
 19 18  2  0  0  0  0
 21 19  1  0  0  0  0
 22 21  1  0  0  0  0
 23 21  2  0  0  0  0
 23 24  1  0  0  0  0
 24 25  2  0  0  0  0
 25 18  1  0  0  0  0
 26 27  2  0  0  0  0
 27  1  1  0  0  0  0
 28 33  1  0  0  0  0
 29 28  2  0  0  0  0
 29 30  1  0  0  0  0
 30 31  2  0  0  0  0
 31 32  1  0  0  0  0
 32 26  1  0  0  0  0
 33 32  2  0  0  0  0
 34 28  1  0  0  0  0
 35 29  1  0  0  0  0
 36 30  1  0  0  0  0
 36 37  1  0  0  0  0
 37 42  1  0  0  0  0
 38 37  2  0  0  0  0
 38 43  1  0  0  0  0
 39 38  1  0  0  0  0
 40 41  1  0  0  0  0
 40 39  2  0  0  0  0
 41 36  2  0  0  0  0
 44 39  1  0  0  0  0
 45 40  1  0  0  0  0
 46 41  1  0  0  0  0
M  END
>  <minimizedAffinity>
-6.33105946

$$$$

 OpenBabel03252508193D

 46 50  0  0  1  0  0  0  0  0999 V2000
   39.0410   32.1890   40.8610 C   0  0  0  0  0  0  0  0  0  0  0  0
   39.3500   32.7470   41.7930 H   0  0  0  0  0  0  0  0  0  0  0  0
   39.8220   32.3820   40.1400 H   0  0  0  0  0  0  0  0  0  0  0  0
   37.6490   32.5270   40.4770 C   0  0  1  0  0  0  0  0  0  0  0  0
   37.4870   33.7410   39.6250 C   0  0  0  0  0  0  0  0  0  0  0  0
   37.2170   32.4160   39.0630 C   0  0  1  0  0  0  0  0  0  0  0  0
   36.9130   32.6020   41.3350 H   0  0  0  0  0  0  0  0  0  0  0  0
   36.6650   34.4550   39.7360 H   0  0  0  0  0  0  0  0  0  0  0  0
   38.4190   34.2440   39.2570 H   0  0  0  0  0  0  0  0  0  0  0  0
   36.1430   32.1600   38.9530 H   0  0  0  0  0  0  0  0  0  0  0  0
   38.1380   31.7750   38.1020 C   0  0  2  0  0  0  0  0  0  0  0  0
   37.7010   31.8650   36.6220 C   0  0  0  0  0  0  0  0  0  0  0  0
   37.6390   30.5750   37.2900 C   0  0  2  0  0  0  0  0  0  0  0  0
   39.2330   31.9670   38.1660 H   0  0  0  0  0  0  0  0  0  0  0  0
   36.7280   32.3590   36.4200 H   0  0  0  0  0  0  0  0  0  0  0  0
   38.4310   32.0300   35.8360 H   0  0  0  0  0  0  0  0  0  0  0  0
   38.5060   29.8640   37.1220 H   0  0  0  0  0  0  0  0  0  0  0  0
   36.4010   29.9230   37.7090 C   0  0  0  0  0  0  0  0  0  0  0  0
   35.9640   29.7050   38.9890 C   0  0  0  0  0  0  0  0  0  0  0  0
   36.5800   30.0660   39.8020 H   0  0  0  0  0  0  0  0  0  0  0  0
   34.8040   29.0800   39.3550 C   0  0  0  0  0  0  0  0  0  0  0  0
   34.5360   28.9500   40.3920 H   0  0  0  0  0  0  0  0  0  0  0  0
   33.9740   28.6140   38.3580 C   0  0  0  0  0  3  0  0  0  0  0  0
   34.3910   28.8210   37.0660 C   0  0  0  0  0  3  0  0  0  0  0  0
   35.5440   29.4430   36.7620 N   0  0  0  0  0  0  0  0  0  0  0  0
   38.2600   30.2020   41.8670 C   0  0  0  0  0  3  0  0  0  0  0  0
   39.1680   30.7080   41.1460 C   0  0  0  0  0  3  0  0  0  0  0  0
   39.0590   27.0230   43.5520 C   0  0  0  0  0  0  0  0  0  0  0  0
   38.4310   26.0780   42.7560 C   0  0  0  0  0  0  0  0  0  0  0  0
   37.7580   26.5520   41.6650 C   0  0  0  0  0  0  0  0  0  0  0  0
   37.7270   27.8870   41.4060 N   0  0  0  0  0  0  0  0  0  0  0  0
   38.3550   28.7800   42.2110 C   0  0  0  0  0  0  0  0  0  0  0  0
   39.0040   28.3210   43.2640 N   0  0  0  0  0  0  0  0  0  0  0  0
   39.5920   26.6520   44.4170 H   0  0  0  0  0  0  0  0  0  0  0  0
   38.4210   25.0220   42.9100 H   0  0  0  0  0  0  0  0  0  0  0  0
   37.0510   25.6800   40.7380 C   0  0  0  0  0  0  0  0  0  0  0  0
   36.6890   26.0460   39.4600 C   0  0  0  0  0  0  0  0  0  0  0  0
   36.0180   25.2170   38.5820 C   0  0  0  0  0  0  0  0  0  0  0  0
   35.6790   23.9510   38.9800 C   0  0  0  0  0  0  0  0  0  0  0  0
   36.0160   23.5360   40.2440 C   0  0  0  0  0  0  0  0  0  0  0  0
   36.6880   24.4040   41.0860 C   0  0  0  0  0  0  0  0  0  0  0  0
   36.9470   27.0530   39.1140 H   0  0  0  0  0  0  0  0  0  0  0  0
   35.7540   25.5520   37.5850 H   0  0  0  0  0  0  0  0  0  0  0  0
   35.1520   23.3020   38.2900 H   0  0  0  0  0  0  0  0  0  0  0  0
   35.7620   22.5370   40.5930 H   0  0  0  0  0  0  0  0  0  0  0  0
   36.9300   24.0250   42.0720 H   0  0  0  0  0  0  0  0  0  0  0  0
  1 27  1  0  0  0  0
  1  2  1  0  0  0  0
  3  1  1  0  0  0  0
  4  1  1  0  0  0  0
  4  7  1  1  0  0  0
  5  8  1  0  0  0  0
  5  4  1  0  0  0  0
  6 10  1  6  0  0  0
  6  5  1  0  0  0  0
  6  4  1  0  0  0  0
  9  5  1  0  0  0  0
 11 14  1  1  0  0  0
 11  6  1  0  0  0  0
 12 13  1  0  0  0  0
 12 11  1  0  0  0  0
 13 17  1  6  0  0  0
 13 18  1  0  0  0  0
 13 11  1  0  0  0  0
 15 12  1  0  0  0  0
 16 12  1  0  0  0  0
 18 19  1  0  0  0  0
 19 21  2  0  0  0  0
 19 20  1  0  0  0  0
 21 22  1  0  0  0  0
 23 21  1  0  0  0  0
 24 23  2  0  0  0  0
 25 24  1  0  0  0  0
 25 18  2  0  0  0  0
 26 32  1  0  0  0  0
 27 26  2  0  0  0  0
 28 34  1  0  0  0  0
 29 35  1  0  0  0  0
 29 28  2  0  0  0  0
 30 29  1  0  0  0  0
 31 30  2  0  0  0  0
 31 32  1  0  0  0  0
 32 33  2  0  0  0  0
 33 28  1  0  0  0  0
 36 41  1  0  0  0  0
 36 30  1  0  0  0  0
 37 36  2  0  0  0  0
 38 39  2  0  0  0  0
 38 37  1  0  0  0  0
 39 40  1  0  0  0  0
 40 45  1  0  0  0  0
 40 41  2  0  0  0  0
 41 46  1  0  0  0  0
 42 37  1  0  0  0  0
 43 38  1  0  0  0  0
 44 39  1  0  0  0  0
M  END
>  <minimizedAffinity>
-6.19600725

$$$$

 OpenBabel03252508193D

 46 50  0  0  1  0  0  0  0  0999 V2000
   36.4400   29.7750   37.3190 C   0  0  0  0  0  0  0  0  0  0  0  0
   35.8940   30.1980   36.4260 H   0  0  0  0  0  0  0  0  0  0  0  0
   37.0310   28.9570   36.9330 H   0  0  0  0  0  0  0  0  0  0  0  0
   35.4970   29.4830   38.4270 C   0  0  1  0  0  0  0  0  0  0  0  0
   34.3990   28.5240   38.1090 C   0  0  0  0  0  0  0  0  0  0  0  0
   35.4600   28.1330   39.0390 C   0  0  1  0  0  0  0  0  0  0  0  0
   35.0350   30.3900   38.9240 H   0  0  0  0  0  0  0  0  0  0  0  0
   33.3740   28.6320   38.4780 H   0  0  0  0  0  0  0  0  0  0  0  0
   34.4220   28.0230   37.1060 H   0  0  0  0  0  0  0  0  0  0  0  0
   35.1770   28.1470   40.1110 H   0  0  0  0  0  0  0  0  0  0  0  0
   36.5120   27.1670   38.6590 C   0  0  2  0  0  0  0  0  0  0  0  0
   36.4220   25.7950   39.3640 C   0  0  0  0  0  0  0  0  0  0  0  0
   37.5030   26.6970   39.7290 C   0  0  2  0  0  0  0  0  0  0  0  0
   36.7570   27.0050   37.5850 H   0  0  0  0  0  0  0  0  0  0  0  0
   35.6130   25.6740   40.1130 H   0  0  0  0  0  0  0  0  0  0  0  0
   36.6430   24.8780   38.8270 H   0  0  0  0  0  0  0  0  0  0  0  0
   38.5100   26.5200   39.2380 H   0  0  0  0  0  0  0  0  0  0  0  0
   37.5680   27.4380   40.9850 C   0  0  0  0  0  0  0  0  0  0  0  0
   37.0020   27.0980   42.1860 C   0  0  0  0  0  0  0  0  0  0  0  0
   36.4560   26.1660   42.2410 H   0  0  0  0  0  0  0  0  0  0  0  0
   37.0670   27.8170   43.3460 C   0  0  0  0  0  0  0  0  0  0  0  0
   36.5910   27.4740   44.2510 H   0  0  0  0  0  0  0  0  0  0  0  0
   37.7650   29.0070   43.3360 C   0  0  0  0  0  3  0  0  0  0  0  0
   38.3410   29.3690   42.1430 C   0  0  0  0  0  3  0  0  0  0  0  0
   38.2450   28.6220   41.0280 N   0  0  0  0  0  0  0  0  0  0  0  0
   37.1990   31.4440   38.8060 C   0  0  0  0  0  3  0  0  0  0  0  0
   37.4710   30.7930   37.7560 C   0  0  0  0  0  3  0  0  0  0  0  0
   38.7170   34.3480   40.4920 C   0  0  0  0  0  0  0  0  0  0  0  0
   40.0230   34.3330   40.0300 C   0  0  0  0  0  0  0  0  0  0  0  0
   40.3470   33.3360   39.1540 C   0  0  0  0  0  0  0  0  0  0  0  0
   39.4110   32.4240   38.7770 N   0  0  0  0  0  0  0  0  0  0  0  0
   38.1410   32.4730   39.2520 C   0  0  0  0  0  0  0  0  0  0  0  0
   37.8300   33.4360   40.0990 N   0  0  0  0  0  0  0  0  0  0  0  0
   38.4560   35.1360   41.1870 H   0  0  0  0  0  0  0  0  0  0  0  0
   40.7980   35.0200   40.2910 H   0  0  0  0  0  0  0  0  0  0  0  0
   41.6800   33.1910   38.5850 C   0  0  0  0  0  0  0  0  0  0  0  0
   42.0360   32.1990   37.6980 C   0  0  0  0  0  0  0  0  0  0  0  0
   43.3000   32.0640   37.1600 C   0  0  0  0  0  0  0  0  0  0  0  0
   44.2790   32.9550   37.5120 C   0  0  0  0  0  0  0  0  0  0  0  0
   43.9770   33.9640   38.3920 C   0  0  0  0  0  0  0  0  0  0  0  0
   42.6950   34.0560   38.9030 C   0  0  0  0  0  0  0  0  0  0  0  0
   41.2730   31.4710   37.3990 H   0  0  0  0  0  0  0  0  0  0  0  0
   43.5320   31.2640   36.4650 H   0  0  0  0  0  0  0  0  0  0  0  0
   45.2710   32.8470   37.0880 H   0  0  0  0  0  0  0  0  0  0  0  0
   44.7300   34.6890   38.6930 H   0  0  0  0  0  0  0  0  0  0  0  0
   42.5110   34.8720   39.5940 H   0  0  0  0  0  0  0  0  0  0  0  0
  1 27  1  0  0  0  0
  1  4  1  0  0  0  0
  2  1  1  0  0  0  0
  3  1  1  0  0  0  0
  4  7  1  1  0  0  0
  4  6  1  0  0  0  0
  5  4  1  0  0  0  0
  5  8  1  0  0  0  0
  5  6  1  0  0  0  0
  6 10  1  1  0  0  0
  9  5  1  0  0  0  0
 11 14  1  6  0  0  0
 11  6  1  0  0  0  0
 11 12  1  0  0  0  0
 11 13  1  0  0  0  0
 12 13  1  0  0  0  0
 12 15  1  0  0  0  0
 13 17  1  6  0  0  0
 13 18  1  0  0  0  0
 16 12  1  0  0  0  0
 18 25  2  0  0  0  0
 18 19  1  0  0  0  0
 19 20  1  0  0  0  0
 19 21  2  0  0  0  0
 21 22  1  0  0  0  0
 23 21  1  0  0  0  0
 24 23  2  0  0  0  0
 25 24  1  0  0  0  0
 26 32  1  0  0  0  0
 27 26  2  0  0  0  0
 28 34  1  0  0  0  0
 29 35  1  0  0  0  0
 29 28  2  0  0  0  0
 30 29  1  0  0  0  0
 31 30  2  0  0  0  0
 31 32  1  0  0  0  0
 32 33  2  0  0  0  0
 33 28  1  0  0  0  0
 36 41  1  0  0  0  0
 36 30  1  0  0  0  0
 37 36  2  0  0  0  0
 38 39  2  0  0  0  0
 38 37  1  0  0  0  0
 39 40  1  0  0  0  0
 40 45  1  0  0  0  0
 40 41  2  0  0  0  0
 41 46  1  0  0  0  0
 42 37  1  0  0  0  0
 43 38  1  0  0  0  0
 44 39  1  0  0  0  0
M  END
>  <minimizedAffinity>
-6.1362133

$$$$

 OpenBabel03252508193D

 46 50  0  0  1  0  0  0  0  0999 V2000
   36.9520   27.1030   40.4170 C   0  0  0  0  0  0  0  0  0  0  0  0
   36.7920   26.0470   40.7830 H   0  0  0  0  0  0  0  0  0  0  0  0
   37.9900   27.1490   40.1190 H   0  0  0  0  0  0  0  0  0  0  0  0
   36.4790   28.0900   41.4180 C   0  0  1  0  0  0  0  0  0  0  0  0
   36.6560   27.7010   42.8470 C   0  0  0  0  0  0  0  0  0  0  0  0
   37.4490   28.7970   42.2870 C   0  0  1  0  0  0  0  0  0  0  0  0
   35.4100   28.4440   41.2840 H   0  0  0  0  0  0  0  0  0  0  0  0
   35.9220   27.9150   43.6300 H   0  0  0  0  0  0  0  0  0  0  0  0
   37.2180   26.7540   43.0610 H   0  0  0  0  0  0  0  0  0  0  0  0
   37.1170   29.8140   42.5750 H   0  0  0  0  0  0  0  0  0  0  0  0
   38.8890   28.6430   41.9910 C   0  0  2  0  0  0  0  0  0  0  0  0
   39.7920   29.7650   42.5530 C   0  0  0  0  0  0  0  0  0  0  0  0
   39.5780   29.6960   41.1160 C   0  0  2  0  0  0  0  0  0  0  0  0
   39.3900   27.6620   42.1520 H   0  0  0  0  0  0  0  0  0  0  0  0
   39.2830   30.5940   43.0840 H   0  0  0  0  0  0  0  0  0  0  0  0
   40.7710   29.5370   42.9620 H   0  0  0  0  0  0  0  0  0  0  0  0
   40.3800   29.1870   40.4970 H   0  0  0  0  0  0  0  0  0  0  0  0
   38.7400   30.6260   40.3640 C   0  0  0  0  0  0  0  0  0  0  0  0
   38.2060   30.4460   39.1150 C   0  0  0  0  0  0  0  0  0  0  0  0
   38.3950   29.5060   38.6140 H   0  0  0  0  0  0  0  0  0  0  0  0
   37.4330   31.3390   38.4260 C   0  0  0  0  0  0  0  0  0  0  0  0
   37.0520   31.1160   37.4420 H   0  0  0  0  0  0  0  0  0  0  0  0
   37.1480   32.5490   39.0230 C   0  0  0  0  0  3  0  0  0  0  0  0
   37.6730   32.7520   40.2770 C   0  0  0  0  0  3  0  0  0  0  0  0
   38.4290   31.8370   40.9090 N   0  0  0  0  0  0  0  0  0  0  0  0
   35.3150   28.1720   39.0940 C   0  0  0  0  0  3  0  0  0  0  0  0
   36.1930   27.2620   39.1160 C   0  0  0  0  0  3  0  0  0  0  0  0
   34.0760   27.9640   35.6290 C   0  0  0  0  0  0  0  0  0  0  0  0
   32.9180   28.7250   35.6640 C   0  0  0  0  0  0  0  0  0  0  0  0
   32.5960   29.2900   36.8650 C   0  0  0  0  0  0  0  0  0  0  0  0
   33.3940   29.0950   37.9500 N   0  0  0  0  0  0  0  0  0  0  0  0
   34.5200   28.3430   37.8750 C   0  0  0  0  0  0  0  0  0  0  0  0
   34.8290   27.7980   36.7140 N   0  0  0  0  0  0  0  0  0  0  0  0
   34.3340   27.5140   34.6800 H   0  0  0  0  0  0  0  0  0  0  0  0
   32.2550   28.9110   34.8470 H   0  0  0  0  0  0  0  0  0  0  0  0
   31.4100   30.1140   37.0540 C   0  0  0  0  0  0  0  0  0  0  0  0
   30.6060   30.0620   38.1710 C   0  0  0  0  0  0  0  0  0  0  0  0
   29.4820   30.8440   38.3480 C   0  0  0  0  0  0  0  0  0  0  0  0
   29.1210   31.7320   37.3700 C   0  0  0  0  0  0  0  0  0  0  0  0
   29.8880   31.8240   36.2360 C   0  0  0  0  0  0  0  0  0  0  0  0
   31.0050   31.0180   36.1060 C   0  0  0  0  0  0  0  0  0  0  0  0
   30.8710   29.3610   38.9700 H   0  0  0  0  0  0  0  0  0  0  0  0
   28.8800   30.7660   39.2470 H   0  0  0  0  0  0  0  0  0  0  0  0
   28.2370   32.3450   37.5110 H   0  0  0  0  0  0  0  0  0  0  0  0
   29.6300   32.5180   35.4390 H   0  0  0  0  0  0  0  0  0  0  0  0
   31.5750   31.1320   35.1910 H   0  0  0  0  0  0  0  0  0  0  0  0
  1  2  1  0  0  0  0
  1  4  1  0  0  0  0
  3  1  1  0  0  0  0
  4  7  1  6  0  0  0
  4  6  1  0  0  0  0
  4  5  1  0  0  0  0
  5  9  1  0  0  0  0
  5  8  1  0  0  0  0
  6 10  1  1  0  0  0
  6  5  1  0  0  0  0
 11 14  1  6  0  0  0
 11  6  1  0  0  0  0
 11 12  1  0  0  0  0
 12 16  1  0  0  0  0
 12 15  1  0  0  0  0
 13 17  1  6  0  0  0
 13 11  1  0  0  0  0
 13 12  1  0  0  0  0
 18 25  1  0  0  0  0
 18 13  1  0  0  0  0
 19 18  2  0  0  0  0
 20 19  1  0  0  0  0
 21 23  2  0  0  0  0
 21 19  1  0  0  0  0
 22 21  1  0  0  0  0
 23 24  1  0  0  0  0
 24 25  2  0  0  0  0
 26 27  2  0  0  0  0
 27  1  1  0  0  0  0
 28 29  2  0  0  0  0
 28 33  1  0  0  0  0
 29 30  1  0  0  0  0
 30 36  1  0  0  0  0
 30 31  2  0  0  0  0
 32 31  1  0  0  0  0
 32 26  1  0  0  0  0
 33 32  2  0  0  0  0
 34 28  1  0  0  0  0
 35 29  1  0  0  0  0
 36 37  1  0  0  0  0
 37 38  2  0  0  0  0
 37 42  1  0  0  0  0
 38 43  1  0  0  0  0
 39 44  1  0  0  0  0
 39 38  1  0  0  0  0
 40 39  2  0  0  0  0
 41 40  1  0  0  0  0
 41 36  2  0  0  0  0
 45 40  1  0  0  0  0
 46 41  1  0  0  0  0
M  END
>  <minimizedAffinity>
-6.06225777

$$$$

 OpenBabel03252508193D

 46 50  0  0  1  0  0  0  0  0999 V2000
   36.1410   27.5150   39.2330 C   0  0  0  0  0  0  0  0  0  0  0  0
   35.6050   26.8280   39.9500 H   0  0  0  0  0  0  0  0  0  0  0  0
   36.8610   26.8920   38.7220 H   0  0  0  0  0  0  0  0  0  0  0  0
   36.6470   28.7210   39.9320 C   0  0  1  0  0  0  0  0  0  0  0  0
   35.6330   29.5000   40.7000 C   0  0  0  0  0  0  0  0  0  0  0  0
   36.6810   28.7670   41.4130 C   0  0  1  0  0  0  0  0  0  0  0  0
   37.2290   29.4490   39.2860 H   0  0  0  0  0  0  0  0  0  0  0  0
   35.6150   30.5940   40.7470 H   0  0  0  0  0  0  0  0  0  0  0  0
   34.6000   29.0710   40.7790 H   0  0  0  0  0  0  0  0  0  0  0  0
   37.5050   29.3920   41.8120 H   0  0  0  0  0  0  0  0  0  0  0  0
   36.3940   27.5220   42.1550 C   0  0  2  0  0  0  0  0  0  0  0  0
   36.6790   27.5880   43.6730 C   0  0  0  0  0  0  0  0  0  0  0  0
   37.5530   26.7830   42.8330 C   0  0  2  0  0  0  0  0  0  0  0  0
   35.4320   26.9860   41.9920 H   0  0  0  0  0  0  0  0  0  0  0  0
   37.1070   28.5350   44.0570 H   0  0  0  0  0  0  0  0  0  0  0  0
   36.0180   27.1010   44.3840 H   0  0  0  0  0  0  0  0  0  0  0  0
   37.3470   25.6690   42.7920 H   0  0  0  0  0  0  0  0  0  0  0  0
   38.9170   27.1560   42.4700 C   0  0  0  0  0  0  0  0  0  0  0  0
   39.7690   27.9780   43.1600 C   0  0  0  0  0  0  0  0  0  0  0  0
   39.4220   28.3950   44.0960 H   0  0  0  0  0  0  0  0  0  0  0  0
   41.0400   28.3220   42.7920 C   0  0  0  0  0  0  0  0  0  0  0  0
   41.6450   28.9780   43.3970 H   0  0  0  0  0  0  0  0  0  0  0  0
   41.5390   27.8060   41.6140 C   0  0  0  0  0  3  0  0  0  0  0  0
   40.7020   26.9790   40.9050 C   0  0  0  0  0  3  0  0  0  0  0  0
   39.4570   26.6740   41.3140 N   0  0  0  0  0  0  0  0  0  0  0  0
   34.7380   26.9600   37.4170 C   0  0  0  0  0  3  0  0  0  0  0  0
   35.1620   27.9040   38.1460 C   0  0  0  0  0  3  0  0  0  0  0  0
   32.7700   26.8240   34.3040 C   0  0  0  0  0  0  0  0  0  0  0  0
   32.0440   28.0040   34.3390 C   0  0  0  0  0  0  0  0  0  0  0  0
   32.2510   28.8140   35.4210 C   0  0  0  0  0  0  0  0  0  0  0  0
   33.1300   28.4490   36.3920 N   0  0  0  0  0  0  0  0  0  0  0  0
   33.8220   27.2840   36.3210 C   0  0  0  0  0  0  0  0  0  0  0  0
   33.6210   26.5040   35.2760 N   0  0  0  0  0  0  0  0  0  0  0  0
   32.6090   26.1800   33.4500 H   0  0  0  0  0  0  0  0  0  0  0  0
   31.3420   28.3410   33.6080 H   0  0  0  0  0  0  0  0  0  0  0  0
   31.5590   30.0840   35.5950 C   0  0  0  0  0  0  0  0  0  0  0  0
   30.9270   30.4630   36.7590 C   0  0  0  0  0  0  0  0  0  0  0  0
   30.2730   31.6680   36.9230 C   0  0  0  0  0  0  0  0  0  0  0  0
   30.2320   32.5570   35.8820 C   0  0  0  0  0  0  0  0  0  0  0  0
   30.8470   32.2290   34.6990 C   0  0  0  0  0  0  0  0  0  0  0  0
   31.4890   31.0090   34.5860 C   0  0  0  0  0  0  0  0  0  0  0  0
   30.9430   29.7720   37.6090 H   0  0  0  0  0  0  0  0  0  0  0  0
   29.7880   31.9210   37.8600 H   0  0  0  0  0  0  0  0  0  0  0  0
   29.7170   33.5030   36.0120 H   0  0  0  0  0  0  0  0  0  0  0  0
   30.8340   32.9120   33.8520 H   0  0  0  0  0  0  0  0  0  0  0  0
   31.9580   30.8010   33.6300 H   0  0  0  0  0  0  0  0  0  0  0  0
  1  4  1  0  0  0  0
  1  2  1  0  0  0  0
  3  1  1  0  0  0  0
  4  7  1  6  0  0  0
  4  5  1  0  0  0  0
  4  6  1  0  0  0  0
  5  8  1  0  0  0  0
  5  9  1  0  0  0  0
  5  6  1  0  0  0  0
  6 10  1  1  0  0  0
  6 11  1  0  0  0  0
 11 14  1  6  0  0  0
 11 13  1  0  0  0  0
 11 12  1  0  0  0  0
 12 15  1  0  0  0  0
 12 16  1  0  0  0  0
 13 17  1  1  0  0  0
 13 12  1  0  0  0  0
 18 13  1  0  0  0  0
 18 19  1  0  0  0  0
 19 20  1  0  0  0  0
 21 19  2  0  0  0  0
 21 22  1  0  0  0  0
 23 21  1  0  0  0  0
 24 25  1  0  0  0  0
 24 23  2  0  0  0  0
 25 18  2  0  0  0  0
 26 27  2  0  0  0  0
 27  1  1  0  0  0  0
 28 29  2  0  0  0  0
 28 33  1  0  0  0  0
 29 30  1  0  0  0  0
 30 36  1  0  0  0  0
 30 31  2  0  0  0  0
 32 31  1  0  0  0  0
 32 26  1  0  0  0  0
 33 32  2  0  0  0  0
 34 28  1  0  0  0  0
 35 29  1  0  0  0  0
 36 37  1  0  0  0  0
 37 38  2  0  0  0  0
 37 42  1  0  0  0  0
 38 43  1  0  0  0  0
 39 44  1  0  0  0  0
 39 38  1  0  0  0  0
 40 39  2  0  0  0  0
 41 40  1  0  0  0  0
 41 36  2  0  0  0  0
 45 40  1  0  0  0  0
 46 41  1  0  0  0  0
M  END
>  <minimizedAffinity>
-5.8399291

$$$$

 OpenBabel03252508193D

 46 50  0  0  1  0  0  0  0  0999 V2000
   36.5600   23.1950   39.0330 C   0  0  0  0  0  0  0  0  0  0  0  0
   35.8070   22.3790   38.8300 H   0  0  0  0  0  0  0  0  0  0  0  0
   37.2180   23.1970   38.1750 H   0  0  0  0  0  0  0  0  0  0  0  0
   37.1760   23.0270   40.3720 C   0  0  1  0  0  0  0  0  0  0  0  0
   38.3940   22.1680   40.4240 C   0  0  0  0  0  0  0  0  0  0  0  0
   38.5090   23.6080   40.6600 C   0  0  1  0  0  0  0  0  0  0  0  0
   36.4710   22.6840   41.1910 H   0  0  0  0  0  0  0  0  0  0  0  0
   38.6100   21.4710   41.2400 H   0  0  0  0  0  0  0  0  0  0  0  0
   38.8100   21.7990   39.4510 H   0  0  0  0  0  0  0  0  0  0  0  0
   38.6370   23.9040   41.7200 H   0  0  0  0  0  0  0  0  0  0  0  0
   39.1030   24.5160   39.6560 C   0  0  2  0  0  0  0  0  0  0  0  0
   40.4890   25.0870   40.0350 C   0  0  0  0  0  0  0  0  0  0  0  0
   39.3420   25.9810   40.0370 C   0  0  2  0  0  0  0  0  0  0  0  0
   39.1140   24.2270   38.5810 H   0  0  0  0  0  0  0  0  0  0  0  0
   40.8890   24.8020   41.0290 H   0  0  0  0  0  0  0  0  0  0  0  0
   41.2640   25.2070   39.2850 H   0  0  0  0  0  0  0  0  0  0  0  0
   39.1880   26.6250   39.1160 H   0  0  0  0  0  0  0  0  0  0  0  0
   38.7010   26.4950   41.2450 C   0  0  0  0  0  0  0  0  0  0  0  0
   37.3810   26.8210   41.4150 C   0  0  0  0  0  0  0  0  0  0  0  0
   36.7110   26.6700   40.5790 H   0  0  0  0  0  0  0  0  0  0  0  0
   36.8080   27.3130   42.5550 C   0  0  0  0  0  0  0  0  0  0  0  0
   35.7550   27.5440   42.6030 H   0  0  0  0  0  0  0  0  0  0  0  0
   37.6140   27.5110   43.6560 C   0  0  0  0  0  3  0  0  0  0  0  0
   38.9420   27.1910   43.5080 C   0  0  0  0  0  3  0  0  0  0  0  0
   39.4550   26.7090   42.3620 N   0  0  0  0  0  0  0  0  0  0  0  0
   35.7880   25.0490   37.7930 C   0  0  0  0  0  3  0  0  0  0  0  0
   35.8400   24.5230   38.9430 C   0  0  0  0  0  3  0  0  0  0  0  0
   33.4790   27.7620   36.8490 C   0  0  0  0  0  0  0  0  0  0  0  0
   34.0100   28.8660   37.4980 C   0  0  0  0  0  0  0  0  0  0  0  0
   35.1420   28.6540   38.2330 C   0  0  0  0  0  0  0  0  0  0  0  0
   35.6910   27.4120   38.3030 N   0  0  0  0  0  0  0  0  0  0  0  0
   35.1410   26.3560   37.6540 C   0  0  0  0  0  0  0  0  0  0  0  0
   34.0480   26.5620   36.9440 N   0  0  0  0  0  0  0  0  0  0  0  0
   32.5830   27.9250   36.2660 H   0  0  0  0  0  0  0  0  0  0  0  0
   33.6220   29.8610   37.4790 H   0  0  0  0  0  0  0  0  0  0  0  0
   35.8110   29.7180   38.9690 C   0  0  0  0  0  0  0  0  0  0  0  0
   35.6590   29.9320   40.3220 C   0  0  0  0  0  0  0  0  0  0  0  0
   36.2950   30.9400   41.0180 C   0  0  0  0  0  0  0  0  0  0  0  0
   37.1300   31.7950   40.3490 C   0  0  0  0  0  0  0  0  0  0  0  0
   37.3170   31.6260   39.0000 C   0  0  0  0  0  0  0  0  0  0  0  0
   36.6570   30.6000   38.3480 C   0  0  0  0  0  0  0  0  0  0  0  0
   34.9970   29.2630   40.8830 H   0  0  0  0  0  0  0  0  0  0  0  0
   36.1430   31.0690   42.0850 H   0  0  0  0  0  0  0  0  0  0  0  0
   37.6280   32.5870   40.8980 H   0  0  0  0  0  0  0  0  0  0  0  0
   37.9740   32.2870   38.4370 H   0  0  0  0  0  0  0  0  0  0  0  0
   36.8400   30.5120   37.2830 H   0  0  0  0  0  0  0  0  0  0  0  0
  1  4  1  0  0  0  0
  2  1  1  0  0  0  0
  3  1  1  0  0  0  0
  4  5  1  0  0  0  0
  4  6  1  0  0  0  0
  4  7  1  1  0  0  0
  5  6  1  0  0  0  0
  5  8  1  0  0  0  0
  6 10  1  1  0  0  0
  9  5  1  0  0  0  0
 11 14  1  6  0  0  0
 11 12  1  0  0  0  0
 11 13  1  0  0  0  0
 11  6  1  0  0  0  0
 12 13  1  0  0  0  0
 12 15  1  0  0  0  0
 13 17  1  6  0  0  0
 13 18  1  0  0  0  0
 16 12  1  0  0  0  0
 18 19  2  0  0  0  0
 18 25  1  0  0  0  0
 19 21  1  0  0  0  0
 20 19  1  0  0  0  0
 21 22  1  0  0  0  0
 21 23  2  0  0  0  0
 24 23  1  0  0  0  0
 25 24  2  0  0  0  0
 26 27  2  0  0  0  0
 27  1  1  0  0  0  0
 28 33  2  0  0  0  0
 28 29  1  0  0  0  0
 29 30  2  0  0  0  0
 30 31  1  0  0  0  0
 30 36  1  0  0  0  0
 32 26  1  0  0  0  0
 32 31  2  0  0  0  0
 33 32  1  0  0  0  0
 34 28  1  0  0  0  0
 35 29  1  0  0  0  0
 36 37  1  0  0  0  0
 37 42  1  0  0  0  0
 37 38  2  0  0  0  0
 38 43  1  0  0  0  0
 39 44  1  0  0  0  0
 39 38  1  0  0  0  0
 40 39  2  0  0  0  0
 41 36  2  0  0  0  0
 41 40  1  0  0  0  0
 45 40  1  0  0  0  0
 46 41  1  0  0  0  0
M  END
>  <minimizedAffinity>
-5.81639481

$$$$

 OpenBabel03252508193D

 46 50  0  0  1  0  0  0  0  0999 V2000
   34.9540   29.1220   38.3310 C   0  0  0  0  0  0  0  0  0  0  0  0
   34.5790   30.1170   38.7090 H   0  0  0  0  0  0  0  0  0  0  0  0
   34.5280   28.3830   38.9950 H   0  0  0  0  0  0  0  0  0  0  0  0
   36.4290   29.1370   38.1730 C   0  0  1  0  0  0  0  0  0  0  0  0
   36.9760   30.2040   37.2850 C   0  0  0  0  0  0  0  0  0  0  0  0
   37.2290   30.2560   38.7260 C   0  0  1  0  0  0  0  0  0  0  0  0
   36.8950   28.1520   37.8610 H   0  0  0  0  0  0  0  0  0  0  0  0
   37.8150   30.0510   36.5980 H   0  0  0  0  0  0  0  0  0  0  0  0
   36.2580   30.9680   36.8890 H   0  0  0  0  0  0  0  0  0  0  0  0
   38.2480   29.9530   39.0380 H   0  0  0  0  0  0  0  0  0  0  0  0
   36.5470   31.2330   39.6010 C   0  0  2  0  0  0  0  0  0  0  0  0
   37.4830   32.0410   40.5280 C   0  0  0  0  0  0  0  0  0  0  0  0
   36.6140   31.0350   41.1190 C   0  0  2  0  0  0  0  0  0  0  0  0
   35.7780   31.9180   39.1780 H   0  0  0  0  0  0  0  0  0  0  0  0
   38.5620   31.7900   40.4850 H   0  0  0  0  0  0  0  0  0  0  0  0
   37.2990   33.0930   40.7230 H   0  0  0  0  0  0  0  0  0  0  0  0
   35.6410   31.3970   41.5760 H   0  0  0  0  0  0  0  0  0  0  0  0
   37.0750   29.7470   41.6290 C   0  0  0  0  0  0  0  0  0  0  0  0
   36.3510   28.5890   41.7490 C   0  0  0  0  0  0  0  0  0  0  0  0
   35.3230   28.5990   41.4140 H   0  0  0  0  0  0  0  0  0  0  0  0
   36.8040   27.3970   42.2420 C   0  0  0  0  0  0  0  0  0  0  0  0
   36.1640   26.5310   42.3010 H   0  0  0  0  0  0  0  0  0  0  0  0
   38.1130   27.3250   42.6700 C   0  0  0  0  0  3  0  0  0  0  0  0
   38.8580   28.4740   42.5600 C   0  0  0  0  0  3  0  0  0  0  0  0
   38.3610   29.6220   42.0660 N   0  0  0  0  0  0  0  0  0  0  0  0
   33.0980   28.4050   37.0620 C   0  0  0  0  0  3  0  0  0  0  0  0
   34.2820   28.8480   37.0030 C   0  0  0  0  0  3  0  0  0  0  0  0
   31.6840   26.6010   34.1760 C   0  0  0  0  0  0  0  0  0  0  0  0
   31.0670   27.6070   33.4480 C   0  0  0  0  0  0  0  0  0  0  0  0
   31.1570   28.8700   33.9590 C   0  0  0  0  0  0  0  0  0  0  0  0
   31.8230   29.0930   35.1240 N   0  0  0  0  0  0  0  0  0  0  0  0
   32.4130   28.0810   35.8080 C   0  0  0  0  0  0  0  0  0  0  0  0
   32.3260   26.8610   35.3130 N   0  0  0  0  0  0  0  0  0  0  0  0
   31.6150   25.5990   33.7740 H   0  0  0  0  0  0  0  0  0  0  0  0
   30.5320   27.4910   32.5310 H   0  0  0  0  0  0  0  0  0  0  0  0
   30.5590   30.0270   33.3060 C   0  0  0  0  0  0  0  0  0  0  0  0
   29.8440   29.9630   32.1300 C   0  0  0  0  0  0  0  0  0  0  0  0
   29.2770   31.0600   31.5120 C   0  0  0  0  0  0  0  0  0  0  0  0
   29.4200   32.2980   32.0800 C   0  0  0  0  0  0  0  0  0  0  0  0
   30.1230   32.4180   33.2520 C   0  0  0  0  0  0  0  0  0  0  0  0
   30.6720   31.2870   33.8320 C   0  0  0  0  0  0  0  0  0  0  0  0
   29.7140   28.9850   31.6530 H   0  0  0  0  0  0  0  0  0  0  0  0
   28.7230   30.9590   30.5850 H   0  0  0  0  0  0  0  0  0  0  0  0
   28.9750   33.1590   31.5930 H   0  0  0  0  0  0  0  0  0  0  0  0
   30.2560   33.3860   33.7310 H   0  0  0  0  0  0  0  0  0  0  0  0
   31.2160   31.4390   34.7570 H   0  0  0  0  0  0  0  0  0  0  0  0
  1  2  1  0  0  0  0
  1  3  1  0  0  0  0
  4  7  1  6  0  0  0
  4  1  1  0  0  0  0
  4  6  1  0  0  0  0
  5  4  1  0  0  0  0
  5  6  1  0  0  0  0
  6 10  1  1  0  0  0
  6 11  1  0  0  0  0
  8  5  1  0  0  0  0
  9  5  1  0  0  0  0
 11 14  1  6  0  0  0
 11 12  1  0  0  0  0
 11 13  1  0  0  0  0
 12 16  1  0  0  0  0
 12 13  1  0  0  0  0
 13 17  1  1  0  0  0
 13 18  1  0  0  0  0
 15 12  1  0  0  0  0
 18 19  2  0  0  0  0
 18 25  1  0  0  0  0
 19 21  1  0  0  0  0
 20 19  1  0  0  0  0
 21 22  1  0  0  0  0
 21 23  2  0  0  0  0
 24 23  1  0  0  0  0
 25 24  2  0  0  0  0
 27 26  2  0  0  0  0
 27  1  1  0  0  0  0
 28 33  1  0  0  0  0
 29 30  1  0  0  0  0
 29 28  2  0  0  0  0
 30 31  2  0  0  0  0
 31 32  1  0  0  0  0
 32 26  1  0  0  0  0
 33 32  2  0  0  0  0
 34 28  1  0  0  0  0
 35 29  1  0  0  0  0
 36 41  1  0  0  0  0
 36 30  1  0  0  0  0
 37 36  2  0  0  0  0
 38 39  2  0  0  0  0
 38 37  1  0  0  0  0
 39 40  1  0  0  0  0
 40 45  1  0  0  0  0
 40 41  2  0  0  0  0
 41 46  1  0  0  0  0
 42 37  1  0  0  0  0
 43 38  1  0  0  0  0
 44 39  1  0  0  0  0
M  END
>  <minimizedAffinity>
-5.80667019

$$$$

 OpenBabel03252508193D

 46 50  0  0  1  0  0  0  0  0999 V2000
   37.8860   27.0160   38.3400 C   0  0  0  0  0  0  0  0  0  0  0  0
   37.7330   27.0440   37.2210 H   0  0  0  0  0  0  0  0  0  0  0  0
   38.7590   26.3990   38.4950 H   0  0  0  0  0  0  0  0  0  0  0  0
   36.6350   26.6280   39.0360 C   0  0  1  0  0  0  0  0  0  0  0  0
   35.9780   25.3820   38.5450 C   0  0  0  0  0  0  0  0  0  0  0  0
   36.5950   25.4050   39.8730 C   0  0  1  0  0  0  0  0  0  0  0  0
   35.8440   27.4370   39.1010 H   0  0  0  0  0  0  0  0  0  0  0  0
   34.8940   25.2620   38.4580 H   0  0  0  0  0  0  0  0  0  0  0  0
   36.5200   24.7820   37.7680 H   0  0  0  0  0  0  0  0  0  0  0  0
   35.8850   25.4790   40.7210 H   0  0  0  0  0  0  0  0  0  0  0  0
   37.8690   24.7100   40.1520 C   0  0  2  0  0  0  0  0  0  0  0  0
   37.8630   23.8210   41.4160 C   0  0  0  0  0  0  0  0  0  0  0  0
   38.6320   25.0560   41.4350 C   0  0  2  0  0  0  0  0  0  0  0  0
   38.4000   24.1710   39.3350 H   0  0  0  0  0  0  0  0  0  0  0  0
   36.9300   23.8170   42.0160 H   0  0  0  0  0  0  0  0  0  0  0  0
   38.3780   22.8660   41.4270 H   0  0  0  0  0  0  0  0  0  0  0  0
   39.7440   24.9740   41.2300 H   0  0  0  0  0  0  0  0  0  0  0  0
   38.2430   26.2570   42.1690 C   0  0  0  0  0  0  0  0  0  0  0  0
   38.9980   27.3770   42.3980 C   0  0  0  0  0  0  0  0  0  0  0  0
   39.9960   27.4080   41.9810 H   0  0  0  0  0  0  0  0  0  0  0  0
   38.6140   28.4850   43.1010 C   0  0  0  0  0  0  0  0  0  0  0  0
   39.2760   29.3260   43.2340 H   0  0  0  0  0  0  0  0  0  0  0  0
   37.3460   28.5040   43.6430 C   0  0  0  0  0  3  0  0  0  0  0  0
   36.5700   27.3910   43.4260 C   0  0  0  0  0  3  0  0  0  0  0  0
   36.9990   26.3260   42.7260 N   0  0  0  0  0  0  0  0  0  0  0  0
   37.4660   29.0910   39.3840 C   0  0  0  0  0  3  0  0  0  0  0  0
   38.3330   28.3940   38.7800 C   0  0  0  0  0  3  0  0  0  0  0  0
   37.4160   32.7230   40.0070 C   0  0  0  0  0  0  0  0  0  0  0  0
   38.6250   32.9490   40.6460 C   0  0  0  0  0  0  0  0  0  0  0  0
   39.4240   31.8580   40.8410 C   0  0  0  0  0  0  0  0  0  0  0  0
   39.0220   30.6300   40.4180 N   0  0  0  0  0  0  0  0  0  0  0  0
   37.8300   30.4500   39.7960 C   0  0  0  0  0  0  0  0  0  0  0  0
   37.0590   31.5040   39.6090 N   0  0  0  0  0  0  0  0  0  0  0  0
   36.7800   33.5850   39.8520 H   0  0  0  0  0  0  0  0  0  0  0  0
   38.9920   33.8880   41.0000 H   0  0  0  0  0  0  0  0  0  0  0  0
   40.7210   31.9410   41.4980 C   0  0  0  0  0  0  0  0  0  0  0  0
   41.7190   32.8140   41.1250 C   0  0  0  0  0  0  0  0  0  0  0  0
   42.9480   32.8920   41.7500 C   0  0  0  0  0  0  0  0  0  0  0  0
   43.2190   32.0620   42.8050 C   0  0  0  0  0  0  0  0  0  0  0  0
   42.2580   31.1730   43.2180 C   0  0  0  0  0  0  0  0  0  0  0  0
   41.0420   31.1340   42.5590 C   0  0  0  0  0  0  0  0  0  0  0  0
   41.5310   33.4900   40.2840 H   0  0  0  0  0  0  0  0  0  0  0  0
   43.7030   33.5960   41.4180 H   0  0  0  0  0  0  0  0  0  0  0  0
   44.1840   32.1240   43.2940 H   0  0  0  0  0  0  0  0  0  0  0  0
   42.4390   30.4990   44.0530 H   0  0  0  0  0  0  0  0  0  0  0  0
   40.3200   30.4130   42.9260 H   0  0  0  0  0  0  0  0  0  0  0  0
  1  3  1  0  0  0  0
  1 27  1  0  0  0  0
  1  4  1  0  0  0  0
  2  1  1  0  0  0  0
  4  7  1  1  0  0  0
  4  6  1  0  0  0  0
  5  4  1  0  0  0  0
  5  6  1  0  0  0  0
  6 11  1  0  0  0  0
  6 10  1  1  0  0  0
  8  5  1  0  0  0  0
  9  5  1  0  0  0  0
 11 14  1  6  0  0  0
 11 12  1  0  0  0  0
 11 13  1  0  0  0  0
 12 16  1  0  0  0  0
 12 13  1  0  0  0  0
 12 15  1  0  0  0  0
 13 17  1  6  0  0  0
 13 18  1  0  0  0  0
 18 19  2  0  0  0  0
 18 25  1  0  0  0  0
 19 21  1  0  0  0  0
 20 19  1  0  0  0  0
 21 22  1  0  0  0  0
 21 23  2  0  0  0  0
 24 23  1  0  0  0  0
 25 24  2  0  0  0  0
 26 32  1  0  0  0  0
 27 26  2  0  0  0  0
 28 29  1  0  0  0  0
 29 30  2  0  0  0  0
 29 35  1  0  0  0  0
 30 36  1  0  0  0  0
 31 30  1  0  0  0  0
 32 31  2  0  0  0  0
 33 32  1  0  0  0  0
 33 28  2  0  0  0  0
 34 28  1  0  0  0  0
 36 41  1  0  0  0  0
 37 36  2  0  0  0  0
 37 38  1  0  0  0  0
 38 39  2  0  0  0  0
 39 40  1  0  0  0  0
 39 44  1  0  0  0  0
 40 45  1  0  0  0  0
 41 46  1  0  0  0  0
 41 40  2  0  0  0  0
 42 37  1  0  0  0  0
 43 38  1  0  0  0  0
M  END
>  <minimizedAffinity>
-5.63996792

$$$$

 OpenBabel03252508193D

 46 50  0  0  1  0  0  0  0  0999 V2000
   39.4860   28.1630   43.1350 C   0  0  0  0  0  0  0  0  0  0  0  0
   40.2350   28.8170   43.6700 H   0  0  0  0  0  0  0  0  0  0  0  0
   38.6530   28.0640   43.8170 H   0  0  0  0  0  0  0  0  0  0  0  0
   40.1250   26.9180   42.6430 C   0  0  1  0  0  0  0  0  0  0  0  0
   40.1760   25.7870   43.6140 C   0  0  0  0  0  0  0  0  0  0  0  0
   39.3150   25.6950   42.4330 C   0  0  1  0  0  0  0  0  0  0  0  0
   41.1620   27.0460   42.2030 H   0  0  0  0  0  0  0  0  0  0  0  0
   41.0290   25.1080   43.7110 H   0  0  0  0  0  0  0  0  0  0  0  0
   39.6450   25.9200   44.5940 H   0  0  0  0  0  0  0  0  0  0  0  0
   39.7000   25.0500   41.6180 H   0  0  0  0  0  0  0  0  0  0  0  0
   37.8450   25.8090   42.5310 C   0  0  2  0  0  0  0  0  0  0  0  0
   37.0640   24.5500   42.0910 C   0  0  0  0  0  0  0  0  0  0  0  0
   37.0130   25.7330   41.2460 C   0  0  2  0  0  0  0  0  0  0  0  0
   37.3780   26.2180   43.4550 H   0  0  0  0  0  0  0  0  0  0  0  0
   37.6650   23.7010   41.7070 H   0  0  0  0  0  0  0  0  0  0  0  0
   36.1750   24.2320   42.6260 H   0  0  0  0  0  0  0  0  0  0  0  0
   36.1090   26.4090   41.3580 H   0  0  0  0  0  0  0  0  0  0  0  0
   37.7040   25.8610   39.9660 C   0  0  0  0  0  0  0  0  0  0  0  0
   37.9300   27.0070   39.2510 C   0  0  0  0  0  0  0  0  0  0  0  0
   37.5850   27.9430   39.6710 H   0  0  0  0  0  0  0  0  0  0  0  0
   38.5700   27.0990   38.0460 C   0  0  0  0  0  0  0  0  0  0  0  0
   38.7060   28.0460   37.5490 H   0  0  0  0  0  0  0  0  0  0  0  0
   39.0440   25.9380   37.4710 C   0  0  0  0  0  3  0  0  0  0  0  0
   38.8280   24.7760   38.1710 C   0  0  0  0  0  3  0  0  0  0  0  0
   38.1900   24.7430   39.3550 N   0  0  0  0  0  0  0  0  0  0  0  0
   38.9350   30.2170   42.1120 C   0  0  0  0  0  3  0  0  0  0  0  0
   38.9170   28.9590   41.9800 C   0  0  0  0  0  3  0  0  0  0  0  0
   37.8690   33.0700   40.0350 C   0  0  0  0  0  0  0  0  0  0  0  0
   37.2550   32.4590   38.9540 C   0  0  0  0  0  0  0  0  0  0  0  0
   37.2170   31.0930   38.9660 C   0  0  0  0  0  0  0  0  0  0  0  0
   37.7650   30.4020   40.0020 N   0  0  0  0  0  0  0  0  0  0  0  0
   38.3580   31.0380   41.0440 C   0  0  0  0  0  0  0  0  0  0  0  0
   38.3940   32.3570   41.0300 N   0  0  0  0  0  0  0  0  0  0  0  0
   37.9020   34.1510   40.0290 H   0  0  0  0  0  0  0  0  0  0  0  0
   36.8110   32.9490   38.1150 H   0  0  0  0  0  0  0  0  0  0  0  0
   36.6060   30.3140   37.8990 C   0  0  0  0  0  0  0  0  0  0  0  0
   37.0810   30.2740   36.6060 C   0  0  0  0  0  0  0  0  0  0  0  0
   36.5000   29.5340   35.5950 C   0  0  0  0  0  0  0  0  0  0  0  0
   35.3840   28.7870   35.8650 C   0  0  0  0  0  0  0  0  0  0  0  0
   34.8700   28.7920   37.1370 C   0  0  0  0  0  0  0  0  0  0  0  0
   35.4890   29.5500   38.1150 C   0  0  0  0  0  0  0  0  0  0  0  0
   37.9730   30.8610   36.3610 H   0  0  0  0  0  0  0  0  0  0  0  0
   36.9110   29.5350   34.5910 H   0  0  0  0  0  0  0  0  0  0  0  0
   34.9290   28.2070   35.0700 H   0  0  0  0  0  0  0  0  0  0  0  0
   33.9850   28.2100   37.3870 H   0  0  0  0  0  0  0  0  0  0  0  0
   35.0420   29.5170   39.1030 H   0  0  0  0  0  0  0  0  0  0  0  0
  1  2  1  0  0  0  0
  1  3  1  0  0  0  0
  4  7  1  6  0  0  0
  4  1  1  0  0  0  0
  4  5  1  0  0  0  0
  5  8  1  0  0  0  0
  5  9  1  0  0  0  0
  6 10  1  6  0  0  0
  6 11  1  0  0  0  0
  6  4  1  0  0  0  0
  6  5  1  0  0  0  0
 11 14  1  1  0  0  0
 12 11  1  0  0  0  0
 12 16  1  0  0  0  0
 13 17  1  1  0  0  0
 13 12  1  0  0  0  0
 13 11  1  0  0  0  0
 15 12  1  0  0  0  0
 18 13  1  0  0  0  0
 19 20  1  0  0  0  0
 19 18  2  0  0  0  0
 21 19  1  0  0  0  0
 22 21  1  0  0  0  0
 23 21  2  0  0  0  0
 23 24  1  0  0  0  0
 24 25  2  0  0  0  0
 25 18  1  0  0  0  0
 27 26  2  0  0  0  0
 27  1  1  0  0  0  0
 28 33  1  0  0  0  0
 29 30  1  0  0  0  0
 29 28  2  0  0  0  0
 30 31  2  0  0  0  0
 31 32  1  0  0  0  0
 32 26  1  0  0  0  0
 33 32  2  0  0  0  0
 34 28  1  0  0  0  0
 35 29  1  0  0  0  0
 36 41  1  0  0  0  0
 36 30  1  0  0  0  0
 37 36  2  0  0  0  0
 38 39  2  0  0  0  0
 38 37  1  0  0  0  0
 39 40  1  0  0  0  0
 40 45  1  0  0  0  0
 40 41  2  0  0  0  0
 41 46  1  0  0  0  0
 42 37  1  0  0  0  0
 43 38  1  0  0  0  0
 44 39  1  0  0  0  0
M  END
>  <minimizedAffinity>
-5.57367754

$$$$
