
 OpenBabel03242513373D

 33 36  0  0  0  0  0  0  0  0999 V2000
   47.3760   30.8440   45.6540 C   0  0  0  0  0  0  0  0  0  0  0  0
   47.0160   32.1380   45.3350 C   0  0  0  0  0  0  0  0  0  0  0  0
   46.3780   32.8860   46.2990 C   0  0  0  0  0  0  0  0  0  0  0  0
   46.0900   32.3930   47.5540 C   0  0  0  0  0  0  0  0  0  0  0  0
   45.5050   32.8350   48.6790 N   0  0  0  0  0  0  0  0  0  0  0  0
   45.5010   31.8820   49.6310 C   0  0  0  0  0  0  0  0  0  0  0  0
   46.1020   30.8140   49.0820 N   0  0  0  0  0  0  0  0  0  0  0  0
   46.4760   31.0910   47.8110 C   0  0  0  0  0  0  0  0  0  0  0  0
   47.1120   30.3020   46.8960 C   0  0  0  0  0  0  0  0  0  0  0  0
   47.8770   30.2600   44.8950 H   0  0  0  0  0  0  0  0  0  0  0  0
   46.0720   33.9060   46.1050 H   0  0  0  0  0  0  0  0  0  0  0  0
   45.1310   33.8110   48.7090 H   0  0  0  0  0  0  0  0  0  0  0  0
   45.0920   31.9770   50.6260 H   0  0  0  0  0  0  0  0  0  0  0  0
   47.3170   34.4450   42.5140 C   0  0  0  0  0  0  0  0  0  0  0  0
   47.8870   33.6410   41.5160 C   0  0  0  0  0  0  0  0  0  0  0  0
   48.1520   32.3230   41.8420 C   0  0  0  0  0  0  0  0  0  0  0  0
   47.8580   31.8680   43.0880 N   0  0  0  0  0  0  0  0  0  0  0  0
   47.3120   32.6720   44.0170 C   0  0  0  0  0  0  0  0  0  0  0  0
   47.0350   33.9590   43.7500 N   0  0  0  0  0  0  0  0  0  0  0  0
   47.0720   35.4880   42.3590 H   0  0  0  0  0  0  0  0  0  0  0  0
   48.5830   31.7320   41.0720 H   0  0  0  0  0  0  0  0  0  0  0  0
   48.1430   34.3010   40.2090 C   0  0  0  0  0  0  0  0  0  0  0  0
   48.6410   35.5520   40.4880 F   0  0  0  0  0  0  0  0  0  0  0  0
   46.9540   34.3990   39.5300 F   0  0  0  0  0  0  0  0  0  0  0  0
   49.0470   33.4910   39.5210 F   0  0  0  0  0  0  0  0  0  0  0  0
   47.4780   28.9400   47.2630 C   0  0  0  0  0  0  0  0  0  0  0  0
   48.7180   28.5740   47.7370 C   0  0  0  0  0  0  0  0  0  0  0  0
   49.4820   29.3180   47.8520 H   0  0  0  0  0  0  0  0  0  0  0  0
   49.0530   27.2790   48.0830 C   0  0  0  0  0  0  0  0  0  0  0  0
   50.0430   27.0530   48.4490 H   0  0  0  0  0  0  0  0  0  0  0  0
   48.0970   26.2920   47.9480 C   0  0  0  0  0  0  0  0  0  0  0  0
   46.8390   26.6620   47.4680 C   0  0  0  0  0  0  0  0  0  0  0  0
   46.5980   27.9340   47.1580 N   0  0  0  0  0  0  0  0  0  0  0  0
  1  9  1  0  0  0  0
  2  1  2  0  0  0  0
  2  3  1  0  0  0  0
  3  4  2  0  0  0  0
  4  8  1  0  0  0  0
  4  5  1  0  0  0  0
  5 12  1  0  0  0  0
  5  6  1  0  0  0  0
  6 13  1  0  0  0  0
  7  6  2  0  0  0  0
  8  7  1  0  0  0  0
  9 26  1  0  0  0  0
  9  8  2  0  0  0  0
 10  1  1  0  0  0  0
 11  3  1  0  0  0  0
 14 19  1  0  0  0  0
 15 16  1  0  0  0  0
 15 14  2  0  0  0  0
 16 17  2  0  0  0  0
 17 18  1  0  0  0  0
 18  2  1  0  0  0  0
 19 18  2  0  0  0  0
 20 14  1  0  0  0  0
 21 16  1  0  0  0  0
 22 23  1  0  0  0  0
 22 15  1  0  0  0  0
 24 22  1  0  0  0  0
 25 22  1  0  0  0  0
 26 27  1  0  0  0  0
 27 28  1  0  0  0  0
 27 29  2  0  0  0  0
 29 30  1  0  0  0  0
 31 29  1  0  0  0  0
 32 31  2  0  0  0  0
 33 26  2  0  0  0  0
 33 32  1  0  0  0  0
M  END
>  <minimizedAffinity>
-5.8105197

>  <minimizedRMSD>
0.795690715

$$$$
