
 OpenBabel03242515513D

 19 20  0  0  0  0  0  0  0  0999 V2000
   36.8050   31.6490   40.3160 C   0  0  0  0  0  0  0  0  0  0  0  0
   37.6150   32.7820   40.2540 C   0  0  0  0  0  0  0  0  0  0  0  0
   38.8520   32.7480   40.8780 C   0  0  0  0  0  0  0  0  0  0  0  0
   39.2040   31.6070   41.5180 N   0  0  0  0  0  0  0  0  0  0  0  0
   38.4080   30.5240   41.5670 C   0  0  0  0  0  0  0  0  0  0  0  0
   37.2060   30.5350   40.9680 N   0  0  0  0  0  0  0  0  0  0  0  0
   35.8350   31.6540   39.8340 H   0  0  0  0  0  0  0  0  0  0  0  0
   39.4530   33.6220   40.8180 H   0  0  0  0  0  0  0  0  0  0  0  0
   38.8600   29.3330   42.2760 C   0  0  0  0  0  0  0  0  0  0  0  0
   37.9720   28.5530   42.9760 C   0  0  0  0  0  0  0  0  0  0  0  0
   36.9160   28.8610   42.9820 H   0  0  0  0  0  0  0  0  0  0  0  0
   38.2890   27.4160   43.6770 C   0  0  0  0  0  0  0  0  0  0  0  0
   37.4970   26.8740   44.1990 H   0  0  0  0  0  0  0  0  0  0  0  0
   39.6170   27.0160   43.6790 C   0  0  0  0  0  3  0  0  0  0  0  0
   40.5080   27.7960   42.9780 C   0  0  0  0  0  3  0  0  0  0  0  0
   40.1240   28.9060   42.3100 N   0  0  0  0  0  0  0  0  0  0  0  0
   37.0850   33.9010   39.5350 N   0  0  0  0  0  0  0  0  0  0  0  0
   37.4520   34.0100   38.5510 H   0  0  0  0  0  0  0  0  0  0  0  0
   36.3950   34.6440   39.7990 H   0  0  0  0  0  0  0  0  0  0  0  0
  1  6  1  0  0  0  0
  2  1  2  0  0  0  0
  2  3  1  0  0  0  0
  3  4  2  0  0  0  0
  4  5  1  0  0  0  0
  5  9  1  0  0  0  0
  6  5  2  0  0  0  0
  7  1  1  0  0  0  0
  8  3  1  0  0  0  0
  9 16  2  0  0  0  0
  9 10  1  0  0  0  0
 10 11  1  0  0  0  0
 10 12  2  0  0  0  0
 12 14  1  0  0  0  0
 12 13  1  0  0  0  0
 15 14  2  0  0  0  0
 16 15  1  0  0  0  0
 17 19  1  0  0  0  0
 17  2  1  0  0  0  0
 18 17  1  0  0  0  0
M  END
>  <minimizedAffinity>
-4.49140596

$$$$

 OpenBabel03242515513D

 19 20  0  0  0  0  0  0  0  0999 V2000
   38.8320   31.9120   38.4430 C   0  0  0  0  0  0  0  0  0  0  0  0
   38.0430   31.5680   37.3460 C   0  0  0  0  0  0  0  0  0  0  0  0
   37.1190   30.5460   37.4870 C   0  0  0  0  0  0  0  0  0  0  0  0
   37.0350   29.9330   38.6930 N   0  0  0  0  0  0  0  0  0  0  0  0
   37.8050   30.2780   39.7400 C   0  0  0  0  0  0  0  0  0  0  0  0
   38.7070   31.2680   39.6250 N   0  0  0  0  0  0  0  0  0  0  0  0
   39.5600   32.7080   38.3550 H   0  0  0  0  0  0  0  0  0  0  0  0
   36.5290   30.3010   36.6380 H   0  0  0  0  0  0  0  0  0  0  0  0
   37.6540   29.5710   41.0050 C   0  0  0  0  0  0  0  0  0  0  0  0
   36.7300   28.5640   41.1420 C   0  0  0  0  0  0  0  0  0  0  0  0
   36.1120   28.3160   40.2670 H   0  0  0  0  0  0  0  0  0  0  0  0
   36.5050   27.8370   42.2840 C   0  0  0  0  0  0  0  0  0  0  0  0
   35.7400   27.0570   42.2770 H   0  0  0  0  0  0  0  0  0  0  0  0
   37.2760   28.1400   43.3970 C   0  0  0  0  0  3  0  0  0  0  0  0
   38.2030   29.1480   43.2620 C   0  0  0  0  0  3  0  0  0  0  0  0
   38.3700   29.8240   42.1040 N   0  0  0  0  0  0  0  0  0  0  0  0
   38.2640   32.3200   36.1470 N   0  0  0  0  0  0  0  0  0  0  0  0
   37.5630   33.0900   35.9720 H   0  0  0  0  0  0  0  0  0  0  0  0
   38.9960   32.2540   35.4000 H   0  0  0  0  0  0  0  0  0  0  0  0
  1  6  1  0  0  0  0
  2  3  1  0  0  0  0
  2  1  2  0  0  0  0
  3  4  2  0  0  0  0
  4  5  1  0  0  0  0
  5  9  1  0  0  0  0
  6  5  2  0  0  0  0
  7  1  1  0  0  0  0
  8  3  1  0  0  0  0
  9 10  2  0  0  0  0
  9 16  1  0  0  0  0
 10 12  1  0  0  0  0
 11 10  1  0  0  0  0
 12 14  2  0  0  0  0
 13 12  1  0  0  0  0
 15 14  1  0  0  0  0
 16 15  2  0  0  0  0
 17  2  1  0  0  0  0
 18 17  1  0  0  0  0
 19 17  1  0  0  0  0
M  END
>  <minimizedAffinity>
-4.33516884

$$$$

 OpenBabel03242515513D

 19 20  0  0  0  0  0  0  0  0999 V2000
   38.7490   30.2940   37.7760 C   0  0  0  0  0  0  0  0  0  0  0  0
   39.2200   31.5940   37.9510 C   0  0  0  0  0  0  0  0  0  0  0  0
   39.2570   32.1200   39.2320 C   0  0  0  0  0  0  0  0  0  0  0  0
   38.8300   31.3330   40.2490 N   0  0  0  0  0  0  0  0  0  0  0  0
   38.3780   30.0800   40.0610 C   0  0  0  0  0  0  0  0  0  0  0  0
   38.3340   29.5510   38.8270 N   0  0  0  0  0  0  0  0  0  0  0  0
   38.7110   29.8630   36.7830 H   0  0  0  0  0  0  0  0  0  0  0  0
   39.6200   33.1120   39.3420 H   0  0  0  0  0  0  0  0  0  0  0  0
   37.9350   29.2970   41.2070 C   0  0  0  0  0  0  0  0  0  0  0  0
   37.1660   28.1720   41.0350 C   0  0  0  0  0  0  0  0  0  0  0  0
   36.8990   27.8890   40.0070 H   0  0  0  0  0  0  0  0  0  0  0  0
   36.6960   27.3650   42.0420 C   0  0  0  0  0  0  0  0  0  0  0  0
   36.0900   26.4930   41.7860 H   0  0  0  0  0  0  0  0  0  0  0  0
   37.0250   27.7110   43.3450 C   0  0  0  0  0  3  0  0  0  0  0  0
   37.7960   28.8370   43.5190 C   0  0  0  0  0  3  0  0  0  0  0  0
   38.2240   29.5860   42.4790 N   0  0  0  0  0  0  0  0  0  0  0  0
   39.6310   32.2830   36.7650 N   0  0  0  0  0  0  0  0  0  0  0  0
   40.6750   32.2970   36.6000 H   0  0  0  0  0  0  0  0  0  0  0  0
   39.0930   32.7820   36.0180 H   0  0  0  0  0  0  0  0  0  0  0  0
  1  2  2  0  0  0  0
  1  6  1  0  0  0  0
  2  3  1  0  0  0  0
  3  8  1  0  0  0  0
  3  4  2  0  0  0  0
  5  4  1  0  0  0  0
  5  9  1  0  0  0  0
  6  5  2  0  0  0  0
  7  1  1  0  0  0  0
  9 16  1  0  0  0  0
 10  9  2  0  0  0  0
 10 12  1  0  0  0  0
 11 10  1  0  0  0  0
 12 14  2  0  0  0  0
 13 12  1  0  0  0  0
 14 15  1  0  0  0  0
 16 15  2  0  0  0  0
 17  2  1  0  0  0  0
 18 17  1  0  0  0  0
 19 17  1  0  0  0  0
M  END
>  <minimizedAffinity>
-4.27369881

$$$$

 OpenBabel03242515513D

 19 20  0  0  0  0  0  0  0  0999 V2000
   38.9810   30.2610   37.7710 C   0  0  0  0  0  0  0  0  0  0  0  0
   39.3760   31.5760   38.0100 C   0  0  0  0  0  0  0  0  0  0  0  0
   39.3070   32.0660   39.3040 C   0  0  0  0  0  0  0  0  0  0  0  0
   38.8530   31.2310   40.2700 N   0  0  0  0  0  0  0  0  0  0  0  0
   38.4760   29.9640   40.0210 C   0  0  0  0  0  0  0  0  0  0  0  0
   38.5360   29.4700   38.7730 N   0  0  0  0  0  0  0  0  0  0  0  0
   39.0280   29.8580   36.7670 H   0  0  0  0  0  0  0  0  0  0  0  0
   39.6130   33.0700   39.4630 H   0  0  0  0  0  0  0  0  0  0  0  0
   38.0000   29.1290   41.1150 C   0  0  0  0  0  0  0  0  0  0  0  0
   38.1340   29.5350   42.4200 C   0  0  0  0  0  0  0  0  0  0  0  0
   38.6130   30.5080   42.6050 H   0  0  0  0  0  0  0  0  0  0  0  0
   37.7230   28.8280   43.5230 C   0  0  0  0  0  0  0  0  0  0  0  0
   37.8840   29.2520   44.5170 H   0  0  0  0  0  0  0  0  0  0  0  0
   37.1190   27.5990   43.3050 C   0  0  0  0  0  3  0  0  0  0  0  0
   36.9830   27.1890   41.9990 C   0  0  0  0  0  3  0  0  0  0  0  0
   37.4120   27.9400   40.9600 N   0  0  0  0  0  0  0  0  0  0  0  0
   39.8290   32.3180   36.8720 N   0  0  0  0  0  0  0  0  0  0  0  0
   40.8790   32.3850   36.7760 H   0  0  0  0  0  0  0  0  0  0  0  0
   39.3150   32.8130   36.1050 H   0  0  0  0  0  0  0  0  0  0  0  0
  1  2  2  0  0  0  0
  1  6  1  0  0  0  0
  2  3  1  0  0  0  0
  3  8  1  0  0  0  0
  3  4  2  0  0  0  0
  5  4  1  0  0  0  0
  5  9  1  0  0  0  0
  6  5  2  0  0  0  0
  7  1  1  0  0  0  0
  9 10  1  0  0  0  0
 10 11  1  0  0  0  0
 10 12  2  0  0  0  0
 12 13  1  0  0  0  0
 14 12  1  0  0  0  0
 15 14  2  0  0  0  0
 16  9  2  0  0  0  0
 16 15  1  0  0  0  0
 17  2  1  0  0  0  0
 18 17  1  0  0  0  0
 19 17  1  0  0  0  0
M  END
>  <minimizedAffinity>
-4.25376511

$$$$

 OpenBabel03242515513D

 19 20  0  0  0  0  0  0  0  0999 V2000
   38.4230   31.0350   40.3760 C   0  0  0  0  0  0  0  0  0  0  0  0
   37.1450   31.5570   40.5700 C   0  0  0  0  0  0  0  0  0  0  0  0
   36.1530   30.7210   41.0570 C   0  0  0  0  0  0  0  0  0  0  0  0
   36.4870   29.4340   41.3200 N   0  0  0  0  0  0  0  0  0  0  0  0
   37.7250   28.9480   41.1260 C   0  0  0  0  0  0  0  0  0  0  0  0
   38.7010   29.7420   40.6540 N   0  0  0  0  0  0  0  0  0  0  0  0
   39.2130   31.6710   39.9960 H   0  0  0  0  0  0  0  0  0  0  0  0
   35.1880   31.1410   41.1970 H   0  0  0  0  0  0  0  0  0  0  0  0
   38.0040   27.5510   41.4330 C   0  0  0  0  0  0  0  0  0  0  0  0
   37.0070   26.7160   41.8740 C   0  0  0  0  0  0  0  0  0  0  0  0
   35.9990   27.1400   41.9870 H   0  0  0  0  0  0  0  0  0  0  0  0
   37.1600   25.3890   42.1910 C   0  0  0  0  0  0  0  0  0  0  0  0
   36.2920   24.8200   42.5340 H   0  0  0  0  0  0  0  0  0  0  0  0
   38.4270   24.8410   42.0550 C   0  0  0  0  0  3  0  0  0  0  0  0
   39.4270   25.6760   41.6120 C   0  0  0  0  0  3  0  0  0  0  0  0
   39.2030   26.9760   41.3180 N   0  0  0  0  0  0  0  0  0  0  0  0
   36.9690   32.9390   40.2400 N   0  0  0  0  0  0  0  0  0  0  0  0
   36.9870   33.5980   41.0660 H   0  0  0  0  0  0  0  0  0  0  0  0
   36.8250   33.4320   39.3270 H   0  0  0  0  0  0  0  0  0  0  0  0
  1  2  2  0  0  0  0
  1  6  1  0  0  0  0
  2  3  1  0  0  0  0
  3  8  1  0  0  0  0
  3  4  2  0  0  0  0
  5  4  1  0  0  0  0
  5  9  1  0  0  0  0
  6  5  2  0  0  0  0
  7  1  1  0  0  0  0
  9 10  1  0  0  0  0
 10 11  1  0  0  0  0
 10 12  2  0  0  0  0
 12 13  1  0  0  0  0
 14 12  1  0  0  0  0
 15 14  2  0  0  0  0
 16  9  2  0  0  0  0
 16 15  1  0  0  0  0
 17  2  1  0  0  0  0
 17 18  1  0  0  0  0
 19 17  1  0  0  0  0
M  END
>  <minimizedAffinity>
-4.20215845

$$$$

 OpenBabel03242515513D

 19 20  0  0  0  0  0  0  0  0999 V2000
   37.9060   30.2060   41.6070 C   0  0  0  0  0  0  0  0  0  0  0  0
   36.5700   29.8300   41.4680 C   0  0  0  0  0  0  0  0  0  0  0  0
   36.2370   28.4940   41.6250 C   0  0  0  0  0  0  0  0  0  0  0  0
   37.2370   27.6240   41.9060 N   0  0  0  0  0  0  0  0  0  0  0  0
   38.5200   28.0050   42.0360 C   0  0  0  0  0  0  0  0  0  0  0  0
   38.8640   29.2950   41.8890 N   0  0  0  0  0  0  0  0  0  0  0  0
   38.1880   31.2450   41.4900 H   0  0  0  0  0  0  0  0  0  0  0  0
   35.2140   28.2300   41.5150 H   0  0  0  0  0  0  0  0  0  0  0  0
   39.5380   27.0080   42.3400 C   0  0  0  0  0  0  0  0  0  0  0  0
   39.1860   25.7590   42.7910 C   0  0  0  0  0  0  0  0  0  0  0  0
   38.1140   25.5440   42.9140 H   0  0  0  0  0  0  0  0  0  0  0  0
   40.0600   24.7480   43.1070 C   0  0  0  0  0  0  0  0  0  0  0  0
   39.6640   23.7920   43.4580 H   0  0  0  0  0  0  0  0  0  0  0  0
   41.4150   25.0060   42.9580 C   0  0  0  0  0  3  0  0  0  0  0  0
   41.7700   26.2560   42.5060 C   0  0  0  0  0  3  0  0  0  0  0  0
   40.8520   27.2040   42.2140 N   0  0  0  0  0  0  0  0  0  0  0  0
   35.6450   30.8800   41.1700 N   0  0  0  0  0  0  0  0  0  0  0  0
   35.0970   31.2370   42.0000 H   0  0  0  0  0  0  0  0  0  0  0  0
   35.4010   31.3710   40.2770 H   0  0  0  0  0  0  0  0  0  0  0  0
  1  6  1  0  0  0  0
  2  1  2  0  0  0  0
  2  3  1  0  0  0  0
  3  4  2  0  0  0  0
  4  5  1  0  0  0  0
  5  9  1  0  0  0  0
  6  5  2  0  0  0  0
  7  1  1  0  0  0  0
  8  3  1  0  0  0  0
  9 10  1  0  0  0  0
 10 11  1  0  0  0  0
 10 12  2  0  0  0  0
 12 13  1  0  0  0  0
 14 12  1  0  0  0  0
 15 14  2  0  0  0  0
 16  9  2  0  0  0  0
 16 15  1  0  0  0  0
 17  2  1  0  0  0  0
 17 18  1  0  0  0  0
 19 17  1  0  0  0  0
M  END
>  <minimizedAffinity>
-4.09072638

$$$$

 OpenBabel03242515513D

 19 20  0  0  0  0  0  0  0  0999 V2000
   37.0410   32.3780   39.7390 C   0  0  0  0  0  0  0  0  0  0  0  0
   37.0600   31.4070   40.7390 C   0  0  0  0  0  0  0  0  0  0  0  0
   38.2850   30.9590   41.2070 C   0  0  0  0  0  0  0  0  0  0  0  0
   39.4030   31.4960   40.6590 N   0  0  0  0  0  0  0  0  0  0  0  0
   39.3650   32.4320   39.6940 C   0  0  0  0  0  0  0  0  0  0  0  0
   38.1880   32.8800   39.2270 N   0  0  0  0  0  0  0  0  0  0  0  0
   36.0950   32.7420   39.3590 H   0  0  0  0  0  0  0  0  0  0  0  0
   38.2750   30.2200   41.9690 H   0  0  0  0  0  0  0  0  0  0  0  0
   40.6120   32.9590   39.1570 C   0  0  0  0  0  0  0  0  0  0  0  0
   40.9670   32.7310   37.8500 C   0  0  0  0  0  0  0  0  0  0  0  0
   40.2790   32.1380   37.2300 H   0  0  0  0  0  0  0  0  0  0  0  0
   42.1150   33.1790   37.2440 C   0  0  0  0  0  0  0  0  0  0  0  0
   42.2930   32.9340   36.1940 H   0  0  0  0  0  0  0  0  0  0  0  0
   42.9930   33.9270   38.0140 C   0  0  0  0  0  3  0  0  0  0  0  0
   42.6400   34.1580   39.3240 C   0  0  0  0  0  3  0  0  0  0  0  0
   41.4910   33.6840   39.8540 N   0  0  0  0  0  0  0  0  0  0  0  0
   35.7840   30.9510   41.2020 N   0  0  0  0  0  0  0  0  0  0  0  0
   35.4620   31.3850   42.1100 H   0  0  0  0  0  0  0  0  0  0  0  0
   35.0990   30.2620   40.8120 H   0  0  0  0  0  0  0  0  0  0  0  0
  1  2  1  0  0  0  0
  2 17  1  0  0  0  0
  2  3  2  0  0  0  0
  3  8  1  0  0  0  0
  4  3  1  0  0  0  0
  5  4  2  0  0  0  0
  6  5  1  0  0  0  0
  6  1  2  0  0  0  0
  7  1  1  0  0  0  0
  9  5  1  0  0  0  0
  9 16  1  0  0  0  0
 10  9  2  0  0  0  0
 11 10  1  0  0  0  0
 12 10  1  0  0  0  0
 12 14  2  0  0  0  0
 13 12  1  0  0  0  0
 14 15  1  0  0  0  0
 15 16  2  0  0  0  0
 17 18  1  0  0  0  0
 19 17  1  0  0  0  0
M  END
>  <minimizedAffinity>
-4.04333878

$$$$

 OpenBabel03242515513D

 19 20  0  0  0  0  0  0  0  0999 V2000
   37.6020   24.4570   39.8020 C   0  0  0  0  0  0  0  0  0  0  0  0
   37.7440   23.7510   40.9960 C   0  0  0  0  0  0  0  0  0  0  0  0
   37.5850   24.4310   42.1930 C   0  0  0  0  0  0  0  0  0  0  0  0
   37.2990   25.7540   42.1320 N   0  0  0  0  0  0  0  0  0  0  0  0
   37.1660   26.4190   40.9710 C   0  0  0  0  0  0  0  0  0  0  0  0
   37.3160   25.7780   39.7990 N   0  0  0  0  0  0  0  0  0  0  0  0
   37.7220   23.9440   38.8560 H   0  0  0  0  0  0  0  0  0  0  0  0
   37.6970   23.8730   43.0890 H   0  0  0  0  0  0  0  0  0  0  0  0
   36.8570   27.8430   40.9890 C   0  0  0  0  0  0  0  0  0  0  0  0
   35.8250   28.3480   40.2370 C   0  0  0  0  0  0  0  0  0  0  0  0
   35.2460   27.6420   39.6240 H   0  0  0  0  0  0  0  0  0  0  0  0
   35.4490   29.6680   40.1810 C   0  0  0  0  0  0  0  0  0  0  0  0
   34.6100   29.9560   39.5440 H   0  0  0  0  0  0  0  0  0  0  0  0
   36.1710   30.5700   40.9480 C   0  0  0  0  0  3  0  0  0  0  0  0
   37.2050   30.0670   41.7030 C   0  0  0  0  0  3  0  0  0  0  0  0
   37.5180   28.7520   41.7090 N   0  0  0  0  0  0  0  0  0  0  0  0
   38.0480   22.3570   40.8750 N   0  0  0  0  0  0  0  0  0  0  0  0
   37.2200   21.7110   40.9950 H   0  0  0  0  0  0  0  0  0  0  0  0
   38.9420   21.8450   40.6880 H   0  0  0  0  0  0  0  0  0  0  0  0
  1  2  1  0  0  0  0
  2  3  2  0  0  0  0
  3  8  1  0  0  0  0
  4  3  1  0  0  0  0
  5  9  1  0  0  0  0
  5  4  2  0  0  0  0
  6  1  2  0  0  0  0
  6  5  1  0  0  0  0
  7  1  1  0  0  0  0
  9 16  1  0  0  0  0
 10  9  2  0  0  0  0
 11 10  1  0  0  0  0
 12 10  1  0  0  0  0
 12 14  2  0  0  0  0
 13 12  1  0  0  0  0
 14 15  1  0  0  0  0
 15 16  2  0  0  0  0
 17 18  1  0  0  0  0
 17  2  1  0  0  0  0
 19 17  1  0  0  0  0
M  END
>  <minimizedAffinity>
-3.97832012

$$$$

 OpenBabel03242515513D

 19 20  0  0  0  0  0  0  0  0999 V2000
   38.0390   27.6120   40.7240 C   0  0  0  0  0  0  0  0  0  0  0  0
   37.6570   27.2900   42.0260 C   0  0  0  0  0  0  0  0  0  0  0  0
   37.3920   28.3200   42.9140 C   0  0  0  0  0  0  0  0  0  0  0  0
   37.5230   29.5910   42.4620 N   0  0  0  0  0  0  0  0  0  0  0  0
   37.8930   29.8830   41.2020 C   0  0  0  0  0  0  0  0  0  0  0  0
   38.1530   28.8990   40.3250 N   0  0  0  0  0  0  0  0  0  0  0  0
   38.2500   26.8230   40.0140 H   0  0  0  0  0  0  0  0  0  0  0  0
   37.1030   28.0520   43.9000 H   0  0  0  0  0  0  0  0  0  0  0  0
   38.0100   31.2760   40.7930 C   0  0  0  0  0  0  0  0  0  0  0  0
   37.1350   31.8170   39.8820 C   0  0  0  0  0  0  0  0  0  0  0  0
   36.3500   31.1610   39.4770 H   0  0  0  0  0  0  0  0  0  0  0  0
   37.1550   33.1120   39.4280 C   0  0  0  0  0  0  0  0  0  0  0  0
   36.4070   33.4330   38.6990 H   0  0  0  0  0  0  0  0  0  0  0  0
   38.1410   33.9500   39.9290 C   0  0  0  0  0  3  0  0  0  0  0  0
   39.0180   33.4110   40.8420 C   0  0  0  0  0  3  0  0  0  0  0  0
   38.9380   32.1230   41.2440 N   0  0  0  0  0  0  0  0  0  0  0  0
   37.5700   25.8950   42.3330 N   0  0  0  0  0  0  0  0  0  0  0  0
   36.5910   25.4970   42.3170 H   0  0  0  0  0  0  0  0  0  0  0  0
   38.2980   25.1800   42.5740 H   0  0  0  0  0  0  0  0  0  0  0  0
  1  2  1  0  0  0  0
  2 17  1  0  0  0  0
  2  3  2  0  0  0  0
  3  8  1  0  0  0  0
  4  3  1  0  0  0  0
  5  4  2  0  0  0  0
  6  1  2  0  0  0  0
  6  5  1  0  0  0  0
  7  1  1  0  0  0  0
  9  5  1  0  0  0  0
  9 16  1  0  0  0  0
 10  9  2  0  0  0  0
 11 10  1  0  0  0  0
 12 10  1  0  0  0  0
 12 14  2  0  0  0  0
 13 12  1  0  0  0  0
 14 15  1  0  0  0  0
 15 16  2  0  0  0  0
 17 19  1  0  0  0  0
 18 17  1  0  0  0  0
M  END
>  <minimizedAffinity>
-3.97215271

$$$$
