
 OpenBabel03252508173D

 46 50  0  0  1  0  0  0  0  0999 V2000
   45.7310   32.7340   47.0850 C   0  0  0  0  0  0  0  0  0  0  0  0
   45.4080   33.6250   47.6980 H   0  0  0  0  0  0  0  0  0  0  0  0
   44.9180   32.0260   47.1580 H   0  0  0  0  0  0  0  0  0  0  0  0
   47.0830   32.2750   47.4870 C   0  0  1  0  0  0  0  0  0  0  0  0
   47.1940   31.7060   48.8610 C   0  0  0  0  0  0  0  0  0  0  0  0
   47.3500   30.8320   47.6970 C   0  0  1  0  0  0  0  0  0  0  0  0
   47.9130   33.0360   47.3570 H   0  0  0  0  0  0  0  0  0  0  0  0
   48.0490   31.8780   49.5220 H   0  0  0  0  0  0  0  0  0  0  0  0
   46.2450   31.5730   49.4450 H   0  0  0  0  0  0  0  0  0  0  0  0
   48.3940   30.5420   47.4620 H   0  0  0  0  0  0  0  0  0  0  0  0
   46.3040   29.8660   47.3020 C   0  0  2  0  0  0  0  0  0  0  0  0
   46.7350   28.3830   47.3530 C   0  0  0  0  0  0  0  0  0  0  0  0
   46.5290   29.0050   46.0540 C   0  0  2  0  0  0  0  0  0  0  0  0
   45.2760   29.9570   47.7190 H   0  0  0  0  0  0  0  0  0  0  0  0
   47.7880   28.1810   47.6360 H   0  0  0  0  0  0  0  0  0  0  0  0
   46.0490   27.6150   47.6970 H   0  0  0  0  0  0  0  0  0  0  0  0
   45.5280   28.8280   45.5500 H   0  0  0  0  0  0  0  0  0  0  0  0
   47.6040   29.3790   45.1400 C   0  0  0  0  0  0  0  0  0  0  0  0
   47.5170   30.1750   44.0280 C   0  0  0  0  0  0  0  0  0  0  0  0
   46.5530   30.6050   43.7900 H   0  0  0  0  0  0  0  0  0  0  0  0
   48.5390   30.5010   43.1810 C   0  0  0  0  0  0  0  0  0  0  0  0
   48.3800   31.1380   42.3240 H   0  0  0  0  0  0  0  0  0  0  0  0
   49.7930   29.9910   43.4470 C   0  0  0  0  0  3  0  0  0  0  0  0
   49.9040   29.1900   44.5570 C   0  0  0  0  0  3  0  0  0  0  0  0
   48.8640   28.9010   45.3590 N   0  0  0  0  0  0  0  0  0  0  0  0
   46.8500   33.4210   45.1230 C   0  0  0  0  0  3  0  0  0  0  0  0
   45.7230   33.1470   45.6280 C   0  0  0  0  0  3  0  0  0  0  0  0
   48.0230   34.4820   41.7940 C   0  0  0  0  0  0  0  0  0  0  0  0
   46.8440   34.6830   41.0940 C   0  0  0  0  0  0  0  0  0  0  0  0
   45.6840   34.4560   41.7790 C   0  0  0  0  0  0  0  0  0  0  0  0
   45.7220   34.0540   43.0780 N   0  0  0  0  0  0  0  0  0  0  0  0
   46.8980   33.8680   43.7290 C   0  0  0  0  0  0  0  0  0  0  0  0
   48.0180   34.0880   43.0660 N   0  0  0  0  0  0  0  0  0  0  0  0
   48.9450   34.6610   41.2560 H   0  0  0  0  0  0  0  0  0  0  0  0
   46.7540   34.9960   40.0770 H   0  0  0  0  0  0  0  0  0  0  0  0
   44.3690   34.6240   41.1760 C   0  0  0  0  0  0  0  0  0  0  0  0
   43.9980   34.0670   39.9720 C   0  0  0  0  0  0  0  0  0  0  0  0
   42.7510   34.2270   39.4010 C   0  0  0  0  0  0  0  0  0  0  0  0
   41.8080   34.9810   40.0480 C   0  0  0  0  0  0  0  0  0  0  0  0
   42.1260   35.5580   41.2510 C   0  0  0  0  0  0  0  0  0  0  0  0
   43.3900   35.3680   41.7810 C   0  0  0  0  0  0  0  0  0  0  0  0
   44.7310   33.4580   39.4310 H   0  0  0  0  0  0  0  0  0  0  0  0
   42.5050   33.7680   38.4490 H   0  0  0  0  0  0  0  0  0  0  0  0
   40.8290   35.1060   39.5980 H   0  0  0  0  0  0  0  0  0  0  0  0
   41.4010   36.1630   41.7920 H   0  0  0  0  0  0  0  0  0  0  0  0
   43.5880   35.8460   42.7340 H   0  0  0  0  0  0  0  0  0  0  0  0
  1  3  1  0  0  0  0
  1  4  1  0  0  0  0
  1  2  1  0  0  0  0
  4  7  1  6  0  0  0
  4  6  1  0  0  0  0
  4  5  1  0  0  0  0
  5  9  1  0  0  0  0
  5  8  1  0  0  0  0
  6 10  1  6  0  0  0
  6  5  1  0  0  0  0
 11 12  1  0  0  0  0
 11  6  1  0  0  0  0
 11 14  1  1  0  0  0
 12 15  1  0  0  0  0
 12 16  1  0  0  0  0
 13 17  1  6  0  0  0
 13 11  1  0  0  0  0
 13 12  1  0  0  0  0
 18 25  1  0  0  0  0
 18 13  1  0  0  0  0
 19 18  2  0  0  0  0
 20 19  1  0  0  0  0
 21 23  2  0  0  0  0
 21 19  1  0  0  0  0
 22 21  1  0  0  0  0
 23 24  1  0  0  0  0
 24 25  2  0  0  0  0
 26 27  2  0  0  0  0
 27  1  1  0  0  0  0
 28 33  1  0  0  0  0
 29 30  1  0  0  0  0
 29 28  2  0  0  0  0
 30 31  2  0  0  0  0
 31 32  1  0  0  0  0
 32 26  1  0  0  0  0
 33 32  2  0  0  0  0
 34 28  1  0  0  0  0
 35 29  1  0  0  0  0
 36 30  1  0  0  0  0
 36 41  1  0  0  0  0
 37 36  2  0  0  0  0
 38 37  1  0  0  0  0
 38 39  2  0  0  0  0
 39 40  1  0  0  0  0
 40 41  2  0  0  0  0
 40 45  1  0  0  0  0
 41 46  1  0  0  0  0
 42 37  1  0  0  0  0
 43 38  1  0  0  0  0
 44 39  1  0  0  0  0
M  END
>  <minimizedAffinity>
-5.21667433

>  <minimizedRMSD>
4.72765779

$$$$
