
 OpenBabel03252508163D

 36 39  0  0  1  0  0  0  0  0999 V2000
   39.1730   26.8380   43.5770 C   0  0  0  0  0  0  0  0  0  0  0  0
   38.1900   26.4960   43.9100 H   0  0  0  0  0  0  0  0  0  0  0  0
   39.8620   27.0450   44.4190 H   0  0  0  0  0  0  0  0  0  0  0  0
   39.7960   25.7320   42.7590 C   0  0  1  0  0  0  0  0  0  0  0  0
   39.7010   24.3560   43.3170 C   0  0  0  0  0  0  0  0  0  0  0  0
   38.9270   24.7060   42.1410 C   0  0  1  0  0  0  0  0  0  0  0  0
   40.7270   25.9920   42.2230 H   0  0  0  0  0  0  0  0  0  0  0  0
   40.5980   23.6890   43.1880 H   0  0  0  0  0  0  0  0  0  0  0  0
   39.2470   24.1780   44.3200 H   0  0  0  0  0  0  0  0  0  0  0  0
   39.3010   24.2950   41.1540 H   0  0  0  0  0  0  0  0  0  0  0  0
   37.4680   24.9420   42.1340 C   0  0  0  0  0  0  0  0  0  0  0  0
   36.6930   24.1010   41.0830 C   0  0  0  0  0  0  0  0  0  0  0  0
   36.8910   25.5560   40.8300 C   0  0  0  0  0  0  0  0  0  0  0  0
   36.9420   25.1600   43.0760 H   0  0  0  0  0  0  0  0  0  0  0  0
   37.2740   23.3920   40.4670 H   0  0  0  0  0  0  0  0  0  0  0  0
   35.7100   23.7500   41.4360 H   0  0  0  0  0  0  0  0  0  0  0  0
   37.6440   25.8940   40.0870 H   0  0  0  0  0  0  0  0  0  0  0  0
   36.0250   26.2150   41.0150 H   0  0  0  0  0  0  0  0  0  0  0  0
   37.8920   28.6230   42.7170 C   0  0  0  0  0  2  0  0  0  0  0  0
   39.0540   28.0990   42.7310 C   0  0  0  0  0  2  0  0  0  0  0  0
   36.2940   31.2720   40.7230 C   0  0  0  0  0  0  0  0  0  0  0  0
   37.3470   32.1190   40.3980 C   0  0  0  0  0  0  0  0  0  0  0  0
   38.5920   31.7570   40.8860 C   0  0  0  0  0  0  0  0  0  0  0  0
   38.6790   30.6440   41.6130 N   0  0  0  0  0  0  0  0  0  0  0  0
   37.6750   29.8370   41.9200 C   0  0  0  0  0  0  0  0  0  0  0  0
   36.4860   30.1740   41.4620 N   0  0  0  0  0  0  0  0  0  0  0  0
   35.3000   31.5420   40.3470 H   0  0  0  0  0  0  0  0  0  0  0  0
   37.2720   33.0120   39.8150 H   0  0  0  0  0  0  0  0  0  0  0  0
   39.8250   32.5210   40.6540 C   0  0  0  0  0  0  0  0  0  0  0  0
   39.8900   33.6210   39.8300 C   0  0  0  0  0  0  0  0  0  0  0  0
   39.0190   33.9570   39.3230 H   0  0  0  0  0  0  0  0  0  0  0  0
   41.0310   34.3440   39.6040 C   0  0  0  0  0  0  0  0  0  0  0  0
   41.0520   35.2030   38.9520 H   0  0  0  0  0  0  0  0  0  0  0  0
   42.2020   33.9710   40.2270 C   0  0  0  0  0  3  0  0  0  0  0  0
   42.1110   32.8640   41.0490 C   0  0  0  0  0  3  0  0  0  0  0  0
   40.9910   32.1840   41.2480 N   0  0  0  0  0  0  0  0  0  0  0  0
  1  2  1  0  0  0  0
  1  3  1  0  0  0  0
  4  7  1  6  0  0  0
  4  5  1  0  0  0  0
  4  1  1  0  0  0  0
  5  9  1  0  0  0  0
  6 10  1  6  0  0  0
  6  4  1  0  0  0  0
  6  5  1  0  0  0  0
  8  5  1  0  0  0  0
 11  6  1  0  0  0  0
 11 14  1  0  0  0  0
 12 16  1  0  0  0  0
 12 11  1  0  0  0  0
 13 18  1  0  0  0  0
 13 12  1  0  0  0  0
 13 11  1  0  0  0  0
 15 12  1  0  0  0  0
 17 13  1  0  0  0  0
 19 20  1  0  0  0  0
 20  1  1  0  0  0  0
 21 26  1  0  0  0  0
 22 21  2  0  0  0  0
 22 23  1  0  0  0  0
 23 24  2  0  0  0  0
 24 25  1  0  0  0  0
 25 19  1  0  0  0  0
 26 25  2  0  0  0  0
 27 21  1  0  0  0  0
 28 22  1  0  0  0  0
 29 23  1  0  0  0  0
 29 36  1  0  0  0  0
 30 29  2  0  0  0  0
 31 30  1  0  0  0  0
 32 30  1  0  0  0  0
 32 34  2  0  0  0  0
 33 32  1  0  0  0  0
 34 35  1  0  0  0  0
 35 36  2  0  0  0  0
M  END
>  <minimizedAffinity>
-5.4857769

$$$$

 OpenBabel03252508163D

 36 39  0  0  1  0  0  0  0  0999 V2000
   34.0280   28.9040   38.6360 C   0  0  0  0  0  0  0  0  0  0  0  0
   33.2090   29.5660   38.9300 H   0  0  0  0  0  0  0  0  0  0  0  0
   33.8260   27.8420   38.8780 H   0  0  0  0  0  0  0  0  0  0  0  0
   34.1820   28.9930   37.1370 C   0  0  1  0  0  0  0  0  0  0  0  0
   33.6450   27.8550   36.3430 C   0  0  0  0  0  0  0  0  0  0  0  0
   32.9770   29.1410   36.2890 C   0  0  1  0  0  0  0  0  0  0  0  0
   35.1140   29.4620   36.7720 H   0  0  0  0  0  0  0  0  0  0  0  0
   34.2450   27.5260   35.4500 H   0  0  0  0  0  0  0  0  0  0  0  0
   33.2140   26.9590   36.8500 H   0  0  0  0  0  0  0  0  0  0  0  0
   33.1310   29.7470   35.3440 H   0  0  0  0  0  0  0  0  0  0  0  0
   31.6940   29.4520   36.9530 C   0  0  0  0  0  0  0  0  0  0  0  0
   30.4750   29.4900   35.9920 C   0  0  0  0  0  0  0  0  0  0  0  0
   31.0130   30.7770   36.5170 C   0  0  0  0  0  0  0  0  0  0  0  0
   31.5040   29.0930   37.9770 H   0  0  0  0  0  0  0  0  0  0  0  0
   30.6550   29.2580   34.9270 H   0  0  0  0  0  0  0  0  0  0  0  0
   29.5510   29.0780   36.4320 H   0  0  0  0  0  0  0  0  0  0  0  0
   31.6210   31.4340   35.8610 H   0  0  0  0  0  0  0  0  0  0  0  0
   30.4460   31.2550   37.3350 H   0  0  0  0  0  0  0  0  0  0  0  0
   35.4250   28.9680   40.5360 C   0  0  0  0  0  2  0  0  0  0  0  0
   35.3300   29.3120   39.3120 C   0  0  0  0  0  2  0  0  0  0  0  0
   38.1700   28.9590   42.9870 C   0  0  0  0  0  0  0  0  0  0  0  0
   38.9180   30.0800   42.6480 C   0  0  0  0  0  0  0  0  0  0  0  0
   38.4570   30.8140   41.5680 C   0  0  0  0  0  0  0  0  0  0  0  0
   37.3520   30.3940   40.9520 N   0  0  0  0  0  0  0  0  0  0  0  0
   36.6400   29.3270   41.2780 C   0  0  0  0  0  0  0  0  0  0  0  0
   37.0720   28.6200   42.3030 N   0  0  0  0  0  0  0  0  0  0  0  0
   38.5200   28.3640   43.8400 H   0  0  0  0  0  0  0  0  0  0  0  0
   39.8040   30.4120   43.1450 H   0  0  0  0  0  0  0  0  0  0  0  0
   39.1070   32.0270   41.0540 C   0  0  0  0  0  0  0  0  0  0  0  0
   38.4160   33.1570   40.6820 C   0  0  0  0  0  0  0  0  0  0  0  0
   37.3560   33.1810   40.7600 H   0  0  0  0  0  0  0  0  0  0  0  0
   39.0070   34.2960   40.2020 C   0  0  0  0  0  0  0  0  0  0  0  0
   38.4380   35.1670   39.9190 H   0  0  0  0  0  0  0  0  0  0  0  0
   40.3780   34.3420   40.0730 C   0  0  0  0  0  3  0  0  0  0  0  0
   41.0500   33.1960   40.4530 C   0  0  0  0  0  3  0  0  0  0  0  0
   40.4490   32.1080   40.9140 N   0  0  0  0  0  0  0  0  0  0  0  0
  1  3  1  0  0  0  0
  1  2  1  0  0  0  0
  1 20  1  0  0  0  0
  4  7  1  6  0  0  0
  4  1  1  0  0  0  0
  5  9  1  0  0  0  0
  5  4  1  0  0  0  0
  6 10  1  6  0  0  0
  6  5  1  0  0  0  0
  6 11  1  0  0  0  0
  6  4  1  0  0  0  0
  8  5  1  0  0  0  0
 11 14  1  0  0  0  0
 12 16  1  0  0  0  0
 12 13  1  0  0  0  0
 12 11  1  0  0  0  0
 13 11  1  0  0  0  0
 13 18  1  0  0  0  0
 15 12  1  0  0  0  0
 17 13  1  0  0  0  0
 19 25  1  0  0  0  0
 20 19  1  0  0  0  0
 21 27  1  0  0  0  0
 22 21  1  0  0  0  0
 22 28  1  0  0  0  0
 23 22  2  0  0  0  0
 24 25  2  0  0  0  0
 24 23  1  0  0  0  0
 25 26  1  0  0  0  0
 26 21  2  0  0  0  0
 29 23  1  0  0  0  0
 30 31  1  0  0  0  0
 30 29  2  0  0  0  0
 32 30  1  0  0  0  0
 33 32  1  0  0  0  0
 34 32  2  0  0  0  0
 34 35  1  0  0  0  0
 35 36  2  0  0  0  0
 36 29  1  0  0  0  0
M  END
>  <minimizedAffinity>
-5.17543459

$$$$

 OpenBabel03252508163D

 36 39  0  0  1  0  0  0  0  0999 V2000
   38.3280   27.3100   43.6360 C   0  0  0  0  0  0  0  0  0  0  0  0
   37.5790   26.5650   43.9140 H   0  0  0  0  0  0  0  0  0  0  0  0
   38.7820   27.8090   44.5150 H   0  0  0  0  0  0  0  0  0  0  0  0
   39.4440   26.5980   42.9090 C   0  0  1  0  0  0  0  0  0  0  0  0
   40.0020   25.3860   43.5680 C   0  0  0  0  0  0  0  0  0  0  0  0
   39.2080   25.2430   42.3630 C   0  0  1  0  0  0  0  0  0  0  0  0
   40.1570   27.2430   42.3630 H   0  0  0  0  0  0  0  0  0  0  0  0
   41.1140   25.2310   43.4980 H   0  0  0  0  0  0  0  0  0  0  0  0
   39.6470   25.0720   44.5790 H   0  0  0  0  0  0  0  0  0  0  0  0
   39.7780   25.0050   41.4130 H   0  0  0  0  0  0  0  0  0  0  0  0
   37.8180   24.7410   42.3250 C   0  0  0  0  0  0  0  0  0  0  0  0
   37.5600   23.6700   41.2300 C   0  0  0  0  0  0  0  0  0  0  0  0
   37.0270   25.0460   41.0250 C   0  0  0  0  0  0  0  0  0  0  0  0
   37.2450   24.6390   43.2600 H   0  0  0  0  0  0  0  0  0  0  0  0
   38.4170   23.3560   40.6090 H   0  0  0  0  0  0  0  0  0  0  0  0
   36.8680   22.8710   41.5480 H   0  0  0  0  0  0  0  0  0  0  0  0
   37.5260   25.7350   40.3120 H   0  0  0  0  0  0  0  0  0  0  0  0
   35.9470   25.1930   41.2070 H   0  0  0  0  0  0  0  0  0  0  0  0
   38.5370   28.8740   41.8820 C   0  0  0  0  0  2  0  0  0  0  0  0
   37.7270   28.3790   42.7330 C   0  0  0  0  0  2  0  0  0  0  0  0
   37.7380   32.1550   40.4180 C   0  0  0  0  0  0  0  0  0  0  0  0
   37.0880   31.8370   39.2320 C   0  0  0  0  0  0  0  0  0  0  0  0
   36.9460   30.4850   38.9600 C   0  0  0  0  0  0  0  0  0  0  0  0
   37.4360   29.6150   39.8430 N   0  0  0  0  0  0  0  0  0  0  0  0
   38.0530   29.9210   40.9730 C   0  0  0  0  0  0  0  0  0  0  0  0
   38.1950   31.2040   41.2400 N   0  0  0  0  0  0  0  0  0  0  0  0
   37.8610   33.2200   40.6510 H   0  0  0  0  0  0  0  0  0  0  0  0
   36.6980   32.5380   38.5270 H   0  0  0  0  0  0  0  0  0  0  0  0
   36.2920   29.9480   37.7600 C   0  0  0  0  0  0  0  0  0  0  0  0
   35.0930   29.2740   37.7890 C   0  0  0  0  0  0  0  0  0  0  0  0
   34.5920   29.1210   38.7140 H   0  0  0  0  0  0  0  0  0  0  0  0
   34.4700   28.7670   36.6790 C   0  0  0  0  0  0  0  0  0  0  0  0
   33.5290   28.2430   36.7340 H   0  0  0  0  0  0  0  0  0  0  0  0
   35.0570   28.9270   35.4430 C   0  0  0  0  0  3  0  0  0  0  0  0
   36.2600   29.6060   35.4400 C   0  0  0  0  0  3  0  0  0  0  0  0
   36.8390   30.0850   36.5310 N   0  0  0  0  0  0  0  0  0  0  0  0
  1  2  1  0  0  0  0
  1  3  1  0  0  0  0
  4  7  1  6  0  0  0
  4  5  1  0  0  0  0
  4  1  1  0  0  0  0
  5  9  1  0  0  0  0
  6 10  1  6  0  0  0
  6  4  1  0  0  0  0
  6  5  1  0  0  0  0
  8  5  1  0  0  0  0
 11  6  1  0  0  0  0
 11 14  1  0  0  0  0
 12 16  1  0  0  0  0
 12 11  1  0  0  0  0
 13 18  1  0  0  0  0
 13 12  1  0  0  0  0
 13 11  1  0  0  0  0
 15 12  1  0  0  0  0
 17 13  1  0  0  0  0
 19 20  1  0  0  0  0
 20  1  1  0  0  0  0
 21 27  1  0  0  0  0
 21 26  1  0  0  0  0
 22 21  2  0  0  0  0
 23 22  1  0  0  0  0
 23 24  2  0  0  0  0
 24 25  1  0  0  0  0
 25 26  2  0  0  0  0
 25 19  1  0  0  0  0
 28 22  1  0  0  0  0
 29 30  1  0  0  0  0
 29 23  1  0  0  0  0
 30 31  1  0  0  0  0
 32 33  1  0  0  0  0
 32 30  2  0  0  0  0
 34 32  1  0  0  0  0
 35 34  2  0  0  0  0
 35 36  1  0  0  0  0
 36 29  2  0  0  0  0
M  END
>  <minimizedAffinity>
-5.08261585

$$$$

 OpenBabel03252508163D

 36 39  0  0  1  0  0  0  0  0999 V2000
   37.1630   28.7060   41.4580 C   0  0  0  0  0  0  0  0  0  0  0  0
   37.9510   28.0440   41.0910 H   0  0  0  0  0  0  0  0  0  0  0  0
   36.1660   28.4510   41.0480 H   0  0  0  0  0  0  0  0  0  0  0  0
   37.0790   28.5400   42.9570 C   0  0  1  0  0  0  0  0  0  0  0  0
   36.6070   27.2200   43.4550 C   0  0  0  0  0  0  0  0  0  0  0  0
   37.9950   27.5980   43.6370 C   0  0  1  0  0  0  0  0  0  0  0  0
   36.7610   29.4330   43.5260 H   0  0  0  0  0  0  0  0  0  0  0  0
   35.9290   27.2240   44.3540 H   0  0  0  0  0  0  0  0  0  0  0  0
   36.2740   26.4270   42.7440 H   0  0  0  0  0  0  0  0  0  0  0  0
   38.2990   27.9010   44.6860 H   0  0  0  0  0  0  0  0  0  0  0  0
   39.1260   27.0460   42.8620 C   0  0  0  0  0  0  0  0  0  0  0  0
   40.0570   26.1070   43.6780 C   0  0  0  0  0  0  0  0  0  0  0  0
   40.5410   27.4740   43.3360 C   0  0  0  0  0  0  0  0  0  0  0  0
   38.9960   26.8060   41.7950 H   0  0  0  0  0  0  0  0  0  0  0  0
   39.7880   25.9080   44.7300 H   0  0  0  0  0  0  0  0  0  0  0  0
   40.4340   25.2470   43.0990 H   0  0  0  0  0  0  0  0  0  0  0  0
   40.5650   28.2650   44.1140 H   0  0  0  0  0  0  0  0  0  0  0  0
   41.2650   27.5520   42.5050 H   0  0  0  0  0  0  0  0  0  0  0  0
   38.6990   30.4120   40.9160 C   0  0  0  0  0  2  0  0  0  0  0  0
   37.4670   30.1590   41.1180 C   0  0  0  0  0  2  0  0  0  0  0  0
   38.6060   34.0470   40.3470 C   0  0  0  0  0  0  0  0  0  0  0  0
   39.8980   34.3490   39.9360 C   0  0  0  0  0  0  0  0  0  0  0  0
   40.7800   33.2820   39.8720 C   0  0  0  0  0  0  0  0  0  0  0  0
   40.3260   32.0740   40.2030 N   0  0  0  0  0  0  0  0  0  0  0  0
   39.0940   31.7880   40.5930 C   0  0  0  0  0  0  0  0  0  0  0  0
   38.2480   32.7970   40.6590 N   0  0  0  0  0  0  0  0  0  0  0  0
   37.8930   34.8780   40.4060 H   0  0  0  0  0  0  0  0  0  0  0  0
   40.2580   35.3200   39.6720 H   0  0  0  0  0  0  0  0  0  0  0  0
   42.1870   33.3960   39.4630 C   0  0  0  0  0  0  0  0  0  0  0  0
   43.2130   33.6460   40.3440 C   0  0  0  0  0  0  0  0  0  0  0  0
   43.0070   33.7660   41.3790 H   0  0  0  0  0  0  0  0  0  0  0  0
   44.5290   33.7550   39.9790 C   0  0  0  0  0  0  0  0  0  0  0  0
   45.3130   33.9510   40.6930 H   0  0  0  0  0  0  0  0  0  0  0  0
   44.8770   33.6090   38.6540 C   0  0  0  0  0  3  0  0  0  0  0  0
   43.8290   33.3590   37.7880 C   0  0  0  0  0  3  0  0  0  0  0  0
   42.5640   33.2600   38.1720 N   0  0  0  0  0  0  0  0  0  0  0  0
  1  4  1  0  0  0  0
  2  1  1  0  0  0  0
  3  1  1  0  0  0  0
  4  5  1  0  0  0  0
  4  7  1  1  0  0  0
  4  6  1  0  0  0  0
  5  6  1  0  0  0  0
  5  8  1  0  0  0  0
  6 10  1  1  0  0  0
  9  5  1  0  0  0  0
 11 13  1  0  0  0  0
 11  6  1  0  0  0  0
 11 12  1  0  0  0  0
 12 15  1  0  0  0  0
 13 12  1  0  0  0  0
 13 17  1  0  0  0  0
 14 11  1  0  0  0  0
 16 12  1  0  0  0  0
 18 13  1  0  0  0  0
 19 20  1  0  0  0  0
 20  1  1  0  0  0  0
 21 27  1  0  0  0  0
 21 26  1  0  0  0  0
 22 21  2  0  0  0  0
 23 22  1  0  0  0  0
 23 24  2  0  0  0  0
 24 25  1  0  0  0  0
 25 26  2  0  0  0  0
 25 19  1  0  0  0  0
 28 22  1  0  0  0  0
 29 23  1  0  0  0  0
 29 30  1  0  0  0  0
 30 31  1  0  0  0  0
 32 30  2  0  0  0  0
 32 33  1  0  0  0  0
 34 32  1  0  0  0  0
 35 36  1  0  0  0  0
 35 34  2  0  0  0  0
 36 29  2  0  0  0  0
M  END
>  <minimizedAffinity>
-5.02953577

$$$$

 OpenBabel03252508163D

 36 39  0  0  1  0  0  0  0  0999 V2000
   36.2680   28.6060   41.4420 C   0  0  0  0  0  0  0  0  0  0  0  0
   36.0270   27.7020   40.8780 H   0  0  0  0  0  0  0  0  0  0  0  0
   35.3650   29.1430   41.7940 H   0  0  0  0  0  0  0  0  0  0  0  0
   37.0430   28.1940   42.6710 C   0  0  1  0  0  0  0  0  0  0  0  0
   36.3270   27.3360   43.6530 C   0  0  0  0  0  0  0  0  0  0  0  0
   37.4020   26.7710   42.8600 C   0  0  1  0  0  0  0  0  0  0  0  0
   37.7400   28.9480   43.0800 H   0  0  0  0  0  0  0  0  0  0  0  0
   36.5160   27.5390   44.7440 H   0  0  0  0  0  0  0  0  0  0  0  0
   35.2520   27.0750   43.5050 H   0  0  0  0  0  0  0  0  0  0  0  0
   38.3830   26.5940   43.4000 H   0  0  0  0  0  0  0  0  0  0  0  0
   37.2130   25.8480   41.7210 C   0  0  0  0  0  0  0  0  0  0  0  0
   37.3180   24.3450   42.0980 C   0  0  0  0  0  0  0  0  0  0  0  0
   38.4420   24.9760   41.3500 C   0  0  0  0  0  0  0  0  0  0  0  0
   36.5080   26.1060   40.9160 H   0  0  0  0  0  0  0  0  0  0  0  0
   37.4890   24.0940   43.1600 H   0  0  0  0  0  0  0  0  0  0  0  0
   36.6080   23.7020   41.5520 H   0  0  0  0  0  0  0  0  0  0  0  0
   39.3860   25.2300   41.8750 H   0  0  0  0  0  0  0  0  0  0  0  0
   38.5020   24.7600   40.2680 H   0  0  0  0  0  0  0  0  0  0  0  0
   37.8960   30.3050   41.2770 C   0  0  0  0  0  2  0  0  0  0  0  0
   37.1030   29.5670   40.6060 C   0  0  0  0  0  2  0  0  0  0  0  0
   39.4270   33.4480   40.1270 C   0  0  0  0  0  0  0  0  0  0  0  0
   40.3250   33.0390   39.1490 C   0  0  0  0  0  0  0  0  0  0  0  0
   40.3860   31.6750   38.9130 C   0  0  0  0  0  0  0  0  0  0  0  0
   39.5920   30.8800   39.6300 N   0  0  0  0  0  0  0  0  0  0  0  0
   38.7370   31.2730   40.5600 C   0  0  0  0  0  0  0  0  0  0  0  0
   38.6720   32.5680   40.7930 N   0  0  0  0  0  0  0  0  0  0  0  0
   39.3650   34.5250   40.3290 H   0  0  0  0  0  0  0  0  0  0  0  0
   40.9600   33.6800   38.5770 H   0  0  0  0  0  0  0  0  0  0  0  0
   41.2710   31.0460   37.9230 C   0  0  0  0  0  0  0  0  0  0  0  0
   41.0960   29.7630   37.4580 C   0  0  0  0  0  0  0  0  0  0  0  0
   40.2870   29.1740   37.8170 H   0  0  0  0  0  0  0  0  0  0  0  0
   41.9110   29.1620   36.5360 C   0  0  0  0  0  0  0  0  0  0  0  0
   41.7480   28.1540   36.1900 H   0  0  0  0  0  0  0  0  0  0  0  0
   42.9810   29.8620   36.0230 C   0  0  0  0  0  3  0  0  0  0  0  0
   43.1360   31.1480   36.5040 C   0  0  0  0  0  3  0  0  0  0  0  0
   42.3290   31.7020   37.3980 N   0  0  0  0  0  0  0  0  0  0  0  0
  1  3  1  0  0  0  0
  1  4  1  0  0  0  0
  2  1  1  0  0  0  0
  4  6  1  0  0  0  0
  4  7  1  1  0  0  0
  4  5  1  0  0  0  0
  5  8  1  0  0  0  0
  6 10  1  1  0  0  0
  6  5  1  0  0  0  0
  9  5  1  0  0  0  0
 11 12  1  0  0  0  0
 11  6  1  0  0  0  0
 12 15  1  0  0  0  0
 13 11  1  0  0  0  0
 13 17  1  0  0  0  0
 13 12  1  0  0  0  0
 14 11  1  0  0  0  0
 16 12  1  0  0  0  0
 18 13  1  0  0  0  0
 20 19  1  0  0  0  0
 20  1  1  0  0  0  0
 21 27  1  0  0  0  0
 21 26  1  0  0  0  0
 22 21  2  0  0  0  0
 23 22  1  0  0  0  0
 23 24  2  0  0  0  0
 24 25  1  0  0  0  0
 25 26  2  0  0  0  0
 25 19  1  0  0  0  0
 28 22  1  0  0  0  0
 29 23  1  0  0  0  0
 30 31  1  0  0  0  0
 30 29  1  0  0  0  0
 32 30  2  0  0  0  0
 33 32  1  0  0  0  0
 34 35  2  0  0  0  0
 34 32  1  0  0  0  0
 35 36  1  0  0  0  0
 36 29  2  0  0  0  0
M  END
>  <minimizedAffinity>
-5.01328897

$$$$

 OpenBabel03252508163D

 36 39  0  0  1  0  0  0  0  0999 V2000
   39.0250   26.8420   43.3430 C   0  0  0  0  0  0  0  0  0  0  0  0
   38.0060   26.5140   43.5620 H   0  0  0  0  0  0  0  0  0  0  0  0
   39.6130   27.0540   44.2580 H   0  0  0  0  0  0  0  0  0  0  0  0
   39.7270   25.7190   42.6170 C   0  0  1  0  0  0  0  0  0  0  0  0
   39.6880   24.3800   43.2650 C   0  0  0  0  0  0  0  0  0  0  0  0
   38.9300   24.6090   42.0500 C   0  0  1  0  0  0  0  0  0  0  0  0
   40.6590   25.9920   42.0880 H   0  0  0  0  0  0  0  0  0  0  0  0
   40.6210   23.7540   43.2040 H   0  0  0  0  0  0  0  0  0  0  0  0
   39.2160   24.2450   44.2670 H   0  0  0  0  0  0  0  0  0  0  0  0
   39.3530   24.1530   41.1020 H   0  0  0  0  0  0  0  0  0  0  0  0
   37.4620   24.7670   41.9910 C   0  0  0  0  0  0  0  0  0  0  0  0
   36.7660   23.8500   40.9470 C   0  0  0  0  0  0  0  0  0  0  0  0
   36.8950   25.3040   40.6490 C   0  0  0  0  0  0  0  0  0  0  0  0
   36.8950   24.9870   42.9090 H   0  0  0  0  0  0  0  0  0  0  0  0
   37.4030   23.1530   40.3740 H   0  0  0  0  0  0  0  0  0  0  0  0
   35.7920   23.4580   41.2830 H   0  0  0  0  0  0  0  0  0  0  0  0
   37.6520   25.6570   39.9180 H   0  0  0  0  0  0  0  0  0  0  0  0
   35.9900   25.9220   40.7850 H   0  0  0  0  0  0  0  0  0  0  0  0
   37.8640   28.5060   42.1400 C   0  0  0  0  0  2  0  0  0  0  0  0
   39.0220   28.0930   42.4740 C   0  0  0  0  0  2  0  0  0  0  0  0
   36.6220   31.5940   40.5690 C   0  0  0  0  0  0  0  0  0  0  0  0
   37.6080   31.9110   39.6430 C   0  0  0  0  0  0  0  0  0  0  0  0
   38.6900   31.0480   39.5870 C   0  0  0  0  0  0  0  0  0  0  0  0
   38.6980   30.0010   40.4120 N   0  0  0  0  0  0  0  0  0  0  0  0
   37.7570   29.7000   41.2930 C   0  0  0  0  0  0  0  0  0  0  0  0
   36.7240   30.5160   41.3540 N   0  0  0  0  0  0  0  0  0  0  0  0
   35.7570   32.2660   40.6290 H   0  0  0  0  0  0  0  0  0  0  0  0
   37.5970   32.7530   38.9840 H   0  0  0  0  0  0  0  0  0  0  0  0
   39.8330   31.2120   38.6780 C   0  0  0  0  0  0  0  0  0  0  0  0
   40.5440   30.1560   38.1590 C   0  0  0  0  0  0  0  0  0  0  0  0
   40.2750   29.1590   38.4110 H   0  0  0  0  0  0  0  0  0  0  0  0
   41.6110   30.2920   37.3100 C   0  0  0  0  0  0  0  0  0  0  0  0
   42.1500   29.4440   36.9190 H   0  0  0  0  0  0  0  0  0  0  0  0
   42.0200   31.5530   36.9360 C   0  0  0  0  0  3  0  0  0  0  0  0
   41.2900   32.5980   37.4710 C   0  0  0  0  0  3  0  0  0  0  0  0
   40.2610   32.4340   38.2900 N   0  0  0  0  0  0  0  0  0  0  0  0
  1  2  1  0  0  0  0
  1  3  1  0  0  0  0
  4  7  1  6  0  0  0
  4  5  1  0  0  0  0
  4  1  1  0  0  0  0
  5  9  1  0  0  0  0
  6 10  1  6  0  0  0
  6  4  1  0  0  0  0
  6  5  1  0  0  0  0
  8  5  1  0  0  0  0
 11  6  1  0  0  0  0
 11 14  1  0  0  0  0
 12 16  1  0  0  0  0
 12 11  1  0  0  0  0
 13 18  1  0  0  0  0
 13 12  1  0  0  0  0
 13 11  1  0  0  0  0
 15 12  1  0  0  0  0
 17 13  1  0  0  0  0
 19 20  1  0  0  0  0
 20  1  1  0  0  0  0
 21 27  1  0  0  0  0
 21 26  1  0  0  0  0
 22 21  2  0  0  0  0
 23 22  1  0  0  0  0
 23 24  2  0  0  0  0
 24 25  1  0  0  0  0
 25 26  2  0  0  0  0
 25 19  1  0  0  0  0
 28 22  1  0  0  0  0
 29 23  1  0  0  0  0
 30 31  1  0  0  0  0
 30 29  2  0  0  0  0
 32 30  1  0  0  0  0
 33 32  1  0  0  0  0
 34 32  2  0  0  0  0
 34 35  1  0  0  0  0
 35 36  2  0  0  0  0
 36 29  1  0  0  0  0
M  END
>  <minimizedAffinity>
-4.93649817

$$$$

 OpenBabel03252508163D

 36 39  0  0  1  0  0  0  0  0999 V2000
   33.3120   28.0490   36.9140 C   0  0  0  0  0  0  0  0  0  0  0  0
   32.3560   27.8180   37.3920 H   0  0  0  0  0  0  0  0  0  0  0  0
   33.5900   27.3100   36.1370 H   0  0  0  0  0  0  0  0  0  0  0  0
   33.1750   29.3850   36.2240 C   0  0  1  0  0  0  0  0  0  0  0  0
   32.3570   29.4120   34.9810 C   0  0  0  0  0  0  0  0  0  0  0  0
   31.8530   30.0500   36.1820 C   0  0  1  0  0  0  0  0  0  0  0  0
   34.0660   30.0380   36.2510 H   0  0  0  0  0  0  0  0  0  0  0  0
   32.7240   30.0660   34.1420 H   0  0  0  0  0  0  0  0  0  0  0  0
   31.9300   28.4720   34.5590 H   0  0  0  0  0  0  0  0  0  0  0  0
   31.8880   31.1820   36.2010 H   0  0  0  0  0  0  0  0  0  0  0  0
   30.7740   29.5070   37.0340 C   0  0  0  0  0  0  0  0  0  0  0  0
   29.6800   30.5440   37.4090 C   0  0  0  0  0  0  0  0  0  0  0  0
   30.6590   30.1270   38.4520 C   0  0  0  0  0  0  0  0  0  0  0  0
   30.4430   28.4650   36.9040 H   0  0  0  0  0  0  0  0  0  0  0  0
   29.7770   31.5630   36.9950 H   0  0  0  0  0  0  0  0  0  0  0  0
   28.6610   30.1210   37.4340 H   0  0  0  0  0  0  0  0  0  0  0  0
   31.4840   30.8100   38.7440 H   0  0  0  0  0  0  0  0  0  0  0  0
   30.3040   29.4040   39.2070 H   0  0  0  0  0  0  0  0  0  0  0  0
   34.2740   28.9890   38.8520 C   0  0  0  0  0  2  0  0  0  0  0  0
   34.4350   28.1130   37.9400 C   0  0  0  0  0  2  0  0  0  0  0  0
   36.6090   30.4390   41.2990 C   0  0  0  0  0  0  0  0  0  0  0  0
   37.2930   29.3360   41.7950 C   0  0  0  0  0  0  0  0  0  0  0  0
   36.9220   28.1070   41.2750 C   0  0  0  0  0  0  0  0  0  0  0  0
   35.9580   28.0820   40.3550 N   0  0  0  0  0  0  0  0  0  0  0  0
   35.3100   29.1340   39.8820 C   0  0  0  0  0  0  0  0  0  0  0  0
   35.6540   30.3090   40.3720 N   0  0  0  0  0  0  0  0  0  0  0  0
   36.8880   31.4220   41.6990 H   0  0  0  0  0  0  0  0  0  0  0  0
   38.0650   29.3610   42.5340 H   0  0  0  0  0  0  0  0  0  0  0  0
   37.5230   26.8260   41.6720 C   0  0  0  0  0  0  0  0  0  0  0  0
   37.0320   25.6040   41.2730 C   0  0  0  0  0  0  0  0  0  0  0  0
   36.1750   25.5550   40.6460 H   0  0  0  0  0  0  0  0  0  0  0  0
   37.5800   24.4020   41.6340 C   0  0  0  0  0  0  0  0  0  0  0  0
   37.1720   23.4590   41.3060 H   0  0  0  0  0  0  0  0  0  0  0  0
   38.6930   24.3830   42.4460 C   0  0  0  0  0  3  0  0  0  0  0  0
   39.1680   25.6220   42.8320 C   0  0  0  0  0  3  0  0  0  0  0  0
   38.6150   26.7700   42.4660 N   0  0  0  0  0  0  0  0  0  0  0  0
  1  2  1  0  0  0  0
  1 20  1  0  0  0  0
  3  1  1  0  0  0  0
  4  7  1  1  0  0  0
  4  1  1  0  0  0  0
  5  6  1  0  0  0  0
  5  4  1  0  0  0  0
  6 10  1  6  0  0  0
  6  4  1  0  0  0  0
  6 11  1  0  0  0  0
  8  5  1  0  0  0  0
  9  5  1  0  0  0  0
 11 12  1  0  0  0  0
 11 13  1  0  0  0  0
 12 16  1  0  0  0  0
 12 13  1  0  0  0  0
 13 17  1  0  0  0  0
 13 18  1  0  0  0  0
 14 11  1  0  0  0  0
 15 12  1  0  0  0  0
 19 25  1  0  0  0  0
 20 19  1  0  0  0  0
 21 27  1  0  0  0  0
 21 22  1  0  0  0  0
 22 28  1  0  0  0  0
 23 29  1  0  0  0  0
 23 22  2  0  0  0  0
 24 23  1  0  0  0  0
 25 24  2  0  0  0  0
 25 26  1  0  0  0  0
 26 21  2  0  0  0  0
 29 36  1  0  0  0  0
 30 32  1  0  0  0  0
 30 29  2  0  0  0  0
 31 30  1  0  0  0  0
 32 34  2  0  0  0  0
 33 32  1  0  0  0  0
 34 35  1  0  0  0  0
 36 35  2  0  0  0  0
M  END
>  <minimizedAffinity>
-4.92175674

$$$$

 OpenBabel03252508163D

 36 39  0  0  1  0  0  0  0  0999 V2000
   36.8290   31.2910   40.8000 C   0  0  0  0  0  0  0  0  0  0  0  0
   37.1760   31.9590   41.5930 H   0  0  0  0  0  0  0  0  0  0  0  0
   35.7240   31.2520   40.7270 H   0  0  0  0  0  0  0  0  0  0  0  0
   37.3390   31.8290   39.4850 C   0  0  1  0  0  0  0  0  0  0  0  0
   37.1870   33.2920   39.2590 C   0  0  0  0  0  0  0  0  0  0  0  0
   38.5090   32.7360   39.4740 C   0  0  1  0  0  0  0  0  0  0  0  0
   37.2050   31.1710   38.6070 H   0  0  0  0  0  0  0  0  0  0  0  0
   36.9090   33.6230   38.2200 H   0  0  0  0  0  0  0  0  0  0  0  0
   36.6610   33.9320   40.0060 H   0  0  0  0  0  0  0  0  0  0  0  0
   39.1720   32.6490   38.5590 H   0  0  0  0  0  0  0  0  0  0  0  0
   39.2900   32.8780   40.7210 C   0  0  0  0  0  0  0  0  0  0  0  0
   40.7440   33.3800   40.5060 C   0  0  0  0  0  0  0  0  0  0  0  0
   40.5250   31.9470   40.8520 C   0  0  0  0  0  0  0  0  0  0  0  0
   38.7900   33.1980   41.6480 H   0  0  0  0  0  0  0  0  0  0  0  0
   41.0570   33.6130   39.4720 H   0  0  0  0  0  0  0  0  0  0  0  0
   41.0930   34.0720   41.2900 H   0  0  0  0  0  0  0  0  0  0  0  0
   40.6200   31.1660   40.0710 H   0  0  0  0  0  0  0  0  0  0  0  0
   40.7290   31.6530   41.8970 H   0  0  0  0  0  0  0  0  0  0  0  0
   37.7930   29.6420   42.1830 C   0  0  0  0  0  2  0  0  0  0  0  0
   37.3470   29.8750   41.0120 C   0  0  0  0  0  2  0  0  0  0  0  0
   39.7300   26.8900   43.6740 C   0  0  0  0  0  0  0  0  0  0  0  0
   39.3070   25.7700   42.9700 C   0  0  0  0  0  0  0  0  0  0  0  0
   38.3490   25.9920   41.9930 C   0  0  0  0  0  0  0  0  0  0  0  0
   37.9190   27.2410   41.8120 N   0  0  0  0  0  0  0  0  0  0  0  0
   38.3260   28.3070   42.4830 C   0  0  0  0  0  0  0  0  0  0  0  0
   39.2350   28.1050   43.4150 N   0  0  0  0  0  0  0  0  0  0  0  0
   40.4880   26.7340   44.4520 H   0  0  0  0  0  0  0  0  0  0  0  0
   39.6540   24.7700   43.1200 H   0  0  0  0  0  0  0  0  0  0  0  0
   37.7730   24.9400   41.1450 C   0  0  0  0  0  0  0  0  0  0  0  0
   36.7480   25.1620   40.2550 C   0  0  0  0  0  0  0  0  0  0  0  0
   36.3310   26.1340   40.1560 H   0  0  0  0  0  0  0  0  0  0  0  0
   36.2010   24.1920   39.4570 C   0  0  0  0  0  0  0  0  0  0  0  0
   35.3960   24.3970   38.7680 H   0  0  0  0  0  0  0  0  0  0  0  0
   36.6880   22.9050   39.5270 C   0  0  0  0  0  3  0  0  0  0  0  0
   37.7180   22.7080   40.4270 C   0  0  0  0  0  3  0  0  0  0  0  0
   38.2260   23.6670   41.1870 N   0  0  0  0  0  0  0  0  0  0  0  0
  1 20  1  0  0  0  0
  1  2  1  0  0  0  0
  3  1  1  0  0  0  0
  4  7  1  6  0  0  0
  4  1  1  0  0  0  0
  5  6  1  0  0  0  0
  5  4  1  0  0  0  0
  5  9  1  0  0  0  0
  6 10  1  6  0  0  0
  6  4  1  0  0  0  0
  6 11  1  0  0  0  0
  8  5  1  0  0  0  0
 11 13  1  0  0  0  0
 11 14  1  0  0  0  0
 12 11  1  0  0  0  0
 12 13  1  0  0  0  0
 12 16  1  0  0  0  0
 13 18  1  0  0  0  0
 15 12  1  0  0  0  0
 17 13  1  0  0  0  0
 19 25  1  0  0  0  0
 20 19  1  0  0  0  0
 21 27  1  0  0  0  0
 22 28  1  0  0  0  0
 22 21  2  0  0  0  0
 23 22  1  0  0  0  0
 24 23  2  0  0  0  0
 24 25  1  0  0  0  0
 25 26  2  0  0  0  0
 26 21  1  0  0  0  0
 29 36  1  0  0  0  0
 29 23  1  0  0  0  0
 30 29  2  0  0  0  0
 31 30  1  0  0  0  0
 32 34  2  0  0  0  0
 32 30  1  0  0  0  0
 33 32  1  0  0  0  0
 34 35  1  0  0  0  0
 35 36  2  0  0  0  0
M  END
>  <minimizedAffinity>
-4.88853168

$$$$

 OpenBabel03252508163D

 36 39  0  0  1  0  0  0  0  0999 V2000
   35.0100   29.0580   36.1840 C   0  0  0  0  0  0  0  0  0  0  0  0
   34.5560   29.8840   35.6330 H   0  0  0  0  0  0  0  0  0  0  0  0
   34.3040   28.2220   36.3610 H   0  0  0  0  0  0  0  0  0  0  0  0
   36.1430   28.5090   35.3500 C   0  0  1  0  0  0  0  0  0  0  0  0
   35.7700   27.8700   34.0590 C   0  0  0  0  0  0  0  0  0  0  0  0
   36.4630   29.1440   34.0520 C   0  0  1  0  0  0  0  0  0  0  0  0
   36.9820   28.0560   35.9090 H   0  0  0  0  0  0  0  0  0  0  0  0
   36.3430   26.9480   33.7610 H   0  0  0  0  0  0  0  0  0  0  0  0
   34.6990   27.7510   33.7700 H   0  0  0  0  0  0  0  0  0  0  0  0
   37.5590   29.1170   33.7650 H   0  0  0  0  0  0  0  0  0  0  0  0
   35.8320   30.4430   33.7380 C   0  0  0  0  0  0  0  0  0  0  0  0
   36.5480   31.2410   32.6140 C   0  0  0  0  0  0  0  0  0  0  0  0
   36.6990   31.6990   34.0240 C   0  0  0  0  0  0  0  0  0  0  0  0
   34.7380   30.5520   33.8010 H   0  0  0  0  0  0  0  0  0  0  0  0
   37.4240   30.7730   32.1320 H   0  0  0  0  0  0  0  0  0  0  0  0
   35.8550   31.7830   31.9480 H   0  0  0  0  0  0  0  0  0  0  0  0
   37.6460   31.5120   34.5700 H   0  0  0  0  0  0  0  0  0  0  0  0
   36.0960   32.5730   34.3300 H   0  0  0  0  0  0  0  0  0  0  0  0
   36.5830   30.2640   37.4640 C   0  0  0  0  0  2  0  0  0  0  0  0
   35.5450   29.5280   37.5310 C   0  0  0  0  0  2  0  0  0  0  0  0
   38.0040   32.4790   40.0370 C   0  0  0  0  0  0  0  0  0  0  0  0
   38.3350   31.6120   41.0710 C   0  0  0  0  0  0  0  0  0  0  0  0
   38.0510   30.2740   40.8560 C   0  0  0  0  0  0  0  0  0  0  0  0
   37.4930   29.9310   39.6950 N   0  0  0  0  0  0  0  0  0  0  0  0
   37.1800   30.7580   38.7110 C   0  0  0  0  0  0  0  0  0  0  0  0
   37.4450   32.0350   38.9060 N   0  0  0  0  0  0  0  0  0  0  0  0
   38.2210   33.5440   40.1880 H   0  0  0  0  0  0  0  0  0  0  0  0
   38.7820   31.8920   42.0000 H   0  0  0  0  0  0  0  0  0  0  0  0
   38.3230   29.2040   41.8270 C   0  0  0  0  0  0  0  0  0  0  0  0
   37.3530   28.6370   42.6200 C   0  0  0  0  0  0  0  0  0  0  0  0
   36.3460   28.9700   42.5470 H   0  0  0  0  0  0  0  0  0  0  0  0
   37.5900   27.6400   43.5290 C   0  0  0  0  0  0  0  0  0  0  0  0
   36.8080   27.2150   44.1370 H   0  0  0  0  0  0  0  0  0  0  0  0
   38.8710   27.1550   43.6800 C   0  0  0  0  0  3  0  0  0  0  0  0
   39.8280   27.7400   42.8720 C   0  0  0  0  0  3  0  0  0  0  0  0
   39.5670   28.7040   42.0010 N   0  0  0  0  0  0  0  0  0  0  0  0
  1  3  1  0  0  0  0
  1 20  1  0  0  0  0
  2  1  1  0  0  0  0
  4  7  1  1  0  0  0
  4  1  1  0  0  0  0
  5  4  1  0  0  0  0
  6 10  1  6  0  0  0
  6  5  1  0  0  0  0
  6  4  1  0  0  0  0
  8  5  1  0  0  0  0
  9  5  1  0  0  0  0
 11 14  1  0  0  0  0
 11 13  1  0  0  0  0
 11  6  1  0  0  0  0
 12 11  1  0  0  0  0
 12 13  1  0  0  0  0
 13 18  1  0  0  0  0
 13 17  1  0  0  0  0
 15 12  1  0  0  0  0
 16 12  1  0  0  0  0
 19 20  1  0  0  0  0
 19 25  1  0  0  0  0
 21 27  1  0  0  0  0
 21 22  1  0  0  0  0
 22 28  1  0  0  0  0
 23 22  2  0  0  0  0
 23 29  1  0  0  0  0
 24 23  1  0  0  0  0
 25 26  1  0  0  0  0
 25 24  2  0  0  0  0
 26 21  2  0  0  0  0
 29 36  2  0  0  0  0
 29 30  1  0  0  0  0
 30 32  2  0  0  0  0
 31 30  1  0  0  0  0
 32 34  1  0  0  0  0
 32 33  1  0  0  0  0
 35 34  2  0  0  0  0
 36 35  1  0  0  0  0
M  END
>  <minimizedAffinity>
-4.87240887

$$$$
