
 OpenBabel03242520093D

 28 30  0  0  0  0  0  0  0  0999 V2000
   46.1400   32.6510   47.0630 C   0  0  0  0  0  0  0  0  0  0  0  0
   45.0800   32.3780   47.8660 C   0  0  0  0  0  0  0  0  0  0  0  0
   45.2810   31.6340   49.0130 C   0  0  0  0  0  0  0  0  0  0  0  0
   46.5560   31.1720   49.3340 C   0  0  0  0  0  0  0  0  0  0  0  0
   47.6060   31.4750   48.4840 C   0  0  0  0  0  0  0  0  0  0  0  0
   47.3630   32.1910   47.3990 N   0  0  0  0  0  0  0  0  0  0  0  0
   44.0880   32.7520   47.5930 H   0  0  0  0  0  0  0  0  0  0  0  0
   44.3980   31.4360   49.6340 H   0  0  0  0  0  0  0  0  0  0  0  0
   46.6460   30.5950   50.2450 H   0  0  0  0  0  0  0  0  0  0  0  0
   44.9310   35.0220   44.5530 C   0  0  0  0  0  0  0  0  0  0  0  0
   45.8790   34.8720   43.5150 C   0  0  0  0  0  0  0  0  0  0  0  0
   46.9240   33.9570   43.6900 C   0  0  0  0  0  0  0  0  0  0  0  0
   46.9500   33.2720   44.8590 N   0  0  0  0  0  0  0  0  0  0  0  0
   46.0430   33.4310   45.8240 C   0  0  0  0  0  0  0  0  0  0  0  0
   45.0330   34.3090   45.6660 N   0  0  0  0  0  0  0  0  0  0  0  0
   43.8760   35.9520   44.3630 N   0  0  0  0  0  0  0  0  0  0  0  0
   45.8200   35.4400   42.5960 H   0  0  0  0  0  0  0  0  0  0  0  0
   47.6630   33.8140   42.9260 H   0  0  0  0  0  0  0  0  0  0  0  0
   44.2270   36.9290   44.4900 H   0  0  0  0  0  0  0  0  0  0  0  0
   43.0700   35.3010   44.1530 H   0  0  0  0  0  0  0  0  0  0  0  0
   48.9380   30.9880   48.8280 C   0  0  0  0  0  0  0  0  0  0  0  0
   49.7980   31.7980   49.5490 C   0  0  0  0  0  0  0  0  0  0  0  0
   49.4240   32.7890   49.8310 H   0  0  0  0  0  0  0  0  0  0  0  0
   51.0460   31.3220   49.8630 C   0  0  0  0  0  0  0  0  0  0  0  0
   51.6960   31.9620   50.4190 H   0  0  0  0  0  0  0  0  0  0  0  0
   51.3690   30.0530   49.4350 C   0  0  0  0  0  0  0  0  0  0  0  0
   50.4920   29.2460   48.7080 C   0  0  0  0  0  0  0  0  0  0  0  0
   49.2620   29.7370   48.4090 N   0  0  0  0  0  0  0  0  0  0  0  0
  1  6  2  0  0  0  0
  1  2  1  0  0  0  0
  2  3  2  0  0  0  0
  3  4  1  0  0  0  0
  3  8  1  0  0  0  0
  4  9  1  0  0  0  0
  5 21  1  0  0  0  0
  5  4  2  0  0  0  0
  6  5  1  0  0  0  0
  7  2  1  0  0  0  0
 10 15  1  0  0  0  0
 11 12  1  0  0  0  0
 11 10  2  0  0  0  0
 12 13  2  0  0  0  0
 13 14  1  0  0  0  0
 14  1  1  0  0  0  0
 15 14  2  0  0  0  0
 16 19  1  0  0  0  0
 16 10  1  0  0  0  0
 17 11  1  0  0  0  0
 18 12  1  0  0  0  0
 20 16  1  0  0  0  0
 21 22  1  0  0  0  0
 22 23  1  0  0  0  0
 22 24  2  0  0  0  0
 24 25  1  0  0  0  0
 26 24  1  0  0  0  0
 27 26  2  0  0  0  0
 28 27  1  0  0  0  0
 28 21  2  0  0  0  0
M  END
>  <minimizedAffinity>
-6.18889284

>  <minimizedRMSD>
0.644037902

$$$$
