
 OpenBabel03252508143D

 36 39  0  0  1  0  0  0  0  0999 V2000
   47.0470   30.6910   46.8280 C   0  0  0  0  0  0  0  0  0  0  0  0
   48.0530   30.2660   46.8800 H   0  0  0  0  0  0  0  0  0  0  0  0
   46.2550   29.9160   46.8430 H   0  0  0  0  0  0  0  0  0  0  0  0
   46.8440   31.5540   48.0500 C   0  0  1  0  0  0  0  0  0  0  0  0
   46.2570   30.8890   49.2450 C   0  0  0  0  0  0  0  0  0  0  0  0
   47.6490   31.2950   49.2650 C   0  0  1  0  0  0  0  0  0  0  0  0
   46.5410   32.6000   47.8600 H   0  0  0  0  0  0  0  0  0  0  0  0
   45.5170   31.4840   49.8500 H   0  0  0  0  0  0  0  0  0  0  0  0
   45.9280   29.8240   49.2010 H   0  0  0  0  0  0  0  0  0  0  0  0
   47.8940   32.2150   49.8800 H   0  0  0  0  0  0  0  0  0  0  0  0
   48.7980   30.3710   49.1550 C   0  0  0  0  0  0  0  0  0  0  0  0
   49.6710   30.2880   50.4360 C   0  0  0  0  0  0  0  0  0  0  0  0
   50.2010   31.0260   49.2560 C   0  0  0  0  0  0  0  0  0  0  0  0
   48.7050   29.4490   48.5600 H   0  0  0  0  0  0  0  0  0  0  0  0
   49.3540   30.8840   51.3110 H   0  0  0  0  0  0  0  0  0  0  0  0
   50.0500   29.2740   50.6470 H   0  0  0  0  0  0  0  0  0  0  0  0
   50.2130   32.1350   49.2530 H   0  0  0  0  0  0  0  0  0  0  0  0
   50.9600   30.5050   48.6440 H   0  0  0  0  0  0  0  0  0  0  0  0
   46.4560   32.7180   45.7770 C   0  0  0  0  0  2  0  0  0  0  0  0
   46.8740   31.5320   45.5700 C   0  0  0  0  0  2  0  0  0  0  0  0
   45.2680   35.4610   43.6300 C   0  0  0  0  0  0  0  0  0  0  0  0
   45.8720   35.2060   42.4050 C   0  0  0  0  0  0  0  0  0  0  0  0
   46.6870   34.0870   42.3510 C   0  0  0  0  0  0  0  0  0  0  0  0
   46.8240   33.3590   43.4590 N   0  0  0  0  0  0  0  0  0  0  0  0
   46.2460   33.6030   44.6240 C   0  0  0  0  0  0  0  0  0  0  0  0
   45.4690   34.6660   44.6860 N   0  0  0  0  0  0  0  0  0  0  0  0
   44.6180   36.3430   43.6930 H   0  0  0  0  0  0  0  0  0  0  0  0
   45.7600   35.7940   41.5200 H   0  0  0  0  0  0  0  0  0  0  0  0
   47.4150   33.6510   41.1510 C   0  0  0  0  0  0  0  0  0  0  0  0
   47.4580   34.3810   39.9860 C   0  0  0  0  0  0  0  0  0  0  0  0
   46.9480   35.3110   39.9220 H   0  0  0  0  0  0  0  0  0  0  0  0
   48.1290   33.9880   38.8580 C   0  0  0  0  0  0  0  0  0  0  0  0
   48.1450   34.5830   37.9590 H   0  0  0  0  0  0  0  0  0  0  0  0
   48.8150   32.7920   38.8620 C   0  0  0  0  0  3  0  0  0  0  0  0
   48.7570   32.0780   40.0440 C   0  0  0  0  0  3  0  0  0  0  0  0
   48.0970   32.4850   41.1190 N   0  0  0  0  0  0  0  0  0  0  0  0
  1  3  1  0  0  0  0
  1  2  1  0  0  0  0
  1  4  1  0  0  0  0
  4  7  1  6  0  0  0
  4  5  1  0  0  0  0
  4  6  1  0  0  0  0
  5  6  1  0  0  0  0
  5  8  1  0  0  0  0
  6 10  1  1  0  0  0
  9  5  1  0  0  0  0
 11 13  1  0  0  0  0
 11  6  1  0  0  0  0
 11 12  1  0  0  0  0
 12 16  1  0  0  0  0
 12 15  1  0  0  0  0
 13 12  1  0  0  0  0
 14 11  1  0  0  0  0
 17 13  1  0  0  0  0
 18 13  1  0  0  0  0
 20 19  1  0  0  0  0
 20  1  1  0  0  0  0
 21 27  1  0  0  0  0
 21 26  1  0  0  0  0
 22 21  2  0  0  0  0
 23 22  1  0  0  0  0
 23 24  2  0  0  0  0
 24 25  1  0  0  0  0
 25 26  2  0  0  0  0
 25 19  1  0  0  0  0
 28 22  1  0  0  0  0
 29 23  1  0  0  0  0
 30 29  2  0  0  0  0
 31 30  1  0  0  0  0
 32 34  2  0  0  0  0
 32 30  1  0  0  0  0
 33 32  1  0  0  0  0
 34 35  1  0  0  0  0
 35 36  2  0  0  0  0
 36 29  1  0  0  0  0
M  END
>  <minimizedAffinity>
-4.84194326

>  <minimizedRMSD>
1.27795351

$$$$
