
 OpenBabel03242513393D

 33 36  0  0  0  0  0  0  0  0999 V2000
   40.1890   30.4800   40.7910 C   0  0  0  0  0  0  0  0  0  0  0  0
   38.9630   29.8810   40.9950 C   0  0  0  0  0  0  0  0  0  0  0  0
   37.8340   30.6500   40.8190 C   0  0  0  0  0  0  0  0  0  0  0  0
   37.8870   31.9770   40.4490 C   0  0  0  0  0  0  0  0  0  0  0  0
   37.0170   32.9690   40.2020 N   0  0  0  0  0  0  0  0  0  0  0  0
   37.6590   34.1060   39.8670 C   0  0  0  0  0  0  0  0  0  0  0  0
   38.9680   33.8110   39.9080 N   0  0  0  0  0  0  0  0  0  0  0  0
   39.1460   32.5170   40.2600 C   0  0  0  0  0  0  0  0  0  0  0  0
   40.2990   31.8040   40.4210 C   0  0  0  0  0  0  0  0  0  0  0  0
   41.0740   29.8740   40.9310 H   0  0  0  0  0  0  0  0  0  0  0  0
   36.8440   30.2340   40.9640 H   0  0  0  0  0  0  0  0  0  0  0  0
   35.9920   32.7820   40.2870 H   0  0  0  0  0  0  0  0  0  0  0  0
   37.1960   35.0500   39.6210 H   0  0  0  0  0  0  0  0  0  0  0  0
   39.1850   26.2330   40.8850 C   0  0  0  0  0  0  0  0  0  0  0  0
   38.7380   25.8570   42.1600 C   0  0  0  0  0  0  0  0  0  0  0  0
   38.3710   26.8720   43.0250 C   0  0  0  0  0  0  0  0  0  0  0  0
   38.4550   28.1650   42.6160 N   0  0  0  0  0  0  0  0  0  0  0  0
   38.8900   28.4840   41.3850 C   0  0  0  0  0  0  0  0  0  0  0  0
   39.2580   27.5350   40.5070 N   0  0  0  0  0  0  0  0  0  0  0  0
   39.4950   25.5150   40.1360 H   0  0  0  0  0  0  0  0  0  0  0  0
   38.0350   26.5650   43.9850 H   0  0  0  0  0  0  0  0  0  0  0  0
   38.7080   24.3980   42.4400 C   0  0  0  0  0  0  0  0  0  0  0  0
   39.4690   24.1950   43.5680 F   0  0  0  0  0  0  0  0  0  0  0  0
   39.2550   23.7370   41.3680 F   0  0  0  0  0  0  0  0  0  0  0  0
   37.3680   24.0490   42.6110 F   0  0  0  0  0  0  0  0  0  0  0  0
   41.5790   32.4640   40.1980 C   0  0  0  0  0  0  0  0  0  0  0  0
   42.3110   33.0860   41.1850 C   0  0  0  0  0  0  0  0  0  0  0  0
   41.9380   33.1020   42.1910 H   0  0  0  0  0  0  0  0  0  0  0  0
   43.5240   33.7080   40.9610 C   0  0  0  0  0  0  0  0  0  0  0  0
   44.0520   34.1800   41.7760 H   0  0  0  0  0  0  0  0  0  0  0  0
   44.0380   33.7100   39.6790 C   0  0  0  0  0  3  0  0  0  0  0  0
   43.2970   33.0790   38.6770 C   0  0  0  0  0  3  0  0  0  0  0  0
   42.1360   32.5030   38.9790 N   0  0  0  0  0  0  0  0  0  0  0  0
  1 10  1  0  0  0  0
  1  2  1  0  0  0  0
  2 18  1  0  0  0  0
  3 11  1  0  0  0  0
  3  2  2  0  0  0  0
  4  3  1  0  0  0  0
  5 12  1  0  0  0  0
  5  4  1  0  0  0  0
  6  7  2  0  0  0  0
  6  5  1  0  0  0  0
  7  8  1  0  0  0  0
  8  9  1  0  0  0  0
  8  4  2  0  0  0  0
  9  1  2  0  0  0  0
 13  6  1  0  0  0  0
 14 15  1  0  0  0  0
 15 22  1  0  0  0  0
 15 16  2  0  0  0  0
 16 21  1  0  0  0  0
 17 16  1  0  0  0  0
 18 17  2  0  0  0  0
 19 14  2  0  0  0  0
 19 18  1  0  0  0  0
 20 14  1  0  0  0  0
 22 25  1  0  0  0  0
 22 23  1  0  0  0  0
 24 22  1  0  0  0  0
 26  9  1  0  0  0  0
 26 27  1  0  0  0  0
 27 28  1  0  0  0  0
 29 27  2  0  0  0  0
 29 30  1  0  0  0  0
 31 29  1  0  0  0  0
 32 33  1  0  0  0  0
 32 31  2  0  0  0  0
 33 26  2  0  0  0  0
M  END
>  <minimizedAffinity>
-5.74145365

$$$$

 OpenBabel03242513393D

 33 36  0  0  0  0  0  0  0  0999 V2000
   39.6490   29.8580   39.6820 C   0  0  0  0  0  0  0  0  0  0  0  0
   38.4360   29.6020   40.2880 C   0  0  0  0  0  0  0  0  0  0  0  0
   37.6380   30.6770   40.6120 C   0  0  0  0  0  0  0  0  0  0  0  0
   38.0060   31.9810   40.3540 C   0  0  0  0  0  0  0  0  0  0  0  0
   37.4880   33.2070   40.5320 N   0  0  0  0  0  0  0  0  0  0  0  0
   38.3220   34.1590   40.0700 C   0  0  0  0  0  0  0  0  0  0  0  0
   39.3910   33.5050   39.5890 N   0  0  0  0  0  0  0  0  0  0  0  0
   39.2320   32.1700   39.7460 C   0  0  0  0  0  0  0  0  0  0  0  0
   40.0650   31.1440   39.4030 C   0  0  0  0  0  0  0  0  0  0  0  0
   40.2740   29.0120   39.4300 H   0  0  0  0  0  0  0  0  0  0  0  0
   36.6750   30.5370   41.0880 H   0  0  0  0  0  0  0  0  0  0  0  0
   36.5490   33.3030   40.9830 H   0  0  0  0  0  0  0  0  0  0  0  0
   38.1470   35.2240   40.0910 H   0  0  0  0  0  0  0  0  0  0  0  0
   37.2520   26.6240   42.0470 C   0  0  0  0  0  0  0  0  0  0  0  0
   37.2830   25.6410   41.0480 C   0  0  0  0  0  0  0  0  0  0  0  0
   37.7130   26.0310   39.7920 C   0  0  0  0  0  0  0  0  0  0  0  0
   38.0790   27.3220   39.5800 N   0  0  0  0  0  0  0  0  0  0  0  0
   38.0340   28.2350   40.5660 C   0  0  0  0  0  0  0  0  0  0  0  0
   37.6250   27.9070   41.8030 N   0  0  0  0  0  0  0  0  0  0  0  0
   36.9320   26.4200   43.0620 H   0  0  0  0  0  0  0  0  0  0  0  0
   37.7290   25.2710   39.0500 H   0  0  0  0  0  0  0  0  0  0  0  0
   36.8480   24.2790   41.4540 C   0  0  0  0  0  0  0  0  0  0  0  0
   36.2440   24.4060   42.6830 F   0  0  0  0  0  0  0  0  0  0  0  0
   37.9590   23.4760   41.5470 F   0  0  0  0  0  0  0  0  0  0  0  0
   35.9830   23.8210   40.4600 F   0  0  0  0  0  0  0  0  0  0  0  0
   41.3400   31.4460   38.7650 C   0  0  0  0  0  0  0  0  0  0  0  0
   41.5440   31.4430   37.4030 C   0  0  0  0  0  0  0  0  0  0  0  0
   40.7300   31.2040   36.7460 H   0  0  0  0  0  0  0  0  0  0  0  0
   42.7580   31.7320   36.8110 C   0  0  0  0  0  0  0  0  0  0  0  0
   42.8570   31.7120   35.7360 H   0  0  0  0  0  0  0  0  0  0  0  0
   43.8310   32.0430   37.6230 C   0  0  0  0  0  3  0  0  0  0  0  0
   43.6260   32.0480   39.0040 C   0  0  0  0  0  3  0  0  0  0  0  0
   42.4230   31.7580   39.4940 N   0  0  0  0  0  0  0  0  0  0  0  0
  1  2  1  0  0  0  0
  2 18  1  0  0  0  0
  2  3  2  0  0  0  0
  3 11  1  0  0  0  0
  4  5  1  0  0  0  0
  4  3  1  0  0  0  0
  5 12  1  0  0  0  0
  6 13  1  0  0  0  0
  6  5  1  0  0  0  0
  7  8  1  0  0  0  0
  7  6  2  0  0  0  0
  8  4  2  0  0  0  0
  9  1  2  0  0  0  0
  9  8  1  0  0  0  0
 10  1  1  0  0  0  0
 14 20  1  0  0  0  0
 15 22  1  0  0  0  0
 15 14  2  0  0  0  0
 16 15  1  0  0  0  0
 17 16  2  0  0  0  0
 17 18  1  0  0  0  0
 18 19  2  0  0  0  0
 19 14  1  0  0  0  0
 21 16  1  0  0  0  0
 22 24  1  0  0  0  0
 22 23  1  0  0  0  0
 25 22  1  0  0  0  0
 26  9  1  0  0  0  0
 26 33  1  0  0  0  0
 27 26  2  0  0  0  0
 28 27  1  0  0  0  0
 29 27  1  0  0  0  0
 29 31  2  0  0  0  0
 30 29  1  0  0  0  0
 31 32  1  0  0  0  0
 32 33  2  0  0  0  0
M  END
>  <minimizedAffinity>
-5.71794224

$$$$

 OpenBabel03242513393D

 33 36  0  0  0  0  0  0  0  0999 V2000
   35.8440   27.3430   39.1150 C   0  0  0  0  0  0  0  0  0  0  0  0
   35.2050   28.5630   39.0320 C   0  0  0  0  0  0  0  0  0  0  0  0
   35.4210   29.4740   40.0420 C   0  0  0  0  0  0  0  0  0  0  0  0
   36.2430   29.2110   41.1170 C   0  0  0  0  0  0  0  0  0  0  0  0
   36.6540   29.8480   42.2250 N   0  0  0  0  0  0  0  0  0  0  0  0
   37.4910   29.0770   42.9470 C   0  0  0  0  0  0  0  0  0  0  0  0
   37.6030   27.9250   42.2670 N   0  0  0  0  0  0  0  0  0  0  0  0
   36.8530   27.9710   41.1420 C   0  0  0  0  0  0  0  0  0  0  0  0
   36.6760   27.0290   40.1700 C   0  0  0  0  0  0  0  0  0  0  0  0
   35.6710   26.6300   38.3210 H   0  0  0  0  0  0  0  0  0  0  0  0
   34.9470   30.4480   40.0300 H   0  0  0  0  0  0  0  0  0  0  0  0
   36.3110   30.8180   42.4130 H   0  0  0  0  0  0  0  0  0  0  0  0
   37.9630   29.3490   43.8790 H   0  0  0  0  0  0  0  0  0  0  0  0
   32.2390   29.3990   37.0640 C   0  0  0  0  0  0  0  0  0  0  0  0
   32.7290   29.4030   35.7500 C   0  0  0  0  0  0  0  0  0  0  0  0
   34.0710   29.1170   35.5770 C   0  0  0  0  0  0  0  0  0  0  0  0
   34.8450   28.8490   36.6610 N   0  0  0  0  0  0  0  0  0  0  0  0
   34.3360   28.8550   37.9050 C   0  0  0  0  0  0  0  0  0  0  0  0
   33.0390   29.1280   38.1270 N   0  0  0  0  0  0  0  0  0  0  0  0
   31.2040   29.6110   37.3050 H   0  0  0  0  0  0  0  0  0  0  0  0
   34.4220   29.1250   34.5750 H   0  0  0  0  0  0  0  0  0  0  0  0
   31.7430   29.7170   34.6830 C   0  0  0  0  0  0  0  0  0  0  0  0
   32.1980   30.8450   34.0420 F   0  0  0  0  0  0  0  0  0  0  0  0
   30.5260   29.9580   35.2720 F   0  0  0  0  0  0  0  0  0  0  0  0
   31.6830   28.5980   33.8520 F   0  0  0  0  0  0  0  0  0  0  0  0
   37.3640   25.7500   40.2860 C   0  0  0  0  0  0  0  0  0  0  0  0
   36.8520   24.6530   40.9430 C   0  0  0  0  0  0  0  0  0  0  0  0
   35.8880   24.7170   41.4100 H   0  0  0  0  0  0  0  0  0  0  0  0
   37.5150   23.4450   41.0460 C   0  0  0  0  0  0  0  0  0  0  0  0
   37.0620   22.6200   41.5760 H   0  0  0  0  0  0  0  0  0  0  0  0
   38.7590   23.3220   40.4590 C   0  0  0  0  0  3  0  0  0  0  0  0
   39.2790   24.4330   39.7920 C   0  0  0  0  0  3  0  0  0  0  0  0
   38.5740   25.5610   39.7390 N   0  0  0  0  0  0  0  0  0  0  0  0
  1  9  1  0  0  0  0
  2  1  2  0  0  0  0
  2  3  1  0  0  0  0
  3  4  2  0  0  0  0
  4  8  1  0  0  0  0
  4  5  1  0  0  0  0
  5 12  1  0  0  0  0
  5  6  1  0  0  0  0
  6 13  1  0  0  0  0
  7  6  2  0  0  0  0
  8  7  1  0  0  0  0
  9 26  1  0  0  0  0
  9  8  2  0  0  0  0
 10  1  1  0  0  0  0
 11  3  1  0  0  0  0
 14 20  1  0  0  0  0
 14 19  1  0  0  0  0
 15 14  2  0  0  0  0
 16 15  1  0  0  0  0
 16 17  2  0  0  0  0
 17 18  1  0  0  0  0
 18 19  2  0  0  0  0
 18  2  1  0  0  0  0
 21 16  1  0  0  0  0
 22 24  1  0  0  0  0
 22 15  1  0  0  0  0
 23 22  1  0  0  0  0
 25 22  1  0  0  0  0
 26 27  1  0  0  0  0
 27 29  2  0  0  0  0
 27 28  1  0  0  0  0
 29 30  1  0  0  0  0
 31 29  1  0  0  0  0
 32 31  2  0  0  0  0
 33 32  1  0  0  0  0
 33 26  2  0  0  0  0
M  END
>  <minimizedAffinity>
-5.70793486

$$$$

 OpenBabel03242513393D

 33 36  0  0  0  0  0  0  0  0999 V2000
   36.6250   30.3900   39.1780 C   0  0  0  0  0  0  0  0  0  0  0  0
   35.6670   29.3970   39.1980 C   0  0  0  0  0  0  0  0  0  0  0  0
   35.5750   28.6140   40.3270 C   0  0  0  0  0  0  0  0  0  0  0  0
   36.3950   28.7880   41.4220 C   0  0  0  0  0  0  0  0  0  0  0  0
   36.5630   28.2240   42.6290 N   0  0  0  0  0  0  0  0  0  0  0  0
   37.5570   28.8260   43.3110 C   0  0  0  0  0  0  0  0  0  0  0  0
   38.0220   29.7930   42.5040 N   0  0  0  0  0  0  0  0  0  0  0  0
   37.3330   29.7990   41.3380 C   0  0  0  0  0  0  0  0  0  0  0  0
   37.4710   30.6060   40.2460 C   0  0  0  0  0  0  0  0  0  0  0  0
   36.6950   31.0030   38.2890 H   0  0  0  0  0  0  0  0  0  0  0  0
   34.8420   27.8200   40.4000 H   0  0  0  0  0  0  0  0  0  0  0  0
   35.9500   27.4250   42.9090 H   0  0  0  0  0  0  0  0  0  0  0  0
   37.8960   28.5670   44.3040 H   0  0  0  0  0  0  0  0  0  0  0  0
   32.6730   28.8600   37.1690 C   0  0  0  0  0  0  0  0  0  0  0  0
   33.1830   28.8380   35.8630 C   0  0  0  0  0  0  0  0  0  0  0  0
   34.5480   29.0090   35.7160 C   0  0  0  0  0  0  0  0  0  0  0  0
   35.3240   29.1880   36.8180 N   0  0  0  0  0  0  0  0  0  0  0  0
   34.7950   29.2020   38.0530 C   0  0  0  0  0  0  0  0  0  0  0  0
   33.4760   29.0410   38.2500 N   0  0  0  0  0  0  0  0  0  0  0  0
   31.6200   28.7360   37.3900 H   0  0  0  0  0  0  0  0  0  0  0  0
   34.9140   28.9890   34.7190 H   0  0  0  0  0  0  0  0  0  0  0  0
   32.1920   28.6320   34.7750 C   0  0  0  0  0  0  0  0  0  0  0  0
   31.0490   28.1490   35.3670 F   0  0  0  0  0  0  0  0  0  0  0  0
   32.7000   27.7110   33.8920 F   0  0  0  0  0  0  0  0  0  0  0  0
   32.0120   29.8700   34.1580 F   0  0  0  0  0  0  0  0  0  0  0  0
   38.4920   31.6450   40.2550 C   0  0  0  0  0  0  0  0  0  0  0  0
   38.2470   32.9690   40.5450 C   0  0  0  0  0  0  0  0  0  0  0  0
   37.2490   33.2830   40.7820 H   0  0  0  0  0  0  0  0  0  0  0  0
   39.2240   33.9450   40.5500 C   0  0  0  0  0  0  0  0  0  0  0  0
   38.9700   34.9680   40.7850 H   0  0  0  0  0  0  0  0  0  0  0  0
   40.5220   33.5810   40.2490 C   0  0  0  0  0  3  0  0  0  0  0  0
   40.7730   32.2390   39.9550 C   0  0  0  0  0  3  0  0  0  0  0  0
   39.7730   31.3620   39.9720 N   0  0  0  0  0  0  0  0  0  0  0  0
  1  2  2  0  0  0  0
  1  9  1  0  0  0  0
  2  3  1  0  0  0  0
  3 11  1  0  0  0  0
  3  4  2  0  0  0  0
  4  5  1  0  0  0  0
  5 12  1  0  0  0  0
  5  6  1  0  0  0  0
  6 13  1  0  0  0  0
  7  6  2  0  0  0  0
  8  4  1  0  0  0  0
  8  7  1  0  0  0  0
  9 26  1  0  0  0  0
  9  8  2  0  0  0  0
 10  1  1  0  0  0  0
 14 20  1  0  0  0  0
 14 19  1  0  0  0  0
 15 14  2  0  0  0  0
 16 15  1  0  0  0  0
 16 17  2  0  0  0  0
 17 18  1  0  0  0  0
 18 19  2  0  0  0  0
 18  2  1  0  0  0  0
 21 16  1  0  0  0  0
 22 23  1  0  0  0  0
 22 15  1  0  0  0  0
 24 22  1  0  0  0  0
 25 22  1  0  0  0  0
 26 27  1  0  0  0  0
 27 29  2  0  0  0  0
 27 28  1  0  0  0  0
 29 30  1  0  0  0  0
 31 29  1  0  0  0  0
 32 33  1  0  0  0  0
 32 31  2  0  0  0  0
 33 26  2  0  0  0  0
M  END
>  <minimizedAffinity>
-5.56649208

$$$$

 OpenBabel03242513393D

 33 36  0  0  0  0  0  0  0  0999 V2000
   36.9220   27.4630   38.8550 C   0  0  0  0  0  0  0  0  0  0  0  0
   36.3710   27.1840   37.6210 C   0  0  0  0  0  0  0  0  0  0  0  0
   35.8340   25.9310   37.4240 C   0  0  0  0  0  0  0  0  0  0  0  0
   35.8280   24.9620   38.4050 C   0  0  0  0  0  0  0  0  0  0  0  0
   35.4050   23.6940   38.5380 N   0  0  0  0  0  0  0  0  0  0  0  0
   35.6750   23.2190   39.7700 C   0  0  0  0  0  0  0  0  0  0  0  0
   36.2840   24.2220   40.4220 N   0  0  0  0  0  0  0  0  0  0  0  0
   36.3950   25.3040   39.6170 C   0  0  0  0  0  0  0  0  0  0  0  0
   36.9420   26.5290   39.8700 C   0  0  0  0  0  0  0  0  0  0  0  0
   37.3430   28.4480   39.0060 H   0  0  0  0  0  0  0  0  0  0  0  0
   35.3880   25.6550   36.4770 H   0  0  0  0  0  0  0  0  0  0  0  0
   34.9380   23.2250   37.7290 H   0  0  0  0  0  0  0  0  0  0  0  0
   35.4410   22.2310   40.1370 H   0  0  0  0  0  0  0  0  0  0  0  0
   35.9510   28.8230   34.3800 C   0  0  0  0  0  0  0  0  0  0  0  0
   36.3810   30.1330   34.6370 C   0  0  0  0  0  0  0  0  0  0  0  0
   36.8050   30.4170   35.9230 C   0  0  0  0  0  0  0  0  0  0  0  0
   36.7900   29.4380   36.8660 N   0  0  0  0  0  0  0  0  0  0  0  0
   36.3690   28.1940   36.5780 C   0  0  0  0  0  0  0  0  0  0  0  0
   35.9470   27.8680   35.3450 N   0  0  0  0  0  0  0  0  0  0  0  0
   35.6000   28.5010   33.4080 H   0  0  0  0  0  0  0  0  0  0  0  0
   37.1270   31.4140   36.0960 H   0  0  0  0  0  0  0  0  0  0  0  0
   36.3320   31.0770   33.4900 C   0  0  0  0  0  0  0  0  0  0  0  0
   37.2190   32.0890   33.7710 F   0  0  0  0  0  0  0  0  0  0  0  0
   35.0550   31.5720   33.3870 F   0  0  0  0  0  0  0  0  0  0  0  0
   36.6760   30.3430   32.3530 F   0  0  0  0  0  0  0  0  0  0  0  0
   37.5170   26.7940   41.1830 C   0  0  0  0  0  0  0  0  0  0  0  0
   36.8160   27.3310   42.2410 C   0  0  0  0  0  0  0  0  0  0  0  0
   35.7800   27.5810   42.1170 H   0  0  0  0  0  0  0  0  0  0  0  0
   37.3720   27.5760   43.4810 C   0  0  0  0  0  0  0  0  0  0  0  0
   36.7720   28.0000   44.2720 H   0  0  0  0  0  0  0  0  0  0  0  0
   38.7040   27.2690   43.6790 C   0  0  0  0  0  3  0  0  0  0  0  0
   39.4160   26.7240   42.6090 C   0  0  0  0  0  3  0  0  0  0  0  0
   38.8030   26.5190   41.4450 N   0  0  0  0  0  0  0  0  0  0  0  0
  1 10  1  0  0  0  0
  1  9  1  0  0  0  0
  2  1  2  0  0  0  0
  3  2  1  0  0  0  0
  3  4  2  0  0  0  0
  4  5  1  0  0  0  0
  4  8  1  0  0  0  0
  5  6  1  0  0  0  0
  6 13  1  0  0  0  0
  6  7  2  0  0  0  0
  8  9  2  0  0  0  0
  8  7  1  0  0  0  0
  9 26  1  0  0  0  0
 11  3  1  0  0  0  0
 12  5  1  0  0  0  0
 14 15  2  0  0  0  0
 14 19  1  0  0  0  0
 15 16  1  0  0  0  0
 16 21  1  0  0  0  0
 16 17  2  0  0  0  0
 18 17  1  0  0  0  0
 18  2  1  0  0  0  0
 19 18  2  0  0  0  0
 20 14  1  0  0  0  0
 22 23  1  0  0  0  0
 22 15  1  0  0  0  0
 24 22  1  0  0  0  0
 25 22  1  0  0  0  0
 26 33  2  0  0  0  0
 26 27  1  0  0  0  0
 27 29  2  0  0  0  0
 28 27  1  0  0  0  0
 29 31  1  0  0  0  0
 29 30  1  0  0  0  0
 32 31  2  0  0  0  0
 33 32  1  0  0  0  0
M  END
>  <minimizedAffinity>
-5.50492096

$$$$

 OpenBabel03242513393D

 33 36  0  0  0  0  0  0  0  0999 V2000
   33.0980   29.2400   37.2450 C   0  0  0  0  0  0  0  0  0  0  0  0
   33.9640   28.1930   37.4830 C   0  0  0  0  0  0  0  0  0  0  0  0
   34.0100   27.1720   36.5590 C   0  0  0  0  0  0  0  0  0  0  0  0
   33.2310   27.1640   35.4210 C   0  0  0  0  0  0  0  0  0  0  0  0
   33.0390   26.3600   34.3620 N   0  0  0  0  0  0  0  0  0  0  0  0
   32.1170   26.8740   33.5240 C   0  0  0  0  0  0  0  0  0  0  0  0
   31.7240   28.0320   34.0790 N   0  0  0  0  0  0  0  0  0  0  0  0
   32.3850   28.2410   35.2410 C   0  0  0  0  0  0  0  0  0  0  0  0
   32.2970   29.2800   36.1220 C   0  0  0  0  0  0  0  0  0  0  0  0
   33.0640   30.0390   37.9730 H   0  0  0  0  0  0  0  0  0  0  0  0
   34.6700   26.3250   36.6920 H   0  0  0  0  0  0  0  0  0  0  0  0
   33.5840   25.4710   34.2900 H   0  0  0  0  0  0  0  0  0  0  0  0
   31.7770   26.4290   32.6010 H   0  0  0  0  0  0  0  0  0  0  0  0
   35.3650   29.0990   40.7360 C   0  0  0  0  0  0  0  0  0  0  0  0
   36.3730   28.1410   40.9170 C   0  0  0  0  0  0  0  0  0  0  0  0
   36.5440   27.2070   39.9120 C   0  0  0  0  0  0  0  0  0  0  0  0
   35.7470   27.2520   38.8120 N   0  0  0  0  0  0  0  0  0  0  0  0
   34.7910   28.1870   38.6770 C   0  0  0  0  0  0  0  0  0  0  0  0
   34.5850   29.1170   39.6250 N   0  0  0  0  0  0  0  0  0  0  0  0
   35.1520   29.8720   41.4640 H   0  0  0  0  0  0  0  0  0  0  0  0
   37.3120   26.4910   40.0690 H   0  0  0  0  0  0  0  0  0  0  0  0
   37.1510   28.2390   42.1800 C   0  0  0  0  0  0  0  0  0  0  0  0
   36.4620   27.5190   43.1270 F   0  0  0  0  0  0  0  0  0  0  0  0
   37.2270   29.5610   42.5440 F   0  0  0  0  0  0  0  0  0  0  0  0
   38.4190   27.7220   41.9100 F   0  0  0  0  0  0  0  0  0  0  0  0
   31.3730   30.3720   35.8440 C   0  0  0  0  0  0  0  0  0  0  0  0
   31.5160   31.2610   34.8010 C   0  0  0  0  0  0  0  0  0  0  0  0
   32.3540   31.1670   34.1370 H   0  0  0  0  0  0  0  0  0  0  0  0
   30.6330   32.2920   34.5470 C   0  0  0  0  0  0  0  0  0  0  0  0
   30.7990   32.9580   33.7140 H   0  0  0  0  0  0  0  0  0  0  0  0
   29.5420   32.4460   35.3800 C   0  0  0  0  0  3  0  0  0  0  0  0
   29.3940   31.5450   36.4370 C   0  0  0  0  0  3  0  0  0  0  0  0
   30.2920   30.5790   36.6110 N   0  0  0  0  0  0  0  0  0  0  0  0
  1  2  1  0  0  0  0
  1 10  1  0  0  0  0
  2 18  1  0  0  0  0
  3 11  1  0  0  0  0
  3  2  2  0  0  0  0
  4  3  1  0  0  0  0
  5  4  1  0  0  0  0
  6  7  2  0  0  0  0
  6  5  1  0  0  0  0
  7  8  1  0  0  0  0
  8  4  2  0  0  0  0
  8  9  1  0  0  0  0
  9  1  2  0  0  0  0
 12  5  1  0  0  0  0
 13  6  1  0  0  0  0
 14 15  1  0  0  0  0
 14 20  1  0  0  0  0
 15 22  1  0  0  0  0
 16 21  1  0  0  0  0
 16 15  2  0  0  0  0
 17 16  1  0  0  0  0
 18 17  2  0  0  0  0
 18 19  1  0  0  0  0
 19 14  2  0  0  0  0
 22 24  1  0  0  0  0
 22 23  1  0  0  0  0
 25 22  1  0  0  0  0
 26  9  1  0  0  0  0
 26 33  1  0  0  0  0
 27 26  2  0  0  0  0
 28 27  1  0  0  0  0
 29 27  1  0  0  0  0
 29 31  2  0  0  0  0
 30 29  1  0  0  0  0
 31 32  1  0  0  0  0
 32 33  2  0  0  0  0
M  END
>  <minimizedAffinity>
-5.41641617

$$$$

 OpenBabel03242513393D

 33 36  0  0  0  0  0  0  0  0999 V2000
   36.8880   27.0310   38.6350 C   0  0  0  0  0  0  0  0  0  0  0  0
   36.6790   28.3940   38.5840 C   0  0  0  0  0  0  0  0  0  0  0  0
   36.5620   29.0730   39.7760 C   0  0  0  0  0  0  0  0  0  0  0  0
   36.6470   28.4450   41.0010 C   0  0  0  0  0  0  0  0  0  0  0  0
   36.5810   28.7940   42.2960 N   0  0  0  0  0  0  0  0  0  0  0  0
   36.7380   27.7210   43.0960 C   0  0  0  0  0  0  0  0  0  0  0  0
   36.9070   26.6740   42.2740 N   0  0  0  0  0  0  0  0  0  0  0  0
   36.8570   27.0790   40.9840 C   0  0  0  0  0  0  0  0  0  0  0  0
   36.9800   26.3540   39.8340 C   0  0  0  0  0  0  0  0  0  0  0  0
   36.9780   26.5000   37.6970 H   0  0  0  0  0  0  0  0  0  0  0  0
   36.3980   30.1430   39.7980 H   0  0  0  0  0  0  0  0  0  0  0  0
   36.4240   29.7970   42.5470 H   0  0  0  0  0  0  0  0  0  0  0  0
   36.7260   27.7250   44.1760 H   0  0  0  0  0  0  0  0  0  0  0  0
   37.0150   30.9190   35.9610 C   0  0  0  0  0  0  0  0  0  0  0  0
   36.3950   30.3090   34.8620 C   0  0  0  0  0  0  0  0  0  0  0  0
   35.8750   29.0410   35.0540 C   0  0  0  0  0  0  0  0  0  0  0  0
   35.9840   28.4490   36.2720 N   0  0  0  0  0  0  0  0  0  0  0  0
   36.5870   29.0690   37.3010 C   0  0  0  0  0  0  0  0  0  0  0  0
   37.1080   30.3010   37.1670 N   0  0  0  0  0  0  0  0  0  0  0  0
   37.4530   31.9090   35.9140 H   0  0  0  0  0  0  0  0  0  0  0  0
   35.4100   28.5980   34.2090 H   0  0  0  0  0  0  0  0  0  0  0  0
   36.3640   31.1000   33.6040 C   0  0  0  0  0  0  0  0  0  0  0  0
   37.2150   32.1650   33.7850 F   0  0  0  0  0  0  0  0  0  0  0  0
   35.0800   31.5420   33.3980 F   0  0  0  0  0  0  0  0  0  0  0  0
   36.7670   30.2410   32.5810 F   0  0  0  0  0  0  0  0  0  0  0  0
   37.2000   24.9160   39.9210 C   0  0  0  0  0  0  0  0  0  0  0  0
   36.2460   23.9680   39.6230 C   0  0  0  0  0  0  0  0  0  0  0  0
   35.2700   24.2800   39.3060 H   0  0  0  0  0  0  0  0  0  0  0  0
   36.4680   22.6070   39.7090 C   0  0  0  0  0  0  0  0  0  0  0  0
   35.6800   21.9110   39.4630 H   0  0  0  0  0  0  0  0  0  0  0  0
   37.7120   22.1650   40.1140 C   0  0  0  0  0  3  0  0  0  0  0  0
   38.6800   23.1250   40.4150 C   0  0  0  0  0  3  0  0  0  0  0  0
   38.3840   24.4180   40.3060 N   0  0  0  0  0  0  0  0  0  0  0  0
  1  9  1  0  0  0  0
  2  1  2  0  0  0  0
  2  3  1  0  0  0  0
  3 11  1  0  0  0  0
  3  4  2  0  0  0  0
  4  5  1  0  0  0  0
  5 12  1  0  0  0  0
  5  6  1  0  0  0  0
  6 13  1  0  0  0  0
  7  6  2  0  0  0  0
  8  4  1  0  0  0  0
  8  7  1  0  0  0  0
  9 26  1  0  0  0  0
  9  8  2  0  0  0  0
 10  1  1  0  0  0  0
 14 19  1  0  0  0  0
 15 16  1  0  0  0  0
 15 14  2  0  0  0  0
 16 17  2  0  0  0  0
 17 18  1  0  0  0  0
 18  2  1  0  0  0  0
 19 18  2  0  0  0  0
 20 14  1  0  0  0  0
 21 16  1  0  0  0  0
 22 23  1  0  0  0  0
 22 15  1  0  0  0  0
 24 22  1  0  0  0  0
 25 22  1  0  0  0  0
 26 33  1  0  0  0  0
 27 29  1  0  0  0  0
 27 26  2  0  0  0  0
 28 27  1  0  0  0  0
 29 31  2  0  0  0  0
 30 29  1  0  0  0  0
 31 32  1  0  0  0  0
 33 32  2  0  0  0  0
M  END
>  <minimizedAffinity>
-5.39901114

$$$$

 OpenBabel03242513393D

 33 36  0  0  0  0  0  0  0  0999 V2000
   36.3620   30.2260   38.8690 C   0  0  0  0  0  0  0  0  0  0  0  0
   35.5450   29.1160   38.9390 C   0  0  0  0  0  0  0  0  0  0  0  0
   35.5490   28.3870   40.1070 C   0  0  0  0  0  0  0  0  0  0  0  0
   36.3280   28.7240   41.1930 C   0  0  0  0  0  0  0  0  0  0  0  0
   36.5600   28.2510   42.4280 N   0  0  0  0  0  0  0  0  0  0  0  0
   37.4580   29.0150   43.0800 C   0  0  0  0  0  0  0  0  0  0  0  0
   37.7960   29.9920   42.2240 N   0  0  0  0  0  0  0  0  0  0  0  0
   37.1240   29.8460   41.0590 C   0  0  0  0  0  0  0  0  0  0  0  0
   37.1630   30.6070   39.9260 C   0  0  0  0  0  0  0  0  0  0  0  0
   36.3580   30.7960   37.9500 H   0  0  0  0  0  0  0  0  0  0  0  0
   34.9280   27.5060   40.2200 H   0  0  0  0  0  0  0  0  0  0  0  0
   36.0560   27.3930   42.7480 H   0  0  0  0  0  0  0  0  0  0  0  0
   37.8200   28.8550   44.0850 H   0  0  0  0  0  0  0  0  0  0  0  0
   34.4770   27.7220   35.7320 C   0  0  0  0  0  0  0  0  0  0  0  0
   33.1190   28.0690   35.6800 C   0  0  0  0  0  0  0  0  0  0  0  0
   32.6080   28.7760   36.7520 C   0  0  0  0  0  0  0  0  0  0  0  0
   33.4210   29.1000   37.7920 N   0  0  0  0  0  0  0  0  0  0  0  0
   34.7180   28.7470   37.8040 C   0  0  0  0  0  0  0  0  0  0  0  0
   35.2640   28.0600   36.7860 N   0  0  0  0  0  0  0  0  0  0  0  0
   34.9730   27.1690   34.9440 H   0  0  0  0  0  0  0  0  0  0  0  0
   31.5780   29.0300   36.6920 H   0  0  0  0  0  0  0  0  0  0  0  0
   32.3780   27.6350   34.4670 C   0  0  0  0  0  0  0  0  0  0  0  0
   31.6240   28.7100   34.0570 F   0  0  0  0  0  0  0  0  0  0  0  0
   31.5660   26.5820   34.8070 F   0  0  0  0  0  0  0  0  0  0  0  0
   33.3360   27.2460   33.5300 F   0  0  0  0  0  0  0  0  0  0  0  0
   38.0360   31.7730   39.8820 C   0  0  0  0  0  0  0  0  0  0  0  0
   37.6150   33.0640   40.1160 C   0  0  0  0  0  0  0  0  0  0  0  0
   36.5840   33.2520   40.3450 H   0  0  0  0  0  0  0  0  0  0  0  0
   38.4530   34.1610   40.0720 C   0  0  0  0  0  0  0  0  0  0  0  0
   38.0650   35.1500   40.2640 H   0  0  0  0  0  0  0  0  0  0  0  0
   39.7880   33.9610   39.7780 C   0  0  0  0  0  3  0  0  0  0  0  0
   40.2160   32.6530   39.5420 C   0  0  0  0  0  3  0  0  0  0  0  0
   39.3420   31.6510   39.6050 N   0  0  0  0  0  0  0  0  0  0  0  0
  1  2  2  0  0  0  0
  1  9  1  0  0  0  0
  2  3  1  0  0  0  0
  3 11  1  0  0  0  0
  3  4  2  0  0  0  0
  4  5  1  0  0  0  0
  5 12  1  0  0  0  0
  5  6  1  0  0  0  0
  6 13  1  0  0  0  0
  7  6  2  0  0  0  0
  8  4  1  0  0  0  0
  8  7  1  0  0  0  0
  9  8  2  0  0  0  0
 10  1  1  0  0  0  0
 14 19  1  0  0  0  0
 15 14  2  0  0  0  0
 15 16  1  0  0  0  0
 16 17  2  0  0  0  0
 17 18  1  0  0  0  0
 18  2  1  0  0  0  0
 19 18  2  0  0  0  0
 20 14  1  0  0  0  0
 21 16  1  0  0  0  0
 22 24  1  0  0  0  0
 22 15  1  0  0  0  0
 23 22  1  0  0  0  0
 25 22  1  0  0  0  0
 26  9  1  0  0  0  0
 26 27  1  0  0  0  0
 27 28  1  0  0  0  0
 29 27  2  0  0  0  0
 29 30  1  0  0  0  0
 31 29  1  0  0  0  0
 32 33  1  0  0  0  0
 32 31  2  0  0  0  0
 33 26  2  0  0  0  0
M  END
>  <minimizedAffinity>
-5.35792112

$$$$

 OpenBabel03242513393D

 33 36  0  0  0  0  0  0  0  0999 V2000
   35.5740   28.1250   39.0930 C   0  0  0  0  0  0  0  0  0  0  0  0
   34.9800   27.5710   37.9780 C   0  0  0  0  0  0  0  0  0  0  0  0
   35.3110   26.2760   37.6480 C   0  0  0  0  0  0  0  0  0  0  0  0
   36.2020   25.5250   38.3840 C   0  0  0  0  0  0  0  0  0  0  0  0
   36.7240   24.2880   38.3420 N   0  0  0  0  0  0  0  0  0  0  0  0
   37.5830   24.0880   39.3600 C   0  0  0  0  0  0  0  0  0  0  0  0
   37.5960   25.2350   40.0580 N   0  0  0  0  0  0  0  0  0  0  0  0
   36.7630   26.1370   39.4890 C   0  0  0  0  0  0  0  0  0  0  0  0
   36.4730   27.4170   39.8650 C   0  0  0  0  0  0  0  0  0  0  0  0
   35.3120   29.1420   39.3490 H   0  0  0  0  0  0  0  0  0  0  0  0
   34.8760   25.7890   36.7840 H   0  0  0  0  0  0  0  0  0  0  0  0
   36.4360   23.6390   37.5740 H   0  0  0  0  0  0  0  0  0  0  0  0
   38.1370   23.1820   39.5570 H   0  0  0  0  0  0  0  0  0  0  0  0
   32.1140   29.6450   37.0520 C   0  0  0  0  0  0  0  0  0  0  0  0
   32.2860   29.8110   35.6700 C   0  0  0  0  0  0  0  0  0  0  0  0
   33.3860   29.2030   35.0930 C   0  0  0  0  0  0  0  0  0  0  0  0
   34.2390   28.4840   35.8690 N   0  0  0  0  0  0  0  0  0  0  0  0
   34.0380   28.3490   37.1920 C   0  0  0  0  0  0  0  0  0  0  0  0
   32.9850   28.9200   37.8000 N   0  0  0  0  0  0  0  0  0  0  0  0
   31.2860   30.0800   37.5980 H   0  0  0  0  0  0  0  0  0  0  0  0
   33.4960   29.3410   34.0460 H   0  0  0  0  0  0  0  0  0  0  0  0
   31.2570   30.6290   34.9760 C   0  0  0  0  0  0  0  0  0  0  0  0
   30.2080   29.7870   34.6910 F   0  0  0  0  0  0  0  0  0  0  0  0
   31.8030   31.1240   33.8180 F   0  0  0  0  0  0  0  0  0  0  0  0
   30.9120   31.6630   35.8480 F   0  0  0  0  0  0  0  0  0  0  0  0
   37.1170   27.9740   41.0470 C   0  0  0  0  0  0  0  0  0  0  0  0
   36.6510   27.8090   42.3330 C   0  0  0  0  0  0  0  0  0  0  0  0
   35.7570   27.2400   42.5030 H   0  0  0  0  0  0  0  0  0  0  0  0
   37.2710   28.3420   43.4460 C   0  0  0  0  0  0  0  0  0  0  0  0
   36.8570   28.1790   44.4300 H   0  0  0  0  0  0  0  0  0  0  0  0
   38.4230   29.0830   43.2680 C   0  0  0  0  0  3  0  0  0  0  0  0
   38.8980   29.2500   41.9660 C   0  0  0  0  0  3  0  0  0  0  0  0
   38.2390   28.7020   40.9470 N   0  0  0  0  0  0  0  0  0  0  0  0
  1 10  1  0  0  0  0
  1  9  1  0  0  0  0
  2  1  2  0  0  0  0
  3  2  1  0  0  0  0
  3  4  2  0  0  0  0
  4  8  1  0  0  0  0
  5  4  1  0  0  0  0
  5  6  1  0  0  0  0
  6 13  1  0  0  0  0
  6  7  2  0  0  0  0
  8  9  2  0  0  0  0
  8  7  1  0  0  0  0
  9 26  1  0  0  0  0
 11  3  1  0  0  0  0
 12  5  1  0  0  0  0
 14 20  1  0  0  0  0
 14 19  1  0  0  0  0
 15 14  2  0  0  0  0
 16 15  1  0  0  0  0
 16 17  2  0  0  0  0
 17 18  1  0  0  0  0
 18 19  2  0  0  0  0
 18  2  1  0  0  0  0
 21 16  1  0  0  0  0
 22 15  1  0  0  0  0
 22 25  1  0  0  0  0
 23 22  1  0  0  0  0
 24 22  1  0  0  0  0
 26 27  1  0  0  0  0
 27 28  1  0  0  0  0
 27 29  2  0  0  0  0
 29 30  1  0  0  0  0
 31 29  1  0  0  0  0
 32 31  2  0  0  0  0
 33 26  2  0  0  0  0
 33 32  1  0  0  0  0
M  END
>  <minimizedAffinity>
-5.22912979

$$$$
