
 OpenBabel03252508173D

 46 50  0  0  1  0  0  0  0  0999 V2000
   47.2580   31.0630   46.9200 C   0  0  0  0  0  0  0  0  0  0  0  0
   46.4310   30.2960   46.8760 H   0  0  0  0  0  0  0  0  0  0  0  0
   48.1350   30.5600   46.5390 H   0  0  0  0  0  0  0  0  0  0  0  0
   47.3450   31.6720   48.2700 C   0  0  1  0  0  0  0  0  0  0  0  0
   46.9730   30.7830   49.4090 C   0  0  0  0  0  0  0  0  0  0  0  0
   48.3650   31.2020   49.2370 C   0  0  1  0  0  0  0  0  0  0  0  0
   46.7920   32.6530   48.3970 H   0  0  0  0  0  0  0  0  0  0  0  0
   46.4130   31.1240   50.2860 H   0  0  0  0  0  0  0  0  0  0  0  0
   46.7550   29.7080   49.1780 H   0  0  0  0  0  0  0  0  0  0  0  0
   48.7080   31.9950   49.9320 H   0  0  0  0  0  0  0  0  0  0  0  0
   49.4040   30.2680   48.7540 C   0  0  2  0  0  0  0  0  0  0  0  0
   49.8980   29.2450   49.8030 C   0  0  0  0  0  0  0  0  0  0  0  0
   50.7950   30.3160   49.3970 C   0  0  2  0  0  0  0  0  0  0  0  0
   49.2770   29.7500   47.7770 H   0  0  0  0  0  0  0  0  0  0  0  0
   49.4660   29.3280   50.8200 H   0  0  0  0  0  0  0  0  0  0  0  0
   50.1200   28.2210   49.5190 H   0  0  0  0  0  0  0  0  0  0  0  0
   51.5690   30.0700   48.6060 H   0  0  0  0  0  0  0  0  0  0  0  0
   51.1320   31.4670   50.2300 C   0  0  0  0  0  0  0  0  0  0  0  0
   51.5170   32.7150   49.8150 C   0  0  0  0  0  0  0  0  0  0  0  0
   51.5640   32.9010   48.7500 H   0  0  0  0  0  0  0  0  0  0  0  0
   51.8400   33.7740   50.6170 C   0  0  0  0  0  0  0  0  0  0  0  0
   52.1340   34.7260   50.2050 H   0  0  0  0  0  0  0  0  0  0  0  0
   51.7820   33.5960   51.9840 C   0  0  0  0  0  0  0  0  0  0  0  0
   51.3980   32.3520   52.4240 C   0  0  0  0  0  0  0  0  0  0  0  0
   51.0910   31.3440   51.5880 N   0  0  0  0  0  0  0  0  0  0  0  0
   46.1050   32.9930   46.2010 C   0  0  0  0  0  0  0  0  0  0  0  0
   46.9640   32.1210   45.8790 C   0  0  0  0  0  0  0  0  0  0  0  0
   44.5430   35.8680   44.5050 C   0  0  0  0  0  0  0  0  0  0  0  0
   45.1960   35.9050   43.2830 C   0  0  0  0  0  0  0  0  0  0  0  0
   46.1460   34.9460   43.0720 C   0  0  0  0  0  0  0  0  0  0  0  0
   46.4110   34.0200   44.0320 N   0  0  0  0  0  0  0  0  0  0  0  0
   45.7490   34.0170   45.2160 C   0  0  0  0  0  0  0  0  0  0  0  0
   44.8320   34.9440   45.4190 N   0  0  0  0  0  0  0  0  0  0  0  0
   43.7900   36.6260   44.6770 H   0  0  0  0  0  0  0  0  0  0  0  0
   45.0310   36.6070   42.4950 H   0  0  0  0  0  0  0  0  0  0  0  0
   46.9150   34.8600   41.8380 C   0  0  0  0  0  0  0  0  0  0  0  0
   48.1230   35.4910   41.6370 C   0  0  0  0  0  0  0  0  0  0  0  0
   48.8500   35.4080   40.4660 C   0  0  0  0  0  0  0  0  0  0  0  0
   48.3650   34.6620   39.4250 C   0  0  0  0  0  0  0  0  0  0  0  0
   47.1650   34.0120   39.5730 C   0  0  0  0  0  0  0  0  0  0  0  0
   46.4740   34.1270   40.7660 C   0  0  0  0  0  0  0  0  0  0  0  0
   48.5360   36.0950   42.4520 H   0  0  0  0  0  0  0  0  0  0  0  0
   49.7980   35.9250   40.3560 H   0  0  0  0  0  0  0  0  0  0  0  0
   48.9370   34.5980   38.5070 H   0  0  0  0  0  0  0  0  0  0  0  0
   46.7500   33.4100   38.7670 H   0  0  0  0  0  0  0  0  0  0  0  0
   45.5330   33.5930   40.8290 H   0  0  0  0  0  0  0  0  0  0  0  0
  1  4  1  0  0  0  0
  2  1  1  0  0  0  0
  3  1  1  0  0  0  0
  4  7  1  1  0  0  0
  4  6  1  0  0  0  0
  4  5  1  0  0  0  0
  5  8  1  0  0  0  0
  6  5  1  0  0  0  0
  6 10  1  1  0  0  0
  9  5  1  0  0  0  0
 11 14  1  6  0  0  0
 11  6  1  0  0  0  0
 11 13  1  0  0  0  0
 11 12  1  0  0  0  0
 12 15  1  0  0  0  0
 13 17  1  6  0  0  0
 13 12  1  0  0  0  0
 13 18  1  0  0  0  0
 16 12  1  0  0  0  0
 18 25  1  0  0  0  0
 19 18  2  0  0  0  0
 19 21  1  0  0  0  0
 20 19  1  0  0  0  0
 21 23  2  0  0  0  0
 22 21  1  0  0  0  0
 23 24  1  0  0  0  0
 25 24  2  0  0  0  0
 27 26  2  0  0  0  0
 27  1  1  0  0  0  0
 28 34  1  0  0  0  0
 28 33  1  0  0  0  0
 29 28  2  0  0  0  0
 30 29  1  0  0  0  0
 30 31  2  0  0  0  0
 31 32  1  0  0  0  0
 32 33  2  0  0  0  0
 32 26  1  0  0  0  0
 35 29  1  0  0  0  0
 36 30  1  0  0  0  0
 37 36  1  0  0  0  0
 37 42  1  0  0  0  0
 38 37  2  0  0  0  0
 39 40  2  0  0  0  0
 39 38  1  0  0  0  0
 40 41  1  0  0  0  0
 41 46  1  0  0  0  0
 41 36  2  0  0  0  0
 43 38  1  0  0  0  0
 44 39  1  0  0  0  0
 45 40  1  0  0  0  0
M  END
>  <minimizedAffinity>
-7.02633238

>  <minimizedRMSD>
1.72247207

$$$$
