
 OpenBabel03252506443D

 39 42  0  0  1  0  0  0  0  0999 V2000
   36.9290   29.6930   40.5920 N   0  0  1  0  0  0  0  0  0  0  0  0
   37.1240   31.0790   40.9140 C   0  0  0  0  0  0  0  0  0  0  0  0
   36.9180   32.0510   39.8130 C   0  0  0  0  0  0  0  0  0  0  0  0
   37.8930   31.8010   38.6980 C   0  0  0  0  0  0  0  0  0  0  0  0
   38.2170   30.3510   38.5720 C   0  0  0  0  0  0  0  0  0  0  0  0
   37.1460   29.5080   39.1750 C   0  0  2  0  0  0  0  0  0  0  0  0
   36.3920   31.3110   41.7330 H   0  0  0  0  0  0  0  0  0  0  0  0
   38.1180   31.2870   41.3660 H   0  0  0  0  0  0  0  0  0  0  0  0
   35.9000   32.2370   39.4780 H   0  0  0  0  0  0  0  0  0  0  0  0
   37.2330   33.0570   40.2560 H   0  0  0  0  0  0  0  0  0  0  0  0
   38.8500   32.3240   38.9320 H   0  0  0  0  0  0  0  0  0  0  0  0
   37.5520   32.2490   37.7310 H   0  0  0  0  0  0  0  0  0  0  0  0
   38.2960   30.0520   37.5060 H   0  0  0  0  0  0  0  0  0  0  0  0
   39.2000   30.0810   39.0140 H   0  0  0  0  0  0  0  0  0  0  0  0
   37.6600   28.4580   39.1820 H   0  0  0  0  0  0  0  0  0  0  0  0
   35.9500   29.2590   38.3740 C   0  0  0  0  0  0  0  0  0  0  0  0
   34.6490   29.0540   38.7830 C   0  0  0  0  0  0  0  0  0  0  0  0
   34.4740   29.0460   39.8470 H   0  0  0  0  0  0  0  0  0  0  0  0
   33.5540   28.8440   37.9770 C   0  0  0  0  0  0  0  0  0  0  0  0
   32.5800   28.6950   38.4180 H   0  0  0  0  0  0  0  0  0  0  0  0
   33.7450   28.8320   36.6150 C   0  0  0  0  0  3  0  0  0  0  0  0
   35.0350   29.0340   36.1850 C   0  0  0  0  0  3  0  0  0  0  0  0
   36.0730   29.2350   37.0120 N   0  0  0  0  0  0  0  0  0  0  0  0
   37.3240   27.9480   42.4500 C   0  0  1  0  0  0  0  0  0  0  0  0
   37.7130   29.2710   42.8890 C   0  0  0  0  0  0  0  0  0  0  0  0
   37.8350   28.9530   41.4270 C   0  0  2  0  0  0  0  0  0  0  0  0
   36.2590   27.6860   42.2450 H   0  0  0  0  0  0  0  0  0  0  0  0
   38.6360   29.3580   43.5040 H   0  0  0  0  0  0  0  0  0  0  0  0
   36.8830   29.9490   43.2340 H   0  0  0  0  0  0  0  0  0  0  0  0
   38.8770   28.8340   41.0680 H   0  0  0  0  0  0  0  0  0  0  0  0
   37.8150   25.4890   42.1700 C   0  0  0  0  0  0  0  0  0  0  0  0
   38.1730   26.7550   42.7190 C   0  0  0  0  0  0  0  0  0  0  0  0
   39.3160   26.8180   43.4930 C   0  0  0  0  0  0  0  0  0  0  0  0
   40.0220   25.6690   43.6790 N   0  0  0  0  0  0  0  0  0  0  0  0
   39.6620   24.4860   43.1500 C   0  0  0  0  0  0  0  0  0  0  0  0
   38.5570   24.3800   42.3890 N   0  0  0  0  0  0  0  0  0  0  0  0
   36.9120   25.4250   41.5530 H   0  0  0  0  0  0  0  0  0  0  0  0
   39.6170   27.7540   43.9230 H   0  0  0  0  0  0  0  0  0  0  0  0
   40.2750   23.6130   43.3430 H   0  0  0  0  0  0  0  0  0  0  0  0
  1  2  1  6  0  0  0
  1 26  1  0  0  0  0
  2  8  1  0  0  0  0
  2  7  1  0  0  0  0
  3 10  1  0  0  0  0
  3  2  1  0  0  0  0
  4 11  1  0  0  0  0
  4  3  1  0  0  0  0
  5  4  1  0  0  0  0
  5 14  1  0  0  0  0
  5  6  1  0  0  0  0
  6 15  1  6  0  0  0
  6  1  1  0  0  0  0
  9  3  1  0  0  0  0
 12  4  1  0  0  0  0
 13  5  1  0  0  0  0
 16 17  1  0  0  0  0
 16  6  1  0  0  0  0
 17 18  1  0  0  0  0
 19 20  1  0  0  0  0
 19 17  2  0  0  0  0
 21 19  1  0  0  0  0
 22 21  2  0  0  0  0
 22 23  1  0  0  0  0
 23 16  2  0  0  0  0
 24 27  1  6  0  0  0
 24 32  1  0  0  0  0
 24 25  1  0  0  0  0
 25 29  1  0  0  0  0
 25 28  1  0  0  0  0
 26 30  1  6  0  0  0
 26 24  1  0  0  0  0
 26 25  1  0  0  0  0
 31 36  2  0  0  0  0
 31 32  1  0  0  0  0
 32 33  2  0  0  0  0
 33 34  1  0  0  0  0
 33 38  1  0  0  0  0
 35 39  1  0  0  0  0
 35 34  2  0  0  0  0
 36 35  1  0  0  0  0
 37 31  1  0  0  0  0
M  END
>  <minimizedAffinity>
-5.5201869

$$$$

 OpenBabel03252506443D

 39 42  0  0  1  0  0  0  0  0999 V2000
   38.0910   31.1530   39.6290 N   0  0  1  0  0  0  0  0  0  0  0  0
   36.9820   32.0510   39.4610 C   0  0  0  0  0  0  0  0  0  0  0  0
   37.3110   33.4540   39.1130 C   0  0  0  0  0  0  0  0  0  0  0  0
   38.1290   34.0910   40.2000 C   0  0  0  0  0  0  0  0  0  0  0  0
   39.0140   33.0970   40.8700 C   0  0  0  0  0  0  0  0  0  0  0  0
   39.2620   31.9200   39.9900 C   0  0  2  0  0  0  0  0  0  0  0  0
   36.3570   31.6170   38.6360 H   0  0  0  0  0  0  0  0  0  0  0  0
   36.3010   32.0720   40.3400 H   0  0  0  0  0  0  0  0  0  0  0  0
   37.6730   33.6590   38.1080 H   0  0  0  0  0  0  0  0  0  0  0  0
   36.3070   33.9990   39.1430 H   0  0  0  0  0  0  0  0  0  0  0  0
   37.4390   34.4850   40.9840 H   0  0  0  0  0  0  0  0  0  0  0  0
   38.6890   34.9880   39.8360 H   0  0  0  0  0  0  0  0  0  0  0  0
   40.0070   33.5380   41.0990 H   0  0  0  0  0  0  0  0  0  0  0  0
   38.6250   32.7540   41.8530 H   0  0  0  0  0  0  0  0  0  0  0  0
   39.7690   31.1780   40.7380 H   0  0  0  0  0  0  0  0  0  0  0  0
   40.2800   32.0540   38.9520 C   0  0  0  0  0  0  0  0  0  0  0  0
   40.9990   33.1660   38.5680 C   0  0  0  0  0  0  0  0  0  0  0  0
   40.7710   34.0880   39.0790 H   0  0  0  0  0  0  0  0  0  0  0  0
   41.9660   33.2280   37.5900 C   0  0  0  0  0  0  0  0  0  0  0  0
   42.4610   34.1640   37.3800 H   0  0  0  0  0  0  0  0  0  0  0  0
   42.2690   32.0740   36.9060 C   0  0  0  0  0  3  0  0  0  0  0  0
   41.5640   30.9520   37.2720 C   0  0  0  0  0  3  0  0  0  0  0  0
   40.6280   30.9420   38.2350 N   0  0  0  0  0  0  0  0  0  0  0  0
   36.6550   29.1190   40.3070 C   0  0  1  0  0  0  0  0  0  0  0  0
   36.2480   30.3070   41.0280 C   0  0  0  0  0  0  0  0  0  0  0  0
   37.6880   30.1930   40.6200 C   0  0  2  0  0  0  0  0  0  0  0  0
   36.5120   29.0230   39.2040 H   0  0  0  0  0  0  0  0  0  0  0  0
   35.9770   30.1890   42.1010 H   0  0  0  0  0  0  0  0  0  0  0  0
   35.5780   31.0230   40.4760 H   0  0  0  0  0  0  0  0  0  0  0  0
   38.3890   30.0020   41.4570 H   0  0  0  0  0  0  0  0  0  0  0  0
   37.0580   26.6310   40.2210 C   0  0  0  0  0  0  0  0  0  0  0  0
   36.8080   27.8050   40.9890 C   0  0  0  0  0  0  0  0  0  0  0  0
   36.7150   27.6680   42.3610 C   0  0  0  0  0  0  0  0  0  0  0  0
   36.8690   26.4210   42.8860 N   0  0  0  0  0  0  0  0  0  0  0  0
   37.1040   25.3270   42.1390 C   0  0  0  0  0  0  0  0  0  0  0  0
   37.2020   25.4170   40.8000 N   0  0  0  0  0  0  0  0  0  0  0  0
   37.1350   26.7250   39.1330 H   0  0  0  0  0  0  0  0  0  0  0  0
   36.5270   28.5290   42.9710 H   0  0  0  0  0  0  0  0  0  0  0  0
   37.2140   24.3660   42.6290 H   0  0  0  0  0  0  0  0  0  0  0  0
  1  2  1  1  0  0  0
  1  6  1  0  0  0  0
  1 26  1  0  0  0  0
  2  8  1  0  0  0  0
  3 10  1  0  0  0  0
  3  2  1  0  0  0  0
  3  4  1  0  0  0  0
  4  5  1  0  0  0  0
  4 11  1  0  0  0  0
  5 13  1  0  0  0  0
  5 14  1  0  0  0  0
  6 15  1  1  0  0  0
  6  5  1  0  0  0  0
  7  2  1  0  0  0  0
  9  3  1  0  0  0  0
 12  4  1  0  0  0  0
 16  6  1  0  0  0  0
 17 16  1  0  0  0  0
 17 18  1  0  0  0  0
 19 17  2  0  0  0  0
 20 19  1  0  0  0  0
 21 22  2  0  0  0  0
 21 19  1  0  0  0  0
 22 23  1  0  0  0  0
 23 16  2  0  0  0  0
 24 27  1  6  0  0  0
 24 26  1  0  0  0  0
 24 32  1  0  0  0  0
 24 25  1  0  0  0  0
 25 28  1  0  0  0  0
 26 25  1  0  0  0  0
 26 30  1  1  0  0  0
 29 25  1  0  0  0  0
 31 36  2  0  0  0  0
 31 32  1  0  0  0  0
 32 33  2  0  0  0  0
 33 34  1  0  0  0  0
 33 38  1  0  0  0  0
 35 39  1  0  0  0  0
 35 34  2  0  0  0  0
 36 35  1  0  0  0  0
 37 31  1  0  0  0  0
M  END
>  <minimizedAffinity>
-5.0928793

$$$$

 OpenBabel03252506443D

 39 42  0  0  1  0  0  0  0  0999 V2000
   37.9420   30.9290   40.7210 N   0  0  1  0  0  0  0  0  0  0  0  0
   36.5460   31.1680   40.4790 C   0  0  0  0  0  0  0  0  0  0  0  0
   35.6600   29.9790   40.4740 C   0  0  0  0  0  0  0  0  0  0  0  0
   36.0570   29.0290   39.3810 C   0  0  0  0  0  0  0  0  0  0  0  0
   37.5270   29.0580   39.1400 C   0  0  0  0  0  0  0  0  0  0  0  0
   38.2570   29.5720   40.3330 C   0  0  2  0  0  0  0  0  0  0  0  0
   36.2070   31.8600   41.2950 H   0  0  0  0  0  0  0  0  0  0  0  0
   36.3560   31.7350   39.5410 H   0  0  0  0  0  0  0  0  0  0  0  0
   35.4480   29.4970   41.4260 H   0  0  0  0  0  0  0  0  0  0  0  0
   34.6400   30.3840   40.1550 H   0  0  0  0  0  0  0  0  0  0  0  0
   35.5700   29.3510   38.4310 H   0  0  0  0  0  0  0  0  0  0  0  0
   35.6730   27.9940   39.5620 H   0  0  0  0  0  0  0  0  0  0  0  0
   37.9190   28.0390   38.9410 H   0  0  0  0  0  0  0  0  0  0  0  0
   37.8130   29.6490   38.2430 H   0  0  0  0  0  0  0  0  0  0  0  0
   39.3300   29.7290   39.8950 H   0  0  0  0  0  0  0  0  0  0  0  0
   38.5060   28.6380   41.4280 C   0  0  0  0  0  0  0  0  0  0  0  0
   37.9470   28.5960   42.6870 C   0  0  0  0  0  0  0  0  0  0  0  0
   37.2400   29.3740   42.9270 H   0  0  0  0  0  0  0  0  0  0  0  0
   38.2060   27.6750   43.6760 C   0  0  0  0  0  0  0  0  0  0  0  0
   37.7010   27.7470   44.6270 H   0  0  0  0  0  0  0  0  0  0  0  0
   39.1160   26.6780   43.4090 C   0  0  0  0  0  3  0  0  0  0  0  0
   39.6870   26.7010   42.1580 C   0  0  0  0  0  3  0  0  0  0  0  0
   39.4000   27.6240   41.2260 N   0  0  0  0  0  0  0  0  0  0  0  0
   39.7030   32.8130   40.6550 C   0  0  1  0  0  0  0  0  0  0  0  0
   38.3720   33.3370   40.4300 C   0  0  0  0  0  0  0  0  0  0  0  0
   38.6580   31.9330   39.9830 C   0  0  2  0  0  0  0  0  0  0  0  0
   40.0060   32.3810   41.6380 H   0  0  0  0  0  0  0  0  0  0  0  0
   38.2580   34.1380   39.6650 H   0  0  0  0  0  0  0  0  0  0  0  0
   37.7370   33.5010   41.3440 H   0  0  0  0  0  0  0  0  0  0  0  0
   38.7260   31.8060   38.8840 H   0  0  0  0  0  0  0  0  0  0  0  0
   40.8230   33.0990   38.4130 C   0  0  0  0  0  0  0  0  0  0  0  0
   40.8640   33.2480   39.8290 C   0  0  0  0  0  0  0  0  0  0  0  0
   42.0030   33.7980   40.3850 C   0  0  0  0  0  0  0  0  0  0  0  0
   43.0090   34.1610   39.5420 N   0  0  0  0  0  0  0  0  0  0  0  0
   42.9460   34.0090   38.2070 C   0  0  0  0  0  0  0  0  0  0  0  0
   41.8550   33.4780   37.6250 N   0  0  0  0  0  0  0  0  0  0  0  0
   39.9250   32.6650   37.9590 H   0  0  0  0  0  0  0  0  0  0  0  0
   42.0700   33.9250   41.4480 H   0  0  0  0  0  0  0  0  0  0  0  0
   43.7880   34.3220   37.6000 H   0  0  0  0  0  0  0  0  0  0  0  0
  1  2  1  6  0  0  0
  2  7  1  0  0  0  0
  3  2  1  0  0  0  0
  3  9  1  0  0  0  0
  4 12  1  0  0  0  0
  4  3  1  0  0  0  0
  5  4  1  0  0  0  0
  5  6  1  0  0  0  0
  6 15  1  6  0  0  0
  6  1  1  0  0  0  0
  6 16  1  0  0  0  0
  8  2  1  0  0  0  0
 10  3  1  0  0  0  0
 11  4  1  0  0  0  0
 13  5  1  0  0  0  0
 14  5  1  0  0  0  0
 16 17  1  0  0  0  0
 17 18  1  0  0  0  0
 17 19  2  0  0  0  0
 19 20  1  0  0  0  0
 21 19  1  0  0  0  0
 22 21  2  0  0  0  0
 23 16  2  0  0  0  0
 23 22  1  0  0  0  0
 24 27  1  1  0  0  0
 25 24  1  0  0  0  0
 25 29  1  0  0  0  0
 26 30  1  6  0  0  0
 26 25  1  0  0  0  0
 26 24  1  0  0  0  0
 26  1  1  0  0  0  0
 28 25  1  0  0  0  0
 31 32  1  0  0  0  0
 32 33  2  0  0  0  0
 32 24  1  0  0  0  0
 33 38  1  0  0  0  0
 34 33  1  0  0  0  0
 35 34  2  0  0  0  0
 36 35  1  0  0  0  0
 36 31  2  0  0  0  0
 37 31  1  0  0  0  0
 39 35  1  0  0  0  0
M  END
>  <minimizedAffinity>
-5.08611202

$$$$

 OpenBabel03252506443D

 39 42  0  0  1  0  0  0  0  0999 V2000
   38.9360   26.9900   41.9790 N   0  0  1  0  0  0  0  0  0  0  0  0
   37.9930   25.9880   42.3910 C   0  0  0  0  0  0  0  0  0  0  0  0
   36.5860   26.4260   42.5550 C   0  0  0  0  0  0  0  0  0  0  0  0
   36.4820   27.4790   43.6220 C   0  0  0  0  0  0  0  0  0  0  0  0
   37.7030   28.3310   43.6690 C   0  0  0  0  0  0  0  0  0  0  0  0
   38.4370   28.2890   42.3730 C   0  0  2  0  0  0  0  0  0  0  0  0
   38.0270   25.1910   41.6010 H   0  0  0  0  0  0  0  0  0  0  0  0
   38.2940   25.4630   43.3250 H   0  0  0  0  0  0  0  0  0  0  0  0
   36.0120   26.6460   41.6580 H   0  0  0  0  0  0  0  0  0  0  0  0
   36.0510   25.5150   42.9890 H   0  0  0  0  0  0  0  0  0  0  0  0
   36.4030   26.9770   44.6150 H   0  0  0  0  0  0  0  0  0  0  0  0
   35.5430   28.0800   43.5300 H   0  0  0  0  0  0  0  0  0  0  0  0
   37.4410   29.3940   43.8520 H   0  0  0  0  0  0  0  0  0  0  0  0
   38.3930   28.0650   44.4980 H   0  0  0  0  0  0  0  0  0  0  0  0
   39.4410   28.8140   42.6620 H   0  0  0  0  0  0  0  0  0  0  0  0
   37.9470   29.1380   41.2900 C   0  0  0  0  0  0  0  0  0  0  0  0
   37.1520   30.2630   41.3490 C   0  0  0  0  0  0  0  0  0  0  0  0
   36.8110   30.5600   42.3280 H   0  0  0  0  0  0  0  0  0  0  0  0
   36.7360   31.0370   40.2910 C   0  0  0  0  0  0  0  0  0  0  0  0
   36.1110   31.9000   40.4660 H   0  0  0  0  0  0  0  0  0  0  0  0
   37.1390   30.6750   39.0270 C   0  0  0  0  0  3  0  0  0  0  0  0
   37.9320   29.5560   38.9430 C   0  0  0  0  0  3  0  0  0  0  0  0
   38.3120   28.8310   40.0080 N   0  0  0  0  0  0  0  0  0  0  0  0
   40.9980   25.4430   42.0830 C   0  0  1  0  0  0  0  0  0  0  0  0
   40.1820   25.3030   43.2710 C   0  0  0  0  0  0  0  0  0  0  0  0
   40.1920   26.6360   42.5800 C   0  0  2  0  0  0  0  0  0  0  0  0
   40.6350   25.1160   41.0800 H   0  0  0  0  0  0  0  0  0  0  0  0
   40.7090   25.1940   44.2460 H   0  0  0  0  0  0  0  0  0  0  0  0
   39.2730   24.6470   43.1800 H   0  0  0  0  0  0  0  0  0  0  0  0
   40.7380   27.4320   43.1250 H   0  0  0  0  0  0  0  0  0  0  0  0
   43.1310   25.4880   43.4280 C   0  0  0  0  0  0  0  0  0  0  0  0
   42.4820   25.5410   42.1610 C   0  0  0  0  0  0  0  0  0  0  0  0
   43.2740   25.6860   41.0390 C   0  0  0  0  0  0  0  0  0  0  0  0
   44.6210   25.7680   41.2180 N   0  0  0  0  0  0  0  0  0  0  0  0
   45.2110   25.7160   42.4270 C   0  0  0  0  0  0  0  0  0  0  0  0
   44.4760   25.5740   43.5450 N   0  0  0  0  0  0  0  0  0  0  0  0
   42.5150   25.3720   44.3260 H   0  0  0  0  0  0  0  0  0  0  0  0
   42.8200   25.7310   40.0670 H   0  0  0  0  0  0  0  0  0  0  0  0
   46.2900   25.7880   42.4910 H   0  0  0  0  0  0  0  0  0  0  0  0
  1  6  1  0  0  0  0
  1  2  1  1  0  0  0
  1 26  1  0  0  0  0
  2  3  1  0  0  0  0
  2  8  1  0  0  0  0
  3 10  1  0  0  0  0
  3  4  1  0  0  0  0
  4  5  1  0  0  0  0
  4 11  1  0  0  0  0
  5 13  1  0  0  0  0
  5 14  1  0  0  0  0
  6 15  1  1  0  0  0
  6  5  1  0  0  0  0
  7  2  1  0  0  0  0
  9  3  1  0  0  0  0
 12  4  1  0  0  0  0
 16 17  1  0  0  0  0
 16  6  1  0  0  0  0
 17 18  1  0  0  0  0
 19 20  1  0  0  0  0
 19 17  2  0  0  0  0
 21 19  1  0  0  0  0
 22 21  2  0  0  0  0
 22 23  1  0  0  0  0
 23 16  2  0  0  0  0
 24 27  1  6  0  0  0
 24 32  1  0  0  0  0
 24 26  1  0  0  0  0
 24 25  1  0  0  0  0
 25 28  1  0  0  0  0
 26 30  1  1  0  0  0
 26 25  1  0  0  0  0
 29 25  1  0  0  0  0
 31 36  1  0  0  0  0
 31 37  1  0  0  0  0
 32 31  2  0  0  0  0
 33 34  2  0  0  0  0
 33 32  1  0  0  0  0
 34 35  1  0  0  0  0
 35 39  1  0  0  0  0
 35 36  2  0  0  0  0
 38 33  1  0  0  0  0
M  END
>  <minimizedAffinity>
-4.9622407

$$$$

 OpenBabel03252506443D

 39 42  0  0  1  0  0  0  0  0999 V2000
   37.0180   29.8680   40.4000 N   0  0  1  0  0  0  0  0  0  0  0  0
   35.6900   30.3250   40.0980 C   0  0  0  0  0  0  0  0  0  0  0  0
   34.7020   29.2880   39.7160 C   0  0  0  0  0  0  0  0  0  0  0  0
   35.1330   28.5840   38.4620 C   0  0  0  0  0  0  0  0  0  0  0  0
   36.6170   28.4910   38.3710 C   0  0  0  0  0  0  0  0  0  0  0  0
   37.2460   28.6140   39.7170 C   0  0  2  0  0  0  0  0  0  0  0  0
   35.3240   30.8400   41.0260 H   0  0  0  0  0  0  0  0  0  0  0  0
   35.6680   31.1170   39.3170 H   0  0  0  0  0  0  0  0  0  0  0  0
   34.3320   28.6230   40.4940 H   0  0  0  0  0  0  0  0  0  0  0  0
   33.7700   29.8780   39.4150 H   0  0  0  0  0  0  0  0  0  0  0  0
   34.7950   29.1790   37.5810 H   0  0  0  0  0  0  0  0  0  0  0  0
   34.6330   27.5900   38.3430 H   0  0  0  0  0  0  0  0  0  0  0  0
   36.9310   27.5070   37.9620 H   0  0  0  0  0  0  0  0  0  0  0  0
   37.0630   29.2380   37.6800 H   0  0  0  0  0  0  0  0  0  0  0  0
   38.3730   28.7390   39.4320 H   0  0  0  0  0  0  0  0  0  0  0  0
   37.2720   27.4240   40.5630 C   0  0  0  0  0  0  0  0  0  0  0  0
   37.0480   27.3060   41.9180 C   0  0  0  0  0  0  0  0  0  0  0  0
   36.8500   28.2210   42.4540 H   0  0  0  0  0  0  0  0  0  0  0  0
   37.0670   26.1480   42.6610 C   0  0  0  0  0  0  0  0  0  0  0  0
   36.8750   26.1850   43.7230 H   0  0  0  0  0  0  0  0  0  0  0  0
   37.3340   24.9660   42.0110 C   0  0  0  0  0  3  0  0  0  0  0  0
   37.5600   25.0590   40.6580 C   0  0  0  0  0  3  0  0  0  0  0  0
   37.5320   26.2150   39.9760 N   0  0  0  0  0  0  0  0  0  0  0  0
   38.4540   31.9200   41.0190 C   0  0  1  0  0  0  0  0  0  0  0  0
   37.3380   32.3000   40.1780 C   0  0  0  0  0  0  0  0  0  0  0  0
   37.9100   30.9230   40.0040 C   0  0  2  0  0  0  0  0  0  0  0  0
   38.3050   31.5420   42.0580 H   0  0  0  0  0  0  0  0  0  0  0  0
   37.5230   33.0680   39.3940 H   0  0  0  0  0  0  0  0  0  0  0  0
   36.3430   32.4180   40.6900 H   0  0  0  0  0  0  0  0  0  0  0  0
   38.4840   30.7800   39.0670 H   0  0  0  0  0  0  0  0  0  0  0  0
   40.0040   33.6430   40.0240 C   0  0  0  0  0  0  0  0  0  0  0  0
   39.8250   32.4520   40.7850 C   0  0  0  0  0  0  0  0  0  0  0  0
   40.9540   31.8310   41.2810 C   0  0  0  0  0  0  0  0  0  0  0  0
   42.1630   32.3980   41.0090 N   0  0  0  0  0  0  0  0  0  0  0  0
   42.3050   33.5240   40.2860 C   0  0  0  0  0  0  0  0  0  0  0  0
   41.2300   34.1610   39.7860 N   0  0  0  0  0  0  0  0  0  0  0  0
   39.1160   34.1460   39.6250 H   0  0  0  0  0  0  0  0  0  0  0  0
   40.8590   30.9310   41.8580 H   0  0  0  0  0  0  0  0  0  0  0  0
   43.3000   33.9160   40.1110 H   0  0  0  0  0  0  0  0  0  0  0  0
  1  2  1  6  0  0  0
  2  7  1  0  0  0  0
  3  2  1  0  0  0  0
  3  9  1  0  0  0  0
  4  3  1  0  0  0  0
  5  4  1  0  0  0  0
  5  6  1  0  0  0  0
  6 15  1  6  0  0  0
  6  1  1  0  0  0  0
  6 16  1  0  0  0  0
  8  2  1  0  0  0  0
 10  3  1  0  0  0  0
 11  4  1  0  0  0  0
 12  4  1  0  0  0  0
 13  5  1  0  0  0  0
 14  5  1  0  0  0  0
 16 17  1  0  0  0  0
 17 18  1  0  0  0  0
 17 19  2  0  0  0  0
 19 20  1  0  0  0  0
 21 19  1  0  0  0  0
 22 21  2  0  0  0  0
 23 16  2  0  0  0  0
 23 22  1  0  0  0  0
 24 27  1  1  0  0  0
 25 29  1  0  0  0  0
 25 24  1  0  0  0  0
 26 30  1  6  0  0  0
 26 25  1  0  0  0  0
 26  1  1  0  0  0  0
 26 24  1  0  0  0  0
 28 25  1  0  0  0  0
 31 32  1  0  0  0  0
 32 24  1  0  0  0  0
 32 33  2  0  0  0  0
 33 38  1  0  0  0  0
 34 33  1  0  0  0  0
 35 34  2  0  0  0  0
 36 31  2  0  0  0  0
 36 35  1  0  0  0  0
 37 31  1  0  0  0  0
 39 35  1  0  0  0  0
M  END
>  <minimizedAffinity>
-4.91524887

$$$$

 OpenBabel03252506443D

 39 42  0  0  1  0  0  0  0  0999 V2000
   37.1490   29.9470   39.1780 N   0  0  1  0  0  0  0  0  0  0  0  0
   35.9310   29.9260   38.4190 C   0  0  0  0  0  0  0  0  0  0  0  0
   35.0520   28.7460   38.6050 C   0  0  0  0  0  0  0  0  0  0  0  0
   35.7600   27.4890   38.1840 C   0  0  0  0  0  0  0  0  0  0  0  0
   37.2240   27.5730   38.4470 C   0  0  0  0  0  0  0  0  0  0  0  0
   37.5240   28.5870   39.4980 C   0  0  2  0  0  0  0  0  0  0  0  0
   35.3610   30.8430   38.7250 H   0  0  0  0  0  0  0  0  0  0  0  0
   36.0940   30.0560   37.3260 H   0  0  0  0  0  0  0  0  0  0  0  0
   34.5090   28.6560   39.5430 H   0  0  0  0  0  0  0  0  0  0  0  0
   34.2190   28.8850   37.8350 H   0  0  0  0  0  0  0  0  0  0  0  0
   35.6390   27.3600   37.0830 H   0  0  0  0  0  0  0  0  0  0  0  0
   35.2960   26.5740   38.6310 H   0  0  0  0  0  0  0  0  0  0  0  0
   37.6190   26.6040   38.8180 H   0  0  0  0  0  0  0  0  0  0  0  0
   37.8220   27.7910   37.5360 H   0  0  0  0  0  0  0  0  0  0  0  0
   38.6860   28.6690   39.4110 H   0  0  0  0  0  0  0  0  0  0  0  0
   37.3460   28.1890   40.8920 C   0  0  0  0  0  0  0  0  0  0  0  0
   37.0030   26.9600   41.4160 C   0  0  0  0  0  0  0  0  0  0  0  0
   36.8080   26.1710   40.7060 H   0  0  0  0  0  0  0  0  0  0  0  0
   36.8690   26.6380   42.7460 C   0  0  0  0  0  0  0  0  0  0  0  0
   36.5950   25.6340   43.0340 H   0  0  0  0  0  0  0  0  0  0  0  0
   37.0950   27.6250   43.6770 C   0  0  0  0  0  3  0  0  0  0  0  0
   37.4380   28.8590   43.1780 C   0  0  0  0  0  3  0  0  0  0  0  0
   37.5560   29.1250   41.8670 N   0  0  0  0  0  0  0  0  0  0  0  0
   39.2060   31.4960   39.0160 C   0  0  1  0  0  0  0  0  0  0  0  0
   38.0240   32.1440   38.4870 C   0  0  0  0  0  0  0  0  0  0  0  0
   38.1140   30.6490   38.3770 C   0  0  2  0  0  0  0  0  0  0  0  0
   39.3060   31.2520   40.1010 H   0  0  0  0  0  0  0  0  0  0  0  0
   38.1440   32.7630   37.5700 H   0  0  0  0  0  0  0  0  0  0  0  0
   37.3200   32.5950   39.2400 H   0  0  0  0  0  0  0  0  0  0  0  0
   38.2920   30.2740   37.3490 H   0  0  0  0  0  0  0  0  0  0  0  0
   41.3970   30.4460   38.3400 C   0  0  0  0  0  0  0  0  0  0  0  0
   40.5160   31.5660   38.3130 C   0  0  0  0  0  0  0  0  0  0  0  0
   40.9260   32.6900   37.6220 C   0  0  0  0  0  0  0  0  0  0  0  0
   42.1440   32.6520   37.0140 N   0  0  0  0  0  0  0  0  0  0  0  0
   42.9590   31.5810   37.0550 C   0  0  0  0  0  0  0  0  0  0  0  0
   42.5970   30.4670   37.7160 N   0  0  0  0  0  0  0  0  0  0  0  0
   41.0840   29.5480   38.8830 H   0  0  0  0  0  0  0  0  0  0  0  0
   40.2900   33.5520   37.5800 H   0  0  0  0  0  0  0  0  0  0  0  0
   43.9150   31.6260   36.5460 H   0  0  0  0  0  0  0  0  0  0  0  0
  1  2  1  6  0  0  0
  1  6  1  0  0  0  0
  2  3  1  0  0  0  0
  2  7  1  0  0  0  0
  3  9  1  0  0  0  0
  4  5  1  0  0  0  0
  4  3  1  0  0  0  0
  4 12  1  0  0  0  0
  5 13  1  0  0  0  0
  5  6  1  0  0  0  0
  6 15  1  6  0  0  0
  6 16  1  0  0  0  0
  8  2  1  0  0  0  0
 10  3  1  0  0  0  0
 11  4  1  0  0  0  0
 14  5  1  0  0  0  0
 16 17  2  0  0  0  0
 16 23  1  0  0  0  0
 17 19  1  0  0  0  0
 18 17  1  0  0  0  0
 19 20  1  0  0  0  0
 19 21  2  0  0  0  0
 22 21  1  0  0  0  0
 23 22  2  0  0  0  0
 24 27  1  1  0  0  0
 25 24  1  0  0  0  0
 25 29  1  0  0  0  0
 26 30  1  6  0  0  0
 26 25  1  0  0  0  0
 26 24  1  0  0  0  0
 26  1  1  0  0  0  0
 28 25  1  0  0  0  0
 31 37  1  0  0  0  0
 32 31  1  0  0  0  0
 32 24  1  0  0  0  0
 33 32  2  0  0  0  0
 34 35  2  0  0  0  0
 34 33  1  0  0  0  0
 35 36  1  0  0  0  0
 36 31  2  0  0  0  0
 38 33  1  0  0  0  0
 39 35  1  0  0  0  0
M  END
>  <minimizedAffinity>
-4.88942051

$$$$

 OpenBabel03252506443D

 39 42  0  0  1  0  0  0  0  0999 V2000
   37.2700   28.7550   41.3850 N   0  0  1  0  0  0  0  0  0  0  0  0
   36.5930   28.0440   42.4330 C   0  0  0  0  0  0  0  0  0  0  0  0
   37.4460   27.4430   43.4860 C   0  0  0  0  0  0  0  0  0  0  0  0
   38.3710   26.4170   42.8960 C   0  0  0  0  0  0  0  0  0  0  0  0
   38.7740   26.7820   41.5080 C   0  0  0  0  0  0  0  0  0  0  0  0
   38.6180   28.2440   41.2690 C   0  0  2  0  0  0  0  0  0  0  0  0
   35.9050   28.7880   42.9160 H   0  0  0  0  0  0  0  0  0  0  0  0
   35.9140   27.2480   42.0530 H   0  0  0  0  0  0  0  0  0  0  0  0
   37.9230   28.1110   44.2010 H   0  0  0  0  0  0  0  0  0  0  0  0
   36.7210   26.8440   44.1350 H   0  0  0  0  0  0  0  0  0  0  0  0
   37.8320   25.4430   42.8280 H   0  0  0  0  0  0  0  0  0  0  0  0
   39.2500   26.2110   43.5570 H   0  0  0  0  0  0  0  0  0  0  0  0
   39.8430   26.5420   41.3270 H   0  0  0  0  0  0  0  0  0  0  0  0
   38.2230   26.2140   40.7270 H   0  0  0  0  0  0  0  0  0  0  0  0
   38.7600   28.3040   40.1110 H   0  0  0  0  0  0  0  0  0  0  0  0
   39.6770   29.1250   41.7560 C   0  0  0  0  0  0  0  0  0  0  0  0
   39.5830   30.3780   42.3230 C   0  0  0  0  0  0  0  0  0  0  0  0
   38.5920   30.7980   42.4030 H   0  0  0  0  0  0  0  0  0  0  0  0
   40.6200   31.1570   42.7830 C   0  0  0  0  0  0  0  0  0  0  0  0
   40.4180   32.1280   43.2100 H   0  0  0  0  0  0  0  0  0  0  0  0
   41.8980   30.6590   42.6790 C   0  0  0  0  0  3  0  0  0  0  0  0
   42.0160   29.4110   42.1160 C   0  0  0  0  0  3  0  0  0  0  0  0
   40.9710   28.6890   41.6810 N   0  0  0  0  0  0  0  0  0  0  0  0
   35.9710   29.7840   39.4080 C   0  0  1  0  0  0  0  0  0  0  0  0
   35.0740   29.1140   40.3270 C   0  0  0  0  0  0  0  0  0  0  0  0
   36.4740   28.5850   40.2000 C   0  0  2  0  0  0  0  0  0  0  0  0
   36.5270   30.7070   39.6980 H   0  0  0  0  0  0  0  0  0  0  0  0
   34.2330   28.5310   39.8910 H   0  0  0  0  0  0  0  0  0  0  0  0
   34.7880   29.6850   41.2530 H   0  0  0  0  0  0  0  0  0  0  0  0
   36.5520   27.6160   39.6690 H   0  0  0  0  0  0  0  0  0  0  0  0
   34.6530   29.0640   37.3820 C   0  0  0  0  0  0  0  0  0  0  0  0
   35.8420   29.6230   37.9340 C   0  0  0  0  0  0  0  0  0  0  0  0
   36.8430   29.9960   37.0580 C   0  0  0  0  0  0  0  0  0  0  0  0
   36.6260   29.8050   35.7270 N   0  0  0  0  0  0  0  0  0  0  0  0
   35.4940   29.2740   35.2310 C   0  0  0  0  0  0  0  0  0  0  0  0
   34.4940   28.8980   36.0490 N   0  0  0  0  0  0  0  0  0  0  0  0
   33.8510   28.7640   38.0650 H   0  0  0  0  0  0  0  0  0  0  0  0
   37.7520   30.4200   37.4370 H   0  0  0  0  0  0  0  0  0  0  0  0
   35.3940   29.1520   34.1580 H   0  0  0  0  0  0  0  0  0  0  0  0
  1  2  1  1  0  0  0
  2  7  1  0  0  0  0
  2  3  1  0  0  0  0
  3 10  1  0  0  0  0
  3  9  1  0  0  0  0
  4  3  1  0  0  0  0
  4 12  1  0  0  0  0
  5  4  1  0  0  0  0
  6 15  1  6  0  0  0
  6  1  1  0  0  0  0
  6  5  1  0  0  0  0
  6 16  1  0  0  0  0
  8  2  1  0  0  0  0
 11  4  1  0  0  0  0
 13  5  1  0  0  0  0
 14  5  1  0  0  0  0
 16 17  1  0  0  0  0
 17 18  1  0  0  0  0
 17 19  2  0  0  0  0
 19 20  1  0  0  0  0
 21 19  1  0  0  0  0
 22 21  2  0  0  0  0
 23 16  2  0  0  0  0
 23 22  1  0  0  0  0
 24 27  1  1  0  0  0
 24 26  1  0  0  0  0
 24 25  1  0  0  0  0
 25 29  1  0  0  0  0
 26 30  1  6  0  0  0
 26 25  1  0  0  0  0
 26  1  1  0  0  0  0
 28 25  1  0  0  0  0
 31 32  1  0  0  0  0
 31 37  1  0  0  0  0
 32 24  1  0  0  0  0
 33 38  1  0  0  0  0
 33 32  2  0  0  0  0
 34 33  1  0  0  0  0
 35 34  2  0  0  0  0
 35 36  1  0  0  0  0
 36 31  2  0  0  0  0
 39 35  1  0  0  0  0
M  END
>  <minimizedAffinity>
-4.82695389

$$$$

 OpenBabel03252506443D

 39 42  0  0  1  0  0  0  0  0999 V2000
   39.5020   28.9110   41.7510 N   0  0  1  0  0  0  0  0  0  0  0  0
   39.7420   27.6630   42.4200 C   0  0  0  0  0  0  0  0  0  0  0  0
   38.5500   26.8430   42.7430 C   0  0  0  0  0  0  0  0  0  0  0  0
   37.6370   27.5830   43.6790 C   0  0  0  0  0  0  0  0  0  0  0  0
   37.6820   29.0530   43.4360 C   0  0  0  0  0  0  0  0  0  0  0  0
   38.1600   29.3550   42.0580 C   0  0  2  0  0  0  0  0  0  0  0  0
   40.4060   27.0700   41.7360 H   0  0  0  0  0  0  0  0  0  0  0  0
   40.3380   27.7750   43.3530 H   0  0  0  0  0  0  0  0  0  0  0  0
   38.0350   26.3450   41.9240 H   0  0  0  0  0  0  0  0  0  0  0  0
   38.9590   25.9730   43.3600 H   0  0  0  0  0  0  0  0  0  0  0  0
   37.9880   27.4200   44.7260 H   0  0  0  0  0  0  0  0  0  0  0  0
   36.5950   27.1770   43.6610 H   0  0  0  0  0  0  0  0  0  0  0  0
   36.6710   29.5030   43.5280 H   0  0  0  0  0  0  0  0  0  0  0  0
   38.3030   29.6020   44.1760 H   0  0  0  0  0  0  0  0  0  0  0  0
   38.3360   30.5080   42.1240 H   0  0  0  0  0  0  0  0  0  0  0  0
   37.1920   29.2540   40.9690 C   0  0  0  0  0  0  0  0  0  0  0  0
   35.8140   29.2390   41.0190 C   0  0  0  0  0  0  0  0  0  0  0  0
   35.3680   29.2810   42.0000 H   0  0  0  0  0  0  0  0  0  0  0  0
   34.9490   29.1620   39.9520 C   0  0  0  0  0  0  0  0  0  0  0  0
   33.8830   29.1590   40.1200 H   0  0  0  0  0  0  0  0  0  0  0  0
   35.4860   29.0890   38.6880 C   0  0  0  0  0  3  0  0  0  0  0  0
   36.8590   29.1010   38.6130 C   0  0  0  0  0  3  0  0  0  0  0  0
   37.6620   29.1780   39.6860 N   0  0  0  0  0  0  0  0  0  0  0  0
   41.6210   30.2920   41.2410 C   0  0  1  0  0  0  0  0  0  0  0  0
   41.9110   29.2170   42.1660 C   0  0  0  0  0  0  0  0  0  0  0  0
   40.5330   29.8110   42.1910 C   0  0  2  0  0  0  0  0  0  0  0  0
   41.3310   30.0940   40.1810 H   0  0  0  0  0  0  0  0  0  0  0  0
   42.6110   29.4340   43.0040 H   0  0  0  0  0  0  0  0  0  0  0  0
   42.0580   28.1960   41.7170 H   0  0  0  0  0  0  0  0  0  0  0  0
   40.3180   30.4350   43.0820 H   0  0  0  0  0  0  0  0  0  0  0  0
   43.1730   31.8950   42.4170 C   0  0  0  0  0  0  0  0  0  0  0  0
   42.1520   31.6670   41.4500 C   0  0  0  0  0  0  0  0  0  0  0  0
   41.6880   32.7560   40.7370 C   0  0  0  0  0  0  0  0  0  0  0  0
   42.2390   33.9720   41.0050 N   0  0  0  0  0  0  0  0  0  0  0  0
   43.2030   34.1610   41.9240 C   0  0  0  0  0  0  0  0  0  0  0  0
   43.6830   33.1280   42.6400 N   0  0  0  0  0  0  0  0  0  0  0  0
   43.5500   31.0400   42.9890 H   0  0  0  0  0  0  0  0  0  0  0  0
   40.9190   32.6230   40.0000 H   0  0  0  0  0  0  0  0  0  0  0  0
   43.5930   35.1600   42.0820 H   0  0  0  0  0  0  0  0  0  0  0  0
  1  6  1  0  0  0  0
  1 26  1  0  0  0  0
  1  2  1  1  0  0  0
  2  3  1  0  0  0  0
  2  8  1  0  0  0  0
  3 10  1  0  0  0  0
  3  4  1  0  0  0  0
  4 11  1  0  0  0  0
  5 13  1  0  0  0  0
  5  4  1  0  0  0  0
  5 14  1  0  0  0  0
  6 15  1  1  0  0  0
  6  5  1  0  0  0  0
  7  2  1  0  0  0  0
  9  3  1  0  0  0  0
 12  4  1  0  0  0  0
 16 17  1  0  0  0  0
 16  6  1  0  0  0  0
 17 18  1  0  0  0  0
 19 20  1  0  0  0  0
 19 17  2  0  0  0  0
 21 19  1  0  0  0  0
 22 21  2  0  0  0  0
 22 23  1  0  0  0  0
 23 16  2  0  0  0  0
 24 27  1  6  0  0  0
 24 32  1  0  0  0  0
 24 25  1  0  0  0  0
 24 26  1  0  0  0  0
 25 26  1  0  0  0  0
 25 28  1  0  0  0  0
 26 30  1  1  0  0  0
 29 25  1  0  0  0  0
 31 36  1  0  0  0  0
 31 37  1  0  0  0  0
 32 31  2  0  0  0  0
 33 34  2  0  0  0  0
 33 32  1  0  0  0  0
 34 35  1  0  0  0  0
 35 39  1  0  0  0  0
 35 36  2  0  0  0  0
 38 33  1  0  0  0  0
M  END
>  <minimizedAffinity>
-4.7893858

$$$$

 OpenBabel03252506443D

 39 42  0  0  1  0  0  0  0  0999 V2000
   37.6990   29.8830   38.9570 N   0  0  1  0  0  0  0  0  0  0  0  0
   38.7360   30.8370   38.6810 C   0  0  0  0  0  0  0  0  0  0  0  0
   39.4250   31.4260   39.8550 C   0  0  0  0  0  0  0  0  0  0  0  0
   38.4540   32.1870   40.7110 C   0  0  0  0  0  0  0  0  0  0  0  0
   37.0970   31.5710   40.6780 C   0  0  0  0  0  0  0  0  0  0  0  0
   37.1690   30.1370   40.2780 C   0  0  2  0  0  0  0  0  0  0  0  0
   39.4960   30.2940   38.0590 H   0  0  0  0  0  0  0  0  0  0  0  0
   38.3970   31.6750   38.0330 H   0  0  0  0  0  0  0  0  0  0  0  0
   40.1090   30.7930   40.4160 H   0  0  0  0  0  0  0  0  0  0  0  0
   40.1130   32.2230   39.4120 H   0  0  0  0  0  0  0  0  0  0  0  0
   38.3460   33.2200   40.3020 H   0  0  0  0  0  0  0  0  0  0  0  0
   38.8330   32.3320   41.7530 H   0  0  0  0  0  0  0  0  0  0  0  0
   36.6220   31.5990   41.6810 H   0  0  0  0  0  0  0  0  0  0  0  0
   36.3860   32.1090   40.0140 H   0  0  0  0  0  0  0  0  0  0  0  0
   36.0400   29.8930   40.0960 H   0  0  0  0  0  0  0  0  0  0  0  0
   37.5320   29.1660   41.3070 C   0  0  0  0  0  0  0  0  0  0  0  0
   37.3470   29.2240   42.6720 C   0  0  0  0  0  0  0  0  0  0  0  0
   36.8940   30.1240   43.0590 H   0  0  0  0  0  0  0  0  0  0  0  0
   37.6930   28.2640   43.5950 C   0  0  0  0  0  0  0  0  0  0  0  0
   37.4950   28.4270   44.6440 H   0  0  0  0  0  0  0  0  0  0  0  0
   38.2890   27.1120   43.1370 C   0  0  0  0  0  3  0  0  0  0  0  0
   38.4840   27.0320   41.7790 C   0  0  0  0  0  3  0  0  0  0  0  0
   38.1280   27.9980   40.9170 N   0  0  0  0  0  0  0  0  0  0  0  0
   36.0720   28.7980   37.2730 C   0  0  1  0  0  0  0  0  0  0  0  0
   37.1790   29.4360   36.5910 C   0  0  0  0  0  0  0  0  0  0  0  0
   36.7330   30.0180   37.9010 C   0  0  2  0  0  0  0  0  0  0  0  0
   36.2180   27.8990   37.9170 H   0  0  0  0  0  0  0  0  0  0  0  0
   36.9540   29.9850   35.6490 H   0  0  0  0  0  0  0  0  0  0  0  0
   38.1420   28.8570   36.5490 H   0  0  0  0  0  0  0  0  0  0  0  0
   36.2040   30.9880   37.8160 H   0  0  0  0  0  0  0  0  0  0  0  0
   34.4050   29.1340   35.4100 C   0  0  0  0  0  0  0  0  0  0  0  0
   34.6690   28.9500   36.7980 C   0  0  0  0  0  0  0  0  0  0  0  0
   33.5890   28.9230   37.6590 C   0  0  0  0  0  0  0  0  0  0  0  0
   32.3460   29.0730   37.1240 N   0  0  0  0  0  0  0  0  0  0  0  0
   32.1230   29.2460   35.8080 C   0  0  0  0  0  0  0  0  0  0  0  0
   33.1470   29.2770   34.9360 N   0  0  0  0  0  0  0  0  0  0  0  0
   35.2520   29.1560   34.7160 H   0  0  0  0  0  0  0  0  0  0  0  0
   33.7490   28.7880   38.7110 H   0  0  0  0  0  0  0  0  0  0  0  0
   31.1040   29.3590   35.4560 H   0  0  0  0  0  0  0  0  0  0  0  0
  1  2  1  6  0  0  0
  1  6  1  0  0  0  0
  2  3  1  0  0  0  0
  3  9  1  0  0  0  0
  3  4  1  0  0  0  0
  4 12  1  0  0  0  0
  5  4  1  0  0  0  0
  5 13  1  0  0  0  0
  6 15  1  6  0  0  0
  6  5  1  0  0  0  0
  6 16  1  0  0  0  0
  7  2  1  0  0  0  0
  8  2  1  0  0  0  0
 10  3  1  0  0  0  0
 11  4  1  0  0  0  0
 14  5  1  0  0  0  0
 16 17  1  0  0  0  0
 17 18  1  0  0  0  0
 17 19  2  0  0  0  0
 19 20  1  0  0  0  0
 21 19  1  0  0  0  0
 22 21  2  0  0  0  0
 23 16  2  0  0  0  0
 23 22  1  0  0  0  0
 24 26  1  0  0  0  0
 24 27  1  1  0  0  0
 25 24  1  0  0  0  0
 25 26  1  0  0  0  0
 26 30  1  6  0  0  0
 26  1  1  0  0  0  0
 28 25  1  0  0  0  0
 29 25  1  0  0  0  0
 31 32  1  0  0  0  0
 32 24  1  0  0  0  0
 32 33  2  0  0  0  0
 33 38  1  0  0  0  0
 34 33  1  0  0  0  0
 35 34  2  0  0  0  0
 36 31  2  0  0  0  0
 36 35  1  0  0  0  0
 37 31  1  0  0  0  0
 39 35  1  0  0  0  0
M  END
>  <minimizedAffinity>
-4.76880264

$$$$
