
 OpenBabel03252506083D

 29 31  0  0  0  0  0  0  0  0999 V2000
   45.1810   33.4560   41.1290 F   0  0  0  0  0  0  0  0  0  0  0  0
   46.3530   34.0620   41.0000 C   0  0  0  0  0  0  0  0  0  0  0  0
   46.8520   34.7990   42.0510 C   0  0  0  0  0  0  0  0  0  0  0  0
   48.0680   35.4660   42.0090 C   0  0  0  0  0  0  0  0  0  0  0  0
   48.8390   35.3960   40.8440 C   0  0  0  0  0  0  0  0  0  0  0  0
   48.2940   34.6450   39.8170 C   0  0  0  0  0  0  0  0  0  0  0  0
   47.0870   33.9760   39.8480 C   0  0  0  0  0  0  0  0  0  0  0  0
   48.4260   36.0360   42.8570 H   0  0  0  0  0  0  0  0  0  0  0  0
   49.7860   35.8950   40.7590 H   0  0  0  0  0  0  0  0  0  0  0  0
   48.9470   34.6280   38.9290 H   0  0  0  0  0  0  0  0  0  0  0  0
   45.4730   34.0080   45.3810 C   0  0  0  0  0  0  0  0  0  0  0  0
   44.6370   35.1120   45.6130 C   0  0  0  0  0  0  0  0  0  0  0  0
   44.5440   36.1240   44.6360 C   0  0  0  0  0  0  0  0  0  0  0  0
   45.2900   35.9610   43.5010 N   0  0  0  0  0  0  0  0  0  0  0  0
   46.0770   34.9030   43.3020 C   0  0  0  0  0  0  0  0  0  0  0  0
   46.1640   33.9410   44.2380 N   0  0  0  0  0  0  0  0  0  0  0  0
   44.0460   35.2390   46.5150 H   0  0  0  0  0  0  0  0  0  0  0  0
   43.9180   36.9820   44.7720 H   0  0  0  0  0  0  0  0  0  0  0  0
   45.5580   33.0010   46.3700 N   0  0  0  0  0  0  0  0  0  0  0  0
   45.5630   33.0880   47.4000 H   0  0  0  0  0  0  0  0  0  0  0  0
   45.6250   32.0210   45.9720 H   0  0  0  0  0  0  0  0  0  0  0  0
   46.7100   33.2460   38.6530 C   0  0  0  0  0  0  0  0  0  0  0  0
   45.6460   32.4090   38.4790 C   0  0  0  0  0  0  0  0  0  0  0  0
   44.9900   32.2450   39.2940 H   0  0  0  0  0  0  0  0  0  0  0  0
   45.3440   31.7450   37.3180 C   0  0  0  0  0  0  0  0  0  0  0  0
   44.4800   31.0930   37.2520 H   0  0  0  0  0  0  0  0  0  0  0  0
   46.1520   31.9080   36.2130 C   0  0  0  0  0  0  0  0  0  0  0  0
   47.2140   32.7470   36.3930 C   0  0  0  0  0  0  0  0  0  0  0  0
   47.4640   33.3700   37.5510 N   0  0  0  0  0  0  0  0  0  0  0  0
  2  1  1  0  0  0  0
  2  3  1  0  0  0  0
  3 15  1  0  0  0  0
  4  3  2  0  0  0  0
  4  8  1  0  0  0  0
  5  4  1  0  0  0  0
  6  7  1  0  0  0  0
  6  5  2  0  0  0  0
  7  2  2  0  0  0  0
  9  5  1  0  0  0  0
 10  6  1  0  0  0  0
 11 12  1  0  0  0  0
 11 19  1  0  0  0  0
 12 17  1  0  0  0  0
 13 18  1  0  0  0  0
 13 12  2  0  0  0  0
 14 13  1  0  0  0  0
 15 14  2  0  0  0  0
 15 16  1  0  0  0  0
 16 11  2  0  0  0  0
 19 20  1  0  0  0  0
 21 19  1  0  0  0  0
 22  7  1  0  0  0  0
 23 22  1  0  0  0  0
 23 24  1  0  0  0  0
 25 23  2  0  0  0  0
 26 25  1  0  0  0  0
 27 28  2  0  0  0  0
 27 25  1  0  0  0  0
 28 29  1  0  0  0  0
 29 22  2  0  0  0  0
M  END
>  <minimizedAffinity>
-6.06553507

>  <minimizedRMSD>
0.190456554

$$$$
