
 OpenBabel03252506013D

 27 29  0  0  0  0  0  0  0  0999 V2000
   44.7760   36.2500   42.8960 Cl  0  0  0  0  0  0  0  0  0  0  0  0
   45.4340   35.0410   43.9510 C   0  0  0  0  0  0  0  0  0  0  0  0
   46.4960   34.2640   43.5450 C   0  0  0  0  0  0  0  0  0  0  0  0
   46.9470   33.3350   44.4500 C   0  0  0  0  0  0  0  0  0  0  0  0
   46.4330   33.1220   45.7080 C   0  0  0  0  0  0  0  0  0  0  0  0
   45.3740   33.9120   46.0830 C   0  0  0  0  0  0  0  0  0  0  0  0
   44.6950   33.6590   47.6820 Cl  0  0  0  0  0  0  0  0  0  0  0  0
   44.8770   34.8580   45.2260 C   0  0  0  0  0  0  0  0  0  0  0  0
   47.7880   32.7330   44.1040 H   0  0  0  0  0  0  0  0  0  0  0  0
   44.0390   35.4670   45.5540 H   0  0  0  0  0  0  0  0  0  0  0  0
   48.7550   35.4090   40.9130 C   0  0  0  0  0  0  0  0  0  0  0  0
   48.2880   34.7270   39.7760 C   0  0  0  0  0  0  0  0  0  0  0  0
   47.1860   33.8640   39.9150 C   0  0  0  0  0  0  0  0  0  0  0  0
   46.6410   33.7460   41.1520 N   0  0  0  0  0  0  0  0  0  0  0  0
   47.1070   34.4140   42.2330 C   0  0  0  0  0  0  0  0  0  0  0  0
   48.1690   35.2510   42.1170 N   0  0  0  0  0  0  0  0  0  0  0  0
   49.6100   36.0720   40.7730 H   0  0  0  0  0  0  0  0  0  0  0  0
   48.7240   34.8240   38.7940 H   0  0  0  0  0  0  0  0  0  0  0  0
   46.7470   33.2930   39.1130 H   0  0  0  0  0  0  0  0  0  0  0  0
   46.9460   32.1220   46.6340 C   0  0  0  0  0  0  0  0  0  0  0  0
   47.5590   32.4180   47.8330 C   0  0  0  0  0  0  0  0  0  0  0  0
   47.6780   33.4510   48.1280 H   0  0  0  0  0  0  0  0  0  0  0  0
   48.0450   31.4690   48.7090 C   0  0  0  0  0  0  0  0  0  0  0  0
   48.5220   31.7700   49.6450 H   0  0  0  0  0  0  0  0  0  0  0  0
   47.9230   30.1440   48.3890 C   0  0  0  0  0  0  0  0  0  0  0  0
   47.3080   29.8740   47.1880 C   0  0  0  0  0  0  0  0  0  0  0  0
   46.8430   30.8150   46.3520 N   0  0  0  0  0  0  0  0  0  0  0  0
  1  2  1  0  0  0  0
  2  8  1  0  0  0  0
  3  2  2  0  0  0  0
  3  4  1  0  0  0  0
  4  5  2  0  0  0  0
  5  6  1  0  0  0  0
  5 20  1  0  0  0  0
  6  7  1  0  0  0  0
  8 10  1  0  0  0  0
  8  6  2  0  0  0  0
  9  4  1  0  0  0  0
 11 16  1  0  0  0  0
 12 13  1  0  0  0  0
 12 11  2  0  0  0  0
 13 14  2  0  0  0  0
 14 15  1  0  0  0  0
 15  3  1  0  0  0  0
 16 15  2  0  0  0  0
 17 11  1  0  0  0  0
 18 12  1  0  0  0  0
 19 13  1  0  0  0  0
 20 21  1  0  0  0  0
 21 22  1  0  0  0  0
 21 23  2  0  0  0  0
 23 24  1  0  0  0  0
 25 23  1  0  0  0  0
 26 25  2  0  0  0  0
 27 20  2  0  0  0  0
 27 26  1  0  0  0  0
M  END
>  <minimizedAffinity>
-5.93130732

>  <minimizedRMSD>
0.615263045

$$$$
