
 OpenBabel03252507253D

 26 28  0  0  0  0  0  0  0  0999 V2000
   45.7330   33.8630   45.5870 C   0  0  0  0  0  0  0  0  0  0  0  0
   44.7640   34.8340   45.8490 C   0  0  0  0  0  0  0  0  0  0  0  0
   44.4870   35.7530   44.8140 C   0  0  0  0  0  0  0  0  0  0  0  0
   45.1680   35.6510   43.6270 N   0  0  0  0  0  0  0  0  0  0  0  0
   46.0880   34.6900   43.4440 C   0  0  0  0  0  0  0  0  0  0  0  0
   46.3830   33.7970   44.4000 N   0  0  0  0  0  0  0  0  0  0  0  0
   44.2410   34.8950   46.7940 H   0  0  0  0  0  0  0  0  0  0  0  0
   43.7410   36.5380   44.9510 H   0  0  0  0  0  0  0  0  0  0  0  0
   46.7880   34.6200   42.1600 C   0  0  0  0  0  0  0  0  0  0  0  0
   47.9670   35.3070   41.9640 C   0  0  0  0  0  0  0  0  0  0  0  0
   48.6950   35.3010   40.7910 C   0  0  0  0  0  0  0  0  0  0  0  0
   48.1410   34.5270   39.7790 C   0  0  0  0  0  0  0  0  0  0  0  0
   46.9560   33.8250   39.9520 C   0  0  0  0  0  0  0  0  0  0  0  0
   46.2980   33.8870   41.1470 N   0  0  0  0  0  0  0  0  0  0  0  0
   48.3430   35.8940   42.7980 H   0  0  0  0  0  0  0  0  0  0  0  0
   49.6150   35.8590   40.6930 H   0  0  0  0  0  0  0  0  0  0  0  0
   48.6560   34.4700   38.8240 H   0  0  0  0  0  0  0  0  0  0  0  0
   46.5740   33.2370   39.1200 H   0  0  0  0  0  0  0  0  0  0  0  0
   46.0400   32.9060   46.6290 C   0  0  0  0  0  0  0  0  0  0  0  0
   45.2250   32.7790   47.7350 C   0  0  0  0  0  0  0  0  0  0  0  0
   44.3290   33.4110   47.8310 H   0  0  0  0  0  0  0  0  0  0  0  0
   45.4600   31.8970   48.7510 C   0  0  0  0  0  0  0  0  0  0  0  0
   44.8550   31.7580   49.6350 H   0  0  0  0  0  0  0  0  0  0  0  0
   46.6030   31.1260   48.5760 C   0  0  0  0  0  3  0  0  0  0  0  0
   47.4620   31.2150   47.4750 C   0  0  0  0  0  3  0  0  0  0  0  0
   47.1260   32.1230   46.5360 N   0  0  0  0  0  0  0  0  0  0  0  0
  1  2  1  0  0  0  0
  1 19  1  0  0  0  0
  2  7  1  0  0  0  0
  3  8  1  0  0  0  0
  3  2  2  0  0  0  0
  4  3  1  0  0  0  0
  5  4  2  0  0  0  0
  5  6  1  0  0  0  0
  6  1  2  0  0  0  0
  9  5  1  0  0  0  0
 10  9  1  0  0  0  0
 10 15  1  0  0  0  0
 11 10  2  0  0  0  0
 12 13  2  0  0  0  0
 12 11  1  0  0  0  0
 13 14  1  0  0  0  0
 14  9  2  0  0  0  0
 16 11  1  0  0  0  0
 17 12  1  0  0  0  0
 18 13  1  0  0  0  0
 19 20  1  0  0  0  0
 20 21  1  0  0  0  0
 20 22  2  0  0  0  0
 22 23  1  0  0  0  0
 24 22  1  0  0  0  0
 25 24  2  0  0  0  0
 26 19  2  0  0  0  0
 26 25  1  0  0  0  0
M  END
>  <minimizedAffinity>
-6.25466585

>  <minimizedRMSD>
0.392342746

$$$$
