
 OpenBabel03252502133D

 36 39  0  0  0  0  0  0  0  0999 V2000
   41.1510   35.5030   42.0850 Cl  0  0  0  0  0  0  0  0  0  0  0  0
   41.7460   34.7590   40.6130 C   0  0  0  0  0  0  0  0  0  0  0  0
   43.0220   34.3090   40.5120 C   0  0  0  0  0  0  0  0  0  0  0  0
   43.3790   33.7420   39.3080 C   0  0  0  0  0  0  0  0  0  0  0  0
   42.5300   33.6260   38.2670 C   0  0  0  0  0  0  0  0  0  0  0  0
   41.2360   34.0820   38.3690 C   0  0  0  0  0  0  0  0  0  0  0  0
   40.8590   34.6480   39.5560 C   0  0  0  0  0  0  0  0  0  0  0  0
   42.8850   33.1650   37.3460 H   0  0  0  0  0  0  0  0  0  0  0  0
   40.5660   33.9830   37.5310 H   0  0  0  0  0  0  0  0  0  0  0  0
   39.8360   34.9990   39.6110 H   0  0  0  0  0  0  0  0  0  0  0  0
   45.3750   35.7390   43.1120 C   0  0  0  0  0  0  0  0  0  0  0  0
   44.5270   35.6260   42.0070 C   0  0  0  0  0  0  0  0  0  0  0  0
   43.9040   34.4510   41.6500 C   0  0  0  0  0  0  0  0  0  0  0  0
   44.1760   33.3830   42.4640 N   0  0  0  0  0  0  0  0  0  0  0  0
   44.9930   33.4860   43.5310 C   0  0  0  0  0  0  0  0  0  0  0  0
   45.5910   34.6500   43.8590 N   0  0  0  0  0  0  0  0  0  0  0  0
   45.8360   36.6900   43.3420 H   0  0  0  0  0  0  0  0  0  0  0  0
   44.3250   36.4920   41.3730 H   0  0  0  0  0  0  0  0  0  0  0  0
   45.1430   32.5690   44.1160 H   0  0  0  0  0  0  0  0  0  0  0  0
   44.7590   33.2460   39.1740 C   0  0  0  0  0  0  0  0  0  0  0  0
   44.9810   32.2650   38.1980 C   0  0  0  0  0  0  0  0  0  0  0  0
   46.2990   31.8680   38.1490 C   0  0  0  0  0  0  0  0  0  0  0  0
   47.3250   32.3280   38.9260 C   0  0  0  0  0  0  0  0  0  0  0  0
   47.0010   33.3000   39.8630 C   0  0  0  0  0  0  0  0  0  0  0  0
   45.7310   33.7080   39.9360 N   0  0  0  0  0  0  0  0  0  0  0  0
   44.2430   31.8500   37.5510 H   0  0  0  0  0  0  0  0  0  0  0  0
   46.5160   31.0850   37.3840 H   0  0  0  0  0  0  0  0  0  0  0  0
   48.3300   31.9950   38.8570 H   0  0  0  0  0  0  0  0  0  0  0  0
   47.9680   33.9050   40.7740 C   0  0  0  0  0  0  0  0  0  0  0  0
   48.2790   35.2480   40.7740 C   0  0  0  0  0  0  0  0  0  0  0  0
   47.8040   35.9010   40.0830 H   0  0  0  0  0  0  0  0  0  0  0  0
   49.1950   35.8190   41.6390 C   0  0  0  0  0  0  0  0  0  0  0  0
   49.3960   36.8820   41.5890 H   0  0  0  0  0  0  0  0  0  0  0  0
   49.8350   35.0250   42.5480 C   0  0  0  0  0  0  0  0  0  0  0  0
   49.5180   33.6830   42.5400 C   0  0  0  0  0  0  0  0  0  0  0  0
   48.6350   33.1750   41.6970 N   0  0  0  0  0  0  0  0  0  0  0  0
  2  1  1  0  0  0  0
  3  2  1  0  0  0  0
  3 13  1  0  0  0  0
  4  3  2  0  0  0  0
  5  6  2  0  0  0  0
  5  4  1  0  0  0  0
  6  7  1  0  0  0  0
  7 10  1  0  0  0  0
  7  2  2  0  0  0  0
  8  5  1  0  0  0  0
  9  6  1  0  0  0  0
 11 17  1  0  0  0  0
 11 16  1  0  0  0  0
 12 11  2  0  0  0  0
 13 12  1  0  0  0  0
 13 14  2  0  0  0  0
 14 15  1  0  0  0  0
 15 16  2  0  0  0  0
 15 19  1  0  0  0  0
 18 12  1  0  0  0  0
 20  4  1  0  0  0  0
 20 25  1  0  0  0  0
 21 20  2  0  0  0  0
 22 21  1  0  0  0  0
 22 23  2  0  0  0  0
 23 24  1  0  0  0  0
 24 25  2  0  0  0  0
 24 29  1  0  0  0  0
 26 21  1  0  0  0  0
 27 22  1  0  0  0  0
 28 23  1  0  0  0  0
 29 30  2  0  0  0  0
 29 36  1  0  0  0  0
 30 32  1  0  0  0  0
 31 30  1  0  0  0  0
 32 34  2  0  0  0  0
 33 32  1  0  0  0  0
 35 34  1  0  0  0  0
 36 35  2  0  0  0  0
M  END
>  <minimizedAffinity>
-6.32225752

>  <minimizedRMSD>
3.68320489

$$$$
