
 OpenBabel03252509113D

 30 33  0  0  0  0  0  0  0  0999 V2000
   41.3290   28.6630   41.5070 C   0  0  0  0  0  0  0  0  0  0  0  0
   42.2360   29.6840   41.2510 C   0  0  0  0  0  0  0  0  0  0  0  0
   43.1920   30.0830   42.1630 C   0  0  0  0  0  0  0  0  0  0  0  0
   43.2930   29.4690   43.4030 C   0  0  0  0  0  0  0  0  0  0  0  0
   44.0570   29.5720   44.5110 N   0  0  0  0  0  0  0  0  0  0  0  0
   43.6510   28.6570   45.4260 C   0  0  0  0  0  0  0  0  0  0  0  0
   42.6250   27.9850   44.8720 N   0  0  0  0  0  0  0  0  0  0  0  0
   42.3760   28.4500   43.6380 C   0  0  0  0  0  0  0  0  0  0  0  0
   41.4090   28.0290   42.7480 C   0  0  0  0  0  0  0  0  0  0  0  0
   40.6020   28.3840   40.7690 H   0  0  0  0  0  0  0  0  0  0  0  0
   44.8240   30.3000   44.5320 H   0  0  0  0  0  0  0  0  0  0  0  0
   44.1780   28.6240   46.3740 H   0  0  0  0  0  0  0  0  0  0  0  0
   40.7300   27.2300   42.9960 H   0  0  0  0  0  0  0  0  0  0  0  0
   41.4390   32.1570   38.6520 C   0  0  0  0  0  0  0  0  0  0  0  0
   42.0990   31.6430   37.5310 C   0  0  0  0  0  0  0  0  0  0  0  0
   42.8140   30.4490   37.6730 C   0  0  0  0  0  0  0  0  0  0  0  0
   42.8230   29.8580   38.9080 N   0  0  0  0  0  0  0  0  0  0  0  0
   42.1820   30.3760   39.9610 C   0  0  0  0  0  0  0  0  0  0  0  0
   41.4810   31.5280   39.8560 N   0  0  0  0  0  0  0  0  0  0  0  0
   40.8710   33.0940   38.5640 H   0  0  0  0  0  0  0  0  0  0  0  0
   42.0440   32.1700   36.5860 H   0  0  0  0  0  0  0  0  0  0  0  0
   43.3350   30.0200   36.8340 H   0  0  0  0  0  0  0  0  0  0  0  0
   44.1500   31.1560   41.9030 C   0  0  0  0  0  0  0  0  0  0  0  0
   45.3190   31.1170   41.1650 C   0  0  0  0  0  0  0  0  0  0  0  0
   45.5070   30.1270   40.7380 H   0  0  0  0  0  0  0  0  0  0  0  0
   46.0710   32.2690   41.0600 C   0  0  0  0  0  0  0  0  0  0  0  0
   46.9650   32.1300   40.4610 H   0  0  0  0  0  0  0  0  0  0  0  0
   45.6590   33.4220   41.6760 C   0  0  0  0  0  3  0  0  0  0  0  0
   44.4910   33.4520   42.4110 C   0  0  0  0  0  3  0  0  0  0  0  0
   43.7760   32.3240   42.5020 N   0  0  0  0  0  0  0  0  0  0  0  0
  1  9  1  0  0  0  0
  2  1  2  0  0  0  0
  2  3  1  0  0  0  0
  3  4  2  0  0  0  0
  4  8  1  0  0  0  0
  4  5  1  0  0  0  0
  5 11  1  0  0  0  0
  5  6  1  0  0  0  0
  6 12  1  0  0  0  0
  7  6  2  0  0  0  0
  8  7  1  0  0  0  0
  9 13  1  0  0  0  0
  9  8  2  0  0  0  0
 10  1  1  0  0  0  0
 14 19  1  0  0  0  0
 15 16  1  0  0  0  0
 15 14  2  0  0  0  0
 16 17  2  0  0  0  0
 17 18  1  0  0  0  0
 18  2  1  0  0  0  0
 19 18  2  0  0  0  0
 20 14  1  0  0  0  0
 21 15  1  0  0  0  0
 22 16  1  0  0  0  0
 23  3  1  0  0  0  0
 23 30  1  0  0  0  0
 24 23  2  0  0  0  0
 25 24  1  0  0  0  0
 26 24  1  0  0  0  0
 26 28  2  0  0  0  0
 27 26  1  0  0  0  0
 28 29  1  0  0  0  0
 29 30  2  0  0  0  0
M  END
>  <minimizedAffinity>
-2.58172607

>  <minimizedRMSD>
6.55097389

$$$$
