
 OpenBabel03252509113D

 30 33  0  0  0  0  0  0  0  0999 V2000
   44.3370   28.8860   46.6970 C   0  0  0  0  0  0  0  0  0  0  0  0
   45.6040   29.2570   46.2650 C   0  0  0  0  0  0  0  0  0  0  0  0
   46.2530   28.6310   45.2200 C   0  0  0  0  0  0  0  0  0  0  0  0
   45.6560   27.5790   44.5390 C   0  0  0  0  0  0  0  0  0  0  0  0
   45.9550   26.7520   43.5150 N   0  0  0  0  0  0  0  0  0  0  0  0
   44.9230   25.8970   43.3100 C   0  0  0  0  0  0  0  0  0  0  0  0
   43.9790   26.2030   44.2200 N   0  0  0  0  0  0  0  0  0  0  0  0
   44.3880   27.2240   44.9880 C   0  0  0  0  0  0  0  0  0  0  0  0
   43.7140   27.8300   46.0290 C   0  0  0  0  0  0  0  0  0  0  0  0
   43.8690   29.4010   47.5130 H   0  0  0  0  0  0  0  0  0  0  0  0
   46.8890   26.8610   43.0310 H   0  0  0  0  0  0  0  0  0  0  0  0
   45.0230   25.1680   42.5120 H   0  0  0  0  0  0  0  0  0  0  0  0
   42.7310   27.5040   46.3240 H   0  0  0  0  0  0  0  0  0  0  0  0
   47.6010   31.1440   48.7060 C   0  0  0  0  0  0  0  0  0  0  0  0
   47.5660   32.4430   48.1870 C   0  0  0  0  0  0  0  0  0  0  0  0
   46.8570   32.6640   47.0010 C   0  0  0  0  0  0  0  0  0  0  0  0
   46.2400   31.5880   46.4220 N   0  0  0  0  0  0  0  0  0  0  0  0
   46.2930   30.3580   46.9430 C   0  0  0  0  0  0  0  0  0  0  0  0
   46.9690   30.1120   48.0880 N   0  0  0  0  0  0  0  0  0  0  0  0
   48.1520   30.9460   49.6360 H   0  0  0  0  0  0  0  0  0  0  0  0
   48.0810   33.2430   48.7060 H   0  0  0  0  0  0  0  0  0  0  0  0
   46.8070   33.6490   46.5700 H   0  0  0  0  0  0  0  0  0  0  0  0
   47.5860   29.0130   44.7580 C   0  0  0  0  0  0  0  0  0  0  0  0
   48.8170   28.7280   45.3220 C   0  0  0  0  0  0  0  0  0  0  0  0
   48.7250   28.1340   46.2360 H   0  0  0  0  0  0  0  0  0  0  0  0
   49.9530   29.2010   44.6980 C   0  0  0  0  0  0  0  0  0  0  0  0
   50.8610   28.9220   45.2220 H   0  0  0  0  0  0  0  0  0  0  0  0
   49.8530   29.9360   43.5460 C   0  0  0  0  0  3  0  0  0  0  0  0
   48.6220   30.2160   42.9900 C   0  0  0  0  0  3  0  0  0  0  0  0
   47.5320   29.7480   43.6090 N   0  0  0  0  0  0  0  0  0  0  0  0
  1 10  1  0  0  0  0
  2  1  1  0  0  0  0
  2 18  1  0  0  0  0
  3  2  2  0  0  0  0
  4  8  2  0  0  0  0
  4  3  1  0  0  0  0
  5  4  1  0  0  0  0
  6  5  1  0  0  0  0
  6  7  2  0  0  0  0
  7  8  1  0  0  0  0
  8  9  1  0  0  0  0
  9 13  1  0  0  0  0
  9  1  2  0  0  0  0
 11  5  1  0  0  0  0
 12  6  1  0  0  0  0
 14 20  1  0  0  0  0
 15 21  1  0  0  0  0
 15 14  1  0  0  0  0
 16 15  2  0  0  0  0
 17 18  2  0  0  0  0
 17 16  1  0  0  0  0
 18 19  1  0  0  0  0
 19 14  2  0  0  0  0
 22 16  1  0  0  0  0
 23  3  1  0  0  0  0
 23 24  1  0  0  0  0
 24 25  1  0  0  0  0
 26 27  1  0  0  0  0
 26 24  2  0  0  0  0
 28 26  1  0  0  0  0
 29 28  2  0  0  0  0
 29 30  1  0  0  0  0
 30 23  2  0  0  0  0
M  END
>  <minimizedAffinity>
-3.20415568

>  <minimizedRMSD>
6.43188334

$$$$
