
 OpenBabel03252509173D

 24 26  0  0  0  0  0  0  0  0999 V2000
   38.0240   30.4820   40.6970 C   0  0  0  0  0  0  0  0  0  0  0  0
   36.7760   30.2380   41.3380 C   0  0  0  0  0  0  0  0  0  0  0  0
   36.3520   28.9530   41.4330 C   0  0  0  0  0  0  0  0  0  0  0  0
   37.1560   27.9170   40.8980 C   0  0  0  0  0  0  0  0  0  0  0  0
   38.6050   28.8420   40.2200 S   0  0  0  0  0  0  0  0  0  0  0  0
   36.1910   31.0560   41.7340 H   0  0  0  0  0  0  0  0  0  0  0  0
   35.4510   28.6370   41.8810 H   0  0  0  0  0  0  0  0  0  0  0  0
   38.6050   34.1150   40.1130 C   0  0  0  0  0  0  0  0  0  0  0  0
   40.0100   34.1610   40.3040 C   0  0  0  0  0  0  0  0  0  0  0  0
   40.6820   32.9660   40.6200 C   0  0  0  0  0  0  0  0  0  0  0  0
   39.9290   31.8100   40.7250 N   0  0  0  0  0  0  0  0  0  0  0  0
   38.5910   31.8320   40.5310 C   0  0  0  0  0  0  0  0  0  0  0  0
   37.9180   32.9710   40.2250 N   0  0  0  0  0  0  0  0  0  0  0  0
   38.1100   35.0210   39.8760 H   0  0  0  0  0  0  0  0  0  0  0  0
   40.5740   35.0790   40.2150 H   0  0  0  0  0  0  0  0  0  0  0  0
   41.7430   32.9230   40.7790 H   0  0  0  0  0  0  0  0  0  0  0  0
   36.9600   26.5050   40.8590 C   0  0  0  0  0  0  0  0  0  0  0  0
   37.1590   25.7200   41.9700 C   0  0  0  0  0  0  0  0  0  0  0  0
   37.4680   26.2340   42.8630 H   0  0  0  0  0  0  0  0  0  0  0  0
   36.9490   24.3640   41.8510 C   0  0  0  0  0  0  0  0  0  0  0  0
   37.1140   23.7710   42.7430 H   0  0  0  0  0  0  0  0  0  0  0  0
   36.5480   23.7800   40.6530 C   0  0  0  0  0  3  0  0  0  0  0  0
   36.3740   24.6470   39.5940 C   0  0  0  0  0  3  0  0  0  0  0  0
   36.5730   25.9870   39.6820 N   0  0  0  0  0  0  0  0  0  0  0  0
  1  2  2  0  0  0  0
  2  3  1  0  0  0  0
  2  6  1  0  0  0  0
  3  7  1  0  0  0  0
  4  3  2  0  0  0  0
  5  1  1  0  0  0  0
  5  4  1  0  0  0  0
  8 13  2  0  0  0  0
  8  9  1  0  0  0  0
  9 10  2  0  0  0  0
 10 11  1  0  0  0  0
 10 16  1  0  0  0  0
 12  1  1  0  0  0  0
 12 11  2  0  0  0  0
 13 12  1  0  0  0  0
 14  8  1  0  0  0  0
 15  9  1  0  0  0  0
 17  4  1  0  0  0  0
 17 18  1  0  0  0  0
 18 19  1  0  0  0  0
 20 18  2  0  0  0  0
 20 21  1  0  0  0  0
 22 20  1  0  0  0  0
 23 24  1  0  0  0  0
 23 22  2  0  0  0  0
 24 17  2  0  0  0  0
M  END
>  <minimizedAffinity>
-4.6655159

$$$$

 OpenBabel03252509173D

 24 26  0  0  0  0  0  0  0  0999 V2000
   37.4640   27.2690   40.8340 C   0  0  0  0  0  0  0  0  0  0  0  0
   36.6320   28.0010   41.7270 C   0  0  0  0  0  0  0  0  0  0  0  0
   36.7050   29.3560   41.6960 C   0  0  0  0  0  0  0  0  0  0  0  0
   37.5920   29.9810   40.7860 C   0  0  0  0  0  0  0  0  0  0  0  0
   38.3670   28.5400   39.9270 S   0  0  0  0  0  0  0  0  0  0  0  0
   35.9670   27.4880   42.4070 H   0  0  0  0  0  0  0  0  0  0  0  0
   36.1460   30.0140   42.3020 H   0  0  0  0  0  0  0  0  0  0  0  0
   36.7510   23.6690   40.1980 C   0  0  0  0  0  0  0  0  0  0  0  0
   37.8420   23.0870   40.8930 C   0  0  0  0  0  0  0  0  0  0  0  0
   38.7570   23.9410   41.5360 C   0  0  0  0  0  0  0  0  0  0  0  0
   38.5370   25.3040   41.4520 N   0  0  0  0  0  0  0  0  0  0  0  0
   37.4770   25.7970   40.7730 C   0  0  0  0  0  0  0  0  0  0  0  0
   36.5790   24.9960   40.1450 N   0  0  0  0  0  0  0  0  0  0  0  0
   36.0690   23.0160   39.7190 H   0  0  0  0  0  0  0  0  0  0  0  0
   37.9900   22.0170   40.9430 H   0  0  0  0  0  0  0  0  0  0  0  0
   39.6070   23.5740   42.0800 H   0  0  0  0  0  0  0  0  0  0  0  0
   37.8670   31.3590   40.5430 C   0  0  0  0  0  0  0  0  0  0  0  0
   37.0390   32.1300   39.7630 C   0  0  0  0  0  0  0  0  0  0  0  0
   36.1780   31.6340   39.3520 H   0  0  0  0  0  0  0  0  0  0  0  0
   37.3730   33.4530   39.5750 C   0  0  0  0  0  0  0  0  0  0  0  0
   36.7020   34.0360   38.9550 H   0  0  0  0  0  0  0  0  0  0  0  0
   38.5100   34.0180   40.1470 C   0  0  0  0  0  3  0  0  0  0  0  0
   39.2790   33.1660   40.9130 C   0  0  0  0  0  3  0  0  0  0  0  0
   38.9750   31.8580   41.1150 N   0  0  0  0  0  0  0  0  0  0  0  0
  1  2  2  0  0  0  0
  2  6  1  0  0  0  0
  3  2  1  0  0  0  0
  3  7  1  0  0  0  0
  4  3  2  0  0  0  0
  5  4  1  0  0  0  0
  5  1  1  0  0  0  0
  8  9  1  0  0  0  0
  9 15  1  0  0  0  0
  9 10  2  0  0  0  0
 10 16  1  0  0  0  0
 11 10  1  0  0  0  0
 12  1  1  0  0  0  0
 12 11  2  0  0  0  0
 13  8  2  0  0  0  0
 13 12  1  0  0  0  0
 14  8  1  0  0  0  0
 17  4  1  0  0  0  0
 17 24  1  0  0  0  0
 18 17  2  0  0  0  0
 19 18  1  0  0  0  0
 20 18  1  0  0  0  0
 20 22  2  0  0  0  0
 21 20  1  0  0  0  0
 22 23  1  0  0  0  0
 23 24  2  0  0  0  0
M  END
>  <minimizedAffinity>
-4.57428265

$$$$

 OpenBabel03252509173D

 24 26  0  0  0  0  0  0  0  0999 V2000
   37.8580   30.0660   40.8370 C   0  0  0  0  0  0  0  0  0  0  0  0
   36.7300   29.6020   41.5710 C   0  0  0  0  0  0  0  0  0  0  0  0
   36.5500   28.2610   41.6810 C   0  0  0  0  0  0  0  0  0  0  0  0
   37.4810   27.3860   41.0690 C   0  0  0  0  0  0  0  0  0  0  0  0
   38.6820   28.5560   40.2930 S   0  0  0  0  0  0  0  0  0  0  0  0
   36.0410   30.3020   42.0250 H   0  0  0  0  0  0  0  0  0  0  0  0
   35.7590   27.7890   42.1950 H   0  0  0  0  0  0  0  0  0  0  0  0
   39.3250   33.4890   40.8810 C   0  0  0  0  0  0  0  0  0  0  0  0
   38.3760   34.1610   40.0670 C   0  0  0  0  0  0  0  0  0  0  0  0
   37.2970   33.4210   39.5490 C   0  0  0  0  0  0  0  0  0  0  0  0
   37.2230   32.0780   39.8650 N   0  0  0  0  0  0  0  0  0  0  0  0
   38.1600   31.4950   40.6470 C   0  0  0  0  0  0  0  0  0  0  0  0
   39.2110   32.1840   41.1600 N   0  0  0  0  0  0  0  0  0  0  0  0
   40.1320   34.0560   41.2650 H   0  0  0  0  0  0  0  0  0  0  0  0
   38.4580   35.2140   39.8350 H   0  0  0  0  0  0  0  0  0  0  0  0
   36.5410   33.8610   38.9250 H   0  0  0  0  0  0  0  0  0  0  0  0
   37.5370   25.9620   41.0250 C   0  0  0  0  0  0  0  0  0  0  0  0
   36.6440   25.2300   40.2800 C   0  0  0  0  0  0  0  0  0  0  0  0
   35.9060   25.7940   39.7370 H   0  0  0  0  0  0  0  0  0  0  0  0
   36.7640   23.8580   40.2880 C   0  0  0  0  0  0  0  0  0  0  0  0
   36.0460   23.3080   39.6920 H   0  0  0  0  0  0  0  0  0  0  0  0
   37.7520   23.2060   41.0210 C   0  0  0  0  0  3  0  0  0  0  0  0
   38.6020   24.0250   41.7370 C   0  0  0  0  0  3  0  0  0  0  0  0
   38.5070   25.3790   41.7480 N   0  0  0  0  0  0  0  0  0  0  0  0
  1  2  2  0  0  0  0
  2  3  1  0  0  0  0
  2  6  1  0  0  0  0
  3  7  1  0  0  0  0
  4  3  2  0  0  0  0
  5  1  1  0  0  0  0
  5  4  1  0  0  0  0
  8 13  1  0  0  0  0
  8 14  1  0  0  0  0
  9  8  2  0  0  0  0
 10 11  2  0  0  0  0
 10  9  1  0  0  0  0
 11 12  1  0  0  0  0
 12  1  1  0  0  0  0
 12 13  2  0  0  0  0
 15  9  1  0  0  0  0
 16 10  1  0  0  0  0
 17  4  1  0  0  0  0
 17 24  1  0  0  0  0
 18 20  1  0  0  0  0
 18 17  2  0  0  0  0
 19 18  1  0  0  0  0
 20 22  2  0  0  0  0
 21 20  1  0  0  0  0
 22 23  1  0  0  0  0
 23 24  2  0  0  0  0
M  END
>  <minimizedAffinity>
-4.55632162

$$$$

 OpenBabel03252509173D

 24 26  0  0  0  0  0  0  0  0999 V2000
   36.5810   27.7080   40.5540 C   0  0  0  0  0  0  0  0  0  0  0  0
   35.6930   28.7740   40.8740 C   0  0  0  0  0  0  0  0  0  0  0  0
   34.8670   29.2270   39.8970 C   0  0  0  0  0  0  0  0  0  0  0  0
   34.9180   28.6290   38.6140 C   0  0  0  0  0  0  0  0  0  0  0  0
   36.2280   27.3420   38.8230 S   0  0  0  0  0  0  0  0  0  0  0  0
   35.6830   29.2050   41.8660 H   0  0  0  0  0  0  0  0  0  0  0  0
   34.1660   30.0080   40.0020 H   0  0  0  0  0  0  0  0  0  0  0  0
   38.7990   25.4900   42.5630 C   0  0  0  0  0  0  0  0  0  0  0  0
   39.2990   26.4380   43.4920 C   0  0  0  0  0  0  0  0  0  0  0  0
   38.8620   27.7710   43.3880 C   0  0  0  0  0  0  0  0  0  0  0  0
   37.9650   28.0800   42.3820 N   0  0  0  0  0  0  0  0  0  0  0  0
   37.5250   27.1300   41.5270 C   0  0  0  0  0  0  0  0  0  0  0  0
   37.9300   25.8370   41.6050 N   0  0  0  0  0  0  0  0  0  0  0  0
   39.1350   24.4890   42.6510 H   0  0  0  0  0  0  0  0  0  0  0  0
   40.0010   26.1690   44.2690 H   0  0  0  0  0  0  0  0  0  0  0  0
   39.1980   28.5430   44.0540 H   0  0  0  0  0  0  0  0  0  0  0  0
   34.1800   28.9000   37.4250 C   0  0  0  0  0  0  0  0  0  0  0  0
   32.8250   29.1310   37.4570 C   0  0  0  0  0  0  0  0  0  0  0  0
   32.3620   29.0950   38.4260 H   0  0  0  0  0  0  0  0  0  0  0  0
   32.1830   29.3850   36.2650 C   0  0  0  0  0  0  0  0  0  0  0  0
   31.1160   29.5630   36.3210 H   0  0  0  0  0  0  0  0  0  0  0  0
   32.8630   29.4120   35.0500 C   0  0  0  0  0  3  0  0  0  0  0  0
   34.2190   29.1690   35.1190 C   0  0  0  0  0  3  0  0  0  0  0  0
   34.8780   28.9160   36.2780 N   0  0  0  0  0  0  0  0  0  0  0  0
  1  2  2  0  0  0  0
  1 12  1  0  0  0  0
  2  6  1  0  0  0  0
  3  7  1  0  0  0  0
  3  2  1  0  0  0  0
  4  5  1  0  0  0  0
  4  3  2  0  0  0  0
  5  1  1  0  0  0  0
  8 14  1  0  0  0  0
  8  9  1  0  0  0  0
  9 15  1  0  0  0  0
 10  9  2  0  0  0  0
 10 16  1  0  0  0  0
 11 10  1  0  0  0  0
 12 13  1  0  0  0  0
 12 11  2  0  0  0  0
 13  8  2  0  0  0  0
 17 18  1  0  0  0  0
 17  4  1  0  0  0  0
 18 19  1  0  0  0  0
 20 21  1  0  0  0  0
 20 18  2  0  0  0  0
 22 23  2  0  0  0  0
 22 20  1  0  0  0  0
 23 24  1  0  0  0  0
 24 17  2  0  0  0  0
M  END
>  <minimizedAffinity>
-4.40550566

$$$$

 OpenBabel03252509173D

 24 26  0  0  0  0  0  0  0  0999 V2000
   34.7180   28.4260   38.1120 C   0  0  0  0  0  0  0  0  0  0  0  0
   35.4640   27.2220   37.9700 C   0  0  0  0  0  0  0  0  0  0  0  0
   36.2780   26.8540   38.9910 C   0  0  0  0  0  0  0  0  0  0  0  0
   36.3530   27.6710   40.1460 C   0  0  0  0  0  0  0  0  0  0  0  0
   35.1870   29.0470   39.7390 S   0  0  0  0  0  0  0  0  0  0  0  0
   35.3790   26.6230   37.0730 H   0  0  0  0  0  0  0  0  0  0  0  0
   36.8810   25.9890   39.0130 H   0  0  0  0  0  0  0  0  0  0  0  0
   33.1130   29.5800   34.9550 C   0  0  0  0  0  0  0  0  0  0  0  0
   31.8240   29.9030   35.4520 C   0  0  0  0  0  0  0  0  0  0  0  0
   31.5690   29.7120   36.8230 C   0  0  0  0  0  0  0  0  0  0  0  0
   32.5940   29.2200   37.6080 N   0  0  0  0  0  0  0  0  0  0  0  0
   33.8030   28.9310   37.0740 C   0  0  0  0  0  0  0  0  0  0  0  0
   34.0760   29.1060   35.7560 N   0  0  0  0  0  0  0  0  0  0  0  0
   33.2940   29.7280   33.9220 H   0  0  0  0  0  0  0  0  0  0  0  0
   31.0400   30.2870   34.8150 H   0  0  0  0  0  0  0  0  0  0  0  0
   30.6180   29.9340   37.2700 H   0  0  0  0  0  0  0  0  0  0  0  0
   37.1090   27.5300   41.3460 C   0  0  0  0  0  0  0  0  0  0  0  0
   36.6060   27.9230   42.5630 C   0  0  0  0  0  0  0  0  0  0  0  0
   35.6150   28.3400   42.5530 H   0  0  0  0  0  0  0  0  0  0  0  0
   37.3990   27.7540   43.6770 C   0  0  0  0  0  0  0  0  0  0  0  0
   36.9760   28.0730   44.6220 H   0  0  0  0  0  0  0  0  0  0  0  0
   38.6760   27.2040   43.6000 C   0  0  0  0  0  3  0  0  0  0  0  0
   39.0930   26.8400   42.3360 C   0  0  0  0  0  3  0  0  0  0  0  0
   38.3350   26.9950   41.2210 N   0  0  0  0  0  0  0  0  0  0  0  0
  1  5  1  0  0  0  0
  2  1  2  0  0  0  0
  2  3  1  0  0  0  0
  3  7  1  0  0  0  0
  3  4  2  0  0  0  0
  4 17  1  0  0  0  0
  5  4  1  0  0  0  0
  6  2  1  0  0  0  0
  8  9  2  0  0  0  0
  8 13  1  0  0  0  0
  9 10  1  0  0  0  0
 10 16  1  0  0  0  0
 10 11  2  0  0  0  0
 12 11  1  0  0  0  0
 12  1  1  0  0  0  0
 13 12  2  0  0  0  0
 14  8  1  0  0  0  0
 15  9  1  0  0  0  0
 17 18  1  0  0  0  0
 18 20  2  0  0  0  0
 19 18  1  0  0  0  0
 20 21  1  0  0  0  0
 22 20  1  0  0  0  0
 23 22  2  0  0  0  0
 24 17  2  0  0  0  0
 24 23  1  0  0  0  0
M  END
>  <minimizedAffinity>
-4.33890009

$$$$

 OpenBabel03252509173D

 24 26  0  0  0  0  0  0  0  0999 V2000
   36.7170   27.5940   39.8140 C   0  0  0  0  0  0  0  0  0  0  0  0
   35.7190   28.4620   39.2880 C   0  0  0  0  0  0  0  0  0  0  0  0
   35.9540   29.7970   39.3270 C   0  0  0  0  0  0  0  0  0  0  0  0
   37.1670   30.2710   39.8840 C   0  0  0  0  0  0  0  0  0  0  0  0
   38.0200   28.7070   40.3780 S   0  0  0  0  0  0  0  0  0  0  0  0
   34.8050   28.0620   38.8700 H   0  0  0  0  0  0  0  0  0  0  0  0
   35.3000   30.5450   38.9730 H   0  0  0  0  0  0  0  0  0  0  0  0
   36.0570   24.0150   39.0200 C   0  0  0  0  0  0  0  0  0  0  0  0
   36.4690   23.4240   40.2420 C   0  0  0  0  0  0  0  0  0  0  0  0
   36.9470   24.2650   41.2640 C   0  0  0  0  0  0  0  0  0  0  0  0
   36.9860   25.6240   41.0160 N   0  0  0  0  0  0  0  0  0  0  0  0
   36.5790   26.1270   39.8290 C   0  0  0  0  0  0  0  0  0  0  0  0
   36.1140   25.3390   38.8260 N   0  0  0  0  0  0  0  0  0  0  0  0
   35.7000   23.3720   38.2580 H   0  0  0  0  0  0  0  0  0  0  0  0
   36.4270   22.3560   40.4100 H   0  0  0  0  0  0  0  0  0  0  0  0
   37.2760   23.8890   42.2150 H   0  0  0  0  0  0  0  0  0  0  0  0
   37.6670   31.5960   40.0510 C   0  0  0  0  0  0  0  0  0  0  0  0
   37.0640   32.6730   39.4460 C   0  0  0  0  0  0  0  0  0  0  0  0
   36.2000   32.4550   38.8440 H   0  0  0  0  0  0  0  0  0  0  0  0
   37.6070   33.9220   39.6560 C   0  0  0  0  0  0  0  0  0  0  0  0
   37.1110   34.7510   39.1670 H   0  0  0  0  0  0  0  0  0  0  0  0
   38.7320   34.1140   40.4540 C   0  0  0  0  0  3  0  0  0  0  0  0
   39.2660   32.9740   41.0180 C   0  0  0  0  0  3  0  0  0  0  0  0
   38.7540   31.7320   40.8280 N   0  0  0  0  0  0  0  0  0  0  0  0
  1 12  1  0  0  0  0
  1  5  1  0  0  0  0
  2  3  1  0  0  0  0
  2  1  2  0  0  0  0
  3  4  2  0  0  0  0
  4 17  1  0  0  0  0
  4  5  1  0  0  0  0
  6  2  1  0  0  0  0
  7  3  1  0  0  0  0
  8  9  1  0  0  0  0
  9 15  1  0  0  0  0
  9 10  2  0  0  0  0
 10 16  1  0  0  0  0
 11 10  1  0  0  0  0
 12 11  2  0  0  0  0
 13  8  2  0  0  0  0
 13 12  1  0  0  0  0
 14  8  1  0  0  0  0
 17 24  1  0  0  0  0
 18 20  1  0  0  0  0
 18 17  2  0  0  0  0
 19 18  1  0  0  0  0
 20 22  2  0  0  0  0
 21 20  1  0  0  0  0
 22 23  1  0  0  0  0
 24 23  2  0  0  0  0
M  END
>  <minimizedAffinity>
-4.31492472

$$$$

 OpenBabel03252509173D

 24 26  0  0  0  0  0  0  0  0999 V2000
   36.2200   27.8790   40.1260 C   0  0  0  0  0  0  0  0  0  0  0  0
   36.3110   27.0840   38.9490 C   0  0  0  0  0  0  0  0  0  0  0  0
   35.4790   27.3760   37.9190 C   0  0  0  0  0  0  0  0  0  0  0  0
   34.5630   28.4480   38.0520 C   0  0  0  0  0  0  0  0  0  0  0  0
   34.9190   29.0720   39.7550 S   0  0  0  0  0  0  0  0  0  0  0  0
   37.0240   26.2730   38.8860 H   0  0  0  0  0  0  0  0  0  0  0  0
   35.4440   26.8670   36.9960 H   0  0  0  0  0  0  0  0  0  0  0  0
   38.4930   26.5220   42.7470 C   0  0  0  0  0  0  0  0  0  0  0  0
   38.5330   27.6370   43.6230 C   0  0  0  0  0  0  0  0  0  0  0  0
   37.7930   28.7840   43.2800 C   0  0  0  0  0  0  0  0  0  0  0  0
   37.0660   28.7560   42.1040 N   0  0  0  0  0  0  0  0  0  0  0  0
   37.0690   27.6610   41.3110 C   0  0  0  0  0  0  0  0  0  0  0  0
   37.7730   26.5420   41.6180 N   0  0  0  0  0  0  0  0  0  0  0  0
   39.0530   25.6650   43.0160 H   0  0  0  0  0  0  0  0  0  0  0  0
   39.1100   27.6320   44.5370 H   0  0  0  0  0  0  0  0  0  0  0  0
   37.7760   29.6660   43.8930 H   0  0  0  0  0  0  0  0  0  0  0  0
   33.5910   28.9670   37.1470 C   0  0  0  0  0  0  0  0  0  0  0  0
   33.8340   29.0420   35.7960 C   0  0  0  0  0  0  0  0  0  0  0  0
   34.7940   28.6880   35.4670 H   0  0  0  0  0  0  0  0  0  0  0  0
   32.8440   29.5560   34.9870 C   0  0  0  0  0  0  0  0  0  0  0  0
   33.0640   29.6030   33.9270 H   0  0  0  0  0  0  0  0  0  0  0  0
   31.6250   29.9940   35.4970 C   0  0  0  0  0  3  0  0  0  0  0  0
   31.4730   29.8780   36.8640 C   0  0  0  0  0  3  0  0  0  0  0  0
   32.4310   29.3770   37.6850 N   0  0  0  0  0  0  0  0  0  0  0  0
  1 12  1  0  0  0  0
  2  1  2  0  0  0  0
  3  4  2  0  0  0  0
  3  2  1  0  0  0  0
  4  5  1  0  0  0  0
  5  1  1  0  0  0  0
  6  2  1  0  0  0  0
  7  3  1  0  0  0  0
  8 14  1  0  0  0  0
  8  9  1  0  0  0  0
  9 15  1  0  0  0  0
 10  9  2  0  0  0  0
 10 16  1  0  0  0  0
 11 10  1  0  0  0  0
 12 13  1  0  0  0  0
 12 11  2  0  0  0  0
 13  8  2  0  0  0  0
 17 24  1  0  0  0  0
 17  4  1  0  0  0  0
 18 17  2  0  0  0  0
 19 18  1  0  0  0  0
 20 22  2  0  0  0  0
 20 18  1  0  0  0  0
 21 20  1  0  0  0  0
 22 23  1  0  0  0  0
 23 24  2  0  0  0  0
M  END
>  <minimizedAffinity>
-4.18491554

$$$$

 OpenBabel03252509173D

 24 26  0  0  0  0  0  0  0  0999 V2000
   35.3160   28.7630   38.3960 C   0  0  0  0  0  0  0  0  0  0  0  0
   35.1380   28.9640   39.7940 C   0  0  0  0  0  0  0  0  0  0  0  0
   35.8330   29.9680   40.3850 C   0  0  0  0  0  0  0  0  0  0  0  0
   36.6970   30.7680   39.5990 C   0  0  0  0  0  0  0  0  0  0  0  0
   36.5000   30.0350   37.9140 S   0  0  0  0  0  0  0  0  0  0  0  0
   34.4680   28.3320   40.3610 H   0  0  0  0  0  0  0  0  0  0  0  0
   35.7920   30.2220   41.4090 H   0  0  0  0  0  0  0  0  0  0  0  0
   33.0510   26.7780   36.2050 C   0  0  0  0  0  0  0  0  0  0  0  0
   33.5940   25.4840   36.4170 C   0  0  0  0  0  0  0  0  0  0  0  0
   34.6940   25.3550   37.2850 C   0  0  0  0  0  0  0  0  0  0  0  0
   35.1820   26.5010   37.8850 N   0  0  0  0  0  0  0  0  0  0  0  0
   34.6200   27.7060   37.6420 C   0  0  0  0  0  0  0  0  0  0  0  0
   33.5590   27.8600   36.8090 N   0  0  0  0  0  0  0  0  0  0  0  0
   32.2230   26.8630   35.5500 H   0  0  0  0  0  0  0  0  0  0  0  0
   33.1920   24.6040   35.9350 H   0  0  0  0  0  0  0  0  0  0  0  0
   35.1570   24.4090   37.4930 H   0  0  0  0  0  0  0  0  0  0  0  0
   37.5320   31.8690   39.9500 C   0  0  0  0  0  0  0  0  0  0  0  0
   37.2390   33.1510   39.5490 C   0  0  0  0  0  0  0  0  0  0  0  0
   36.3480   33.2690   38.9590 H   0  0  0  0  0  0  0  0  0  0  0  0
   38.0950   34.1610   39.9280 C   0  0  0  0  0  0  0  0  0  0  0  0
   37.8380   35.1600   39.5970 H   0  0  0  0  0  0  0  0  0  0  0  0
   39.2310   33.9180   40.6960 C   0  0  0  0  0  3  0  0  0  0  0  0
   39.4420   32.6020   41.0510 C   0  0  0  0  0  3  0  0  0  0  0  0
   38.6160   31.5860   40.6910 N   0  0  0  0  0  0  0  0  0  0  0  0
  1  2  2  0  0  0  0
  2  6  1  0  0  0  0
  2  3  1  0  0  0  0
  3  7  1  0  0  0  0
  4 17  1  0  0  0  0
  4  3  2  0  0  0  0
  5  1  1  0  0  0  0
  5  4  1  0  0  0  0
  8  9  2  0  0  0  0
  8 13  1  0  0  0  0
  9 10  1  0  0  0  0
 10 16  1  0  0  0  0
 10 11  2  0  0  0  0
 12 11  1  0  0  0  0
 12  1  1  0  0  0  0
 13 12  2  0  0  0  0
 14  8  1  0  0  0  0
 15  9  1  0  0  0  0
 17 24  1  0  0  0  0
 18 20  1  0  0  0  0
 18 17  2  0  0  0  0
 19 18  1  0  0  0  0
 20 22  2  0  0  0  0
 21 20  1  0  0  0  0
 22 23  1  0  0  0  0
 24 23  2  0  0  0  0
M  END
>  <minimizedAffinity>
-4.10559034

$$$$

 OpenBabel03252509173D

 24 26  0  0  0  0  0  0  0  0999 V2000
   34.9270   29.2160   38.1300 C   0  0  0  0  0  0  0  0  0  0  0  0
   34.4700   29.0050   39.4620 C   0  0  0  0  0  0  0  0  0  0  0  0
   35.3200   29.2940   40.4790 C   0  0  0  0  0  0  0  0  0  0  0  0
   36.6130   29.7890   40.1810 C   0  0  0  0  0  0  0  0  0  0  0  0
   36.6070   29.8420   38.3340 S   0  0  0  0  0  0  0  0  0  0  0  0
   33.4740   28.6260   39.6490 H   0  0  0  0  0  0  0  0  0  0  0  0
   35.1060   29.1840   41.5060 H   0  0  0  0  0  0  0  0  0  0  0  0
   33.6180   28.2640   34.7760 C   0  0  0  0  0  0  0  0  0  0  0  0
   32.2450   28.5630   34.9660 C   0  0  0  0  0  0  0  0  0  0  0  0
   31.8370   29.0680   36.2150 C   0  0  0  0  0  0  0  0  0  0  0  0
   32.8050   29.2440   37.1870 N   0  0  0  0  0  0  0  0  0  0  0  0
   34.0990   28.9390   36.9430 C   0  0  0  0  0  0  0  0  0  0  0  0
   34.5190   28.4520   35.7480 N   0  0  0  0  0  0  0  0  0  0  0  0
   33.9130   27.8850   33.8320 H   0  0  0  0  0  0  0  0  0  0  0  0
   31.5090   28.4160   34.1880 H   0  0  0  0  0  0  0  0  0  0  0  0
   30.8160   29.3160   36.4330 H   0  0  0  0  0  0  0  0  0  0  0  0
   37.6900   30.1690   41.0340 C   0  0  0  0  0  0  0  0  0  0  0  0
   37.9820   29.4660   42.1800 C   0  0  0  0  0  0  0  0  0  0  0  0
   37.3530   28.6200   42.3890 H   0  0  0  0  0  0  0  0  0  0  0  0
   39.0390   29.8960   42.9520 C   0  0  0  0  0  0  0  0  0  0  0  0
   39.2450   29.3230   43.8480 H   0  0  0  0  0  0  0  0  0  0  0  0
   39.8050   31.0060   42.6060 C   0  0  0  0  0  3  0  0  0  0  0  0
   39.4360   31.6460   41.4400 C   0  0  0  0  0  3  0  0  0  0  0  0
   38.4000   31.2450   40.6600 N   0  0  0  0  0  0  0  0  0  0  0  0
  1  5  1  0  0  0  0
  1  2  2  0  0  0  0
  2  6  1  0  0  0  0
  2  3  1  0  0  0  0
  3  7  1  0  0  0  0
  4  3  2  0  0  0  0
  4 17  1  0  0  0  0
  5  4  1  0  0  0  0
  8  9  2  0  0  0  0
  8 13  1  0  0  0  0
  9 10  1  0  0  0  0
 10 16  1  0  0  0  0
 10 11  2  0  0  0  0
 12 11  1  0  0  0  0
 12  1  1  0  0  0  0
 13 12  2  0  0  0  0
 14  8  1  0  0  0  0
 15  9  1  0  0  0  0
 17 18  1  0  0  0  0
 18 19  1  0  0  0  0
 18 20  2  0  0  0  0
 20 21  1  0  0  0  0
 22 20  1  0  0  0  0
 23 22  2  0  0  0  0
 24 17  2  0  0  0  0
 24 23  1  0  0  0  0
M  END
>  <minimizedAffinity>
-3.98170686

$$$$
