
 OpenBabel03252509113D

 30 33  0  0  0  0  0  0  0  0999 V2000
   45.8760   31.4110   44.4230 C   0  0  0  0  0  0  0  0  0  0  0  0
   46.3050   32.4540   43.6130 C   0  0  0  0  0  0  0  0  0  0  0  0
   47.5620   32.4930   43.0430 C   0  0  0  0  0  0  0  0  0  0  0  0
   48.4740   31.4700   43.2600 C   0  0  0  0  0  0  0  0  0  0  0  0
   49.7360   31.1610   42.8970 N   0  0  0  0  0  0  0  0  0  0  0  0
   50.0900   29.9760   43.4530 C   0  0  0  0  0  0  0  0  0  0  0  0
   49.0300   29.5530   44.1670 N   0  0  0  0  0  0  0  0  0  0  0  0
   48.0230   30.4350   44.0740 C   0  0  0  0  0  0  0  0  0  0  0  0
   46.7740   30.3680   44.6580 C   0  0  0  0  0  0  0  0  0  0  0  0
   44.8900   31.4200   44.8450 H   0  0  0  0  0  0  0  0  0  0  0  0
   50.2610   31.8300   42.2690 H   0  0  0  0  0  0  0  0  0  0  0  0
   51.0860   29.6000   43.2480 H   0  0  0  0  0  0  0  0  0  0  0  0
   46.4910   29.5340   45.2780 H   0  0  0  0  0  0  0  0  0  0  0  0
   44.5970   35.6980   43.8650 C   0  0  0  0  0  0  0  0  0  0  0  0
   43.6680   35.6340   42.8210 C   0  0  0  0  0  0  0  0  0  0  0  0
   43.6330   34.4770   42.0340 C   0  0  0  0  0  0  0  0  0  0  0  0
   44.5160   33.4760   42.3400 N   0  0  0  0  0  0  0  0  0  0  0  0
   45.3930   33.5690   43.3460 C   0  0  0  0  0  0  0  0  0  0  0  0
   45.4510   34.6740   44.1240 N   0  0  0  0  0  0  0  0  0  0  0  0
   44.6420   36.5970   44.4950 H   0  0  0  0  0  0  0  0  0  0  0  0
   43.0000   36.4690   42.6420 H   0  0  0  0  0  0  0  0  0  0  0  0
   42.9330   34.3880   41.2220 H   0  0  0  0  0  0  0  0  0  0  0  0
   48.0230   33.5860   42.1900 C   0  0  0  0  0  0  0  0  0  0  0  0
   47.7160   33.8440   40.8650 C   0  0  0  0  0  0  0  0  0  0  0  0
   47.0310   33.1010   40.4470 H   0  0  0  0  0  0  0  0  0  0  0  0
   48.2780   34.9510   40.2620 C   0  0  0  0  0  0  0  0  0  0  0  0
   47.9730   35.0600   39.2270 H   0  0  0  0  0  0  0  0  0  0  0  0
   49.1220   35.7690   40.9680 C   0  0  0  0  0  0  0  0  0  0  0  0
   49.4230   35.5050   42.2900 C   0  0  0  0  0  0  0  0  0  0  0  0
   48.8670   34.4270   42.8570 N   0  0  0  0  0  0  0  0  0  0  0  0
  1  9  1  0  0  0  0
  1 10  1  0  0  0  0
  2  1  2  0  0  0  0
  3  4  2  0  0  0  0
  3  2  1  0  0  0  0
  4  8  1  0  0  0  0
  5  4  1  0  0  0  0
  5  6  1  0  0  0  0
  6  7  2  0  0  0  0
  8  7  1  0  0  0  0
  8  9  2  0  0  0  0
  9 13  1  0  0  0  0
 11  5  1  0  0  0  0
 12  6  1  0  0  0  0
 14 19  1  0  0  0  0
 14 20  1  0  0  0  0
 15 14  2  0  0  0  0
 16 17  2  0  0  0  0
 16 15  1  0  0  0  0
 17 18  1  0  0  0  0
 18  2  1  0  0  0  0
 18 19  2  0  0  0  0
 21 15  1  0  0  0  0
 22 16  1  0  0  0  0
 23 30  1  0  0  0  0
 23  3  1  0  0  0  0
 24 23  2  0  0  0  0
 25 24  1  0  0  0  0
 26 24  1  0  0  0  0
 26 28  2  0  0  0  0
 27 26  1  0  0  0  0
 28 29  1  0  0  0  0
 29 30  2  0  0  0  0
M  END
>  <minimizedAffinity>
-4.63931656

>  <minimizedRMSD>
4.72526455

$$$$
