
 OpenBabel03252507253D

 26 28  0  0  0  0  0  0  0  0999 V2000
   45.9540   33.4880   45.6620 C   0  0  0  0  0  0  0  0  0  0  0  0
   44.9810   34.4190   46.0330 C   0  0  0  0  0  0  0  0  0  0  0  0
   44.6570   35.4120   45.0850 C   0  0  0  0  0  0  0  0  0  0  0  0
   45.2980   35.4180   43.8720 N   0  0  0  0  0  0  0  0  0  0  0  0
   46.2250   34.4910   43.5830 C   0  0  0  0  0  0  0  0  0  0  0  0
   46.5640   33.5280   44.4530 N   0  0  0  0  0  0  0  0  0  0  0  0
   44.4890   34.3940   46.9960 H   0  0  0  0  0  0  0  0  0  0  0  0
   43.9040   36.1720   45.3090 H   0  0  0  0  0  0  0  0  0  0  0  0
   46.8830   34.5360   42.2760 C   0  0  0  0  0  0  0  0  0  0  0  0
   48.0170   35.2960   42.0850 C   0  0  0  0  0  0  0  0  0  0  0  0
   48.7040   35.4000   40.8920 C   0  0  0  0  0  0  0  0  0  0  0  0
   48.1550   34.6590   39.8520 C   0  0  0  0  0  0  0  0  0  0  0  0
   47.0160   33.8860   40.0180 C   0  0  0  0  0  0  0  0  0  0  0  0
   46.3960   33.8390   41.2340 N   0  0  0  0  0  0  0  0  0  0  0  0
   48.3910   35.8510   42.9420 H   0  0  0  0  0  0  0  0  0  0  0  0
   49.5890   36.0120   40.8000 H   0  0  0  0  0  0  0  0  0  0  0  0
   48.6390   34.6880   38.8790 H   0  0  0  0  0  0  0  0  0  0  0  0
   46.6360   33.3290   39.1640 H   0  0  0  0  0  0  0  0  0  0  0  0
   46.3090   32.4550   46.6130 C   0  0  0  0  0  0  0  0  0  0  0  0
   47.2140   32.7050   47.6230 C   0  0  0  0  0  0  0  0  0  0  0  0
   47.6750   33.7010   47.7130 H   0  0  0  0  0  0  0  0  0  0  0  0
   47.5900   31.7740   48.5490 C   0  0  0  0  0  0  0  0  0  0  0  0
   48.2920   31.9190   49.3590 H   0  0  0  0  0  0  0  0  0  0  0  0
   46.9770   30.5380   48.3890 C   0  0  0  0  0  3  0  0  0  0  0  0
   46.0540   30.2320   47.3830 C   0  0  0  0  0  3  0  0  0  0  0  0
   45.7620   31.2330   46.5260 N   0  0  0  0  0  0  0  0  0  0  0  0
  1  2  1  0  0  0  0
  1 19  1  0  0  0  0
  2  7  1  0  0  0  0
  3  8  1  0  0  0  0
  3  2  2  0  0  0  0
  4  3  1  0  0  0  0
  5  4  2  0  0  0  0
  5  6  1  0  0  0  0
  6  1  2  0  0  0  0
  9  5  1  0  0  0  0
 10  9  1  0  0  0  0
 10 15  1  0  0  0  0
 11 10  2  0  0  0  0
 12 13  2  0  0  0  0
 12 11  1  0  0  0  0
 13 14  1  0  0  0  0
 14  9  2  0  0  0  0
 16 11  1  0  0  0  0
 17 12  1  0  0  0  0
 18 13  1  0  0  0  0
 19 20  1  0  0  0  0
 20 21  1  0  0  0  0
 20 22  2  0  0  0  0
 22 23  1  0  0  0  0
 24 22  1  0  0  0  0
 25 24  2  0  0  0  0
 26 19  2  0  0  0  0
 26 25  1  0  0  0  0
M  END
>  <minimizedAffinity>
-5.81559134

>  <minimizedRMSD>
0.598483205

$$$$
