
 OpenBabel03252509163D

 24 26  0  0  0  0  0  0  0  0999 V2000
   46.0070   33.1040   46.1470 C   0  0  0  0  0  0  0  0  0  0  0  0
   45.5530   32.9550   47.4880 C   0  0  0  0  0  0  0  0  0  0  0  0
   46.2340   32.1070   48.2980 C   0  0  0  0  0  0  0  0  0  0  0  0
   47.3570   31.4110   47.7870 C   0  0  0  0  0  0  0  0  0  0  0  0
   47.4380   32.0110   46.0400 S   0  0  0  0  0  0  0  0  0  0  0  0
   44.6910   33.5040   47.8420 H   0  0  0  0  0  0  0  0  0  0  0  0
   46.0030   31.9070   49.3080 H   0  0  0  0  0  0  0  0  0  0  0  0
   44.2490   35.8820   44.3960 C   0  0  0  0  0  0  0  0  0  0  0  0
   44.2160   35.3470   43.0820 C   0  0  0  0  0  0  0  0  0  0  0  0
   44.7880   34.0810   42.8610 C   0  0  0  0  0  0  0  0  0  0  0  0
   45.3520   33.4300   43.9420 N   0  0  0  0  0  0  0  0  0  0  0  0
   45.3530   33.9930   45.1710 C   0  0  0  0  0  0  0  0  0  0  0  0
   44.8070   35.2130   45.4120 N   0  0  0  0  0  0  0  0  0  0  0  0
   43.8150   36.8360   44.5500 H   0  0  0  0  0  0  0  0  0  0  0  0
   43.7670   35.8790   42.2540 H   0  0  0  0  0  0  0  0  0  0  0  0
   44.8010   33.6130   41.8940 H   0  0  0  0  0  0  0  0  0  0  0  0
   48.2400   30.4770   48.4020 C   0  0  0  0  0  0  0  0  0  0  0  0
   48.8830   30.7660   49.5830 C   0  0  0  0  0  0  0  0  0  0  0  0
   48.6800   31.7330   50.0080 H   0  0  0  0  0  0  0  0  0  0  0  0
   49.7200   29.8100   50.1140 C   0  0  0  0  0  0  0  0  0  0  0  0
   50.2130   30.0650   51.0450 H   0  0  0  0  0  0  0  0  0  0  0  0
   49.9280   28.5800   49.4950 C   0  0  0  0  0  3  0  0  0  0  0  0
   49.2390   28.3820   48.3160 C   0  0  0  0  0  3  0  0  0  0  0  0
   48.4080   29.3050   47.7680 N   0  0  0  0  0  0  0  0  0  0  0  0
  1  2  2  0  0  0  0
  2  6  1  0  0  0  0
  2  3  1  0  0  0  0
  3  7  1  0  0  0  0
  4  3  2  0  0  0  0
  4 17  1  0  0  0  0
  5  1  1  0  0  0  0
  5  4  1  0  0  0  0
  8 14  1  0  0  0  0
  8 13  1  0  0  0  0
  9  8  2  0  0  0  0
 10  9  1  0  0  0  0
 10 11  2  0  0  0  0
 11 12  1  0  0  0  0
 12 13  2  0  0  0  0
 12  1  1  0  0  0  0
 15  9  1  0  0  0  0
 16 10  1  0  0  0  0
 17 18  1  0  0  0  0
 18 19  1  0  0  0  0
 18 20  2  0  0  0  0
 20 21  1  0  0  0  0
 22 20  1  0  0  0  0
 23 22  2  0  0  0  0
 24 23  1  0  0  0  0
 24 17  2  0  0  0  0
M  END
>  <minimizedAffinity>
-4.37939072

>  <minimizedRMSD>
1.27206755

$$$$
