
 OpenBabel03242520523D

 21 22  0  0  0  0  0  0  0  0999 V2000
   38.0380   28.1440   43.5240 C   0  0  0  0  0  0  0  0  0  0  0  0
   38.2220   29.4000   42.9300 C   0  0  0  0  0  0  0  0  0  0  0  0
   37.9620   29.5410   41.5750 C   0  0  0  0  0  0  0  0  0  0  0  0
   37.5400   28.4480   40.8950 N   0  0  0  0  0  0  0  0  0  0  0  0
   37.3720   27.2570   41.4830 C   0  0  0  0  0  0  0  0  0  0  0  0
   37.6180   27.0990   42.7910 N   0  0  0  0  0  0  0  0  0  0  0  0
   38.2770   28.1760   44.5780 H   0  0  0  0  0  0  0  0  0  0  0  0
   38.5510   30.2800   43.4350 H   0  0  0  0  0  0  0  0  0  0  0  0
   36.9150   26.1160   40.6940 C   0  0  0  0  0  0  0  0  0  0  0  0
   36.9270   24.8440   41.2320 C   0  0  0  0  0  0  0  0  0  0  0  0
   37.2800   24.7400   42.2340 H   0  0  0  0  0  0  0  0  0  0  0  0
   36.5000   23.7250   40.5150 C   0  0  0  0  0  0  0  0  0  0  0  0
   36.5410   22.7720   41.0050 H   0  0  0  0  0  0  0  0  0  0  0  0
   36.0550   23.9610   39.2110 C   0  0  0  0  0  3  0  0  0  0  0  0
   36.0490   25.2450   38.6830 C   0  0  0  0  0  3  0  0  0  0  0  0
   36.4770   26.2860   39.4310 N   0  0  0  0  0  0  0  0  0  0  0  0
   38.0930   30.7090   40.8440 O   0  0  0  0  0  0  0  0  0  0  0  0
   36.8790   31.3730   40.4840 C   0  0  0  0  0  0  0  0  0  0  0  0
   35.9210   31.1530   41.4430 F   0  0  0  0  0  0  0  0  0  0  0  0
   37.1530   32.7490   40.4360 F   0  0  0  0  0  0  0  0  0  0  0  0
   36.4610   30.9820   39.2110 F   0  0  0  0  0  0  0  0  0  0  0  0
  1  7  1  0  0  0  0
  2  8  1  0  0  0  0
  2  1  1  0  0  0  0
  3  2  2  0  0  0  0
  4  5  2  0  0  0  0
  4  3  1  0  0  0  0
  5  6  1  0  0  0  0
  6  1  2  0  0  0  0
  9 10  1  0  0  0  0
  9  5  1  0  0  0  0
 10 11  1  0  0  0  0
 12 13  1  0  0  0  0
 12 10  2  0  0  0  0
 14 12  1  0  0  0  0
 15 14  2  0  0  0  0
 15 16  1  0  0  0  0
 16  9  2  0  0  0  0
 17  3  1  0  0  0  0
 18 17  1  0  0  0  0
 18 19  1  0  0  0  0
 20 18  1  0  0  0  0
 21 18  1  0  0  0  0
M  END
>  <minimizedAffinity>
-4.66436291

$$$$

 OpenBabel03242520523D

 21 22  0  0  0  0  0  0  0  0999 V2000
   35.4460   29.0800   40.6850 C   0  0  0  0  0  0  0  0  0  0  0  0
   35.8970   30.4020   40.5660 C   0  0  0  0  0  0  0  0  0  0  0  0
   37.1690   30.7160   41.0220 C   0  0  0  0  0  0  0  0  0  0  0  0
   37.9100   29.7190   41.5630 N   0  0  0  0  0  0  0  0  0  0  0  0
   37.4580   28.4630   41.6680 C   0  0  0  0  0  0  0  0  0  0  0  0
   36.2330   28.1390   41.2330 N   0  0  0  0  0  0  0  0  0  0  0  0
   34.4440   28.9770   40.2920 H   0  0  0  0  0  0  0  0  0  0  0  0
   35.3410   31.2080   40.1450 H   0  0  0  0  0  0  0  0  0  0  0  0
   38.3080   27.4330   42.2620 C   0  0  0  0  0  0  0  0  0  0  0  0
   39.3560   27.7840   43.0900 C   0  0  0  0  0  0  0  0  0  0  0  0
   39.5100   28.8260   43.2710 H   0  0  0  0  0  0  0  0  0  0  0  0
   40.1930   26.8360   43.6800 C   0  0  0  0  0  0  0  0  0  0  0  0
   40.9850   27.1910   44.3100 H   0  0  0  0  0  0  0  0  0  0  0  0
   39.9130   25.4980   43.3840 C   0  0  0  0  0  3  0  0  0  0  0  0
   38.8560   25.1600   42.5500 C   0  0  0  0  0  3  0  0  0  0  0  0
   38.0830   26.1300   42.0110 N   0  0  0  0  0  0  0  0  0  0  0  0
   37.7580   31.9670   40.9760 O   0  0  0  0  0  0  0  0  0  0  0  0
   38.0120   32.5020   39.6740 C   0  0  0  0  0  0  0  0  0  0  0  0
   36.9350   33.2430   39.2540 F   0  0  0  0  0  0  0  0  0  0  0  0
   39.1240   33.3530   39.7810 F   0  0  0  0  0  0  0  0  0  0  0  0
   38.3440   31.4850   38.7780 F   0  0  0  0  0  0  0  0  0  0  0  0
  1  6  1  0  0  0  0
  2  1  2  0  0  0  0
  2  3  1  0  0  0  0
  3  4  2  0  0  0  0
  4  5  1  0  0  0  0
  5  9  1  0  0  0  0
  6  5  2  0  0  0  0
  7  1  1  0  0  0  0
  8  2  1  0  0  0  0
  9 10  1  0  0  0  0
 10 11  1  0  0  0  0
 10 12  2  0  0  0  0
 12 13  1  0  0  0  0
 14 12  1  0  0  0  0
 15 14  2  0  0  0  0
 16  9  2  0  0  0  0
 16 15  1  0  0  0  0
 17  3  1  0  0  0  0
 18 20  1  0  0  0  0
 18 17  1  0  0  0  0
 19 18  1  0  0  0  0
 21 18  1  0  0  0  0
M  END
>  <minimizedAffinity>
-4.64862013

$$$$

 OpenBabel03242520523D

 21 22  0  0  0  0  0  0  0  0999 V2000
   40.0970   27.7350   43.3380 C   0  0  0  0  0  0  0  0  0  0  0  0
   39.1760   26.6780   43.3360 C   0  0  0  0  0  0  0  0  0  0  0  0
   37.9580   26.8560   42.6970 C   0  0  0  0  0  0  0  0  0  0  0  0
   37.7240   28.0520   42.1050 N   0  0  0  0  0  0  0  0  0  0  0  0
   38.6180   29.0490   42.1210 C   0  0  0  0  0  0  0  0  0  0  0  0
   39.8010   28.8970   42.7320 N   0  0  0  0  0  0  0  0  0  0  0  0
   40.9980   27.4610   43.8680 H   0  0  0  0  0  0  0  0  0  0  0  0
   39.3290   25.7250   43.7900 H   0  0  0  0  0  0  0  0  0  0  0  0
   38.3040   30.3160   41.4640 C   0  0  0  0  0  0  0  0  0  0  0  0
   37.1200   30.4690   40.7700 C   0  0  0  0  0  0  0  0  0  0  0  0
   36.4590   29.6300   40.7390 H   0  0  0  0  0  0  0  0  0  0  0  0
   36.7780   31.6600   40.1270 C   0  0  0  0  0  0  0  0  0  0  0  0
   35.8390   31.6970   39.6090 H   0  0  0  0  0  0  0  0  0  0  0  0
   37.7060   32.7000   40.2240 C   0  0  0  0  0  3  0  0  0  0  0  0
   38.8930   32.5330   40.9250 C   0  0  0  0  0  3  0  0  0  0  0  0
   39.1630   31.3510   41.5240 N   0  0  0  0  0  0  0  0  0  0  0  0
   36.9480   25.9160   42.6060 O   0  0  0  0  0  0  0  0  0  0  0  0
   37.2490   24.7280   41.8670 C   0  0  0  0  0  0  0  0  0  0  0  0
   37.9580   23.8540   42.6540 F   0  0  0  0  0  0  0  0  0  0  0  0
   36.0280   24.1290   41.5230 F   0  0  0  0  0  0  0  0  0  0  0  0
   37.9150   25.0400   40.6810 F   0  0  0  0  0  0  0  0  0  0  0  0
  1  7  1  0  0  0  0
  2  1  1  0  0  0  0
  2  8  1  0  0  0  0
  3  2  2  0  0  0  0
  4  5  2  0  0  0  0
  4  3  1  0  0  0  0
  5  6  1  0  0  0  0
  6  1  2  0  0  0  0
  9 16  1  0  0  0  0
  9  5  1  0  0  0  0
 10  9  2  0  0  0  0
 11 10  1  0  0  0  0
 12 14  2  0  0  0  0
 12 10  1  0  0  0  0
 13 12  1  0  0  0  0
 14 15  1  0  0  0  0
 15 16  2  0  0  0  0
 17  3  1  0  0  0  0
 18 17  1  0  0  0  0
 18 19  1  0  0  0  0
 20 18  1  0  0  0  0
 21 18  1  0  0  0  0
M  END
>  <minimizedAffinity>
-4.6361208

$$$$

 OpenBabel03242520523D

 21 22  0  0  0  0  0  0  0  0999 V2000
   36.1200   28.2910   41.3470 C   0  0  0  0  0  0  0  0  0  0  0  0
   36.9610   27.6170   42.2430 C   0  0  0  0  0  0  0  0  0  0  0  0
   38.1210   28.2450   42.6700 C   0  0  0  0  0  0  0  0  0  0  0  0
   38.3800   29.4860   42.1940 N   0  0  0  0  0  0  0  0  0  0  0  0
   37.5620   30.1120   41.3380 C   0  0  0  0  0  0  0  0  0  0  0  0
   36.4360   29.5230   40.9130 N   0  0  0  0  0  0  0  0  0  0  0  0
   35.2570   27.6890   41.0990 H   0  0  0  0  0  0  0  0  0  0  0  0
   36.7870   26.6410   42.6370 H   0  0  0  0  0  0  0  0  0  0  0  0
   37.8990   31.4520   40.8610 C   0  0  0  0  0  0  0  0  0  0  0  0
   37.0310   32.1370   40.0330 C   0  0  0  0  0  0  0  0  0  0  0  0
   36.1210   31.6470   39.7660 H   0  0  0  0  0  0  0  0  0  0  0  0
   37.3100   33.4180   39.5530 C   0  0  0  0  0  0  0  0  0  0  0  0
   36.5840   33.8810   38.9150 H   0  0  0  0  0  0  0  0  0  0  0  0
   38.5260   33.9760   39.9580 C   0  0  0  0  0  3  0  0  0  0  0  0
   39.3890   33.2750   40.7900 C   0  0  0  0  0  3  0  0  0  0  0  0
   39.0570   32.0370   41.2200 N   0  0  0  0  0  0  0  0  0  0  0  0
   39.0510   27.7160   43.5480 O   0  0  0  0  0  0  0  0  0  0  0  0
   39.8600   26.6460   43.0500 C   0  0  0  0  0  0  0  0  0  0  0  0
   40.0410   26.7870   41.6960 F   0  0  0  0  0  0  0  0  0  0  0  0
   41.1110   26.7400   43.6800 F   0  0  0  0  0  0  0  0  0  0  0  0
   39.3070   25.4110   43.3900 F   0  0  0  0  0  0  0  0  0  0  0  0
  1  2  1  0  0  0  0
  2  8  1  0  0  0  0
  2  3  2  0  0  0  0
  3 17  1  0  0  0  0
  4  3  1  0  0  0  0
  5  4  2  0  0  0  0
  6  5  1  0  0  0  0
  6  1  2  0  0  0  0
  7  1  1  0  0  0  0
  9 16  1  0  0  0  0
  9  5  1  0  0  0  0
 10  9  2  0  0  0  0
 11 10  1  0  0  0  0
 12 14  2  0  0  0  0
 12 10  1  0  0  0  0
 13 12  1  0  0  0  0
 14 15  1  0  0  0  0
 15 16  2  0  0  0  0
 18 21  1  0  0  0  0
 18 17  1  0  0  0  0
 18 20  1  0  0  0  0
 19 18  1  0  0  0  0
M  END
>  <minimizedAffinity>
-4.58905935

$$$$

 OpenBabel03242520523D

 21 22  0  0  0  0  0  0  0  0999 V2000
   38.8940   29.5060   42.8790 C   0  0  0  0  0  0  0  0  0  0  0  0
   38.8600   30.4860   41.8780 C   0  0  0  0  0  0  0  0  0  0  0  0
   38.3280   30.1580   40.6410 C   0  0  0  0  0  0  0  0  0  0  0  0
   37.8660   28.8960   40.4660 N   0  0  0  0  0  0  0  0  0  0  0  0
   37.9100   27.9740   41.4360 C   0  0  0  0  0  0  0  0  0  0  0  0
   38.4190   28.2720   42.6390 N   0  0  0  0  0  0  0  0  0  0  0  0
   39.3320   29.8960   43.7880 H   0  0  0  0  0  0  0  0  0  0  0  0
   39.2120   31.4870   41.9830 H   0  0  0  0  0  0  0  0  0  0  0  0
   37.3960   26.6300   41.1840 C   0  0  0  0  0  0  0  0  0  0  0  0
   37.3580   25.6950   42.1990 C   0  0  0  0  0  0  0  0  0  0  0  0
   37.7150   25.9990   43.1590 H   0  0  0  0  0  0  0  0  0  0  0  0
   36.8750   24.3990   42.0050 C   0  0  0  0  0  0  0  0  0  0  0  0
   36.8790   23.7330   42.8460 H   0  0  0  0  0  0  0  0  0  0  0  0
   36.4300   24.0950   40.7150 C   0  0  0  0  0  3  0  0  0  0  0  0
   36.4750   25.0450   39.7040 C   0  0  0  0  0  3  0  0  0  0  0  0
   36.9540   26.2830   39.9600 N   0  0  0  0  0  0  0  0  0  0  0  0
   38.2220   31.0080   39.5540 O   0  0  0  0  0  0  0  0  0  0  0  0
   36.9190   31.5300   39.2800 C   0  0  0  0  0  0  0  0  0  0  0  0
   37.0170   32.8240   38.8310 F   0  0  0  0  0  0  0  0  0  0  0  0
   36.3600   30.7450   38.2590 F   0  0  0  0  0  0  0  0  0  0  0  0
   36.0950   31.4140   40.4000 F   0  0  0  0  0  0  0  0  0  0  0  0
  1  7  1  0  0  0  0
  2  8  1  0  0  0  0
  2  1  2  0  0  0  0
  3  2  1  0  0  0  0
  4  3  2  0  0  0  0
  4  5  1  0  0  0  0
  5  6  2  0  0  0  0
  6  1  1  0  0  0  0
  9  5  1  0  0  0  0
  9 10  1  0  0  0  0
 10 11  1  0  0  0  0
 12 10  2  0  0  0  0
 12 13  1  0  0  0  0
 14 12  1  0  0  0  0
 15 16  1  0  0  0  0
 15 14  2  0  0  0  0
 16  9  2  0  0  0  0
 17  3  1  0  0  0  0
 18 17  1  0  0  0  0
 18 21  1  0  0  0  0
 19 18  1  0  0  0  0
 20 18  1  0  0  0  0
M  END
>  <minimizedAffinity>
-4.56436872

$$$$

 OpenBabel03242520523D

 21 22  0  0  0  0  0  0  0  0999 V2000
   40.1880   28.1990   39.8760 C   0  0  0  0  0  0  0  0  0  0  0  0
   39.6280   27.4780   40.9400 C   0  0  0  0  0  0  0  0  0  0  0  0
   38.7510   28.1270   41.7960 C   0  0  0  0  0  0  0  0  0  0  0  0
   38.4810   29.4320   41.5540 N   0  0  0  0  0  0  0  0  0  0  0  0
   39.0280   30.1020   40.5320 C   0  0  0  0  0  0  0  0  0  0  0  0
   39.8780   29.4940   39.6930 N   0  0  0  0  0  0  0  0  0  0  0  0
   40.8500   27.5750   39.2920 H   0  0  0  0  0  0  0  0  0  0  0  0
   39.8180   26.4520   41.1570 H   0  0  0  0  0  0  0  0  0  0  0  0
   38.6960   31.5100   40.3250 C   0  0  0  0  0  0  0  0  0  0  0  0
   37.5790   31.8640   39.5960 C   0  0  0  0  0  0  0  0  0  0  0  0
   36.9820   31.0730   39.1990 H   0  0  0  0  0  0  0  0  0  0  0  0
   37.2230   33.1950   39.3730 C   0  0  0  0  0  0  0  0  0  0  0  0
   36.3400   33.3870   38.7960 H   0  0  0  0  0  0  0  0  0  0  0  0
   38.0660   34.1610   39.9330 C   0  0  0  0  0  3  0  0  0  0  0  0
   39.1860   33.7890   40.6630 C   0  0  0  0  0  3  0  0  0  0  0  0
   39.4740   32.4800   40.8410 N   0  0  0  0  0  0  0  0  0  0  0  0
   38.1170   27.5580   42.8860 O   0  0  0  0  0  0  0  0  0  0  0  0
   36.9020   26.8530   42.6190 C   0  0  0  0  0  0  0  0  0  0  0  0
   37.1430   25.5020   42.5810 F   0  0  0  0  0  0  0  0  0  0  0  0
   36.0220   27.1190   43.6800 F   0  0  0  0  0  0  0  0  0  0  0  0
   36.3060   27.3230   41.4480 F   0  0  0  0  0  0  0  0  0  0  0  0
  1  2  1  0  0  0  0
  2  8  1  0  0  0  0
  2  3  2  0  0  0  0
  3 17  1  0  0  0  0
  4  3  1  0  0  0  0
  5  4  2  0  0  0  0
  6  1  2  0  0  0  0
  6  5  1  0  0  0  0
  7  1  1  0  0  0  0
  9  5  1  0  0  0  0
  9 16  1  0  0  0  0
 10  9  2  0  0  0  0
 11 10  1  0  0  0  0
 12 10  1  0  0  0  0
 12 14  2  0  0  0  0
 13 12  1  0  0  0  0
 14 15  1  0  0  0  0
 15 16  2  0  0  0  0
 18 17  1  0  0  0  0
 18 20  1  0  0  0  0
 19 18  1  0  0  0  0
 21 18  1  0  0  0  0
M  END
>  <minimizedAffinity>
-4.45098209

$$$$

 OpenBabel03242520523D

 21 22  0  0  0  0  0  0  0  0999 V2000
   36.2160   29.1970   37.4580 C   0  0  0  0  0  0  0  0  0  0  0  0
   36.8860   30.3770   37.8080 C   0  0  0  0  0  0  0  0  0  0  0  0
   37.5680   30.4250   39.0140 C   0  0  0  0  0  0  0  0  0  0  0  0
   37.5480   29.3180   39.7950 N   0  0  0  0  0  0  0  0  0  0  0  0
   36.9000   28.2000   39.4420 C   0  0  0  0  0  0  0  0  0  0  0  0
   36.2370   28.1330   38.2800 N   0  0  0  0  0  0  0  0  0  0  0  0
   35.7300   29.2980   36.4980 H   0  0  0  0  0  0  0  0  0  0  0  0
   36.9230   31.2640   37.2170 H   0  0  0  0  0  0  0  0  0  0  0  0
   36.9170   27.0400   40.3300 C   0  0  0  0  0  0  0  0  0  0  0  0
   36.9490   27.2090   41.7000 C   0  0  0  0  0  0  0  0  0  0  0  0
   36.9610   28.2110   42.0690 H   0  0  0  0  0  0  0  0  0  0  0  0
   36.9670   26.1310   42.5860 C   0  0  0  0  0  0  0  0  0  0  0  0
   36.9910   26.3470   43.6360 H   0  0  0  0  0  0  0  0  0  0  0  0
   36.9500   24.8580   42.0080 C   0  0  0  0  0  3  0  0  0  0  0  0
   36.9180   24.7030   40.6290 C   0  0  0  0  0  3  0  0  0  0  0  0
   36.9030   25.7910   39.8260 N   0  0  0  0  0  0  0  0  0  0  0  0
   38.2750   31.5090   39.5020 O   0  0  0  0  0  0  0  0  0  0  0  0
   37.5150   32.5080   40.1880 C   0  0  0  0  0  0  0  0  0  0  0  0
   36.5750   31.9110   40.9920 F   0  0  0  0  0  0  0  0  0  0  0  0
   38.4050   33.2260   41.0020 F   0  0  0  0  0  0  0  0  0  0  0  0
   36.9510   33.4080   39.2830 F   0  0  0  0  0  0  0  0  0  0  0  0
  1  2  2  0  0  0  0
  1  6  1  0  0  0  0
  2  3  1  0  0  0  0
  3 17  1  0  0  0  0
  3  4  2  0  0  0  0
  5  4  1  0  0  0  0
  5  9  1  0  0  0  0
  6  5  2  0  0  0  0
  7  1  1  0  0  0  0
  8  2  1  0  0  0  0
  9 10  1  0  0  0  0
 10 11  1  0  0  0  0
 10 12  2  0  0  0  0
 12 13  1  0  0  0  0
 14 12  1  0  0  0  0
 15 14  2  0  0  0  0
 16  9  2  0  0  0  0
 16 15  1  0  0  0  0
 17 18  1  0  0  0  0
 18 19  1  0  0  0  0
 18 20  1  0  0  0  0
 21 18  1  0  0  0  0
M  END
>  <minimizedAffinity>
-4.41532993

$$$$

 OpenBabel03242520523D

 21 22  0  0  0  0  0  0  0  0999 V2000
   39.6870   28.2720   42.8700 C   0  0  0  0  0  0  0  0  0  0  0  0
   39.2610   26.9660   42.5920 C   0  0  0  0  0  0  0  0  0  0  0  0
   38.4450   26.7500   41.4920 C   0  0  0  0  0  0  0  0  0  0  0  0
   38.1030   27.8230   40.7390 N   0  0  0  0  0  0  0  0  0  0  0  0
   38.5210   29.0630   41.0230 C   0  0  0  0  0  0  0  0  0  0  0  0
   39.3090   29.2930   42.0810 N   0  0  0  0  0  0  0  0  0  0  0  0
   40.3130   28.2960   43.7510 H   0  0  0  0  0  0  0  0  0  0  0  0
   39.5120   26.1000   43.1620 H   0  0  0  0  0  0  0  0  0  0  0  0
   38.1150   30.1790   40.1710 C   0  0  0  0  0  0  0  0  0  0  0  0
   37.5140   31.2940   40.7190 C   0  0  0  0  0  0  0  0  0  0  0  0
   37.3640   31.2990   41.7770 H   0  0  0  0  0  0  0  0  0  0  0  0
   37.1100   32.3830   39.9460 C   0  0  0  0  0  0  0  0  0  0  0  0
   36.6500   33.2110   40.4490 H   0  0  0  0  0  0  0  0  0  0  0  0
   37.3480   32.2840   38.5710 C   0  0  0  0  0  3  0  0  0  0  0  0
   37.9530   31.1560   38.0330 C   0  0  0  0  0  3  0  0  0  0  0  0
   38.3200   30.1360   38.8410 N   0  0  0  0  0  0  0  0  0  0  0  0
   37.9430   25.5270   41.0850 O   0  0  0  0  0  0  0  0  0  0  0  0
   37.1170   24.8340   42.0250 C   0  0  0  0  0  0  0  0  0  0  0  0
   36.4500   25.7350   42.8170 F   0  0  0  0  0  0  0  0  0  0  0  0
   36.1720   24.1000   41.2910 F   0  0  0  0  0  0  0  0  0  0  0  0
   37.8720   23.9250   42.7690 F   0  0  0  0  0  0  0  0  0  0  0  0
  1  7  1  0  0  0  0
  2  1  1  0  0  0  0
  2  8  1  0  0  0  0
  3  2  2  0  0  0  0
  4  5  2  0  0  0  0
  4  3  1  0  0  0  0
  5  6  1  0  0  0  0
  6  1  2  0  0  0  0
  9 10  1  0  0  0  0
  9  5  1  0  0  0  0
 10 11  1  0  0  0  0
 12 13  1  0  0  0  0
 12 10  2  0  0  0  0
 14 12  1  0  0  0  0
 15 14  2  0  0  0  0
 15 16  1  0  0  0  0
 16  9  2  0  0  0  0
 17  3  1  0  0  0  0
 17 18  1  0  0  0  0
 18 21  1  0  0  0  0
 18 19  1  0  0  0  0
 20 18  1  0  0  0  0
M  END
>  <minimizedAffinity>
-4.3627305

$$$$

 OpenBabel03242520523D

 21 22  0  0  0  0  0  0  0  0999 V2000
   37.1840   32.4070   39.9830 C   0  0  0  0  0  0  0  0  0  0  0  0
   37.2040   32.0410   38.6310 C   0  0  0  0  0  0  0  0  0  0  0  0
   37.4360   30.7140   38.3030 C   0  0  0  0  0  0  0  0  0  0  0  0
   37.6330   29.8370   39.3170 N   0  0  0  0  0  0  0  0  0  0  0  0
   37.6110   30.2100   40.6030 C   0  0  0  0  0  0  0  0  0  0  0  0
   37.3870   31.4870   40.9410 N   0  0  0  0  0  0  0  0  0  0  0  0
   36.9940   33.4660   40.0950 H   0  0  0  0  0  0  0  0  0  0  0  0
   37.0520   32.7040   37.8090 H   0  0  0  0  0  0  0  0  0  0  0  0
   37.8310   29.2150   41.6500 C   0  0  0  0  0  0  0  0  0  0  0  0
   36.7730   28.4810   42.1500 C   0  0  0  0  0  0  0  0  0  0  0  0
   35.8060   28.6730   41.7390 H   0  0  0  0  0  0  0  0  0  0  0  0
   36.9350   27.5200   43.1500 C   0  0  0  0  0  0  0  0  0  0  0  0
   36.0630   26.9930   43.4830 H   0  0  0  0  0  0  0  0  0  0  0  0
   38.2380   27.3400   43.6250 C   0  0  0  0  0  3  0  0  0  0  0  0
   39.2920   28.0860   43.1140 C   0  0  0  0  0  3  0  0  0  0  0  0
   39.0650   29.0010   42.1450 N   0  0  0  0  0  0  0  0  0  0  0  0
   37.4860   30.1940   37.0210 O   0  0  0  0  0  0  0  0  0  0  0  0
   36.3290   29.4770   36.5800 C   0  0  0  0  0  0  0  0  0  0  0  0
   36.0450   29.8020   35.2770 F   0  0  0  0  0  0  0  0  0  0  0  0
   36.6360   28.1090   36.6430 F   0  0  0  0  0  0  0  0  0  0  0  0
   35.2500   29.7070   37.4360 F   0  0  0  0  0  0  0  0  0  0  0  0
  1  7  1  0  0  0  0
  1  6  1  0  0  0  0
  2  1  2  0  0  0  0
  3  2  1  0  0  0  0
  3  4  2  0  0  0  0
  4  5  1  0  0  0  0
  5  6  2  0  0  0  0
  5  9  1  0  0  0  0
  8  2  1  0  0  0  0
  9 16  2  0  0  0  0
  9 10  1  0  0  0  0
 10 12  2  0  0  0  0
 11 10  1  0  0  0  0
 12 13  1  0  0  0  0
 12 14  1  0  0  0  0
 15 14  2  0  0  0  0
 16 15  1  0  0  0  0
 17  3  1  0  0  0  0
 18 20  1  0  0  0  0
 18 17  1  0  0  0  0
 18 21  1  0  0  0  0
 19 18  1  0  0  0  0
M  END
>  <minimizedAffinity>
-4.33732414

$$$$
