
 OpenBabel03252509113D

 30 33  0  0  0  0  0  0  0  0999 V2000
   45.2150   30.8100   43.7280 C   0  0  0  0  0  0  0  0  0  0  0  0
   45.1880   31.5500   42.5530 C   0  0  0  0  0  0  0  0  0  0  0  0
   44.9680   30.9830   41.3140 C   0  0  0  0  0  0  0  0  0  0  0  0
   44.7590   29.6170   41.1830 C   0  0  0  0  0  0  0  0  0  0  0  0
   44.5220   28.7320   40.1930 N   0  0  0  0  0  0  0  0  0  0  0  0
   44.4050   27.4880   40.7190 C   0  0  0  0  0  0  0  0  0  0  0  0
   44.5720   27.6120   42.0490 N   0  0  0  0  0  0  0  0  0  0  0  0
   44.7900   28.8950   42.3730 C   0  0  0  0  0  0  0  0  0  0  0  0
   45.0080   29.4330   43.6250 C   0  0  0  0  0  0  0  0  0  0  0  0
   45.3890   31.2920   44.6710 H   0  0  0  0  0  0  0  0  0  0  0  0
   44.4610   29.0870   39.1990 H   0  0  0  0  0  0  0  0  0  0  0  0
   44.2130   26.6670   40.0350 H   0  0  0  0  0  0  0  0  0  0  0  0
   45.0180   28.8130   44.5060 H   0  0  0  0  0  0  0  0  0  0  0  0
   46.8380   34.8340   42.5130 C   0  0  0  0  0  0  0  0  0  0  0  0
   45.7750   35.7110   42.7540 C   0  0  0  0  0  0  0  0  0  0  0  0
   44.4960   35.1700   42.9300 C   0  0  0  0  0  0  0  0  0  0  0  0
   44.3680   33.8090   42.8520 N   0  0  0  0  0  0  0  0  0  0  0  0
   45.4050   32.9980   42.6190 C   0  0  0  0  0  0  0  0  0  0  0  0
   46.6530   33.4900   42.4470 N   0  0  0  0  0  0  0  0  0  0  0  0
   47.8510   35.2370   42.3720 H   0  0  0  0  0  0  0  0  0  0  0  0
   45.9570   36.7780   42.8020 H   0  0  0  0  0  0  0  0  0  0  0  0
   43.6520   35.8110   43.1180 H   0  0  0  0  0  0  0  0  0  0  0  0
   44.9380   31.7530   40.0730 C   0  0  0  0  0  0  0  0  0  0  0  0
   43.9170   32.5320   39.5570 C   0  0  0  0  0  0  0  0  0  0  0  0
   43.0350   32.5410   40.2050 H   0  0  0  0  0  0  0  0  0  0  0  0
   44.1200   33.1730   38.3530 C   0  0  0  0  0  0  0  0  0  0  0  0
   43.2590   33.7560   38.0410 H   0  0  0  0  0  0  0  0  0  0  0  0
   45.3100   33.0350   37.6890 C   0  0  0  0  0  3  0  0  0  0  0  0
   46.3240   32.2550   38.2090 C   0  0  0  0  0  3  0  0  0  0  0  0
   46.1080   31.6420   39.3790 N   0  0  0  0  0  0  0  0  0  0  0  0
  1 10  1  0  0  0  0
  2 18  1  0  0  0  0
  2  1  2  0  0  0  0
  3  2  1  0  0  0  0
  4  3  2  0  0  0  0
  4  8  1  0  0  0  0
  5  6  1  0  0  0  0
  5  4  1  0  0  0  0
  6  7  2  0  0  0  0
  7  8  1  0  0  0  0
  8  9  2  0  0  0  0
  9  1  1  0  0  0  0
  9 13  1  0  0  0  0
 11  5  1  0  0  0  0
 12  6  1  0  0  0  0
 14 15  1  0  0  0  0
 15 21  1  0  0  0  0
 15 16  2  0  0  0  0
 16 22  1  0  0  0  0
 17 16  1  0  0  0  0
 18 17  2  0  0  0  0
 19 14  2  0  0  0  0
 19 18  1  0  0  0  0
 20 14  1  0  0  0  0
 23  3  1  0  0  0  0
 24 23  1  0  0  0  0
 24 25  1  0  0  0  0
 26 24  2  0  0  0  0
 27 26  1  0  0  0  0
 28 29  2  0  0  0  0
 28 26  1  0  0  0  0
 29 30  1  0  0  0  0
 30 23  2  0  0  0  0
M  END
>  <minimizedAffinity>
-2.6311779

>  <minimizedRMSD>
6.40271235

$$$$
