
 OpenBabel03252501433D

 44 47  0  0  0  0  0  0  0  0999 V2000
   38.2070   29.8510   38.6520 O   0  0  0  0  0  0  0  0  0  0  0  0
   40.2740   28.1430   39.9330 Cl  0  0  0  0  0  0  0  0  0  0  0  0
   38.6010   28.3130   40.4250 C   0  0  0  0  0  0  0  0  0  0  0  0
   37.6970   29.1460   39.7560 C   0  0  0  0  0  0  0  0  0  0  0  0
   36.4010   29.2430   40.1760 C   0  0  0  0  0  0  0  0  0  0  0  0
   35.9060   28.5480   41.2610 C   0  0  0  0  0  0  0  0  0  0  0  0
   36.7980   27.7000   41.9550 C   0  0  0  0  0  0  0  0  0  0  0  0
   36.2590   26.7750   43.3460 Cl  0  0  0  0  0  0  0  0  0  0  0  0
   38.0900   27.6310   41.4980 C   0  0  0  0  0  0  0  0  0  0  0  0
   35.7290   29.9010   39.6310 H   0  0  0  0  0  0  0  0  0  0  0  0
   34.8860   28.6270   41.5910 H   0  0  0  0  0  0  0  0  0  0  0  0
   39.6750   28.6430   43.4750 F   0  0  0  0  0  0  0  0  0  0  0  0
   39.8150   27.3010   43.2090 C   0  0  0  0  0  0  0  0  0  0  0  0
   39.0260   26.7540   42.2100 C   0  0  0  0  0  0  0  0  0  0  0  0
   39.1980   25.3870   41.9710 C   0  0  0  0  0  0  0  0  0  0  0  0
   40.1200   24.6740   42.7180 C   0  0  0  0  0  0  0  0  0  0  0  0
   40.8880   25.2890   43.7140 C   0  0  0  0  0  0  0  0  0  0  0  0
   40.7420   26.6460   43.9800 C   0  0  0  0  0  0  0  0  0  0  0  0
   38.5840   24.9650   41.1940 H   0  0  0  0  0  0  0  0  0  0  0  0
   40.2480   23.6260   42.5290 H   0  0  0  0  0  0  0  0  0  0  0  0
   41.6090   24.7330   44.3000 H   0  0  0  0  0  0  0  0  0  0  0  0
   41.3120   27.1490   44.7340 H   0  0  0  0  0  0  0  0  0  0  0  0
   38.6610   31.1530   38.8710 C   0  0  0  0  0  0  0  0  0  0  0  0
   38.8660   32.0650   37.9920 O   0  0  0  0  0  0  0  0  0  0  0  0
   38.9580   31.6030   40.1930 N   0  0  0  0  0  0  0  0  0  0  0  0
   38.8270   31.0390   41.0280 H   0  0  0  0  0  0  0  0  0  0  0  0
   39.4590   32.9620   40.1340 C   0  0  0  0  0  0  0  0  0  0  0  0
   38.7090   34.0930   40.0590 C   0  0  0  0  0  0  0  0  0  0  0  0
   39.3810   35.2860   40.0130 C   0  0  0  0  0  0  0  0  0  0  0  0
   40.7470   35.2520   40.0450 N   0  0  0  0  0  0  0  0  0  0  0  0
   41.4520   34.1200   40.1170 C   0  0  0  0  0  0  0  0  0  0  0  0
   40.8060   32.9340   40.1640 N   0  0  0  0  0  0  0  0  0  0  0  0
   38.8040   36.1990   39.9540 H   0  0  0  0  0  0  0  0  0  0  0  0
   42.9140   34.2160   40.1440 C   0  0  0  0  0  0  0  0  0  0  0  0
   43.6100   34.5660   41.2830 C   0  0  0  0  0  0  0  0  0  0  0  0
   43.0820   34.7790   42.1870 H   0  0  0  0  0  0  0  0  0  0  0  0
   44.9930   34.6230   41.1790 C   0  0  0  0  0  0  0  0  0  0  0  0
   45.4980   34.9010   42.0940 H   0  0  0  0  0  0  0  0  0  0  0  0
   45.7030   34.3530   40.0180 C   0  0  0  0  0  3  0  0  0  0  0  0
   44.9260   34.0110   38.9290 C   0  0  0  0  0  3  0  0  0  0  0  0
   43.5640   33.9460   38.9970 N   0  0  0  0  0  0  0  0  0  0  0  0
   37.3110   33.9420   40.0380 N   0  0  0  0  0  0  0  0  0  0  0  0
   36.6740   34.6010   40.5720 H   0  0  0  0  0  0  0  0  0  0  0  0
   36.8280   33.1900   39.5080 H   0  0  0  0  0  0  0  0  0  0  0  0
  1 23  1  0  0  0  0
  1  4  1  0  0  0  0
  2  3  1  0  0  0  0
  3  9  1  0  0  0  0
  4  5  1  0  0  0  0
  4  3  2  0  0  0  0
  5  6  2  0  0  0  0
  6 11  1  0  0  0  0
  6  7  1  0  0  0  0
  7  8  1  0  0  0  0
  9  7  2  0  0  0  0
  9 14  1  0  0  0  0
 10  5  1  0  0  0  0
 13 12  1  0  0  0  0
 13 18  1  0  0  0  0
 14 13  2  0  0  0  0
 15 14  1  0  0  0  0
 15 16  2  0  0  0  0
 16 17  1  0  0  0  0
 17 18  2  0  0  0  0
 17 21  1  0  0  0  0
 18 22  1  0  0  0  0
 19 15  1  0  0  0  0
 20 16  1  0  0  0  0
 23 25  1  0  0  0  0
 24 23  2  0  0  0  0
 25 26  1  0  0  0  0
 27 32  1  0  0  0  0
 27 25  1  0  0  0  0
 28 27  2  0  0  0  0
 29 30  2  0  0  0  0
 29 28  1  0  0  0  0
 30 31  1  0  0  0  0
 31 34  1  0  0  0  0
 31 32  2  0  0  0  0
 33 29  1  0  0  0  0
 34 35  1  0  0  0  0
 35 36  1  0  0  0  0
 37 35  2  0  0  0  0
 37 38  1  0  0  0  0
 39 37  1  0  0  0  0
 40 41  1  0  0  0  0
 40 39  2  0  0  0  0
 41 34  2  0  0  0  0
 42 28  1  0  0  0  0
 42 43  1  0  0  0  0
 44 42  1  0  0  0  0
M  END
>  <minimizedAffinity>
-7.21140575

$$$$

 OpenBabel03252501433D

 44 47  0  0  0  0  0  0  0  0999 V2000
   36.6150   31.0600   40.9780 O   0  0  0  0  0  0  0  0  0  0  0  0
   38.0520   28.8490   42.3490 Cl  0  0  0  0  0  0  0  0  0  0  0  0
   37.0510   28.7210   40.9160 C   0  0  0  0  0  0  0  0  0  0  0  0
   36.4110   29.8240   40.3400 C   0  0  0  0  0  0  0  0  0  0  0  0
   35.6410   29.6740   39.2220 C   0  0  0  0  0  0  0  0  0  0  0  0
   35.4440   28.4580   38.6000 C   0  0  0  0  0  0  0  0  0  0  0  0
   36.0780   27.3270   39.1610 C   0  0  0  0  0  0  0  0  0  0  0  0
   35.8870   25.7390   38.4390 Cl  0  0  0  0  0  0  0  0  0  0  0  0
   36.8430   27.5230   40.2840 C   0  0  0  0  0  0  0  0  0  0  0  0
   35.1600   30.5550   38.8030 H   0  0  0  0  0  0  0  0  0  0  0  0
   34.8370   28.3420   37.7200 H   0  0  0  0  0  0  0  0  0  0  0  0
   39.3800   26.8620   39.5240 F   0  0  0  0  0  0  0  0  0  0  0  0
   38.7950   26.0500   40.4680 C   0  0  0  0  0  0  0  0  0  0  0  0
   37.5070   26.3570   40.8760 C   0  0  0  0  0  0  0  0  0  0  0  0
   36.9480   25.5070   41.8370 C   0  0  0  0  0  0  0  0  0  0  0  0
   37.6860   24.4380   42.3130 C   0  0  0  0  0  0  0  0  0  0  0  0
   38.9850   24.1830   41.8570 C   0  0  0  0  0  0  0  0  0  0  0  0
   39.5730   25.0070   40.9040 C   0  0  0  0  0  0  0  0  0  0  0  0
   35.9480   25.7480   42.1510 H   0  0  0  0  0  0  0  0  0  0  0  0
   37.2520   23.7900   43.0490 H   0  0  0  0  0  0  0  0  0  0  0  0
   39.5640   23.3470   42.2290 H   0  0  0  0  0  0  0  0  0  0  0  0
   40.5630   24.8420   40.5320 H   0  0  0  0  0  0  0  0  0  0  0  0
   37.6120   31.8950   40.4680 C   0  0  0  0  0  0  0  0  0  0  0  0
   37.5530   32.6260   39.4160 O   0  0  0  0  0  0  0  0  0  0  0  0
   38.8720   32.0060   41.1310 N   0  0  0  0  0  0  0  0  0  0  0  0
   39.1000   31.5310   42.0000 H   0  0  0  0  0  0  0  0  0  0  0  0
   39.7360   32.8860   40.3700 C   0  0  0  0  0  0  0  0  0  0  0  0
   39.7680   34.2430   40.4450 C   0  0  0  0  0  0  0  0  0  0  0  0
   40.6640   34.8920   39.6370 C   0  0  0  0  0  0  0  0  0  0  0  0
   41.4550   34.1330   38.8200 N   0  0  0  0  0  0  0  0  0  0  0  0
   41.3950   32.7990   38.7720 C   0  0  0  0  0  0  0  0  0  0  0  0
   40.5180   32.1430   39.5630 N   0  0  0  0  0  0  0  0  0  0  0  0
   40.7060   35.9720   39.6800 H   0  0  0  0  0  0  0  0  0  0  0  0
   42.2970   32.1000   37.8540 C   0  0  0  0  0  0  0  0  0  0  0  0
   41.8770   31.0470   37.0660 C   0  0  0  0  0  0  0  0  0  0  0  0
   40.8620   30.7160   37.1130 H   0  0  0  0  0  0  0  0  0  0  0  0
   42.8280   30.4670   36.2380 C   0  0  0  0  0  0  0  0  0  0  0  0
   42.4570   29.6470   35.6390 H   0  0  0  0  0  0  0  0  0  0  0  0
   44.1520   30.8760   36.1580 C   0  0  0  0  0  3  0  0  0  0  0  0
   44.4830   31.9340   36.9810 C   0  0  0  0  0  3  0  0  0  0  0  0
   43.5720   32.5270   37.8080 N   0  0  0  0  0  0  0  0  0  0  0  0
   38.8810   34.8620   41.3440 N   0  0  0  0  0  0  0  0  0  0  0  0
   39.1780   35.6950   41.9300 H   0  0  0  0  0  0  0  0  0  0  0  0
   37.9020   34.5460   41.4850 H   0  0  0  0  0  0  0  0  0  0  0  0
  3  2  1  0  0  0  0
  4  3  1  0  0  0  0
  4  1  1  0  0  0  0
  5  4  2  0  0  0  0
  6  7  2  0  0  0  0
  6  5  1  0  0  0  0
  7  9  1  0  0  0  0
  8  7  1  0  0  0  0
  9 14  1  0  0  0  0
  9  3  2  0  0  0  0
 10  5  1  0  0  0  0
 11  6  1  0  0  0  0
 12 13  1  0  0  0  0
 13 14  2  0  0  0  0
 13 18  1  0  0  0  0
 14 15  1  0  0  0  0
 15 19  1  0  0  0  0
 15 16  2  0  0  0  0
 16 20  1  0  0  0  0
 17 21  1  0  0  0  0
 17 16  1  0  0  0  0
 18 17  2  0  0  0  0
 22 18  1  0  0  0  0
 23  1  1  0  0  0  0
 23 25  1  0  0  0  0
 24 23  2  0  0  0  0
 25 26  1  0  0  0  0
 27 28  1  0  0  0  0
 27 25  1  0  0  0  0
 28 42  1  0  0  0  0
 29 33  1  0  0  0  0
 29 28  2  0  0  0  0
 30 29  1  0  0  0  0
 31 30  2  0  0  0  0
 31 32  1  0  0  0  0
 32 27  2  0  0  0  0
 34 31  1  0  0  0  0
 35 36  1  0  0  0  0
 35 34  2  0  0  0  0
 37 35  1  0  0  0  0
 38 37  1  0  0  0  0
 39 37  2  0  0  0  0
 39 40  1  0  0  0  0
 40 41  2  0  0  0  0
 41 34  1  0  0  0  0
 42 44  1  0  0  0  0
 42 43  1  0  0  0  0
M  END
>  <minimizedAffinity>
-7.08345795

$$$$

 OpenBabel03252501433D

 44 47  0  0  0  0  0  0  0  0999 V2000
   38.7640   32.9200   41.1950 O   0  0  0  0  0  0  0  0  0  0  0  0
   38.9750   30.3750   42.7150 Cl  0  0  0  0  0  0  0  0  0  0  0  0
   38.1160   30.6300   41.2090 C   0  0  0  0  0  0  0  0  0  0  0  0
   38.0730   31.8720   40.5640 C   0  0  0  0  0  0  0  0  0  0  0  0
   37.3900   32.0210   39.3910 C   0  0  0  0  0  0  0  0  0  0  0  0
   36.7130   30.9880   38.7760 C   0  0  0  0  0  0  0  0  0  0  0  0
   36.7400   29.7230   39.4060 C   0  0  0  0  0  0  0  0  0  0  0  0
   35.9080   28.3490   38.6980 Cl  0  0  0  0  0  0  0  0  0  0  0  0
   37.4380   29.6170   40.5820 C   0  0  0  0  0  0  0  0  0  0  0  0
   37.3790   33.0010   38.9200 H   0  0  0  0  0  0  0  0  0  0  0  0
   36.1760   31.1080   37.8520 H   0  0  0  0  0  0  0  0  0  0  0  0
   39.3750   27.8080   39.9340 F   0  0  0  0  0  0  0  0  0  0  0  0
   38.4710   27.4150   40.8920 C   0  0  0  0  0  0  0  0  0  0  0  0
   37.4730   28.3100   41.2460 C   0  0  0  0  0  0  0  0  0  0  0  0
   36.5740   27.8720   42.2240 C   0  0  0  0  0  0  0  0  0  0  0  0
   36.7210   26.6100   42.7700 C   0  0  0  0  0  0  0  0  0  0  0  0
   37.7530   25.7520   42.3670 C   0  0  0  0  0  0  0  0  0  0  0  0
   38.6660   26.1540   41.3980 C   0  0  0  0  0  0  0  0  0  0  0  0
   35.8010   28.5690   42.4960 H   0  0  0  0  0  0  0  0  0  0  0  0
   36.0290   26.2800   43.5190 H   0  0  0  0  0  0  0  0  0  0  0  0
   37.8700   24.7640   42.7940 H   0  0  0  0  0  0  0  0  0  0  0  0
   39.4670   25.5260   41.0660 H   0  0  0  0  0  0  0  0  0  0  0  0
   40.0630   33.1920   40.7610 C   0  0  0  0  0  0  0  0  0  0  0  0
   40.4190   33.9820   39.8150 O   0  0  0  0  0  0  0  0  0  0  0  0
   41.1810   32.5620   41.3860 N   0  0  0  0  0  0  0  0  0  0  0  0
   41.1070   31.9280   42.1780 H   0  0  0  0  0  0  0  0  0  0  0  0
   42.3980   32.9720   40.7140 C   0  0  0  0  0  0  0  0  0  0  0  0
   43.2590   33.9390   41.1300 C   0  0  0  0  0  0  0  0  0  0  0  0
   44.3580   34.1750   40.3470 C   0  0  0  0  0  0  0  0  0  0  0  0
   44.5070   33.4270   39.2120 N   0  0  0  0  0  0  0  0  0  0  0  0
   43.6390   32.4860   38.8340 C   0  0  0  0  0  0  0  0  0  0  0  0
   42.5500   32.2390   39.5950 N   0  0  0  0  0  0  0  0  0  0  0  0
   45.0570   34.9400   40.6590 H   0  0  0  0  0  0  0  0  0  0  0  0
   43.9110   31.7520   37.5950 C   0  0  0  0  0  0  0  0  0  0  0  0
   42.9410   31.0190   36.9420 C   0  0  0  0  0  0  0  0  0  0  0  0
   41.9500   30.9730   37.3390 H   0  0  0  0  0  0  0  0  0  0  0  0
   43.3250   30.3680   35.7790 C   0  0  0  0  0  0  0  0  0  0  0  0
   42.5350   29.8070   35.3000 H   0  0  0  0  0  0  0  0  0  0  0  0
   44.6040   30.4110   35.2420 C   0  0  0  0  0  3  0  0  0  0  0  0
   45.5090   31.1670   35.9600 C   0  0  0  0  0  3  0  0  0  0  0  0
   45.1640   31.8200   37.1100 N   0  0  0  0  0  0  0  0  0  0  0  0
   42.9490   34.6100   42.3270 N   0  0  0  0  0  0  0  0  0  0  0  0
   43.7010   34.8610   43.0310 H   0  0  0  0  0  0  0  0  0  0  0  0
   41.9840   34.8940   42.5860 H   0  0  0  0  0  0  0  0  0  0  0  0
  3  2  1  0  0  0  0
  4  1  1  0  0  0  0
  4  3  2  0  0  0  0
  5  4  1  0  0  0  0
  6  5  2  0  0  0  0
  6  7  1  0  0  0  0
  7  9  2  0  0  0  0
  8  7  1  0  0  0  0
  9  3  1  0  0  0  0
  9 14  1  0  0  0  0
 10  5  1  0  0  0  0
 11  6  1  0  0  0  0
 12 13  1  0  0  0  0
 13 14  2  0  0  0  0
 13 18  1  0  0  0  0
 14 15  1  0  0  0  0
 15 19  1  0  0  0  0
 15 16  2  0  0  0  0
 16 20  1  0  0  0  0
 17 16  1  0  0  0  0
 17 21  1  0  0  0  0
 18 17  2  0  0  0  0
 22 18  1  0  0  0  0
 23  1  1  0  0  0  0
 23 25  1  0  0  0  0
 24 23  2  0  0  0  0
 25 26  1  0  0  0  0
 27 28  1  0  0  0  0
 27 25  1  0  0  0  0
 28 42  1  0  0  0  0
 29 33  1  0  0  0  0
 29 28  2  0  0  0  0
 30 29  1  0  0  0  0
 31 30  2  0  0  0  0
 31 32  1  0  0  0  0
 32 27  2  0  0  0  0
 34 31  1  0  0  0  0
 35 36  1  0  0  0  0
 35 34  2  0  0  0  0
 37 35  1  0  0  0  0
 38 37  1  0  0  0  0
 39 37  2  0  0  0  0
 39 40  1  0  0  0  0
 40 41  2  0  0  0  0
 41 34  1  0  0  0  0
 42 44  1  0  0  0  0
 42 43  1  0  0  0  0
M  END
>  <minimizedAffinity>
-7.04946423

$$$$

 OpenBabel03252501433D

 44 47  0  0  0  0  0  0  0  0999 V2000
   37.2040   29.6540   41.9630 O   0  0  0  0  0  0  0  0  0  0  0  0
   36.7460   27.5740   39.8890 Cl  0  0  0  0  0  0  0  0  0  0  0  0
   37.6490   27.3890   41.3790 C   0  0  0  0  0  0  0  0  0  0  0  0
   37.8110   28.4310   42.3000 C   0  0  0  0  0  0  0  0  0  0  0  0
   38.5230   28.2380   43.4490 C   0  0  0  0  0  0  0  0  0  0  0  0
   39.1180   27.0360   43.7740 C   0  0  0  0  0  0  0  0  0  0  0  0
   38.9700   25.9660   42.8620 C   0  0  0  0  0  0  0  0  0  0  0  0
   39.6890   24.3990   43.1910 Cl  0  0  0  0  0  0  0  0  0  0  0  0
   38.2450   26.2040   41.7210 C   0  0  0  0  0  0  0  0  0  0  0  0
   38.6280   29.0720   44.1390 H   0  0  0  0  0  0  0  0  0  0  0  0
   39.6780   26.8850   44.6790 H   0  0  0  0  0  0  0  0  0  0  0  0
   36.1850   24.4370   42.0070 F   0  0  0  0  0  0  0  0  0  0  0  0
   37.0270   24.2230   40.9420 C   0  0  0  0  0  0  0  0  0  0  0  0
   38.0850   25.1020   40.7660 C   0  0  0  0  0  0  0  0  0  0  0  0
   38.9170   24.8490   39.6710 C   0  0  0  0  0  0  0  0  0  0  0  0
   38.6530   23.7710   38.8470 C   0  0  0  0  0  0  0  0  0  0  0  0
   37.5650   22.9190   39.0810 C   0  0  0  0  0  0  0  0  0  0  0  0
   36.7160   23.1400   40.1590 C   0  0  0  0  0  0  0  0  0  0  0  0
   39.7380   25.5330   39.5380 H   0  0  0  0  0  0  0  0  0  0  0  0
   39.2950   23.5820   38.0090 H   0  0  0  0  0  0  0  0  0  0  0  0
   37.3570   22.0750   38.4360 H   0  0  0  0  0  0  0  0  0  0  0  0
   35.8760   22.5100   40.3680 H   0  0  0  0  0  0  0  0  0  0  0  0
   37.9270   30.5350   41.1560 C   0  0  0  0  0  0  0  0  0  0  0  0
   37.5700   31.0300   40.0280 O   0  0  0  0  0  0  0  0  0  0  0  0
   39.2210   30.9860   41.5580 N   0  0  0  0  0  0  0  0  0  0  0  0
   39.6630   30.7330   42.4370 H   0  0  0  0  0  0  0  0  0  0  0  0
   39.7700   31.8410   40.5240 C   0  0  0  0  0  0  0  0  0  0  0  0
   39.6170   33.1880   40.4290 C   0  0  0  0  0  0  0  0  0  0  0  0
   40.2210   33.8120   39.3700 C   0  0  0  0  0  0  0  0  0  0  0  0
   40.9290   33.0400   38.4920 N   0  0  0  0  0  0  0  0  0  0  0  0
   41.0580   31.7160   38.6160 C   0  0  0  0  0  0  0  0  0  0  0  0
   40.4690   31.0850   39.6550 N   0  0  0  0  0  0  0  0  0  0  0  0
   40.1130   34.8850   39.2750 H   0  0  0  0  0  0  0  0  0  0  0  0
   41.8430   31.0000   37.6080 C   0  0  0  0  0  0  0  0  0  0  0  0
   42.9430   31.5620   36.9920 C   0  0  0  0  0  0  0  0  0  0  0  0
   43.2480   32.5540   37.2460 H   0  0  0  0  0  0  0  0  0  0  0  0
   43.6020   30.7810   36.0530 C   0  0  0  0  0  0  0  0  0  0  0  0
   44.4570   31.2600   35.5960 H   0  0  0  0  0  0  0  0  0  0  0  0
   43.2270   29.4910   35.7040 C   0  0  0  0  0  3  0  0  0  0  0  0
   42.1170   29.0100   36.3690 C   0  0  0  0  0  3  0  0  0  0  0  0
   41.4440   29.7530   37.2980 N   0  0  0  0  0  0  0  0  0  0  0  0
   38.8540   33.8240   41.4250 N   0  0  0  0  0  0  0  0  0  0  0  0
   39.1400   34.7630   41.8260 H   0  0  0  0  0  0  0  0  0  0  0  0
   37.9820   33.4200   41.8190 H   0  0  0  0  0  0  0  0  0  0  0  0
  1  4  1  0  0  0  0
  2  3  1  0  0  0  0
  3  9  2  0  0  0  0
  3  4  1  0  0  0  0
  4  5  2  0  0  0  0
  5  6  1  0  0  0  0
  5 10  1  0  0  0  0
  6 11  1  0  0  0  0
  7  8  1  0  0  0  0
  7  6  2  0  0  0  0
  9  7  1  0  0  0  0
 13 12  1  0  0  0  0
 14 13  1  0  0  0  0
 14  9  1  0  0  0  0
 15 14  2  0  0  0  0
 16 17  2  0  0  0  0
 16 15  1  0  0  0  0
 17 18  1  0  0  0  0
 18 22  1  0  0  0  0
 18 13  2  0  0  0  0
 19 15  1  0  0  0  0
 20 16  1  0  0  0  0
 21 17  1  0  0  0  0
 23 25  1  0  0  0  0
 23  1  1  0  0  0  0
 24 23  2  0  0  0  0
 25 26  1  0  0  0  0
 27 25  1  0  0  0  0
 28 27  1  0  0  0  0
 28 42  1  0  0  0  0
 29 28  2  0  0  0  0
 30 31  2  0  0  0  0
 30 29  1  0  0  0  0
 31 32  1  0  0  0  0
 32 27  2  0  0  0  0
 33 29  1  0  0  0  0
 34 31  1  0  0  0  0
 35 36  1  0  0  0  0
 35 34  2  0  0  0  0
 37 35  1  0  0  0  0
 38 37  1  0  0  0  0
 39 37  2  0  0  0  0
 39 40  1  0  0  0  0
 40 41  2  0  0  0  0
 41 34  1  0  0  0  0
 42 44  1  0  0  0  0
 42 43  1  0  0  0  0
M  END
>  <minimizedAffinity>
-7.02433634

$$$$

 OpenBabel03252501433D

 44 47  0  0  0  0  0  0  0  0999 V2000
   38.3110   30.1710   40.5540 O   0  0  0  0  0  0  0  0  0  0  0  0
   37.3380   27.6750   39.2660 Cl  0  0  0  0  0  0  0  0  0  0  0  0
   38.2410   27.8010   40.7630 C   0  0  0  0  0  0  0  0  0  0  0  0
   38.6580   29.0270   41.2940 C   0  0  0  0  0  0  0  0  0  0  0  0
   39.3590   29.0740   42.4650 C   0  0  0  0  0  0  0  0  0  0  0  0
   39.6970   27.9470   43.1870 C   0  0  0  0  0  0  0  0  0  0  0  0
   39.2880   26.6960   42.6730 C   0  0  0  0  0  0  0  0  0  0  0  0
   39.6720   25.2080   43.5220 Cl  0  0  0  0  0  0  0  0  0  0  0  0
   38.5850   26.6950   41.4940 C   0  0  0  0  0  0  0  0  0  0  0  0
   39.6660   30.0450   42.8450 H   0  0  0  0  0  0  0  0  0  0  0  0
   40.2490   27.9860   44.1080 H   0  0  0  0  0  0  0  0  0  0  0  0
   40.2650   25.2610   39.8910 F   0  0  0  0  0  0  0  0  0  0  0  0
   39.0350   24.7000   40.1400 C   0  0  0  0  0  0  0  0  0  0  0  0
   38.1560   25.4010   40.9510 C   0  0  0  0  0  0  0  0  0  0  0  0
   36.9160   24.7970   41.1800 C   0  0  0  0  0  0  0  0  0  0  0  0
   36.6380   23.5700   40.6030 C   0  0  0  0  0  0  0  0  0  0  0  0
   37.5720   22.9130   39.7920 C   0  0  0  0  0  0  0  0  0  0  0  0
   38.8150   23.4840   39.5440 C   0  0  0  0  0  0  0  0  0  0  0  0
   36.2360   25.3440   41.8090 H   0  0  0  0  0  0  0  0  0  0  0  0
   35.6860   23.1120   40.7820 H   0  0  0  0  0  0  0  0  0  0  0  0
   37.3560   21.9530   39.3410 H   0  0  0  0  0  0  0  0  0  0  0  0
   39.5530   23.0110   38.9290 H   0  0  0  0  0  0  0  0  0  0  0  0
   39.3410   30.8710   39.9240 C   0  0  0  0  0  0  0  0  0  0  0  0
   40.4560   30.4010   39.4970 O   0  0  0  0  0  0  0  0  0  0  0  0
   39.2240   32.2750   39.6890 N   0  0  0  0  0  0  0  0  0  0  0  0
   38.4010   32.8230   39.9240 H   0  0  0  0  0  0  0  0  0  0  0  0
   40.4450   32.7600   39.0760 C   0  0  0  0  0  0  0  0  0  0  0  0
   40.7310   32.7630   37.7470 C   0  0  0  0  0  0  0  0  0  0  0  0
   41.9470   33.2700   37.3720 C   0  0  0  0  0  0  0  0  0  0  0  0
   42.7780   33.7320   38.3540 N   0  0  0  0  0  0  0  0  0  0  0  0
   42.4640   33.7110   39.6520 C   0  0  0  0  0  0  0  0  0  0  0  0
   41.2680   33.2160   40.0400 N   0  0  0  0  0  0  0  0  0  0  0  0
   42.1960   33.2830   36.3190 H   0  0  0  0  0  0  0  0  0  0  0  0
   43.4410   34.2350   40.6090 C   0  0  0  0  0  0  0  0  0  0  0  0
   44.8010   34.1890   40.3770 C   0  0  0  0  0  0  0  0  0  0  0  0
   45.1730   33.7590   39.4720 H   0  0  0  0  0  0  0  0  0  0  0  0
   45.6230   34.7180   41.3610 C   0  0  0  0  0  0  0  0  0  0  0  0
   46.6790   34.6620   41.1380 H   0  0  0  0  0  0  0  0  0  0  0  0
   45.1660   35.2820   42.5440 C   0  0  0  0  0  3  0  0  0  0  0  0
   43.7940   35.2860   42.6930 C   0  0  0  0  0  3  0  0  0  0  0  0
   42.9560   34.7730   41.7430 N   0  0  0  0  0  0  0  0  0  0  0  0
   39.7550   32.2490   36.8750 N   0  0  0  0  0  0  0  0  0  0  0  0
   39.5500   32.7090   35.9410 H   0  0  0  0  0  0  0  0  0  0  0  0
   39.1890   31.4050   37.0880 H   0  0  0  0  0  0  0  0  0  0  0  0
  1  4  1  0  0  0  0
  2  3  1  0  0  0  0
  3  4  2  0  0  0  0
  3  9  1  0  0  0  0
  4  5  1  0  0  0  0
  5 10  1  0  0  0  0
  5  6  2  0  0  0  0
  6 11  1  0  0  0  0
  7  6  1  0  0  0  0
  7  8  1  0  0  0  0
  9  7  2  0  0  0  0
 12 13  1  0  0  0  0
 13 14  1  0  0  0  0
 14 15  2  0  0  0  0
 14  9  1  0  0  0  0
 15 19  1  0  0  0  0
 16 20  1  0  0  0  0
 16 15  1  0  0  0  0
 17 16  2  0  0  0  0
 18 17  1  0  0  0  0
 18 13  2  0  0  0  0
 21 17  1  0  0  0  0
 22 18  1  0  0  0  0
 23  1  1  0  0  0  0
 24 23  2  0  0  0  0
 25 26  1  0  0  0  0
 25 23  1  0  0  0  0
 27 25  1  0  0  0  0
 27 32  1  0  0  0  0
 28 27  2  0  0  0  0
 29 28  1  0  0  0  0
 29 30  2  0  0  0  0
 30 31  1  0  0  0  0
 31 32  2  0  0  0  0
 31 34  1  0  0  0  0
 33 29  1  0  0  0  0
 34 41  1  0  0  0  0
 35 34  2  0  0  0  0
 35 37  1  0  0  0  0
 36 35  1  0  0  0  0
 37 39  2  0  0  0  0
 38 37  1  0  0  0  0
 39 40  1  0  0  0  0
 41 40  2  0  0  0  0
 42 44  1  0  0  0  0
 42 28  1  0  0  0  0
 43 42  1  0  0  0  0
M  END
>  <minimizedAffinity>
-6.84818602

$$$$

 OpenBabel03252501433D

 44 47  0  0  0  0  0  0  0  0999 V2000
   39.7290   31.1580   42.7650 O   0  0  0  0  0  0  0  0  0  0  0  0
   37.5770   31.5350   40.7510 Cl  0  0  0  0  0  0  0  0  0  0  0  0
   38.0950   30.0200   41.4610 C   0  0  0  0  0  0  0  0  0  0  0  0
   39.1230   29.9410   42.4080 C   0  0  0  0  0  0  0  0  0  0  0  0
   39.4900   28.7350   42.9340 C   0  0  0  0  0  0  0  0  0  0  0  0
   38.8920   27.5430   42.5790 C   0  0  0  0  0  0  0  0  0  0  0  0
   37.8510   27.5940   41.6250 C   0  0  0  0  0  0  0  0  0  0  0  0
   37.0300   26.1310   41.1120 Cl  0  0  0  0  0  0  0  0  0  0  0  0
   37.5130   28.8260   41.1230 C   0  0  0  0  0  0  0  0  0  0  0  0
   40.2940   28.7140   43.6670 H   0  0  0  0  0  0  0  0  0  0  0  0
   39.1830   26.5960   42.9940 H   0  0  0  0  0  0  0  0  0  0  0  0
   38.0860   28.6070   38.4640 F   0  0  0  0  0  0  0  0  0  0  0  0
   36.7610   28.7770   38.7890 C   0  0  0  0  0  0  0  0  0  0  0  0
   36.4340   28.8920   40.1310 C   0  0  0  0  0  0  0  0  0  0  0  0
   35.0760   29.0640   40.4200 C   0  0  0  0  0  0  0  0  0  0  0  0
   34.1590   29.1090   39.3850 C   0  0  0  0  0  0  0  0  0  0  0  0
   34.5570   28.9870   38.0480 C   0  0  0  0  0  0  0  0  0  0  0  0
   35.8970   28.8140   37.7230 C   0  0  0  0  0  0  0  0  0  0  0  0
   34.8260   29.1530   41.4630 H   0  0  0  0  0  0  0  0  0  0  0  0
   33.1200   29.2410   39.6130 H   0  0  0  0  0  0  0  0  0  0  0  0
   33.8400   29.0220   37.2370 H   0  0  0  0  0  0  0  0  0  0  0  0
   36.2370   28.7170   36.7130 H   0  0  0  0  0  0  0  0  0  0  0  0
   40.8730   31.5410   42.0630 C   0  0  0  0  0  0  0  0  0  0  0  0
   41.9980   30.9260   42.0100 O   0  0  0  0  0  0  0  0  0  0  0  0
   40.8790   32.7420   41.2910 N   0  0  0  0  0  0  0  0  0  0  0  0
   40.0720   33.3500   41.1790 H   0  0  0  0  0  0  0  0  0  0  0  0
   42.1950   32.9320   40.7140 C   0  0  0  0  0  0  0  0  0  0  0  0
   43.1940   33.7000   41.2250 C   0  0  0  0  0  0  0  0  0  0  0  0
   44.3690   33.7460   40.5220 C   0  0  0  0  0  0  0  0  0  0  0  0
   44.4500   33.0210   39.3660 N   0  0  0  0  0  0  0  0  0  0  0  0
   43.4470   32.2780   38.8920 C   0  0  0  0  0  0  0  0  0  0  0  0
   42.2810   32.2210   39.5730 N   0  0  0  0  0  0  0  0  0  0  0  0
   45.1780   34.3500   40.9110 H   0  0  0  0  0  0  0  0  0  0  0  0
   43.6590   31.5470   37.6400 C   0  0  0  0  0  0  0  0  0  0  0  0
   42.6650   30.7960   37.0460 C   0  0  0  0  0  0  0  0  0  0  0  0
   41.7000   30.7320   37.5010 H   0  0  0  0  0  0  0  0  0  0  0  0
   42.9910   30.1500   35.8620 C   0  0  0  0  0  0  0  0  0  0  0  0
   42.1840   29.5740   35.4320 H   0  0  0  0  0  0  0  0  0  0  0  0
   44.2360   30.2150   35.2510 C   0  0  0  0  0  3  0  0  0  0  0  0
   45.1670   30.9890   35.9140 C   0  0  0  0  0  3  0  0  0  0  0  0
   44.8790   31.6370   37.0810 N   0  0  0  0  0  0  0  0  0  0  0  0
   42.9360   34.3780   42.4300 N   0  0  0  0  0  0  0  0  0  0  0  0
   43.6710   34.4570   43.1900 H   0  0  0  0  0  0  0  0  0  0  0  0
   42.0270   34.8340   42.6430 H   0  0  0  0  0  0  0  0  0  0  0  0
  2  3  1  0  0  0  0
  3  4  1  0  0  0  0
  4  1  1  0  0  0  0
  4  5  2  0  0  0  0
  5 10  1  0  0  0  0
  6  5  1  0  0  0  0
  6 11  1  0  0  0  0
  7  6  2  0  0  0  0
  8  7  1  0  0  0  0
  9  3  2  0  0  0  0
  9  7  1  0  0  0  0
 12 13  1  0  0  0  0
 13 14  1  0  0  0  0
 14 15  2  0  0  0  0
 14  9  1  0  0  0  0
 15 19  1  0  0  0  0
 16 20  1  0  0  0  0
 16 15  1  0  0  0  0
 17 16  2  0  0  0  0
 18 17  1  0  0  0  0
 18 13  2  0  0  0  0
 21 17  1  0  0  0  0
 22 18  1  0  0  0  0
 23  1  1  0  0  0  0
 24 23  2  0  0  0  0
 25 23  1  0  0  0  0
 26 25  1  0  0  0  0
 27 28  1  0  0  0  0
 27 25  1  0  0  0  0
 28 42  1  0  0  0  0
 29 33  1  0  0  0  0
 29 28  2  0  0  0  0
 30 29  1  0  0  0  0
 31 30  2  0  0  0  0
 31 32  1  0  0  0  0
 32 27  2  0  0  0  0
 34 31  1  0  0  0  0
 35 36  1  0  0  0  0
 35 34  2  0  0  0  0
 37 35  1  0  0  0  0
 38 37  1  0  0  0  0
 39 37  2  0  0  0  0
 39 40  1  0  0  0  0
 40 41  2  0  0  0  0
 41 34  1  0  0  0  0
 42 44  1  0  0  0  0
 42 43  1  0  0  0  0
M  END
>  <minimizedAffinity>
-6.75516701

$$$$

 OpenBabel03252501433D

 44 47  0  0  0  0  0  0  0  0999 V2000
   37.0330   29.2560   41.0970 O   0  0  0  0  0  0  0  0  0  0  0  0
   37.0710   26.9160   39.2650 Cl  0  0  0  0  0  0  0  0  0  0  0  0
   37.7390   26.9930   40.8830 C   0  0  0  0  0  0  0  0  0  0  0  0
   37.6730   28.1460   41.6740 C   0  0  0  0  0  0  0  0  0  0  0  0
   38.2080   28.1560   42.9310 C   0  0  0  0  0  0  0  0  0  0  0  0
   38.8350   27.0630   43.4920 C   0  0  0  0  0  0  0  0  0  0  0  0
   38.9170   25.8860   42.7150 C   0  0  0  0  0  0  0  0  0  0  0  0
   39.6950   24.4450   43.3450 Cl  0  0  0  0  0  0  0  0  0  0  0  0
   38.3650   25.9190   41.4580 C   0  0  0  0  0  0  0  0  0  0  0  0
   38.1370   29.0710   43.5150 H   0  0  0  0  0  0  0  0  0  0  0  0
   39.2560   27.0740   44.4810 H   0  0  0  0  0  0  0  0  0  0  0  0
   36.3960   24.0360   41.6170 F   0  0  0  0  0  0  0  0  0  0  0  0
   37.4250   23.7680   40.7470 C   0  0  0  0  0  0  0  0  0  0  0  0
   38.4440   24.7030   40.6410 C   0  0  0  0  0  0  0  0  0  0  0  0
   39.4710   24.3930   39.7450 C   0  0  0  0  0  0  0  0  0  0  0  0
   39.4220   23.2070   39.0340 C   0  0  0  0  0  0  0  0  0  0  0  0
   38.3630   22.3030   39.1880 C   0  0  0  0  0  0  0  0  0  0  0  0
   37.3240   22.5790   40.0690 C   0  0  0  0  0  0  0  0  0  0  0  0
   40.2600   25.1210   39.6660 H   0  0  0  0  0  0  0  0  0  0  0  0
   40.2140   22.9750   38.3490 H   0  0  0  0  0  0  0  0  0  0  0  0
   38.3240   21.3750   38.6330 H   0  0  0  0  0  0  0  0  0  0  0  0
   36.4990   21.9120   40.2130 H   0  0  0  0  0  0  0  0  0  0  0  0
   37.8050   30.3950   40.8570 C   0  0  0  0  0  0  0  0  0  0  0  0
   38.4100   31.1230   41.7230 O   0  0  0  0  0  0  0  0  0  0  0  0
   37.9940   30.8730   39.5250 N   0  0  0  0  0  0  0  0  0  0  0  0
   37.6230   30.4130   38.6980 H   0  0  0  0  0  0  0  0  0  0  0  0
   38.7820   32.0890   39.5610 C   0  0  0  0  0  0  0  0  0  0  0  0
   38.3210   33.3380   39.8380 C   0  0  0  0  0  0  0  0  0  0  0  0
   39.2350   34.3580   39.8210 C   0  0  0  0  0  0  0  0  0  0  0  0
   40.5340   34.0490   39.5300 N   0  0  0  0  0  0  0  0  0  0  0  0
   40.9510   32.8090   39.2610 C   0  0  0  0  0  0  0  0  0  0  0  0
   40.0640   31.7900   39.2740 N   0  0  0  0  0  0  0  0  0  0  0  0
   38.8900   35.3610   40.0390 H   0  0  0  0  0  0  0  0  0  0  0  0
   42.3710   32.6060   38.9640 C   0  0  0  0  0  0  0  0  0  0  0  0
   43.0820   31.5300   39.4530 C   0  0  0  0  0  0  0  0  0  0  0  0
   42.5970   30.8070   40.0740 H   0  0  0  0  0  0  0  0  0  0  0  0
   44.4220   31.4510   39.1000 C   0  0  0  0  0  0  0  0  0  0  0  0
   44.9400   30.5930   39.5040 H   0  0  0  0  0  0  0  0  0  0  0  0
   45.0760   32.3750   38.2970 C   0  0  0  0  0  3  0  0  0  0  0  0
   44.2880   33.4180   37.8520 C   0  0  0  0  0  3  0  0  0  0  0  0
   42.9670   33.5260   38.1820 N   0  0  0  0  0  0  0  0  0  0  0  0
   36.9490   33.4730   40.1170 N   0  0  0  0  0  0  0  0  0  0  0  0
   36.6010   34.1240   40.8790 H   0  0  0  0  0  0  0  0  0  0  0  0
   36.2100   32.9550   39.6040 H   0  0  0  0  0  0  0  0  0  0  0  0
  1  4  1  0  0  0  0
  2  3  1  0  0  0  0
  3  9  2  0  0  0  0
  3  4  1  0  0  0  0
  4  5  2  0  0  0  0
  5  6  1  0  0  0  0
  5 10  1  0  0  0  0
  6 11  1  0  0  0  0
  7  8  1  0  0  0  0
  7  6  2  0  0  0  0
  9  7  1  0  0  0  0
 13 12  1  0  0  0  0
 14 13  1  0  0  0  0
 14  9  1  0  0  0  0
 15 14  2  0  0  0  0
 16 17  2  0  0  0  0
 16 15  1  0  0  0  0
 17 18  1  0  0  0  0
 18 22  1  0  0  0  0
 18 13  2  0  0  0  0
 19 15  1  0  0  0  0
 20 16  1  0  0  0  0
 21 17  1  0  0  0  0
 23  1  1  0  0  0  0
 23 24  2  0  0  0  0
 25 27  1  0  0  0  0
 25 23  1  0  0  0  0
 26 25  1  0  0  0  0
 27 28  1  0  0  0  0
 28 42  1  0  0  0  0
 29 28  2  0  0  0  0
 29 33  1  0  0  0  0
 30 29  1  0  0  0  0
 31 32  1  0  0  0  0
 31 30  2  0  0  0  0
 32 27  2  0  0  0  0
 34 31  1  0  0  0  0
 34 35  1  0  0  0  0
 35 36  1  0  0  0  0
 37 35  2  0  0  0  0
 37 38  1  0  0  0  0
 39 37  1  0  0  0  0
 40 41  1  0  0  0  0
 40 39  2  0  0  0  0
 41 34  2  0  0  0  0
 42 43  1  0  0  0  0
 44 42  1  0  0  0  0
M  END
>  <minimizedAffinity>
-6.65991545

$$$$

 OpenBabel03252501433D

 44 47  0  0  0  0  0  0  0  0999 V2000
   37.5620   30.1950   38.4220 O   0  0  0  0  0  0  0  0  0  0  0  0
   40.4490   30.5380   37.8050 Cl  0  0  0  0  0  0  0  0  0  0  0  0
   39.4200   31.6630   38.6680 C   0  0  0  0  0  0  0  0  0  0  0  0
   38.0650   31.4130   38.9130 C   0  0  0  0  0  0  0  0  0  0  0  0
   37.3030   32.3210   39.5920 C   0  0  0  0  0  0  0  0  0  0  0  0
   37.8020   33.5150   40.0710 C   0  0  0  0  0  0  0  0  0  0  0  0
   39.1680   33.7930   39.8380 C   0  0  0  0  0  0  0  0  0  0  0  0
   39.8910   35.2860   40.4100 Cl  0  0  0  0  0  0  0  0  0  0  0  0
   39.8960   32.8530   39.1530 C   0  0  0  0  0  0  0  0  0  0  0  0
   36.2540   32.0910   39.7620 H   0  0  0  0  0  0  0  0  0  0  0  0
   37.2000   34.2280   40.6050 H   0  0  0  0  0  0  0  0  0  0  0  0
   41.7730   32.1230   40.9940 F   0  0  0  0  0  0  0  0  0  0  0  0
   42.2420   32.7450   39.8610 C   0  0  0  0  0  0  0  0  0  0  0  0
   41.3150   33.1300   38.9040 C   0  0  0  0  0  0  0  0  0  0  0  0
   41.8320   33.7590   37.7670 C   0  0  0  0  0  0  0  0  0  0  0  0
   43.1960   33.9600   37.6590 C   0  0  0  0  0  0  0  0  0  0  0  0
   44.0800   33.5460   38.6650 C   0  0  0  0  0  0  0  0  0  0  0  0
   43.6020   32.9170   39.8080 C   0  0  0  0  0  0  0  0  0  0  0  0
   41.1090   34.0570   37.0270 H   0  0  0  0  0  0  0  0  0  0  0  0
   43.5860   34.4430   36.7850 H   0  0  0  0  0  0  0  0  0  0  0  0
   45.1480   33.7030   38.5810 H   0  0  0  0  0  0  0  0  0  0  0  0
   44.2470   32.5880   40.5960 H   0  0  0  0  0  0  0  0  0  0  0  0
   37.2770   29.1920   39.3510 C   0  0  0  0  0  0  0  0  0  0  0  0
   36.2130   28.4800   39.4270 O   0  0  0  0  0  0  0  0  0  0  0  0
   38.2240   28.8560   40.3660 N   0  0  0  0  0  0  0  0  0  0  0  0
   39.1410   29.2850   40.4510 H   0  0  0  0  0  0  0  0  0  0  0  0
   37.6620   27.8310   41.2230 C   0  0  0  0  0  0  0  0  0  0  0  0
   37.1300   28.0200   42.4600 C   0  0  0  0  0  0  0  0  0  0  0  0
   36.6490   26.9130   43.1080 C   0  0  0  0  0  0  0  0  0  0  0  0
   36.7370   25.7090   42.4680 N   0  0  0  0  0  0  0  0  0  0  0  0
   37.2680   25.5600   41.2510 C   0  0  0  0  0  0  0  0  0  0  0  0
   37.7460   26.6420   40.5970 N   0  0  0  0  0  0  0  0  0  0  0  0
   36.2210   27.0400   44.0940 H   0  0  0  0  0  0  0  0  0  0  0  0
   37.3050   24.2150   40.6720 C   0  0  0  0  0  0  0  0  0  0  0  0
   38.4100   23.3950   40.7780 C   0  0  0  0  0  0  0  0  0  0  0  0
   39.2800   23.7360   41.2980 H   0  0  0  0  0  0  0  0  0  0  0  0
   38.3210   22.1440   40.1850 C   0  0  0  0  0  0  0  0  0  0  0  0
   39.2070   21.5350   40.2930 H   0  0  0  0  0  0  0  0  0  0  0  0
   37.2040   21.6770   39.5050 C   0  0  0  0  0  3  0  0  0  0  0  0
   36.1470   22.5620   39.4490 C   0  0  0  0  0  3  0  0  0  0  0  0
   36.2020   23.8020   40.0210 N   0  0  0  0  0  0  0  0  0  0  0  0
   37.1200   29.3320   42.9660 N   0  0  0  0  0  0  0  0  0  0  0  0
   36.2910   29.7090   43.5090 H   0  0  0  0  0  0  0  0  0  0  0  0
   37.9080   29.9960   42.8410 H   0  0  0  0  0  0  0  0  0  0  0  0
  1  4  1  0  0  0  0
  1 23  1  0  0  0  0
  2  3  1  0  0  0  0
  3  4  2  0  0  0  0
  3  9  1  0  0  0  0
  4  5  1  0  0  0  0
  5 10  1  0  0  0  0
  5  6  2  0  0  0  0
  6 11  1  0  0  0  0
  7  6  1  0  0  0  0
  7  8  1  0  0  0  0
  9  7  2  0  0  0  0
 13 12  1  0  0  0  0
 14  9  1  0  0  0  0
 14 13  2  0  0  0  0
 15 14  1  0  0  0  0
 16 15  2  0  0  0  0
 16 17  1  0  0  0  0
 17 18  2  0  0  0  0
 18 13  1  0  0  0  0
 18 22  1  0  0  0  0
 19 15  1  0  0  0  0
 20 16  1  0  0  0  0
 21 17  1  0  0  0  0
 23 24  2  0  0  0  0
 23 25  1  0  0  0  0
 25 26  1  0  0  0  0
 25 27  1  0  0  0  0
 27 28  1  0  0  0  0
 28 42  1  0  0  0  0
 28 29  2  0  0  0  0
 29 33  1  0  0  0  0
 30 29  1  0  0  0  0
 31 30  2  0  0  0  0
 32 27  2  0  0  0  0
 32 31  1  0  0  0  0
 34 35  1  0  0  0  0
 34 31  1  0  0  0  0
 35 36  1  0  0  0  0
 37 38  1  0  0  0  0
 37 35  2  0  0  0  0
 39 37  1  0  0  0  0
 40 39  2  0  0  0  0
 40 41  1  0  0  0  0
 41 34  2  0  0  0  0
 42 43  1  0  0  0  0
 44 42  1  0  0  0  0
M  END
>  <minimizedAffinity>
-6.57123804

$$$$

 OpenBabel03252501433D

 44 47  0  0  0  0  0  0  0  0999 V2000
   36.5100   31.1990   41.0070 O   0  0  0  0  0  0  0  0  0  0  0  0
   36.1580   29.8980   38.3590 Cl  0  0  0  0  0  0  0  0  0  0  0  0
   36.6030   29.1150   39.8620 C   0  0  0  0  0  0  0  0  0  0  0  0
   36.7450   29.8140   41.0650 C   0  0  0  0  0  0  0  0  0  0  0  0
   37.0930   29.1590   42.2120 C   0  0  0  0  0  0  0  0  0  0  0  0
   37.3230   27.7990   42.2630 C   0  0  0  0  0  0  0  0  0  0  0  0
   37.1860   27.0680   41.0620 C   0  0  0  0  0  0  0  0  0  0  0  0
   37.4580   25.3350   41.0290 Cl  0  0  0  0  0  0  0  0  0  0  0  0
   36.8340   27.7660   39.9330 C   0  0  0  0  0  0  0  0  0  0  0  0
   37.1940   29.7370   43.1270 H   0  0  0  0  0  0  0  0  0  0  0  0
   37.5970   27.2860   43.1670 H   0  0  0  0  0  0  0  0  0  0  0  0
   38.9800   27.4470   38.2780 F   0  0  0  0  0  0  0  0  0  0  0  0
   37.8000   26.8760   37.8630 C   0  0  0  0  0  0  0  0  0  0  0  0
   36.6900   27.0190   38.6790 C   0  0  0  0  0  0  0  0  0  0  0  0
   35.5100   26.4230   38.2220 C   0  0  0  0  0  0  0  0  0  0  0  0
   35.5110   25.7450   37.0160 C   0  0  0  0  0  0  0  0  0  0  0  0
   36.6700   25.6380   36.2370 C   0  0  0  0  0  0  0  0  0  0  0  0
   37.8610   26.2160   36.6610 C   0  0  0  0  0  0  0  0  0  0  0  0
   34.6500   26.5360   38.8580 H   0  0  0  0  0  0  0  0  0  0  0  0
   34.6040   25.2910   36.6700 H   0  0  0  0  0  0  0  0  0  0  0  0
   36.6730   25.1070   35.2930 H   0  0  0  0  0  0  0  0  0  0  0  0
   38.7660   26.1550   36.0910 H   0  0  0  0  0  0  0  0  0  0  0  0
   37.5340   32.0090   40.5100 C   0  0  0  0  0  0  0  0  0  0  0  0
   37.4890   32.7820   39.4870 O   0  0  0  0  0  0  0  0  0  0  0  0
   38.8080   32.0400   41.1530 N   0  0  0  0  0  0  0  0  0  0  0  0
   39.0300   31.5230   42.0000 H   0  0  0  0  0  0  0  0  0  0  0  0
   39.6970   32.9100   40.4100 C   0  0  0  0  0  0  0  0  0  0  0  0
   39.7480   34.2670   40.4920 C   0  0  0  0  0  0  0  0  0  0  0  0
   40.6660   34.9060   39.7000 C   0  0  0  0  0  0  0  0  0  0  0  0
   41.4570   34.1390   38.8920 N   0  0  0  0  0  0  0  0  0  0  0  0
   41.3790   32.8060   38.8360 C   0  0  0  0  0  0  0  0  0  0  0  0
   40.4800   32.1590   39.6110 N   0  0  0  0  0  0  0  0  0  0  0  0
   40.7240   35.9850   39.7490 H   0  0  0  0  0  0  0  0  0  0  0  0
   42.2830   32.0970   37.9280 C   0  0  0  0  0  0  0  0  0  0  0  0
   43.6270   32.4020   37.8370 C   0  0  0  0  0  0  0  0  0  0  0  0
   44.0400   33.1790   38.4420 H   0  0  0  0  0  0  0  0  0  0  0  0
   44.3780   31.6580   36.9380 C   0  0  0  0  0  0  0  0  0  0  0  0
   45.4230   31.9290   36.8990 H   0  0  0  0  0  0  0  0  0  0  0  0
   43.8660   30.6430   36.1410 C   0  0  0  0  0  3  0  0  0  0  0  0
   42.5150   30.4070   36.2980 C   0  0  0  0  0  3  0  0  0  0  0  0
   41.7470   31.1220   37.1730 N   0  0  0  0  0  0  0  0  0  0  0  0
   38.8570   34.8940   41.3800 N   0  0  0  0  0  0  0  0  0  0  0  0
   39.1580   35.7200   41.9740 H   0  0  0  0  0  0  0  0  0  0  0  0
   37.8720   34.5930   41.5050 H   0  0  0  0  0  0  0  0  0  0  0  0
  1  4  1  0  0  0  0
  2  3  1  0  0  0  0
  3  9  2  0  0  0  0
  3  4  1  0  0  0  0
  4  5  2  0  0  0  0
  5  6  1  0  0  0  0
  5 10  1  0  0  0  0
  6 11  1  0  0  0  0
  7  6  2  0  0  0  0
  8  7  1  0  0  0  0
  9  7  1  0  0  0  0
 13 12  1  0  0  0  0
 13 14  1  0  0  0  0
 14  9  1  0  0  0  0
 15 14  2  0  0  0  0
 15 19  1  0  0  0  0
 16 15  1  0  0  0  0
 17 18  1  0  0  0  0
 17 16  2  0  0  0  0
 18 13  2  0  0  0  0
 20 16  1  0  0  0  0
 21 17  1  0  0  0  0
 22 18  1  0  0  0  0
 23  1  1  0  0  0  0
 23 25  1  0  0  0  0
 24 23  2  0  0  0  0
 25 26  1  0  0  0  0
 27 28  1  0  0  0  0
 27 25  1  0  0  0  0
 28 42  1  0  0  0  0
 29 33  1  0  0  0  0
 29 28  2  0  0  0  0
 30 29  1  0  0  0  0
 31 30  2  0  0  0  0
 31 32  1  0  0  0  0
 32 27  2  0  0  0  0
 34 31  1  0  0  0  0
 35 34  1  0  0  0  0
 35 36  1  0  0  0  0
 37 35  2  0  0  0  0
 38 37  1  0  0  0  0
 39 40  2  0  0  0  0
 39 37  1  0  0  0  0
 40 41  1  0  0  0  0
 41 34  2  0  0  0  0
 42 44  1  0  0  0  0
 42 43  1  0  0  0  0
M  END
>  <minimizedAffinity>
-6.51742649

$$$$
