
 OpenBabel03242522043D

 34 36  0  0  1  0  0  0  0  0999 V2000
   37.9410   30.9530   40.7790 N   0  0  0  0  0  0  0  0  0  0  0  0
   38.9660   31.9520   40.9790 C   0  0  0  0  0  0  0  0  0  0  0  0
   38.5130   33.3140   40.5240 C   0  0  0  0  0  0  0  0  0  0  0  0
   37.9600   33.3560   39.2310 N   0  0  0  0  0  0  0  0  0  0  0  0
   37.1900   32.2350   38.8220 C   0  0  2  0  0  0  0  0  0  0  0  0
   36.8960   31.2010   39.8280 C   0  0  0  0  0  0  0  0  0  0  0  0
   39.8970   31.6250   40.4420 H   0  0  0  0  0  0  0  0  0  0  0  0
   39.2520   32.0530   42.0480 H   0  0  0  0  0  0  0  0  0  0  0  0
   37.8090   33.7070   41.2930 H   0  0  0  0  0  0  0  0  0  0  0  0
   39.3990   33.9860   40.5640 H   0  0  0  0  0  0  0  0  0  0  0  0
   37.4500   34.2740   39.1250 H   0  0  0  0  0  0  0  0  0  0  0  0
   36.2230   32.6150   38.4230 H   0  0  0  0  0  0  0  0  0  0  0  0
   36.6570   30.2470   39.3110 H   0  0  0  0  0  0  0  0  0  0  0  0
   35.9510   31.4920   40.3650 H   0  0  0  0  0  0  0  0  0  0  0  0
   38.3770   28.3490   43.4380 C   0  0  0  0  0  0  0  0  0  0  0  0
   38.4130   29.6170   42.8330 C   0  0  0  0  0  0  0  0  0  0  0  0
   37.9620   29.7390   41.5130 C   0  0  0  0  0  0  0  0  0  0  0  0
   37.5190   28.5960   40.9210 N   0  0  0  0  0  0  0  0  0  0  0  0
   37.4970   27.3960   41.5300 C   0  0  0  0  0  0  0  0  0  0  0  0
   37.9320   27.2790   42.8010 N   0  0  0  0  0  0  0  0  0  0  0  0
   38.7450   28.3860   44.4410 H   0  0  0  0  0  0  0  0  0  0  0  0
   38.7670   30.5140   43.3150 H   0  0  0  0  0  0  0  0  0  0  0  0
   37.0040   26.2240   40.8150 C   0  0  0  0  0  0  0  0  0  0  0  0
   36.9690   24.9990   41.4510 C   0  0  0  0  0  0  0  0  0  0  0  0
   37.3000   24.8810   42.4740 H   0  0  0  0  0  0  0  0  0  0  0  0
   36.4940   23.9020   40.7430 C   0  0  0  0  0  0  0  0  0  0  0  0
   36.4350   22.9100   41.1700 H   0  0  0  0  0  0  0  0  0  0  0  0
   36.0930   24.1420   39.4450 C   0  0  0  0  0  3  0  0  0  0  0  0
   36.1190   25.3550   38.7910 C   0  0  0  0  0  3  0  0  0  0  0  0
   36.5940   26.3990   39.5280 N   0  0  0  0  0  0  0  0  0  0  0  0
   37.8870   31.5630   37.6570 C   0  0  0  0  0  0  0  0  0  0  0  0
   37.4810   32.1270   36.4530 F   0  0  0  0  0  0  0  0  0  0  0  0
   37.4300   30.2540   37.6400 F   0  0  0  0  0  0  0  0  0  0  0  0
   39.2490   31.6360   37.7200 F   0  0  0  0  0  0  0  0  0  0  0  0
  1  2  1  0  0  0  0
  1 17  1  0  0  0  0
  2  8  1  0  0  0  0
  3 10  1  0  0  0  0
  3  2  1  0  0  0  0
  3  9  1  0  0  0  0
  4  3  1  0  0  0  0
  5 12  1  6  0  0  0
  5  4  1  0  0  0  0
  5  6  1  0  0  0  0
  6 14  1  0  0  0  0
  6  1  1  0  0  0  0
  7  2  1  0  0  0  0
 11  4  1  0  0  0  0
 13  6  1  0  0  0  0
 15 21  1  0  0  0  0
 16 22  1  0  0  0  0
 16 15  1  0  0  0  0
 17 16  2  0  0  0  0
 18 17  1  0  0  0  0
 18 19  2  0  0  0  0
 19 20  1  0  0  0  0
 20 15  2  0  0  0  0
 23 24  1  0  0  0  0
 23 19  1  0  0  0  0
 24 25  1  0  0  0  0
 26 27  1  0  0  0  0
 26 24  2  0  0  0  0
 28 26  1  0  0  0  0
 29 28  2  0  0  0  0
 29 30  1  0  0  0  0
 30 23  2  0  0  0  0
 31 34  1  0  0  0  0
 31  5  1  0  0  0  0
 32 31  1  0  0  0  0
 33 31  1  0  0  0  0
M  END
>  <minimizedAffinity>
-5.68473625

$$$$

 OpenBabel03242522043D

 34 36  0  0  1  0  0  0  0  0999 V2000
   38.8300   30.7370   39.1830 N   0  0  0  0  0  0  0  0  0  0  0  0
   37.7520   31.4880   38.5800 C   0  0  0  0  0  0  0  0  0  0  0  0
   38.0070   31.7530   37.1200 C   0  0  0  0  0  0  0  0  0  0  0  0
   39.2730   32.2900   36.8250 N   0  0  0  0  0  0  0  0  0  0  0  0
   40.3650   31.8380   37.6120 C   0  0  2  0  0  0  0  0  0  0  0  0
   40.1200   30.7350   38.5550 C   0  0  0  0  0  0  0  0  0  0  0  0
   37.6120   32.4420   39.1560 H   0  0  0  0  0  0  0  0  0  0  0  0
   36.7810   30.9520   38.6410 H   0  0  0  0  0  0  0  0  0  0  0  0
   37.8160   30.8040   36.5690 H   0  0  0  0  0  0  0  0  0  0  0  0
   37.2200   32.4600   36.7720 H   0  0  0  0  0  0  0  0  0  0  0  0
   39.4360   32.1880   35.7870 H   0  0  0  0  0  0  0  0  0  0  0  0
   41.1780   31.5260   36.9180 H   0  0  0  0  0  0  0  0  0  0  0  0
   40.8970   30.7540   39.3500 H   0  0  0  0  0  0  0  0  0  0  0  0
   40.2780   29.7640   38.0100 H   0  0  0  0  0  0  0  0  0  0  0  0
   38.6130   29.6680   42.7680 C   0  0  0  0  0  0  0  0  0  0  0  0
   38.8670   30.5040   41.6670 C   0  0  0  0  0  0  0  0  0  0  0  0
   38.6200   30.0070   40.3820 C   0  0  0  0  0  0  0  0  0  0  0  0
   38.1450   28.7330   40.3100 N   0  0  0  0  0  0  0  0  0  0  0  0
   37.9120   27.9590   41.3860 C   0  0  0  0  0  0  0  0  0  0  0  0
   38.1510   28.4380   42.6240 N   0  0  0  0  0  0  0  0  0  0  0  0
   38.8400   30.1590   43.6900 H   0  0  0  0  0  0  0  0  0  0  0  0
   39.2430   31.5110   41.7390 H   0  0  0  0  0  0  0  0  0  0  0  0
   37.4030   26.6030   41.2120 C   0  0  0  0  0  0  0  0  0  0  0  0
   37.3780   25.7370   42.2880 C   0  0  0  0  0  0  0  0  0  0  0  0
   37.7290   26.0380   43.2660 H   0  0  0  0  0  0  0  0  0  0  0  0
   36.8870   24.4530   42.0890 C   0  0  0  0  0  0  0  0  0  0  0  0
   36.8340   23.7180   42.8810 H   0  0  0  0  0  0  0  0  0  0  0  0
   36.4600   24.1540   40.8120 C   0  0  0  0  0  3  0  0  0  0  0  0
   36.4760   25.0020   39.7250 C   0  0  0  0  0  3  0  0  0  0  0  0
   36.9670   26.2490   39.9710 N   0  0  0  0  0  0  0  0  0  0  0  0
   40.9160   33.0080   38.4010 C   0  0  0  0  0  0  0  0  0  0  0  0
   41.6000   33.8820   37.5650 F   0  0  0  0  0  0  0  0  0  0  0  0
   41.8650   32.4780   39.2610 F   0  0  0  0  0  0  0  0  0  0  0  0
   39.9560   33.7190   39.0640 F   0  0  0  0  0  0  0  0  0  0  0  0
  1 17  1  0  0  0  0
  2  8  1  0  0  0  0
  2  7  1  0  0  0  0
  2  1  1  0  0  0  0
  3  2  1  0  0  0  0
  4  3  1  0  0  0  0
  4  5  1  0  0  0  0
  5 12  1  6  0  0  0
  5 31  1  0  0  0  0
  5  6  1  0  0  0  0
  6  1  1  0  0  0  0
  6 13  1  0  0  0  0
  9  3  1  0  0  0  0
 10  3  1  0  0  0  0
 11  4  1  0  0  0  0
 14  6  1  0  0  0  0
 15 21  1  0  0  0  0
 16 22  1  0  0  0  0
 16 15  2  0  0  0  0
 17 16  1  0  0  0  0
 18 17  2  0  0  0  0
 18 19  1  0  0  0  0
 19 20  2  0  0  0  0
 20 15  1  0  0  0  0
 23 19  1  0  0  0  0
 23 24  1  0  0  0  0
 24 25  1  0  0  0  0
 26 24  2  0  0  0  0
 26 27  1  0  0  0  0
 28 26  1  0  0  0  0
 29 30  1  0  0  0  0
 29 28  2  0  0  0  0
 30 23  2  0  0  0  0
 31 34  1  0  0  0  0
 31 33  1  0  0  0  0
 32 31  1  0  0  0  0
M  END
>  <minimizedAffinity>
-5.68149471

$$$$

 OpenBabel03242522043D

 34 36  0  0  1  0  0  0  0  0999 V2000
   39.3620   30.6240   40.4250 N   0  0  0  0  0  0  0  0  0  0  0  0
   39.9160   30.5190   39.0950 C   0  0  0  0  0  0  0  0  0  0  0  0
   40.4680   31.8350   38.6150 C   0  0  0  0  0  0  0  0  0  0  0  0
   39.5960   32.9310   38.7530 N   0  0  0  0  0  0  0  0  0  0  0  0
   38.7570   32.9470   39.8990 C   0  0  2  0  0  0  0  0  0  0  0  0
   38.9760   31.9130   40.9230 C   0  0  0  0  0  0  0  0  0  0  0  0
   39.1220   30.1250   38.4040 H   0  0  0  0  0  0  0  0  0  0  0  0
   40.7510   29.7870   39.0440 H   0  0  0  0  0  0  0  0  0  0  0  0
   41.4370   32.0020   39.1370 H   0  0  0  0  0  0  0  0  0  0  0  0
   40.7290   31.7100   37.5400 H   0  0  0  0  0  0  0  0  0  0  0  0
   40.1640   33.8140   38.6390 H   0  0  0  0  0  0  0  0  0  0  0  0
   38.8630   33.9430   40.3840 H   0  0  0  0  0  0  0  0  0  0  0  0
   38.0490   31.7930   41.5260 H   0  0  0  0  0  0  0  0  0  0  0  0
   39.7500   32.2920   41.6460 H   0  0  0  0  0  0  0  0  0  0  0  0
   39.4930   28.1200   43.2100 C   0  0  0  0  0  0  0  0  0  0  0  0
   39.7340   29.3210   42.5210 C   0  0  0  0  0  0  0  0  0  0  0  0
   39.2000   29.4700   41.2350 C   0  0  0  0  0  0  0  0  0  0  0  0
   38.4800   28.4180   40.7570 N   0  0  0  0  0  0  0  0  0  0  0  0
   38.2680   27.2810   41.4440 C   0  0  0  0  0  0  0  0  0  0  0  0
   38.7830   27.1380   42.6830 N   0  0  0  0  0  0  0  0  0  0  0  0
   39.9510   28.1280   44.1760 H   0  0  0  0  0  0  0  0  0  0  0  0
   40.3060   30.1460   42.9120 H   0  0  0  0  0  0  0  0  0  0  0  0
   37.4820   26.2050   40.8500 C   0  0  0  0  0  0  0  0  0  0  0  0
   37.2310   25.0590   41.5770 C   0  0  0  0  0  0  0  0  0  0  0  0
   37.6030   24.9330   42.5860 H   0  0  0  0  0  0  0  0  0  0  0  0
   36.4800   24.0520   40.9830 C   0  0  0  0  0  0  0  0  0  0  0  0
   36.2400   23.1250   41.4880 H   0  0  0  0  0  0  0  0  0  0  0  0
   36.0450   24.2950   39.6970 C   0  0  0  0  0  3  0  0  0  0  0  0
   36.2840   25.4310   38.9530 C   0  0  0  0  0  3  0  0  0  0  0  0
   37.0260   26.3880   39.5800 N   0  0  0  0  0  0  0  0  0  0  0  0
   37.3130   32.8540   39.4480 C   0  0  0  0  0  0  0  0  0  0  0  0
   37.2390   32.3680   38.1480 F   0  0  0  0  0  0  0  0  0  0  0  0
   36.8430   34.1560   39.3980 F   0  0  0  0  0  0  0  0  0  0  0  0
   36.5440   32.0540   40.2440 F   0  0  0  0  0  0  0  0  0  0  0  0
  1  6  1  0  0  0  0
  1 17  1  0  0  0  0
  2  1  1  0  0  0  0
  3  4  1  0  0  0  0
  3  2  1  0  0  0  0
  3  9  1  0  0  0  0
  4  5  1  0  0  0  0
  5 12  1  1  0  0  0
  5  6  1  0  0  0  0
  6 13  1  0  0  0  0
  6 14  1  0  0  0  0
  7  2  1  0  0  0  0
  8  2  1  0  0  0  0
 10  3  1  0  0  0  0
 11  4  1  0  0  0  0
 15 21  1  0  0  0  0
 16 22  1  0  0  0  0
 16 15  2  0  0  0  0
 17 16  1  0  0  0  0
 18 17  2  0  0  0  0
 18 19  1  0  0  0  0
 19 20  2  0  0  0  0
 20 15  1  0  0  0  0
 23 19  1  0  0  0  0
 23 24  1  0  0  0  0
 24 25  1  0  0  0  0
 26 27  1  0  0  0  0
 26 24  2  0  0  0  0
 28 26  1  0  0  0  0
 29 30  1  0  0  0  0
 29 28  2  0  0  0  0
 30 23  2  0  0  0  0
 31  5  1  0  0  0  0
 31 34  1  0  0  0  0
 32 31  1  0  0  0  0
 33 31  1  0  0  0  0
M  END
>  <minimizedAffinity>
-5.59198093

$$$$

 OpenBabel03242522043D

 34 36  0  0  1  0  0  0  0  0999 V2000
   39.8250   26.7950   42.4010 N   0  0  0  0  0  0  0  0  0  0  0  0
   39.9720   26.0040   43.6030 C   0  0  0  0  0  0  0  0  0  0  0  0
   39.9490   24.5290   43.3050 C   0  0  0  0  0  0  0  0  0  0  0  0
   38.8760   24.1000   42.5020 N   0  0  0  0  0  0  0  0  0  0  0  0
   38.4410   24.9850   41.4800 C   0  0  2  0  0  0  0  0  0  0  0  0
   39.2420   26.1960   41.2360 C   0  0  0  0  0  0  0  0  0  0  0  0
   39.1630   26.2940   44.3250 H   0  0  0  0  0  0  0  0  0  0  0  0
   40.9310   26.2080   44.1250 H   0  0  0  0  0  0  0  0  0  0  0  0
   40.9360   24.2610   42.8620 H   0  0  0  0  0  0  0  0  0  0  0  0
   39.9100   23.9960   44.2810 H   0  0  0  0  0  0  0  0  0  0  0  0
   39.1010   23.1320   42.1480 H   0  0  0  0  0  0  0  0  0  0  0  0
   38.3880   24.4070   40.5300 H   0  0  0  0  0  0  0  0  0  0  0  0
   38.6090   26.9570   40.7290 H   0  0  0  0  0  0  0  0  0  0  0  0
   40.0470   25.9410   40.4930 H   0  0  0  0  0  0  0  0  0  0  0  0
   41.7320   29.9900   42.8410 C   0  0  0  0  0  0  0  0  0  0  0  0
   41.4350   28.6210   42.9500 C   0  0  0  0  0  0  0  0  0  0  0  0
   40.2510   28.1480   42.3700 C   0  0  0  0  0  0  0  0  0  0  0  0
   39.4780   29.0740   41.7390 N   0  0  0  0  0  0  0  0  0  0  0  0
   39.7930   30.3800   41.6530 C   0  0  0  0  0  0  0  0  0  0  0  0
   40.9340   30.8350   42.2120 N   0  0  0  0  0  0  0  0  0  0  0  0
   42.6570   30.2270   43.3220 H   0  0  0  0  0  0  0  0  0  0  0  0
   42.0570   27.8990   43.4530 H   0  0  0  0  0  0  0  0  0  0  0  0
   38.9020   31.3000   40.9550 C   0  0  0  0  0  0  0  0  0  0  0  0
   37.7780   30.8130   40.3180 C   0  0  0  0  0  0  0  0  0  0  0  0
   37.5360   29.7590   40.3210 H   0  0  0  0  0  0  0  0  0  0  0  0
   36.9490   31.7150   39.6620 C   0  0  0  0  0  0  0  0  0  0  0  0
   36.0510   31.4120   39.1400 H   0  0  0  0  0  0  0  0  0  0  0  0
   37.3330   33.0390   39.7080 C   0  0  0  0  0  3  0  0  0  0  0  0
   38.4490   33.5460   40.3380 C   0  0  0  0  0  3  0  0  0  0  0  0
   39.2300   32.6220   40.9660 N   0  0  0  0  0  0  0  0  0  0  0  0
   37.0220   25.4220   41.7830 C   0  0  0  0  0  0  0  0  0  0  0  0
   36.1940   24.3160   41.9370 F   0  0  0  0  0  0  0  0  0  0  0  0
   36.5740   26.0820   40.6500 F   0  0  0  0  0  0  0  0  0  0  0  0
   36.9160   26.1900   42.9070 F   0  0  0  0  0  0  0  0  0  0  0  0
  1  2  1  0  0  0  0
  2  8  1  0  0  0  0
  2  7  1  0  0  0  0
  3  2  1  0  0  0  0
  3 10  1  0  0  0  0
  4  3  1  0  0  0  0
  5 12  1  6  0  0  0
  5 31  1  0  0  0  0
  5  4  1  0  0  0  0
  6  5  1  0  0  0  0
  6  1  1  0  0  0  0
  9  3  1  0  0  0  0
 11  4  1  0  0  0  0
 13  6  1  0  0  0  0
 14  6  1  0  0  0  0
 15 16  1  0  0  0  0
 15 21  1  0  0  0  0
 16 22  1  0  0  0  0
 17  1  1  0  0  0  0
 17 16  2  0  0  0  0
 18 17  1  0  0  0  0
 19 18  2  0  0  0  0
 19 20  1  0  0  0  0
 20 15  2  0  0  0  0
 23 30  1  0  0  0  0
 23 19  1  0  0  0  0
 24 25  1  0  0  0  0
 24 23  2  0  0  0  0
 26 28  2  0  0  0  0
 26 24  1  0  0  0  0
 27 26  1  0  0  0  0
 28 29  1  0  0  0  0
 29 30  2  0  0  0  0
 31 32  1  0  0  0  0
 31 34  1  0  0  0  0
 33 31  1  0  0  0  0
M  END
>  <minimizedAffinity>
-5.55591869

$$$$

 OpenBabel03242522043D

 34 36  0  0  1  0  0  0  0  0999 V2000
   38.8690   30.7410   39.3040 N   0  0  0  0  0  0  0  0  0  0  0  0
   40.0850   30.7690   38.5230 C   0  0  0  0  0  0  0  0  0  0  0  0
   40.0970   31.9180   37.5510 C   0  0  0  0  0  0  0  0  0  0  0  0
   38.9410   32.0390   36.7580 N   0  0  0  0  0  0  0  0  0  0  0  0
   37.7030   31.7050   37.3680 C   0  0  2  0  0  0  0  0  0  0  0  0
   37.7050   31.4180   38.8120 C   0  0  0  0  0  0  0  0  0  0  0  0
   40.1990   29.7820   37.9990 H   0  0  0  0  0  0  0  0  0  0  0  0
   40.9900   30.8800   39.1590 H   0  0  0  0  0  0  0  0  0  0  0  0
   40.3050   32.8460   38.1330 H   0  0  0  0  0  0  0  0  0  0  0  0
   40.9810   31.7810   36.8890 H   0  0  0  0  0  0  0  0  0  0  0  0
   38.9450   32.9990   36.3210 H   0  0  0  0  0  0  0  0  0  0  0  0
   36.9950   32.5430   37.1820 H   0  0  0  0  0  0  0  0  0  0  0  0
   36.8100   30.8090   39.0650 H   0  0  0  0  0  0  0  0  0  0  0  0
   37.5660   32.3890   39.3630 H   0  0  0  0  0  0  0  0  0  0  0  0
   38.9340   29.8510   42.9440 C   0  0  0  0  0  0  0  0  0  0  0  0
   39.0090   30.6560   41.7950 C   0  0  0  0  0  0  0  0  0  0  0  0
   38.8220   30.0530   40.5440 C   0  0  0  0  0  0  0  0  0  0  0  0
   38.5800   28.7130   40.5530 N   0  0  0  0  0  0  0  0  0  0  0  0
   38.5150   27.9710   41.6740 C   0  0  0  0  0  0  0  0  0  0  0  0
   38.6950   28.5520   42.8770 N   0  0  0  0  0  0  0  0  0  0  0  0
   39.0930   30.4240   43.8320 H   0  0  0  0  0  0  0  0  0  0  0  0
   39.2010   31.7170   41.8030 H   0  0  0  0  0  0  0  0  0  0  0  0
   38.2500   26.5390   41.5850 C   0  0  0  0  0  0  0  0  0  0  0  0
   37.1830   25.9960   42.2730 C   0  0  0  0  0  0  0  0  0  0  0  0
   36.5300   26.6080   42.8810 H   0  0  0  0  0  0  0  0  0  0  0  0
   36.9570   24.6300   42.1690 C   0  0  0  0  0  0  0  0  0  0  0  0
   36.1420   24.1300   42.6760 H   0  0  0  0  0  0  0  0  0  0  0  0
   37.8370   23.9260   41.3720 C   0  0  0  0  0  3  0  0  0  0  0  0
   38.9070   24.4470   40.6780 C   0  0  0  0  0  3  0  0  0  0  0  0
   39.0870   25.7910   40.8130 N   0  0  0  0  0  0  0  0  0  0  0  0
   37.1180   30.5000   36.6590 C   0  0  0  0  0  0  0  0  0  0  0  0
   38.0760   29.5030   36.5200 F   0  0  0  0  0  0  0  0  0  0  0  0
   36.8150   30.9220   35.3740 F   0  0  0  0  0  0  0  0  0  0  0  0
   36.0370   29.9620   37.2970 F   0  0  0  0  0  0  0  0  0  0  0  0
  1 17  1  0  0  0  0
  2  8  1  0  0  0  0
  2  1  1  0  0  0  0
  3  9  1  0  0  0  0
  3  2  1  0  0  0  0
  4  5  1  0  0  0  0
  4  3  1  0  0  0  0
  5 12  1  6  0  0  0
  5  6  1  0  0  0  0
  6 13  1  0  0  0  0
  6  1  1  0  0  0  0
  6 14  1  0  0  0  0
  7  2  1  0  0  0  0
 10  3  1  0  0  0  0
 11  4  1  0  0  0  0
 15 21  1  0  0  0  0
 16 22  1  0  0  0  0
 16 15  2  0  0  0  0
 17 18  2  0  0  0  0
 17 16  1  0  0  0  0
 18 19  1  0  0  0  0
 19 20  2  0  0  0  0
 20 15  1  0  0  0  0
 23 19  1  0  0  0  0
 23 24  1  0  0  0  0
 24 25  1  0  0  0  0
 26 24  2  0  0  0  0
 26 27  1  0  0  0  0
 28 26  1  0  0  0  0
 29 30  1  0  0  0  0
 29 28  2  0  0  0  0
 30 23  2  0  0  0  0
 31 34  1  0  0  0  0
 31  5  1  0  0  0  0
 32 31  1  0  0  0  0
 33 31  1  0  0  0  0
M  END
>  <minimizedAffinity>
-5.53430176

$$$$

 OpenBabel03242522043D

 34 36  0  0  1  0  0  0  0  0999 V2000
   38.1160   27.1940   41.7540 N   0  0  0  0  0  0  0  0  0  0  0  0
   38.4000   26.9950   43.1570 C   0  0  0  0  0  0  0  0  0  0  0  0
   39.5480   26.0420   43.3630 C   0  0  0  0  0  0  0  0  0  0  0  0
   39.4510   24.8310   42.6520 N   0  0  0  0  0  0  0  0  0  0  0  0
   38.8660   24.8870   41.3600 C   0  0  2  0  0  0  0  0  0  0  0  0
   38.5580   26.2150   40.8030 C   0  0  0  0  0  0  0  0  0  0  0  0
   37.4660   26.6340   43.6650 H   0  0  0  0  0  0  0  0  0  0  0  0
   38.6770   27.9420   43.6680 H   0  0  0  0  0  0  0  0  0  0  0  0
   40.4870   26.5930   43.1260 H   0  0  0  0  0  0  0  0  0  0  0  0
   39.6010   25.8220   44.4530 H   0  0  0  0  0  0  0  0  0  0  0  0
   40.4020   24.3730   42.6610 H   0  0  0  0  0  0  0  0  0  0  0  0
   39.5510   24.3660   40.6540 H   0  0  0  0  0  0  0  0  0  0  0  0
   37.7780   26.1100   40.0180 H   0  0  0  0  0  0  0  0  0  0  0  0
   39.4710   26.5900   40.2640 H   0  0  0  0  0  0  0  0  0  0  0  0
   35.4660   29.5830   40.6090 C   0  0  0  0  0  0  0  0  0  0  0  0
   36.0360   28.3720   41.0360 C   0  0  0  0  0  0  0  0  0  0  0  0
   37.4080   28.3430   41.3150 C   0  0  0  0  0  0  0  0  0  0  0  0
   38.0810   29.5140   41.1460 N   0  0  0  0  0  0  0  0  0  0  0  0
   37.5030   30.6580   40.7350 C   0  0  0  0  0  0  0  0  0  0  0  0
   36.1820   30.6850   40.4660 N   0  0  0  0  0  0  0  0  0  0  0  0
   34.4170   29.4780   40.4290 H   0  0  0  0  0  0  0  0  0  0  0  0
   35.4900   27.4520   41.1660 H   0  0  0  0  0  0  0  0  0  0  0  0
   38.3060   31.8660   40.5810 C   0  0  0  0  0  0  0  0  0  0  0  0
   37.7150   33.0280   40.1250 C   0  0  0  0  0  0  0  0  0  0  0  0
   36.6630   33.0680   39.8750 H   0  0  0  0  0  0  0  0  0  0  0  0
   38.5060   34.1610   39.9890 C   0  0  0  0  0  0  0  0  0  0  0  0
   38.1180   35.1080   39.6380 H   0  0  0  0  0  0  0  0  0  0  0  0
   39.8360   34.0210   40.3300 C   0  0  0  0  0  3  0  0  0  0  0  0
   40.4460   32.8720   40.7870 C   0  0  0  0  0  3  0  0  0  0  0  0
   39.6270   31.7880   40.9020 N   0  0  0  0  0  0  0  0  0  0  0  0
   37.5830   24.0810   41.3700 C   0  0  0  0  0  0  0  0  0  0  0  0
   37.8420   22.7490   41.0690 F   0  0  0  0  0  0  0  0  0  0  0  0
   36.8160   24.5680   40.3230 F   0  0  0  0  0  0  0  0  0  0  0  0
   36.9200   24.1250   42.5630 F   0  0  0  0  0  0  0  0  0  0  0  0
  1  2  1  0  0  0  0
  2  3  1  0  0  0  0
  2  7  1  0  0  0  0
  2  8  1  0  0  0  0
  3 10  1  0  0  0  0
  4 11  1  0  0  0  0
  4  3  1  0  0  0  0
  5 12  1  6  0  0  0
  5 31  1  0  0  0  0
  5  4  1  0  0  0  0
  6  5  1  0  0  0  0
  6  1  1  0  0  0  0
  9  3  1  0  0  0  0
 13  6  1  0  0  0  0
 14  6  1  0  0  0  0
 15 16  1  0  0  0  0
 16 22  1  0  0  0  0
 16 17  2  0  0  0  0
 17  1  1  0  0  0  0
 18 17  1  0  0  0  0
 19 18  2  0  0  0  0
 20 15  2  0  0  0  0
 20 19  1  0  0  0  0
 21 15  1  0  0  0  0
 23 19  1  0  0  0  0
 23 30  1  0  0  0  0
 24 23  2  0  0  0  0
 25 24  1  0  0  0  0
 26 24  1  0  0  0  0
 26 28  2  0  0  0  0
 27 26  1  0  0  0  0
 28 29  1  0  0  0  0
 29 30  2  0  0  0  0
 31 34  1  0  0  0  0
 32 31  1  0  0  0  0
 33 31  1  0  0  0  0
M  END
>  <minimizedAffinity>
-5.53037167

$$$$

 OpenBabel03242522043D

 34 36  0  0  1  0  0  0  0  0999 V2000
   37.6440   30.0280   39.6570 N   0  0  0  0  0  0  0  0  0  0  0  0
   36.7580   30.1150   38.5180 C   0  0  0  0  0  0  0  0  0  0  0  0
   37.3960   30.8510   37.3700 C   0  0  0  0  0  0  0  0  0  0  0  0
   37.9720   32.0910   37.7050 N   0  0  0  0  0  0  0  0  0  0  0  0
   38.5920   32.1910   38.9780 C   0  0  2  0  0  0  0  0  0  0  0  0
   38.7280   30.9600   39.7740 C   0  0  0  0  0  0  0  0  0  0  0  0
   35.8010   30.6040   38.8430 H   0  0  0  0  0  0  0  0  0  0  0  0
   36.4700   29.1130   38.1330 H   0  0  0  0  0  0  0  0  0  0  0  0
   38.1330   30.1610   36.8990 H   0  0  0  0  0  0  0  0  0  0  0  0
   36.6070   31.0100   36.6020 H   0  0  0  0  0  0  0  0  0  0  0  0
   38.6010   32.3820   36.9100 H   0  0  0  0  0  0  0  0  0  0  0  0
   39.6080   32.6210   38.8280 H   0  0  0  0  0  0  0  0  0  0  0  0
   38.8470   31.2290   40.8460 H   0  0  0  0  0  0  0  0  0  0  0  0
   39.6940   30.4610   39.4860 H   0  0  0  0  0  0  0  0  0  0  0  0
   37.1550   28.2100   42.8970 C   0  0  0  0  0  0  0  0  0  0  0  0
   37.3480   29.2940   42.0240 C   0  0  0  0  0  0  0  0  0  0  0  0
   37.4490   29.0340   40.6510 C   0  0  0  0  0  0  0  0  0  0  0  0
   37.3480   27.7300   40.2760 N   0  0  0  0  0  0  0  0  0  0  0  0
   37.1620   26.7140   41.1400 C   0  0  0  0  0  0  0  0  0  0  0  0
   37.0650   26.9650   42.4620 N   0  0  0  0  0  0  0  0  0  0  0  0
   37.0940   28.5350   43.9130 H   0  0  0  0  0  0  0  0  0  0  0  0
   37.4270   30.3230   42.3350 H   0  0  0  0  0  0  0  0  0  0  0  0
   37.0650   25.3450   40.6460 C   0  0  0  0  0  0  0  0  0  0  0  0
   37.7580   24.3360   41.2840 C   0  0  0  0  0  0  0  0  0  0  0  0
   38.3780   24.5330   42.1490 H   0  0  0  0  0  0  0  0  0  0  0  0
   37.6460   23.0430   40.7890 C   0  0  0  0  0  0  0  0  0  0  0  0
   38.1570   22.2000   41.2330 H   0  0  0  0  0  0  0  0  0  0  0  0
   36.8360   22.8820   39.6840 C   0  0  0  0  0  3  0  0  0  0  0  0
   36.1350   23.8740   39.0320 C   0  0  0  0  0  3  0  0  0  0  0  0
   36.2790   25.1250   39.5560 N   0  0  0  0  0  0  0  0  0  0  0  0
   37.8310   33.2000   39.8140 C   0  0  0  0  0  0  0  0  0  0  0  0
   37.1360   32.5640   40.8350 F   0  0  0  0  0  0  0  0  0  0  0  0
   36.8700   33.7440   38.9770 F   0  0  0  0  0  0  0  0  0  0  0  0
   38.6290   34.1560   40.3770 F   0  0  0  0  0  0  0  0  0  0  0  0
  1  6  1  0  0  0  0
  1 17  1  0  0  0  0
  2  7  1  0  0  0  0
  2  1  1  0  0  0  0
  3  4  1  0  0  0  0
  3  2  1  0  0  0  0
  4  5  1  0  0  0  0
  5 12  1  6  0  0  0
  5  6  1  0  0  0  0
  5 31  1  0  0  0  0
  6 13  1  0  0  0  0
  8  2  1  0  0  0  0
  9  3  1  0  0  0  0
 10  3  1  0  0  0  0
 11  4  1  0  0  0  0
 14  6  1  0  0  0  0
 15 21  1  0  0  0  0
 16 22  1  0  0  0  0
 16 15  2  0  0  0  0
 17 16  1  0  0  0  0
 18 17  2  0  0  0  0
 18 19  1  0  0  0  0
 19 20  2  0  0  0  0
 20 15  1  0  0  0  0
 23 19  1  0  0  0  0
 23 24  1  0  0  0  0
 24 25  1  0  0  0  0
 26 27  1  0  0  0  0
 26 24  2  0  0  0  0
 28 26  1  0  0  0  0
 29 30  1  0  0  0  0
 29 28  2  0  0  0  0
 30 23  2  0  0  0  0
 31 34  1  0  0  0  0
 31 32  1  0  0  0  0
 33 31  1  0  0  0  0
M  END
>  <minimizedAffinity>
-5.45009899

$$$$

 OpenBabel03242522043D

 34 36  0  0  1  0  0  0  0  0999 V2000
   38.0160   29.5840   40.4540 N   0  0  0  0  0  0  0  0  0  0  0  0
   39.0720   28.6260   40.2210 C   0  0  0  0  0  0  0  0  0  0  0  0
   38.5290   27.2370   40.0140 C   0  0  0  0  0  0  0  0  0  0  0  0
   37.6110   26.8060   40.9890 N   0  0  0  0  0  0  0  0  0  0  0  0
   36.7320   27.7840   41.5250 C   0  0  2  0  0  0  0  0  0  0  0  0
   36.7370   29.1210   40.9100 C   0  0  0  0  0  0  0  0  0  0  0  0
   39.7910   28.6650   41.0840 H   0  0  0  0  0  0  0  0  0  0  0  0
   39.6710   28.8710   39.3180 H   0  0  0  0  0  0  0  0  0  0  0  0
   38.0990   27.1960   38.9870 H   0  0  0  0  0  0  0  0  0  0  0  0
   39.3980   26.5420   39.9980 H   0  0  0  0  0  0  0  0  0  0  0  0
   37.1110   25.9570   40.6110 H   0  0  0  0  0  0  0  0  0  0  0  0
   35.6970   27.3790   41.4650 H   0  0  0  0  0  0  0  0  0  0  0  0
   36.3340   29.8590   41.6370 H   0  0  0  0  0  0  0  0  0  0  0  0
   36.0050   29.1180   40.0560 H   0  0  0  0  0  0  0  0  0  0  0  0
   37.5980   33.2870   40.0550 C   0  0  0  0  0  0  0  0  0  0  0  0
   37.2370   31.9500   40.2930 C   0  0  0  0  0  0  0  0  0  0  0  0
   38.2350   30.9700   40.2360 C   0  0  0  0  0  0  0  0  0  0  0  0
   39.4920   31.4070   39.9510 N   0  0  0  0  0  0  0  0  0  0  0  0
   39.8040   32.6970   39.7280 C   0  0  0  0  0  0  0  0  0  0  0  0
   38.8420   33.6410   39.7830 N   0  0  0  0  0  0  0  0  0  0  0  0
   36.7520   33.9370   40.1270 H   0  0  0  0  0  0  0  0  0  0  0  0
   36.2360   31.6180   40.5180 H   0  0  0  0  0  0  0  0  0  0  0  0
   41.1810   33.0730   39.4290 C   0  0  0  0  0  0  0  0  0  0  0  0
   41.4760   33.6960   38.2320 C   0  0  0  0  0  0  0  0  0  0  0  0
   40.7080   33.9160   37.5030 H   0  0  0  0  0  0  0  0  0  0  0  0
   42.7970   34.0410   37.9770 C   0  0  0  0  0  0  0  0  0  0  0  0
   43.1080   34.5320   37.0630 H   0  0  0  0  0  0  0  0  0  0  0  0
   43.7110   33.7240   38.9600 C   0  0  0  0  0  3  0  0  0  0  0  0
   43.4390   33.1030   40.1600 C   0  0  0  0  0  3  0  0  0  0  0  0
   42.1290   32.7840   40.3630 N   0  0  0  0  0  0  0  0  0  0  0  0
   37.0300   27.9520   43.0010 C   0  0  0  0  0  0  0  0  0  0  0  0
   38.1550   27.2200   43.3580 F   0  0  0  0  0  0  0  0  0  0  0  0
   35.9660   27.3740   43.6750 F   0  0  0  0  0  0  0  0  0  0  0  0
   37.2350   29.2510   43.3720 F   0  0  0  0  0  0  0  0  0  0  0  0
  1  6  1  0  0  0  0
  2  1  1  0  0  0  0
  2  7  1  0  0  0  0
  3  2  1  0  0  0  0
  3  4  1  0  0  0  0
  4  5  1  0  0  0  0
  5 12  1  6  0  0  0
  5 31  1  0  0  0  0
  6  5  1  0  0  0  0
  6 13  1  0  0  0  0
  8  2  1  0  0  0  0
  9  3  1  0  0  0  0
 10  3  1  0  0  0  0
 11  4  1  0  0  0  0
 14  6  1  0  0  0  0
 15 21  1  0  0  0  0
 15 16  1  0  0  0  0
 16 22  1  0  0  0  0
 17 16  2  0  0  0  0
 17  1  1  0  0  0  0
 18 17  1  0  0  0  0
 19 20  1  0  0  0  0
 19 18  2  0  0  0  0
 20 15  2  0  0  0  0
 23 19  1  0  0  0  0
 23 30  1  0  0  0  0
 24 23  2  0  0  0  0
 25 24  1  0  0  0  0
 26 24  1  0  0  0  0
 26 28  2  0  0  0  0
 27 26  1  0  0  0  0
 28 29  1  0  0  0  0
 29 30  2  0  0  0  0
 31 32  1  0  0  0  0
 31 34  1  0  0  0  0
 31 33  1  0  0  0  0
M  END
>  <minimizedAffinity>
-5.34574318

$$$$

 OpenBabel03242522043D

 34 36  0  0  1  0  0  0  0  0999 V2000
   38.5270   31.0460   40.1950 N   0  0  0  0  0  0  0  0  0  0  0  0
   38.0990   32.3470   40.6580 C   0  0  0  0  0  0  0  0  0  0  0  0
   39.2390   33.3290   40.6900 C   0  0  0  0  0  0  0  0  0  0  0  0
   40.3980   32.8750   41.3460 N   0  0  0  0  0  0  0  0  0  0  0  0
   40.7190   31.4980   41.2100 C   0  0  2  0  0  0  0  0  0  0  0  0
   39.9160   30.6970   40.2710 C   0  0  0  0  0  0  0  0  0  0  0  0
   37.6230   32.2300   41.6690 H   0  0  0  0  0  0  0  0  0  0  0  0
   37.3170   32.7880   40.0050 H   0  0  0  0  0  0  0  0  0  0  0  0
   39.4460   33.6360   39.6390 H   0  0  0  0  0  0  0  0  0  0  0  0
   38.8680   34.2470   41.1980 H   0  0  0  0  0  0  0  0  0  0  0  0
   41.1930   33.5170   41.0830 H   0  0  0  0  0  0  0  0  0  0  0  0
   41.7860   31.4270   40.9010 H   0  0  0  0  0  0  0  0  0  0  0  0
   39.9940   29.6230   40.5470 H   0  0  0  0  0  0  0  0  0  0  0  0
   40.3860   30.7740   39.2520 H   0  0  0  0  0  0  0  0  0  0  0  0
   35.7940   29.3950   38.2330 C   0  0  0  0  0  0  0  0  0  0  0  0
   36.6670   30.4110   38.6560 C   0  0  0  0  0  0  0  0  0  0  0  0
   37.5870   30.1200   39.6710 C   0  0  0  0  0  0  0  0  0  0  0  0
   37.5540   28.8530   40.1670 N   0  0  0  0  0  0  0  0  0  0  0  0
   36.7030   27.9020   39.7390 C   0  0  0  0  0  0  0  0  0  0  0  0
   35.8180   28.1840   38.7610 N   0  0  0  0  0  0  0  0  0  0  0  0
   35.1440   29.7390   37.4570 H   0  0  0  0  0  0  0  0  0  0  0  0
   36.6830   31.4110   38.2530 H   0  0  0  0  0  0  0  0  0  0  0  0
   36.7400   26.5700   40.3310 C   0  0  0  0  0  0  0  0  0  0  0  0
   37.1240   26.4170   41.6490 C   0  0  0  0  0  0  0  0  0  0  0  0
   37.4010   27.2650   42.2610 H   0  0  0  0  0  0  0  0  0  0  0  0
   37.1490   25.1350   42.1830 C   0  0  0  0  0  0  0  0  0  0  0  0
   37.4380   24.9330   43.2070 H   0  0  0  0  0  0  0  0  0  0  0  0
   36.7820   24.1130   41.3330 C   0  0  0  0  0  3  0  0  0  0  0  0
   36.3960   24.2430   40.0170 C   0  0  0  0  0  3  0  0  0  0  0  0
   36.3880   25.5190   39.5390 N   0  0  0  0  0  0  0  0  0  0  0  0
   40.6330   30.8390   42.5710 C   0  0  0  0  0  0  0  0  0  0  0  0
   41.7630   31.1280   43.3260 F   0  0  0  0  0  0  0  0  0  0  0  0
   40.6650   29.4730   42.3390 F   0  0  0  0  0  0  0  0  0  0  0  0
   39.5350   31.2170   43.2920 F   0  0  0  0  0  0  0  0  0  0  0  0
  1  6  1  0  0  0  0
  1  2  1  0  0  0  0
  2  3  1  0  0  0  0
  2  7  1  0  0  0  0
  3 10  1  0  0  0  0
  3  4  1  0  0  0  0
  5 12  1  6  0  0  0
  5  4  1  0  0  0  0
  5 31  1  0  0  0  0
  6 13  1  0  0  0  0
  6  5  1  0  0  0  0
  8  2  1  0  0  0  0
  9  3  1  0  0  0  0
 11  4  1  0  0  0  0
 14  6  1  0  0  0  0
 15 16  2  0  0  0  0
 15 20  1  0  0  0  0
 16 17  1  0  0  0  0
 17 18  2  0  0  0  0
 17  1  1  0  0  0  0
 19 18  1  0  0  0  0
 19 23  1  0  0  0  0
 20 19  2  0  0  0  0
 21 15  1  0  0  0  0
 22 16  1  0  0  0  0
 23 24  1  0  0  0  0
 24 26  2  0  0  0  0
 24 25  1  0  0  0  0
 26 27  1  0  0  0  0
 28 26  1  0  0  0  0
 29 28  2  0  0  0  0
 30 29  1  0  0  0  0
 30 23  2  0  0  0  0
 31 34  1  0  0  0  0
 31 32  1  0  0  0  0
 33 31  1  0  0  0  0
M  END
>  <minimizedAffinity>
-5.31994963

$$$$
