
 OpenBabel03242521053D

 33 36  0  0  1  0  0  0  0  0999 V2000
   46.9090   34.8640   42.1420 C   0  0  0  0  0  0  0  0  0  0  0  0
   48.0680   35.5810   41.9410 C   0  0  0  0  0  0  0  0  0  0  0  0
   48.8550   35.5460   40.8150 C   0  0  0  0  0  0  0  0  0  0  0  0
   48.4720   34.7270   39.7830 C   0  0  0  0  0  0  0  0  0  0  0  0
   47.3160   34.0100   39.9820 C   0  0  0  0  0  0  0  0  0  0  0  0
   46.5930   34.0850   41.0950 N   0  0  0  0  0  0  0  0  0  0  0  0
   48.4240   36.2540   42.7320 H   0  0  0  0  0  0  0  0  0  0  0  0
   49.7590   36.1460   40.7330 H   0  0  0  0  0  0  0  0  0  0  0  0
   49.0830   34.6890   38.8900 H   0  0  0  0  0  0  0  0  0  0  0  0
   44.4680   35.8850   44.8220 C   0  0  0  0  0  0  0  0  0  0  0  0
   45.1700   35.9340   43.6050 C   0  0  0  0  0  0  0  0  0  0  0  0
   46.1140   34.9380   43.3490 C   0  0  0  0  0  0  0  0  0  0  0  0
   46.3080   33.9820   44.2720 N   0  0  0  0  0  0  0  0  0  0  0  0
   45.6200   33.9500   45.4410 C   0  0  0  0  0  0  0  0  0  0  0  0
   44.7050   34.9080   45.6980 N   0  0  0  0  0  0  0  0  0  0  0  0
   43.7480   36.6680   44.9860 H   0  0  0  0  0  0  0  0  0  0  0  0
   45.0330   36.6930   42.8470 H   0  0  0  0  0  0  0  0  0  0  0  0
   45.8220   33.1450   46.1540 H   0  0  0  0  0  0  0  0  0  0  0  0
   46.8740   33.1110   38.8790 C   0  0  2  0  0  0  0  0  0  0  0  0
   47.3400   31.6870   38.9910 C   0  0  0  0  0  0  0  0  0  0  0  0
   47.8570   32.6250   37.9160 C   0  0  1  0  0  0  0  0  0  0  0  0
   45.8070   33.1990   38.5500 H   0  0  0  0  0  0  0  0  0  0  0  0
   48.0560   31.3860   39.7570 H   0  0  0  0  0  0  0  0  0  0  0  0
   46.6920   30.8610   38.6050 H   0  0  0  0  0  0  0  0  0  0  0  0
   48.9110   32.9680   37.9880 H   0  0  0  0  0  0  0  0  0  0  0  0
   47.3650   32.4140   36.5220 C   0  0  0  0  0  0  0  0  0  0  0  0
   48.2290   32.1440   35.4560 C   0  0  0  0  0  0  0  0  0  0  0  0
   49.2890   32.0940   35.6820 H   0  0  0  0  0  0  0  0  0  0  0  0
   47.7010   31.9580   34.1850 C   0  0  0  0  0  0  0  0  0  0  0  0
   48.4020   31.7500   33.3750 H   0  0  0  0  0  0  0  0  0  0  0  0
   46.3260   32.0410   33.9890 C   0  0  0  0  0  0  0  0  0  0  0  0
   45.4940   32.3080   35.0630 C   0  0  0  0  0  0  0  0  0  0  0  0
   46.0260   32.4860   36.2910 N   0  0  0  0  0  0  0  0  0  0  0  0
  1 12  1  0  0  0  0
  2  1  1  0  0  0  0
  2  7  1  0  0  0  0
  3  2  2  0  0  0  0
  4  5  2  0  0  0  0
  4  3  1  0  0  0  0
  5  6  1  0  0  0  0
  6  1  2  0  0  0  0
  8  3  1  0  0  0  0
  9  4  1  0  0  0  0
 10 16  1  0  0  0  0
 10 15  1  0  0  0  0
 11 10  2  0  0  0  0
 12 11  1  0  0  0  0
 12 13  2  0  0  0  0
 13 14  1  0  0  0  0
 14 15  2  0  0  0  0
 14 18  1  0  0  0  0
 17 11  1  0  0  0  0
 19 22  1  6  0  0  0
 19 20  1  0  0  0  0
 19  5  1  0  0  0  0
 20 23  1  0  0  0  0
 21 25  1  1  0  0  0
 21 19  1  0  0  0  0
 21 20  1  0  0  0  0
 24 20  1  0  0  0  0
 26 21  1  0  0  0  0
 27 28  1  0  0  0  0
 27 26  2  0  0  0  0
 29 27  1  0  0  0  0
 30 29  1  0  0  0  0
 31 29  2  0  0  0  0
 31 32  1  0  0  0  0
 32 33  2  0  0  0  0
 33 26  1  0  0  0  0
M  END
>  <minimizedAffinity>
-5.60088634

>  <minimizedRMSD>
1.47727394

$$$$
