
 OpenBabel03252508383D

 40 43  0  0  0  0  0  0  0  0999 V2000
   45.1490   33.9500   40.7010 C   0  0  0  0  0  0  0  0  0  0  0  0
   44.1060   33.6300   39.8850 C   0  0  0  0  0  0  0  0  0  0  0  0
   44.3970   33.1310   38.6460 C   0  0  0  0  0  0  0  0  0  0  0  0
   45.6740   32.9400   38.1910 C   0  0  0  0  0  0  0  0  0  0  0  0
   46.7130   33.2710   39.0360 C   0  0  0  0  0  0  0  0  0  0  0  0
   46.4680   33.7740   40.2860 C   0  0  0  0  0  0  0  0  0  0  0  0
   43.5640   32.8780   37.9980 H   0  0  0  0  0  0  0  0  0  0  0  0
   45.8130   32.5360   37.1880 H   0  0  0  0  0  0  0  0  0  0  0  0
   47.7260   33.1140   38.6630 H   0  0  0  0  0  0  0  0  0  0  0  0
   40.8230   35.2710   40.7940 C   0  0  0  0  0  0  0  0  0  0  0  0
   42.1180   35.0960   40.2750 C   0  0  0  0  0  0  0  0  0  0  0  0
   42.7710   33.8500   40.4060 C   0  0  0  0  0  0  0  0  0  0  0  0
   42.0610   32.8860   41.0500 N   0  0  0  0  0  0  0  0  0  0  0  0
   40.8290   33.0780   41.5350 C   0  0  0  0  0  0  0  0  0  0  0  0
   40.2180   34.2630   41.4060 N   0  0  0  0  0  0  0  0  0  0  0  0
   40.2210   36.5380   40.6330 N   0  0  0  0  0  0  0  0  0  0  0  0
   42.6330   35.9130   39.7670 H   0  0  0  0  0  0  0  0  0  0  0  0
   40.3380   32.2450   42.0370 H   0  0  0  0  0  0  0  0  0  0  0  0
   39.5590   36.8080   41.3980 H   0  0  0  0  0  0  0  0  0  0  0  0
   40.3760   37.2020   39.8440 H   0  0  0  0  0  0  0  0  0  0  0  0
   47.6220   34.0940   41.1070 C   0  0  0  0  0  0  0  0  0  0  0  0
   48.1280   35.3710   40.9500 C   0  0  0  0  0  0  0  0  0  0  0  0
   49.2320   35.8470   41.6580 C   0  0  0  0  0  0  0  0  0  0  0  0
   49.8440   35.0070   42.5500 C   0  0  0  0  0  0  0  0  0  0  0  0
   49.3570   33.7250   42.7250 C   0  0  0  0  0  0  0  0  0  0  0  0
   48.2560   33.2740   42.0090 C   0  0  0  0  0  0  0  0  0  0  0  0
   47.6920   36.0810   40.2620 H   0  0  0  0  0  0  0  0  0  0  0  0
   49.5990   36.8680   41.5020 H   0  0  0  0  0  0  0  0  0  0  0  0
   50.7040   35.3100   43.1330 H   0  0  0  0  0  0  0  0  0  0  0  0
   49.7620   32.9880   43.4000 H   0  0  0  0  0  0  0  0  0  0  0  0
   47.6890   31.9220   42.1490 C   0  0  0  0  0  0  0  0  0  0  0  0
   46.7680   31.6510   43.1630 C   0  0  0  0  0  0  0  0  0  0  0  0
   46.4700   32.4330   43.8450 H   0  0  0  0  0  0  0  0  0  0  0  0
   46.2250   30.3860   43.3080 C   0  0  0  0  0  0  0  0  0  0  0  0
   45.5130   30.1680   44.0870 H   0  0  0  0  0  0  0  0  0  0  0  0
   46.6090   29.3720   42.4250 C   0  0  0  0  0  3  0  0  0  0  0  0
   47.5220   29.6980   41.4450 C   0  0  0  0  0  3  0  0  0  0  0  0
   48.0520   30.9440   41.3080 N   0  0  0  0  0  0  0  0  0  0  0  0
   44.7530   34.9180   43.0970 N   0  0  0  0  0  0  0  0  0  0  0  0
   44.9240   34.4800   42.0190 C   0  0  0  0  0  0  0  0  0  0  0  0
  1 40  1  0  0  0  0
  2 12  1  0  0  0  0
  2  1  2  0  0  0  0
  3  2  1  0  0  0  0
  4  3  2  0  0  0  0
  4  5  1  0  0  0  0
  5  6  2  0  0  0  0
  6  1  1  0  0  0  0
  6 21  1  0  0  0  0
  7  3  1  0  0  0  0
  8  4  1  0  0  0  0
  9  5  1  0  0  0  0
 10 15  1  0  0  0  0
 11 12  1  0  0  0  0
 11 10  2  0  0  0  0
 12 13  2  0  0  0  0
 13 14  1  0  0  0  0
 14 18  1  0  0  0  0
 15 14  2  0  0  0  0
 16 10  1  0  0  0  0
 16 19  1  0  0  0  0
 17 11  1  0  0  0  0
 20 16  1  0  0  0  0
 21 26  1  0  0  0  0
 22 21  2  0  0  0  0
 22 23  1  0  0  0  0
 23 24  2  0  0  0  0
 24 25  1  0  0  0  0
 24 29  1  0  0  0  0
 25 30  1  0  0  0  0
 26 31  1  0  0  0  0
 26 25  2  0  0  0  0
 27 22  1  0  0  0  0
 28 23  1  0  0  0  0
 31 32  1  0  0  0  0
 32 34  2  0  0  0  0
 32 33  1  0  0  0  0
 34 35  1  0  0  0  0
 36 34  1  0  0  0  0
 37 36  2  0  0  0  0
 38 37  1  0  0  0  0
 38 31  2  0  0  0  0
 40 39  3  0  0  0  0
M  END
>  <minimizedAffinity>
-5.95670271

>  <minimizedRMSD>
0.0975593403

$$$$
