
 OpenBabel03252509213D

 24 26  0  0  0  0  0  0  0  0999 V2000
   44.7620   35.3970   45.5340 C   0  0  0  0  0  0  0  0  0  0  0  0
   45.2960   35.9410   44.3510 C   0  0  0  0  0  0  0  0  0  0  0  0
   45.8200   35.0230   43.4690 C   0  0  0  0  0  0  0  0  0  0  0  0
   45.7920   33.6780   43.7860 N   0  0  0  0  0  0  0  0  0  0  0  0
   45.2690   33.2110   44.9320 C   0  0  0  0  0  0  0  0  0  0  0  0
   44.7530   34.0960   45.8010 N   0  0  0  0  0  0  0  0  0  0  0  0
   44.3140   35.9330   46.3380 H   0  0  0  0  0  0  0  0  0  0  0  0
   45.3670   32.1350   44.9420 H   0  0  0  0  0  0  0  0  0  0  0  0
   46.3050   35.4770   42.1140 C   0  0  0  0  0  0  0  0  0  0  0  0
   47.8120   35.2160   41.9720 C   0  0  0  0  0  0  0  0  0  0  0  0
   46.7110   34.4670   41.1620 C   0  0  0  0  0  0  0  0  0  0  0  0
   46.1630   36.5360   41.8240 H   0  0  0  0  0  0  0  0  0  0  0  0
   48.3370   34.6110   42.7060 H   0  0  0  0  0  0  0  0  0  0  0  0
   48.4190   35.9150   41.3740 H   0  0  0  0  0  0  0  0  0  0  0  0
   46.5960   33.3920   41.4190 H   0  0  0  0  0  0  0  0  0  0  0  0
   46.7530   34.6350   40.0600 H   0  0  0  0  0  0  0  0  0  0  0  0
   45.2660   37.3760   44.1600 C   0  0  0  0  0  0  0  0  0  0  0  0
   45.2080   38.2050   45.2540 C   0  0  0  0  0  0  0  0  0  0  0  0
   45.1840   37.9010   46.2900 H   0  0  0  0  0  0  0  0  0  0  0  0
   45.1700   39.5820   45.2000 C   0  0  0  0  0  0  0  0  0  0  0  0
   45.1250   40.2540   46.0480 H   0  0  0  0  0  0  0  0  0  0  0  0
   45.1900   40.2200   43.9780 C   0  0  0  0  0  3  0  0  0  0  0  0
   45.2480   39.3860   42.8860 C   0  0  0  0  0  3  0  0  0  0  0  0
   45.2810   38.0700   43.0250 N   0  0  0  0  0  0  0  0  0  0  0  0
  1  6  1  0  0  0  0
  1  7  1  0  0  0  0
  2  1  2  0  0  0  0
  3  4  2  0  0  0  0
  3  2  1  0  0  0  0
  4  5  1  0  0  0  0
  5  8  1  0  0  0  0
  5  6  2  0  0  0  0
  9  3  1  0  0  0  0
 10  9  1  0  0  0  0
 10 13  1  0  0  0  0
 11 15  1  0  0  0  0
 11 10  1  0  0  0  0
 11  9  1  0  0  0  0
 12  9  1  0  0  0  0
 14 10  1  0  0  0  0
 16 11  1  0  0  0  0
 17  2  1  0  0  0  0
 17 18  1  0  0  0  0
 18 19  1  0  0  0  0
 20 18  2  0  0  0  0
 20 21  1  0  0  0  0
 22 20  1  0  0  0  0
 23 24  1  0  0  0  0
 23 22  2  0  0  0  0
 24 17  2  0  0  0  0
M  END
>  <minimizedAffinity>
0.052113872

>  <minimizedRMSD>
2.19420242

$$$$
