
 OpenBabel03252502333D

 23 24  0  0  0  0  0  0  0  0999 V2000
   35.6730   29.1120   39.7810 C   0  0  0  0  0  0  0  0  0  0  0  0
   36.3850   30.3300   39.6250 C   0  0  0  0  0  0  0  0  0  0  0  0
   37.3320   30.6290   40.6190 C   0  0  0  0  0  0  0  0  0  0  0  0
   37.5150   29.7680   41.6480 N   0  0  0  0  0  0  0  0  0  0  0  0
   36.8140   28.6200   41.7550 C   0  0  0  0  0  0  0  0  0  0  0  0
   35.8960   28.2960   40.8240 N   0  0  0  0  0  0  0  0  0  0  0  0
   36.2060   30.9780   38.7930 H   0  0  0  0  0  0  0  0  0  0  0  0
   38.0960   31.8670   40.5140 C   0  0  0  0  0  0  0  0  0  0  0  0
   37.4450   32.9980   40.0650 C   0  0  0  0  0  0  0  0  0  0  0  0
   36.4010   33.0020   39.7910 H   0  0  0  0  0  0  0  0  0  0  0  0
   38.2400   34.1440   39.9880 C   0  0  0  0  0  0  0  0  0  0  0  0
   37.7600   35.0550   39.6380 H   0  0  0  0  0  0  0  0  0  0  0  0
   39.5900   34.1180   40.3460 C   0  0  0  0  0  3  0  0  0  0  0  0
   40.1810   32.9370   40.7930 C   0  0  0  0  0  3  0  0  0  0  0  0
   39.3950   31.8260   40.8620 N   0  0  0  0  0  0  0  0  0  0  0  0
   34.6630   28.7890   38.7250 C   0  0  0  0  0  0  0  0  0  0  0  0
   34.7100   27.4930   38.3300 F   0  0  0  0  0  0  0  0  0  0  0  0
   33.3960   29.1340   39.2190 F   0  0  0  0  0  0  0  0  0  0  0  0
   34.8610   29.6560   37.6370 F   0  0  0  0  0  0  0  0  0  0  0  0
   37.0270   27.6890   42.8900 C   0  0  0  0  0  0  0  0  0  0  0  0
   35.8820   27.5450   43.6380 F   0  0  0  0  0  0  0  0  0  0  0  0
   38.0960   28.1030   43.6800 F   0  0  0  0  0  0  0  0  0  0  0  0
   37.3820   26.4210   42.4350 F   0  0  0  0  0  0  0  0  0  0  0  0
  1  6  1  0  0  0  0
  2  1  2  0  0  0  0
  2  3  1  0  0  0  0
  3  4  2  0  0  0  0
  4  5  1  0  0  0  0
  5 20  1  0  0  0  0
  6  5  2  0  0  0  0
  7  2  1  0  0  0  0
  8  3  1  0  0  0  0
  8 15  1  0  0  0  0
  9  8  2  0  0  0  0
 10  9  1  0  0  0  0
 11  9  1  0  0  0  0
 11 13  2  0  0  0  0
 12 11  1  0  0  0  0
 13 14  1  0  0  0  0
 14 15  2  0  0  0  0
 16 18  1  0  0  0  0
 16  1  1  0  0  0  0
 17 16  1  0  0  0  0
 19 16  1  0  0  0  0
 20 21  1  0  0  0  0
 20 22  1  0  0  0  0
 23 20  1  0  0  0  0
M  END
>  <minimizedAffinity>
-5.67504358

$$$$

 OpenBabel03252502333D

 23 24  0  0  0  0  0  0  0  0999 V2000
   36.8150   28.4840   41.7870 C   0  0  0  0  0  0  0  0  0  0  0  0
   37.6420   29.6360   41.7370 C   0  0  0  0  0  0  0  0  0  0  0  0
   37.4100   30.5250   40.6730 C   0  0  0  0  0  0  0  0  0  0  0  0
   36.4360   30.2470   39.7730 N   0  0  0  0  0  0  0  0  0  0  0  0
   35.6740   29.1380   39.8600 C   0  0  0  0  0  0  0  0  0  0  0  0
   35.8650   28.2600   40.8640 N   0  0  0  0  0  0  0  0  0  0  0  0
   38.3990   29.8130   42.4730 H   0  0  0  0  0  0  0  0  0  0  0  0
   38.2270   31.7270   40.5690 C   0  0  0  0  0  0  0  0  0  0  0  0
   37.6020   32.9160   40.2510 C   0  0  0  0  0  0  0  0  0  0  0  0
   36.5390   32.9880   40.0790 H   0  0  0  0  0  0  0  0  0  0  0  0
   38.4480   34.0240   40.1670 C   0  0  0  0  0  0  0  0  0  0  0  0
   37.9890   34.9770   39.9190 H   0  0  0  0  0  0  0  0  0  0  0  0
   39.8220   33.9090   40.3930 C   0  0  0  0  0  3  0  0  0  0  0  0
   40.3850   32.6730   40.7110 C   0  0  0  0  0  3  0  0  0  0  0  0
   39.5490   31.6000   40.7890 N   0  0  0  0  0  0  0  0  0  0  0  0
   37.0600   27.5350   42.9180 C   0  0  0  0  0  0  0  0  0  0  0  0
   38.1260   27.8870   43.6790 F   0  0  0  0  0  0  0  0  0  0  0  0
   35.8840   27.4580   43.6790 F   0  0  0  0  0  0  0  0  0  0  0  0
   37.2200   26.2420   42.3910 F   0  0  0  0  0  0  0  0  0  0  0  0
   34.6130   28.8510   38.8650 C   0  0  0  0  0  0  0  0  0  0  0  0
   33.3700   29.1850   39.3520 F   0  0  0  0  0  0  0  0  0  0  0  0
   34.6540   27.5190   38.4630 F   0  0  0  0  0  0  0  0  0  0  0  0
   34.8080   29.5880   37.6990 F   0  0  0  0  0  0  0  0  0  0  0  0
  1 16  1  0  0  0  0
  2  1  1  0  0  0  0
  2  7  1  0  0  0  0
  3  2  2  0  0  0  0
  4  5  2  0  0  0  0
  4  3  1  0  0  0  0
  5  6  1  0  0  0  0
  6  1  2  0  0  0  0
  8  3  1  0  0  0  0
  8 15  1  0  0  0  0
  9  8  2  0  0  0  0
 10  9  1  0  0  0  0
 11  9  1  0  0  0  0
 11 13  2  0  0  0  0
 12 11  1  0  0  0  0
 13 14  1  0  0  0  0
 14 15  2  0  0  0  0
 16 17  1  0  0  0  0
 16 18  1  0  0  0  0
 19 16  1  0  0  0  0
 20 21  1  0  0  0  0
 20  5  1  0  0  0  0
 22 20  1  0  0  0  0
 23 20  1  0  0  0  0
M  END
>  <minimizedAffinity>
-5.58850765

$$$$

 OpenBabel03252502333D

 23 24  0  0  0  0  0  0  0  0999 V2000
   36.6420   27.6140   39.2850 C   0  0  0  0  0  0  0  0  0  0  0  0
   36.9710   28.9880   39.1510 C   0  0  0  0  0  0  0  0  0  0  0  0
   37.2890   29.6710   40.3380 C   0  0  0  0  0  0  0  0  0  0  0  0
   37.2670   29.0050   41.5170 N   0  0  0  0  0  0  0  0  0  0  0  0
   36.9480   27.6970   41.5960 C   0  0  0  0  0  0  0  0  0  0  0  0
   36.6360   27.0060   40.4830 N   0  0  0  0  0  0  0  0  0  0  0  0
   36.9760   29.4710   38.1960 H   0  0  0  0  0  0  0  0  0  0  0  0
   37.6360   31.0850   40.2650 C   0  0  0  0  0  0  0  0  0  0  0  0
   36.9100   31.8910   39.4110 C   0  0  0  0  0  0  0  0  0  0  0  0
   36.1030   31.5170   38.8010 H   0  0  0  0  0  0  0  0  0  0  0  0
   37.2990   33.2330   39.3930 C   0  0  0  0  0  0  0  0  0  0  0  0
   36.7490   33.8970   38.7320 H   0  0  0  0  0  0  0  0  0  0  0  0
   38.3490   33.6960   40.1910 C   0  0  0  0  0  3  0  0  0  0  0  0
   39.0380   32.8230   41.0310 C   0  0  0  0  0  3  0  0  0  0  0  0
   38.6490   31.5170   41.0390 N   0  0  0  0  0  0  0  0  0  0  0  0
   36.3030   26.8830   38.0240 C   0  0  0  0  0  0  0  0  0  0  0  0
   35.8200   27.7000   37.0560 F   0  0  0  0  0  0  0  0  0  0  0  0
   37.4520   26.2010   37.5980 F   0  0  0  0  0  0  0  0  0  0  0  0
   35.3850   25.8640   38.3310 F   0  0  0  0  0  0  0  0  0  0  0  0
   36.9290   26.9850   42.8970 C   0  0  0  0  0  0  0  0  0  0  0  0
   38.0750   27.2330   43.6170 F   0  0  0  0  0  0  0  0  0  0  0  0
   36.7370   25.6180   42.7140 F   0  0  0  0  0  0  0  0  0  0  0  0
   35.8550   27.4000   43.6790 F   0  0  0  0  0  0  0  0  0  0  0  0
  1  6  1  0  0  0  0
  2  1  2  0  0  0  0
  2  3  1  0  0  0  0
  3  4  2  0  0  0  0
  4  5  1  0  0  0  0
  5 20  1  0  0  0  0
  6  5  2  0  0  0  0
  7  2  1  0  0  0  0
  8  3  1  0  0  0  0
  8 15  1  0  0  0  0
  9  8  2  0  0  0  0
 10  9  1  0  0  0  0
 11  9  1  0  0  0  0
 11 13  2  0  0  0  0
 12 11  1  0  0  0  0
 13 14  1  0  0  0  0
 14 15  2  0  0  0  0
 16 19  1  0  0  0  0
 16  1  1  0  0  0  0
 17 16  1  0  0  0  0
 18 16  1  0  0  0  0
 20 21  1  0  0  0  0
 20 23  1  0  0  0  0
 22 20  1  0  0  0  0
M  END
>  <minimizedAffinity>
-5.19963264

$$$$

 OpenBabel03252502333D

 23 24  0  0  0  0  0  0  0  0999 V2000
   37.5420   31.5790   40.2110 C   0  0  0  0  0  0  0  0  0  0  0  0
   36.7750   31.1670   39.0900 C   0  0  0  0  0  0  0  0  0  0  0  0
   36.2490   29.8650   39.1400 C   0  0  0  0  0  0  0  0  0  0  0  0
   36.4910   29.0890   40.2240 N   0  0  0  0  0  0  0  0  0  0  0  0
   37.2270   29.5240   41.2670 C   0  0  0  0  0  0  0  0  0  0  0  0
   37.7500   30.7650   41.2580 N   0  0  0  0  0  0  0  0  0  0  0  0
   36.6100   31.8170   38.2560 H   0  0  0  0  0  0  0  0  0  0  0  0
   35.4510   29.3840   38.0190 C   0  0  0  0  0  0  0  0  0  0  0  0
   34.2040   28.8560   38.2840 C   0  0  0  0  0  0  0  0  0  0  0  0
   33.8000   28.7870   39.2820 H   0  0  0  0  0  0  0  0  0  0  0  0
   33.4990   28.4150   37.1620 C   0  0  0  0  0  0  0  0  0  0  0  0
   32.5120   27.9930   37.3330 H   0  0  0  0  0  0  0  0  0  0  0  0
   34.0410   28.5130   35.8770 C   0  0  0  0  0  3  0  0  0  0  0  0
   35.3100   29.0580   35.6850 C   0  0  0  0  0  3  0  0  0  0  0  0
   35.9870   29.4840   36.7880 N   0  0  0  0  0  0  0  0  0  0  0  0
   38.1050   32.9650   40.1610 C   0  0  0  0  0  0  0  0  0  0  0  0
   37.1740   33.9000   39.8470 F   0  0  0  0  0  0  0  0  0  0  0  0
   38.7080   33.2310   41.3990 F   0  0  0  0  0  0  0  0  0  0  0  0
   39.1690   32.9830   39.2430 F   0  0  0  0  0  0  0  0  0  0  0  0
   37.4820   28.6590   42.4450 C   0  0  0  0  0  0  0  0  0  0  0  0
   37.8760   29.4040   43.5330 F   0  0  0  0  0  0  0  0  0  0  0  0
   38.4160   27.6730   42.1460 F   0  0  0  0  0  0  0  0  0  0  0  0
   36.3310   27.9690   42.8160 F   0  0  0  0  0  0  0  0  0  0  0  0
  1  6  1  0  0  0  0
  2  3  1  0  0  0  0
  2  1  2  0  0  0  0
  3  4  2  0  0  0  0
  4  5  1  0  0  0  0
  5 20  1  0  0  0  0
  6  5  2  0  0  0  0
  7  2  1  0  0  0  0
  8  9  1  0  0  0  0
  8  3  1  0  0  0  0
  9 10  1  0  0  0  0
 11 12  1  0  0  0  0
 11  9  2  0  0  0  0
 13 11  1  0  0  0  0
 14 13  2  0  0  0  0
 14 15  1  0  0  0  0
 15  8  2  0  0  0  0
 16  1  1  0  0  0  0
 16 18  1  0  0  0  0
 17 16  1  0  0  0  0
 19 16  1  0  0  0  0
 20 23  1  0  0  0  0
 20 21  1  0  0  0  0
 22 20  1  0  0  0  0
M  END
>  <minimizedAffinity>
-5.18543148

$$$$

 OpenBabel03252502333D

 23 24  0  0  0  0  0  0  0  0999 V2000
   37.1570   28.2320   41.8790 C   0  0  0  0  0  0  0  0  0  0  0  0
   36.2980   28.1180   40.7550 C   0  0  0  0  0  0  0  0  0  0  0  0
   36.3540   29.1650   39.8200 C   0  0  0  0  0  0  0  0  0  0  0  0
   37.2000   30.2020   40.0280 N   0  0  0  0  0  0  0  0  0  0  0  0
   37.9990   30.2680   41.1130 C   0  0  0  0  0  0  0  0  0  0  0  0
   37.9760   29.2850   42.0340 N   0  0  0  0  0  0  0  0  0  0  0  0
   35.6460   27.2780   40.6340 H   0  0  0  0  0  0  0  0  0  0  0  0
   35.4950   29.1050   38.6430 C   0  0  0  0  0  0  0  0  0  0  0  0
   36.0920   29.0880   37.4000 C   0  0  0  0  0  0  0  0  0  0  0  0
   37.1630   29.1180   37.2660 H   0  0  0  0  0  0  0  0  0  0  0  0
   35.2080   29.0310   36.3200 C   0  0  0  0  0  0  0  0  0  0  0  0
   35.6440   29.0170   35.3250 H   0  0  0  0  0  0  0  0  0  0  0  0
   33.8240   28.9940   36.5150 C   0  0  0  0  0  3  0  0  0  0  0  0
   33.2910   29.0130   37.8030 C   0  0  0  0  0  3  0  0  0  0  0  0
   34.1650   29.0700   38.8470 N   0  0  0  0  0  0  0  0  0  0  0  0
   37.1000   27.1190   42.8780 C   0  0  0  0  0  0  0  0  0  0  0  0
   35.9770   27.1500   43.6370 F   0  0  0  0  0  0  0  0  0  0  0  0
   37.2210   25.9080   42.1820 F   0  0  0  0  0  0  0  0  0  0  0  0
   38.2530   27.1780   43.6800 F   0  0  0  0  0  0  0  0  0  0  0  0
   38.9200   31.4120   41.3250 C   0  0  0  0  0  0  0  0  0  0  0  0
   39.4640   31.3850   42.5880 F   0  0  0  0  0  0  0  0  0  0  0  0
   38.2760   32.6210   41.0800 F   0  0  0  0  0  0  0  0  0  0  0  0
   39.9780   31.3750   40.4210 F   0  0  0  0  0  0  0  0  0  0  0  0
  1  6  1  0  0  0  0
  1 16  1  0  0  0  0
  2  1  2  0  0  0  0
  3  4  2  0  0  0  0
  3  2  1  0  0  0  0
  4  5  1  0  0  0  0
  5 20  1  0  0  0  0
  5  6  2  0  0  0  0
  7  2  1  0  0  0  0
  8 15  1  0  0  0  0
  8  3  1  0  0  0  0
  9  8  2  0  0  0  0
 10  9  1  0  0  0  0
 11 13  2  0  0  0  0
 11  9  1  0  0  0  0
 12 11  1  0  0  0  0
 13 14  1  0  0  0  0
 14 15  2  0  0  0  0
 16 17  1  0  0  0  0
 16 19  1  0  0  0  0
 18 16  1  0  0  0  0
 20 21  1  0  0  0  0
 22 20  1  0  0  0  0
 23 20  1  0  0  0  0
M  END
>  <minimizedAffinity>
-5.04914904

$$$$

 OpenBabel03252502333D

 23 24  0  0  0  0  0  0  0  0999 V2000
   37.6070   26.8190   41.8090 C   0  0  0  0  0  0  0  0  0  0  0  0
   38.8760   27.2680   42.2590 C   0  0  0  0  0  0  0  0  0  0  0  0
   39.1290   28.6450   42.1370 C   0  0  0  0  0  0  0  0  0  0  0  0
   38.1770   29.4540   41.6120 N   0  0  0  0  0  0  0  0  0  0  0  0
   36.9840   28.9820   41.1980 C   0  0  0  0  0  0  0  0  0  0  0  0
   36.7020   27.6680   41.2960 N   0  0  0  0  0  0  0  0  0  0  0  0
   39.5960   26.5900   42.6670 H   0  0  0  0  0  0  0  0  0  0  0  0
   40.4150   29.1670   42.5820 C   0  0  0  0  0  0  0  0  0  0  0  0
   41.3640   28.2700   43.0280 C   0  0  0  0  0  0  0  0  0  0  0  0
   41.1910   27.2050   43.0590 H   0  0  0  0  0  0  0  0  0  0  0  0
   42.5700   28.8410   43.4390 C   0  0  0  0  0  0  0  0  0  0  0  0
   43.3410   28.1640   43.7970 H   0  0  0  0  0  0  0  0  0  0  0  0
   42.7730   30.2230   43.3920 C   0  0  0  0  0  3  0  0  0  0  0  0
   41.7680   31.0700   42.9280 C   0  0  0  0  0  3  0  0  0  0  0  0
   40.5960   30.5000   42.5310 N   0  0  0  0  0  0  0  0  0  0  0  0
   37.3340   25.3530   41.9370 C   0  0  0  0  0  0  0  0  0  0  0  0
   38.4410   24.6370   42.2560 F   0  0  0  0  0  0  0  0  0  0  0  0
   36.3180   25.1840   42.8880 F   0  0  0  0  0  0  0  0  0  0  0  0
   36.7670   24.8970   40.7350 F   0  0  0  0  0  0  0  0  0  0  0  0
   35.9540   29.8830   40.6260 C   0  0  0  0  0  0  0  0  0  0  0  0
   34.7160   29.2830   40.6190 F   0  0  0  0  0  0  0  0  0  0  0  0
   36.3150   30.3050   39.3490 F   0  0  0  0  0  0  0  0  0  0  0  0
   35.8400   31.0510   41.3750 F   0  0  0  0  0  0  0  0  0  0  0  0
  1 16  1  0  0  0  0
  1  2  1  0  0  0  0
  2  7  1  0  0  0  0
  3  2  2  0  0  0  0
  3  8  1  0  0  0  0
  4  3  1  0  0  0  0
  5  6  1  0  0  0  0
  5  4  2  0  0  0  0
  6  1  2  0  0  0  0
  8  9  1  0  0  0  0
  9 10  1  0  0  0  0
  9 11  2  0  0  0  0
 11 12  1  0  0  0  0
 13 11  1  0  0  0  0
 14 13  2  0  0  0  0
 15  8  2  0  0  0  0
 15 14  1  0  0  0  0
 16 17  1  0  0  0  0
 16 18  1  0  0  0  0
 19 16  1  0  0  0  0
 20  5  1  0  0  0  0
 20 23  1  0  0  0  0
 21 20  1  0  0  0  0
 22 20  1  0  0  0  0
M  END
>  <minimizedAffinity>
-5.027596

$$$$

 OpenBabel03252502333D

 23 24  0  0  0  0  0  0  0  0999 V2000
   36.9310   29.0290   41.1820 C   0  0  0  0  0  0  0  0  0  0  0  0
   38.1520   29.6280   41.5880 C   0  0  0  0  0  0  0  0  0  0  0  0
   39.1240   28.7630   42.1190 C   0  0  0  0  0  0  0  0  0  0  0  0
   38.8570   27.4380   42.2160 N   0  0  0  0  0  0  0  0  0  0  0  0
   37.6800   26.9130   41.8170 C   0  0  0  0  0  0  0  0  0  0  0  0
   36.7210   27.7080   41.3030 N   0  0  0  0  0  0  0  0  0  0  0  0
   38.3170   30.6810   41.4910 H   0  0  0  0  0  0  0  0  0  0  0  0
   40.4000   29.3190   42.5530 C   0  0  0  0  0  0  0  0  0  0  0  0
   40.5450   30.6910   42.5570 C   0  0  0  0  0  0  0  0  0  0  0  0
   39.7570   31.3630   42.2540 H   0  0  0  0  0  0  0  0  0  0  0  0
   41.7930   31.1510   42.9840 C   0  0  0  0  0  0  0  0  0  0  0  0
   41.9430   32.2280   43.0000 H   0  0  0  0  0  0  0  0  0  0  0  0
   42.8020   30.2650   43.3710 C   0  0  0  0  0  3  0  0  0  0  0  0
   42.5830   28.8880   43.3410 C   0  0  0  0  0  3  0  0  0  0  0  0
   41.3610   28.4530   42.9230 N   0  0  0  0  0  0  0  0  0  0  0  0
   35.8930   29.9470   40.6160 C   0  0  0  0  0  0  0  0  0  0  0  0
   34.6730   29.3640   40.5150 F   0  0  0  0  0  0  0  0  0  0  0  0
   35.8510   31.0970   41.4180 F   0  0  0  0  0  0  0  0  0  0  0  0
   36.3390   30.4090   39.3660 F   0  0  0  0  0  0  0  0  0  0  0  0
   37.4060   25.4600   41.9310 C   0  0  0  0  0  0  0  0  0  0  0  0
   37.1340   24.9080   40.7010 F   0  0  0  0  0  0  0  0  0  0  0  0
   36.3720   25.2170   42.8310 F   0  0  0  0  0  0  0  0  0  0  0  0
   38.5060   24.7830   42.4510 F   0  0  0  0  0  0  0  0  0  0  0  0
  1  6  2  0  0  0  0
  1  2  1  0  0  0  0
  2  3  2  0  0  0  0
  3  4  1  0  0  0  0
  3  8  1  0  0  0  0
  5 20  1  0  0  0  0
  5  4  2  0  0  0  0
  6  5  1  0  0  0  0
  7  2  1  0  0  0  0
  8  9  2  0  0  0  0
  8 15  1  0  0  0  0
  9 11  1  0  0  0  0
 10  9  1  0  0  0  0
 11 12  1  0  0  0  0
 11 13  2  0  0  0  0
 14 13  1  0  0  0  0
 15 14  2  0  0  0  0
 16  1  1  0  0  0  0
 16 18  1  0  0  0  0
 17 16  1  0  0  0  0
 19 16  1  0  0  0  0
 20 23  1  0  0  0  0
 20 22  1  0  0  0  0
 21 20  1  0  0  0  0
M  END
>  <minimizedAffinity>
-5.00438595

$$$$

 OpenBabel03252502333D

 23 24  0  0  0  0  0  0  0  0999 V2000
   36.8810   30.0740   37.4820 C   0  0  0  0  0  0  0  0  0  0  0  0
   36.8070   28.9820   38.3860 C   0  0  0  0  0  0  0  0  0  0  0  0
   37.1020   29.2650   39.7300 C   0  0  0  0  0  0  0  0  0  0  0  0
   37.4330   30.5290   40.0890 N   0  0  0  0  0  0  0  0  0  0  0  0
   37.4910   31.5360   39.1940 C   0  0  0  0  0  0  0  0  0  0  0  0
   37.2150   31.3070   37.8950 N   0  0  0  0  0  0  0  0  0  0  0  0
   36.5400   28.0000   38.0550 H   0  0  0  0  0  0  0  0  0  0  0  0
   37.0430   28.1840   40.7070 C   0  0  0  0  0  0  0  0  0  0  0  0
   37.2600   26.8950   40.2660 C   0  0  0  0  0  0  0  0  0  0  0  0
   37.4700   26.6580   39.2340 H   0  0  0  0  0  0  0  0  0  0  0  0
   37.1870   25.9120   41.2560 C   0  0  0  0  0  0  0  0  0  0  0  0
   37.3530   24.8840   40.9450 H   0  0  0  0  0  0  0  0  0  0  0  0
   36.9120   26.2400   42.5870 C   0  0  0  0  0  3  0  0  0  0  0  0
   36.7040   27.5670   42.9600 C   0  0  0  0  0  3  0  0  0  0  0  0
   36.7780   28.5160   41.9840 N   0  0  0  0  0  0  0  0  0  0  0  0
   36.5680   29.7760   36.0490 C   0  0  0  0  0  0  0  0  0  0  0  0
   36.7380   30.8500   35.2390 F   0  0  0  0  0  0  0  0  0  0  0  0
   37.3660   28.6950   35.6480 F   0  0  0  0  0  0  0  0  0  0  0  0
   35.2530   29.2870   35.9710 F   0  0  0  0  0  0  0  0  0  0  0  0
   37.8550   32.9140   39.6050 C   0  0  0  0  0  0  0  0  0  0  0  0
   36.8790   33.8150   39.2450 F   0  0  0  0  0  0  0  0  0  0  0  0
   39.0930   33.2790   39.0850 F   0  0  0  0  0  0  0  0  0  0  0  0
   38.0030   33.0000   40.9870 F   0  0  0  0  0  0  0  0  0  0  0  0
  1  6  2  0  0  0  0
  1  2  1  0  0  0  0
  2  3  2  0  0  0  0
  3  4  1  0  0  0  0
  3  8  1  0  0  0  0
  5 20  1  0  0  0  0
  5  4  2  0  0  0  0
  6  5  1  0  0  0  0
  7  2  1  0  0  0  0
  8 15  1  0  0  0  0
  9  8  2  0  0  0  0
  9 11  1  0  0  0  0
 10  9  1  0  0  0  0
 11 13  2  0  0  0  0
 12 11  1  0  0  0  0
 13 14  1  0  0  0  0
 15 14  2  0  0  0  0
 16  1  1  0  0  0  0
 17 16  1  0  0  0  0
 18 16  1  0  0  0  0
 19 16  1  0  0  0  0
 20 23  1  0  0  0  0
 21 20  1  0  0  0  0
 22 20  1  0  0  0  0
M  END
>  <minimizedAffinity>
-4.90252638

$$$$

 OpenBabel03252502333D

 23 24  0  0  0  0  0  0  0  0999 V2000
   35.8590   28.6980   38.0030 C   0  0  0  0  0  0  0  0  0  0  0  0
   36.2420   28.1230   39.2430 C   0  0  0  0  0  0  0  0  0  0  0  0
   37.1260   28.8770   40.0320 C   0  0  0  0  0  0  0  0  0  0  0  0
   37.5580   30.0810   39.5860 N   0  0  0  0  0  0  0  0  0  0  0  0
   37.1660   30.5880   38.3990 C   0  0  0  0  0  0  0  0  0  0  0  0
   36.3190   29.8970   37.6120 N   0  0  0  0  0  0  0  0  0  0  0  0
   35.8730   27.1670   39.5530 H   0  0  0  0  0  0  0  0  0  0  0  0
   37.5570   28.3390   41.3170 C   0  0  0  0  0  0  0  0  0  0  0  0
   36.5870   27.9350   42.2130 C   0  0  0  0  0  0  0  0  0  0  0  0
   35.5320   28.0010   41.9990 H   0  0  0  0  0  0  0  0  0  0  0  0
   37.0730   27.4320   43.4220 C   0  0  0  0  0  0  0  0  0  0  0  0
   36.3370   27.1040   44.1510 H   0  0  0  0  0  0  0  0  0  0  0  0
   38.4450   27.3550   43.6790 C   0  0  0  0  0  3  0  0  0  0  0  0
   39.3680   27.7830   42.7250 C   0  0  0  0  0  3  0  0  0  0  0  0
   38.8800   28.2720   41.5500 N   0  0  0  0  0  0  0  0  0  0  0  0
   34.9170   27.8970   37.1590 C   0  0  0  0  0  0  0  0  0  0  0  0
   35.0370   26.5620   37.3580 F   0  0  0  0  0  0  0  0  0  0  0  0
   33.6140   28.3440   37.4240 F   0  0  0  0  0  0  0  0  0  0  0  0
   35.1320   28.2290   35.8110 F   0  0  0  0  0  0  0  0  0  0  0  0
   37.6490   31.9090   37.9270 C   0  0  0  0  0  0  0  0  0  0  0  0
   36.9530   32.9350   38.5240 F   0  0  0  0  0  0  0  0  0  0  0  0
   37.5830   31.9960   36.5400 F   0  0  0  0  0  0  0  0  0  0  0  0
   38.9940   32.0890   38.2380 F   0  0  0  0  0  0  0  0  0  0  0  0
  1  2  1  0  0  0  0
  2  7  1  0  0  0  0
  2  3  2  0  0  0  0
  3  8  1  0  0  0  0
  4  3  1  0  0  0  0
  5  4  2  0  0  0  0
  6  1  2  0  0  0  0
  6  5  1  0  0  0  0
  8 15  2  0  0  0  0
  8  9  1  0  0  0  0
  9 11  2  0  0  0  0
 10  9  1  0  0  0  0
 11 13  1  0  0  0  0
 11 12  1  0  0  0  0
 14 13  2  0  0  0  0
 15 14  1  0  0  0  0
 16 17  1  0  0  0  0
 16 18  1  0  0  0  0
 16  1  1  0  0  0  0
 19 16  1  0  0  0  0
 20 23  1  0  0  0  0
 20  5  1  0  0  0  0
 20 21  1  0  0  0  0
 22 20  1  0  0  0  0
M  END
>  <minimizedAffinity>
-4.7877779

$$$$
