
 OpenBabel03242511573D

 40 43  0  0  1  0  0  0  0  0999 V2000
   46.8960   33.9780   42.5720 C   0  0  2  0  0  0  0  0  0  0  0  0
   48.3340   34.3280   42.7220 C   0  0  0  0  0  0  0  0  0  0  0  0
   48.8040   35.3230   41.7270 C   0  0  0  0  0  0  0  0  0  0  0  0
   48.5220   34.9110   40.3000 C   0  0  0  0  0  0  0  0  0  0  0  0
   47.1700   34.2840   40.1090 C   0  0  0  0  0  0  0  0  0  0  0  0
   46.2680   34.4610   41.2960 C   0  0  1  0  0  0  0  0  0  0  0  0
   46.8470   32.8480   42.6000 H   0  0  0  0  0  0  0  0  0  0  0  0
   48.4620   34.7670   43.7340 H   0  0  0  0  0  0  0  0  0  0  0  0
   49.0040   33.4510   42.6830 H   0  0  0  0  0  0  0  0  0  0  0  0
   49.9110   35.4220   41.8170 H   0  0  0  0  0  0  0  0  0  0  0  0
   48.3820   36.3310   41.8600 H   0  0  0  0  0  0  0  0  0  0  0  0
   48.6810   35.8300   39.6820 H   0  0  0  0  0  0  0  0  0  0  0  0
   49.3050   34.1890   39.9710 H   0  0  0  0  0  0  0  0  0  0  0  0
   46.6780   34.8670   39.2770 H   0  0  0  0  0  0  0  0  0  0  0  0
   47.1990   33.2470   39.7360 H   0  0  0  0  0  0  0  0  0  0  0  0
   45.9070   35.4970   41.3260 H   0  0  0  0  0  0  0  0  0  0  0  0
   46.0780   34.4370   43.7120 C   0  0  0  0  0  0  0  0  0  0  0  0
   45.4290   35.6550   43.5050 C   0  0  0  0  0  0  0  0  0  0  0  0
   44.6140   36.1950   44.5100 C   0  0  0  0  0  0  0  0  0  0  0  0
   44.5160   35.4440   45.6760 N   0  0  0  0  0  0  0  0  0  0  0  0
   45.1610   34.2680   45.8390 C   0  0  0  0  0  0  0  0  0  0  0  0
   45.9360   33.7800   44.8520 N   0  0  0  0  0  0  0  0  0  0  0  0
   45.4020   36.3620   42.6930 H   0  0  0  0  0  0  0  0  0  0  0  0
   44.0530   37.1050   44.5100 H   0  0  0  0  0  0  0  0  0  0  0  0
   45.0420   33.7340   46.7710 H   0  0  0  0  0  0  0  0  0  0  0  0
   45.0390   33.6080   41.0640 C   0  0  2  0  0  0  0  0  0  0  0  0
   44.5650   33.4090   39.6460 C   0  0  0  0  0  0  0  0  0  0  0  0
   43.7690   34.2140   40.6040 C   0  0  1  0  0  0  0  0  0  0  0  0
   44.9660   32.7470   41.7600 H   0  0  0  0  0  0  0  0  0  0  0  0
   44.1730   32.3860   39.4090 H   0  0  0  0  0  0  0  0  0  0  0  0
   45.1350   33.8730   38.8210 H   0  0  0  0  0  0  0  0  0  0  0  0
   43.7740   35.3040   40.3560 H   0  0  0  0  0  0  0  0  0  0  0  0
   42.4570   33.6960   41.0160 C   0  0  0  0  0  0  0  0  0  0  0  0
   41.4220   34.5870   41.1510 C   0  0  0  0  0  0  0  0  0  0  0  0
   41.4960   35.6620   40.9730 H   0  0  0  0  0  0  0  0  0  0  0  0
   40.1480   34.1720   41.5380 C   0  0  0  0  0  0  0  0  0  0  0  0
   39.3170   34.8530   41.6510 H   0  0  0  0  0  0  0  0  0  0  0  0
   40.0040   32.8010   41.7760 C   0  0  0  0  0  0  0  0  0  0  0  0
   41.0400   31.8970   41.6440 C   0  0  0  0  0  0  0  0  0  0  0  0
   42.2420   32.3800   41.2650 N   0  0  0  0  0  0  0  0  0  0  0  0
  1  7  1  6  0  0  0
  1  2  1  0  0  0  0
  1 17  1  0  0  0  0
  2  8  1  0  0  0  0
  3 10  1  0  0  0  0
  3 11  1  0  0  0  0
  3  2  1  0  0  0  0
  4  3  1  0  0  0  0
  5  4  1  0  0  0  0
  5  6  1  0  0  0  0
  6 16  1  1  0  0  0
  6  1  1  0  0  0  0
  9  2  1  0  0  0  0
 12  4  1  0  0  0  0
 13  4  1  0  0  0  0
 14  5  1  0  0  0  0
 15  5  1  0  0  0  0
 17 22  1  0  0  0  0
 18 17  2  0  0  0  0
 18 19  1  0  0  0  0
 19 20  2  0  0  0  0
 20 21  1  0  0  0  0
 21 25  1  0  0  0  0
 22 21  2  0  0  0  0
 23 18  1  0  0  0  0
 24 19  1  0  0  0  0
 26  6  1  0  0  0  0
 26 29  1  1  0  0  0
 27 28  1  0  0  0  0
 27 26  1  0  0  0  0
 28 32  1  6  0  0  0
 28 33  1  0  0  0  0
 28 26  1  0  0  0  0
 30 27  1  0  0  0  0
 31 27  1  0  0  0  0
 33 34  2  0  0  0  0
 33 40  1  0  0  0  0
 34 36  1  0  0  0  0
 35 34  1  0  0  0  0
 36 37  1  0  0  0  0
 36 38  2  0  0  0  0
 39 38  1  0  0  0  0
 40 39  2  0  0  0  0
M  END
>  <minimizedAffinity>
-6.37794924

>  <minimizedRMSD>
1.3516134

$$$$
