
 OpenBabel03242518413D

 38 41  0  0  1  0  0  0  0  0999 V2000
   36.8370   30.8540   40.8730 C   0  0  0  0  0  0  0  0  0  0  0  0
   35.8230   30.1710   40.2030 C   0  0  0  0  0  0  0  0  0  0  0  0
   35.6700   28.9240   40.7670 C   0  0  0  0  0  0  0  0  0  0  0  0
   36.5980   28.9030   41.7580 C   0  0  0  0  0  0  0  0  0  0  0  0
   37.2700   30.0350   41.8070 O   0  0  0  0  0  0  0  0  0  0  0  0
   35.3210   30.6690   39.3840 H   0  0  0  0  0  0  0  0  0  0  0  0
   34.9620   28.2050   40.4400 H   0  0  0  0  0  0  0  0  0  0  0  0
   36.8320   27.7580   42.6700 C   0  0  2  0  0  0  0  0  0  0  0  0
   37.3000   27.9870   44.0370 C   0  0  0  0  0  0  0  0  0  0  0  0
   38.3240   27.5680   43.0450 C   0  0  1  0  0  0  0  0  0  0  0  0
   36.2700   26.8510   42.4350 H   0  0  0  0  0  0  0  0  0  0  0  0
   36.9930   27.3000   44.8470 H   0  0  0  0  0  0  0  0  0  0  0  0
   37.4720   29.0210   44.4340 H   0  0  0  0  0  0  0  0  0  0  0  0
   39.0350   28.2750   42.6020 H   0  0  0  0  0  0  0  0  0  0  0  0
   39.9260   25.8080   43.7370 C   0  0  0  0  0  0  0  0  0  0  0  0
   40.7330   26.6470   44.2340 O   0  0  0  0  0  0  0  0  0  0  0  0
   38.7220   26.1660   43.0770 N   0  0  0  0  0  0  0  0  0  0  0  0
   40.1600   24.7580   43.8140 H   0  0  0  0  0  0  0  0  0  0  0  0
   38.1100   25.4640   42.6130 H   0  0  0  0  0  0  0  0  0  0  0  0
   37.3870   32.1490   40.7020 O   0  0  0  0  0  0  0  0  0  0  0  0
   38.6280   32.2730   40.0150 C   0  0  0  0  0  0  0  0  0  0  0  0
   38.9750   31.3040   39.3160 O   0  0  0  0  0  0  0  0  0  0  0  0
   39.3160   33.5050   40.2190 C   0  0  0  0  0  0  0  0  0  0  0  0
   38.5570   34.6270   40.0720 C   0  0  0  0  0  0  0  0  0  0  0  0
   39.1630   35.8800   40.2590 C   0  0  0  0  0  0  0  0  0  0  0  0
   40.4650   35.9180   40.5760 N   0  0  0  0  0  0  0  0  0  0  0  0
   41.1880   34.7810   40.7140 C   0  0  0  0  0  0  0  0  0  0  0  0
   40.6010   33.6070   40.5330 N   0  0  0  0  0  0  0  0  0  0  0  0
   37.5110   34.6310   39.8190 H   0  0  0  0  0  0  0  0  0  0  0  0
   38.5770   36.7850   40.1460 H   0  0  0  0  0  0  0  0  0  0  0  0
   42.6130   34.8620   41.0620 C   0  0  0  0  0  0  0  0  0  0  0  0
   43.0100   35.6510   42.1220 C   0  0  0  0  0  0  0  0  0  0  0  0
   42.2300   36.1820   42.6560 H   0  0  0  0  0  0  0  0  0  0  0  0
   44.3240   35.7830   42.5150 C   0  0  0  0  0  0  0  0  0  0  0  0
   44.6440   36.3990   43.3450 H   0  0  0  0  0  0  0  0  0  0  0  0
   45.2060   35.0540   41.7510 C   0  0  0  0  0  3  0  0  0  0  0  0
   44.8600   34.2500   40.6810 C   0  0  0  0  0  3  0  0  0  0  0  0
   43.5360   34.1710   40.3530 N   0  0  0  0  0  0  0  0  0  0  0  0
  1  5  1  0  0  0  0
  2  3  1  0  0  0  0
  2  1  2  0  0  0  0
  3  4  2  0  0  0  0
  4  5  1  0  0  0  0
  4  8  1  0  0  0  0
  6  2  1  0  0  0  0
  7  3  1  0  0  0  0
  8 11  1  6  0  0  0
  8 10  1  0  0  0  0
  8  9  1  0  0  0  0
  9 13  1  0  0  0  0
  9 12  1  0  0  0  0
 10 14  1  6  0  0  0
 10 17  1  0  0  0  0
 10  9  1  0  0  0  0
 15 18  1  0  0  0  0
 15 16  2  0  0  0  0
 17 15  1  0  0  0  0
 19 17  1  0  0  0  0
 20  1  1  0  0  0  0
 21 23  1  0  0  0  0
 21 20  1  0  0  0  0
 22 21  2  0  0  0  0
 23 28  1  0  0  0  0
 24 23  2  0  0  0  0
 24 25  1  0  0  0  0
 25 26  2  0  0  0  0
 26 27  1  0  0  0  0
 27 31  1  0  0  0  0
 28 27  2  0  0  0  0
 29 24  1  0  0  0  0
 30 25  1  0  0  0  0
 31 32  1  0  0  0  0
 32 34  2  0  0  0  0
 32 33  1  0  0  0  0
 34 35  1  0  0  0  0
 36 34  1  0  0  0  0
 37 36  2  0  0  0  0
 38 37  1  0  0  0  0
 38 31  2  0  0  0  0
M  END
>  <minimizedAffinity>
-6.805758

$$$$

 OpenBabel03242518413D

 38 41  0  0  1  0  0  0  0  0999 V2000
   37.3480   29.6050   42.0910 C   0  0  0  0  0  0  0  0  0  0  0  0
   36.3120   29.0500   41.3400 C   0  0  0  0  0  0  0  0  0  0  0  0
   35.9690   29.9220   40.3310 C   0  0  0  0  0  0  0  0  0  0  0  0
   36.8120   30.9710   40.5110 C   0  0  0  0  0  0  0  0  0  0  0  0
   37.6100   30.7710   41.5410 O   0  0  0  0  0  0  0  0  0  0  0  0
   35.9360   28.0750   41.6230 H   0  0  0  0  0  0  0  0  0  0  0  0
   35.2060   29.7370   39.6180 H   0  0  0  0  0  0  0  0  0  0  0  0
   36.8380   32.1880   39.6640 C   0  0  2  0  0  0  0  0  0  0  0  0
   37.7990   32.3030   38.5670 C   0  0  0  0  0  0  0  0  0  0  0  0
   38.1370   33.0180   39.8250 C   0  0  1  0  0  0  0  0  0  0  0  0
   35.9020   32.7500   39.6270 H   0  0  0  0  0  0  0  0  0  0  0  0
   37.5300   32.8700   37.6570 H   0  0  0  0  0  0  0  0  0  0  0  0
   38.5170   31.4780   38.3260 H   0  0  0  0  0  0  0  0  0  0  0  0
   38.8800   32.6360   40.5360 H   0  0  0  0  0  0  0  0  0  0  0  0
   38.9340   35.3300   40.2330 C   0  0  0  0  0  0  0  0  0  0  0  0
   40.0600   34.9350   40.6570 O   0  0  0  0  0  0  0  0  0  0  0  0
   37.8880   34.4540   39.8410 N   0  0  0  0  0  0  0  0  0  0  0  0
   38.7510   36.3900   40.1630 H   0  0  0  0  0  0  0  0  0  0  0  0
   36.9450   34.8000   39.5650 H   0  0  0  0  0  0  0  0  0  0  0  0
   38.0630   29.1350   43.2200 O   0  0  0  0  0  0  0  0  0  0  0  0
   37.6410   27.9210   43.8340 C   0  0  0  0  0  0  0  0  0  0  0  0
   36.7710   28.0200   44.7180 O   0  0  0  0  0  0  0  0  0  0  0  0
   38.2770   26.7410   43.3500 C   0  0  0  0  0  0  0  0  0  0  0  0
   39.5240   26.5060   43.8470 C   0  0  0  0  0  0  0  0  0  0  0  0
   40.2150   25.3610   43.4210 C   0  0  0  0  0  0  0  0  0  0  0  0
   39.6170   24.5450   42.5420 N   0  0  0  0  0  0  0  0  0  0  0  0
   38.3750   24.8100   42.0700 C   0  0  0  0  0  0  0  0  0  0  0  0
   37.7370   25.8950   42.4820 N   0  0  0  0  0  0  0  0  0  0  0  0
   40.0320   27.1400   44.5530 H   0  0  0  0  0  0  0  0  0  0  0  0
   41.2090   25.1570   43.8030 H   0  0  0  0  0  0  0  0  0  0  0  0
   37.7500   23.8920   41.1080 C   0  0  0  0  0  0  0  0  0  0  0  0
   36.4790   24.1580   40.6400 C   0  0  0  0  0  0  0  0  0  0  0  0
   35.9980   25.0540   41.0160 H   0  0  0  0  0  0  0  0  0  0  0  0
   35.8220   23.3510   39.7380 C   0  0  0  0  0  0  0  0  0  0  0  0
   34.8260   23.5520   39.3670 H   0  0  0  0  0  0  0  0  0  0  0  0
   36.5510   22.2510   39.3460 C   0  0  0  0  0  3  0  0  0  0  0  0
   37.8240   21.9400   39.7840 C   0  0  0  0  0  3  0  0  0  0  0  0
   38.4100   22.7900   40.6780 N   0  0  0  0  0  0  0  0  0  0  0  0
  1 20  1  0  0  0  0
  2  6  1  0  0  0  0
  2  1  2  0  0  0  0
  3  4  2  0  0  0  0
  3  2  1  0  0  0  0
  4  5  1  0  0  0  0
  5  1  1  0  0  0  0
  7  3  1  0  0  0  0
  8 11  1  6  0  0  0
  8 10  1  0  0  0  0
  8  4  1  0  0  0  0
  9  8  1  0  0  0  0
  9 10  1  0  0  0  0
 10 17  1  0  0  0  0
 10 14  1  1  0  0  0
 12  9  1  0  0  0  0
 13  9  1  0  0  0  0
 15 16  2  0  0  0  0
 17 15  1  0  0  0  0
 18 15  1  0  0  0  0
 19 17  1  0  0  0  0
 20 21  1  0  0  0  0
 21 22  2  0  0  0  0
 23 21  1  0  0  0  0
 23 24  1  0  0  0  0
 24 29  1  0  0  0  0
 25 30  1  0  0  0  0
 25 24  2  0  0  0  0
 26 25  1  0  0  0  0
 27 28  1  0  0  0  0
 27 26  2  0  0  0  0
 28 23  2  0  0  0  0
 31 27  1  0  0  0  0
 32 33  1  0  0  0  0
 32 31  2  0  0  0  0
 34 32  1  0  0  0  0
 35 34  1  0  0  0  0
 36 34  2  0  0  0  0
 36 37  1  0  0  0  0
 37 38  2  0  0  0  0
 38 31  1  0  0  0  0
M  END
>  <minimizedAffinity>
-6.63064814

$$$$

 OpenBabel03242518413D

 38 41  0  0  1  0  0  0  0  0999 V2000
   37.8660   31.8620   39.8940 C   0  0  0  0  0  0  0  0  0  0  0  0
   37.0690   32.7030   39.1200 C   0  0  0  0  0  0  0  0  0  0  0  0
   37.4210   34.0110   39.3670 C   0  0  0  0  0  0  0  0  0  0  0  0
   38.4190   33.9090   40.2810 C   0  0  0  0  0  0  0  0  0  0  0  0
   38.6670   32.6500   40.5790 O   0  0  0  0  0  0  0  0  0  0  0  0
   36.3280   32.2560   38.4700 H   0  0  0  0  0  0  0  0  0  0  0  0
   36.9640   34.8490   38.9040 H   0  0  0  0  0  0  0  0  0  0  0  0
   39.1420   35.0600   40.8750 C   0  0  2  0  0  0  0  0  0  0  0  0
   39.5870   36.1680   40.0290 C   0  0  0  0  0  0  0  0  0  0  0  0
   40.6160   35.1650   40.4070 C   0  0  1  0  0  0  0  0  0  0  0  0
   38.9540   35.2300   41.9370 H   0  0  0  0  0  0  0  0  0  0  0  0
   39.6280   37.1930   40.4410 H   0  0  0  0  0  0  0  0  0  0  0  0
   39.3780   36.1870   38.9280 H   0  0  0  0  0  0  0  0  0  0  0  0
   40.9660   34.3930   39.7110 H   0  0  0  0  0  0  0  0  0  0  0  0
   42.8240   34.9770   41.5170 C   0  0  0  0  0  0  0  0  0  0  0  0
   43.2280   34.0920   40.7080 O   0  0  0  0  0  0  0  0  0  0  0  0
   41.5220   35.5410   41.4850 N   0  0  0  0  0  0  0  0  0  0  0  0
   43.5020   35.3290   42.2780 H   0  0  0  0  0  0  0  0  0  0  0  0
   41.1880   36.2150   42.2050 H   0  0  0  0  0  0  0  0  0  0  0  0
   37.9190   30.4510   40.0200 O   0  0  0  0  0  0  0  0  0  0  0  0
   37.0570   29.8210   40.9610 C   0  0  0  0  0  0  0  0  0  0  0  0
   35.9000   30.2720   41.0420 O   0  0  0  0  0  0  0  0  0  0  0  0
   37.6370   28.7450   41.6950 C   0  0  0  0  0  0  0  0  0  0  0  0
   36.8270   27.6650   41.8820 C   0  0  0  0  0  0  0  0  0  0  0  0
   37.3280   26.5630   42.5930 C   0  0  0  0  0  0  0  0  0  0  0  0
   38.5830   26.6200   43.0580 N   0  0  0  0  0  0  0  0  0  0  0  0
   39.3590   27.7110   42.8520 C   0  0  0  0  0  0  0  0  0  0  0  0
   38.8720   28.7420   42.1790 N   0  0  0  0  0  0  0  0  0  0  0  0
   35.8160   27.5870   41.5220 H   0  0  0  0  0  0  0  0  0  0  0  0
   36.6990   25.6940   42.7540 H   0  0  0  0  0  0  0  0  0  0  0  0
   40.7320   27.7370   43.3770 C   0  0  0  0  0  0  0  0  0  0  0  0
   41.1450   26.7540   44.2530 C   0  0  0  0  0  0  0  0  0  0  0  0
   40.4160   25.9950   44.5140 H   0  0  0  0  0  0  0  0  0  0  0  0
   42.4120   26.7050   44.7900 C   0  0  0  0  0  0  0  0  0  0  0  0
   42.7440   25.9380   45.4780 H   0  0  0  0  0  0  0  0  0  0  0  0
   43.2300   27.7290   44.3730 C   0  0  0  0  0  3  0  0  0  0  0  0
   42.8660   28.7360   43.4990 C   0  0  0  0  0  3  0  0  0  0  0  0
   41.5910   28.7160   43.0080 N   0  0  0  0  0  0  0  0  0  0  0  0
  1 20  1  0  0  0  0
  1  5  1  0  0  0  0
  2  3  1  0  0  0  0
  2  1  2  0  0  0  0
  3  4  2  0  0  0  0
  4  5  1  0  0  0  0
  4  8  1  0  0  0  0
  6  2  1  0  0  0  0
  7  3  1  0  0  0  0
  8 11  1  1  0  0  0
  9 10  1  0  0  0  0
  9 12  1  0  0  0  0
  9  8  1  0  0  0  0
 10 14  1  6  0  0  0
 10  8  1  0  0  0  0
 10 17  1  0  0  0  0
 13  9  1  0  0  0  0
 15 18  1  0  0  0  0
 16 15  2  0  0  0  0
 17 15  1  0  0  0  0
 17 19  1  0  0  0  0
 20 21  1  0  0  0  0
 21 22  2  0  0  0  0
 21 23  1  0  0  0  0
 23 24  2  0  0  0  0
 23 28  1  0  0  0  0
 24 25  1  0  0  0  0
 25 30  1  0  0  0  0
 25 26  2  0  0  0  0
 27 26  1  0  0  0  0
 27 31  1  0  0  0  0
 28 27  2  0  0  0  0
 29 24  1  0  0  0  0
 31 32  1  0  0  0  0
 32 33  1  0  0  0  0
 32 34  2  0  0  0  0
 34 35  1  0  0  0  0
 36 34  1  0  0  0  0
 37 36  2  0  0  0  0
 38 31  2  0  0  0  0
 38 37  1  0  0  0  0
M  END
>  <minimizedAffinity>
-6.29973078

$$$$

 OpenBabel03242518413D

 38 41  0  0  1  0  0  0  0  0999 V2000
   38.9470   34.1080   40.4720 C   0  0  0  0  0  0  0  0  0  0  0  0
   39.0760   35.4490   40.1150 C   0  0  0  0  0  0  0  0  0  0  0  0
   40.4120   35.7810   40.0800 C   0  0  0  0  0  0  0  0  0  0  0  0
   41.0390   34.6250   40.4170 C   0  0  0  0  0  0  0  0  0  0  0  0
   40.1720   33.6590   40.6430 O   0  0  0  0  0  0  0  0  0  0  0  0
   38.1760   36.0200   39.9240 H   0  0  0  0  0  0  0  0  0  0  0  0
   40.7800   36.7440   39.8340 H   0  0  0  0  0  0  0  0  0  0  0  0
   42.5090   34.4620   40.5200 C   0  0  2  0  0  0  0  0  0  0  0  0
   43.0790   33.4580   41.4200 C   0  0  0  0  0  0  0  0  0  0  0  0
   43.0740   34.8620   41.9070 C   0  0  1  0  0  0  0  0  0  0  0  0
   43.0780   34.7930   39.6490 H   0  0  0  0  0  0  0  0  0  0  0  0
   44.0310   32.9610   41.1580 H   0  0  0  0  0  0  0  0  0  0  0  0
   42.4290   32.7800   42.0310 H   0  0  0  0  0  0  0  0  0  0  0  0
   42.3490   35.2230   42.6470 H   0  0  0  0  0  0  0  0  0  0  0  0
   45.1900   35.6280   42.9460 C   0  0  0  0  0  0  0  0  0  0  0  0
   44.8870   35.1440   44.0750 O   0  0  0  0  0  0  0  0  0  0  0  0
   44.3360   35.5850   41.8130 N   0  0  0  0  0  0  0  0  0  0  0  0
   46.1510   36.1020   42.8280 H   0  0  0  0  0  0  0  0  0  0  0  0
   44.5760   36.0530   40.9150 H   0  0  0  0  0  0  0  0  0  0  0  0
   37.8150   33.2750   40.6500 O   0  0  0  0  0  0  0  0  0  0  0  0
   37.6790   32.1270   39.8190 C   0  0  0  0  0  0  0  0  0  0  0  0
   37.7680   32.3180   38.5920 O   0  0  0  0  0  0  0  0  0  0  0  0
   37.4580   30.8990   40.5060 C   0  0  0  0  0  0  0  0  0  0  0  0
   36.1890   30.4060   40.4240 C   0  0  0  0  0  0  0  0  0  0  0  0
   35.8930   29.1970   41.0740 C   0  0  0  0  0  0  0  0  0  0  0  0
   36.8720   28.5780   41.7480 N   0  0  0  0  0  0  0  0  0  0  0  0
   38.1210   29.0970   41.8070 C   0  0  0  0  0  0  0  0  0  0  0  0
   38.3840   30.2390   41.1880 N   0  0  0  0  0  0  0  0  0  0  0  0
   35.3810   30.8780   39.8920 H   0  0  0  0  0  0  0  0  0  0  0  0
   34.8890   28.7890   41.0220 H   0  0  0  0  0  0  0  0  0  0  0  0
   39.1690   28.3890   42.5550 C   0  0  0  0  0  0  0  0  0  0  0  0
   38.8580   27.2240   43.2250 C   0  0  0  0  0  0  0  0  0  0  0  0
   37.8300   26.8830   43.1620 H   0  0  0  0  0  0  0  0  0  0  0  0
   39.7790   26.4990   43.9480 C   0  0  0  0  0  0  0  0  0  0  0  0
   39.5430   25.5850   44.4760 H   0  0  0  0  0  0  0  0  0  0  0  0
   41.0420   27.0460   43.9420 C   0  0  0  0  0  3  0  0  0  0  0  0
   41.4040   28.2080   43.2880 C   0  0  0  0  0  3  0  0  0  0  0  0
   40.4340   28.8700   42.5910 N   0  0  0  0  0  0  0  0  0  0  0  0
  1  5  1  0  0  0  0
  1 20  1  0  0  0  0
  2  1  2  0  0  0  0
  3  2  1  0  0  0  0
  3  4  2  0  0  0  0
  4  8  1  0  0  0  0
  4  5  1  0  0  0  0
  6  2  1  0  0  0  0
  7  3  1  0  0  0  0
  8 11  1  6  0  0  0
  8  9  1  0  0  0  0
  8 10  1  0  0  0  0
  9 10  1  0  0  0  0
  9 13  1  0  0  0  0
 10 14  1  1  0  0  0
 12  9  1  0  0  0  0
 15 16  2  0  0  0  0
 17 10  1  0  0  0  0
 17 15  1  0  0  0  0
 18 15  1  0  0  0  0
 19 17  1  0  0  0  0
 21 23  1  0  0  0  0
 21 20  1  0  0  0  0
 22 21  2  0  0  0  0
 23 28  1  0  0  0  0
 24 23  2  0  0  0  0
 24 25  1  0  0  0  0
 25 26  2  0  0  0  0
 26 27  1  0  0  0  0
 27 31  1  0  0  0  0
 28 27  2  0  0  0  0
 29 24  1  0  0  0  0
 30 25  1  0  0  0  0
 31 38  2  0  0  0  0
 31 32  1  0  0  0  0
 32 34  2  0  0  0  0
 33 32  1  0  0  0  0
 34 35  1  0  0  0  0
 36 34  1  0  0  0  0
 37 36  2  0  0  0  0
 38 37  1  0  0  0  0
M  END
>  <minimizedAffinity>
-6.2723279

$$$$

 OpenBabel03242518413D

 38 41  0  0  1  0  0  0  0  0999 V2000
   37.3210   28.8250   42.4040 C   0  0  0  0  0  0  0  0  0  0  0  0
   38.4670   28.4430   43.1010 C   0  0  0  0  0  0  0  0  0  0  0  0
   38.5130   27.0690   43.1760 C   0  0  0  0  0  0  0  0  0  0  0  0
   37.3910   26.6740   42.5220 C   0  0  0  0  0  0  0  0  0  0  0  0
   36.7070   27.7080   42.0770 O   0  0  0  0  0  0  0  0  0  0  0  0
   39.1290   29.2180   43.4670 H   0  0  0  0  0  0  0  0  0  0  0  0
   39.2850   26.5250   43.6570 H   0  0  0  0  0  0  0  0  0  0  0  0
   36.9810   25.2620   42.3280 C   0  0  2  0  0  0  0  0  0  0  0  0
   37.9800   24.2390   42.0180 C   0  0  0  0  0  0  0  0  0  0  0  0
   37.1840   24.7590   40.8760 C   0  0  1  0  0  0  0  0  0  0  0  0
   36.0460   24.9770   42.8160 H   0  0  0  0  0  0  0  0  0  0  0  0
   37.8350   23.2020   42.3740 H   0  0  0  0  0  0  0  0  0  0  0  0
   39.0700   24.4860   41.9410 H   0  0  0  0  0  0  0  0  0  0  0  0
   37.5920   25.4810   40.1580 H   0  0  0  0  0  0  0  0  0  0  0  0
   35.8390   23.8160   39.0200 C   0  0  0  0  0  0  0  0  0  0  0  0
   36.4620   24.4830   38.1430 O   0  0  0  0  0  0  0  0  0  0  0  0
   36.0880   23.9170   40.4130 N   0  0  0  0  0  0  0  0  0  0  0  0
   35.0730   23.1280   38.6980 H   0  0  0  0  0  0  0  0  0  0  0  0
   35.5140   23.4130   41.1210 H   0  0  0  0  0  0  0  0  0  0  0  0
   36.8020   30.0940   42.0480 O   0  0  0  0  0  0  0  0  0  0  0  0
   36.4550   30.3280   40.6870 C   0  0  0  0  0  0  0  0  0  0  0  0
   35.3270   29.9430   40.3290 O   0  0  0  0  0  0  0  0  0  0  0  0
   37.4530   30.9800   39.9060 C   0  0  0  0  0  0  0  0  0  0  0  0
   37.6760   30.4370   38.6760 C   0  0  0  0  0  0  0  0  0  0  0  0
   38.6440   31.0240   37.8450 C   0  0  0  0  0  0  0  0  0  0  0  0
   39.3070   32.0970   38.2990 N   0  0  0  0  0  0  0  0  0  0  0  0
   39.0580   32.6090   39.5270 C   0  0  0  0  0  0  0  0  0  0  0  0
   38.1420   32.0430   40.2980 N   0  0  0  0  0  0  0  0  0  0  0  0
   37.1610   29.5770   38.2820 H   0  0  0  0  0  0  0  0  0  0  0  0
   38.8370   30.6060   36.8630 H   0  0  0  0  0  0  0  0  0  0  0  0
   39.8060   33.7870   39.9900 C   0  0  0  0  0  0  0  0  0  0  0  0
   39.1490   34.9920   40.1430 C   0  0  0  0  0  0  0  0  0  0  0  0
   38.0910   35.0060   39.9080 H   0  0  0  0  0  0  0  0  0  0  0  0
   39.7740   36.1420   40.5710 C   0  0  0  0  0  0  0  0  0  0  0  0
   39.2670   37.0910   40.6940 H   0  0  0  0  0  0  0  0  0  0  0  0
   41.1150   35.9800   40.8320 C   0  0  0  0  0  3  0  0  0  0  0  0
   41.8170   34.7980   40.6950 C   0  0  0  0  0  3  0  0  0  0  0  0
   41.1280   33.6990   40.2660 N   0  0  0  0  0  0  0  0  0  0  0  0
  1  2  2  0  0  0  0
  2  3  1  0  0  0  0
  2  6  1  0  0  0  0
  3  7  1  0  0  0  0
  4  3  2  0  0  0  0
  5  1  1  0  0  0  0
  5  4  1  0  0  0  0
  8  4  1  0  0  0  0
  8 11  1  1  0  0  0
  9  8  1  0  0  0  0
  9 12  1  0  0  0  0
 10 14  1  6  0  0  0
 10  9  1  0  0  0  0
 10  8  1  0  0  0  0
 13  9  1  0  0  0  0
 15 17  1  0  0  0  0
 16 15  2  0  0  0  0
 17 10  1  0  0  0  0
 17 19  1  0  0  0  0
 18 15  1  0  0  0  0
 20  1  1  0  0  0  0
 21 20  1  0  0  0  0
 22 21  2  0  0  0  0
 23 28  1  0  0  0  0
 23 21  1  0  0  0  0
 24 23  2  0  0  0  0
 25 26  2  0  0  0  0
 25 24  1  0  0  0  0
 26 27  1  0  0  0  0
 27 31  1  0  0  0  0
 27 28  2  0  0  0  0
 29 24  1  0  0  0  0
 30 25  1  0  0  0  0
 31 32  2  0  0  0  0
 31 38  1  0  0  0  0
 32 34  1  0  0  0  0
 33 32  1  0  0  0  0
 34 35  1  0  0  0  0
 34 36  2  0  0  0  0
 37 36  1  0  0  0  0
 38 37  2  0  0  0  0
M  END
>  <minimizedAffinity>
-6.08483362

$$$$

 OpenBabel03242518413D

 38 41  0  0  1  0  0  0  0  0999 V2000
   39.4170   34.0360   40.4750 C   0  0  0  0  0  0  0  0  0  0  0  0
   39.5910   35.4000   40.2480 C   0  0  0  0  0  0  0  0  0  0  0  0
   40.7840   35.6000   39.5910 C   0  0  0  0  0  0  0  0  0  0  0  0
   41.2850   34.3470   39.4460 C   0  0  0  0  0  0  0  0  0  0  0  0
   40.4770   33.4450   39.9660 O   0  0  0  0  0  0  0  0  0  0  0  0
   38.8220   36.0810   40.5910 H   0  0  0  0  0  0  0  0  0  0  0  0
   41.1530   36.5510   39.3010 H   0  0  0  0  0  0  0  0  0  0  0  0
   42.5750   34.0240   38.7890 C   0  0  2  0  0  0  0  0  0  0  0  0
   42.7590   34.2780   37.3600 C   0  0  0  0  0  0  0  0  0  0  0  0
   42.4650   32.8750   37.7540 C   0  0  1  0  0  0  0  0  0  0  0  0
   43.4430   34.0010   39.4520 H   0  0  0  0  0  0  0  0  0  0  0  0
   43.7580   34.5510   36.9730 H   0  0  0  0  0  0  0  0  0  0  0  0
   41.9500   34.7360   36.7360 H   0  0  0  0  0  0  0  0  0  0  0  0
   41.4730   32.4260   37.6230 H   0  0  0  0  0  0  0  0  0  0  0  0
   43.6640   30.8920   36.8730 C   0  0  0  0  0  0  0  0  0  0  0  0
   42.7430   30.6230   36.0480 O   0  0  0  0  0  0  0  0  0  0  0  0
   43.6010   31.9630   37.8020 N   0  0  0  0  0  0  0  0  0  0  0  0
   44.5500   30.2790   36.8780 H   0  0  0  0  0  0  0  0  0  0  0  0
   44.3380   32.1230   38.5210 H   0  0  0  0  0  0  0  0  0  0  0  0
   38.3800   33.2990   41.1000 O   0  0  0  0  0  0  0  0  0  0  0  0
   37.5510   32.4730   40.2890 C   0  0  0  0  0  0  0  0  0  0  0  0
   37.0910   32.9920   39.2560 O   0  0  0  0  0  0  0  0  0  0  0  0
   37.3540   31.1470   40.7710 C   0  0  0  0  0  0  0  0  0  0  0  0
   36.1280   30.6100   40.5140 C   0  0  0  0  0  0  0  0  0  0  0  0
   35.8580   29.3040   40.9560 C   0  0  0  0  0  0  0  0  0  0  0  0
   36.8190   28.6410   41.6120 N   0  0  0  0  0  0  0  0  0  0  0  0
   38.0270   29.2070   41.8490 C   0  0  0  0  0  0  0  0  0  0  0  0
   38.2660   30.4390   41.4260 N   0  0  0  0  0  0  0  0  0  0  0  0
   35.3350   31.1150   39.9900 H   0  0  0  0  0  0  0  0  0  0  0  0
   34.8880   28.8590   40.7620 H   0  0  0  0  0  0  0  0  0  0  0  0
   39.0570   28.4480   42.5720 C   0  0  0  0  0  0  0  0  0  0  0  0
   38.7010   27.3130   43.2710 C   0  0  0  0  0  0  0  0  0  0  0  0
   37.6540   27.0330   43.2490 H   0  0  0  0  0  0  0  0  0  0  0  0
   39.6030   26.5450   43.9740 C   0  0  0  0  0  0  0  0  0  0  0  0
   39.3330   25.6530   44.5240 H   0  0  0  0  0  0  0  0  0  0  0  0
   40.8950   27.0150   43.9150 C   0  0  0  0  0  3  0  0  0  0  0  0
   41.3020   28.1450   43.2300 C   0  0  0  0  0  3  0  0  0  0  0  0
   40.3490   28.8540   42.5560 N   0  0  0  0  0  0  0  0  0  0  0  0
  1 20  1  0  0  0  0
  2  1  2  0  0  0  0
  2  6  1  0  0  0  0
  3  2  1  0  0  0  0
  4  3  2  0  0  0  0
  4  5  1  0  0  0  0
  5  1  1  0  0  0  0
  7  3  1  0  0  0  0
  8  4  1  0  0  0  0
  8 11  1  1  0  0  0
  9 10  1  0  0  0  0
  9  8  1  0  0  0  0
 10 14  1  6  0  0  0
 10 17  1  0  0  0  0
 10  8  1  0  0  0  0
 12  9  1  0  0  0  0
 13  9  1  0  0  0  0
 15 18  1  0  0  0  0
 15 17  1  0  0  0  0
 16 15  2  0  0  0  0
 17 19  1  0  0  0  0
 21 23  1  0  0  0  0
 21 20  1  0  0  0  0
 22 21  2  0  0  0  0
 23 28  1  0  0  0  0
 24 23  2  0  0  0  0
 24 25  1  0  0  0  0
 25 26  2  0  0  0  0
 26 27  1  0  0  0  0
 27 31  1  0  0  0  0
 28 27  2  0  0  0  0
 29 24  1  0  0  0  0
 30 25  1  0  0  0  0
 31 32  1  0  0  0  0
 32 34  2  0  0  0  0
 33 32  1  0  0  0  0
 34 35  1  0  0  0  0
 36 34  1  0  0  0  0
 37 36  2  0  0  0  0
 38 31  2  0  0  0  0
 38 37  1  0  0  0  0
M  END
>  <minimizedAffinity>
-6.06322622

$$$$

 OpenBabel03242518413D

 38 41  0  0  1  0  0  0  0  0999 V2000
   38.2060   31.9890   40.0420 C   0  0  0  0  0  0  0  0  0  0  0  0
   37.5080   33.1860   39.8960 C   0  0  0  0  0  0  0  0  0  0  0  0
   38.3880   34.2390   40.0160 C   0  0  0  0  0  0  0  0  0  0  0  0
   39.5840   33.6350   40.2310 C   0  0  0  0  0  0  0  0  0  0  0  0
   39.4630   32.3240   40.2440 O   0  0  0  0  0  0  0  0  0  0  0  0
   36.4410   33.1410   39.7180 H   0  0  0  0  0  0  0  0  0  0  0  0
   38.1080   35.2590   39.9440 H   0  0  0  0  0  0  0  0  0  0  0  0
   40.8680   34.3520   40.4280 C   0  0  2  0  0  0  0  0  0  0  0  0
   40.9370   35.8030   40.2550 C   0  0  0  0  0  0  0  0  0  0  0  0
   41.4280   34.9740   39.1230 C   0  0  1  0  0  0  0  0  0  0  0  0
   41.5880   33.8480   41.0760 H   0  0  0  0  0  0  0  0  0  0  0  0
   41.6450   36.3970   40.8610 H   0  0  0  0  0  0  0  0  0  0  0  0
   40.0300   36.4080   39.9930 H   0  0  0  0  0  0  0  0  0  0  0  0
   40.8390   34.8180   38.2120 H   0  0  0  0  0  0  0  0  0  0  0  0
   43.4040   34.0790   37.9240 C   0  0  0  0  0  0  0  0  0  0  0  0
   42.6920   33.4490   37.0890 O   0  0  0  0  0  0  0  0  0  0  0  0
   42.8740   34.8280   39.0060 N   0  0  0  0  0  0  0  0  0  0  0  0
   44.4760   34.0510   37.8150 H   0  0  0  0  0  0  0  0  0  0  0  0
   43.4800   35.2790   39.7230 H   0  0  0  0  0  0  0  0  0  0  0  0
   37.7920   30.6340   40.0060 O   0  0  0  0  0  0  0  0  0  0  0  0
   36.9490   30.1540   41.0480 C   0  0  0  0  0  0  0  0  0  0  0  0
   35.9530   30.8480   41.3210 O   0  0  0  0  0  0  0  0  0  0  0  0
   37.3590   28.9280   41.6480 C   0  0  0  0  0  0  0  0  0  0  0  0
   37.9060   29.0420   42.8910 C   0  0  0  0  0  0  0  0  0  0  0  0
   38.3330   27.8780   43.5490 C   0  0  0  0  0  0  0  0  0  0  0  0
   38.1840   26.7010   42.9250 N   0  0  0  0  0  0  0  0  0  0  0  0
   37.6350   26.6260   41.6900 C   0  0  0  0  0  0  0  0  0  0  0  0
   37.2380   27.7330   41.0820 N   0  0  0  0  0  0  0  0  0  0  0  0
   38.0400   29.9700   43.4190 H   0  0  0  0  0  0  0  0  0  0  0  0
   38.7720   27.9480   44.5390 H   0  0  0  0  0  0  0  0  0  0  0  0
   37.4870   25.3170   41.0370 C   0  0  0  0  0  0  0  0  0  0  0  0
   36.5360   25.1530   40.0500 C   0  0  0  0  0  0  0  0  0  0  0  0
   35.9350   26.0210   39.8020 H   0  0  0  0  0  0  0  0  0  0  0  0
   36.3310   23.9620   39.3890 C   0  0  0  0  0  0  0  0  0  0  0  0
   35.5880   23.8250   38.6150 H   0  0  0  0  0  0  0  0  0  0  0  0
   37.1630   22.9480   39.8050 C   0  0  0  0  0  3  0  0  0  0  0  0
   38.1290   23.0610   40.7870 C   0  0  0  0  0  3  0  0  0  0  0  0
   38.2720   24.2750   41.3970 N   0  0  0  0  0  0  0  0  0  0  0  0
  1  5  1  0  0  0  0
  2  3  1  0  0  0  0
  2  1  2  0  0  0  0
  3  4  2  0  0  0  0
  4  5  1  0  0  0  0
  4  8  1  0  0  0  0
  6  2  1  0  0  0  0
  7  3  1  0  0  0  0
  8 11  1  1  0  0  0
  9  8  1  0  0  0  0
  9 12  1  0  0  0  0
 10 14  1  6  0  0  0
 10  9  1  0  0  0  0
 10  8  1  0  0  0  0
 13  9  1  0  0  0  0
 15 17  1  0  0  0  0
 16 15  2  0  0  0  0
 17 10  1  0  0  0  0
 17 19  1  0  0  0  0
 18 15  1  0  0  0  0
 20  1  1  0  0  0  0
 20 21  1  0  0  0  0
 21 22  2  0  0  0  0
 21 23  1  0  0  0  0
 23 24  1  0  0  0  0
 24 29  1  0  0  0  0
 24 25  2  0  0  0  0
 25 30  1  0  0  0  0
 26 25  1  0  0  0  0
 27 26  2  0  0  0  0
 28 23  2  0  0  0  0
 28 27  1  0  0  0  0
 31 38  1  0  0  0  0
 31 27  1  0  0  0  0
 32 31  2  0  0  0  0
 33 32  1  0  0  0  0
 34 36  2  0  0  0  0
 34 32  1  0  0  0  0
 35 34  1  0  0  0  0
 36 37  1  0  0  0  0
 37 38  2  0  0  0  0
M  END
>  <minimizedAffinity>
-5.96068621

$$$$

 OpenBabel03242518413D

 38 41  0  0  1  0  0  0  0  0999 V2000
   39.1810   26.7410   42.8360 C   0  0  0  0  0  0  0  0  0  0  0  0
   39.9740   25.7350   43.3850 C   0  0  0  0  0  0  0  0  0  0  0  0
   39.4930   24.5090   42.9800 C   0  0  0  0  0  0  0  0  0  0  0  0
   38.4270   24.8230   42.2010 C   0  0  0  0  0  0  0  0  0  0  0  0
   38.2570   26.1280   42.1260 O   0  0  0  0  0  0  0  0  0  0  0  0
   40.8070   26.0210   44.0140 H   0  0  0  0  0  0  0  0  0  0  0  0
   39.9200   23.5800   43.2610 H   0  0  0  0  0  0  0  0  0  0  0  0
   37.5590   23.8330   41.5190 C   0  0  2  0  0  0  0  0  0  0  0  0
   38.1440   22.8210   40.6390 C   0  0  0  0  0  0  0  0  0  0  0  0
   37.5310   24.0020   39.9780 C   0  0  1  0  0  0  0  0  0  0  0  0
   36.6000   23.6400   42.0050 H   0  0  0  0  0  0  0  0  0  0  0  0
   37.6720   21.8250   40.5550 H   0  0  0  0  0  0  0  0  0  0  0  0
   39.2510   22.7530   40.4760 H   0  0  0  0  0  0  0  0  0  0  0  0
   38.1330   24.8190   39.5630 H   0  0  0  0  0  0  0  0  0  0  0  0
   35.7090   24.7540   38.4750 C   0  0  0  0  0  0  0  0  0  0  0  0
   36.3260   25.8100   38.1500 O   0  0  0  0  0  0  0  0  0  0  0  0
   36.2000   23.8120   39.4160 N   0  0  0  0  0  0  0  0  0  0  0  0
   34.7560   24.5500   38.0150 H   0  0  0  0  0  0  0  0  0  0  0  0
   35.6430   22.9860   39.7210 H   0  0  0  0  0  0  0  0  0  0  0  0
   39.2350   28.1540   42.9300 O   0  0  0  0  0  0  0  0  0  0  0  0
   38.0160   28.8700   43.1010 C   0  0  0  0  0  0  0  0  0  0  0  0
   37.3250   28.5600   44.0880 O   0  0  0  0  0  0  0  0  0  0  0  0
   37.7450   29.8570   42.1100 C   0  0  0  0  0  0  0  0  0  0  0  0
   36.5830   29.6850   41.4190 C   0  0  0  0  0  0  0  0  0  0  0  0
   36.2440   30.6190   40.4270 C   0  0  0  0  0  0  0  0  0  0  0  0
   37.0790   31.6420   40.2010 N   0  0  0  0  0  0  0  0  0  0  0  0
   38.2260   31.7810   40.9080 C   0  0  0  0  0  0  0  0  0  0  0  0
   38.5310   30.8920   41.8410 N   0  0  0  0  0  0  0  0  0  0  0  0
   35.8910   28.8760   41.5750 H   0  0  0  0  0  0  0  0  0  0  0  0
   35.3240   30.4990   39.8650 H   0  0  0  0  0  0  0  0  0  0  0  0
   39.1180   32.9170   40.6330 C   0  0  0  0  0  0  0  0  0  0  0  0
   38.5780   34.1680   40.4150 C   0  0  0  0  0  0  0  0  0  0  0  0
   37.4970   34.2490   40.4600 H   0  0  0  0  0  0  0  0  0  0  0  0
   39.3410   35.2840   40.1520 C   0  0  0  0  0  0  0  0  0  0  0  0
   38.9260   36.2690   39.9800 H   0  0  0  0  0  0  0  0  0  0  0  0
   40.6940   35.0360   40.1250 C   0  0  0  0  0  3  0  0  0  0  0  0
   41.2830   33.8040   40.3360 C   0  0  0  0  0  3  0  0  0  0  0  0
   40.4600   32.7450   40.5920 N   0  0  0  0  0  0  0  0  0  0  0  0
  1 20  1  0  0  0  0
  1  2  2  0  0  0  0
  2  6  1  0  0  0  0
  3  7  1  0  0  0  0
  3  2  1  0  0  0  0
  4  3  2  0  0  0  0
  5  4  1  0  0  0  0
  5  1  1  0  0  0  0
  8 11  1  1  0  0  0
  8  4  1  0  0  0  0
  9  8  1  0  0  0  0
 10 14  1  6  0  0  0
 10  9  1  0  0  0  0
 10  8  1  0  0  0  0
 12  9  1  0  0  0  0
 13  9  1  0  0  0  0
 15 17  1  0  0  0  0
 16 15  2  0  0  0  0
 17 19  1  0  0  0  0
 17 10  1  0  0  0  0
 18 15  1  0  0  0  0
 20 21  1  0  0  0  0
 21 22  2  0  0  0  0
 23 21  1  0  0  0  0
 24 29  1  0  0  0  0
 24 23  2  0  0  0  0
 25 24  1  0  0  0  0
 26 25  2  0  0  0  0
 26 27  1  0  0  0  0
 27 28  2  0  0  0  0
 28 23  1  0  0  0  0
 30 25  1  0  0  0  0
 31 27  1  0  0  0  0
 32 33  1  0  0  0  0
 32 31  2  0  0  0  0
 34 32  1  0  0  0  0
 35 34  1  0  0  0  0
 36 34  2  0  0  0  0
 36 37  1  0  0  0  0
 37 38  2  0  0  0  0
 38 31  1  0  0  0  0
M  END
>  <minimizedAffinity>
-5.95953178

$$$$

 OpenBabel03242518413D

 38 41  0  0  1  0  0  0  0  0999 V2000
   37.2380   32.4110   39.2500 C   0  0  0  0  0  0  0  0  0  0  0  0
   37.6660   32.0490   37.9730 C   0  0  0  0  0  0  0  0  0  0  0  0
   37.1780   30.7970   37.6720 C   0  0  0  0  0  0  0  0  0  0  0  0
   36.4730   30.4520   38.7790 C   0  0  0  0  0  0  0  0  0  0  0  0
   36.5170   31.4020   39.6900 O   0  0  0  0  0  0  0  0  0  0  0  0
   38.2830   32.7460   37.4200 H   0  0  0  0  0  0  0  0  0  0  0  0
   37.3600   30.2920   36.7580 H   0  0  0  0  0  0  0  0  0  0  0  0
   35.7440   29.1710   38.9500 C   0  0  2  0  0  0  0  0  0  0  0  0
   35.3920   28.6950   40.2880 C   0  0  0  0  0  0  0  0  0  0  0  0
   36.5860   28.0770   39.6540 C   0  0  1  0  0  0  0  0  0  0  0  0
   35.1530   28.8530   38.0890 H   0  0  0  0  0  0  0  0  0  0  0  0
   34.4700   28.1050   40.4380 H   0  0  0  0  0  0  0  0  0  0  0  0
   35.6420   29.2870   41.2060 H   0  0  0  0  0  0  0  0  0  0  0  0
   37.6090   28.3510   39.9390 H   0  0  0  0  0  0  0  0  0  0  0  0
   36.6240   25.6070   39.8680 C   0  0  0  0  0  0  0  0  0  0  0  0
   37.0680   25.6520   41.0520 O   0  0  0  0  0  0  0  0  0  0  0  0
   36.3970   26.7570   39.0660 N   0  0  0  0  0  0  0  0  0  0  0  0
   36.4030   24.6450   39.4350 H   0  0  0  0  0  0  0  0  0  0  0  0
   36.0990   26.6920   38.0700 H   0  0  0  0  0  0  0  0  0  0  0  0
   37.4500   33.5740   40.0310 O   0  0  0  0  0  0  0  0  0  0  0  0
   38.7860   33.9260   40.3750 C   0  0  0  0  0  0  0  0  0  0  0  0
   39.0870   35.1300   40.2710 O   0  0  0  0  0  0  0  0  0  0  0  0
   39.6120   32.8450   40.8000 C   0  0  0  0  0  0  0  0  0  0  0  0
   40.9410   32.9880   40.5330 C   0  0  0  0  0  0  0  0  0  0  0  0
   41.8200   31.9650   40.9230 C   0  0  0  0  0  0  0  0  0  0  0  0
   41.3140   30.8900   41.5420 N   0  0  0  0  0  0  0  0  0  0  0  0
   39.9870   30.7830   41.7910 C   0  0  0  0  0  0  0  0  0  0  0  0
   39.1710   31.7560   41.4170 N   0  0  0  0  0  0  0  0  0  0  0  0
   41.3790   33.8380   40.0390 H   0  0  0  0  0  0  0  0  0  0  0  0
   42.8810   32.0600   40.7190 H   0  0  0  0  0  0  0  0  0  0  0  0
   39.4680   29.5890   42.4730 C   0  0  0  0  0  0  0  0  0  0  0  0
   38.1240   29.5090   42.7770 C   0  0  0  0  0  0  0  0  0  0  0  0
   37.5070   30.3520   42.4870 H   0  0  0  0  0  0  0  0  0  0  0  0
   37.5570   28.4280   43.4140 C   0  0  0  0  0  0  0  0  0  0  0  0
   36.5040   28.3570   43.6550 H   0  0  0  0  0  0  0  0  0  0  0  0
   38.4560   27.4320   43.7210 C   0  0  0  0  0  3  0  0  0  0  0  0
   39.8080   27.4640   43.4390 C   0  0  0  0  0  3  0  0  0  0  0  0
   40.2960   28.5710   42.8050 N   0  0  0  0  0  0  0  0  0  0  0  0
  1  5  1  0  0  0  0
  1 20  1  0  0  0  0
  2  1  2  0  0  0  0
  3  2  1  0  0  0  0
  3  4  2  0  0  0  0
  4  8  1  0  0  0  0
  4  5  1  0  0  0  0
  6  2  1  0  0  0  0
  7  3  1  0  0  0  0
  8 11  1  6  0  0  0
  8 10  1  0  0  0  0
  8  9  1  0  0  0  0
  9 12  1  0  0  0  0
  9 13  1  0  0  0  0
 10 14  1  1  0  0  0
 10  9  1  0  0  0  0
 15 16  2  0  0  0  0
 17 10  1  0  0  0  0
 17 15  1  0  0  0  0
 18 15  1  0  0  0  0
 19 17  1  0  0  0  0
 20 21  1  0  0  0  0
 21 23  1  0  0  0  0
 22 21  2  0  0  0  0
 23 28  1  0  0  0  0
 24 23  2  0  0  0  0
 24 25  1  0  0  0  0
 25 26  2  0  0  0  0
 26 27  1  0  0  0  0
 27 31  1  0  0  0  0
 28 27  2  0  0  0  0
 29 24  1  0  0  0  0
 30 25  1  0  0  0  0
 31 32  2  0  0  0  0
 31 38  1  0  0  0  0
 32 34  1  0  0  0  0
 33 32  1  0  0  0  0
 34 35  1  0  0  0  0
 34 36  2  0  0  0  0
 37 36  1  0  0  0  0
 38 37  2  0  0  0  0
M  END
>  <minimizedAffinity>
-5.88429022

$$$$
