
 OpenBabel03252508383D

 40 43  0  0  0  0  0  0  0  0999 V2000
   45.1070   33.9630   40.7210 C   0  0  0  0  0  0  0  0  0  0  0  0
   44.0660   33.6360   39.9050 C   0  0  0  0  0  0  0  0  0  0  0  0
   44.3620   33.1220   38.6720 C   0  0  0  0  0  0  0  0  0  0  0  0
   45.6410   32.9260   38.2250 C   0  0  0  0  0  0  0  0  0  0  0  0
   46.6760   33.2650   39.0690 C   0  0  0  0  0  0  0  0  0  0  0  0
   46.4280   33.7820   40.3130 C   0  0  0  0  0  0  0  0  0  0  0  0
   43.5320   32.8630   38.0250 H   0  0  0  0  0  0  0  0  0  0  0  0
   45.7830   32.5110   37.2260 H   0  0  0  0  0  0  0  0  0  0  0  0
   47.6910   33.1040   38.7030 H   0  0  0  0  0  0  0  0  0  0  0  0
   40.7890   35.2930   40.8000 C   0  0  0  0  0  0  0  0  0  0  0  0
   42.0860   35.1120   40.2880 C   0  0  0  0  0  0  0  0  0  0  0  0
   42.7300   33.8610   40.4180 C   0  0  0  0  0  0  0  0  0  0  0  0
   42.0100   32.9000   41.0550 N   0  0  0  0  0  0  0  0  0  0  0  0
   40.7760   33.0970   41.5330 C   0  0  0  0  0  0  0  0  0  0  0  0
   40.1730   34.2870   41.4040 N   0  0  0  0  0  0  0  0  0  0  0  0
   40.1960   36.5640   40.6400 N   0  0  0  0  0  0  0  0  0  0  0  0
   42.6090   35.9280   39.7860 H   0  0  0  0  0  0  0  0  0  0  0  0
   40.2770   32.2660   42.0290 H   0  0  0  0  0  0  0  0  0  0  0  0
   39.5300   36.8360   41.4010 H   0  0  0  0  0  0  0  0  0  0  0  0
   40.3600   37.2310   39.8540 H   0  0  0  0  0  0  0  0  0  0  0  0
   47.5790   34.1110   41.1340 C   0  0  0  0  0  0  0  0  0  0  0  0
   48.1310   35.3590   40.9130 C   0  0  0  0  0  0  0  0  0  0  0  0
   49.2400   35.8380   41.6120 C   0  0  0  0  0  0  0  0  0  0  0  0
   49.8070   35.0310   42.5630 C   0  0  0  0  0  0  0  0  0  0  0  0
   49.2730   33.7790   42.8030 C   0  0  0  0  0  0  0  0  0  0  0  0
   48.1690   33.3250   42.0950 C   0  0  0  0  0  0  0  0  0  0  0  0
   47.7310   36.0410   40.1770 H   0  0  0  0  0  0  0  0  0  0  0  0
   49.6450   36.8340   41.4030 H   0  0  0  0  0  0  0  0  0  0  0  0
   50.6680   35.3390   43.1420 H   0  0  0  0  0  0  0  0  0  0  0  0
   49.6410   33.0690   43.5270 H   0  0  0  0  0  0  0  0  0  0  0  0
   47.5530   32.0030   42.3020 C   0  0  0  0  0  0  0  0  0  0  0  0
   47.9140   30.9270   41.4880 C   0  0  0  0  0  0  0  0  0  0  0  0
   48.6440   31.0630   40.7040 H   0  0  0  0  0  0  0  0  0  0  0  0
   47.3440   29.6790   41.6690 C   0  0  0  0  0  0  0  0  0  0  0  0
   47.6160   28.8430   41.0450 H   0  0  0  0  0  0  0  0  0  0  0  0
   46.3970   29.5000   42.6820 C   0  0  0  0  0  3  0  0  0  0  0  0
   46.0810   30.5960   43.4540 C   0  0  0  0  0  3  0  0  0  0  0  0
   46.6450   31.8220   43.2710 N   0  0  0  0  0  0  0  0  0  0  0  0
   44.7020   34.9580   43.1040 N   0  0  0  0  0  0  0  0  0  0  0  0
   44.8780   34.5080   42.0320 C   0  0  0  0  0  0  0  0  0  0  0  0
  1 40  1  0  0  0  0
  2 12  1  0  0  0  0
  2  1  2  0  0  0  0
  3  2  1  0  0  0  0
  4  3  2  0  0  0  0
  4  5  1  0  0  0  0
  5  6  2  0  0  0  0
  6  1  1  0  0  0  0
  6 21  1  0  0  0  0
  7  3  1  0  0  0  0
  8  4  1  0  0  0  0
  9  5  1  0  0  0  0
 10 15  1  0  0  0  0
 11 12  1  0  0  0  0
 11 10  2  0  0  0  0
 12 13  2  0  0  0  0
 13 14  1  0  0  0  0
 14 18  1  0  0  0  0
 15 14  2  0  0  0  0
 16 10  1  0  0  0  0
 16 19  1  0  0  0  0
 17 11  1  0  0  0  0
 20 16  1  0  0  0  0
 21 26  1  0  0  0  0
 22 21  2  0  0  0  0
 22 23  1  0  0  0  0
 23 24  2  0  0  0  0
 24 25  1  0  0  0  0
 24 29  1  0  0  0  0
 25 30  1  0  0  0  0
 26 31  1  0  0  0  0
 26 25  2  0  0  0  0
 27 22  1  0  0  0  0
 28 23  1  0  0  0  0
 31 38  1  0  0  0  0
 32 34  1  0  0  0  0
 32 31  2  0  0  0  0
 33 32  1  0  0  0  0
 34 36  2  0  0  0  0
 35 34  1  0  0  0  0
 36 37  1  0  0  0  0
 38 37  2  0  0  0  0
 40 39  3  0  0  0  0
M  END
>  <minimizedAffinity>
-5.97273827

>  <minimizedRMSD>
0.223432764

$$$$
