
 OpenBabel03252508383D

 40 43  0  0  0  0  0  0  0  0999 V2000
   45.1570   33.9750   40.7360 C   0  0  0  0  0  0  0  0  0  0  0  0
   44.1030   33.6700   39.9270 C   0  0  0  0  0  0  0  0  0  0  0  0
   44.3790   33.1690   38.6840 C   0  0  0  0  0  0  0  0  0  0  0  0
   45.6500   32.9630   38.2200 C   0  0  0  0  0  0  0  0  0  0  0  0
   46.6990   33.2790   39.0570 C   0  0  0  0  0  0  0  0  0  0  0  0
   46.4710   33.7830   40.3090 C   0  0  0  0  0  0  0  0  0  0  0  0
   43.5380   32.9280   38.0430 H   0  0  0  0  0  0  0  0  0  0  0  0
   45.7750   32.5600   37.2150 H   0  0  0  0  0  0  0  0  0  0  0  0
   47.7070   33.1100   38.6760 H   0  0  0  0  0  0  0  0  0  0  0  0
   40.9220   35.3890   41.0310 C   0  0  0  0  0  0  0  0  0  0  0  0
   42.2130   35.2000   40.5070 C   0  0  0  0  0  0  0  0  0  0  0  0
   42.7750   33.9050   40.4590 C   0  0  0  0  0  0  0  0  0  0  0  0
   41.9860   32.9100   40.9440 N   0  0  0  0  0  0  0  0  0  0  0  0
   40.7600   33.1160   41.4370 C   0  0  0  0  0  0  0  0  0  0  0  0
   40.2350   34.3480   41.4780 N   0  0  0  0  0  0  0  0  0  0  0  0
   40.4130   36.7050   41.0530 N   0  0  0  0  0  0  0  0  0  0  0  0
   42.7950   36.0450   40.1320 H   0  0  0  0  0  0  0  0  0  0  0  0
   40.2020   32.2560   41.8040 H   0  0  0  0  0  0  0  0  0  0  0  0
   39.7540   36.9070   41.8410 H   0  0  0  0  0  0  0  0  0  0  0  0
   40.6310   37.4670   40.3730 H   0  0  0  0  0  0  0  0  0  0  0  0
   47.6350   34.0870   41.1220 C   0  0  0  0  0  0  0  0  0  0  0  0
   48.1580   35.3560   40.9600 C   0  0  0  0  0  0  0  0  0  0  0  0
   49.2750   35.8170   41.6590 C   0  0  0  0  0  0  0  0  0  0  0  0
   49.8800   34.9690   42.5490 C   0  0  0  0  0  0  0  0  0  0  0  0
   49.3750   33.6950   42.7290 C   0  0  0  0  0  0  0  0  0  0  0  0
   48.2630   33.2590   42.0220 C   0  0  0  0  0  0  0  0  0  0  0  0
   47.7290   36.0720   40.2740 H   0  0  0  0  0  0  0  0  0  0  0  0
   49.6560   36.8310   41.4990 H   0  0  0  0  0  0  0  0  0  0  0  0
   50.7480   35.2600   43.1250 H   0  0  0  0  0  0  0  0  0  0  0  0
   49.7730   32.9520   43.4040 H   0  0  0  0  0  0  0  0  0  0  0  0
   47.6760   31.9160   42.1680 C   0  0  0  0  0  0  0  0  0  0  0  0
   48.0770   30.8820   41.3190 C   0  0  0  0  0  0  0  0  0  0  0  0
   48.8170   31.0660   40.5550 H   0  0  0  0  0  0  0  0  0  0  0  0
   47.5350   29.6140   41.4420 C   0  0  0  0  0  0  0  0  0  0  0  0
   47.8380   28.8090   40.7920 H   0  0  0  0  0  0  0  0  0  0  0  0
   46.5760   29.3730   42.4300 C   0  0  0  0  0  3  0  0  0  0  0  0
   46.2190   30.4310   43.2390 C   0  0  0  0  0  3  0  0  0  0  0  0
   46.7550   31.6770   43.1130 N   0  0  0  0  0  0  0  0  0  0  0  0
   44.7910   34.9430   43.1360 N   0  0  0  0  0  0  0  0  0  0  0  0
   44.9490   34.5050   42.0560 C   0  0  0  0  0  0  0  0  0  0  0  0
  1 40  1  0  0  0  0
  2 12  1  0  0  0  0
  2  1  2  0  0  0  0
  3  2  1  0  0  0  0
  4  3  2  0  0  0  0
  4  5  1  0  0  0  0
  5  6  2  0  0  0  0
  6  1  1  0  0  0  0
  6 21  1  0  0  0  0
  7  3  1  0  0  0  0
  8  4  1  0  0  0  0
  9  5  1  0  0  0  0
 10 16  1  0  0  0  0
 10 15  1  0  0  0  0
 11 10  2  0  0  0  0
 12 11  1  0  0  0  0
 12 13  2  0  0  0  0
 13 14  1  0  0  0  0
 14 15  2  0  0  0  0
 14 18  1  0  0  0  0
 16 19  1  0  0  0  0
 17 11  1  0  0  0  0
 20 16  1  0  0  0  0
 21 26  1  0  0  0  0
 22 21  2  0  0  0  0
 22 23  1  0  0  0  0
 23 24  2  0  0  0  0
 24 25  1  0  0  0  0
 24 29  1  0  0  0  0
 25 30  1  0  0  0  0
 26 31  1  0  0  0  0
 26 25  2  0  0  0  0
 27 22  1  0  0  0  0
 28 23  1  0  0  0  0
 31 38  1  0  0  0  0
 32 34  1  0  0  0  0
 32 31  2  0  0  0  0
 33 32  1  0  0  0  0
 34 36  2  0  0  0  0
 35 34  1  0  0  0  0
 36 37  1  0  0  0  0
 38 37  2  0  0  0  0
 40 39  3  0  0  0  0
M  END
>  <minimizedAffinity>
-5.91528416

>  <minimizedRMSD>
0.633277595

$$$$
