
 OpenBabel03252507003D

 36 38  0  0  0  0  0  0  0  0999 V2000
   45.6370   34.3970   41.7710 N   0  0  0  0  0  0  0  0  0  0  0  0
   46.3970   35.2410   42.6180 C   0  0  0  0  0  0  0  0  0  0  0  0
   46.9430   34.2230   43.6320 C   0  0  0  0  0  0  0  0  0  0  0  0
   47.7390   33.1440   43.0410 C   0  0  0  0  0  0  0  0  0  0  0  0
   47.5860   32.9210   41.5660 C   0  0  0  0  0  0  0  0  0  0  0  0
   46.4450   33.5620   40.8930 C   0  0  0  0  0  0  0  0  0  0  0  0
   47.2620   35.6630   42.1180 H   0  0  0  0  0  0  0  0  0  0  0  0
   45.9130   36.0380   43.1620 H   0  0  0  0  0  0  0  0  0  0  0  0
   47.5490   34.8440   44.3330 H   0  0  0  0  0  0  0  0  0  0  0  0
   46.0540   33.8960   44.2160 H   0  0  0  0  0  0  0  0  0  0  0  0
   48.8240   33.2580   43.2100 H   0  0  0  0  0  0  0  0  0  0  0  0
   47.4290   32.1760   43.5070 H   0  0  0  0  0  0  0  0  0  0  0  0
   48.2270   32.3080   41.0250 H   0  0  0  0  0  0  0  0  0  0  0  0
   46.1790   33.2840   39.5230 C   0  0  0  0  0  0  0  0  0  0  0  0
   45.0490   32.7110   39.0650 C   0  0  0  0  0  0  0  0  0  0  0  0
   44.2520   32.4180   39.7160 H   0  0  0  0  0  0  0  0  0  0  0  0
   44.8130   32.4500   37.7320 C   0  0  0  0  0  0  0  0  0  0  0  0
   43.8980   31.9880   37.3860 H   0  0  0  0  0  0  0  0  0  0  0  0
   45.7480   32.7710   36.7700 C   0  0  0  0  0  0  0  0  0  0  0  0
   46.9000   33.3610   37.2800 C   0  0  0  0  0  0  0  0  0  0  0  0
   47.0710   33.5880   38.5740 N   0  0  0  0  0  0  0  0  0  0  0  0
   44.3130   34.1340   41.8480 C   0  0  0  0  0  0  0  0  0  0  0  0
   43.9590   33.4200   42.6450 H   0  0  0  0  0  0  0  0  0  0  0  0
   43.8990   33.6870   40.9060 H   0  0  0  0  0  0  0  0  0  0  0  0
   43.5240   35.4010   42.0560 C   0  0  0  0  0  0  0  0  0  0  0  0
   42.9820   35.2530   43.0320 H   0  0  0  0  0  0  0  0  0  0  0  0
   44.0670   36.3170   42.1910 H   0  0  0  0  0  0  0  0  0  0  0  0
   42.4290   35.4070   41.0670 C   0  0  0  0  0  0  0  0  0  0  0  0
   41.1270   35.6770   41.4230 C   0  0  0  0  0  0  0  0  0  0  0  0
   40.1220   35.6750   40.4510 C   0  0  0  0  0  0  0  0  0  0  0  0
   40.5020   35.4000   39.1790 N   0  0  0  0  0  0  0  0  0  0  0  0
   41.7740   35.1420   38.8640 C   0  0  0  0  0  0  0  0  0  0  0  0
   42.7060   35.1500   39.8070 N   0  0  0  0  0  0  0  0  0  0  0  0
   40.9140   35.8850   42.4550 H   0  0  0  0  0  0  0  0  0  0  0  0
   39.1420   35.8960   40.8290 H   0  0  0  0  0  0  0  0  0  0  0  0
   42.0250   34.9250   37.8170 H   0  0  0  0  0  0  0  0  0  0  0  0
  1 22  1  0  0  0  0
  1  2  1  0  0  0  0
  2  8  1  0  0  0  0
  2  3  1  0  0  0  0
  3 10  1  0  0  0  0
  3  9  1  0  0  0  0
  4 11  1  0  0  0  0
  4 12  1  0  0  0  0
  4  3  1  0  0  0  0
  5  4  1  0  0  0  0
  6  5  2  0  0  0  0
  6  1  1  0  0  0  0
  7  2  1  0  0  0  0
 13  5  1  0  0  0  0
 14  6  1  0  0  0  0
 15 14  1  0  0  0  0
 15 16  1  0  0  0  0
 17 15  2  0  0  0  0
 18 17  1  0  0  0  0
 19 20  2  0  0  0  0
 19 17  1  0  0  0  0
 20 21  1  0  0  0  0
 21 14  2  0  0  0  0
 22 25  1  0  0  0  0
 22 23  1  0  0  0  0
 24 22  1  0  0  0  0
 25 27  1  0  0  0  0
 25 26  1  0  0  0  0
 28 29  1  0  0  0  0
 28 25  1  0  0  0  0
 29 34  1  0  0  0  0
 30 35  1  0  0  0  0
 30 29  2  0  0  0  0
 31 30  1  0  0  0  0
 32 31  2  0  0  0  0
 32 33  1  0  0  0  0
 33 28  2  0  0  0  0
 36 32  1  0  0  0  0
M  END
>  <minimizedAffinity>
-4.6438942

>  <minimizedRMSD>
6.01310968

$$$$
