
 OpenBabel03242521333D

 30 33  0  0  0  0  0  0  0  0999 V2000
   44.4400   35.8940   44.8940 C   0  0  0  0  0  0  0  0  0  0  0  0
   45.0230   35.8600   43.5940 C   0  0  0  0  0  0  0  0  0  0  0  0
   45.9300   34.8360   43.3350 C   0  0  0  0  0  0  0  0  0  0  0  0
   46.2350   33.9170   44.2960 N   0  0  0  0  0  0  0  0  0  0  0  0
   45.6390   34.0060   45.5260 C   0  0  0  0  0  0  0  0  0  0  0  0
   44.7620   34.9780   45.8050 N   0  0  0  0  0  0  0  0  0  0  0  0
   43.7400   36.6810   45.0990 H   0  0  0  0  0  0  0  0  0  0  0  0
   44.7960   36.5790   42.8140 H   0  0  0  0  0  0  0  0  0  0  0  0
   47.8800   35.2030   41.9360 C   0  0  0  0  0  0  0  0  0  0  0  0
   46.6010   34.6810   42.0490 C   0  0  0  0  0  0  0  0  0  0  0  0
   46.0550   34.0590   40.9560 C   0  0  0  0  0  0  0  0  0  0  0  0
   46.7300   33.9350   39.7530 C   0  0  0  0  0  0  0  0  0  0  0  0
   46.3810   33.3670   38.5690 N   0  0  0  0  0  0  0  0  0  0  0  0
   47.4370   33.5320   37.7140 C   0  0  0  0  0  0  0  0  0  0  0  0
   48.4210   34.1990   38.3830 N   0  0  0  0  0  0  0  0  0  0  0  0
   47.9980   34.4490   39.6310 C   0  0  0  0  0  0  0  0  0  0  0  0
   48.5720   35.0840   40.7250 C   0  0  0  0  0  0  0  0  0  0  0  0
   48.3460   35.7090   42.7930 H   0  0  0  0  0  0  0  0  0  0  0  0
   45.0560   33.6510   41.0460 H   0  0  0  0  0  0  0  0  0  0  0  0
   45.4870   32.8850   38.3150 H   0  0  0  0  0  0  0  0  0  0  0  0
   47.5420   33.2180   36.6840 H   0  0  0  0  0  0  0  0  0  0  0  0
   49.5680   35.5040   40.6730 H   0  0  0  0  0  0  0  0  0  0  0  0
   45.9870   33.0050   46.5320 C   0  0  0  0  0  0  0  0  0  0  0  0
   45.2190   32.8910   47.6660 C   0  0  0  0  0  0  0  0  0  0  0  0
   44.3690   33.5240   47.8270 H   0  0  0  0  0  0  0  0  0  0  0  0
   45.4960   31.9690   48.6500 C   0  0  0  0  0  0  0  0  0  0  0  0
   44.8840   31.8770   49.5550 H   0  0  0  0  0  0  0  0  0  0  0  0
   46.6020   31.1360   48.4560 C   0  0  0  0  0  0  0  0  0  0  0  0
   47.3640   31.2740   47.2940 C   0  0  0  0  0  0  0  0  0  0  0  0
   47.0470   32.2050   46.3490 N   0  0  0  0  0  0  0  0  0  0  0  0
  1  7  1  0  0  0  0
  1  6  1  0  0  0  0
  2  1  2  0  0  0  0
  3  2  1  0  0  0  0
  3  4  2  0  0  0  0
  4  5  1  0  0  0  0
  5  6  2  0  0  0  0
  5 23  1  0  0  0  0
  8  2  1  0  0  0  0
  9 10  1  0  0  0  0
  9 18  1  0  0  0  0
 10  3  1  0  0  0  0
 11 19  1  0  0  0  0
 11 10  2  0  0  0  0
 12 11  1  0  0  0  0
 13 12  1  0  0  0  0
 14 15  2  0  0  0  0
 14 13  1  0  0  0  0
 15 16  1  0  0  0  0
 16 12  2  0  0  0  0
 16 17  1  0  0  0  0
 17  9  2  0  0  0  0
 20 13  1  0  0  0  0
 21 14  1  0  0  0  0
 22 17  1  0  0  0  0
 23 24  1  0  0  0  0
 24 25  1  0  0  0  0
 24 26  2  0  0  0  0
 26 27  1  0  0  0  0
 28 26  1  0  0  0  0
 29 28  2  0  0  0  0
 30 23  2  0  0  0  0
 30 29  1  0  0  0  0
M  END
>  <minimizedAffinity>
-7.06135702

>  <minimizedRMSD>
0.4265095

$$$$
