
 OpenBabel03252508393D

 40 43  0  0  0  0  0  0  0  0999 V2000
   45.1100   33.9630   40.7260 C   0  0  0  0  0  0  0  0  0  0  0  0
   44.0680   33.6330   39.9110 C   0  0  0  0  0  0  0  0  0  0  0  0
   44.3620   33.1140   38.6810 C   0  0  0  0  0  0  0  0  0  0  0  0
   45.6400   32.9130   38.2330 C   0  0  0  0  0  0  0  0  0  0  0  0
   46.6770   33.2550   39.0750 C   0  0  0  0  0  0  0  0  0  0  0  0
   46.4300   33.7780   40.3160 C   0  0  0  0  0  0  0  0  0  0  0  0
   43.5310   32.8530   38.0350 H   0  0  0  0  0  0  0  0  0  0  0  0
   45.7800   32.4940   37.2360 H   0  0  0  0  0  0  0  0  0  0  0  0
   47.6910   33.0910   38.7080 H   0  0  0  0  0  0  0  0  0  0  0  0
   40.7940   35.3000   40.8040 C   0  0  0  0  0  0  0  0  0  0  0  0
   42.0910   35.1150   40.2910 C   0  0  0  0  0  0  0  0  0  0  0  0
   42.7320   33.8630   40.4250 C   0  0  0  0  0  0  0  0  0  0  0  0
   42.0110   32.9060   41.0650 N   0  0  0  0  0  0  0  0  0  0  0  0
   40.7780   33.1070   41.5440 C   0  0  0  0  0  0  0  0  0  0  0  0
   40.1780   34.2970   41.4110 N   0  0  0  0  0  0  0  0  0  0  0  0
   40.2040   36.5720   40.6400 N   0  0  0  0  0  0  0  0  0  0  0  0
   42.6150   35.9280   39.7860 H   0  0  0  0  0  0  0  0  0  0  0  0
   40.2780   32.2780   42.0430 H   0  0  0  0  0  0  0  0  0  0  0  0
   39.5390   36.8480   41.4010 H   0  0  0  0  0  0  0  0  0  0  0  0
   40.3690   37.2360   39.8520 H   0  0  0  0  0  0  0  0  0  0  0  0
   47.5830   34.1090   41.1350 C   0  0  0  0  0  0  0  0  0  0  0  0
   48.1240   35.3630   40.9210 C   0  0  0  0  0  0  0  0  0  0  0  0
   49.2330   35.8450   41.6190 C   0  0  0  0  0  0  0  0  0  0  0  0
   49.8110   35.0350   42.5610 C   0  0  0  0  0  0  0  0  0  0  0  0
   49.2870   33.7770   42.7930 C   0  0  0  0  0  0  0  0  0  0  0  0
   48.1830   33.3200   42.0870 C   0  0  0  0  0  0  0  0  0  0  0  0
   47.7170   36.0480   40.1920 H   0  0  0  0  0  0  0  0  0  0  0  0
   49.6290   36.8460   41.4160 H   0  0  0  0  0  0  0  0  0  0  0  0
   50.6720   35.3440   43.1380 H   0  0  0  0  0  0  0  0  0  0  0  0
   49.6640   33.0640   43.5110 H   0  0  0  0  0  0  0  0  0  0  0  0
   47.5770   31.9920   42.2870 C   0  0  0  0  0  0  0  0  0  0  0  0
   46.6740   31.7850   43.3320 C   0  0  0  0  0  0  0  0  0  0  0  0
   46.4180   32.5990   43.9940 H   0  0  0  0  0  0  0  0  0  0  0  0
   46.0960   30.5440   43.5340 C   0  0  0  0  0  0  0  0  0  0  0  0
   45.3970   30.3750   44.3390 H   0  0  0  0  0  0  0  0  0  0  0  0
   46.4250   29.4890   42.6780 C   0  0  0  0  0  3  0  0  0  0  0  0
   47.3220   29.7520   41.6650 C   0  0  0  0  0  3  0  0  0  0  0  0
   47.8880   30.9750   41.4710 N   0  0  0  0  0  0  0  0  0  0  0  0
   44.7090   34.9690   43.1040 N   0  0  0  0  0  0  0  0  0  0  0  0
   44.8830   34.5140   42.0340 C   0  0  0  0  0  0  0  0  0  0  0  0
  1 40  1  0  0  0  0
  2 12  1  0  0  0  0
  2  1  2  0  0  0  0
  3  2  1  0  0  0  0
  4  3  2  0  0  0  0
  4  5  1  0  0  0  0
  5  6  2  0  0  0  0
  6  1  1  0  0  0  0
  6 21  1  0  0  0  0
  7  3  1  0  0  0  0
  8  4  1  0  0  0  0
  9  5  1  0  0  0  0
 10 15  1  0  0  0  0
 11 12  1  0  0  0  0
 11 10  2  0  0  0  0
 12 13  2  0  0  0  0
 13 14  1  0  0  0  0
 14 18  1  0  0  0  0
 15 14  2  0  0  0  0
 16 10  1  0  0  0  0
 16 19  1  0  0  0  0
 17 11  1  0  0  0  0
 20 16  1  0  0  0  0
 21 26  1  0  0  0  0
 22 21  2  0  0  0  0
 22 23  1  0  0  0  0
 23 24  2  0  0  0  0
 24 25  1  0  0  0  0
 24 29  1  0  0  0  0
 25 30  1  0  0  0  0
 26 31  1  0  0  0  0
 26 25  2  0  0  0  0
 27 22  1  0  0  0  0
 28 23  1  0  0  0  0
 31 32  1  0  0  0  0
 32 34  2  0  0  0  0
 32 33  1  0  0  0  0
 34 35  1  0  0  0  0
 36 34  1  0  0  0  0
 37 36  2  0  0  0  0
 38 37  1  0  0  0  0
 38 31  2  0  0  0  0
 40 39  3  0  0  0  0
M  END
>  <minimizedAffinity>
-5.97320175

>  <minimizedRMSD>
0.30491963

$$$$
