
 OpenBabel03252509213D

 24 26  0  0  0  0  0  0  0  0999 V2000
   45.5260   33.4260   46.2400 C   0  0  0  0  0  0  0  0  0  0  0  0
   45.9460   33.3070   44.9030 C   0  0  0  0  0  0  0  0  0  0  0  0
   46.9380   32.3790   44.6810 C   0  0  0  0  0  0  0  0  0  0  0  0
   47.4420   31.6510   45.7420 N   0  0  0  0  0  0  0  0  0  0  0  0
   47.0040   31.8040   47.0030 C   0  0  0  0  0  0  0  0  0  0  0  0
   46.0350   32.7060   47.2330 N   0  0  0  0  0  0  0  0  0  0  0  0
   44.7770   34.0830   46.6180 H   0  0  0  0  0  0  0  0  0  0  0  0
   47.5510   31.1260   47.6430 H   0  0  0  0  0  0  0  0  0  0  0  0
   47.3790   32.0740   43.2700 C   0  0  0  0  0  0  0  0  0  0  0  0
   48.6040   32.9230   42.8990 C   0  0  0  0  0  0  0  0  0  0  0  0
   48.6300   31.3760   43.0830 C   0  0  0  0  0  0  0  0  0  0  0  0
   46.6590   32.2230   42.4420 H   0  0  0  0  0  0  0  0  0  0  0  0
   49.1330   33.4890   43.6620 H   0  0  0  0  0  0  0  0  0  0  0  0
   48.7230   33.2580   41.8560 H   0  0  0  0  0  0  0  0  0  0  0  0
   49.2010   31.0240   43.9690 H   0  0  0  0  0  0  0  0  0  0  0  0
   48.8910   30.8050   42.1610 H   0  0  0  0  0  0  0  0  0  0  0  0
   45.3330   34.1470   43.8950 C   0  0  0  0  0  0  0  0  0  0  0  0
   44.5190   33.5800   42.9440 C   0  0  0  0  0  0  0  0  0  0  0  0
   44.2670   32.5340   42.8530 H   0  0  0  0  0  0  0  0  0  0  0  0
   43.8850   34.2720   41.9330 C   0  0  0  0  0  0  0  0  0  0  0  0
   43.2400   33.8480   41.1740 H   0  0  0  0  0  0  0  0  0  0  0  0
   44.0510   35.6370   41.8310 C   0  0  0  0  0  3  0  0  0  0  0  0
   44.8660   36.1990   42.7840 C   0  0  0  0  0  3  0  0  0  0  0  0
   45.4380   35.4620   43.7220 N   0  0  0  0  0  0  0  0  0  0  0  0
  1  7  1  0  0  0  0
  1  6  1  0  0  0  0
  2  1  2  0  0  0  0
  3  2  1  0  0  0  0
  3  4  2  0  0  0  0
  4  5  1  0  0  0  0
  5  6  2  0  0  0  0
  5  8  1  0  0  0  0
  9  3  1  0  0  0  0
 10 11  1  0  0  0  0
 10  9  1  0  0  0  0
 10 13  1  0  0  0  0
 11  9  1  0  0  0  0
 11 15  1  0  0  0  0
 12  9  1  0  0  0  0
 14 10  1  0  0  0  0
 16 11  1  0  0  0  0
 17  2  1  0  0  0  0
 18 17  2  0  0  0  0
 19 18  1  0  0  0  0
 20 18  1  0  0  0  0
 21 20  1  0  0  0  0
 22 20  2  0  0  0  0
 22 23  1  0  0  0  0
 23 24  2  0  0  0  0
 24 17  1  0  0  0  0
M  END
>  <minimizedAffinity>
-3.66145468

>  <minimizedRMSD>
3.25466037

$$$$
