
 OpenBabel03252505043D

 33 35  0  0  1  0  0  0  0  0999 V2000
   40.9300   31.9700   39.2080 C   0  0  2  0  0  0  0  0  0  0  0  0
   41.7080   32.5670   40.3310 C   0  0  0  0  0  0  0  0  0  0  0  0
   42.0320   34.0020   40.2150 C   0  0  0  0  0  0  0  0  0  0  0  0
   42.7470   34.1610   38.8810 C   0  0  0  0  0  0  0  0  0  0  0  0
   41.8890   33.8560   37.7430 C   0  0  0  0  0  0  0  0  0  0  0  0
   40.9520   32.7050   37.9520 C   0  0  0  0  0  0  0  0  0  0  0  0
   41.3080   30.9410   39.0390 H   0  0  0  0  0  0  0  0  0  0  0  0
   41.2190   32.4070   41.3210 H   0  0  0  0  0  0  0  0  0  0  0  0
   42.6900   32.0280   40.4280 H   0  0  0  0  0  0  0  0  0  0  0  0
   41.1590   34.6840   40.2700 H   0  0  0  0  0  0  0  0  0  0  0  0
   42.7570   34.2710   40.9980 H   0  0  0  0  0  0  0  0  0  0  0  0
   42.9230   35.2690   38.8110 H   0  0  0  0  0  0  0  0  0  0  0  0
   43.7170   33.6700   38.8990 H   0  0  0  0  0  0  0  0  0  0  0  0
   41.7680   34.2640   36.7840 H   0  0  0  0  0  0  0  0  0  0  0  0
   37.3600   32.5920   39.9410 C   0  0  0  0  0  0  0  0  0  0  0  0
   36.9820   31.4260   40.6470 C   0  0  0  0  0  0  0  0  0  0  0  0
   37.9840   30.4430   40.8560 C   0  0  0  0  0  0  0  0  0  0  0  0
   39.2340   30.6610   40.3790 N   0  0  0  0  0  0  0  0  0  0  0  0
   39.5450   31.7940   39.7090 C   0  0  0  0  0  0  0  0  0  0  0  0
   38.6140   32.7620   39.4880 N   0  0  0  0  0  0  0  0  0  0  0  0
   36.6420   33.3710   39.7540 H   0  0  0  0  0  0  0  0  0  0  0  0
   35.9690   31.3100   41.0030 H   0  0  0  0  0  0  0  0  0  0  0  0
   37.6310   29.2280   41.5800 C   0  0  0  0  0  0  0  0  0  0  0  0
   37.6830   29.2610   42.9490 C   0  0  0  0  0  0  0  0  0  0  0  0
   37.9650   30.1170   43.5470 H   0  0  0  0  0  0  0  0  0  0  0  0
   37.3410   28.0880   43.6330 C   0  0  0  0  0  0  0  0  0  0  0  0
   37.3450   27.9980   44.6930 H   0  0  0  0  0  0  0  0  0  0  0  0
   36.9850   27.0100   42.8350 C   0  0  0  0  0  3  0  0  0  0  0  0
   36.9330   26.9760   41.4620 C   0  0  0  0  0  3  0  0  0  0  0  0
   37.2790   28.1550   40.8650 N   0  0  0  0  0  0  0  0  0  0  0  0
   40.0520   32.2990   36.9260 N   0  0  0  0  0  0  0  0  0  0  0  0
   39.1020   32.5990   36.5590 H   0  0  0  0  0  0  0  0  0  0  0  0
   40.6130   31.5100   36.5400 H   0  0  0  0  0  0  0  0  0  0  0  0
  1  7  1  6  0  0  0
  1 19  1  0  0  0  0
  1  2  1  0  0  0  0
  2  9  1  0  0  0  0
  2  8  1  0  0  0  0
  3 10  1  0  0  0  0
  3  2  1  0  0  0  0
  3 11  1  0  0  0  0
  4 13  1  0  0  0  0
  4  3  1  0  0  0  0
  5  6  2  0  0  0  0
  5  4  1  0  0  0  0
  6  1  1  0  0  0  0
 12  4  1  0  0  0  0
 14  5  1  0  0  0  0
 15 16  1  0  0  0  0
 16 17  2  0  0  0  0
 16 22  1  0  0  0  0
 17 23  1  0  0  0  0
 18 17  1  0  0  0  0
 19 18  2  0  0  0  0
 20 19  1  0  0  0  0
 20 15  2  0  0  0  0
 21 15  1  0  0  0  0
 23 24  1  0  0  0  0
 24 25  1  0  0  0  0
 24 26  2  0  0  0  0
 26 27  1  0  0  0  0
 28 26  1  0  0  0  0
 29 28  2  0  0  0  0
 30 29  1  0  0  0  0
 30 23  2  0  0  0  0
 31  6  1  0  0  0  0
 32 31  1  0  0  0  0
 33 31  1  0  0  0  0
M  END
>  <minimizedAffinity>
-5.81028175

$$$$

 OpenBabel03252505043D

 33 35  0  0  1  0  0  0  0  0999 V2000
   37.1160   27.3970   42.5860 C   0  0  2  0  0  0  0  0  0  0  0  0
   38.0360   27.9630   43.6150 C   0  0  0  0  0  0  0  0  0  0  0  0
   39.4670   27.6310   43.4710 C   0  0  0  0  0  0  0  0  0  0  0  0
   39.5380   26.1120   43.4190 C   0  0  0  0  0  0  0  0  0  0  0  0
   38.8830   25.5570   42.2420 C   0  0  0  0  0  0  0  0  0  0  0  0
   37.6200   26.2560   41.8360 C   0  0  0  0  0  0  0  0  0  0  0  0
   36.1690   27.1160   43.0910 H   0  0  0  0  0  0  0  0  0  0  0  0
   37.9500   29.0720   43.7000 H   0  0  0  0  0  0  0  0  0  0  0  0
   37.7260   27.5930   44.6310 H   0  0  0  0  0  0  0  0  0  0  0  0
   39.9610   28.0730   42.5820 H   0  0  0  0  0  0  0  0  0  0  0  0
   40.0010   27.9450   44.3810 H   0  0  0  0  0  0  0  0  0  0  0  0
   40.6320   25.9090   43.2540 H   0  0  0  0  0  0  0  0  0  0  0  0
   39.2590   25.6760   44.3760 H   0  0  0  0  0  0  0  0  0  0  0  0
   39.0930   24.7620   41.5900 H   0  0  0  0  0  0  0  0  0  0  0  0
   35.2660   29.5120   40.1840 C   0  0  0  0  0  0  0  0  0  0  0  0
   36.1190   30.6300   40.0360 C   0  0  0  0  0  0  0  0  0  0  0  0
   37.3290   30.6230   40.7790 C   0  0  0  0  0  0  0  0  0  0  0  0
   37.6070   29.5670   41.5800 N   0  0  0  0  0  0  0  0  0  0  0  0
   36.7560   28.5200   41.6870 C   0  0  0  0  0  0  0  0  0  0  0  0
   35.5870   28.4870   40.9930 N   0  0  0  0  0  0  0  0  0  0  0  0
   34.3360   29.4630   39.6450 H   0  0  0  0  0  0  0  0  0  0  0  0
   35.8430   31.4430   39.3810 H   0  0  0  0  0  0  0  0  0  0  0  0
   38.2340   31.7600   40.6510 C   0  0  0  0  0  0  0  0  0  0  0  0
   37.7080   32.9520   40.2300 C   0  0  0  0  0  0  0  0  0  0  0  0
   36.6700   33.1290   39.9810 H   0  0  0  0  0  0  0  0  0  0  0  0
   38.5860   34.0360   40.1110 C   0  0  0  0  0  0  0  0  0  0  0  0
   38.2900   35.0070   39.7940 H   0  0  0  0  0  0  0  0  0  0  0  0
   39.9100   33.7740   40.4380 C   0  0  0  0  0  3  0  0  0  0  0  0
   40.4390   32.5770   40.8600 C   0  0  0  0  0  3  0  0  0  0  0  0
   39.5220   31.5680   40.9520 N   0  0  0  0  0  0  0  0  0  0  0  0
   36.8780   25.8250   40.7000 N   0  0  0  0  0  0  0  0  0  0  0  0
   36.9180   25.9560   39.6470 H   0  0  0  0  0  0  0  0  0  0  0  0
   36.1630   25.2540   41.1980 H   0  0  0  0  0  0  0  0  0  0  0  0
  1  7  1  1  0  0  0
  1  2  1  0  0  0  0
  2  8  1  0  0  0  0
  2  9  1  0  0  0  0
  3  2  1  0  0  0  0
  3 11  1  0  0  0  0
  4  3  1  0  0  0  0
  4 13  1  0  0  0  0
  5  4  1  0  0  0  0
  6  5  2  0  0  0  0
  6  1  1  0  0  0  0
 10  3  1  0  0  0  0
 12  4  1  0  0  0  0
 14  5  1  0  0  0  0
 15 20  1  0  0  0  0
 16 15  2  0  0  0  0
 16 17  1  0  0  0  0
 17 18  2  0  0  0  0
 18 19  1  0  0  0  0
 19  1  1  0  0  0  0
 20 19  2  0  0  0  0
 21 15  1  0  0  0  0
 22 16  1  0  0  0  0
 23 17  1  0  0  0  0
 23 30  1  0  0  0  0
 24 23  2  0  0  0  0
 25 24  1  0  0  0  0
 26 24  1  0  0  0  0
 26 28  2  0  0  0  0
 27 26  1  0  0  0  0
 28 29  1  0  0  0  0
 29 30  2  0  0  0  0
 31 33  1  0  0  0  0
 31  6  1  0  0  0  0
 32 31  1  0  0  0  0
M  END
>  <minimizedAffinity>
-5.66452694

$$$$

 OpenBabel03252505043D

 33 35  0  0  1  0  0  0  0  0999 V2000
   36.4070   30.4110   39.0510 C   0  0  2  0  0  0  0  0  0  0  0  0
   37.3920   30.7410   37.9800 C   0  0  0  0  0  0  0  0  0  0  0  0
   38.6280   31.4200   38.4120 C   0  0  0  0  0  0  0  0  0  0  0  0
   38.1780   32.6600   39.1710 C   0  0  0  0  0  0  0  0  0  0  0  0
   37.4560   32.3390   40.3950 C   0  0  0  0  0  0  0  0  0  0  0  0
   36.5400   31.1570   40.2940 C   0  0  0  0  0  0  0  0  0  0  0  0
   35.3890   30.5630   38.6380 H   0  0  0  0  0  0  0  0  0  0  0  0
   37.6860   29.8460   37.3820 H   0  0  0  0  0  0  0  0  0  0  0  0
   36.9050   31.4180   37.2270 H   0  0  0  0  0  0  0  0  0  0  0  0
   39.3050   30.8050   39.0400 H   0  0  0  0  0  0  0  0  0  0  0  0
   39.1740   31.7710   37.5230 H   0  0  0  0  0  0  0  0  0  0  0  0
   39.1450   33.1120   39.5260 H   0  0  0  0  0  0  0  0  0  0  0  0
   37.7020   33.3740   38.5030 H   0  0  0  0  0  0  0  0  0  0  0  0
   37.4240   32.7520   41.3590 H   0  0  0  0  0  0  0  0  0  0  0  0
   35.9310   26.7610   38.7070 C   0  0  0  0  0  0  0  0  0  0  0  0
   36.7540   26.2440   39.7350 C   0  0  0  0  0  0  0  0  0  0  0  0
   37.4580   27.1830   40.5330 C   0  0  0  0  0  0  0  0  0  0  0  0
   37.3160   28.5060   40.2790 N   0  0  0  0  0  0  0  0  0  0  0  0
   36.5160   28.9500   39.2810 C   0  0  0  0  0  0  0  0  0  0  0  0
   35.8230   28.0840   38.4940 N   0  0  0  0  0  0  0  0  0  0  0  0
   35.3730   26.0960   38.0710 H   0  0  0  0  0  0  0  0  0  0  0  0
   36.8270   25.1780   39.8900 H   0  0  0  0  0  0  0  0  0  0  0  0
   38.3160   26.6870   41.6030 C   0  0  0  0  0  0  0  0  0  0  0  0
   38.5930   27.5320   42.6450 C   0  0  0  0  0  0  0  0  0  0  0  0
   38.2290   28.5460   42.7450 H   0  0  0  0  0  0  0  0  0  0  0  0
   39.4170   27.0450   43.6660 C   0  0  0  0  0  0  0  0  0  0  0  0
   39.6980   27.6110   44.5220 H   0  0  0  0  0  0  0  0  0  0  0  0
   39.8660   25.7420   43.5040 C   0  0  0  0  0  3  0  0  0  0  0  0
   39.5880   24.8920   42.4600 C   0  0  0  0  0  3  0  0  0  0  0  0
   38.7790   25.4370   41.5030 N   0  0  0  0  0  0  0  0  0  0  0  0
   35.7750   30.7260   41.4150 N   0  0  0  0  0  0  0  0  0  0  0  0
   35.9300   30.1360   42.2830 H   0  0  0  0  0  0  0  0  0  0  0  0
   34.8750   31.1890   41.1660 H   0  0  0  0  0  0  0  0  0  0  0  0
  1  7  1  6  0  0  0
  1 19  1  0  0  0  0
  1  6  1  0  0  0  0
  2  3  1  0  0  0  0
  2  1  1  0  0  0  0
  3 10  1  0  0  0  0
  3  4  1  0  0  0  0
  4 12  1  0  0  0  0
  4  5  1  0  0  0  0
  5 14  1  0  0  0  0
  6  5  2  0  0  0  0
  6 31  1  0  0  0  0
  8  2  1  0  0  0  0
  9  2  1  0  0  0  0
 11  3  1  0  0  0  0
 13  4  1  0  0  0  0
 15 16  1  0  0  0  0
 16 22  1  0  0  0  0
 16 17  2  0  0  0  0
 17 23  1  0  0  0  0
 18 17  1  0  0  0  0
 19 18  2  0  0  0  0
 20 15  2  0  0  0  0
 20 19  1  0  0  0  0
 21 15  1  0  0  0  0
 23 24  1  0  0  0  0
 24 25  1  0  0  0  0
 24 26  2  0  0  0  0
 26 27  1  0  0  0  0
 28 26  1  0  0  0  0
 29 28  2  0  0  0  0
 30 23  2  0  0  0  0
 30 29  1  0  0  0  0
 31 32  1  0  0  0  0
 33 31  1  0  0  0  0
M  END
>  <minimizedAffinity>
-5.59750032

$$$$

 OpenBabel03252505043D

 33 35  0  0  1  0  0  0  0  0999 V2000
   39.1800   30.0550   42.6470 C   0  0  2  0  0  0  0  0  0  0  0  0
   40.5450   29.6630   42.1880 C   0  0  0  0  0  0  0  0  0  0  0  0
   40.7400   28.2390   41.8510 C   0  0  0  0  0  0  0  0  0  0  0  0
   40.3070   27.4570   43.0820 C   0  0  0  0  0  0  0  0  0  0  0  0
   38.8870   27.6030   43.3720 C   0  0  0  0  0  0  0  0  0  0  0  0
   38.3330   28.9750   43.1310 C   0  0  0  0  0  0  0  0  0  0  0  0
   39.2930   30.8200   43.4420 H   0  0  0  0  0  0  0  0  0  0  0  0
   40.8930   30.2700   41.3190 H   0  0  0  0  0  0  0  0  0  0  0  0
   41.2880   29.9010   42.9960 H   0  0  0  0  0  0  0  0  0  0  0  0
   40.1850   27.8910   40.9560 H   0  0  0  0  0  0  0  0  0  0  0  0
   41.8150   28.0480   41.7130 H   0  0  0  0  0  0  0  0  0  0  0  0
   40.4200   26.3850   42.7620 H   0  0  0  0  0  0  0  0  0  0  0  0
   40.9890   27.6300   43.9120 H   0  0  0  0  0  0  0  0  0  0  0  0
   38.1370   26.9560   43.7190 H   0  0  0  0  0  0  0  0  0  0  0  0
   38.2380   32.7290   40.2730 C   0  0  0  0  0  0  0  0  0  0  0  0
   37.3660   32.0600   39.3840 C   0  0  0  0  0  0  0  0  0  0  0  0
   37.1200   30.6840   39.6330 C   0  0  0  0  0  0  0  0  0  0  0  0
   37.7210   30.0850   40.6890 N   0  0  0  0  0  0  0  0  0  0  0  0
   38.5490   30.7700   41.5100 C   0  0  0  0  0  0  0  0  0  0  0  0
   38.8110   32.0900   41.3080 N   0  0  0  0  0  0  0  0  0  0  0  0
   38.4610   33.7730   40.1340 H   0  0  0  0  0  0  0  0  0  0  0  0
   36.9160   32.5920   38.5590 H   0  0  0  0  0  0  0  0  0  0  0  0
   36.2240   29.9610   38.7370 C   0  0  0  0  0  0  0  0  0  0  0  0
   35.1220   29.3600   39.2830 C   0  0  0  0  0  0  0  0  0  0  0  0
   34.8520   29.3740   40.3300 H   0  0  0  0  0  0  0  0  0  0  0  0
   34.2690   28.6690   38.4130 C   0  0  0  0  0  0  0  0  0  0  0  0
   33.3860   28.1660   38.7250 H   0  0  0  0  0  0  0  0  0  0  0  0
   34.6460   28.6710   37.0770 C   0  0  0  0  0  3  0  0  0  0  0  0
   35.7520   29.2740   36.5280 C   0  0  0  0  0  3  0  0  0  0  0  0
   36.5350   29.9280   37.4370 N   0  0  0  0  0  0  0  0  0  0  0  0
   36.9580   29.2610   43.3660 N   0  0  0  0  0  0  0  0  0  0  0  0
   36.0380   29.1400   42.8510 H   0  0  0  0  0  0  0  0  0  0  0  0
   37.0550   29.6860   44.3120 H   0  0  0  0  0  0  0  0  0  0  0  0
  1  6  1  0  0  0  0
  1  7  1  1  0  0  0
  2  1  1  0  0  0  0
  2  9  1  0  0  0  0
  3  2  1  0  0  0  0
  3  4  1  0  0  0  0
  4  5  1  0  0  0  0
  4 13  1  0  0  0  0
  5 14  1  0  0  0  0
  6 31  1  0  0  0  0
  6  5  2  0  0  0  0
  8  2  1  0  0  0  0
 10  3  1  0  0  0  0
 11  3  1  0  0  0  0
 12  4  1  0  0  0  0
 15 20  1  0  0  0  0
 16 17  1  0  0  0  0
 16 15  2  0  0  0  0
 17 18  2  0  0  0  0
 18 19  1  0  0  0  0
 19  1  1  0  0  0  0
 20 19  2  0  0  0  0
 21 15  1  0  0  0  0
 22 16  1  0  0  0  0
 23 24  1  0  0  0  0
 23 17  1  0  0  0  0
 24 25  1  0  0  0  0
 26 27  1  0  0  0  0
 26 24  2  0  0  0  0
 28 26  1  0  0  0  0
 29 28  2  0  0  0  0
 29 30  1  0  0  0  0
 30 23  2  0  0  0  0
 31 33  1  0  0  0  0
 32 31  1  0  0  0  0
M  END
>  <minimizedAffinity>
-5.5682044

$$$$

 OpenBabel03252505043D

 33 35  0  0  1  0  0  0  0  0999 V2000
   36.0950   29.4750   39.5100 C   0  0  2  0  0  0  0  0  0  0  0  0
   36.8800   29.2420   38.2630 C   0  0  0  0  0  0  0  0  0  0  0  0
   38.0230   30.1450   38.0280 C   0  0  0  0  0  0  0  0  0  0  0  0
   37.4570   31.5570   38.0880 C   0  0  0  0  0  0  0  0  0  0  0  0
   36.9440   31.9020   39.4080 C   0  0  0  0  0  0  0  0  0  0  0  0
   36.2390   30.7880   40.1210 C   0  0  0  0  0  0  0  0  0  0  0  0
   35.0260   29.2910   39.2800 H   0  0  0  0  0  0  0  0  0  0  0  0
   37.2530   28.1940   38.1830 H   0  0  0  0  0  0  0  0  0  0  0  0
   36.2010   29.3530   37.3740 H   0  0  0  0  0  0  0  0  0  0  0  0
   38.8620   30.0340   38.7450 H   0  0  0  0  0  0  0  0  0  0  0  0
   38.3950   29.9950   37.0040 H   0  0  0  0  0  0  0  0  0  0  0  0
   38.3650   32.2070   37.9600 H   0  0  0  0  0  0  0  0  0  0  0  0
   36.7920   31.7450   37.2480 H   0  0  0  0  0  0  0  0  0  0  0  0
   36.9530   32.7720   39.9950 H   0  0  0  0  0  0  0  0  0  0  0  0
   37.1210   27.7060   42.5900 C   0  0  0  0  0  0  0  0  0  0  0  0
   37.1780   26.3580   42.1680 C   0  0  0  0  0  0  0  0  0  0  0  0
   36.8590   26.0910   40.8110 C   0  0  0  0  0  0  0  0  0  0  0  0
   36.5200   27.1200   39.9970 N   0  0  0  0  0  0  0  0  0  0  0  0
   36.4790   28.3940   40.4510 C   0  0  0  0  0  0  0  0  0  0  0  0
   36.7780   28.6930   41.7440 N   0  0  0  0  0  0  0  0  0  0  0  0
   37.3530   27.9670   43.6080 H   0  0  0  0  0  0  0  0  0  0  0  0
   37.4560   25.5810   42.8640 H   0  0  0  0  0  0  0  0  0  0  0  0
   36.9080   24.7120   40.3390 C   0  0  0  0  0  0  0  0  0  0  0  0
   36.0510   24.3490   39.3340 C   0  0  0  0  0  0  0  0  0  0  0  0
   35.3330   25.0000   38.8540 H   0  0  0  0  0  0  0  0  0  0  0  0
   36.1070   23.0230   38.8900 C   0  0  0  0  0  0  0  0  0  0  0  0
   35.4910   22.6300   38.1170 H   0  0  0  0  0  0  0  0  0  0  0  0
   37.0380   22.2150   39.5280 C   0  0  0  0  0  3  0  0  0  0  0  0
   37.8980   22.5780   40.5370 C   0  0  0  0  0  3  0  0  0  0  0  0
   37.7860   23.8860   40.9170 N   0  0  0  0  0  0  0  0  0  0  0  0
   35.6930   30.9810   41.4210 N   0  0  0  0  0  0  0  0  0  0  0  0
   36.0450   30.9800   42.4220 H   0  0  0  0  0  0  0  0  0  0  0  0
   34.7040   31.1560   41.1420 H   0  0  0  0  0  0  0  0  0  0  0  0
  1  7  1  6  0  0  0
  1  6  1  0  0  0  0
  1 19  1  0  0  0  0
  2  1  1  0  0  0  0
  3  4  1  0  0  0  0
  3  2  1  0  0  0  0
  3 10  1  0  0  0  0
  4  5  1  0  0  0  0
  5 14  1  0  0  0  0
  5  6  2  0  0  0  0
  6 31  1  0  0  0  0
  8  2  1  0  0  0  0
  9  2  1  0  0  0  0
 11  3  1  0  0  0  0
 12  4  1  0  0  0  0
 13  4  1  0  0  0  0
 15 21  1  0  0  0  0
 16 15  1  0  0  0  0
 16 22  1  0  0  0  0
 17 16  2  0  0  0  0
 18 19  2  0  0  0  0
 18 17  1  0  0  0  0
 19 20  1  0  0  0  0
 20 15  2  0  0  0  0
 23 17  1  0  0  0  0
 23 30  1  0  0  0  0
 24 23  2  0  0  0  0
 25 24  1  0  0  0  0
 26 24  1  0  0  0  0
 26 28  2  0  0  0  0
 27 26  1  0  0  0  0
 28 29  1  0  0  0  0
 29 30  2  0  0  0  0
 31 32  1  0  0  0  0
 33 31  1  0  0  0  0
M  END
>  <minimizedAffinity>
-5.53066921

$$$$

 OpenBabel03252505043D

 33 35  0  0  1  0  0  0  0  0999 V2000
   38.3230   32.1830   38.3920 C   0  0  2  0  0  0  0  0  0  0  0  0
   39.6860   31.7080   38.0170 C   0  0  0  0  0  0  0  0  0  0  0  0
   40.7340   31.8400   39.0480 C   0  0  0  0  0  0  0  0  0  0  0  0
   40.7340   33.3070   39.4560 C   0  0  0  0  0  0  0  0  0  0  0  0
   39.4920   33.7120   40.1000 C   0  0  0  0  0  0  0  0  0  0  0  0
   38.2520   33.1030   39.5170 C   0  0  0  0  0  0  0  0  0  0  0  0
   37.8680   32.6580   37.4990 H   0  0  0  0  0  0  0  0  0  0  0  0
   39.6870   30.6500   37.6640 H   0  0  0  0  0  0  0  0  0  0  0  0
   40.0460   32.2890   37.1250 H   0  0  0  0  0  0  0  0  0  0  0  0
   40.5980   31.1910   39.9380 H   0  0  0  0  0  0  0  0  0  0  0  0
   41.7140   31.6360   38.5920 H   0  0  0  0  0  0  0  0  0  0  0  0
   41.5020   33.3480   40.2760 H   0  0  0  0  0  0  0  0  0  0  0  0
   41.0820   33.9370   38.6410 H   0  0  0  0  0  0  0  0  0  0  0  0
   39.2520   34.3480   40.9000 H   0  0  0  0  0  0  0  0  0  0  0  0
   35.9190   29.4140   37.9120 C   0  0  0  0  0  0  0  0  0  0  0  0
   36.0300   28.6950   39.1250 C   0  0  0  0  0  0  0  0  0  0  0  0
   36.9430   29.1940   40.0910 C   0  0  0  0  0  0  0  0  0  0  0  0
   37.6540   30.3140   39.8140 N   0  0  0  0  0  0  0  0  0  0  0  0
   37.5110   30.9650   38.6360 C   0  0  0  0  0  0  0  0  0  0  0  0
   36.6470   30.5210   37.6840 N   0  0  0  0  0  0  0  0  0  0  0  0
   35.2430   29.0830   37.1440 H   0  0  0  0  0  0  0  0  0  0  0  0
   35.4360   27.8080   39.2890 H   0  0  0  0  0  0  0  0  0  0  0  0
   37.0840   28.4790   41.3540 C   0  0  0  0  0  0  0  0  0  0  0  0
   36.9600   27.1150   41.3350 C   0  0  0  0  0  0  0  0  0  0  0  0
   36.7650   26.5140   40.4560 H   0  0  0  0  0  0  0  0  0  0  0  0
   37.0970   26.4390   42.5530 C   0  0  0  0  0  0  0  0  0  0  0  0
   37.0210   25.3830   42.6570 H   0  0  0  0  0  0  0  0  0  0  0  0
   37.3450   27.2400   43.6580 C   0  0  0  0  0  3  0  0  0  0  0  0
   37.4690   28.6090   43.6800 C   0  0  0  0  0  3  0  0  0  0  0  0
   37.3240   29.1980   42.4550 N   0  0  0  0  0  0  0  0  0  0  0  0
   36.9670   33.4060   40.0520 N   0  0  0  0  0  0  0  0  0  0  0  0
   36.3660   33.0830   40.8640 H   0  0  0  0  0  0  0  0  0  0  0  0
   36.6890   34.1360   39.3620 H   0  0  0  0  0  0  0  0  0  0  0  0
  1  7  1  6  0  0  0
  1 19  1  0  0  0  0
  1  6  1  0  0  0  0
  2  1  1  0  0  0  0
  2  3  1  0  0  0  0
  3  4  1  0  0  0  0
  3 10  1  0  0  0  0
  4  5  1  0  0  0  0
  4 12  1  0  0  0  0
  5 14  1  0  0  0  0
  6 31  1  0  0  0  0
  6  5  2  0  0  0  0
  8  2  1  0  0  0  0
  9  2  1  0  0  0  0
 11  3  1  0  0  0  0
 13  4  1  0  0  0  0
 15 16  1  0  0  0  0
 16 22  1  0  0  0  0
 16 17  2  0  0  0  0
 17 23  1  0  0  0  0
 18 17  1  0  0  0  0
 19 18  2  0  0  0  0
 20 15  2  0  0  0  0
 20 19  1  0  0  0  0
 21 15  1  0  0  0  0
 23 30  1  0  0  0  0
 24 23  2  0  0  0  0
 24 26  1  0  0  0  0
 25 24  1  0  0  0  0
 26 27  1  0  0  0  0
 26 28  2  0  0  0  0
 28 29  1  0  0  0  0
 30 29  2  0  0  0  0
 31 32  1  0  0  0  0
 33 31  1  0  0  0  0
M  END
>  <minimizedAffinity>
-5.43324232

$$$$

 OpenBabel03252505043D

 33 35  0  0  1  0  0  0  0  0999 V2000
   37.9770   27.4360   41.8150 C   0  0  2  0  0  0  0  0  0  0  0  0
   38.4930   26.6040   40.6890 C   0  0  0  0  0  0  0  0  0  0  0  0
   37.6650   25.4480   40.2930 C   0  0  0  0  0  0  0  0  0  0  0  0
   37.4630   24.6290   41.5600 C   0  0  0  0  0  0  0  0  0  0  0  0
   36.6930   25.3380   42.5730 C   0  0  0  0  0  0  0  0  0  0  0  0
   36.9890   26.8040   42.6760 C   0  0  0  0  0  0  0  0  0  0  0  0
   38.8440   27.7610   42.4260 H   0  0  0  0  0  0  0  0  0  0  0  0
   38.6960   27.2070   39.7730 H   0  0  0  0  0  0  0  0  0  0  0  0
   39.5010   26.1910   40.9670 H   0  0  0  0  0  0  0  0  0  0  0  0
   36.6860   25.7080   39.8400 H   0  0  0  0  0  0  0  0  0  0  0  0
   38.2370   24.8200   39.5950 H   0  0  0  0  0  0  0  0  0  0  0  0
   36.7870   23.7960   41.2250 H   0  0  0  0  0  0  0  0  0  0  0  0
   38.4000   24.1850   41.8890 H   0  0  0  0  0  0  0  0  0  0  0  0
   35.9590   25.0570   43.2680 H   0  0  0  0  0  0  0  0  0  0  0  0
   35.6440   29.9360   40.4100 C   0  0  0  0  0  0  0  0  0  0  0  0
   36.5040   31.0090   40.0790 C   0  0  0  0  0  0  0  0  0  0  0  0
   37.8860   30.8380   40.3510 C   0  0  0  0  0  0  0  0  0  0  0  0
   38.3120   29.6770   40.9050 N   0  0  0  0  0  0  0  0  0  0  0  0
   37.4480   28.6800   41.2040 C   0  0  0  0  0  0  0  0  0  0  0  0
   36.1150   28.8040   40.9590 N   0  0  0  0  0  0  0  0  0  0  0  0
   34.5860   30.0110   40.2260 H   0  0  0  0  0  0  0  0  0  0  0  0
   36.1050   31.9110   39.6380 H   0  0  0  0  0  0  0  0  0  0  0  0
   38.8040   31.9230   40.0220 C   0  0  0  0  0  0  0  0  0  0  0  0
   38.6260   33.1250   40.6540 C   0  0  0  0  0  0  0  0  0  0  0  0
   37.8580   33.3430   41.3850 H   0  0  0  0  0  0  0  0  0  0  0  0
   39.5120   34.1590   40.3310 C   0  0  0  0  0  0  0  0  0  0  0  0
   39.4690   35.1320   40.7590 H   0  0  0  0  0  0  0  0  0  0  0  0
   40.4840   33.8440   39.3910 C   0  0  0  0  0  3  0  0  0  0  0  0
   40.6630   32.6380   38.7550 C   0  0  0  0  0  3  0  0  0  0  0  0
   39.7620   31.6790   39.1220 N   0  0  0  0  0  0  0  0  0  0  0  0
   36.3060   27.6230   43.6200 N   0  0  0  0  0  0  0  0  0  0  0  0
   35.3740   28.1260   43.6850 H   0  0  0  0  0  0  0  0  0  0  0  0
   37.0350   27.6300   44.3640 H   0  0  0  0  0  0  0  0  0  0  0  0
  1  7  1  1  0  0  0
  1  6  1  0  0  0  0
  2  9  1  0  0  0  0
  2  1  1  0  0  0  0
  3  2  1  0  0  0  0
  3  4  1  0  0  0  0
  4 13  1  0  0  0  0
  4  5  1  0  0  0  0
  5  6  2  0  0  0  0
  5 14  1  0  0  0  0
  6 31  1  0  0  0  0
  8  2  1  0  0  0  0
 10  3  1  0  0  0  0
 11  3  1  0  0  0  0
 12  4  1  0  0  0  0
 15 20  1  0  0  0  0
 16 17  1  0  0  0  0
 16 15  2  0  0  0  0
 17 18  2  0  0  0  0
 18 19  1  0  0  0  0
 19  1  1  0  0  0  0
 20 19  2  0  0  0  0
 21 15  1  0  0  0  0
 22 16  1  0  0  0  0
 23 17  1  0  0  0  0
 23 24  1  0  0  0  0
 24 25  1  0  0  0  0
 26 24  2  0  0  0  0
 26 27  1  0  0  0  0
 28 26  1  0  0  0  0
 29 30  1  0  0  0  0
 29 28  2  0  0  0  0
 30 23  2  0  0  0  0
 31 32  1  0  0  0  0
 31 33  1  0  0  0  0
M  END
>  <minimizedAffinity>
-5.21869421

$$$$

 OpenBabel03252505043D

 33 35  0  0  1  0  0  0  0  0999 V2000
   36.3750   28.4630   41.1210 C   0  0  2  0  0  0  0  0  0  0  0  0
   36.5810   27.3030   40.2050 C   0  0  0  0  0  0  0  0  0  0  0  0
   36.4450   27.5750   38.7610 C   0  0  0  0  0  0  0  0  0  0  0  0
   35.0700   28.2030   38.5830 C   0  0  0  0  0  0  0  0  0  0  0  0
   34.9530   29.4980   39.2420 C   0  0  0  0  0  0  0  0  0  0  0  0
   35.6490   29.5960   40.5660 C   0  0  0  0  0  0  0  0  0  0  0  0
   35.8480   28.0950   42.0260 H   0  0  0  0  0  0  0  0  0  0  0  0
   37.5640   26.8020   40.3670 H   0  0  0  0  0  0  0  0  0  0  0  0
   35.8300   26.5040   40.4490 H   0  0  0  0  0  0  0  0  0  0  0  0
   37.2290   28.2330   38.3340 H   0  0  0  0  0  0  0  0  0  0  0  0
   36.4320   26.6200   38.2160 H   0  0  0  0  0  0  0  0  0  0  0  0
   35.0340   28.4420   37.4860 H   0  0  0  0  0  0  0  0  0  0  0  0
   34.2830   27.4820   38.7930 H   0  0  0  0  0  0  0  0  0  0  0  0
   34.4830   30.4050   39.0010 H   0  0  0  0  0  0  0  0  0  0  0  0
   39.5320   28.5580   43.0420 C   0  0  0  0  0  0  0  0  0  0  0  0
   40.2290   29.6300   42.4390 C   0  0  0  0  0  0  0  0  0  0  0  0
   39.5800   30.3030   41.3710 C   0  0  0  0  0  0  0  0  0  0  0  0
   38.3470   29.8960   40.9840 N   0  0  0  0  0  0  0  0  0  0  0  0
   37.7230   28.8630   41.5950 C   0  0  0  0  0  0  0  0  0  0  0  0
   38.3090   28.1910   42.6230 N   0  0  0  0  0  0  0  0  0  0  0  0
   39.9760   28.0120   43.8570 H   0  0  0  0  0  0  0  0  0  0  0  0
   41.2110   29.9090   42.7910 H   0  0  0  0  0  0  0  0  0  0  0  0
   40.2680   31.4150   40.7240 C   0  0  0  0  0  0  0  0  0  0  0  0
   39.7650   31.8750   39.5370 C   0  0  0  0  0  0  0  0  0  0  0  0
   38.8930   31.4840   39.0300 H   0  0  0  0  0  0  0  0  0  0  0  0
   40.4330   32.9430   38.9260 C   0  0  0  0  0  0  0  0  0  0  0  0
   40.1320   33.3810   38.0040 H   0  0  0  0  0  0  0  0  0  0  0  0
   41.5480   33.4190   39.6030 C   0  0  0  0  0  3  0  0  0  0  0  0
   42.0540   32.9570   40.7940 C   0  0  0  0  0  3  0  0  0  0  0  0
   41.3490   31.9170   41.3300 N   0  0  0  0  0  0  0  0  0  0  0  0
   35.6230   30.8040   41.3180 N   0  0  0  0  0  0  0  0  0  0  0  0
   36.1460   31.7270   41.3280 H   0  0  0  0  0  0  0  0  0  0  0  0
   34.8500   30.5550   41.9710 H   0  0  0  0  0  0  0  0  0  0  0  0
  1 19  1  0  0  0  0
  1  7  1  1  0  0  0
  2  8  1  0  0  0  0
  2  9  1  0  0  0  0
  2  1  1  0  0  0  0
  3  2  1  0  0  0  0
  4  3  1  0  0  0  0
  4 13  1  0  0  0  0
  4  5  1  0  0  0  0
  5  6  2  0  0  0  0
  6  1  1  0  0  0  0
  6 31  1  0  0  0  0
 10  3  1  0  0  0  0
 11  3  1  0  0  0  0
 12  4  1  0  0  0  0
 14  5  1  0  0  0  0
 15 21  1  0  0  0  0
 16 22  1  0  0  0  0
 16 15  2  0  0  0  0
 17 16  1  0  0  0  0
 18 17  2  0  0  0  0
 18 19  1  0  0  0  0
 19 20  2  0  0  0  0
 20 15  1  0  0  0  0
 23 30  1  0  0  0  0
 23 17  1  0  0  0  0
 24 23  2  0  0  0  0
 25 24  1  0  0  0  0
 26 24  1  0  0  0  0
 26 28  2  0  0  0  0
 27 26  1  0  0  0  0
 28 29  1  0  0  0  0
 29 30  2  0  0  0  0
 31 32  1  0  0  0  0
 31 33  1  0  0  0  0
M  END
>  <minimizedAffinity>
-5.1059947

$$$$

 OpenBabel03252505043D

 33 35  0  0  1  0  0  0  0  0999 V2000
   37.2190   31.4930   38.7270 C   0  0  2  0  0  0  0  0  0  0  0  0
   36.2020   30.5260   39.2330 C   0  0  0  0  0  0  0  0  0  0  0  0
   36.1210   29.2320   38.5300 C   0  0  0  0  0  0  0  0  0  0  0  0
   35.9040   29.5690   37.0610 C   0  0  0  0  0  0  0  0  0  0  0  0
   37.0370   30.2690   36.4710 C   0  0  0  0  0  0  0  0  0  0  0  0
   37.7000   31.2660   37.3720 C   0  0  0  0  0  0  0  0  0  0  0  0
   36.7870   32.5130   38.7990 H   0  0  0  0  0  0  0  0  0  0  0  0
   36.3200   30.3160   40.3220 H   0  0  0  0  0  0  0  0  0  0  0  0
   35.1820   30.9920   39.1590 H   0  0  0  0  0  0  0  0  0  0  0  0
   37.0090   28.5780   38.6500 H   0  0  0  0  0  0  0  0  0  0  0  0
   35.2220   28.6950   38.8700 H   0  0  0  0  0  0  0  0  0  0  0  0
   35.9030   28.5620   36.5610 H   0  0  0  0  0  0  0  0  0  0  0  0
   34.9250   30.0180   36.9060 H   0  0  0  0  0  0  0  0  0  0  0  0
   37.5130   30.2380   35.5370 H   0  0  0  0  0  0  0  0  0  0  0  0
   40.1460   32.5400   40.7290 C   0  0  0  0  0  0  0  0  0  0  0  0
   40.3830   31.4090   41.5440 C   0  0  0  0  0  0  0  0  0  0  0  0
   39.5160   30.2980   41.3770 C   0  0  0  0  0  0  0  0  0  0  0  0
   38.5180   30.3700   40.4620 N   0  0  0  0  0  0  0  0  0  0  0  0
   38.3330   31.4770   39.7070 C   0  0  0  0  0  0  0  0  0  0  0  0
   39.1420   32.5630   39.8350 N   0  0  0  0  0  0  0  0  0  0  0  0
   40.7730   33.4110   40.8130 H   0  0  0  0  0  0  0  0  0  0  0  0
   41.1950   31.4110   42.2560 H   0  0  0  0  0  0  0  0  0  0  0  0
   39.7300   29.1130   42.2000 C   0  0  0  0  0  0  0  0  0  0  0  0
   38.6270   28.4350   42.6450 C   0  0  0  0  0  0  0  0  0  0  0  0
   37.5990   28.7010   42.4370 H   0  0  0  0  0  0  0  0  0  0  0  0
   38.8450   27.2990   43.4340 C   0  0  0  0  0  0  0  0  0  0  0  0
   38.0650   26.6960   43.8330 H   0  0  0  0  0  0  0  0  0  0  0  0
   40.1750   26.9870   43.6800 C   0  0  0  0  0  3  0  0  0  0  0  0
   41.2830   27.6670   43.2350 C   0  0  0  0  0  3  0  0  0  0  0  0
   40.9910   28.7620   42.4710 N   0  0  0  0  0  0  0  0  0  0  0  0
   38.8240   32.0190   36.9290 N   0  0  0  0  0  0  0  0  0  0  0  0
   39.8710   31.8750   36.8370 H   0  0  0  0  0  0  0  0  0  0  0  0
   38.3220   32.8940   36.6660 H   0  0  0  0  0  0  0  0  0  0  0  0
  1  7  1  1  0  0  0
  1  2  1  0  0  0  0
  1 19  1  0  0  0  0
  2  8  1  0  0  0  0
  3 10  1  0  0  0  0
  3 11  1  0  0  0  0
  3  2  1  0  0  0  0
  4  3  1  0  0  0  0
  5  4  1  0  0  0  0
  5  6  2  0  0  0  0
  6  1  1  0  0  0  0
  9  2  1  0  0  0  0
 12  4  1  0  0  0  0
 13  4  1  0  0  0  0
 14  5  1  0  0  0  0
 15 21  1  0  0  0  0
 15 16  1  0  0  0  0
 16 22  1  0  0  0  0
 17 16  2  0  0  0  0
 17 23  1  0  0  0  0
 18 17  1  0  0  0  0
 19 20  1  0  0  0  0
 19 18  2  0  0  0  0
 20 15  2  0  0  0  0
 23 30  2  0  0  0  0
 23 24  1  0  0  0  0
 24 26  2  0  0  0  0
 25 24  1  0  0  0  0
 26 28  1  0  0  0  0
 26 27  1  0  0  0  0
 29 28  2  0  0  0  0
 30 29  1  0  0  0  0
 31  6  1  0  0  0  0
 32 31  1  0  0  0  0
 33 31  1  0  0  0  0
M  END
>  <minimizedAffinity>
-5.10087442

$$$$
