
 OpenBabel03252509213D

 24 26  0  0  0  0  0  0  0  0999 V2000
   45.3000   36.1130   43.1620 C   0  0  0  0  0  0  0  0  0  0  0  0
   45.8290   34.8280   42.9510 C   0  0  0  0  0  0  0  0  0  0  0  0
   45.6870   33.9550   44.0060 C   0  0  0  0  0  0  0  0  0  0  0  0
   45.0600   34.3780   45.1630 N   0  0  0  0  0  0  0  0  0  0  0  0
   44.5710   35.6200   45.3130 C   0  0  0  0  0  0  0  0  0  0  0  0
   44.7020   36.4810   44.2900 N   0  0  0  0  0  0  0  0  0  0  0  0
   45.3090   36.9290   42.4770 H   0  0  0  0  0  0  0  0  0  0  0  0
   44.1330   35.7010   46.2970 H   0  0  0  0  0  0  0  0  0  0  0  0
   46.1020   32.5120   43.8480 C   0  0  0  0  0  0  0  0  0  0  0  0
   47.4460   32.2640   44.5480 C   0  0  0  0  0  0  0  0  0  0  0  0
   46.0860   31.6660   45.0200 C   0  0  0  0  0  0  0  0  0  0  0  0
   46.2240   32.1010   42.8270 H   0  0  0  0  0  0  0  0  0  0  0  0
   47.8720   33.0190   45.2040 H   0  0  0  0  0  0  0  0  0  0  0  0
   48.1420   31.5250   44.1190 H   0  0  0  0  0  0  0  0  0  0  0  0
   45.7110   32.0710   45.9840 H   0  0  0  0  0  0  0  0  0  0  0  0
   46.0320   30.5530   44.9810 H   0  0  0  0  0  0  0  0  0  0  0  0
   46.4700   34.5300   41.6870 C   0  0  0  0  0  0  0  0  0  0  0  0
   45.7710   33.8570   40.7130 C   0  0  0  0  0  0  0  0  0  0  0  0
   44.7510   33.5110   40.7780 H   0  0  0  0  0  0  0  0  0  0  0  0
   46.2730   33.5130   39.4770 C   0  0  0  0  0  0  0  0  0  0  0  0
   45.7420   32.9860   38.6950 H   0  0  0  0  0  0  0  0  0  0  0  0
   47.5700   33.8470   39.1460 C   0  0  0  0  0  0  0  0  0  0  0  0
   48.2650   34.5190   40.1240 C   0  0  0  0  0  0  0  0  0  0  0  0
   47.7080   34.8120   41.2880 N   0  0  0  0  0  0  0  0  0  0  0  0
  1  6  1  0  0  0  0
  2  1  2  0  0  0  0
  2  3  1  0  0  0  0
  3  4  2  0  0  0  0
  4  5  1  0  0  0  0
  5  8  1  0  0  0  0
  6  5  2  0  0  0  0
  7  1  1  0  0  0  0
  9  3  1  0  0  0  0
  9 10  1  0  0  0  0
  9 11  1  0  0  0  0
 10 11  1  0  0  0  0
 10 13  1  0  0  0  0
 11 15  1  0  0  0  0
 12  9  1  0  0  0  0
 14 10  1  0  0  0  0
 16 11  1  0  0  0  0
 17  2  1  0  0  0  0
 18 19  1  0  0  0  0
 18 17  2  0  0  0  0
 20 18  1  0  0  0  0
 21 20  1  0  0  0  0
 22 20  2  0  0  0  0
 22 23  1  0  0  0  0
 23 24  2  0  0  0  0
 24 17  1  0  0  0  0
M  END
>  <minimizedAffinity>
-4.32910252

>  <minimizedRMSD>
3.5562849

$$$$
