
 OpenBabel03252504123D

 24 25  0  0  0  0  0  0  0  0999 V2000
   37.1430   29.3850   41.6980 C   0  0  0  0  0  0  0  0  0  0  0  0
   37.8200   28.4280   42.4530 C   0  0  0  0  0  0  0  0  0  0  0  0
   39.1580   28.6510   42.7920 C   0  0  0  0  0  0  0  0  0  0  0  0
   39.7390   29.8040   42.3600 N   0  0  0  0  0  0  0  0  0  0  0  0
   39.0550   30.7150   41.6280 C   0  0  0  0  0  0  0  0  0  0  0  0
   37.7740   30.5060   41.3030 N   0  0  0  0  0  0  0  0  0  0  0  0
   39.6930   27.9180   43.3750 H   0  0  0  0  0  0  0  0  0  0  0  0
   39.7730   31.9350   41.2080 C   0  0  0  0  0  0  0  0  0  0  0  0
   39.0220   32.9710   40.6880 C   0  0  0  0  0  0  0  0  0  0  0  0
   37.9490   32.9210   40.5800 H   0  0  0  0  0  0  0  0  0  0  0  0
   39.7760   34.0680   40.3240 C   0  0  0  0  0  0  0  0  0  0  0  0
   39.2950   34.9400   39.9040 H   0  0  0  0  0  0  0  0  0  0  0  0
   41.1440   34.1600   40.4490 C   0  0  0  0  0  3  0  0  0  0  0  0
   41.7910   33.0470   40.9880 C   0  0  0  0  0  3  0  0  0  0  0  0
   41.1090   31.9500   41.3620 N   0  0  0  0  0  0  0  0  0  0  0  0
   37.1050   27.1960   42.8810 C   0  0  0  0  0  0  0  0  0  0  0  0
   36.7510   26.4450   41.7580 F   0  0  0  0  0  0  0  0  0  0  0  0
   37.9880   26.4120   43.6020 F   0  0  0  0  0  0  0  0  0  0  0  0
   35.9780   27.3930   43.5970 F   0  0  0  0  0  0  0  0  0  0  0  0
   35.8570   29.1470   41.3880 O   0  0  0  0  0  0  0  0  0  0  0  0
   35.2950   29.0720   40.1060 C   0  0  0  0  0  0  0  0  0  0  0  0
   35.8280   27.9500   39.4760 F   0  0  0  0  0  0  0  0  0  0  0  0
   33.9250   29.0340   40.2130 F   0  0  0  0  0  0  0  0  0  0  0  0
   35.7320   30.1490   39.3450 F   0  0  0  0  0  0  0  0  0  0  0  0
  1  2  1  0  0  0  0
  2  3  2  0  0  0  0
  2 16  1  0  0  0  0
  3  7  1  0  0  0  0
  4  3  1  0  0  0  0
  5  4  2  0  0  0  0
  6  5  1  0  0  0  0
  6  1  2  0  0  0  0
  8 15  1  0  0  0  0
  8  5  1  0  0  0  0
  9  8  2  0  0  0  0
 10  9  1  0  0  0  0
 11 13  2  0  0  0  0
 11  9  1  0  0  0  0
 12 11  1  0  0  0  0
 13 14  1  0  0  0  0
 14 15  2  0  0  0  0
 16 19  1  0  0  0  0
 16 18  1  0  0  0  0
 17 16  1  0  0  0  0
 20  1  1  0  0  0  0
 21 23  1  0  0  0  0
 21 20  1  0  0  0  0
 22 21  1  0  0  0  0
 24 21  1  0  0  0  0
M  END
>  <minimizedAffinity>
-5.30945778

$$$$

 OpenBabel03252504123D

 24 25  0  0  0  0  0  0  0  0999 V2000
   36.7680   27.0210   40.6010 C   0  0  0  0  0  0  0  0  0  0  0  0
   36.6170   27.9870   41.5940 C   0  0  0  0  0  0  0  0  0  0  0  0
   35.9440   29.1750   41.2900 C   0  0  0  0  0  0  0  0  0  0  0  0
   35.4660   29.3280   40.0250 N   0  0  0  0  0  0  0  0  0  0  0  0
   35.6290   28.3690   39.0810 C   0  0  0  0  0  0  0  0  0  0  0  0
   36.2710   27.2320   39.3690 N   0  0  0  0  0  0  0  0  0  0  0  0
   35.8200   29.9320   42.0500 H   0  0  0  0  0  0  0  0  0  0  0  0
   35.0730   28.6290   37.7380 C   0  0  0  0  0  0  0  0  0  0  0  0
   33.7010   28.7370   37.6250 C   0  0  0  0  0  0  0  0  0  0  0  0
   33.0340   28.6410   38.4680 H   0  0  0  0  0  0  0  0  0  0  0  0
   33.2730   28.9790   36.3350 C   0  0  0  0  0  0  0  0  0  0  0  0
   32.2180   29.0820   36.1260 H   0  0  0  0  0  0  0  0  0  0  0  0
   34.0990   29.1060   35.2420 C   0  0  0  0  0  3  0  0  0  0  0  0
   35.4680   28.9770   35.4840 C   0  0  0  0  0  3  0  0  0  0  0  0
   35.9450   28.7410   36.7200 N   0  0  0  0  0  0  0  0  0  0  0  0
   37.1720   27.7350   42.9510 C   0  0  0  0  0  0  0  0  0  0  0  0
   37.3260   28.9480   43.6270 F   0  0  0  0  0  0  0  0  0  0  0  0
   36.2400   27.0110   43.6730 F   0  0  0  0  0  0  0  0  0  0  0  0
   38.3670   27.1070   42.9860 F   0  0  0  0  0  0  0  0  0  0  0  0
   37.4180   25.8880   40.9210 O   0  0  0  0  0  0  0  0  0  0  0  0
   36.8610   24.6160   41.1080 C   0  0  0  0  0  0  0  0  0  0  0  0
   37.8450   23.6760   40.8100 F   0  0  0  0  0  0  0  0  0  0  0  0
   36.3840   24.5130   42.3930 F   0  0  0  0  0  0  0  0  0  0  0  0
   35.8680   24.4020   40.1600 F   0  0  0  0  0  0  0  0  0  0  0  0
  1 20  1  0  0  0  0
  1  2  1  0  0  0  0
  2 16  1  0  0  0  0
  3  2  2  0  0  0  0
  3  7  1  0  0  0  0
  4  3  1  0  0  0  0
  5  6  1  0  0  0  0
  5  4  2  0  0  0  0
  6  1  2  0  0  0  0
  8  5  1  0  0  0  0
  9  8  1  0  0  0  0
  9 10  1  0  0  0  0
 11  9  2  0  0  0  0
 12 11  1  0  0  0  0
 13 14  2  0  0  0  0
 13 11  1  0  0  0  0
 14 15  1  0  0  0  0
 15  8  2  0  0  0  0
 16 19  1  0  0  0  0
 16 17  1  0  0  0  0
 16 18  1  0  0  0  0
 20 21  1  0  0  0  0
 21 23  1  0  0  0  0
 22 21  1  0  0  0  0
 24 21  1  0  0  0  0
M  END
>  <minimizedAffinity>
-5.19116306

$$$$

 OpenBabel03252504123D

 24 25  0  0  0  0  0  0  0  0999 V2000
   38.0650   29.4380   42.2190 C   0  0  0  0  0  0  0  0  0  0  0  0
   38.3770   28.1230   42.5630 C   0  0  0  0  0  0  0  0  0  0  0  0
   39.7060   27.7920   42.8440 C   0  0  0  0  0  0  0  0  0  0  0  0
   40.6380   28.7810   42.7650 N   0  0  0  0  0  0  0  0  0  0  0  0
   40.3030   30.0500   42.4280 C   0  0  0  0  0  0  0  0  0  0  0  0
   39.0320   30.3710   42.1590 N   0  0  0  0  0  0  0  0  0  0  0  0
   39.9620   26.7780   43.1110 H   0  0  0  0  0  0  0  0  0  0  0  0
   41.3850   31.0520   42.3710 C   0  0  0  0  0  0  0  0  0  0  0  0
   42.4130   30.9350   43.2860 C   0  0  0  0  0  0  0  0  0  0  0  0
   42.4520   30.1500   44.0260 H   0  0  0  0  0  0  0  0  0  0  0  0
   43.3780   31.9140   43.1580 C   0  0  0  0  0  0  0  0  0  0  0  0
   44.2310   31.9220   43.8220 H   0  0  0  0  0  0  0  0  0  0  0  0
   43.3540   32.9250   42.2250 C   0  0  0  0  0  3  0  0  0  0  0  0
   42.2630   32.9370   41.3550 C   0  0  0  0  0  3  0  0  0  0  0  0
   41.2920   32.0100   41.4310 N   0  0  0  0  0  0  0  0  0  0  0  0
   37.2940   27.1060   42.6240 C   0  0  0  0  0  0  0  0  0  0  0  0
   37.8400   25.8570   42.9310 F   0  0  0  0  0  0  0  0  0  0  0  0
   36.4580   27.4270   43.6800 F   0  0  0  0  0  0  0  0  0  0  0  0
   36.5690   26.9560   41.4950 F   0  0  0  0  0  0  0  0  0  0  0  0
   36.7790   29.7290   41.9550 O   0  0  0  0  0  0  0  0  0  0  0  0
   36.2410   30.1570   40.7330 C   0  0  0  0  0  0  0  0  0  0  0  0
   34.9880   29.5630   40.5930 F   0  0  0  0  0  0  0  0  0  0  0  0
   36.1960   31.5300   40.7130 F   0  0  0  0  0  0  0  0  0  0  0  0
   36.9980   29.6410   39.6890 F   0  0  0  0  0  0  0  0  0  0  0  0
  1  2  1  0  0  0  0
  2 16  1  0  0  0  0
  2  3  2  0  0  0  0
  3  7  1  0  0  0  0
  4  3  1  0  0  0  0
  5  4  2  0  0  0  0
  6  1  2  0  0  0  0
  6  5  1  0  0  0  0
  8  5  1  0  0  0  0
  8  9  1  0  0  0  0
  9 10  1  0  0  0  0
 11  9  2  0  0  0  0
 11 12  1  0  0  0  0
 13 11  1  0  0  0  0
 14 15  1  0  0  0  0
 14 13  2  0  0  0  0
 15  8  2  0  0  0  0
 16 17  1  0  0  0  0
 16 18  1  0  0  0  0
 19 16  1  0  0  0  0
 20  1  1  0  0  0  0
 21 20  1  0  0  0  0
 22 21  1  0  0  0  0
 23 21  1  0  0  0  0
 24 21  1  0  0  0  0
M  END
>  <minimizedAffinity>
-5.07197523

$$$$

 OpenBabel03252504123D

 24 25  0  0  0  0  0  0  0  0999 V2000
   37.1640   30.1740   40.5810 C   0  0  0  0  0  0  0  0  0  0  0  0
   36.4350   29.7110   39.4860 C   0  0  0  0  0  0  0  0  0  0  0  0
   36.7870   30.1430   38.2040 C   0  0  0  0  0  0  0  0  0  0  0  0
   37.8360   31.0030   38.0880 N   0  0  0  0  0  0  0  0  0  0  0  0
   38.5250   31.4340   39.1720 C   0  0  0  0  0  0  0  0  0  0  0  0
   38.1920   31.0230   40.4010 N   0  0  0  0  0  0  0  0  0  0  0  0
   36.2300   29.7930   37.3480 H   0  0  0  0  0  0  0  0  0  0  0  0
   39.6480   32.3650   38.9430 C   0  0  0  0  0  0  0  0  0  0  0  0
   39.8760   33.3380   39.8970 C   0  0  0  0  0  0  0  0  0  0  0  0
   39.2740   33.4390   40.7860 H   0  0  0  0  0  0  0  0  0  0  0  0
   40.9430   34.1610   39.5990 C   0  0  0  0  0  0  0  0  0  0  0  0
   41.2150   34.9590   40.2740 H   0  0  0  0  0  0  0  0  0  0  0  0
   41.7280   34.0560   38.4730 C   0  0  0  0  0  3  0  0  0  0  0  0
   41.3990   33.0320   37.5840 C   0  0  0  0  0  3  0  0  0  0  0  0
   40.3700   32.1980   37.8200 N   0  0  0  0  0  0  0  0  0  0  0  0
   35.3020   28.7730   39.7070 C   0  0  0  0  0  0  0  0  0  0  0  0
   34.5460   28.6680   38.5360 F   0  0  0  0  0  0  0  0  0  0  0  0
   35.8230   27.5120   39.9390 F   0  0  0  0  0  0  0  0  0  0  0  0
   34.4510   29.1070   40.7000 F   0  0  0  0  0  0  0  0  0  0  0  0
   36.8040   29.7430   41.8030 O   0  0  0  0  0  0  0  0  0  0  0  0
   37.4050   28.7210   42.5510 C   0  0  0  0  0  0  0  0  0  0  0  0
   38.1060   29.3190   43.5960 F   0  0  0  0  0  0  0  0  0  0  0  0
   36.4380   27.8430   42.9790 F   0  0  0  0  0  0  0  0  0  0  0  0
   38.3790   28.0960   41.7820 F   0  0  0  0  0  0  0  0  0  0  0  0
  1 20  1  0  0  0  0
  2 16  1  0  0  0  0
  2  1  2  0  0  0  0
  3  2  1  0  0  0  0
  4  3  2  0  0  0  0
  4  5  1  0  0  0  0
  5  6  2  0  0  0  0
  6  1  1  0  0  0  0
  7  3  1  0  0  0  0
  8  5  1  0  0  0  0
  8  9  1  0  0  0  0
  9 10  1  0  0  0  0
 11  9  2  0  0  0  0
 11 12  1  0  0  0  0
 13 11  1  0  0  0  0
 14 15  1  0  0  0  0
 14 13  2  0  0  0  0
 15  8  2  0  0  0  0
 16 18  1  0  0  0  0
 16 19  1  0  0  0  0
 17 16  1  0  0  0  0
 20 21  1  0  0  0  0
 21 23  1  0  0  0  0
 21 22  1  0  0  0  0
 24 21  1  0  0  0  0
M  END
>  <minimizedAffinity>
-5.03341341

$$$$

 OpenBabel03252504123D

 24 25  0  0  0  0  0  0  0  0999 V2000
   37.2760   30.3250   39.4690 C   0  0  0  0  0  0  0  0  0  0  0  0
   37.9450   31.0330   40.4660 C   0  0  0  0  0  0  0  0  0  0  0  0
   38.3490   30.3600   41.6230 C   0  0  0  0  0  0  0  0  0  0  0  0
   38.0660   29.0320   41.7170 N   0  0  0  0  0  0  0  0  0  0  0  0
   37.4140   28.3710   40.7300 C   0  0  0  0  0  0  0  0  0  0  0  0
   37.0260   29.0120   39.6210 N   0  0  0  0  0  0  0  0  0  0  0  0
   38.8670   30.8970   42.4030 H   0  0  0  0  0  0  0  0  0  0  0  0
   37.1550   26.9310   40.9250 C   0  0  0  0  0  0  0  0  0  0  0  0
   37.2190   26.4400   42.2150 C   0  0  0  0  0  0  0  0  0  0  0  0
   37.4480   27.0600   43.0680 H   0  0  0  0  0  0  0  0  0  0  0  0
   36.9630   25.0860   42.3010 C   0  0  0  0  0  0  0  0  0  0  0  0
   36.9870   24.5920   43.2610 H   0  0  0  0  0  0  0  0  0  0  0  0
   36.6700   24.2710   41.2320 C   0  0  0  0  0  3  0  0  0  0  0  0
   36.6340   24.8840   39.9790 C   0  0  0  0  0  3  0  0  0  0  0  0
   36.8740   26.1990   39.8320 N   0  0  0  0  0  0  0  0  0  0  0  0
   38.2120   32.4840   40.2780 C   0  0  0  0  0  0  0  0  0  0  0  0
   38.7840   33.0100   41.4390 F   0  0  0  0  0  0  0  0  0  0  0  0
   39.1660   32.6240   39.2860 F   0  0  0  0  0  0  0  0  0  0  0  0
   37.1340   33.2440   39.9890 F   0  0  0  0  0  0  0  0  0  0  0  0
   36.8990   30.9960   38.3670 O   0  0  0  0  0  0  0  0  0  0  0  0
   37.4180   30.8590   37.0720 C   0  0  0  0  0  0  0  0  0  0  0  0
   38.7060   30.3410   37.1860 F   0  0  0  0  0  0  0  0  0  0  0  0
   36.5770   30.0650   36.3280 F   0  0  0  0  0  0  0  0  0  0  0  0
   37.5890   32.1160   36.5070 F   0  0  0  0  0  0  0  0  0  0  0  0
  1  6  2  0  0  0  0
  1  2  1  0  0  0  0
  2  3  2  0  0  0  0
  3  4  1  0  0  0  0
  3  7  1  0  0  0  0
  5  8  1  0  0  0  0
  5  4  2  0  0  0  0
  6  5  1  0  0  0  0
  8  9  1  0  0  0  0
  9 11  2  0  0  0  0
  9 10  1  0  0  0  0
 11 12  1  0  0  0  0
 13 11  1  0  0  0  0
 14 13  2  0  0  0  0
 15 14  1  0  0  0  0
 15  8  2  0  0  0  0
 16  2  1  0  0  0  0
 16 17  1  0  0  0  0
 18 16  1  0  0  0  0
 19 16  1  0  0  0  0
 20  1  1  0  0  0  0
 21 22  1  0  0  0  0
 21 20  1  0  0  0  0
 23 21  1  0  0  0  0
 24 21  1  0  0  0  0
M  END
>  <minimizedAffinity>
-5.00186729

$$$$

 OpenBabel03252504123D

 24 25  0  0  0  0  0  0  0  0999 V2000
   37.8900   26.8980   41.6620 C   0  0  0  0  0  0  0  0  0  0  0  0
   37.2090   25.9590   40.8890 C   0  0  0  0  0  0  0  0  0  0  0  0
   36.5640   26.3790   39.7210 C   0  0  0  0  0  0  0  0  0  0  0  0
   36.6350   27.6990   39.3960 N   0  0  0  0  0  0  0  0  0  0  0  0
   37.3050   28.5870   40.1680 C   0  0  0  0  0  0  0  0  0  0  0  0
   37.9240   28.1890   41.2860 N   0  0  0  0  0  0  0  0  0  0  0  0
   36.0330   25.6620   39.1150 H   0  0  0  0  0  0  0  0  0  0  0  0
   37.3260   29.9970   39.7300 C   0  0  0  0  0  0  0  0  0  0  0  0
   37.3520   30.2430   38.3710 C   0  0  0  0  0  0  0  0  0  0  0  0
   37.3570   29.4560   37.6330 H   0  0  0  0  0  0  0  0  0  0  0  0
   37.3690   31.5870   38.0550 C   0  0  0  0  0  0  0  0  0  0  0  0
   37.3910   31.8990   37.0210 H   0  0  0  0  0  0  0  0  0  0  0  0
   37.3640   32.6110   38.9740 C   0  0  0  0  0  3  0  0  0  0  0  0
   37.3370   32.2360   40.3180 C   0  0  0  0  0  3  0  0  0  0  0  0
   37.3180   30.9420   40.6870 N   0  0  0  0  0  0  0  0  0  0  0  0
   37.1840   24.5360   41.3220 C   0  0  0  0  0  0  0  0  0  0  0  0
   36.5560   24.4360   42.5660 F   0  0  0  0  0  0  0  0  0  0  0  0
   36.3900   23.8290   40.4360 F   0  0  0  0  0  0  0  0  0  0  0  0
   38.3880   23.9380   41.4360 F   0  0  0  0  0  0  0  0  0  0  0  0
   38.5020   26.4680   42.7790 O   0  0  0  0  0  0  0  0  0  0  0  0
   39.8820   26.3470   42.9960 C   0  0  0  0  0  0  0  0  0  0  0  0
   40.4920   26.1810   41.7550 F   0  0  0  0  0  0  0  0  0  0  0  0
   40.3320   27.4510   43.6800 F   0  0  0  0  0  0  0  0  0  0  0  0
   40.1400   25.1650   43.6790 F   0  0  0  0  0  0  0  0  0  0  0  0
  1 20  1  0  0  0  0
  2 16  1  0  0  0  0
  2  1  2  0  0  0  0
  3  2  1  0  0  0  0
  4  3  2  0  0  0  0
  4  5  1  0  0  0  0
  5  6  2  0  0  0  0
  6  1  1  0  0  0  0
  7  3  1  0  0  0  0
  8  5  1  0  0  0  0
  8 15  1  0  0  0  0
  9  8  2  0  0  0  0
 10  9  1  0  0  0  0
 11  9  1  0  0  0  0
 11 13  2  0  0  0  0
 12 11  1  0  0  0  0
 13 14  1  0  0  0  0
 14 15  2  0  0  0  0
 16 19  1  0  0  0  0
 16 17  1  0  0  0  0
 18 16  1  0  0  0  0
 20 21  1  0  0  0  0
 21 24  1  0  0  0  0
 21 23  1  0  0  0  0
 22 21  1  0  0  0  0
M  END
>  <minimizedAffinity>
-4.97903156

$$$$

 OpenBabel03252504123D

 24 25  0  0  0  0  0  0  0  0999 V2000
   37.1640   28.0000   40.8870 C   0  0  0  0  0  0  0  0  0  0  0  0
   37.9820   27.5400   41.9180 C   0  0  0  0  0  0  0  0  0  0  0  0
   38.8680   28.4300   42.5330 C   0  0  0  0  0  0  0  0  0  0  0  0
   38.8870   29.7160   42.0880 N   0  0  0  0  0  0  0  0  0  0  0  0
   38.0790   30.1340   41.0830 C   0  0  0  0  0  0  0  0  0  0  0  0
   37.2290   29.2850   40.4940 N   0  0  0  0  0  0  0  0  0  0  0  0
   39.5080   28.0850   43.3310 H   0  0  0  0  0  0  0  0  0  0  0  0
   38.1730   31.5490   40.6730 C   0  0  0  0  0  0  0  0  0  0  0  0
   37.1470   32.0600   39.9020 C   0  0  0  0  0  0  0  0  0  0  0  0
   36.2950   31.4720   39.5960 H   0  0  0  0  0  0  0  0  0  0  0  0
   37.3200   33.3870   39.5660 C   0  0  0  0  0  0  0  0  0  0  0  0
   36.5790   33.8940   38.9640 H   0  0  0  0  0  0  0  0  0  0  0  0
   38.3950   34.1610   39.9410 C   0  0  0  0  0  3  0  0  0  0  0  0
   39.3670   33.5310   40.7200 C   0  0  0  0  0  3  0  0  0  0  0  0
   39.2530   32.2400   41.0790 N   0  0  0  0  0  0  0  0  0  0  0  0
   37.8950   26.1160   42.3390 C   0  0  0  0  0  0  0  0  0  0  0  0
   38.8050   25.8750   43.3710 F   0  0  0  0  0  0  0  0  0  0  0  0
   36.6390   25.9010   42.8810 F   0  0  0  0  0  0  0  0  0  0  0  0
   38.1400   25.2040   41.3740 F   0  0  0  0  0  0  0  0  0  0  0  0
   36.3210   27.1240   40.3150 O   0  0  0  0  0  0  0  0  0  0  0  0
   36.3890   26.6100   39.0120 C   0  0  0  0  0  0  0  0  0  0  0  0
   36.0490   25.2610   39.0720 F   0  0  0  0  0  0  0  0  0  0  0  0
   35.5630   27.3420   38.1920 F   0  0  0  0  0  0  0  0  0  0  0  0
   37.7080   26.6260   38.5770 F   0  0  0  0  0  0  0  0  0  0  0  0
  1  2  1  0  0  0  0
  2 16  1  0  0  0  0
  2  3  2  0  0  0  0
  3  7  1  0  0  0  0
  4  3  1  0  0  0  0
  5  4  2  0  0  0  0
  6  1  2  0  0  0  0
  6  5  1  0  0  0  0
  8 15  1  0  0  0  0
  8  5  1  0  0  0  0
  9  8  2  0  0  0  0
 10  9  1  0  0  0  0
 11  9  1  0  0  0  0
 11 13  2  0  0  0  0
 12 11  1  0  0  0  0
 13 14  1  0  0  0  0
 14 15  2  0  0  0  0
 16 18  1  0  0  0  0
 16 17  1  0  0  0  0
 19 16  1  0  0  0  0
 20  1  1  0  0  0  0
 21 22  1  0  0  0  0
 21 20  1  0  0  0  0
 23 21  1  0  0  0  0
 24 21  1  0  0  0  0
M  END
>  <minimizedAffinity>
-4.91704035

$$$$

 OpenBabel03252504123D

 24 25  0  0  0  0  0  0  0  0999 V2000
   37.9690   28.6050   40.9070 C   0  0  0  0  0  0  0  0  0  0  0  0
   38.3830   29.8660   41.3350 C   0  0  0  0  0  0  0  0  0  0  0  0
   38.0780   30.9840   40.5520 C   0  0  0  0  0  0  0  0  0  0  0  0
   37.3860   30.7810   39.3980 N   0  0  0  0  0  0  0  0  0  0  0  0
   36.9970   29.5430   39.0090 C   0  0  0  0  0  0  0  0  0  0  0  0
   37.2850   28.4710   39.7560 N   0  0  0  0  0  0  0  0  0  0  0  0
   38.3940   31.9650   40.8710 H   0  0  0  0  0  0  0  0  0  0  0  0
   36.2480   29.4270   37.7410 C   0  0  0  0  0  0  0  0  0  0  0  0
   34.9430   28.9820   37.8090 C   0  0  0  0  0  0  0  0  0  0  0  0
   34.4600   28.7210   38.7380 H   0  0  0  0  0  0  0  0  0  0  0  0
   34.3240   28.9050   36.5780 C   0  0  0  0  0  0  0  0  0  0  0  0
   33.2990   28.5680   36.5080 H   0  0  0  0  0  0  0  0  0  0  0  0
   34.9140   29.2290   35.3780 C   0  0  0  0  0  3  0  0  0  0  0  0
   36.2380   29.6670   35.4390 C   0  0  0  0  0  3  0  0  0  0  0  0
   36.8930   29.7630   36.6100 N   0  0  0  0  0  0  0  0  0  0  0  0
   39.1370   29.9930   42.6110 C   0  0  0  0  0  0  0  0  0  0  0  0
   38.3180   29.6180   43.6780 F   0  0  0  0  0  0  0  0  0  0  0  0
   40.1780   29.0830   42.5910 F   0  0  0  0  0  0  0  0  0  0  0  0
   39.6110   31.2260   42.8890 F   0  0  0  0  0  0  0  0  0  0  0  0
   38.2730   27.5480   41.6790 O   0  0  0  0  0  0  0  0  0  0  0  0
   37.4100   26.8430   42.5290 C   0  0  0  0  0  0  0  0  0  0  0  0
   38.1250   26.5160   43.6800 F   0  0  0  0  0  0  0  0  0  0  0  0
   36.2960   27.6080   42.7810 F   0  0  0  0  0  0  0  0  0  0  0  0
   37.0890   25.6210   41.9520 F   0  0  0  0  0  0  0  0  0  0  0  0
  1  2  1  0  0  0  0
  1 20  1  0  0  0  0
  2 16  1  0  0  0  0
  3  7  1  0  0  0  0
  3  2  2  0  0  0  0
  4  3  1  0  0  0  0
  5  4  2  0  0  0  0
  5  6  1  0  0  0  0
  6  1  2  0  0  0  0
  8  9  1  0  0  0  0
  8  5  1  0  0  0  0
  9 10  1  0  0  0  0
 11  9  2  0  0  0  0
 12 11  1  0  0  0  0
 13 14  2  0  0  0  0
 13 11  1  0  0  0  0
 14 15  1  0  0  0  0
 15  8  2  0  0  0  0
 16 19  1  0  0  0  0
 16 17  1  0  0  0  0
 18 16  1  0  0  0  0
 20 21  1  0  0  0  0
 21 23  1  0  0  0  0
 21 22  1  0  0  0  0
 24 21  1  0  0  0  0
M  END
>  <minimizedAffinity>
-4.81710052

$$$$

 OpenBabel03252504123D

 24 25  0  0  0  0  0  0  0  0999 V2000
   38.1840   29.5620   40.5770 C   0  0  0  0  0  0  0  0  0  0  0  0
   37.4220   30.3490   39.7140 C   0  0  0  0  0  0  0  0  0  0  0  0
   36.4170   29.7440   38.9530 C   0  0  0  0  0  0  0  0  0  0  0  0
   36.2330   28.4030   39.0930 N   0  0  0  0  0  0  0  0  0  0  0  0
   36.9910   27.6650   39.9400 C   0  0  0  0  0  0  0  0  0  0  0  0
   37.9520   28.2400   40.6720 N   0  0  0  0  0  0  0  0  0  0  0  0
   35.8200   30.3420   38.2800 H   0  0  0  0  0  0  0  0  0  0  0  0
   36.7130   26.2180   40.0230 C   0  0  0  0  0  0  0  0  0  0  0  0
   37.0200   25.5750   41.2060 C   0  0  0  0  0  0  0  0  0  0  0  0
   37.4470   26.0850   42.0570 H   0  0  0  0  0  0  0  0  0  0  0  0
   36.7280   24.2260   41.1920 C   0  0  0  0  0  0  0  0  0  0  0  0
   36.9260   23.6200   42.0640 H   0  0  0  0  0  0  0  0  0  0  0  0
   36.1840   23.5500   40.1230 C   0  0  0  0  0  3  0  0  0  0  0  0
   35.9180   24.3090   38.9830 C   0  0  0  0  0  3  0  0  0  0  0  0
   36.1810   25.6270   38.9380 N   0  0  0  0  0  0  0  0  0  0  0  0
   37.6930   31.8080   39.6240 C   0  0  0  0  0  0  0  0  0  0  0  0
   36.8140   32.3930   38.7090 F   0  0  0  0  0  0  0  0  0  0  0  0
   37.4020   32.3790   40.8510 F   0  0  0  0  0  0  0  0  0  0  0  0
   38.9430   32.1480   39.2460 F   0  0  0  0  0  0  0  0  0  0  0  0
   39.1430   30.1680   41.2980 O   0  0  0  0  0  0  0  0  0  0  0  0
   39.3420   30.0840   42.6830 C   0  0  0  0  0  0  0  0  0  0  0  0
   40.2010   29.0140   42.9220 F   0  0  0  0  0  0  0  0  0  0  0  0
   39.8270   31.2840   43.1460 F   0  0  0  0  0  0  0  0  0  0  0  0
   38.1500   29.7270   43.3010 F   0  0  0  0  0  0  0  0  0  0  0  0
  1  6  1  0  0  0  0
  1 20  1  0  0  0  0
  2  1  2  0  0  0  0
  3  4  2  0  0  0  0
  3  2  1  0  0  0  0
  4  5  1  0  0  0  0
  5  8  1  0  0  0  0
  5  6  2  0  0  0  0
  7  3  1  0  0  0  0
  8  9  1  0  0  0  0
  9 10  1  0  0  0  0
 11  9  2  0  0  0  0
 11 12  1  0  0  0  0
 13 11  1  0  0  0  0
 14 13  2  0  0  0  0
 15 14  1  0  0  0  0
 15  8  2  0  0  0  0
 16  2  1  0  0  0  0
 16 18  1  0  0  0  0
 17 16  1  0  0  0  0
 19 16  1  0  0  0  0
 20 21  1  0  0  0  0
 21 22  1  0  0  0  0
 21 23  1  0  0  0  0
 21 24  1  0  0  0  0
M  END
>  <minimizedAffinity>
-4.81606436

$$$$
