
 OpenBabel03242517233D

 42 45  0  0  1  0  0  0  0  0999 V2000
   44.5580   35.4580   45.6030 C   0  0  0  0  0  0  0  0  0  0  0  0
   44.4560   35.9710   44.2890 C   0  0  0  0  0  0  0  0  0  0  0  0
   44.9810   35.2160   43.2240 C   0  0  0  0  0  0  0  0  0  0  0  0
   45.5570   34.0320   43.5310 N   0  0  0  0  0  0  0  0  0  0  0  0
   45.6420   33.5630   44.8030 C   0  0  0  0  0  0  0  0  0  0  0  0
   45.1380   34.2800   45.8460 N   0  0  0  0  0  0  0  0  0  0  0  0
   46.2760   32.2910   45.0110 N   0  0  0  0  0  0  0  0  0  0  0  0
   46.0720   31.7040   46.3340 C   0  0  0  0  0  0  0  0  0  0  0  0
   47.0130   30.6280   46.6810 C   0  0  0  0  0  0  0  0  0  0  0  0
   47.3700   29.8290   45.4760 C   0  0  0  0  0  0  0  0  0  0  0  0
   48.0700   30.7600   44.5320 C   0  0  0  0  0  0  0  0  0  0  0  0
   47.0470   31.6760   43.9600 C   0  0  2  0  0  0  0  0  0  0  0  0
   44.1520   36.0390   46.4270 H   0  0  0  0  0  0  0  0  0  0  0  0
   43.9840   36.9200   44.1160 H   0  0  0  0  0  0  0  0  0  0  0  0
   44.9130   35.5900   42.2180 H   0  0  0  0  0  0  0  0  0  0  0  0
   45.0390   31.2840   46.3120 H   0  0  0  0  0  0  0  0  0  0  0  0
   46.0700   32.4890   47.1220 H   0  0  0  0  0  0  0  0  0  0  0  0
   47.9240   31.0200   47.1950 H   0  0  0  0  0  0  0  0  0  0  0  0
   46.5280   29.9480   47.4250 H   0  0  0  0  0  0  0  0  0  0  0  0
   46.4410   29.4900   44.9790 H   0  0  0  0  0  0  0  0  0  0  0  0
   47.9770   28.9340   45.7270 H   0  0  0  0  0  0  0  0  0  0  0  0
   48.8200   31.3660   45.0940 H   0  0  0  0  0  0  0  0  0  0  0  0
   48.6200   30.2300   43.7280 H   0  0  0  0  0  0  0  0  0  0  0  0
   46.3130   31.0620   43.3780 H   0  0  0  0  0  0  0  0  0  0  0  0
   46.6260   31.5770   41.1410 F   0  0  0  0  0  0  0  0  0  0  0  0
   47.4110   32.5790   41.6000 C   0  0  0  0  0  0  0  0  0  0  0  0
   47.6240   32.6400   42.9860 C   0  0  0  0  0  0  0  0  0  0  0  0
   48.4330   33.6820   43.4100 C   0  0  0  0  0  0  0  0  0  0  0  0
   48.9990   34.6000   42.5720 C   0  0  0  0  0  0  0  0  0  0  0  0
   48.7690   34.5100   41.2220 C   0  0  0  0  0  0  0  0  0  0  0  0
   47.9680   33.4860   40.7450 C   0  0  0  0  0  0  0  0  0  0  0  0
   48.6030   33.7390   44.4760 H   0  0  0  0  0  0  0  0  0  0  0  0
   49.6100   35.3710   42.9980 H   0  0  0  0  0  0  0  0  0  0  0  0
   49.2510   35.2720   40.6230 H   0  0  0  0  0  0  0  0  0  0  0  0
   47.8000   33.4940   39.3070 C   0  0  0  0  0  0  0  0  0  0  0  0
   48.3160   34.3740   38.3900 C   0  0  0  0  0  0  0  0  0  0  0  0
   48.9330   35.1800   38.7460 H   0  0  0  0  0  0  0  0  0  0  0  0
   48.1280   34.3410   37.0290 C   0  0  0  0  0  0  0  0  0  0  0  0
   48.5770   35.0800   36.3830 H   0  0  0  0  0  0  0  0  0  0  0  0
   47.3550   33.3470   36.4930 C   0  0  0  0  0  0  0  0  0  0  0  0
   46.8330   32.4610   37.3900 C   0  0  0  0  0  0  0  0  0  0  0  0
   47.0570   32.5560   38.6910 N   0  0  0  0  0  0  0  0  0  0  0  0
  1  6  1  0  0  0  0
  1 13  1  0  0  0  0
  2  1  2  0  0  0  0
  3  4  2  0  0  0  0
  3  2  1  0  0  0  0
  4  5  1  0  0  0  0
  5  7  1  0  0  0  0
  5  6  2  0  0  0  0
  7  8  1  0  0  0  0
  8  9  1  0  0  0  0
  8 17  1  0  0  0  0
  9 18  1  0  0  0  0
  9 19  1  0  0  0  0
 10 21  1  0  0  0  0
 10  9  1  0  0  0  0
 11 22  1  0  0  0  0
 11 10  1  0  0  0  0
 12 24  1  6  0  0  0
 12 11  1  0  0  0  0
 12  7  1  0  0  0  0
 14  2  1  0  0  0  0
 15  3  1  0  0  0  0
 16  8  1  0  0  0  0
 20 10  1  0  0  0  0
 23 11  1  0  0  0  0
 25 26  1  0  0  0  0
 26 27  1  0  0  0  0
 27 28  2  0  0  0  0
 27 12  1  0  0  0  0
 28 32  1  0  0  0  0
 29 33  1  0  0  0  0
 29 28  1  0  0  0  0
 30 29  2  0  0  0  0
 31 30  1  0  0  0  0
 31 26  2  0  0  0  0
 34 30  1  0  0  0  0
 35 31  1  0  0  0  0
 36 37  1  0  0  0  0
 36 35  2  0  0  0  0
 38 36  1  0  0  0  0
 39 38  1  0  0  0  0
 40 38  2  0  0  0  0
 40 41  1  0  0  0  0
 41 42  2  0  0  0  0
 42 35  1  0  0  0  0
M  END
>  <minimizedAffinity>
-5.9721489

>  <minimizedRMSD>
1.41369569

$$$$
