
 OpenBabel03242518333D

 27 29  0  0  0  0  0  0  0  0999 V2000
   36.5180   28.5190   41.9080 C   0  0  0  0  0  0  0  0  0  0  0  0
   35.5750   28.7030   40.9250 C   0  0  0  0  0  0  0  0  0  0  0  0
   35.8260   29.9160   40.3130 C   0  0  0  0  0  0  0  0  0  0  0  0
   36.9300   30.4340   40.9570 C   0  0  0  0  0  0  0  0  0  0  0  0
   37.3000   29.5840   41.8810 O   0  0  0  0  0  0  0  0  0  0  0  0
   34.8060   27.9630   40.7390 H   0  0  0  0  0  0  0  0  0  0  0  0
   35.2550   30.3320   39.5060 H   0  0  0  0  0  0  0  0  0  0  0  0
   37.5740   31.7100   40.6560 C   0  0  0  0  0  0  0  0  0  0  0  0
   36.9290   32.6350   39.8630 C   0  0  0  0  0  0  0  0  0  0  0  0
   35.9450   32.4730   39.4340 H   0  0  0  0  0  0  0  0  0  0  0  0
   37.5140   33.8690   39.5540 C   0  0  0  0  0  0  0  0  0  0  0  0
   37.0730   34.6370   38.9440 H   0  0  0  0  0  0  0  0  0  0  0  0
   38.7650   34.0730   40.1010 C   0  0  0  0  0  3  0  0  0  0  0  0
   39.4200   33.1670   40.8900 C   0  0  0  0  0  3  0  0  0  0  0  0
   38.7930   31.9840   41.1520 N   0  0  0  0  0  0  0  0  0  0  0  0
   36.7380   27.4810   42.8270 O   0  0  0  0  0  0  0  0  0  0  0  0
   37.9990   26.8710   42.9020 C   0  0  0  0  0  0  0  0  0  0  0  0
   38.8360   27.3930   43.6790 O   0  0  0  0  0  0  0  0  0  0  0  0
   38.1600   25.7200   42.0680 C   0  0  0  0  0  0  0  0  0  0  0  0
   36.9720   25.0080   41.8930 C   0  0  0  0  0  0  0  0  0  0  0  0
   37.0200   23.8630   41.0930 C   0  0  0  0  0  0  0  0  0  0  0  0
   38.2010   23.5190   40.5430 N   0  0  0  0  0  0  0  0  0  0  0  0
   39.3370   24.2470   40.7430 C   0  0  0  0  0  0  0  0  0  0  0  0
   39.3120   25.3630   41.5170 N   0  0  0  0  0  0  0  0  0  0  0  0
   36.0150   25.2750   42.3310 H   0  0  0  0  0  0  0  0  0  0  0  0
   36.1550   23.2530   40.9020 H   0  0  0  0  0  0  0  0  0  0  0  0
   40.2370   23.8880   40.2560 H   0  0  0  0  0  0  0  0  0  0  0  0
  1 16  1  0  0  0  0
  2  1  2  0  0  0  0
  3  2  1  0  0  0  0
  3  4  2  0  0  0  0
  4  5  1  0  0  0  0
  5  1  1  0  0  0  0
  6  2  1  0  0  0  0
  7  3  1  0  0  0  0
  8  4  1  0  0  0  0
  8 15  1  0  0  0  0
  9  8  2  0  0  0  0
 10  9  1  0  0  0  0
 11  9  1  0  0  0  0
 11 13  2  0  0  0  0
 12 11  1  0  0  0  0
 13 14  1  0  0  0  0
 14 15  2  0  0  0  0
 16 17  1  0  0  0  0
 17 18  2  0  0  0  0
 19 17  1  0  0  0  0
 20 19  1  0  0  0  0
 20 25  1  0  0  0  0
 21 20  2  0  0  0  0
 22 23  2  0  0  0  0
 22 21  1  0  0  0  0
 23 24  1  0  0  0  0
 24 19  2  0  0  0  0
 26 21  1  0  0  0  0
 27 23  1  0  0  0  0
M  END
>  <minimizedAffinity>
-5.28230953

$$$$

 OpenBabel03242518333D

 27 29  0  0  0  0  0  0  0  0999 V2000
   36.6880   28.4060   40.6500 C   0  0  0  0  0  0  0  0  0  0  0  0
   35.6500   28.9780   39.9540 C   0  0  0  0  0  0  0  0  0  0  0  0
   35.9780   30.2950   39.7030 C   0  0  0  0  0  0  0  0  0  0  0  0
   37.2230   30.4810   40.2660 C   0  0  0  0  0  0  0  0  0  0  0  0
   37.5980   29.3500   40.8090 O   0  0  0  0  0  0  0  0  0  0  0  0
   34.7670   28.4060   39.6930 H   0  0  0  0  0  0  0  0  0  0  0  0
   35.3610   30.9970   39.1750 H   0  0  0  0  0  0  0  0  0  0  0  0
   37.9880   31.7250   40.2560 C   0  0  0  0  0  0  0  0  0  0  0  0
   37.3610   32.9160   39.9520 C   0  0  0  0  0  0  0  0  0  0  0  0
   36.3060   32.9910   39.7110 H   0  0  0  0  0  0  0  0  0  0  0  0
   38.0620   34.1270   39.9330 C   0  0  0  0  0  0  0  0  0  0  0  0
   37.6420   35.0910   39.7050 H   0  0  0  0  0  0  0  0  0  0  0  0
   39.4040   34.0290   40.2400 C   0  0  0  0  0  3  0  0  0  0  0  0
   40.0420   32.8570   40.5450 C   0  0  0  0  0  3  0  0  0  0  0  0
   39.3010   31.7120   40.5450 N   0  0  0  0  0  0  0  0  0  0  0  0
   36.8900   27.1120   41.1580 O   0  0  0  0  0  0  0  0  0  0  0  0
   37.1570   26.9320   42.5220 C   0  0  0  0  0  0  0  0  0  0  0  0
   36.2820   27.3330   43.3290 O   0  0  0  0  0  0  0  0  0  0  0  0
   38.4100   26.3050   42.8120 C   0  0  0  0  0  0  0  0  0  0  0  0
   39.3420   27.1880   43.3590 C   0  0  0  0  0  0  0  0  0  0  0  0
   40.6020   26.6760   43.6800 C   0  0  0  0  0  0  0  0  0  0  0  0
   40.8380   25.3700   43.4430 N   0  0  0  0  0  0  0  0  0  0  0  0
   39.8940   24.5460   42.9060 C   0  0  0  0  0  0  0  0  0  0  0  0
   38.6630   25.0230   42.5870 N   0  0  0  0  0  0  0  0  0  0  0  0
   39.1640   28.2410   43.5540 H   0  0  0  0  0  0  0  0  0  0  0  0
   41.3830   27.2810   44.1050 H   0  0  0  0  0  0  0  0  0  0  0  0
   40.1820   23.5100   42.7550 H   0  0  0  0  0  0  0  0  0  0  0  0
  1  5  1  0  0  0  0
  1 16  1  0  0  0  0
  2  1  2  0  0  0  0
  3  2  1  0  0  0  0
  3  4  2  0  0  0  0
  4  5  1  0  0  0  0
  6  2  1  0  0  0  0
  7  3  1  0  0  0  0
  8  4  1  0  0  0  0
  8 15  1  0  0  0  0
  9  8  2  0  0  0  0
 10  9  1  0  0  0  0
 11  9  1  0  0  0  0
 11 13  2  0  0  0  0
 12 11  1  0  0  0  0
 13 14  1  0  0  0  0
 14 15  2  0  0  0  0
 16 17  1  0  0  0  0
 17 19  1  0  0  0  0
 17 18  2  0  0  0  0
 19 20  1  0  0  0  0
 20 25  1  0  0  0  0
 20 21  2  0  0  0  0
 21 26  1  0  0  0  0
 22 21  1  0  0  0  0
 23 22  2  0  0  0  0
 24 19  2  0  0  0  0
 24 23  1  0  0  0  0
 27 23  1  0  0  0  0
M  END
>  <minimizedAffinity>
-5.06927013

$$$$

 OpenBabel03242518333D

 27 29  0  0  0  0  0  0  0  0999 V2000
   38.2820   28.9640   42.7200 C   0  0  0  0  0  0  0  0  0  0  0  0
   37.4010   28.5270   43.6800 C   0  0  0  0  0  0  0  0  0  0  0  0
   36.7810   27.3880   43.2050 C   0  0  0  0  0  0  0  0  0  0  0  0
   37.3150   27.1700   41.9520 C   0  0  0  0  0  0  0  0  0  0  0  0
   38.1880   28.1160   41.7100 O   0  0  0  0  0  0  0  0  0  0  0  0
   37.2860   29.0560   44.6180 H   0  0  0  0  0  0  0  0  0  0  0  0
   36.0410   26.8200   43.7340 H   0  0  0  0  0  0  0  0  0  0  0  0
   36.9670   26.0740   41.0530 C   0  0  0  0  0  0  0  0  0  0  0  0
   37.0060   24.7720   41.5090 C   0  0  0  0  0  0  0  0  0  0  0  0
   37.2880   24.5010   42.5210 H   0  0  0  0  0  0  0  0  0  0  0  0
   36.6780   23.6960   40.6760 C   0  0  0  0  0  0  0  0  0  0  0  0
   36.6870   22.6580   40.9610 H   0  0  0  0  0  0  0  0  0  0  0  0
   36.3200   24.0420   39.3900 C   0  0  0  0  0  3  0  0  0  0  0  0
   36.2750   25.3270   38.9200 C   0  0  0  0  0  3  0  0  0  0  0  0
   36.6070   26.3300   39.7830 N   0  0  0  0  0  0  0  0  0  0  0  0
   39.1620   30.0570   42.6680 O   0  0  0  0  0  0  0  0  0  0  0  0
   39.6530   30.4990   41.4310 C   0  0  0  0  0  0  0  0  0  0  0  0
   40.7610   30.0370   41.0620 O   0  0  0  0  0  0  0  0  0  0  0  0
   38.8100   31.4320   40.7490 C   0  0  0  0  0  0  0  0  0  0  0  0
   39.1220   32.7600   41.0470 C   0  0  0  0  0  0  0  0  0  0  0  0
   38.3560   33.7540   40.4310 C   0  0  0  0  0  0  0  0  0  0  0  0
   37.3710   33.3730   39.5940 N   0  0  0  0  0  0  0  0  0  0  0  0
   37.1040   32.0610   39.3330 C   0  0  0  0  0  0  0  0  0  0  0  0
   37.8360   31.0790   39.9220 N   0  0  0  0  0  0  0  0  0  0  0  0
   39.9110   33.0790   41.7200 H   0  0  0  0  0  0  0  0  0  0  0  0
   38.5230   34.8030   40.6010 H   0  0  0  0  0  0  0  0  0  0  0  0
   36.2910   31.8580   38.6440 H   0  0  0  0  0  0  0  0  0  0  0  0
  1  2  2  0  0  0  0
  2  6  1  0  0  0  0
  3  2  1  0  0  0  0
  3  7  1  0  0  0  0
  4  3  2  0  0  0  0
  5  4  1  0  0  0  0
  5  1  1  0  0  0  0
  8  9  1  0  0  0  0
  8  4  1  0  0  0  0
  9 10  1  0  0  0  0
 11 12  1  0  0  0  0
 11  9  2  0  0  0  0
 13 11  1  0  0  0  0
 14 13  2  0  0  0  0
 14 15  1  0  0  0  0
 15  8  2  0  0  0  0
 16  1  1  0  0  0  0
 17 16  1  0  0  0  0
 18 17  2  0  0  0  0
 19 20  1  0  0  0  0
 19 17  1  0  0  0  0
 20 25  1  0  0  0  0
 21 26  1  0  0  0  0
 21 20  2  0  0  0  0
 22 21  1  0  0  0  0
 23 22  2  0  0  0  0
 23 24  1  0  0  0  0
 24 19  2  0  0  0  0
 27 23  1  0  0  0  0
M  END
>  <minimizedAffinity>
-5.06334972

$$$$

 OpenBabel03242518333D

 27 29  0  0  0  0  0  0  0  0999 V2000
   39.0580   28.4640   42.8830 C   0  0  0  0  0  0  0  0  0  0  0  0
   40.3670   28.8620   42.7590 C   0  0  0  0  0  0  0  0  0  0  0  0
   40.3890   30.0510   42.0570 C   0  0  0  0  0  0  0  0  0  0  0  0
   39.0700   30.3380   41.7750 C   0  0  0  0  0  0  0  0  0  0  0  0
   38.3270   29.3830   42.2770 O   0  0  0  0  0  0  0  0  0  0  0  0
   41.1750   28.2720   43.1770 H   0  0  0  0  0  0  0  0  0  0  0  0
   41.2720   30.6050   41.8050 H   0  0  0  0  0  0  0  0  0  0  0  0
   38.5870   31.5060   41.0440 C   0  0  0  0  0  0  0  0  0  0  0  0
   37.5230   31.3820   40.1750 C   0  0  0  0  0  0  0  0  0  0  0  0
   37.0050   30.4460   39.9930 H   0  0  0  0  0  0  0  0  0  0  0  0
   37.0320   32.4790   39.4570 C   0  0  0  0  0  0  0  0  0  0  0  0
   36.2100   32.4580   38.7640 H   0  0  0  0  0  0  0  0  0  0  0  0
   37.6920   33.6690   39.6890 C   0  0  0  0  0  3  0  0  0  0  0  0
   38.7490   33.8110   40.5470 C   0  0  0  0  0  3  0  0  0  0  0  0
   39.1780   32.7020   41.2150 N   0  0  0  0  0  0  0  0  0  0  0  0
   38.4600   27.3490   43.4920 O   0  0  0  0  0  0  0  0  0  0  0  0
   37.2050   26.9030   43.0510 C   0  0  0  0  0  0  0  0  0  0  0  0
   36.1980   27.4100   43.6030 O   0  0  0  0  0  0  0  0  0  0  0  0
   37.2480   25.9150   42.0170 C   0  0  0  0  0  0  0  0  0  0  0  0
   36.9240   26.4320   40.7620 C   0  0  0  0  0  0  0  0  0  0  0  0
   36.9360   25.5480   39.6790 C   0  0  0  0  0  0  0  0  0  0  0  0
   37.2570   24.2600   39.9120 N   0  0  0  0  0  0  0  0  0  0  0  0
   37.5670   23.8010   41.1580 C   0  0  0  0  0  0  0  0  0  0  0  0
   37.5610   24.6430   42.2240 N   0  0  0  0  0  0  0  0  0  0  0  0
   36.6630   27.4670   40.5620 H   0  0  0  0  0  0  0  0  0  0  0  0
   36.7000   25.8570   38.6770 H   0  0  0  0  0  0  0  0  0  0  0  0
   37.8130   22.7470   41.2410 H   0  0  0  0  0  0  0  0  0  0  0  0
  1 16  1  0  0  0  0
  2  1  2  0  0  0  0
  2  6  1  0  0  0  0
  3  2  1  0  0  0  0
  4  3  2  0  0  0  0
  4  5  1  0  0  0  0
  5  1  1  0  0  0  0
  7  3  1  0  0  0  0
  8 15  1  0  0  0  0
  8  4  1  0  0  0  0
  9  8  2  0  0  0  0
 10  9  1  0  0  0  0
 11 13  2  0  0  0  0
 11  9  1  0  0  0  0
 12 11  1  0  0  0  0
 13 14  1  0  0  0  0
 14 15  2  0  0  0  0
 17 16  1  0  0  0  0
 17 18  2  0  0  0  0
 19 24  1  0  0  0  0
 19 17  1  0  0  0  0
 20 19  2  0  0  0  0
 21 22  2  0  0  0  0
 21 20  1  0  0  0  0
 22 23  1  0  0  0  0
 23 27  1  0  0  0  0
 23 24  2  0  0  0  0
 25 20  1  0  0  0  0
 26 21  1  0  0  0  0
M  END
>  <minimizedAffinity>
-5.03968143

$$$$

 OpenBabel03242518333D

 27 29  0  0  0  0  0  0  0  0999 V2000
   38.3030   31.9230   39.8360 C   0  0  0  0  0  0  0  0  0  0  0  0
   36.9400   31.9720   39.9970 C   0  0  0  0  0  0  0  0  0  0  0  0
   36.5710   30.9420   40.8400 C   0  0  0  0  0  0  0  0  0  0  0  0
   37.7430   30.2930   41.1670 C   0  0  0  0  0  0  0  0  0  0  0  0
   38.7300   30.9010   40.5570 O   0  0  0  0  0  0  0  0  0  0  0  0
   36.3430   32.7300   39.5020 H   0  0  0  0  0  0  0  0  0  0  0  0
   35.5670   30.7270   41.1510 H   0  0  0  0  0  0  0  0  0  0  0  0
   37.8600   29.1310   42.0420 C   0  0  0  0  0  0  0  0  0  0  0  0
   36.7460   28.3700   42.3280 C   0  0  0  0  0  0  0  0  0  0  0  0
   35.7580   28.5850   41.9340 H   0  0  0  0  0  0  0  0  0  0  0  0
   36.8200   27.2480   43.1620 C   0  0  0  0  0  0  0  0  0  0  0  0
   35.9960   26.6100   43.4290 H   0  0  0  0  0  0  0  0  0  0  0  0
   38.0770   26.9760   43.6620 C   0  0  0  0  0  3  0  0  0  0  0  0
   39.1940   27.7190   43.3890 C   0  0  0  0  0  3  0  0  0  0  0  0
   39.0520   28.8000   42.5690 N   0  0  0  0  0  0  0  0  0  0  0  0
   39.2000   32.7140   39.0990 O   0  0  0  0  0  0  0  0  0  0  0  0
   40.0630   33.5950   39.7660 C   0  0  0  0  0  0  0  0  0  0  0  0
   39.6140   34.1610   40.7920 O   0  0  0  0  0  0  0  0  0  0  0  0
   41.3590   33.7290   39.1740 C   0  0  0  0  0  0  0  0  0  0  0  0
   42.3770   33.8460   40.1220 C   0  0  0  0  0  0  0  0  0  0  0  0
   43.6850   33.9830   39.6480 C   0  0  0  0  0  0  0  0  0  0  0  0
   43.8810   33.9930   38.3140 N   0  0  0  0  0  0  0  0  0  0  0  0
   42.8540   33.8750   37.4260 C   0  0  0  0  0  0  0  0  0  0  0  0
   41.5750   33.7420   37.8650 N   0  0  0  0  0  0  0  0  0  0  0  0
   42.2310   33.8400   41.1970 H   0  0  0  0  0  0  0  0  0  0  0  0
   44.5320   34.0790   40.3030 H   0  0  0  0  0  0  0  0  0  0  0  0
   43.1160   33.8950   36.3730 H   0  0  0  0  0  0  0  0  0  0  0  0
  1  2  2  0  0  0  0
  1  5  1  0  0  0  0
  2  3  1  0  0  0  0
  3  7  1  0  0  0  0
  3  4  2  0  0  0  0
  4  8  1  0  0  0  0
  5  4  1  0  0  0  0
  6  2  1  0  0  0  0
  8  9  2  0  0  0  0
  8 15  1  0  0  0  0
  9 11  1  0  0  0  0
 10  9  1  0  0  0  0
 11 12  1  0  0  0  0
 11 13  2  0  0  0  0
 14 13  1  0  0  0  0
 15 14  2  0  0  0  0
 16 17  1  0  0  0  0
 16  1  1  0  0  0  0
 17 18  2  0  0  0  0
 19 17  1  0  0  0  0
 19 20  1  0  0  0  0
 20 25  1  0  0  0  0
 21 20  2  0  0  0  0
 21 26  1  0  0  0  0
 22 21  1  0  0  0  0
 23 24  1  0  0  0  0
 23 22  2  0  0  0  0
 24 19  2  0  0  0  0
 27 23  1  0  0  0  0
M  END
>  <minimizedAffinity>
-5.03322601

$$$$

 OpenBabel03242518333D

 27 29  0  0  0  0  0  0  0  0999 V2000
   37.0730   26.7890   42.5380 C   0  0  0  0  0  0  0  0  0  0  0  0
   37.4200   27.6720   43.5320 C   0  0  0  0  0  0  0  0  0  0  0  0
   37.5020   28.9330   42.9740 C   0  0  0  0  0  0  0  0  0  0  0  0
   37.1980   28.7680   41.6390 C   0  0  0  0  0  0  0  0  0  0  0  0
   36.9540   27.4990   41.4300 O   0  0  0  0  0  0  0  0  0  0  0  0
   37.5790   27.3370   44.5500 H   0  0  0  0  0  0  0  0  0  0  0  0
   37.7550   29.8290   43.5060 H   0  0  0  0  0  0  0  0  0  0  0  0
   37.1560   29.8270   40.6360 C   0  0  0  0  0  0  0  0  0  0  0  0
   37.3070   31.1440   41.0180 C   0  0  0  0  0  0  0  0  0  0  0  0
   37.4600   31.4540   42.0470 H   0  0  0  0  0  0  0  0  0  0  0  0
   37.2730   32.1860   40.0840 C   0  0  0  0  0  0  0  0  0  0  0  0
   37.3820   33.2320   40.3080 H   0  0  0  0  0  0  0  0  0  0  0  0
   37.0780   31.7900   38.7770 C   0  0  0  0  0  3  0  0  0  0  0  0
   36.9270   30.4890   38.3780 C   0  0  0  0  0  3  0  0  0  0  0  0
   36.9700   29.5220   39.3390 N   0  0  0  0  0  0  0  0  0  0  0  0
   36.8540   25.4020   42.5370 O   0  0  0  0  0  0  0  0  0  0  0  0
   37.8450   24.5390   42.0470 C   0  0  0  0  0  0  0  0  0  0  0  0
   38.9930   24.6560   42.5410 O   0  0  0  0  0  0  0  0  0  0  0  0
   37.4030   23.6310   41.0330 C   0  0  0  0  0  0  0  0  0  0  0  0
   36.1550   23.9720   40.5080 C   0  0  0  0  0  0  0  0  0  0  0  0
   35.6310   23.1470   39.5090 C   0  0  0  0  0  0  0  0  0  0  0  0
   36.3570   22.0820   39.1160 N   0  0  0  0  0  0  0  0  0  0  0  0
   37.5730   21.7890   39.6590 C   0  0  0  0  0  0  0  0  0  0  0  0
   38.1000   22.5770   40.6320 N   0  0  0  0  0  0  0  0  0  0  0  0
   35.5620   24.8270   40.8160 H   0  0  0  0  0  0  0  0  0  0  0  0
   34.6780   23.3320   39.0460 H   0  0  0  0  0  0  0  0  0  0  0  0
   38.0780   20.9090   39.2750 H   0  0  0  0  0  0  0  0  0  0  0  0
  1  2  2  0  0  0  0
  2  6  1  0  0  0  0
  3  7  1  0  0  0  0
  3  2  1  0  0  0  0
  4  3  2  0  0  0  0
  5  4  1  0  0  0  0
  5  1  1  0  0  0  0
  8  9  1  0  0  0  0
  8  4  1  0  0  0  0
  9 10  1  0  0  0  0
 11 12  1  0  0  0  0
 11  9  2  0  0  0  0
 13 11  1  0  0  0  0
 14 13  2  0  0  0  0
 14 15  1  0  0  0  0
 15  8  2  0  0  0  0
 16  1  1  0  0  0  0
 17 16  1  0  0  0  0
 17 18  2  0  0  0  0
 19 17  1  0  0  0  0
 20 25  1  0  0  0  0
 20 19  2  0  0  0  0
 21 20  1  0  0  0  0
 22 21  2  0  0  0  0
 22 23  1  0  0  0  0
 23 24  2  0  0  0  0
 24 19  1  0  0  0  0
 26 21  1  0  0  0  0
 27 23  1  0  0  0  0
M  END
>  <minimizedAffinity>
-4.94338226

$$$$

 OpenBabel03242518333D

 27 29  0  0  0  0  0  0  0  0999 V2000
   37.0660   26.8430   42.6230 C   0  0  0  0  0  0  0  0  0  0  0  0
   37.4760   27.7040   43.6130 C   0  0  0  0  0  0  0  0  0  0  0  0
   37.5660   28.9700   43.0690 C   0  0  0  0  0  0  0  0  0  0  0  0
   37.2020   28.8310   41.7460 C   0  0  0  0  0  0  0  0  0  0  0  0
   36.9190   27.5710   41.5300 O   0  0  0  0  0  0  0  0  0  0  0  0
   37.6690   27.3510   44.6190 H   0  0  0  0  0  0  0  0  0  0  0  0
   37.8630   29.8520   43.6020 H   0  0  0  0  0  0  0  0  0  0  0  0
   37.1440   29.9060   40.7590 C   0  0  0  0  0  0  0  0  0  0  0  0
   36.8000   29.6220   39.4530 C   0  0  0  0  0  0  0  0  0  0  0  0
   36.5640   28.6230   39.1010 H   0  0  0  0  0  0  0  0  0  0  0  0
   36.7330   30.6260   38.4800 C   0  0  0  0  0  0  0  0  0  0  0  0
   36.4740   30.4800   37.4460 H   0  0  0  0  0  0  0  0  0  0  0  0
   37.0340   31.8950   38.9300 C   0  0  0  0  0  3  0  0  0  0  0  0
   37.3760   32.1950   40.2210 C   0  0  0  0  0  3  0  0  0  0  0  0
   37.4230   31.1700   41.1200 N   0  0  0  0  0  0  0  0  0  0  0  0
   36.8130   25.4620   42.6130 O   0  0  0  0  0  0  0  0  0  0  0  0
   37.5830   24.6180   41.8000 C   0  0  0  0  0  0  0  0  0  0  0  0
   36.9610   23.7860   41.0950 O   0  0  0  0  0  0  0  0  0  0  0  0
   38.9960   24.8240   41.8890 C   0  0  0  0  0  0  0  0  0  0  0  0
   39.5680   25.1790   40.6660 C   0  0  0  0  0  0  0  0  0  0  0  0
   40.9480   25.4040   40.6420 C   0  0  0  0  0  0  0  0  0  0  0  0
   41.6350   25.2660   41.7930 N   0  0  0  0  0  0  0  0  0  0  0  0
   41.0320   24.9160   42.9650 C   0  0  0  0  0  0  0  0  0  0  0  0
   39.6920   24.6930   43.0100 N   0  0  0  0  0  0  0  0  0  0  0  0
   39.0250   25.2940   39.7330 H   0  0  0  0  0  0  0  0  0  0  0  0
   41.4740   25.6820   39.7470 H   0  0  0  0  0  0  0  0  0  0  0  0
   41.6730   24.8310   43.8360 H   0  0  0  0  0  0  0  0  0  0  0  0
  1  2  2  0  0  0  0
  2  6  1  0  0  0  0
  3  7  1  0  0  0  0
  3  2  1  0  0  0  0
  4  3  2  0  0  0  0
  5  4  1  0  0  0  0
  5  1  1  0  0  0  0
  8 15  1  0  0  0  0
  8  4  1  0  0  0  0
  9  8  2  0  0  0  0
 10  9  1  0  0  0  0
 11 13  2  0  0  0  0
 11  9  1  0  0  0  0
 12 11  1  0  0  0  0
 13 14  1  0  0  0  0
 14 15  2  0  0  0  0
 16  1  1  0  0  0  0
 17 19  1  0  0  0  0
 17 16  1  0  0  0  0
 18 17  2  0  0  0  0
 19 24  1  0  0  0  0
 20 19  2  0  0  0  0
 21 20  1  0  0  0  0
 21 22  2  0  0  0  0
 22 23  1  0  0  0  0
 23 24  2  0  0  0  0
 23 27  1  0  0  0  0
 25 20  1  0  0  0  0
 26 21  1  0  0  0  0
M  END
>  <minimizedAffinity>
-4.93035889

$$$$

 OpenBabel03242518333D

 27 29  0  0  0  0  0  0  0  0999 V2000
   37.1440   29.4810   41.7840 C   0  0  0  0  0  0  0  0  0  0  0  0
   37.7380   29.2970   43.0100 C   0  0  0  0  0  0  0  0  0  0  0  0
   38.1770   27.9900   43.0810 C   0  0  0  0  0  0  0  0  0  0  0  0
   37.8290   27.4160   41.8770 C   0  0  0  0  0  0  0  0  0  0  0  0
   37.2270   28.3240   41.1500 O   0  0  0  0  0  0  0  0  0  0  0  0
   37.8000   30.1050   43.7290 H   0  0  0  0  0  0  0  0  0  0  0  0
   38.6820   27.5520   43.9200 H   0  0  0  0  0  0  0  0  0  0  0  0
   38.0880   26.0340   41.4820 C   0  0  0  0  0  0  0  0  0  0  0  0
   37.1790   25.0460   41.7980 C   0  0  0  0  0  0  0  0  0  0  0  0
   36.2560   25.2340   42.3360 H   0  0  0  0  0  0  0  0  0  0  0  0
   37.3930   23.7120   41.4350 C   0  0  0  0  0  0  0  0  0  0  0  0
   36.7310   22.8910   41.6470 H   0  0  0  0  0  0  0  0  0  0  0  0
   38.5670   23.4750   40.7500 C   0  0  0  0  0  3  0  0  0  0  0  0
   39.4810   24.4430   40.4280 C   0  0  0  0  0  3  0  0  0  0  0  0
   39.2110   25.7230   40.8110 N   0  0  0  0  0  0  0  0  0  0  0  0
   36.5330   30.5940   41.1840 O   0  0  0  0  0  0  0  0  0  0  0  0
   36.8620   30.9430   39.8670 C   0  0  0  0  0  0  0  0  0  0  0  0
   36.1720   30.4270   38.9530 O   0  0  0  0  0  0  0  0  0  0  0  0
   37.9570   31.8550   39.7430 C   0  0  0  0  0  0  0  0  0  0  0  0
   37.6660   33.1220   40.2510 C   0  0  0  0  0  0  0  0  0  0  0  0
   38.6710   34.0910   40.1790 C   0  0  0  0  0  0  0  0  0  0  0  0
   39.8510   33.7450   39.6280 N   0  0  0  0  0  0  0  0  0  0  0  0
   40.0900   32.4920   39.1440 C   0  0  0  0  0  0  0  0  0  0  0  0
   39.1260   31.5360   39.2040 N   0  0  0  0  0  0  0  0  0  0  0  0
   36.7200   33.4130   40.6960 H   0  0  0  0  0  0  0  0  0  0  0  0
   38.5380   35.0930   40.5450 H   0  0  0  0  0  0  0  0  0  0  0  0
   41.0720   32.3130   38.7200 H   0  0  0  0  0  0  0  0  0  0  0  0
  1  2  2  0  0  0  0
  2  3  1  0  0  0  0
  2  6  1  0  0  0  0
  3  7  1  0  0  0  0
  4  3  2  0  0  0  0
  5  1  1  0  0  0  0
  5  4  1  0  0  0  0
  8  9  1  0  0  0  0
  8  4  1  0  0  0  0
  9 10  1  0  0  0  0
 11 12  1  0  0  0  0
 11  9  2  0  0  0  0
 13 11  1  0  0  0  0
 14 13  2  0  0  0  0
 14 15  1  0  0  0  0
 15  8  2  0  0  0  0
 16  1  1  0  0  0  0
 17 16  1  0  0  0  0
 18 17  2  0  0  0  0
 19 17  1  0  0  0  0
 19 20  1  0  0  0  0
 20 25  1  0  0  0  0
 21 20  2  0  0  0  0
 21 26  1  0  0  0  0
 22 21  1  0  0  0  0
 23 24  1  0  0  0  0
 23 22  2  0  0  0  0
 24 19  2  0  0  0  0
 27 23  1  0  0  0  0
M  END
>  <minimizedAffinity>
-4.91563034

$$$$

 OpenBabel03242518333D

 27 29  0  0  0  0  0  0  0  0999 V2000
   38.7870   31.6740   38.3560 C   0  0  0  0  0  0  0  0  0  0  0  0
   37.4930   32.1300   38.4260 C   0  0  0  0  0  0  0  0  0  0  0  0
   36.8670   31.4830   39.4720 C   0  0  0  0  0  0  0  0  0  0  0  0
   37.8180   30.6430   40.0110 C   0  0  0  0  0  0  0  0  0  0  0  0
   38.9250   30.7870   39.3270 O   0  0  0  0  0  0  0  0  0  0  0  0
   37.1230   32.8740   37.7300 H   0  0  0  0  0  0  0  0  0  0  0  0
   35.8470   31.6330   39.7710 H   0  0  0  0  0  0  0  0  0  0  0  0
   37.6220   29.7480   41.1480 C   0  0  0  0  0  0  0  0  0  0  0  0
   36.6550   28.7650   41.0910 C   0  0  0  0  0  0  0  0  0  0  0  0
   36.0110   28.6090   40.2320 H   0  0  0  0  0  0  0  0  0  0  0  0
   36.4390   27.8890   42.1610 C   0  0  0  0  0  0  0  0  0  0  0  0
   35.7060   27.1020   42.1890 H   0  0  0  0  0  0  0  0  0  0  0  0
   37.2590   28.0890   43.2530 C   0  0  0  0  0  3  0  0  0  0  0  0
   38.2230   29.0580   43.3270 C   0  0  0  0  0  3  0  0  0  0  0  0
   38.3820   29.8790   42.2490 N   0  0  0  0  0  0  0  0  0  0  0  0
   39.8570   31.9810   37.5000 O   0  0  0  0  0  0  0  0  0  0  0  0
   40.9630   32.6880   37.9910 C   0  0  0  0  0  0  0  0  0  0  0  0
   40.7270   33.6210   38.7970 O   0  0  0  0  0  0  0  0  0  0  0  0
   42.2290   32.2420   37.4970 C   0  0  0  0  0  0  0  0  0  0  0  0
   42.1310   31.0800   36.7300 C   0  0  0  0  0  0  0  0  0  0  0  0
   43.3140   30.5580   36.1980 C   0  0  0  0  0  0  0  0  0  0  0  0
   44.4680   31.2060   36.4550 N   0  0  0  0  0  0  0  0  0  0  0  0
   44.5140   32.3400   37.2110 C   0  0  0  0  0  0  0  0  0  0  0  0
   43.3760   32.8630   37.7380 N   0  0  0  0  0  0  0  0  0  0  0  0
   41.2090   30.5490   36.5170 H   0  0  0  0  0  0  0  0  0  0  0  0
   43.3360   29.6680   35.5960 H   0  0  0  0  0  0  0  0  0  0  0  0
   45.4920   32.7860   37.3600 H   0  0  0  0  0  0  0  0  0  0  0  0
  1  2  2  0  0  0  0
  1  5  1  0  0  0  0
  2  3  1  0  0  0  0
  3  7  1  0  0  0  0
  3  4  2  0  0  0  0
  4  8  1  0  0  0  0
  5  4  1  0  0  0  0
  6  2  1  0  0  0  0
  8 15  1  0  0  0  0
  9  8  2  0  0  0  0
  9 11  1  0  0  0  0
 10  9  1  0  0  0  0
 11 12  1  0  0  0  0
 11 13  2  0  0  0  0
 13 14  1  0  0  0  0
 15 14  2  0  0  0  0
 16 17  1  0  0  0  0
 16  1  1  0  0  0  0
 17 18  2  0  0  0  0
 19 24  1  0  0  0  0
 19 17  1  0  0  0  0
 20 19  2  0  0  0  0
 21 22  2  0  0  0  0
 21 20  1  0  0  0  0
 22 23  1  0  0  0  0
 23 27  1  0  0  0  0
 23 24  2  0  0  0  0
 25 20  1  0  0  0  0
 26 21  1  0  0  0  0
M  END
>  <minimizedAffinity>
-4.83796978

$$$$
