
 OpenBabel03252509213D

 24 26  0  0  0  0  0  0  0  0999 V2000
   44.7620   35.3970   45.5330 C   0  0  0  0  0  0  0  0  0  0  0  0
   45.2960   35.9400   44.3510 C   0  0  0  0  0  0  0  0  0  0  0  0
   45.8200   35.0230   43.4690 C   0  0  0  0  0  0  0  0  0  0  0  0
   45.7930   33.6770   43.7850 N   0  0  0  0  0  0  0  0  0  0  0  0
   45.2690   33.2100   44.9310 C   0  0  0  0  0  0  0  0  0  0  0  0
   44.7530   34.0960   45.8000 N   0  0  0  0  0  0  0  0  0  0  0  0
   44.3150   35.9330   46.3370 H   0  0  0  0  0  0  0  0  0  0  0  0
   45.3660   32.1340   44.9410 H   0  0  0  0  0  0  0  0  0  0  0  0
   46.3050   35.4770   42.1140 C   0  0  0  0  0  0  0  0  0  0  0  0
   47.8120   35.2160   41.9720 C   0  0  0  0  0  0  0  0  0  0  0  0
   46.7110   34.4670   41.1610 C   0  0  0  0  0  0  0  0  0  0  0  0
   46.1640   36.5360   41.8240 H   0  0  0  0  0  0  0  0  0  0  0  0
   48.3370   34.6110   42.7060 H   0  0  0  0  0  0  0  0  0  0  0  0
   48.4200   35.9140   41.3740 H   0  0  0  0  0  0  0  0  0  0  0  0
   46.5960   33.3920   41.4180 H   0  0  0  0  0  0  0  0  0  0  0  0
   46.7530   34.6350   40.0600 H   0  0  0  0  0  0  0  0  0  0  0  0
   45.2660   37.3750   44.1600 C   0  0  0  0  0  0  0  0  0  0  0  0
   45.2090   38.2040   45.2530 C   0  0  0  0  0  0  0  0  0  0  0  0
   45.1840   37.9010   46.2900 H   0  0  0  0  0  0  0  0  0  0  0  0
   45.1700   39.5820   45.2000 C   0  0  0  0  0  0  0  0  0  0  0  0
   45.1250   40.2540   46.0470 H   0  0  0  0  0  0  0  0  0  0  0  0
   45.1900   40.2190   43.9770 C   0  0  0  0  0  3  0  0  0  0  0  0
   45.2480   39.3850   42.8850 C   0  0  0  0  0  3  0  0  0  0  0  0
   45.2810   38.0700   43.0250 N   0  0  0  0  0  0  0  0  0  0  0  0
  1  6  1  0  0  0  0
  1  7  1  0  0  0  0
  2  1  2  0  0  0  0
  3  4  2  0  0  0  0
  3  2  1  0  0  0  0
  4  5  1  0  0  0  0
  5  8  1  0  0  0  0
  5  6  2  0  0  0  0
  9  3  1  0  0  0  0
 10  9  1  0  0  0  0
 10 13  1  0  0  0  0
 11 15  1  0  0  0  0
 11 10  1  0  0  0  0
 11  9  1  0  0  0  0
 12  9  1  0  0  0  0
 14 10  1  0  0  0  0
 16 11  1  0  0  0  0
 17  2  1  0  0  0  0
 17 18  1  0  0  0  0
 18 19  1  0  0  0  0
 20 18  2  0  0  0  0
 20 21  1  0  0  0  0
 22 20  1  0  0  0  0
 23 24  1  0  0  0  0
 23 22  2  0  0  0  0
 24 17  2  0  0  0  0
M  END
>  <minimizedAffinity>
0.0525904298

>  <minimizedRMSD>
2.14685249

$$$$
