
 OpenBabel03252508403D

 40 43  0  0  0  0  0  0  0  0999 V2000
   39.3010   31.4090   40.4180 C   0  0  0  0  0  0  0  0  0  0  0  0
   39.3790   32.6640   39.8910 C   0  0  0  0  0  0  0  0  0  0  0  0
   38.2080   33.3370   39.6750 C   0  0  0  0  0  0  0  0  0  0  0  0
   36.9750   32.8140   39.9590 C   0  0  0  0  0  0  0  0  0  0  0  0
   36.9230   31.5430   40.4910 C   0  0  0  0  0  0  0  0  0  0  0  0
   38.0700   30.8320   40.7250 C   0  0  0  0  0  0  0  0  0  0  0  0
   38.2730   34.3340   39.2560 H   0  0  0  0  0  0  0  0  0  0  0  0
   36.0940   33.4220   39.7540 H   0  0  0  0  0  0  0  0  0  0  0  0
   35.9360   31.1360   40.7140 H   0  0  0  0  0  0  0  0  0  0  0  0
   42.4260   33.9280   38.0440 C   0  0  0  0  0  0  0  0  0  0  0  0
   41.1330   33.4300   38.2820 C   0  0  0  0  0  0  0  0  0  0  0  0
   40.7040   33.1780   39.6050 C   0  0  0  0  0  0  0  0  0  0  0  0
   41.6170   33.4500   40.5740 N   0  0  0  0  0  0  0  0  0  0  0  0
   42.8420   33.9240   40.3210 C   0  0  0  0  0  0  0  0  0  0  0  0
   43.2400   34.1600   39.0630 N   0  0  0  0  0  0  0  0  0  0  0  0
   42.7980   34.1600   36.7020 N   0  0  0  0  0  0  0  0  0  0  0  0
   40.4470   33.2330   37.4560 H   0  0  0  0  0  0  0  0  0  0  0  0
   43.5060   34.1110   41.1640 H   0  0  0  0  0  0  0  0  0  0  0  0
   43.8180   34.0310   36.5020 H   0  0  0  0  0  0  0  0  0  0  0  0
   42.1650   34.4400   35.9220 H   0  0  0  0  0  0  0  0  0  0  0  0
   37.9210   29.5010   41.2870 C   0  0  0  0  0  0  0  0  0  0  0  0
   37.9610   29.4310   42.6670 C   0  0  0  0  0  0  0  0  0  0  0  0
   37.8350   28.2340   43.3740 C   0  0  0  0  0  0  0  0  0  0  0  0
   37.6640   27.0750   42.6650 C   0  0  0  0  0  0  0  0  0  0  0  0
   37.6200   27.1200   41.2840 C   0  0  0  0  0  0  0  0  0  0  0  0
   37.7480   28.3220   40.6030 C   0  0  0  0  0  0  0  0  0  0  0  0
   38.0940   30.3080   43.2840 H   0  0  0  0  0  0  0  0  0  0  0  0
   37.8730   28.2250   44.4690 H   0  0  0  0  0  0  0  0  0  0  0  0
   37.5590   26.1120   43.1480 H   0  0  0  0  0  0  0  0  0  0  0  0
   37.4880   26.2690   40.6330 H   0  0  0  0  0  0  0  0  0  0  0  0
   37.7100   28.4380   39.1340 C   0  0  0  0  0  0  0  0  0  0  0  0
   36.4900   28.6250   38.4790 C   0  0  0  0  0  0  0  0  0  0  0  0
   35.5740   28.6860   39.0470 H   0  0  0  0  0  0  0  0  0  0  0  0
   36.4370   28.7350   37.1010 C   0  0  0  0  0  0  0  0  0  0  0  0
   35.5000   28.8800   36.5850 H   0  0  0  0  0  0  0  0  0  0  0  0
   37.6210   28.6580   36.3620 C   0  0  0  0  0  3  0  0  0  0  0  0
   38.7940   28.4720   37.0620 C   0  0  0  0  0  3  0  0  0  0  0  0
   38.8410   28.3640   38.4190 N   0  0  0  0  0  0  0  0  0  0  0  0
   41.4650   30.0160   40.8740 N   0  0  0  0  0  0  0  0  0  0  0  0
   40.4880   30.6390   40.6740 C   0  0  0  0  0  0  0  0  0  0  0  0
  1 40  1  0  0  0  0
  1  6  1  0  0  0  0
  2  1  2  0  0  0  0
  3  2  1  0  0  0  0
  3  4  2  0  0  0  0
  4  5  1  0  0  0  0
  5  9  1  0  0  0  0
  5  6  2  0  0  0  0
  6 21  1  0  0  0  0
  7  3  1  0  0  0  0
  8  4  1  0  0  0  0
 10 11  2  0  0  0  0
 10 15  1  0  0  0  0
 11 12  1  0  0  0  0
 12  2  1  0  0  0  0
 12 13  2  0  0  0  0
 14 13  1  0  0  0  0
 14 18  1  0  0  0  0
 15 14  2  0  0  0  0
 16 10  1  0  0  0  0
 17 11  1  0  0  0  0
 19 16  1  0  0  0  0
 20 16  1  0  0  0  0
 21 22  1  0  0  0  0
 22 27  1  0  0  0  0
 22 23  2  0  0  0  0
 23 28  1  0  0  0  0
 24 29  1  0  0  0  0
 24 23  1  0  0  0  0
 25 24  2  0  0  0  0
 26 25  1  0  0  0  0
 26 21  2  0  0  0  0
 30 25  1  0  0  0  0
 31 26  1  0  0  0  0
 32 33  1  0  0  0  0
 32 31  1  0  0  0  0
 34 32  2  0  0  0  0
 35 34  1  0  0  0  0
 36 37  2  0  0  0  0
 36 34  1  0  0  0  0
 37 38  1  0  0  0  0
 38 31  2  0  0  0  0
 40 39  3  0  0  0  0
M  END
>  <minimizedAffinity>
-6.37830448

$$$$

 OpenBabel03252508403D

 40 43  0  0  0  0  0  0  0  0999 V2000
   38.6050   30.2750   38.0710 C   0  0  0  0  0  0  0  0  0  0  0  0
   39.9680   30.2720   38.0910 C   0  0  0  0  0  0  0  0  0  0  0  0
   40.6050   29.0900   37.8350 C   0  0  0  0  0  0  0  0  0  0  0  0
   39.9450   27.9210   37.5640 C   0  0  0  0  0  0  0  0  0  0  0  0
   38.5670   27.9500   37.5500 C   0  0  0  0  0  0  0  0  0  0  0  0
   37.8860   29.1110   37.8000 C   0  0  0  0  0  0  0  0  0  0  0  0
   41.6890   29.0900   37.8520 H   0  0  0  0  0  0  0  0  0  0  0  0
   40.5360   27.0250   37.3720 H   0  0  0  0  0  0  0  0  0  0  0  0
   38.0520   27.0130   37.3320 H   0  0  0  0  0  0  0  0  0  0  0  0
   41.9360   33.4770   37.7070 C   0  0  0  0  0  0  0  0  0  0  0  0
   41.3100   32.2600   37.3850 C   0  0  0  0  0  0  0  0  0  0  0  0
   40.6250   31.5310   38.3830 C   0  0  0  0  0  0  0  0  0  0  0  0
   40.6320   32.0920   39.6210 N   0  0  0  0  0  0  0  0  0  0  0  0
   41.2360   33.2520   39.9010 C   0  0  0  0  0  0  0  0  0  0  0  0
   41.8820   33.9370   38.9480 N   0  0  0  0  0  0  0  0  0  0  0  0
   42.6050   34.1610   36.6680 N   0  0  0  0  0  0  0  0  0  0  0  0
   41.3420   31.8640   36.3680 H   0  0  0  0  0  0  0  0  0  0  0  0
   41.1870   33.6240   40.9240 H   0  0  0  0  0  0  0  0  0  0  0  0
   43.4330   34.7230   36.9760 H   0  0  0  0  0  0  0  0  0  0  0  0
   42.3510   34.1520   35.6560 H   0  0  0  0  0  0  0  0  0  0  0  0
   36.4360   29.0490   37.7640 C   0  0  0  0  0  0  0  0  0  0  0  0
   35.8640   29.2170   36.5160 C   0  0  0  0  0  0  0  0  0  0  0  0
   34.4860   29.1870   36.2980 C   0  0  0  0  0  0  0  0  0  0  0  0
   33.6620   28.9820   37.3730 C   0  0  0  0  0  0  0  0  0  0  0  0
   34.2100   28.8120   38.6310 C   0  0  0  0  0  0  0  0  0  0  0  0
   35.5840   28.8450   38.8230 C   0  0  0  0  0  0  0  0  0  0  0  0
   36.4580   29.3830   35.6290 H   0  0  0  0  0  0  0  0  0  0  0  0
   34.0760   29.3250   35.2920 H   0  0  0  0  0  0  0  0  0  0  0  0
   32.5850   28.9480   37.2770 H   0  0  0  0  0  0  0  0  0  0  0  0
   33.6530   28.6430   39.5400 H   0  0  0  0  0  0  0  0  0  0  0  0
   36.2310   28.6700   40.1350 C   0  0  0  0  0  0  0  0  0  0  0  0
   36.6050   27.3950   40.5660 C   0  0  0  0  0  0  0  0  0  0  0  0
   36.4210   26.5360   39.9370 H   0  0  0  0  0  0  0  0  0  0  0  0
   37.2120   27.2130   41.7950 C   0  0  0  0  0  0  0  0  0  0  0  0
   37.5050   26.2320   42.1370 H   0  0  0  0  0  0  0  0  0  0  0  0
   37.4520   28.3230   42.6110 C   0  0  0  0  0  3  0  0  0  0  0  0
   37.0600   29.5560   42.1340 C   0  0  0  0  0  3  0  0  0  0  0  0
   36.4630   29.7290   40.9230 N   0  0  0  0  0  0  0  0  0  0  0  0
   37.2610   32.4650   38.5530 N   0  0  0  0  0  0  0  0  0  0  0  0
   37.8630   31.4790   38.3290 C   0  0  0  0  0  0  0  0  0  0  0  0
  1  2  1  0  0  0  0
  1 40  1  0  0  0  0
  2 12  1  0  0  0  0
  3  7  1  0  0  0  0
  3  2  2  0  0  0  0
  4  3  1  0  0  0  0
  5  4  2  0  0  0  0
  5  6  1  0  0  0  0
  6  1  2  0  0  0  0
  8  4  1  0  0  0  0
  9  5  1  0  0  0  0
 10 15  1  0  0  0  0
 11 10  2  0  0  0  0
 11 12  1  0  0  0  0
 12 13  2  0  0  0  0
 13 14  1  0  0  0  0
 14 18  1  0  0  0  0
 15 14  2  0  0  0  0
 16 19  1  0  0  0  0
 16 10  1  0  0  0  0
 17 11  1  0  0  0  0
 20 16  1  0  0  0  0
 21  6  1  0  0  0  0
 21 26  1  0  0  0  0
 22 21  2  0  0  0  0
 23 22  1  0  0  0  0
 23 24  2  0  0  0  0
 24 25  1  0  0  0  0
 25 26  2  0  0  0  0
 25 30  1  0  0  0  0
 26 31  1  0  0  0  0
 27 22  1  0  0  0  0
 28 23  1  0  0  0  0
 29 24  1  0  0  0  0
 31 32  2  0  0  0  0
 31 38  1  0  0  0  0
 32 34  1  0  0  0  0
 33 32  1  0  0  0  0
 34 35  1  0  0  0  0
 34 36  2  0  0  0  0
 37 36  1  0  0  0  0
 38 37  2  0  0  0  0
 40 39  3  0  0  0  0
M  END
>  <minimizedAffinity>
-6.33603811

$$$$

 OpenBabel03252508403D

 40 43  0  0  0  0  0  0  0  0999 V2000
   38.0370   28.0780   41.1400 C   0  0  0  0  0  0  0  0  0  0  0  0
   37.9360   29.1410   41.9870 C   0  0  0  0  0  0  0  0  0  0  0  0
   37.4400   28.9110   43.2410 C   0  0  0  0  0  0  0  0  0  0  0  0
   37.0450   27.6760   43.6800 C   0  0  0  0  0  0  0  0  0  0  0  0
   37.1560   26.6160   42.8040 C   0  0  0  0  0  0  0  0  0  0  0  0
   37.6470   26.8000   41.5390 C   0  0  0  0  0  0  0  0  0  0  0  0
   37.3610   29.7590   43.9120 H   0  0  0  0  0  0  0  0  0  0  0  0
   36.6610   27.5850   44.6960 H   0  0  0  0  0  0  0  0  0  0  0  0
   36.8390   25.6370   43.1650 H   0  0  0  0  0  0  0  0  0  0  0  0
   37.9070   32.5850   40.4280 C   0  0  0  0  0  0  0  0  0  0  0  0
   37.4530   31.3440   40.9090 C   0  0  0  0  0  0  0  0  0  0  0  0
   38.3650   30.4300   41.4810 C   0  0  0  0  0  0  0  0  0  0  0  0
   39.6580   30.8450   41.5180 N   0  0  0  0  0  0  0  0  0  0  0  0
   40.0660   32.0320   41.0530 C   0  0  0  0  0  0  0  0  0  0  0  0
   39.1930   32.8930   40.5130 N   0  0  0  0  0  0  0  0  0  0  0  0
   36.9490   33.4580   39.8670 N   0  0  0  0  0  0  0  0  0  0  0  0
   36.3970   31.0730   40.8490 H   0  0  0  0  0  0  0  0  0  0  0  0
   41.1240   32.2780   41.1270 H   0  0  0  0  0  0  0  0  0  0  0  0
   37.3140   34.0790   39.1070 H   0  0  0  0  0  0  0  0  0  0  0  0
   35.9440   33.5320   40.1380 H   0  0  0  0  0  0  0  0  0  0  0  0
   37.7300   25.6280   40.6850 C   0  0  0  0  0  0  0  0  0  0  0  0
   36.5740   25.3130   39.9950 C   0  0  0  0  0  0  0  0  0  0  0  0
   36.4750   24.2210   39.1320 C   0  0  0  0  0  0  0  0  0  0  0  0
   37.5760   23.4250   38.9610 C   0  0  0  0  0  0  0  0  0  0  0  0
   38.7440   23.7200   39.6400 C   0  0  0  0  0  0  0  0  0  0  0  0
   38.8180   24.8110   40.4940 C   0  0  0  0  0  0  0  0  0  0  0  0
   35.6720   25.9000   40.0860 H   0  0  0  0  0  0  0  0  0  0  0  0
   35.5380   24.0080   38.6050 H   0  0  0  0  0  0  0  0  0  0  0  0
   37.5700   22.5620   38.3080 H   0  0  0  0  0  0  0  0  0  0  0  0
   39.6650   23.1600   39.5770 H   0  0  0  0  0  0  0  0  0  0  0  0
   40.0300   25.1800   41.2460 C   0  0  0  0  0  0  0  0  0  0  0  0
   40.1550   24.8220   42.5910 C   0  0  0  0  0  0  0  0  0  0  0  0
   39.3630   24.2750   43.0810 H   0  0  0  0  0  0  0  0  0  0  0  0
   41.2860   25.1610   43.3120 C   0  0  0  0  0  0  0  0  0  0  0  0
   41.3920   24.8900   44.3510 H   0  0  0  0  0  0  0  0  0  0  0  0
   42.3130   25.8700   42.6800 C   0  0  0  0  0  3  0  0  0  0  0  0
   42.1340   26.1950   41.3530 C   0  0  0  0  0  3  0  0  0  0  0  0
   41.0190   25.8600   40.6480 N   0  0  0  0  0  0  0  0  0  0  0  0
   38.9780   28.3730   38.7200 N   0  0  0  0  0  0  0  0  0  0  0  0
   38.5480   28.2390   39.8060 C   0  0  0  0  0  0  0  0  0  0  0  0
  1  6  2  0  0  0  0
  1  2  1  0  0  0  0
  2  3  2  0  0  0  0
  3  4  1  0  0  0  0
  3  7  1  0  0  0  0
  4  8  1  0  0  0  0
  5  9  1  0  0  0  0
  5  4  2  0  0  0  0
  6  5  1  0  0  0  0
 10 15  2  0  0  0  0
 10 11  1  0  0  0  0
 11 12  2  0  0  0  0
 12 13  1  0  0  0  0
 12  2  1  0  0  0  0
 14 18  1  0  0  0  0
 14 13  2  0  0  0  0
 15 14  1  0  0  0  0
 16 20  1  0  0  0  0
 16 10  1  0  0  0  0
 17 11  1  0  0  0  0
 19 16  1  0  0  0  0
 21  6  1  0  0  0  0
 22 27  1  0  0  0  0
 22 21  2  0  0  0  0
 23 22  1  0  0  0  0
 24 23  2  0  0  0  0
 24 25  1  0  0  0  0
 25 26  2  0  0  0  0
 26 21  1  0  0  0  0
 26 31  1  0  0  0  0
 28 23  1  0  0  0  0
 29 24  1  0  0  0  0
 30 25  1  0  0  0  0
 31 32  1  0  0  0  0
 32 33  1  0  0  0  0
 32 34  2  0  0  0  0
 34 35  1  0  0  0  0
 36 34  1  0  0  0  0
 37 36  2  0  0  0  0
 38 31  2  0  0  0  0
 38 37  1  0  0  0  0
 39 40  3  0  0  0  0
 40  1  1  0  0  0  0
M  END
>  <minimizedAffinity>
-6.27545261

$$$$

 OpenBabel03252508403D

 40 43  0  0  0  0  0  0  0  0999 V2000
   38.7160   30.6850   38.9140 C   0  0  0  0  0  0  0  0  0  0  0  0
   39.2000   31.8780   39.3610 C   0  0  0  0  0  0  0  0  0  0  0  0
   38.3460   32.6930   40.0500 C   0  0  0  0  0  0  0  0  0  0  0  0
   37.0410   32.3720   40.3080 C   0  0  0  0  0  0  0  0  0  0  0  0
   36.5740   31.1590   39.8460 C   0  0  0  0  0  0  0  0  0  0  0  0
   37.3940   30.3100   39.1510 C   0  0  0  0  0  0  0  0  0  0  0  0
   38.7340   33.6420   40.4040 H   0  0  0  0  0  0  0  0  0  0  0  0
   36.4320   33.0840   40.8660 H   0  0  0  0  0  0  0  0  0  0  0  0
   35.5330   30.9130   40.0580 H   0  0  0  0  0  0  0  0  0  0  0  0
   42.3070   33.3000   37.7420 C   0  0  0  0  0  0  0  0  0  0  0  0
   40.9500   33.0330   38.0000 C   0  0  0  0  0  0  0  0  0  0  0  0
   40.5870   32.1780   39.0650 C   0  0  0  0  0  0  0  0  0  0  0  0
   41.6240   31.6660   39.7790 N   0  0  0  0  0  0  0  0  0  0  0  0
   42.9070   31.9360   39.5130 C   0  0  0  0  0  0  0  0  0  0  0  0
   43.2420   32.7480   38.5020 N   0  0  0  0  0  0  0  0  0  0  0  0
   42.6090   34.1610   36.6650 N   0  0  0  0  0  0  0  0  0  0  0  0
   40.1660   33.4780   37.3860 H   0  0  0  0  0  0  0  0  0  0  0  0
   43.6700   31.4790   40.1420 H   0  0  0  0  0  0  0  0  0  0  0  0
   43.5180   33.9600   36.1850 H   0  0  0  0  0  0  0  0  0  0  0  0
   42.0230   34.9530   36.3200 H   0  0  0  0  0  0  0  0  0  0  0  0
   36.8180   29.0550   38.7020 C   0  0  0  0  0  0  0  0  0  0  0  0
   36.2630   29.0750   37.4360 C   0  0  0  0  0  0  0  0  0  0  0  0
   35.6670   27.9590   36.8470 C   0  0  0  0  0  0  0  0  0  0  0  0
   35.6300   26.7890   37.5590 C   0  0  0  0  0  0  0  0  0  0  0  0
   36.1790   26.7450   38.8280 C   0  0  0  0  0  0  0  0  0  0  0  0
   36.7670   27.8680   39.3920 C   0  0  0  0  0  0  0  0  0  0  0  0
   36.2590   29.9640   36.8240 H   0  0  0  0  0  0  0  0  0  0  0  0
   35.2390   28.0190   35.8400 H   0  0  0  0  0  0  0  0  0  0  0  0
   35.1830   25.8860   37.1650 H   0  0  0  0  0  0  0  0  0  0  0  0
   36.2030   25.8780   39.4700 H   0  0  0  0  0  0  0  0  0  0  0  0
   37.3680   27.8870   40.7370 C   0  0  0  0  0  0  0  0  0  0  0  0
   36.5730   28.1470   41.8560 C   0  0  0  0  0  0  0  0  0  0  0  0
   35.5160   28.3340   41.7360 H   0  0  0  0  0  0  0  0  0  0  0  0
   37.1220   28.1690   43.1250 C   0  0  0  0  0  0  0  0  0  0  0  0
   36.5160   28.3690   43.9960 H   0  0  0  0  0  0  0  0  0  0  0  0
   38.4900   27.9270   43.2840 C   0  0  0  0  0  3  0  0  0  0  0  0
   39.2250   27.6760   42.1440 C   0  0  0  0  0  3  0  0  0  0  0  0
   38.6790   27.6560   40.8970 N   0  0  0  0  0  0  0  0  0  0  0  0
   40.2280   29.0270   37.5730 N   0  0  0  0  0  0  0  0  0  0  0  0
   39.5520   29.7730   38.1820 C   0  0  0  0  0  0  0  0  0  0  0  0
  1  6  2  0  0  0  0
  1  2  1  0  0  0  0
  2  3  2  0  0  0  0
  3  4  1  0  0  0  0
  3  7  1  0  0  0  0
  4  8  1  0  0  0  0
  5  9  1  0  0  0  0
  5  4  2  0  0  0  0
  6  5  1  0  0  0  0
 10 11  2  0  0  0  0
 10 15  1  0  0  0  0
 11 12  1  0  0  0  0
 12  2  1  0  0  0  0
 12 13  2  0  0  0  0
 14 13  1  0  0  0  0
 14 18  1  0  0  0  0
 15 14  2  0  0  0  0
 16 10  1  0  0  0  0
 17 11  1  0  0  0  0
 19 16  1  0  0  0  0
 20 16  1  0  0  0  0
 21  6  1  0  0  0  0
 21 26  1  0  0  0  0
 22 21  2  0  0  0  0
 23 22  1  0  0  0  0
 23 24  2  0  0  0  0
 24 25  1  0  0  0  0
 25 26  2  0  0  0  0
 25 30  1  0  0  0  0
 26 31  1  0  0  0  0
 27 22  1  0  0  0  0
 28 23  1  0  0  0  0
 29 24  1  0  0  0  0
 31 38  2  0  0  0  0
 31 32  1  0  0  0  0
 32 34  2  0  0  0  0
 33 32  1  0  0  0  0
 34 36  1  0  0  0  0
 34 35  1  0  0  0  0
 37 36  2  0  0  0  0
 38 37  1  0  0  0  0
 39 40  3  0  0  0  0
 40  1  1  0  0  0  0
M  END
>  <minimizedAffinity>
-6.25459051

$$$$

 OpenBabel03252508403D

 40 43  0  0  0  0  0  0  0  0999 V2000
   38.7750   27.4000   41.4100 C   0  0  0  0  0  0  0  0  0  0  0  0
   39.2280   27.4960   42.6930 C   0  0  0  0  0  0  0  0  0  0  0  0
   38.3040   27.7020   43.6800 C   0  0  0  0  0  0  0  0  0  0  0  0
   36.9610   27.8170   43.4420 C   0  0  0  0  0  0  0  0  0  0  0  0
   36.5280   27.7170   42.1370 C   0  0  0  0  0  0  0  0  0  0  0  0
   37.4170   27.5100   41.1160 C   0  0  0  0  0  0  0  0  0  0  0  0
   38.6670   27.7780   44.6990 H   0  0  0  0  0  0  0  0  0  0  0  0
   36.2960   27.9800   44.2910 H   0  0  0  0  0  0  0  0  0  0  0  0
   35.4550   27.8090   41.9590 H   0  0  0  0  0  0  0  0  0  0  0  0
   42.6570   26.0320   43.3170 C   0  0  0  0  0  0  0  0  0  0  0  0
   41.2670   26.1150   43.1200 C   0  0  0  0  0  0  0  0  0  0  0  0
   40.6570   27.3700   42.8980 C   0  0  0  0  0  0  0  0  0  0  0  0
   41.5020   28.4340   42.8940 N   0  0  0  0  0  0  0  0  0  0  0  0
   42.8220   28.3290   43.0830 C   0  0  0  0  0  0  0  0  0  0  0  0
   43.3920   27.1350   43.2920 N   0  0  0  0  0  0  0  0  0  0  0  0
   43.2100   24.7520   43.5330 N   0  0  0  0  0  0  0  0  0  0  0  0
   40.6450   25.2180   43.1360 H   0  0  0  0  0  0  0  0  0  0  0  0
   43.4200   29.2400   43.0620 H   0  0  0  0  0  0  0  0  0  0  0  0
   44.0600   24.7390   44.1450 H   0  0  0  0  0  0  0  0  0  0  0  0
   42.8550   23.8490   43.1480 H   0  0  0  0  0  0  0  0  0  0  0  0
   36.8730   27.4170   39.7730 C   0  0  0  0  0  0  0  0  0  0  0  0
   36.4690   26.1550   39.3810 C   0  0  0  0  0  0  0  0  0  0  0  0
   35.9240   25.8830   38.1250 C   0  0  0  0  0  0  0  0  0  0  0  0
   35.7840   26.9190   37.2400 C   0  0  0  0  0  0  0  0  0  0  0  0
   36.1800   28.1910   37.6090 C   0  0  0  0  0  0  0  0  0  0  0  0
   36.7200   28.4360   38.8640 C   0  0  0  0  0  0  0  0  0  0  0  0
   36.5540   25.2960   40.0310 H   0  0  0  0  0  0  0  0  0  0  0  0
   35.6180   24.8670   37.8560 H   0  0  0  0  0  0  0  0  0  0  0  0
   35.3700   26.7810   36.2490 H   0  0  0  0  0  0  0  0  0  0  0  0
   36.1120   29.0730   36.9900 H   0  0  0  0  0  0  0  0  0  0  0  0
   37.1610   29.7660   39.3190 C   0  0  0  0  0  0  0  0  0  0  0  0
   36.2860   30.5850   40.0370 C   0  0  0  0  0  0  0  0  0  0  0  0
   35.2860   30.2440   40.2610 H   0  0  0  0  0  0  0  0  0  0  0  0
   36.6840   31.8370   40.4710 C   0  0  0  0  0  0  0  0  0  0  0  0
   36.0160   32.4780   41.0270 H   0  0  0  0  0  0  0  0  0  0  0  0
   37.9780   32.2820   40.1830 C   0  0  0  0  0  3  0  0  0  0  0  0
   38.7960   31.4310   39.4710 C   0  0  0  0  0  3  0  0  0  0  0  0
   38.3990   30.2000   39.0470 N   0  0  0  0  0  0  0  0  0  0  0  0
   40.4250   26.9940   39.4240 N   0  0  0  0  0  0  0  0  0  0  0  0
   39.6850   27.1840   40.3180 C   0  0  0  0  0  0  0  0  0  0  0  0
  1  2  1  0  0  0  0
  2 12  1  0  0  0  0
  2  3  2  0  0  0  0
  3  7  1  0  0  0  0
  4  3  1  0  0  0  0
  4  8  1  0  0  0  0
  5  4  2  0  0  0  0
  6  1  2  0  0  0  0
  6  5  1  0  0  0  0
  9  5  1  0  0  0  0
 10 16  1  0  0  0  0
 11 17  1  0  0  0  0
 11 10  2  0  0  0  0
 12 11  1  0  0  0  0
 13 12  2  0  0  0  0
 13 14  1  0  0  0  0
 14 15  2  0  0  0  0
 15 10  1  0  0  0  0
 16 19  1  0  0  0  0
 18 14  1  0  0  0  0
 20 16  1  0  0  0  0
 21  6  1  0  0  0  0
 22 21  1  0  0  0  0
 22 27  1  0  0  0  0
 23 22  2  0  0  0  0
 24 25  2  0  0  0  0
 24 23  1  0  0  0  0
 25 26  1  0  0  0  0
 26 31  1  0  0  0  0
 26 21  2  0  0  0  0
 28 23  1  0  0  0  0
 29 24  1  0  0  0  0
 30 25  1  0  0  0  0
 31 32  1  0  0  0  0
 32 33  1  0  0  0  0
 32 34  2  0  0  0  0
 34 35  1  0  0  0  0
 36 34  1  0  0  0  0
 37 36  2  0  0  0  0
 38 31  2  0  0  0  0
 38 37  1  0  0  0  0
 39 40  3  0  0  0  0
 40  1  1  0  0  0  0
M  END
>  <minimizedAffinity>
-6.17234373

$$$$

 OpenBabel03252508403D

 40 43  0  0  0  0  0  0  0  0999 V2000
   38.6900   27.2480   41.6300 C   0  0  0  0  0  0  0  0  0  0  0  0
   37.5560   26.5350   41.8820 C   0  0  0  0  0  0  0  0  0  0  0  0
   36.7530   26.9590   42.9050 C   0  0  0  0  0  0  0  0  0  0  0  0
   37.0330   28.0520   43.6790 C   0  0  0  0  0  0  0  0  0  0  0  0
   38.1860   28.7560   43.4050 C   0  0  0  0  0  0  0  0  0  0  0  0
   39.0200   28.3690   42.3900 C   0  0  0  0  0  0  0  0  0  0  0  0
   35.8510   26.3900   43.1030 H   0  0  0  0  0  0  0  0  0  0  0  0
   36.3350   28.3170   44.4740 H   0  0  0  0  0  0  0  0  0  0  0  0
   38.3990   29.6260   44.0280 H   0  0  0  0  0  0  0  0  0  0  0  0
   37.5900   23.0260   40.4760 C   0  0  0  0  0  0  0  0  0  0  0  0
   37.8610   24.1190   41.3190 C   0  0  0  0  0  0  0  0  0  0  0  0
   37.2990   25.3850   41.0390 C   0  0  0  0  0  0  0  0  0  0  0  0
   36.5120   25.4390   39.9320 N   0  0  0  0  0  0  0  0  0  0  0  0
   36.2690   24.3840   39.1470 C   0  0  0  0  0  0  0  0  0  0  0  0
   36.8060   23.1880   39.4210 N   0  0  0  0  0  0  0  0  0  0  0  0
   38.1790   21.7860   40.8060 N   0  0  0  0  0  0  0  0  0  0  0  0
   38.5040   24.0060   42.1940 H   0  0  0  0  0  0  0  0  0  0  0  0
   35.6240   24.5250   38.2800 H   0  0  0  0  0  0  0  0  0  0  0  0
   38.3970   21.1720   39.9860 H   0  0  0  0  0  0  0  0  0  0  0  0
   38.4070   21.4430   41.7650 H   0  0  0  0  0  0  0  0  0  0  0  0
   40.2120   29.1690   42.1720 C   0  0  0  0  0  0  0  0  0  0  0  0
   41.3120   28.8170   42.9320 C   0  0  0  0  0  0  0  0  0  0  0  0
   42.5380   29.4780   42.8510 C   0  0  0  0  0  0  0  0  0  0  0  0
   42.6560   30.5260   41.9770 C   0  0  0  0  0  0  0  0  0  0  0  0
   41.5700   30.8970   41.2060 C   0  0  0  0  0  0  0  0  0  0  0  0
   40.3600   30.2240   41.3040 C   0  0  0  0  0  0  0  0  0  0  0  0
   41.2840   28.0010   43.6400 H   0  0  0  0  0  0  0  0  0  0  0  0
   43.3840   29.1650   43.4730 H   0  0  0  0  0  0  0  0  0  0  0  0
   43.5770   31.0830   41.8630 H   0  0  0  0  0  0  0  0  0  0  0  0
   41.5570   31.7030   40.4890 H   0  0  0  0  0  0  0  0  0  0  0  0
   39.1670   30.5690   40.5110 C   0  0  0  0  0  0  0  0  0  0  0  0
   38.2160   31.4530   41.0280 C   0  0  0  0  0  0  0  0  0  0  0  0
   38.3550   31.8850   42.0070 H   0  0  0  0  0  0  0  0  0  0  0  0
   37.0900   31.7870   40.2970 C   0  0  0  0  0  0  0  0  0  0  0  0
   36.3500   32.4690   40.6870 H   0  0  0  0  0  0  0  0  0  0  0  0
   36.9070   31.2290   39.0270 C   0  0  0  0  0  3  0  0  0  0  0  0
   37.8780   30.3630   38.5710 C   0  0  0  0  0  3  0  0  0  0  0  0
   38.9840   30.0380   39.2940 N   0  0  0  0  0  0  0  0  0  0  0  0
   40.3140   26.5400   39.7080 N   0  0  0  0  0  0  0  0  0  0  0  0
   39.5850   26.8660   40.5720 C   0  0  0  0  0  0  0  0  0  0  0  0
  1  2  2  0  0  0  0
  1  6  1  0  0  0  0
  2  3  1  0  0  0  0
  3  7  1  0  0  0  0
  3  4  2  0  0  0  0
  4  8  1  0  0  0  0
  5  4  1  0  0  0  0
  5  9  1  0  0  0  0
  6  5  2  0  0  0  0
 10 16  1  0  0  0  0
 10 11  1  0  0  0  0
 11 17  1  0  0  0  0
 12 11  2  0  0  0  0
 12  2  1  0  0  0  0
 13 12  1  0  0  0  0
 14 15  1  0  0  0  0
 14 13  2  0  0  0  0
 15 10  2  0  0  0  0
 16 20  1  0  0  0  0
 18 14  1  0  0  0  0
 19 16  1  0  0  0  0
 21  6  1  0  0  0  0
 21 22  1  0  0  0  0
 22 27  1  0  0  0  0
 23 22  2  0  0  0  0
 23 28  1  0  0  0  0
 24 23  1  0  0  0  0
 25 26  1  0  0  0  0
 25 24  2  0  0  0  0
 26 21  2  0  0  0  0
 29 24  1  0  0  0  0
 30 25  1  0  0  0  0
 31 32  1  0  0  0  0
 31 26  1  0  0  0  0
 32 33  1  0  0  0  0
 34 35  1  0  0  0  0
 34 32  2  0  0  0  0
 36 34  1  0  0  0  0
 37 36  2  0  0  0  0
 37 38  1  0  0  0  0
 38 31  2  0  0  0  0
 39 40  3  0  0  0  0
 40  1  1  0  0  0  0
M  END
>  <minimizedAffinity>
-6.04904795

$$$$

 OpenBabel03252508403D

 40 43  0  0  0  0  0  0  0  0999 V2000
   39.6120   28.6910   40.4070 C   0  0  0  0  0  0  0  0  0  0  0  0
   39.9900   27.4290   40.0550 C   0  0  0  0  0  0  0  0  0  0  0  0
   40.2750   27.1950   38.7390 C   0  0  0  0  0  0  0  0  0  0  0  0
   40.1980   28.1560   37.7680 C   0  0  0  0  0  0  0  0  0  0  0  0
   39.8130   29.4250   38.1490 C   0  0  0  0  0  0  0  0  0  0  0  0
   39.5190   29.7060   39.4560 C   0  0  0  0  0  0  0  0  0  0  0  0
   40.5750   26.1900   38.4620 H   0  0  0  0  0  0  0  0  0  0  0  0
   40.4440   27.8790   36.7420 H   0  0  0  0  0  0  0  0  0  0  0  0
   39.7560   30.1830   37.3670 H   0  0  0  0  0  0  0  0  0  0  0  0
   41.3070   25.1290   42.7510 C   0  0  0  0  0  0  0  0  0  0  0  0
   41.2810   26.0920   41.7260 C   0  0  0  0  0  0  0  0  0  0  0  0
   40.0570   26.4420   41.1150 C   0  0  0  0  0  0  0  0  0  0  0  0
   38.9630   25.7900   41.5890 N   0  0  0  0  0  0  0  0  0  0  0  0
   39.0140   24.8770   42.5650 C   0  0  0  0  0  0  0  0  0  0  0  0
   40.1790   24.5520   43.1400 N   0  0  0  0  0  0  0  0  0  0  0  0
   42.5590   24.8200   43.3240 N   0  0  0  0  0  0  0  0  0  0  0  0
   42.1990   26.5790   41.3930 H   0  0  0  0  0  0  0  0  0  0  0  0
   38.0830   24.4070   42.8790 H   0  0  0  0  0  0  0  0  0  0  0  0
   42.6530   23.8350   43.6670 H   0  0  0  0  0  0  0  0  0  0  0  0
   43.3700   25.4680   43.4310 H   0  0  0  0  0  0  0  0  0  0  0  0
   39.1220   31.0680   39.7670 C   0  0  0  0  0  0  0  0  0  0  0  0
   40.1590   31.9410   40.0430 C   0  0  0  0  0  0  0  0  0  0  0  0
   39.9600   33.2850   40.3610 C   0  0  0  0  0  0  0  0  0  0  0  0
   38.6760   33.7600   40.4030 C   0  0  0  0  0  0  0  0  0  0  0  0
   37.6230   32.9070   40.1300 C   0  0  0  0  0  0  0  0  0  0  0  0
   37.8460   31.5740   39.8150 C   0  0  0  0  0  0  0  0  0  0  0  0
   41.1930   31.6280   40.0280 H   0  0  0  0  0  0  0  0  0  0  0  0
   40.8110   33.9410   40.5730 H   0  0  0  0  0  0  0  0  0  0  0  0
   38.4490   34.7910   40.6420 H   0  0  0  0  0  0  0  0  0  0  0  0
   36.5790   33.1790   40.1340 H   0  0  0  0  0  0  0  0  0  0  0  0
   36.7690   30.6140   39.5150 C   0  0  0  0  0  0  0  0  0  0  0  0
   36.4550   30.3080   38.1880 C   0  0  0  0  0  0  0  0  0  0  0  0
   37.0010   30.7740   37.3820 H   0  0  0  0  0  0  0  0  0  0  0  0
   35.4460   29.4100   37.8890 C   0  0  0  0  0  0  0  0  0  0  0  0
   35.1960   29.1670   36.8680 H   0  0  0  0  0  0  0  0  0  0  0  0
   34.7370   28.8040   38.9310 C   0  0  0  0  0  3  0  0  0  0  0  0
   35.0910   29.1450   40.2190 C   0  0  0  0  0  3  0  0  0  0  0  0
   36.0840   30.0300   40.5080 N   0  0  0  0  0  0  0  0  0  0  0  0
   39.0340   29.2950   42.8840 N   0  0  0  0  0  0  0  0  0  0  0  0
   39.2960   29.0160   41.7720 C   0  0  0  0  0  0  0  0  0  0  0  0
  1 40  1  0  0  0  0
  2  1  1  0  0  0  0
  2 12  1  0  0  0  0
  3  2  2  0  0  0  0
  4  5  2  0  0  0  0
  4  3  1  0  0  0  0
  5  6  1  0  0  0  0
  6 21  1  0  0  0  0
  6  1  2  0  0  0  0
  7  3  1  0  0  0  0
  8  4  1  0  0  0  0
  9  5  1  0  0  0  0
 10 15  1  0  0  0  0
 10 16  1  0  0  0  0
 11 10  2  0  0  0  0
 12 13  2  0  0  0  0
 12 11  1  0  0  0  0
 13 14  1  0  0  0  0
 14 18  1  0  0  0  0
 14 15  2  0  0  0  0
 16 20  1  0  0  0  0
 16 19  1  0  0  0  0
 17 11  1  0  0  0  0
 21 26  2  0  0  0  0
 21 22  1  0  0  0  0
 22 23  2  0  0  0  0
 23 24  1  0  0  0  0
 23 28  1  0  0  0  0
 24 29  1  0  0  0  0
 25 30  1  0  0  0  0
 25 24  2  0  0  0  0
 26 25  1  0  0  0  0
 27 22  1  0  0  0  0
 31 26  1  0  0  0  0
 31 38  1  0  0  0  0
 32 31  2  0  0  0  0
 33 32  1  0  0  0  0
 34 32  1  0  0  0  0
 34 36  2  0  0  0  0
 35 34  1  0  0  0  0
 36 37  1  0  0  0  0
 37 38  2  0  0  0  0
 40 39  3  0  0  0  0
M  END
>  <minimizedAffinity>
-5.97600603

$$$$

 OpenBabel03252508403D

 40 43  0  0  0  0  0  0  0  0999 V2000
   38.5670   29.0280   40.9910 C   0  0  0  0  0  0  0  0  0  0  0  0
   37.9120   30.1690   40.6360 C   0  0  0  0  0  0  0  0  0  0  0  0
   36.5560   30.2040   40.8080 C   0  0  0  0  0  0  0  0  0  0  0  0
   35.8330   29.1570   41.3130 C   0  0  0  0  0  0  0  0  0  0  0  0
   36.5180   28.0130   41.6640 C   0  0  0  0  0  0  0  0  0  0  0  0
   37.8760   27.9330   41.5110 C   0  0  0  0  0  0  0  0  0  0  0  0
   36.0380   31.1140   40.5240 H   0  0  0  0  0  0  0  0  0  0  0  0
   34.7540   29.2740   41.4150 H   0  0  0  0  0  0  0  0  0  0  0  0
   35.9320   27.1860   42.0660 H   0  0  0  0  0  0  0  0  0  0  0  0
   39.8700   32.3680   38.2640 C   0  0  0  0  0  0  0  0  0  0  0  0
   39.0880   31.3020   38.7430 C   0  0  0  0  0  0  0  0  0  0  0  0
   38.7160   31.2520   40.1050 C   0  0  0  0  0  0  0  0  0  0  0  0
   39.1670   32.2820   40.8680 N   0  0  0  0  0  0  0  0  0  0  0  0
   39.9100   33.2860   40.3890 C   0  0  0  0  0  0  0  0  0  0  0  0
   40.2560   33.3250   39.0950 N   0  0  0  0  0  0  0  0  0  0  0  0
   40.2090   32.3640   36.8940 N   0  0  0  0  0  0  0  0  0  0  0  0
   38.7590   30.5040   38.0740 H   0  0  0  0  0  0  0  0  0  0  0  0
   40.2240   34.0690   41.0780 H   0  0  0  0  0  0  0  0  0  0  0  0
   41.1310   32.8100   36.6700 H   0  0  0  0  0  0  0  0  0  0  0  0
   39.6400   31.9690   36.1150 H   0  0  0  0  0  0  0  0  0  0  0  0
   38.5150   26.6910   41.9070 C   0  0  0  0  0  0  0  0  0  0  0  0
   39.1360   26.7100   43.1420 C   0  0  0  0  0  0  0  0  0  0  0  0
   39.7990   25.6050   43.6800 C   0  0  0  0  0  0  0  0  0  0  0  0
   39.8340   24.4480   42.9470 C   0  0  0  0  0  0  0  0  0  0  0  0
   39.2200   24.4050   41.7090 C   0  0  0  0  0  0  0  0  0  0  0  0
   38.5670   25.5170   41.1960 C   0  0  0  0  0  0  0  0  0  0  0  0
   39.1450   27.5900   43.7680 H   0  0  0  0  0  0  0  0  0  0  0  0
   40.2780   25.6650   44.6630 H   0  0  0  0  0  0  0  0  0  0  0  0
   40.3300   23.5540   43.3020 H   0  0  0  0  0  0  0  0  0  0  0  0
   39.1880   23.5470   41.0550 H   0  0  0  0  0  0  0  0  0  0  0  0
   37.8930   25.5360   39.8860 C   0  0  0  0  0  0  0  0  0  0  0  0
   38.5560   26.0450   38.7660 C   0  0  0  0  0  0  0  0  0  0  0  0
   39.5630   26.4240   38.8590 H   0  0  0  0  0  0  0  0  0  0  0  0
   37.9380   26.0710   37.5280 C   0  0  0  0  0  0  0  0  0  0  0  0
   38.4410   26.4630   36.6570 H   0  0  0  0  0  0  0  0  0  0  0  0
   36.6340   25.5810   37.4040 C   0  0  0  0  0  3  0  0  0  0  0  0
   36.0300   25.0910   38.5430 C   0  0  0  0  0  3  0  0  0  0  0  0
   36.6440   25.0680   39.7580 N   0  0  0  0  0  0  0  0  0  0  0  0
   41.1580   28.8090   40.7250 N   0  0  0  0  0  0  0  0  0  0  0  0
   39.9920   28.9140   40.8420 C   0  0  0  0  0  0  0  0  0  0  0  0
  1  6  1  0  0  0  0
  2  3  1  0  0  0  0
  2  1  2  0  0  0  0
  3  4  2  0  0  0  0
  4  8  1  0  0  0  0
  4  5  1  0  0  0  0
  5  9  1  0  0  0  0
  6  5  2  0  0  0  0
  6 21  1  0  0  0  0
  7  3  1  0  0  0  0
 10 11  2  0  0  0  0
 10 15  1  0  0  0  0
 11 12  1  0  0  0  0
 12  2  1  0  0  0  0
 12 13  2  0  0  0  0
 14 13  1  0  0  0  0
 14 18  1  0  0  0  0
 15 14  2  0  0  0  0
 16 10  1  0  0  0  0
 17 11  1  0  0  0  0
 19 16  1  0  0  0  0
 20 16  1  0  0  0  0
 21 22  1  0  0  0  0
 22 23  2  0  0  0  0
 22 27  1  0  0  0  0
 23 28  1  0  0  0  0
 24 29  1  0  0  0  0
 24 23  1  0  0  0  0
 25 24  2  0  0  0  0
 26 25  1  0  0  0  0
 26 21  2  0  0  0  0
 30 25  1  0  0  0  0
 31 26  1  0  0  0  0
 32 33  1  0  0  0  0
 32 31  2  0  0  0  0
 34 32  1  0  0  0  0
 35 34  1  0  0  0  0
 36 34  2  0  0  0  0
 36 37  1  0  0  0  0
 37 38  2  0  0  0  0
 38 31  1  0  0  0  0
 39 40  3  0  0  0  0
 40  1  1  0  0  0  0
M  END
>  <minimizedAffinity>
-5.94121218

$$$$

 OpenBabel03252508403D

 40 43  0  0  0  0  0  0  0  0999 V2000
   37.8820   28.9630   40.1800 C   0  0  0  0  0  0  0  0  0  0  0  0
   37.7240   30.3120   40.0660 C   0  0  0  0  0  0  0  0  0  0  0  0
   36.4690   30.8240   40.2470 C   0  0  0  0  0  0  0  0  0  0  0  0
   35.3760   30.0530   40.5340 C   0  0  0  0  0  0  0  0  0  0  0  0
   35.5600   28.6910   40.6440 C   0  0  0  0  0  0  0  0  0  0  0  0
   36.7990   28.1340   40.4710 C   0  0  0  0  0  0  0  0  0  0  0  0
   36.3470   31.8970   40.1550 H   0  0  0  0  0  0  0  0  0  0  0  0
   34.4120   30.5460   40.6620 H   0  0  0  0  0  0  0  0  0  0  0  0
   34.6820   28.0860   40.8740 H   0  0  0  0  0  0  0  0  0  0  0  0
   40.3840   32.2270   38.1800 C   0  0  0  0  0  0  0  0  0  0  0  0
   39.2250   31.4730   38.4370 C   0  0  0  0  0  0  0  0  0  0  0  0
   38.9090   31.0900   39.7600 C   0  0  0  0  0  0  0  0  0  0  0  0
   39.7900   31.5010   40.7100 N   0  0  0  0  0  0  0  0  0  0  0  0
   40.8860   32.2180   40.4390 C   0  0  0  0  0  0  0  0  0  0  0  0
   41.1770   32.5770   39.1820 N   0  0  0  0  0  0  0  0  0  0  0  0
   40.6470   32.5800   36.8390 N   0  0  0  0  0  0  0  0  0  0  0  0
   38.5590   31.1760   37.6260 H   0  0  0  0  0  0  0  0  0  0  0  0
   41.5330   32.5020   41.2680 H   0  0  0  0  0  0  0  0  0  0  0  0
   41.6630   32.6640   36.6000 H   0  0  0  0  0  0  0  0  0  0  0  0
   39.9390   32.7580   36.0930 H   0  0  0  0  0  0  0  0  0  0  0  0
   36.9020   26.6920   40.6060 C   0  0  0  0  0  0  0  0  0  0  0  0
   37.0880   26.2270   41.8950 C   0  0  0  0  0  0  0  0  0  0  0  0
   37.2070   24.8720   42.2070 C   0  0  0  0  0  0  0  0  0  0  0  0
   37.1370   23.9610   41.1870 C   0  0  0  0  0  0  0  0  0  0  0  0
   36.9510   24.4010   39.8900 C   0  0  0  0  0  0  0  0  0  0  0  0
   36.8350   25.7540   39.6040 C   0  0  0  0  0  0  0  0  0  0  0  0
   37.1520   26.8930   42.7430 H   0  0  0  0  0  0  0  0  0  0  0  0
   37.3540   24.5470   43.2430 H   0  0  0  0  0  0  0  0  0  0  0  0
   37.2220   22.8950   41.3560 H   0  0  0  0  0  0  0  0  0  0  0  0
   36.8810   23.7700   39.0170 H   0  0  0  0  0  0  0  0  0  0  0  0
   36.6350   26.2890   38.2450 C   0  0  0  0  0  0  0  0  0  0  0  0
   35.3460   26.5640   37.7850 C   0  0  0  0  0  0  0  0  0  0  0  0
   34.4930   26.3870   38.4230 H   0  0  0  0  0  0  0  0  0  0  0  0
   35.1410   27.0660   36.5110 C   0  0  0  0  0  0  0  0  0  0  0  0
   34.1490   27.2820   36.1460 H   0  0  0  0  0  0  0  0  0  0  0  0
   36.2420   27.2970   35.6810 C   0  0  0  0  0  3  0  0  0  0  0  0
   37.4900   27.0060   36.1900 C   0  0  0  0  0  3  0  0  0  0  0  0
   37.6860   26.5130   37.4430 N   0  0  0  0  0  0  0  0  0  0  0  0
   40.2300   27.8600   39.8580 N   0  0  0  0  0  0  0  0  0  0  0  0
   39.1700   28.3500   40.0040 C   0  0  0  0  0  0  0  0  0  0  0  0
  1  6  1  0  0  0  0
  2  1  2  0  0  0  0
  2  3  1  0  0  0  0
  3  4  2  0  0  0  0
  4  5  1  0  0  0  0
  4  8  1  0  0  0  0
  5  9  1  0  0  0  0
  6 21  1  0  0  0  0
  6  5  2  0  0  0  0
  7  3  1  0  0  0  0
 10 11  2  0  0  0  0
 10 15  1  0  0  0  0
 11 12  1  0  0  0  0
 12  2  1  0  0  0  0
 12 13  2  0  0  0  0
 14 13  1  0  0  0  0
 14 18  1  0  0  0  0
 15 14  2  0  0  0  0
 16 10  1  0  0  0  0
 17 11  1  0  0  0  0
 19 16  1  0  0  0  0
 20 16  1  0  0  0  0
 21 22  1  0  0  0  0
 22 23  2  0  0  0  0
 22 27  1  0  0  0  0
 23 28  1  0  0  0  0
 24 29  1  0  0  0  0
 24 23  1  0  0  0  0
 25 24  2  0  0  0  0
 26 25  1  0  0  0  0
 26 21  2  0  0  0  0
 30 25  1  0  0  0  0
 31 26  1  0  0  0  0
 32 31  1  0  0  0  0
 32 33  1  0  0  0  0
 34 32  2  0  0  0  0
 35 34  1  0  0  0  0
 36 37  2  0  0  0  0
 36 34  1  0  0  0  0
 37 38  1  0  0  0  0
 38 31  2  0  0  0  0
 39 40  3  0  0  0  0
 40  1  1  0  0  0  0
M  END
>  <minimizedAffinity>
-5.8932004

$$$$
