
 OpenBabel03252501453D

 22 23  0  0  0  0  0  0  0  0999 V2000
   45.2110   34.0710   40.7760 C   0  0  0  0  0  0  0  0  0  0  0  0
   45.5800   34.8510   41.8690 C   0  0  0  0  0  0  0  0  0  0  0  0
   44.5690   35.4990   42.5630 C   0  0  0  0  0  0  0  0  0  0  0  0
   43.2770   35.3540   42.1610 N   0  0  0  0  0  0  0  0  0  0  0  0
   42.9610   34.5830   41.0870 C   0  0  0  0  0  0  0  0  0  0  0  0
   43.9300   33.9510   40.4070 N   0  0  0  0  0  0  0  0  0  0  0  0
   46.0320   33.5700   40.2450 H   0  0  0  0  0  0  0  0  0  0  0  0
   44.7460   36.1300   43.4280 H   0  0  0  0  0  0  0  0  0  0  0  0
   41.5710   34.4360   40.6670 C   0  0  0  0  0  0  0  0  0  0  0  0
   40.7230   33.6200   41.3890 C   0  0  0  0  0  0  0  0  0  0  0  0
   41.0980   33.0900   42.2710 H   0  0  0  0  0  0  0  0  0  0  0  0
   39.3890   33.4320   41.0490 C   0  0  0  0  0  0  0  0  0  0  0  0
   38.7350   32.7830   41.6320 H   0  0  0  0  0  0  0  0  0  0  0  0
   38.9220   34.1030   39.9350 C   0  0  0  0  0  0  0  0  0  0  0  0
   39.7740   34.9260   39.2020 C   0  0  0  0  0  0  0  0  0  0  0  0
   41.0550   35.0640   39.5880 N   0  0  0  0  0  0  0  0  0  0  0  0
   46.9550   35.0070   42.2980 C   0  0  0  0  0  0  0  0  0  0  0  0
   48.0110   35.1260   41.5180 C   0  0  0  0  0  0  0  0  0  0  0  0
   49.4000   35.2840   42.0680 C   0  0  0  0  0  0  0  0  0  0  0  0
   49.7740   34.2570   42.2740 H   0  0  0  0  0  0  0  0  0  0  0  0
   49.4090   35.9000   42.9870 H   0  0  0  0  0  0  0  0  0  0  0  0
   50.0550   35.7140   41.2820 H   0  0  0  0  0  0  0  0  0  0  0  0
  1  2  1  0  0  0  0
  2 17  1  0  0  0  0
  2  3  2  0  0  0  0
  3  8  1  0  0  0  0
  4  3  1  0  0  0  0
  5  4  2  0  0  0  0
  6  1  2  0  0  0  0
  6  5  1  0  0  0  0
  7  1  1  0  0  0  0
  9  5  1  0  0  0  0
  9 10  1  0  0  0  0
 10 11  1  0  0  0  0
 12 10  2  0  0  0  0
 12 13  1  0  0  0  0
 14 12  1  0  0  0  0
 15 16  1  0  0  0  0
 15 14  2  0  0  0  0
 16  9  2  0  0  0  0
 18 19  1  0  0  0  0
 18 17  2  0  0  0  0
 19 20  1  0  0  0  0
 19 21  1  0  0  0  0
 22 19  1  0  0  0  0
M  END
>  <minimizedAffinity>
-4.95607424

>  <minimizedRMSD>
7.27731705

$$$$
