
 OpenBabel03252509213D

 24 26  0  0  0  0  0  0  0  0999 V2000
   45.3000   36.1130   43.1610 C   0  0  0  0  0  0  0  0  0  0  0  0
   45.8280   34.8270   42.9500 C   0  0  0  0  0  0  0  0  0  0  0  0
   45.6860   33.9550   44.0050 C   0  0  0  0  0  0  0  0  0  0  0  0
   45.0600   34.3780   45.1630 N   0  0  0  0  0  0  0  0  0  0  0  0
   44.5710   35.6210   45.3120 C   0  0  0  0  0  0  0  0  0  0  0  0
   44.7020   36.4810   44.2890 N   0  0  0  0  0  0  0  0  0  0  0  0
   45.3080   36.9280   42.4750 H   0  0  0  0  0  0  0  0  0  0  0  0
   44.1330   35.7020   46.2970 H   0  0  0  0  0  0  0  0  0  0  0  0
   46.1010   32.5120   43.8480 C   0  0  0  0  0  0  0  0  0  0  0  0
   47.4460   32.2640   44.5470 C   0  0  0  0  0  0  0  0  0  0  0  0
   46.0860   31.6660   45.0200 C   0  0  0  0  0  0  0  0  0  0  0  0
   46.2230   32.1010   42.8270 H   0  0  0  0  0  0  0  0  0  0  0  0
   47.8720   33.0190   45.2030 H   0  0  0  0  0  0  0  0  0  0  0  0
   48.1420   31.5250   44.1180 H   0  0  0  0  0  0  0  0  0  0  0  0
   45.7120   32.0720   45.9850 H   0  0  0  0  0  0  0  0  0  0  0  0
   46.0320   30.5530   44.9810 H   0  0  0  0  0  0  0  0  0  0  0  0
   46.4690   34.5290   41.6870 C   0  0  0  0  0  0  0  0  0  0  0  0
   45.7700   33.8570   40.7130 C   0  0  0  0  0  0  0  0  0  0  0  0
   44.7490   33.5100   40.7790 H   0  0  0  0  0  0  0  0  0  0  0  0
   46.2710   33.5130   39.4760 C   0  0  0  0  0  0  0  0  0  0  0  0
   45.7390   32.9840   38.6950 H   0  0  0  0  0  0  0  0  0  0  0  0
   47.5670   33.8460   39.1460 C   0  0  0  0  0  3  0  0  0  0  0  0
   48.2640   34.5180   40.1230 C   0  0  0  0  0  3  0  0  0  0  0  0
   47.7060   34.8110   41.2870 N   0  0  0  0  0  0  0  0  0  0  0  0
  1  6  1  0  0  0  0
  2  1  2  0  0  0  0
  2  3  1  0  0  0  0
  3  4  2  0  0  0  0
  4  5  1  0  0  0  0
  5  8  1  0  0  0  0
  6  5  2  0  0  0  0
  7  1  1  0  0  0  0
  9  3  1  0  0  0  0
  9 10  1  0  0  0  0
  9 11  1  0  0  0  0
 10 11  1  0  0  0  0
 10 13  1  0  0  0  0
 11 15  1  0  0  0  0
 12  9  1  0  0  0  0
 14 10  1  0  0  0  0
 16 11  1  0  0  0  0
 17  2  1  0  0  0  0
 18 19  1  0  0  0  0
 18 17  2  0  0  0  0
 20 18  1  0  0  0  0
 21 20  1  0  0  0  0
 22 20  2  0  0  0  0
 22 23  1  0  0  0  0
 23 24  2  0  0  0  0
 24 17  1  0  0  0  0
M  END
>  <minimizedAffinity>
-4.32883072

>  <minimizedRMSD>
3.56434536

$$$$
