
 OpenBabel03242521353D

 30 33  0  0  0  0  0  0  0  0999 V2000
   38.8180   26.7890   43.4360 C   0  0  0  0  0  0  0  0  0  0  0  0
   39.0160   28.1720   43.1500 C   0  0  0  0  0  0  0  0  0  0  0  0
   38.4870   28.6520   41.9540 C   0  0  0  0  0  0  0  0  0  0  0  0
   37.8140   27.8200   41.1080 N   0  0  0  0  0  0  0  0  0  0  0  0
   37.6590   26.5010   41.4420 C   0  0  0  0  0  0  0  0  0  0  0  0
   38.1550   26.0100   42.5840 N   0  0  0  0  0  0  0  0  0  0  0  0
   39.2230   26.4140   44.3560 H   0  0  0  0  0  0  0  0  0  0  0  0
   39.5470   28.8510   43.8070 H   0  0  0  0  0  0  0  0  0  0  0  0
   39.8390   30.6570   41.7490 C   0  0  0  0  0  0  0  0  0  0  0  0
   38.6150   30.0440   41.5360 C   0  0  0  0  0  0  0  0  0  0  0  0
   37.6140   30.7760   40.9530 C   0  0  0  0  0  0  0  0  0  0  0  0
   37.7800   32.0970   40.5710 C   0  0  0  0  0  0  0  0  0  0  0  0
   36.9360   32.9880   39.9880 N   0  0  0  0  0  0  0  0  0  0  0  0
   37.6280   34.1600   39.8350 C   0  0  0  0  0  0  0  0  0  0  0  0
   38.8880   33.9730   40.3260 N   0  0  0  0  0  0  0  0  0  0  0  0
   38.9890   32.7140   40.7780 C   0  0  0  0  0  0  0  0  0  0  0  0
   40.0190   31.9930   41.3680 C   0  0  0  0  0  0  0  0  0  0  0  0
   40.6630   30.0990   42.2150 H   0  0  0  0  0  0  0  0  0  0  0  0
   36.6580   30.2950   40.7870 H   0  0  0  0  0  0  0  0  0  0  0  0
   35.9410   32.8490   39.6950 H   0  0  0  0  0  0  0  0  0  0  0  0
   37.3010   35.1000   39.4120 H   0  0  0  0  0  0  0  0  0  0  0  0
   40.9880   32.4400   41.5490 H   0  0  0  0  0  0  0  0  0  0  0  0
   36.9320   25.6390   40.5130 C   0  0  0  0  0  0  0  0  0  0  0  0
   36.6570   24.3400   40.8700 C   0  0  0  0  0  0  0  0  0  0  0  0
   36.9670   23.9480   41.8190 H   0  0  0  0  0  0  0  0  0  0  0  0
   35.9780   23.4780   40.0390 C   0  0  0  0  0  0  0  0  0  0  0  0
   35.7580   22.4430   40.3230 H   0  0  0  0  0  0  0  0  0  0  0  0
   35.5680   23.9740   38.7980 C   0  0  0  0  0  3  0  0  0  0  0  0
   35.8600   25.2980   38.4610 C   0  0  0  0  0  3  0  0  0  0  0  0
   36.5370   26.1110   39.3220 N   0  0  0  0  0  0  0  0  0  0  0  0
  1  7  1  0  0  0  0
  2  1  1  0  0  0  0
  2  8  1  0  0  0  0
  3  2  2  0  0  0  0
  4  5  2  0  0  0  0
  4  3  1  0  0  0  0
  5  6  1  0  0  0  0
  6  1  2  0  0  0  0
  9 18  1  0  0  0  0
 10  9  1  0  0  0  0
 10  3  1  0  0  0  0
 11 10  2  0  0  0  0
 12 16  2  0  0  0  0
 12 11  1  0  0  0  0
 13 12  1  0  0  0  0
 14 13  1  0  0  0  0
 14 15  2  0  0  0  0
 15 16  1  0  0  0  0
 16 17  1  0  0  0  0
 17 22  1  0  0  0  0
 17  9  2  0  0  0  0
 19 11  1  0  0  0  0
 20 13  1  0  0  0  0
 21 14  1  0  0  0  0
 23 24  1  0  0  0  0
 23  5  1  0  0  0  0
 24 25  1  0  0  0  0
 26 27  1  0  0  0  0
 26 24  2  0  0  0  0
 28 26  1  0  0  0  0
 29 28  2  0  0  0  0
 29 30  1  0  0  0  0
 30 23  2  0  0  0  0
M  END
>  <minimizedAffinity>
-5.69240952

$$$$

 OpenBabel03242521353D

 30 33  0  0  0  0  0  0  0  0999 V2000
   32.7590   26.9760   35.8810 C   0  0  0  0  0  0  0  0  0  0  0  0
   33.7940   26.9150   36.8600 C   0  0  0  0  0  0  0  0  0  0  0  0
   33.9870   28.0480   37.6470 C   0  0  0  0  0  0  0  0  0  0  0  0
   33.2110   29.1570   37.4720 N   0  0  0  0  0  0  0  0  0  0  0  0
   32.2330   29.1500   36.5130 C   0  0  0  0  0  0  0  0  0  0  0  0
   32.0230   28.0760   35.7430 N   0  0  0  0  0  0  0  0  0  0  0  0
   32.6060   26.1060   35.2730 H   0  0  0  0  0  0  0  0  0  0  0  0
   34.4230   26.0460   37.0170 H   0  0  0  0  0  0  0  0  0  0  0  0
   36.0110   27.1700   38.6560 C   0  0  0  0  0  0  0  0  0  0  0  0
   35.0090   28.1250   38.6850 C   0  0  0  0  0  0  0  0  0  0  0  0
   35.0400   29.0700   39.6770 C   0  0  0  0  0  0  0  0  0  0  0  0
   36.0310   29.1050   40.6450 C   0  0  0  0  0  0  0  0  0  0  0  0
   36.2470   29.9390   41.6960 N   0  0  0  0  0  0  0  0  0  0  0  0
   37.3840   29.5080   42.3260 C   0  0  0  0  0  0  0  0  0  0  0  0
   37.8510   28.4160   41.6550 N   0  0  0  0  0  0  0  0  0  0  0  0
   37.0300   28.1620   40.6250 C   0  0  0  0  0  0  0  0  0  0  0  0
   37.0190   27.1940   39.6290 C   0  0  0  0  0  0  0  0  0  0  0  0
   36.0150   26.3970   37.8750 H   0  0  0  0  0  0  0  0  0  0  0  0
   34.2560   29.8160   39.6980 H   0  0  0  0  0  0  0  0  0  0  0  0
   35.6800   30.7640   42.0010 H   0  0  0  0  0  0  0  0  0  0  0  0
   37.8780   29.9100   43.2000 H   0  0  0  0  0  0  0  0  0  0  0  0
   37.7850   26.4320   39.5760 H   0  0  0  0  0  0  0  0  0  0  0  0
   31.4200   30.3530   36.3530 C   0  0  0  0  0  0  0  0  0  0  0  0
   31.4320   31.0220   35.1530 C   0  0  0  0  0  0  0  0  0  0  0  0
   32.0280   30.6780   34.3310 H   0  0  0  0  0  0  0  0  0  0  0  0
   30.6880   32.1620   34.9410 C   0  0  0  0  0  0  0  0  0  0  0  0
   30.6970   32.6960   33.9840 H   0  0  0  0  0  0  0  0  0  0  0  0
   29.9060   32.6240   36.0020 C   0  0  0  0  0  3  0  0  0  0  0  0
   29.9120   31.9240   37.2110 C   0  0  0  0  0  3  0  0  0  0  0  0
   30.6680   30.8000   37.3700 N   0  0  0  0  0  0  0  0  0  0  0  0
  1  2  1  0  0  0  0
  2  8  1  0  0  0  0
  2  3  2  0  0  0  0
  3 10  1  0  0  0  0
  4  3  1  0  0  0  0
  5  4  2  0  0  0  0
  6  1  2  0  0  0  0
  6  5  1  0  0  0  0
  7  1  1  0  0  0  0
  9 10  2  0  0  0  0
  9 17  1  0  0  0  0
 10 11  1  0  0  0  0
 11 19  1  0  0  0  0
 11 12  2  0  0  0  0
 12 13  1  0  0  0  0
 13 20  1  0  0  0  0
 13 14  1  0  0  0  0
 14 21  1  0  0  0  0
 15 14  2  0  0  0  0
 16 12  1  0  0  0  0
 16 15  1  0  0  0  0
 17 16  2  0  0  0  0
 18  9  1  0  0  0  0
 22 17  1  0  0  0  0
 23  5  1  0  0  0  0
 23 30  1  0  0  0  0
 24 23  2  0  0  0  0
 25 24  1  0  0  0  0
 26 24  1  0  0  0  0
 26 28  2  0  0  0  0
 27 26  1  0  0  0  0
 28 29  1  0  0  0  0
 29 30  2  0  0  0  0
M  END
>  <minimizedAffinity>
-5.5163846

$$$$

 OpenBabel03242521353D

 30 33  0  0  0  0  0  0  0  0999 V2000
   34.5220   28.8790   35.5610 C   0  0  0  0  0  0  0  0  0  0  0  0
   35.3750   28.5760   36.6620 C   0  0  0  0  0  0  0  0  0  0  0  0
   34.8100   28.6340   37.9340 C   0  0  0  0  0  0  0  0  0  0  0  0
   33.4980   28.9690   38.0970 N   0  0  0  0  0  0  0  0  0  0  0  0
   32.7320   29.2490   36.9970 C   0  0  0  0  0  0  0  0  0  0  0  0
   33.2460   29.2010   35.7620 N   0  0  0  0  0  0  0  0  0  0  0  0
   34.9520   28.8360   34.5790 H   0  0  0  0  0  0  0  0  0  0  0  0
   36.4200   28.3070   36.5570 H   0  0  0  0  0  0  0  0  0  0  0  0
   36.1930   27.1150   39.2260 C   0  0  0  0  0  0  0  0  0  0  0  0
   35.5660   28.3480   39.1480 C   0  0  0  0  0  0  0  0  0  0  0  0
   35.6930   29.2100   40.2060 C   0  0  0  0  0  0  0  0  0  0  0  0
   36.4210   28.8960   41.3420 C   0  0  0  0  0  0  0  0  0  0  0  0
   36.6720   29.5910   42.4830 N   0  0  0  0  0  0  0  0  0  0  0  0
   37.4550   28.7960   43.2760 C   0  0  0  0  0  0  0  0  0  0  0  0
   37.6750   27.6240   42.6130 N   0  0  0  0  0  0  0  0  0  0  0  0
   37.0470   27.6760   41.4290 C   0  0  0  0  0  0  0  0  0  0  0  0
   36.9320   26.7860   40.3700 C   0  0  0  0  0  0  0  0  0  0  0  0
   36.1100   26.4000   38.3960 H   0  0  0  0  0  0  0  0  0  0  0  0
   35.2020   30.1730   40.1430 H   0  0  0  0  0  0  0  0  0  0  0  0
   36.3490   30.5510   42.7460 H   0  0  0  0  0  0  0  0  0  0  0  0
   37.8610   28.9950   44.2590 H   0  0  0  0  0  0  0  0  0  0  0  0
   37.4080   25.8150   40.3960 H   0  0  0  0  0  0  0  0  0  0  0  0
   31.3310   29.6040   37.2070 C   0  0  0  0  0  0  0  0  0  0  0  0
   30.9050   29.9610   38.4640 C   0  0  0  0  0  0  0  0  0  0  0  0
   31.5830   29.9820   39.2950 H   0  0  0  0  0  0  0  0  0  0  0  0
   29.5980   30.3050   38.7270 C   0  0  0  0  0  0  0  0  0  0  0  0
   29.2580   30.5890   39.7290 H   0  0  0  0  0  0  0  0  0  0  0  0
   28.7010   30.2810   37.6560 C   0  0  0  0  0  3  0  0  0  0  0  0
   29.1610   29.9150   36.3880 C   0  0  0  0  0  3  0  0  0  0  0  0
   30.4670   29.5830   36.1820 N   0  0  0  0  0  0  0  0  0  0  0  0
  1  6  2  0  0  0  0
  1  2  1  0  0  0  0
  2  3  2  0  0  0  0
  3  4  1  0  0  0  0
  3 10  1  0  0  0  0
  5 23  1  0  0  0  0
  5  4  2  0  0  0  0
  6  5  1  0  0  0  0
  7  1  1  0  0  0  0
  8  2  1  0  0  0  0
  9 17  1  0  0  0  0
 10  9  2  0  0  0  0
 10 11  1  0  0  0  0
 11 12  2  0  0  0  0
 12 16  1  0  0  0  0
 12 13  1  0  0  0  0
 13 20  1  0  0  0  0
 13 14  1  0  0  0  0
 14 21  1  0  0  0  0
 15 14  2  0  0  0  0
 16 15  1  0  0  0  0
 17 22  1  0  0  0  0
 17 16  2  0  0  0  0
 18  9  1  0  0  0  0
 19 11  1  0  0  0  0
 23 24  1  0  0  0  0
 24 26  2  0  0  0  0
 24 25  1  0  0  0  0
 26 27  1  0  0  0  0
 28 26  1  0  0  0  0
 29 28  2  0  0  0  0
 30 29  1  0  0  0  0
 30 23  2  0  0  0  0
M  END
>  <minimizedAffinity>
-5.47145844

$$$$

 OpenBabel03242521353D

 30 33  0  0  0  0  0  0  0  0999 V2000
   37.9260   28.1920   43.6790 C   0  0  0  0  0  0  0  0  0  0  0  0
   37.5340   27.0430   42.9310 C   0  0  0  0  0  0  0  0  0  0  0  0
   37.2900   27.2270   41.5720 C   0  0  0  0  0  0  0  0  0  0  0  0
   37.4250   28.4590   41.0020 N   0  0  0  0  0  0  0  0  0  0  0  0
   37.8050   29.5220   41.7770 C   0  0  0  0  0  0  0  0  0  0  0  0
   38.0480   29.3770   43.0850 N   0  0  0  0  0  0  0  0  0  0  0  0
   38.1160   28.0560   44.7260 H   0  0  0  0  0  0  0  0  0  0  0  0
   37.4210   26.0550   43.3630 H   0  0  0  0  0  0  0  0  0  0  0  0
   36.8680   24.8630   41.2240 C   0  0  0  0  0  0  0  0  0  0  0  0
   36.8820   26.1410   40.6890 C   0  0  0  0  0  0  0  0  0  0  0  0
   36.5180   26.3000   39.3770 C   0  0  0  0  0  0  0  0  0  0  0  0
   36.1380   25.2380   38.5730 C   0  0  0  0  0  0  0  0  0  0  0  0
   35.7470   25.1760   37.2730 N   0  0  0  0  0  0  0  0  0  0  0  0
   35.4870   23.8610   36.9920 C   0  0  0  0  0  0  0  0  0  0  0  0
   35.7210   23.1330   38.1220 N   0  0  0  0  0  0  0  0  0  0  0  0
   36.1200   23.9670   39.0940 C   0  0  0  0  0  0  0  0  0  0  0  0
   36.4850   23.7810   40.4210 C   0  0  0  0  0  0  0  0  0  0  0  0
   37.1540   24.7000   42.2720 H   0  0  0  0  0  0  0  0  0  0  0  0
   36.5310   27.2990   38.9600 H   0  0  0  0  0  0  0  0  0  0  0  0
   35.6490   25.9560   36.5830 H   0  0  0  0  0  0  0  0  0  0  0  0
   35.1530   23.4100   36.0670 H   0  0  0  0  0  0  0  0  0  0  0  0
   36.4850   22.7980   40.8720 H   0  0  0  0  0  0  0  0  0  0  0  0
   37.9400   30.8270   41.1340 C   0  0  0  0  0  0  0  0  0  0  0  0
   36.9680   31.2560   40.2630 C   0  0  0  0  0  0  0  0  0  0  0  0
   36.1110   30.6490   40.0450 H   0  0  0  0  0  0  0  0  0  0  0  0
   37.0380   32.4740   39.6250 C   0  0  0  0  0  0  0  0  0  0  0  0
   36.2630   32.8170   38.9300 H   0  0  0  0  0  0  0  0  0  0  0  0
   38.1490   33.2770   39.8980 C   0  0  0  0  0  3  0  0  0  0  0  0
   39.1220   32.8170   40.7880 C   0  0  0  0  0  3  0  0  0  0  0  0
   39.0050   31.6000   41.3930 N   0  0  0  0  0  0  0  0  0  0  0  0
  1  7  1  0  0  0  0
  2  8  1  0  0  0  0
  2  1  2  0  0  0  0
  3  2  1  0  0  0  0
  4  3  2  0  0  0  0
  4  5  1  0  0  0  0
  5  6  2  0  0  0  0
  6  1  1  0  0  0  0
  9 18  1  0  0  0  0
 10  9  1  0  0  0  0
 10  3  1  0  0  0  0
 11 10  2  0  0  0  0
 12 16  2  0  0  0  0
 12 11  1  0  0  0  0
 13 12  1  0  0  0  0
 14 13  1  0  0  0  0
 14 15  2  0  0  0  0
 15 16  1  0  0  0  0
 16 17  1  0  0  0  0
 17 22  1  0  0  0  0
 17  9  2  0  0  0  0
 19 11  1  0  0  0  0
 20 13  1  0  0  0  0
 21 14  1  0  0  0  0
 23 30  1  0  0  0  0
 23  5  1  0  0  0  0
 24 23  2  0  0  0  0
 25 24  1  0  0  0  0
 26 28  2  0  0  0  0
 26 24  1  0  0  0  0
 27 26  1  0  0  0  0
 28 29  1  0  0  0  0
 29 30  2  0  0  0  0
M  END
>  <minimizedAffinity>
-5.46116781

$$$$

 OpenBabel03242521353D

 30 33  0  0  0  0  0  0  0  0999 V2000
   36.9490   32.5750   39.9300 C   0  0  0  0  0  0  0  0  0  0  0  0
   38.2700   33.0270   39.6390 C   0  0  0  0  0  0  0  0  0  0  0  0
   39.3210   32.2030   40.0330 C   0  0  0  0  0  0  0  0  0  0  0  0
   39.0770   31.0200   40.6680 N   0  0  0  0  0  0  0  0  0  0  0  0
   37.7840   30.6440   40.9180 C   0  0  0  0  0  0  0  0  0  0  0  0
   36.7530   31.4150   40.5510 N   0  0  0  0  0  0  0  0  0  0  0  0
   36.1360   33.2070   39.6290 H   0  0  0  0  0  0  0  0  0  0  0  0
   38.4880   33.9620   39.1350 H   0  0  0  0  0  0  0  0  0  0  0  0
   41.5340   32.6700   40.9130 C   0  0  0  0  0  0  0  0  0  0  0  0
   40.7210   32.5400   39.7990 C   0  0  0  0  0  0  0  0  0  0  0  0
   41.2780   32.7350   38.5620 C   0  0  0  0  0  0  0  0  0  0  0  0
   42.6140   33.0550   38.3860 C   0  0  0  0  0  0  0  0  0  0  0  0
   43.3560   33.2860   37.2710 N   0  0  0  0  0  0  0  0  0  0  0  0
   44.6320   33.5610   37.6840 C   0  0  0  0  0  0  0  0  0  0  0  0
   44.6580   33.4950   39.0470 N   0  0  0  0  0  0  0  0  0  0  0  0
   43.4280   33.1860   39.4850 C   0  0  0  0  0  0  0  0  0  0  0  0
   42.8860   32.9930   40.7490 C   0  0  0  0  0  0  0  0  0  0  0  0
   41.1190   32.5210   41.9200 H   0  0  0  0  0  0  0  0  0  0  0  0
   40.6410   32.6330   37.6920 H   0  0  0  0  0  0  0  0  0  0  0  0
   43.0510   33.2680   36.2700 H   0  0  0  0  0  0  0  0  0  0  0  0
   45.5080   33.7960   37.0950 H   0  0  0  0  0  0  0  0  0  0  0  0
   43.4910   33.0870   41.6410 H   0  0  0  0  0  0  0  0  0  0  0  0
   37.5580   29.3720   41.6000 C   0  0  0  0  0  0  0  0  0  0  0  0
   37.7590   29.2870   42.9570 C   0  0  0  0  0  0  0  0  0  0  0  0
   38.0790   30.1380   43.5250 H   0  0  0  0  0  0  0  0  0  0  0  0
   37.5640   28.1170   43.6560 C   0  0  0  0  0  0  0  0  0  0  0  0
   37.7230   28.0490   44.7380 H   0  0  0  0  0  0  0  0  0  0  0  0
   37.1470   26.9980   42.9300 C   0  0  0  0  0  3  0  0  0  0  0  0
   36.9500   27.1130   41.5520 C   0  0  0  0  0  3  0  0  0  0  0  0
   37.1580   28.2960   40.9060 N   0  0  0  0  0  0  0  0  0  0  0  0
  1  6  1  0  0  0  0
  2  1  2  0  0  0  0
  2  3  1  0  0  0  0
  3  4  2  0  0  0  0
  4  5  1  0  0  0  0
  5 23  1  0  0  0  0
  6  5  2  0  0  0  0
  7  1  1  0  0  0  0
  8  2  1  0  0  0  0
  9 18  1  0  0  0  0
 10  3  1  0  0  0  0
 10  9  2  0  0  0  0
 11 10  1  0  0  0  0
 12 11  2  0  0  0  0
 12 16  1  0  0  0  0
 13 14  1  0  0  0  0
 13 12  1  0  0  0  0
 14 15  2  0  0  0  0
 15 16  1  0  0  0  0
 16 17  2  0  0  0  0
 17  9  1  0  0  0  0
 17 22  1  0  0  0  0
 19 11  1  0  0  0  0
 20 13  1  0  0  0  0
 21 14  1  0  0  0  0
 23 24  1  0  0  0  0
 24 25  1  0  0  0  0
 24 26  2  0  0  0  0
 26 27  1  0  0  0  0
 28 26  1  0  0  0  0
 29 28  2  0  0  0  0
 30 29  1  0  0  0  0
 30 23  2  0  0  0  0
M  END
>  <minimizedAffinity>
-5.33121347

$$$$

 OpenBabel03242521353D

 30 33  0  0  0  0  0  0  0  0999 V2000
   36.7120   30.2400   41.6190 C   0  0  0  0  0  0  0  0  0  0  0  0
   35.9660   30.3000   40.4050 C   0  0  0  0  0  0  0  0  0  0  0  0
   35.8760   29.1260   39.6600 C   0  0  0  0  0  0  0  0  0  0  0  0
   36.4820   27.9820   40.0900 N   0  0  0  0  0  0  0  0  0  0  0  0
   37.1840   27.9920   41.2660 C   0  0  0  0  0  0  0  0  0  0  0  0
   37.2880   29.1040   42.0040 N   0  0  0  0  0  0  0  0  0  0  0  0
   36.7840   31.1410   42.1960 H   0  0  0  0  0  0  0  0  0  0  0  0
   35.4760   31.1970   40.0440 H   0  0  0  0  0  0  0  0  0  0  0  0
   35.8710   29.2370   37.2360 C   0  0  0  0  0  0  0  0  0  0  0  0
   35.1460   29.0440   38.4000 C   0  0  0  0  0  0  0  0  0  0  0  0
   33.8030   28.7910   38.2950 C   0  0  0  0  0  0  0  0  0  0  0  0
   33.1490   28.7220   37.0750 C   0  0  0  0  0  0  0  0  0  0  0  0
   31.8510   28.4870   36.7510 N   0  0  0  0  0  0  0  0  0  0  0  0
   31.7600   28.5330   35.3850 C   0  0  0  0  0  0  0  0  0  0  0  0
   33.0040   28.7940   34.8890 N   0  0  0  0  0  0  0  0  0  0  0  0
   33.8600   28.9110   35.9150 C   0  0  0  0  0  0  0  0  0  0  0  0
   35.2220   29.1690   35.9970 C   0  0  0  0  0  0  0  0  0  0  0  0
   36.9500   29.4420   37.2850 H   0  0  0  0  0  0  0  0  0  0  0  0
   33.2370   28.6410   39.2060 H   0  0  0  0  0  0  0  0  0  0  0  0
   31.0420   28.3020   37.3890 H   0  0  0  0  0  0  0  0  0  0  0  0
   30.8960   28.3960   34.7500 H   0  0  0  0  0  0  0  0  0  0  0  0
   35.8200   29.3250   35.1090 H   0  0  0  0  0  0  0  0  0  0  0  0
   37.8200   26.7490   41.6970 C   0  0  0  0  0  0  0  0  0  0  0  0
   37.1910   25.5500   41.4610 C   0  0  0  0  0  0  0  0  0  0  0  0
   36.2400   25.5100   40.9660 H   0  0  0  0  0  0  0  0  0  0  0  0
   37.7380   24.3460   41.8430 C   0  0  0  0  0  0  0  0  0  0  0  0
   37.2370   23.3900   41.6550 H   0  0  0  0  0  0  0  0  0  0  0  0
   38.9760   24.3810   42.4890 C   0  0  0  0  0  3  0  0  0  0  0  0
   39.5940   25.6130   42.7160 C   0  0  0  0  0  3  0  0  0  0  0  0
   39.0080   26.7790   42.3170 N   0  0  0  0  0  0  0  0  0  0  0  0
  1  6  1  0  0  0  0
  1  7  1  0  0  0  0
  2  1  2  0  0  0  0
  3  4  2  0  0  0  0
  3  2  1  0  0  0  0
  4  5  1  0  0  0  0
  5 23  1  0  0  0  0
  5  6  2  0  0  0  0
  8  2  1  0  0  0  0
  9 18  1  0  0  0  0
  9 10  1  0  0  0  0
 10  3  1  0  0  0  0
 11 10  2  0  0  0  0
 11 19  1  0  0  0  0
 12 11  1  0  0  0  0
 13 12  1  0  0  0  0
 13 20  1  0  0  0  0
 14 13  1  0  0  0  0
 15 14  2  0  0  0  0
 15 16  1  0  0  0  0
 16 17  1  0  0  0  0
 16 12  2  0  0  0  0
 17  9  2  0  0  0  0
 21 14  1  0  0  0  0
 22 17  1  0  0  0  0
 23 30  1  0  0  0  0
 24 23  2  0  0  0  0
 24 26  1  0  0  0  0
 25 24  1  0  0  0  0
 26 28  2  0  0  0  0
 27 26  1  0  0  0  0
 28 29  1  0  0  0  0
 30 29  2  0  0  0  0
M  END
>  <minimizedAffinity>
-5.31879234

$$$$

 OpenBabel03242521353D

 30 33  0  0  0  0  0  0  0  0999 V2000
   35.5280   28.9770   38.8360 C   0  0  0  0  0  0  0  0  0  0  0  0
   36.4100   30.0900   38.7090 C   0  0  0  0  0  0  0  0  0  0  0  0
   37.6520   29.9860   39.3300 C   0  0  0  0  0  0  0  0  0  0  0  0
   37.9900   28.8620   40.0250 N   0  0  0  0  0  0  0  0  0  0  0  0
   37.0960   27.8270   40.1090 C   0  0  0  0  0  0  0  0  0  0  0  0
   35.8960   27.8970   39.5230 N   0  0  0  0  0  0  0  0  0  0  0  0
   34.5700   29.0510   38.3600 H   0  0  0  0  0  0  0  0  0  0  0  0
   36.1630   30.9930   38.1620 H   0  0  0  0  0  0  0  0  0  0  0  0
   38.8850   31.7490   40.4530 C   0  0  0  0  0  0  0  0  0  0  0  0
   38.6510   31.0470   39.2810 C   0  0  0  0  0  0  0  0  0  0  0  0
   39.3660   31.3920   38.1640 C   0  0  0  0  0  0  0  0  0  0  0  0
   40.3060   32.4090   38.1620 C   0  0  0  0  0  0  0  0  0  0  0  0
   41.1110   32.9040   37.1850 N   0  0  0  0  0  0  0  0  0  0  0  0
   41.8480   33.9150   37.7410 C   0  0  0  0  0  0  0  0  0  0  0  0
   41.4880   34.0280   39.0530 N   0  0  0  0  0  0  0  0  0  0  0  0
   40.5460   33.1110   39.3190 C   0  0  0  0  0  0  0  0  0  0  0  0
   39.8330   32.7790   40.4640 C   0  0  0  0  0  0  0  0  0  0  0  0
   38.3290   31.4980   41.3660 H   0  0  0  0  0  0  0  0  0  0  0  0
   39.1820   30.8430   37.2490 H   0  0  0  0  0  0  0  0  0  0  0  0
   41.1850   32.6010   36.1860 H   0  0  0  0  0  0  0  0  0  0  0  0
   42.5970   34.5490   37.2860 H   0  0  0  0  0  0  0  0  0  0  0  0
   39.9900   33.3060   41.3970 H   0  0  0  0  0  0  0  0  0  0  0  0
   37.4910   26.6380   40.8610 C   0  0  0  0  0  0  0  0  0  0  0  0
   36.8400   25.4490   40.6360 C   0  0  0  0  0  0  0  0  0  0  0  0
   36.0460   25.3780   39.9180 H   0  0  0  0  0  0  0  0  0  0  0  0
   37.1650   24.2950   41.3130 C   0  0  0  0  0  0  0  0  0  0  0  0
   36.6460   23.3460   41.1330 H   0  0  0  0  0  0  0  0  0  0  0  0
   38.1970   24.3700   42.2510 C   0  0  0  0  0  3  0  0  0  0  0  0
   38.8420   25.5920   42.4600 C   0  0  0  0  0  3  0  0  0  0  0  0
   38.4810   26.7070   41.7630 N   0  0  0  0  0  0  0  0  0  0  0  0
  1  6  1  0  0  0  0
  2  1  2  0  0  0  0
  2  3  1  0  0  0  0
  3  4  2  0  0  0  0
  4  5  1  0  0  0  0
  5 23  1  0  0  0  0
  6  5  2  0  0  0  0
  7  1  1  0  0  0  0
  8  2  1  0  0  0  0
  9 17  1  0  0  0  0
  9 18  1  0  0  0  0
 10  3  1  0  0  0  0
 10  9  2  0  0  0  0
 11 10  1  0  0  0  0
 12 11  2  0  0  0  0
 12 16  1  0  0  0  0
 13 14  1  0  0  0  0
 13 12  1  0  0  0  0
 14 15  2  0  0  0  0
 15 16  1  0  0  0  0
 16 17  2  0  0  0  0
 17 22  1  0  0  0  0
 19 11  1  0  0  0  0
 20 13  1  0  0  0  0
 21 14  1  0  0  0  0
 23 30  1  0  0  0  0
 24 23  2  0  0  0  0
 24 26  1  0  0  0  0
 25 24  1  0  0  0  0
 26 28  2  0  0  0  0
 27 26  1  0  0  0  0
 28 29  1  0  0  0  0
 30 29  2  0  0  0  0
M  END
>  <minimizedAffinity>
-5.28513384

$$$$

 OpenBabel03242521353D

 30 33  0  0  0  0  0  0  0  0999 V2000
   37.4310   28.4090   43.5170 C   0  0  0  0  0  0  0  0  0  0  0  0
   37.6560   27.0810   43.0490 C   0  0  0  0  0  0  0  0  0  0  0  0
   37.8040   26.9120   41.6750 C   0  0  0  0  0  0  0  0  0  0  0  0
   37.7340   27.9820   40.8310 N   0  0  0  0  0  0  0  0  0  0  0  0
   37.5160   29.2320   41.3450 C   0  0  0  0  0  0  0  0  0  0  0  0
   37.3700   29.4270   42.6610 N   0  0  0  0  0  0  0  0  0  0  0  0
   37.3170   28.5450   44.5750 H   0  0  0  0  0  0  0  0  0  0  0  0
   37.7150   26.2160   43.7000 H   0  0  0  0  0  0  0  0  0  0  0  0
   37.2810   24.5470   41.5240 C   0  0  0  0  0  0  0  0  0  0  0  0
   38.0380   25.6100   41.0590 C   0  0  0  0  0  0  0  0  0  0  0  0
   38.9490   25.3730   40.0630 C   0  0  0  0  0  0  0  0  0  0  0  0
   39.1390   24.1190   39.5070 C   0  0  0  0  0  0  0  0  0  0  0  0
   39.9700   23.6730   38.5290 N   0  0  0  0  0  0  0  0  0  0  0  0
   39.7370   22.3320   38.3800 C   0  0  0  0  0  0  0  0  0  0  0  0
   38.7650   21.9720   39.2670 N   0  0  0  0  0  0  0  0  0  0  0  0
   38.3930   23.0580   39.9600 C   0  0  0  0  0  0  0  0  0  0  0  0
   37.4640   23.2730   40.9700 C   0  0  0  0  0  0  0  0  0  0  0  0
   36.5430   24.7020   42.3220 H   0  0  0  0  0  0  0  0  0  0  0  0
   39.5390   26.2060   39.7010 H   0  0  0  0  0  0  0  0  0  0  0  0
   40.6710   24.2150   37.9710 H   0  0  0  0  0  0  0  0  0  0  0  0
   40.2000   21.6260   37.7030 H   0  0  0  0  0  0  0  0  0  0  0  0
   36.8560   22.4670   41.3570 H   0  0  0  0  0  0  0  0  0  0  0  0
   37.4470   30.3550   40.4130 C   0  0  0  0  0  0  0  0  0  0  0  0
   37.3250   30.1100   39.0660 C   0  0  0  0  0  0  0  0  0  0  0  0
   37.2800   29.1080   38.6860 H   0  0  0  0  0  0  0  0  0  0  0  0
   37.2560   31.1250   38.1380 C   0  0  0  0  0  0  0  0  0  0  0  0
   37.1580   30.9300   37.0640 H   0  0  0  0  0  0  0  0  0  0  0  0
   37.3140   32.4360   38.6170 C   0  0  0  0  0  3  0  0  0  0  0  0
   37.4380   32.6570   39.9910 C   0  0  0  0  0  3  0  0  0  0  0  0
   37.5030   31.6150   40.8690 N   0  0  0  0  0  0  0  0  0  0  0  0
  1  7  1  0  0  0  0
  2  1  1  0  0  0  0
  2  8  1  0  0  0  0
  3  2  2  0  0  0  0
  4  5  2  0  0  0  0
  4  3  1  0  0  0  0
  5  6  1  0  0  0  0
  6  1  2  0  0  0  0
  9 18  1  0  0  0  0
 10  9  1  0  0  0  0
 10  3  1  0  0  0  0
 11 10  2  0  0  0  0
 12 16  2  0  0  0  0
 12 11  1  0  0  0  0
 13 12  1  0  0  0  0
 14 13  1  0  0  0  0
 14 15  2  0  0  0  0
 15 16  1  0  0  0  0
 16 17  1  0  0  0  0
 17 22  1  0  0  0  0
 17  9  2  0  0  0  0
 19 11  1  0  0  0  0
 20 13  1  0  0  0  0
 21 14  1  0  0  0  0
 23 30  1  0  0  0  0
 23  5  1  0  0  0  0
 24 23  2  0  0  0  0
 25 24  1  0  0  0  0
 26 28  2  0  0  0  0
 26 24  1  0  0  0  0
 27 26  1  0  0  0  0
 28 29  1  0  0  0  0
 29 30  2  0  0  0  0
M  END
>  <minimizedAffinity>
-5.22842407

$$$$

 OpenBabel03242521353D

 30 33  0  0  0  0  0  0  0  0999 V2000
   36.0850   30.4760   40.9720 C   0  0  0  0  0  0  0  0  0  0  0  0
   37.1240   31.4140   40.6970 C   0  0  0  0  0  0  0  0  0  0  0  0
   38.4310   30.9330   40.7220 C   0  0  0  0  0  0  0  0  0  0  0  0
   38.6850   29.6210   40.9990 N   0  0  0  0  0  0  0  0  0  0  0  0
   37.6410   28.7730   41.2530 C   0  0  0  0  0  0  0  0  0  0  0  0
   36.3740   29.2040   41.2370 N   0  0  0  0  0  0  0  0  0  0  0  0
   35.0770   30.8410   40.9540 H   0  0  0  0  0  0  0  0  0  0  0  0
   36.9470   32.4600   40.4750 H   0  0  0  0  0  0  0  0  0  0  0  0
   39.7430   32.2590   39.1690 C   0  0  0  0  0  0  0  0  0  0  0  0
   39.5900   31.7800   40.4600 C   0  0  0  0  0  0  0  0  0  0  0  0
   40.5270   32.1270   41.3980 C   0  0  0  0  0  0  0  0  0  0  0  0
   41.6140   32.9340   41.1040 C   0  0  0  0  0  0  0  0  0  0  0  0
   42.6400   33.3930   41.8680 N   0  0  0  0  0  0  0  0  0  0  0  0
   43.4360   34.1580   41.0590 C   0  0  0  0  0  0  0  0  0  0  0  0
   42.8900   34.1610   39.8090 N   0  0  0  0  0  0  0  0  0  0  0  0
   41.7750   33.4150   39.8270 C   0  0  0  0  0  0  0  0  0  0  0  0
   40.8380   33.0760   38.8600 C   0  0  0  0  0  0  0  0  0  0  0  0
   39.0100   31.9990   38.3930 H   0  0  0  0  0  0  0  0  0  0  0  0
   40.4060   31.7520   42.4060 H   0  0  0  0  0  0  0  0  0  0  0  0
   42.8250   33.2190   42.8840 H   0  0  0  0  0  0  0  0  0  0  0  0
   44.3460   34.6920   41.2990 H   0  0  0  0  0  0  0  0  0  0  0  0
   40.9250   33.4320   37.8420 H   0  0  0  0  0  0  0  0  0  0  0  0
   37.9480   27.3740   41.5460 C   0  0  0  0  0  0  0  0  0  0  0  0
   36.9270   26.5090   41.8600 C   0  0  0  0  0  0  0  0  0  0  0  0
   35.9080   26.8420   41.8950 H   0  0  0  0  0  0  0  0  0  0  0  0
   37.1520   25.1810   42.1450 C   0  0  0  0  0  0  0  0  0  0  0  0
   36.3380   24.4910   42.3960 H   0  0  0  0  0  0  0  0  0  0  0  0
   38.4740   24.7310   42.1040 C   0  0  0  0  0  3  0  0  0  0  0  0
   39.4920   25.6320   41.7820 C   0  0  0  0  0  3  0  0  0  0  0  0
   39.2150   26.9390   41.5070 N   0  0  0  0  0  0  0  0  0  0  0  0
  1  6  1  0  0  0  0
  2  3  1  0  0  0  0
  2  1  2  0  0  0  0
  3  4  2  0  0  0  0
  4  5  1  0  0  0  0
  5 23  1  0  0  0  0
  6  5  2  0  0  0  0
  7  1  1  0  0  0  0
  8  2  1  0  0  0  0
  9 10  1  0  0  0  0
 10  3  1  0  0  0  0
 10 11  2  0  0  0  0
 11 19  1  0  0  0  0
 12 11  1  0  0  0  0
 12 13  1  0  0  0  0
 13 20  1  0  0  0  0
 14 21  1  0  0  0  0
 14 13  1  0  0  0  0
 15 16  1  0  0  0  0
 15 14  2  0  0  0  0
 16 12  2  0  0  0  0
 17  9  2  0  0  0  0
 17 16  1  0  0  0  0
 18  9  1  0  0  0  0
 22 17  1  0  0  0  0
 23 24  1  0  0  0  0
 24 25  1  0  0  0  0
 24 26  2  0  0  0  0
 26 27  1  0  0  0  0
 28 26  1  0  0  0  0
 29 28  2  0  0  0  0
 30 23  2  0  0  0  0
 30 29  1  0  0  0  0
M  END
>  <minimizedAffinity>
-5.20276785

$$$$
