
 OpenBabel03252508383D

 40 43  0  0  0  0  0  0  0  0999 V2000
   45.1430   33.9510   40.6980 C   0  0  0  0  0  0  0  0  0  0  0  0
   44.1000   33.6360   39.8790 C   0  0  0  0  0  0  0  0  0  0  0  0
   44.3920   33.1430   38.6370 C   0  0  0  0  0  0  0  0  0  0  0  0
   45.6700   32.9550   38.1820 C   0  0  0  0  0  0  0  0  0  0  0  0
   46.7080   33.2820   39.0290 C   0  0  0  0  0  0  0  0  0  0  0  0
   46.4620   33.7780   40.2820 C   0  0  0  0  0  0  0  0  0  0  0  0
   43.5610   32.8930   37.9880 H   0  0  0  0  0  0  0  0  0  0  0  0
   45.8100   32.5570   37.1770 H   0  0  0  0  0  0  0  0  0  0  0  0
   47.7210   33.1280   38.6570 H   0  0  0  0  0  0  0  0  0  0  0  0
   40.8150   35.2680   40.7920 C   0  0  0  0  0  0  0  0  0  0  0  0
   42.1100   35.0970   40.2730 C   0  0  0  0  0  0  0  0  0  0  0  0
   42.7640   33.8510   40.4000 C   0  0  0  0  0  0  0  0  0  0  0  0
   42.0560   32.8850   41.0400 N   0  0  0  0  0  0  0  0  0  0  0  0
   40.8230   33.0730   41.5250 C   0  0  0  0  0  0  0  0  0  0  0  0
   40.2110   34.2580   41.4000 N   0  0  0  0  0  0  0  0  0  0  0  0
   40.2110   36.5350   40.6360 N   0  0  0  0  0  0  0  0  0  0  0  0
   42.6240   35.9170   39.7680 H   0  0  0  0  0  0  0  0  0  0  0  0
   40.3330   32.2380   42.0240 H   0  0  0  0  0  0  0  0  0  0  0  0
   39.5480   36.8020   41.4010 H   0  0  0  0  0  0  0  0  0  0  0  0
   40.3660   37.2030   39.8490 H   0  0  0  0  0  0  0  0  0  0  0  0
   47.6150   34.0940   41.1060 C   0  0  0  0  0  0  0  0  0  0  0  0
   48.1340   35.3650   40.9390 C   0  0  0  0  0  0  0  0  0  0  0  0
   49.2400   35.8360   41.6480 C   0  0  0  0  0  0  0  0  0  0  0  0
   49.8390   34.9990   42.5520 C   0  0  0  0  0  0  0  0  0  0  0  0
   49.3380   33.7230   42.7360 C   0  0  0  0  0  0  0  0  0  0  0  0
   48.2370   33.2770   42.0190 C   0  0  0  0  0  0  0  0  0  0  0  0
   47.7090   36.0730   40.2430 H   0  0  0  0  0  0  0  0  0  0  0  0
   49.6180   36.8520   41.4840 H   0  0  0  0  0  0  0  0  0  0  0  0
   50.6990   35.2980   43.1360 H   0  0  0  0  0  0  0  0  0  0  0  0
   49.7320   32.9880   43.4210 H   0  0  0  0  0  0  0  0  0  0  0  0
   47.6550   31.9320   42.1680 C   0  0  0  0  0  0  0  0  0  0  0  0
   48.0590   30.8980   41.3210 C   0  0  0  0  0  0  0  0  0  0  0  0
   48.7980   31.0830   40.5560 H   0  0  0  0  0  0  0  0  0  0  0  0
   47.5220   29.6280   41.4470 C   0  0  0  0  0  0  0  0  0  0  0  0
   47.8270   28.8220   40.7980 H   0  0  0  0  0  0  0  0  0  0  0  0
   46.5650   29.3850   42.4370 C   0  0  0  0  0  3  0  0  0  0  0  0
   46.2060   30.4440   43.2450 C   0  0  0  0  0  3  0  0  0  0  0  0
   46.7370   31.6900   43.1150 N   0  0  0  0  0  0  0  0  0  0  0  0
   44.7440   34.9050   43.0980 N   0  0  0  0  0  0  0  0  0  0  0  0
   44.9170   34.4740   42.0180 C   0  0  0  0  0  0  0  0  0  0  0  0
  1 40  1  0  0  0  0
  2 12  1  0  0  0  0
  2  1  2  0  0  0  0
  3  2  1  0  0  0  0
  4  3  2  0  0  0  0
  4  5  1  0  0  0  0
  5  6  2  0  0  0  0
  6  1  1  0  0  0  0
  6 21  1  0  0  0  0
  7  3  1  0  0  0  0
  8  4  1  0  0  0  0
  9  5  1  0  0  0  0
 10 15  1  0  0  0  0
 11 12  1  0  0  0  0
 11 10  2  0  0  0  0
 12 13  2  0  0  0  0
 13 14  1  0  0  0  0
 14 18  1  0  0  0  0
 15 14  2  0  0  0  0
 16 10  1  0  0  0  0
 16 19  1  0  0  0  0
 17 11  1  0  0  0  0
 20 16  1  0  0  0  0
 21 26  1  0  0  0  0
 22 21  2  0  0  0  0
 22 23  1  0  0  0  0
 23 24  2  0  0  0  0
 24 25  1  0  0  0  0
 24 29  1  0  0  0  0
 25 30  1  0  0  0  0
 26 31  1  0  0  0  0
 26 25  2  0  0  0  0
 27 22  1  0  0  0  0
 28 23  1  0  0  0  0
 31 38  1  0  0  0  0
 32 34  1  0  0  0  0
 32 31  2  0  0  0  0
 33 32  1  0  0  0  0
 34 36  2  0  0  0  0
 35 34  1  0  0  0  0
 36 37  1  0  0  0  0
 38 37  2  0  0  0  0
 40 39  3  0  0  0  0
M  END
>  <minimizedAffinity>
-5.94448853

>  <minimizedRMSD>
0.167634204

$$$$
