
 OpenBabel03252508383D

 40 43  0  0  0  0  0  0  0  0999 V2000
   45.2050   33.9530   40.6800 C   0  0  0  0  0  0  0  0  0  0  0  0
   44.1630   33.6340   39.8610 C   0  0  0  0  0  0  0  0  0  0  0  0
   44.4580   33.1470   38.6170 C   0  0  0  0  0  0  0  0  0  0  0  0
   45.7360   32.9670   38.1610 C   0  0  0  0  0  0  0  0  0  0  0  0
   46.7730   33.2970   39.0080 C   0  0  0  0  0  0  0  0  0  0  0  0
   46.5250   33.7880   40.2620 C   0  0  0  0  0  0  0  0  0  0  0  0
   43.6270   32.8940   37.9680 H   0  0  0  0  0  0  0  0  0  0  0  0
   45.8770   32.5730   37.1550 H   0  0  0  0  0  0  0  0  0  0  0  0
   47.7870   33.1500   38.6350 H   0  0  0  0  0  0  0  0  0  0  0  0
   40.8660   35.2430   40.7730 C   0  0  0  0  0  0  0  0  0  0  0  0
   42.1620   35.0800   40.2520 C   0  0  0  0  0  0  0  0  0  0  0  0
   42.8270   33.8410   40.3840 C   0  0  0  0  0  0  0  0  0  0  0  0
   42.1280   32.8720   41.0310 N   0  0  0  0  0  0  0  0  0  0  0  0
   40.8950   33.0520   41.5180 C   0  0  0  0  0  0  0  0  0  0  0  0
   40.2720   34.2300   41.3870 N   0  0  0  0  0  0  0  0  0  0  0  0
   40.2510   36.5030   40.6110 N   0  0  0  0  0  0  0  0  0  0  0  0
   42.6680   35.9020   39.7420 H   0  0  0  0  0  0  0  0  0  0  0  0
   40.4130   32.2150   42.0220 H   0  0  0  0  0  0  0  0  0  0  0  0
   39.5880   36.7690   41.3760 H   0  0  0  0  0  0  0  0  0  0  0  0
   40.3990   37.1680   39.8200 H   0  0  0  0  0  0  0  0  0  0  0  0
   47.6770   34.1090   41.0860 C   0  0  0  0  0  0  0  0  0  0  0  0
   48.1560   35.4000   40.9620 C   0  0  0  0  0  0  0  0  0  0  0  0
   49.2550   35.8780   41.6780 C   0  0  0  0  0  0  0  0  0  0  0  0
   49.8880   35.0260   42.5430 C   0  0  0  0  0  0  0  0  0  0  0  0
   49.4280   33.7300   42.6840 C   0  0  0  0  0  0  0  0  0  0  0  0
   48.3330   33.2770   41.9620 C   0  0  0  0  0  0  0  0  0  0  0  0
   47.7020   36.1200   40.2970 H   0  0  0  0  0  0  0  0  0  0  0  0
   49.6000   36.9100   41.5480 H   0  0  0  0  0  0  0  0  0  0  0  0
   50.7460   35.3300   43.1290 H   0  0  0  0  0  0  0  0  0  0  0  0
   49.8520   32.9820   43.3360 H   0  0  0  0  0  0  0  0  0  0  0  0
   47.7940   31.9100   42.0660 C   0  0  0  0  0  0  0  0  0  0  0  0
   46.8470   31.6050   43.0470 C   0  0  0  0  0  0  0  0  0  0  0  0
   46.5090   32.3700   43.7280 H   0  0  0  0  0  0  0  0  0  0  0  0
   46.3300   30.3270   43.1580 C   0  0  0  0  0  0  0  0  0  0  0  0
   45.5980   30.0800   43.9110 H   0  0  0  0  0  0  0  0  0  0  0  0
   46.7660   29.3330   42.2760 C   0  0  0  0  0  3  0  0  0  0  0  0
   47.7030   29.6920   41.3300 C   0  0  0  0  0  3  0  0  0  0  0  0
   48.2080   30.9520   41.2250 N   0  0  0  0  0  0  0  0  0  0  0  0
   44.8030   34.8990   43.0830 N   0  0  0  0  0  0  0  0  0  0  0  0
   44.9770   34.4710   42.0010 C   0  0  0  0  0  0  0  0  0  0  0  0
  1 40  1  0  0  0  0
  2 12  1  0  0  0  0
  2  1  2  0  0  0  0
  3  2  1  0  0  0  0
  4  3  2  0  0  0  0
  4  5  1  0  0  0  0
  5  6  2  0  0  0  0
  6  1  1  0  0  0  0
  6 21  1  0  0  0  0
  7  3  1  0  0  0  0
  8  4  1  0  0  0  0
  9  5  1  0  0  0  0
 10 15  1  0  0  0  0
 11 12  1  0  0  0  0
 11 10  2  0  0  0  0
 12 13  2  0  0  0  0
 13 14  1  0  0  0  0
 14 18  1  0  0  0  0
 15 14  2  0  0  0  0
 16 10  1  0  0  0  0
 16 19  1  0  0  0  0
 17 11  1  0  0  0  0
 20 16  1  0  0  0  0
 21 26  1  0  0  0  0
 22 21  2  0  0  0  0
 22 23  1  0  0  0  0
 23 24  2  0  0  0  0
 24 25  1  0  0  0  0
 24 29  1  0  0  0  0
 25 30  1  0  0  0  0
 26 31  1  0  0  0  0
 26 25  2  0  0  0  0
 27 22  1  0  0  0  0
 28 23  1  0  0  0  0
 31 32  1  0  0  0  0
 32 34  2  0  0  0  0
 32 33  1  0  0  0  0
 34 35  1  0  0  0  0
 36 34  1  0  0  0  0
 37 36  2  0  0  0  0
 38 37  1  0  0  0  0
 38 31  2  0  0  0  0
 40 39  3  0  0  0  0
M  END
>  <minimizedAffinity>
-5.9537673

>  <minimizedRMSD>
0.238913685

$$$$
