
 OpenBabel03252508323D

 31 33  0  0  1  0  0  0  0  0999 V2000
   44.1970   34.2610   42.1950 N   0  0  0  0  0  0  0  0  0  0  0  0
   44.8030   33.6850   41.0370 C   0  0  1  0  0  0  0  0  0  0  0  0
   44.0850   33.9240   39.7640 C   0  0  0  0  0  0  0  0  0  0  0  0
   42.6930   34.0290   39.7960 N   0  0  0  0  0  0  0  0  0  0  0  0
   42.0820   34.4610   40.9930 C   0  0  0  0  0  0  0  0  0  0  0  0
   43.0840   35.1200   41.9220 C   0  0  0  0  0  0  0  0  0  0  0  0
   44.8980   32.5750   41.2270 H   0  0  0  0  0  0  0  0  0  0  0  0
   44.5180   34.8120   39.2580 H   0  0  0  0  0  0  0  0  0  0  0  0
   44.3500   33.0640   39.0820 H   0  0  0  0  0  0  0  0  0  0  0  0
   42.3500   34.6200   39.0010 H   0  0  0  0  0  0  0  0  0  0  0  0
   41.2690   35.2290   40.8580 H   0  0  0  0  0  0  0  0  0  0  0  0
   41.6370   33.6030   41.5170 H   0  0  0  0  0  0  0  0  0  0  0  0
   43.4000   36.0560   41.3710 H   0  0  0  0  0  0  0  0  0  0  0  0
   42.5160   35.4810   42.7710 H   0  0  0  0  0  0  0  0  0  0  0  0
   44.6700   34.9470   44.4250 C   0  0  0  0  0  0  0  0  0  0  0  0
   44.7340   33.9460   43.4610 C   0  0  0  0  0  0  0  0  0  0  0  0
   45.3210   32.7480   43.8250 C   0  0  0  0  0  0  0  0  0  0  0  0
   45.8180   32.5490   45.0720 N   0  0  0  0  0  0  0  0  0  0  0  0
   45.7400   33.5510   45.9970 C   0  0  0  0  0  0  0  0  0  0  0  0
   45.1780   34.7120   45.6670 N   0  0  0  0  0  0  0  0  0  0  0  0
   44.2600   35.9400   44.3480 H   0  0  0  0  0  0  0  0  0  0  0  0
   45.3710   31.9780   43.0950 H   0  0  0  0  0  0  0  0  0  0  0  0
   46.1510   33.3360   46.9710 H   0  0  0  0  0  0  0  0  0  0  0  0
   46.1920   34.1800   40.8410 C   0  0  0  0  0  0  0  0  0  0  0  0
   46.8240   34.9600   41.7890 C   0  0  0  0  0  0  0  0  0  0  0  0
   46.3460   35.2350   42.7020 H   0  0  0  0  0  0  0  0  0  0  0  0
   48.1110   35.4530   41.6570 C   0  0  0  0  0  0  0  0  0  0  0  0
   48.5900   36.0620   42.4090 H   0  0  0  0  0  0  0  0  0  0  0  0
   48.8300   35.1670   40.5270 C   0  0  0  0  0  3  0  0  0  0  0  0
   48.2000   34.3890   39.5800 C   0  0  0  0  0  3  0  0  0  0  0  0
   46.9690   33.9370   39.7440 N   0  0  0  0  0  0  0  0  0  0  0  0
  1 16  1  0  0  0  0
  2  7  1  1  0  0  0
  2  1  1  0  0  0  0
  3  4  1  0  0  0  0
  3  2  1  0  0  0  0
  4  5  1  0  0  0  0
  5 12  1  0  0  0  0
  5  6  1  0  0  0  0
  6  1  1  0  0  0  0
  6 14  1  0  0  0  0
  8  3  1  0  0  0  0
  9  3  1  0  0  0  0
 10  4  1  0  0  0  0
 11  5  1  0  0  0  0
 13  6  1  0  0  0  0
 15 20  1  0  0  0  0
 16 17  1  0  0  0  0
 16 15  2  0  0  0  0
 17 18  2  0  0  0  0
 18 19  1  0  0  0  0
 19 23  1  0  0  0  0
 20 19  2  0  0  0  0
 21 15  1  0  0  0  0
 22 17  1  0  0  0  0
 24  2  1  0  0  0  0
 24 25  1  0  0  0  0
 25 26  1  0  0  0  0
 27 25  2  0  0  0  0
 27 28  1  0  0  0  0
 29 27  1  0  0  0  0
 30 31  1  0  0  0  0
 30 29  2  0  0  0  0
 31 24  2  0  0  0  0
M  END
>  <minimizedAffinity>
-4.74398136

>  <minimizedRMSD>
1.13949478

$$$$
