
 OpenBabel03242510063D

 17 18  0  0  0  0  0  0  0  0999 V2000
   36.2600   28.1210   41.7420 C   0  0  0  0  0  0  0  0  0  0  0  0
   36.9420   27.6630   42.8840 C   0  0  0  0  0  0  0  0  0  0  0  0
   37.9610   28.4790   43.4020 C   0  0  0  0  0  0  0  0  0  0  0  0
   38.2380   29.6710   42.7750 N   0  0  0  0  0  0  0  0  0  0  0  0
   37.5520   30.0580   41.6850 C   0  0  0  0  0  0  0  0  0  0  0  0
   36.5760   29.3040   41.1670 N   0  0  0  0  0  0  0  0  0  0  0  0
   35.4640   27.5690   41.2720 H   0  0  0  0  0  0  0  0  0  0  0  0
   36.6330   26.7200   43.2790 H   0  0  0  0  0  0  0  0  0  0  0  0
   38.4640   28.1190   44.2630 H   0  0  0  0  0  0  0  0  0  0  0  0
   37.8860   31.3340   41.0550 C   0  0  0  0  0  0  0  0  0  0  0  0
   37.0340   31.9040   40.1300 C   0  0  0  0  0  0  0  0  0  0  0  0
   36.1130   31.3400   39.9120 H   0  0  0  0  0  0  0  0  0  0  0  0
   37.2540   33.1000   39.4810 C   0  0  0  0  0  0  0  0  0  0  0  0
   36.5710   33.5120   38.7680 H   0  0  0  0  0  0  0  0  0  0  0  0
   38.4540   33.7230   39.8390 C   0  0  0  0  0  3  0  0  0  0  0  0
   39.3330   33.1690   40.7710 C   0  0  0  0  0  3  0  0  0  0  0  0
   39.0290   31.9770   41.3650 N   0  0  0  0  0  0  0  0  0  0  0  0
  1  2  1  0  0  0  0
  2  8  1  0  0  0  0
  2  3  2  0  0  0  0
  3  9  1  0  0  0  0
  4  3  1  0  0  0  0
  5  4  2  0  0  0  0
  6  5  1  0  0  0  0
  6  1  2  0  0  0  0
  7  1  1  0  0  0  0
 10 17  1  0  0  0  0
 10  5  1  0  0  0  0
 11 10  2  0  0  0  0
 12 11  1  0  0  0  0
 13 15  2  0  0  0  0
 13 11  1  0  0  0  0
 14 13  1  0  0  0  0
 15 16  1  0  0  0  0
 16 17  2  0  0  0  0
M  END
>  <minimizedAffinity>
-4.0841136

$$$$

 OpenBabel03242510063D

 17 18  0  0  0  0  0  0  0  0999 V2000
   39.3410   32.9940   40.7780 C   0  0  0  0  0  0  0  0  0  0  0  0
   38.4400   33.6280   39.9020 C   0  0  0  0  0  0  0  0  0  0  0  0
   37.2210   32.9800   39.6430 C   0  0  0  0  0  0  0  0  0  0  0  0
   36.9700   31.7730   40.2520 N   0  0  0  0  0  0  0  0  0  0  0  0
   37.8700   31.2140   41.0820 C   0  0  0  0  0  0  0  0  0  0  0  0
   39.0390   31.8060   41.3490 N   0  0  0  0  0  0  0  0  0  0  0  0
   40.2970   33.4110   41.0390 H   0  0  0  0  0  0  0  0  0  0  0  0
   38.7500   34.5640   39.4920 H   0  0  0  0  0  0  0  0  0  0  0  0
   36.5550   33.4720   38.9810 H   0  0  0  0  0  0  0  0  0  0  0  0
   37.5540   29.9290   41.7040 C   0  0  0  0  0  0  0  0  0  0  0  0
   38.2520   29.4990   42.8150 C   0  0  0  0  0  0  0  0  0  0  0  0
   39.0370   30.1770   43.1840 H   0  0  0  0  0  0  0  0  0  0  0  0
   38.0340   28.3080   43.4760 C   0  0  0  0  0  0  0  0  0  0  0  0
   38.5950   28.0060   44.3350 H   0  0  0  0  0  0  0  0  0  0  0  0
   37.0140   27.5320   42.9170 C   0  0  0  0  0  3  0  0  0  0  0  0
   36.2930   27.9430   41.7940 C   0  0  0  0  0  3  0  0  0  0  0  0
   36.5800   29.1420   41.2060 N   0  0  0  0  0  0  0  0  0  0  0  0
  1  7  1  0  0  0  0
  1  6  1  0  0  0  0
  2  1  2  0  0  0  0
  3  2  1  0  0  0  0
  3  4  2  0  0  0  0
  4  5  1  0  0  0  0
  5  6  2  0  0  0  0
  5 10  1  0  0  0  0
  8  2  1  0  0  0  0
  9  3  1  0  0  0  0
 10 11  1  0  0  0  0
 11 12  1  0  0  0  0
 11 13  2  0  0  0  0
 13 14  1  0  0  0  0
 15 13  1  0  0  0  0
 16 15  2  0  0  0  0
 17 10  2  0  0  0  0
 17 16  1  0  0  0  0
M  END
>  <minimizedAffinity>
-4.02516031

$$$$

 OpenBabel03242510063D

 17 18  0  0  0  0  0  0  0  0999 V2000
   36.4520   27.4410   42.4370 C   0  0  0  0  0  0  0  0  0  0  0  0
   37.1750   27.6890   43.6180 C   0  0  0  0  0  0  0  0  0  0  0  0
   37.9370   28.8670   43.6780 C   0  0  0  0  0  0  0  0  0  0  0  0
   37.9390   29.7110   42.5920 N   0  0  0  0  0  0  0  0  0  0  0  0
   37.2270   29.4230   41.4880 C   0  0  0  0  0  0  0  0  0  0  0  0
   36.4910   28.3090   41.4000 N   0  0  0  0  0  0  0  0  0  0  0  0
   35.8390   26.5680   42.2950 H   0  0  0  0  0  0  0  0  0  0  0  0
   37.0920   26.9570   44.3910 H   0  0  0  0  0  0  0  0  0  0  0  0
   38.4750   29.0380   44.5750 H   0  0  0  0  0  0  0  0  0  0  0  0
   37.2630   30.3530   40.3610 C   0  0  0  0  0  0  0  0  0  0  0  0
   37.2080   31.7160   40.5760 C   0  0  0  0  0  0  0  0  0  0  0  0
   37.1380   32.0360   41.6270 H   0  0  0  0  0  0  0  0  0  0  0  0
   37.2350   32.6760   39.5860 C   0  0  0  0  0  0  0  0  0  0  0  0
   37.1910   33.7250   39.7890 H   0  0  0  0  0  0  0  0  0  0  0  0
   37.3250   32.1500   38.2930 C   0  0  0  0  0  3  0  0  0  0  0  0
   37.3820   30.7770   38.0490 C   0  0  0  0  0  3  0  0  0  0  0  0
   37.3500   29.9000   39.0950 N   0  0  0  0  0  0  0  0  0  0  0  0
  1  2  1  0  0  0  0
  2  3  2  0  0  0  0
  2  8  1  0  0  0  0
  3  9  1  0  0  0  0
  4  3  1  0  0  0  0
  5  4  2  0  0  0  0
  6  5  1  0  0  0  0
  6  1  2  0  0  0  0
  7  1  1  0  0  0  0
 10 11  1  0  0  0  0
 10  5  1  0  0  0  0
 11 12  1  0  0  0  0
 13 14  1  0  0  0  0
 13 11  2  0  0  0  0
 15 13  1  0  0  0  0
 16 15  2  0  0  0  0
 16 17  1  0  0  0  0
 17 10  2  0  0  0  0
M  END
>  <minimizedAffinity>
-3.84582019

$$$$

 OpenBabel03242510063D

 17 18  0  0  0  0  0  0  0  0999 V2000
   37.4430   30.5880   38.0300 C   0  0  0  0  0  0  0  0  0  0  0  0
   37.3630   31.9840   38.1880 C   0  0  0  0  0  0  0  0  0  0  0  0
   37.2480   32.4840   39.4960 C   0  0  0  0  0  0  0  0  0  0  0  0
   37.2200   31.5960   40.5440 N   0  0  0  0  0  0  0  0  0  0  0  0
   37.3010   30.2690   40.3330 C   0  0  0  0  0  0  0  0  0  0  0  0
   37.4110   29.7620   39.1000 N   0  0  0  0  0  0  0  0  0  0  0  0
   37.5330   30.1100   37.0700 H   0  0  0  0  0  0  0  0  0  0  0  0
   37.3950   32.5690   37.2950 H   0  0  0  0  0  0  0  0  0  0  0  0
   37.1890   33.5380   39.5960 H   0  0  0  0  0  0  0  0  0  0  0  0
   37.2660   29.3670   41.4830 C   0  0  0  0  0  0  0  0  0  0  0  0
   36.5380   28.1950   41.4320 C   0  0  0  0  0  0  0  0  0  0  0  0
   36.0040   28.0000   40.4890 H   0  0  0  0  0  0  0  0  0  0  0  0
   36.4390   27.2780   42.4570 C   0  0  0  0  0  0  0  0  0  0  0  0
   35.8650   26.3790   42.3830 H   0  0  0  0  0  0  0  0  0  0  0  0
   37.1590   27.6330   43.6020 C   0  0  0  0  0  3  0  0  0  0  0  0
   37.9030   28.8120   43.6800 C   0  0  0  0  0  3  0  0  0  0  0  0
   37.9420   29.6610   42.6110 N   0  0  0  0  0  0  0  0  0  0  0  0
  1  2  2  0  0  0  0
  1  6  1  0  0  0  0
  2  3  1  0  0  0  0
  3  9  1  0  0  0  0
  3  4  2  0  0  0  0
  5  4  1  0  0  0  0
  5 10  1  0  0  0  0
  6  5  2  0  0  0  0
  7  1  1  0  0  0  0
  8  2  1  0  0  0  0
 10 17  1  0  0  0  0
 11 10  2  0  0  0  0
 11 13  1  0  0  0  0
 12 11  1  0  0  0  0
 13 15  2  0  0  0  0
 14 13  1  0  0  0  0
 15 16  1  0  0  0  0
 17 16  2  0  0  0  0
M  END
>  <minimizedAffinity>
-3.83671546

$$$$

 OpenBabel03242510063D

 17 18  0  0  0  0  0  0  0  0999 V2000
   37.7890   28.3980   43.5390 C   0  0  0  0  0  0  0  0  0  0  0  0
   36.8080   27.5780   42.9530 C   0  0  0  0  0  0  0  0  0  0  0  0
   36.2470   28.0020   41.7370 C   0  0  0  0  0  0  0  0  0  0  0  0
   36.6790   29.1850   41.1860 N   0  0  0  0  0  0  0  0  0  0  0  0
   37.6220   29.9300   41.7910 C   0  0  0  0  0  0  0  0  0  0  0  0
   38.1760   29.5530   42.9490 N   0  0  0  0  0  0  0  0  0  0  0  0
   38.2780   28.1590   44.4670 H   0  0  0  0  0  0  0  0  0  0  0  0
   36.5580   26.6820   43.4790 H   0  0  0  0  0  0  0  0  0  0  0  0
   35.5090   27.3710   41.3110 H   0  0  0  0  0  0  0  0  0  0  0  0
   38.0460   31.1800   41.1630 C   0  0  0  0  0  0  0  0  0  0  0  0
   39.3540   31.6090   41.2700 C   0  0  0  0  0  0  0  0  0  0  0  0
   40.0300   30.9570   41.8460 H   0  0  0  0  0  0  0  0  0  0  0  0
   39.8560   32.7680   40.7170 C   0  0  0  0  0  0  0  0  0  0  0  0
   40.8760   33.0710   40.8210 H   0  0  0  0  0  0  0  0  0  0  0  0
   38.9060   33.5120   40.0100 C   0  0  0  0  0  3  0  0  0  0  0  0
   37.5780   33.1010   39.8860 C   0  0  0  0  0  3  0  0  0  0  0  0
   37.1720   31.9340   40.4690 N   0  0  0  0  0  0  0  0  0  0  0  0
  1  7  1  0  0  0  0
  2  8  1  0  0  0  0
  2  1  1  0  0  0  0
  3  2  2  0  0  0  0
  4  3  1  0  0  0  0
  4  5  2  0  0  0  0
  5  6  1  0  0  0  0
  6  1  2  0  0  0  0
  9  3  1  0  0  0  0
 10 11  1  0  0  0  0
 10  5  1  0  0  0  0
 11 12  1  0  0  0  0
 13 14  1  0  0  0  0
 13 11  2  0  0  0  0
 15 13  1  0  0  0  0
 16 15  2  0  0  0  0
 16 17  1  0  0  0  0
 17 10  2  0  0  0  0
M  END
>  <minimizedAffinity>
-3.81291723

$$$$

 OpenBabel03242510063D

 17 18  0  0  0  0  0  0  0  0999 V2000
   40.2090   26.8990   43.6790 C   0  0  0  0  0  0  0  0  0  0  0  0
   39.9780   25.5320   43.4370 C   0  0  0  0  0  0  0  0  0  0  0  0
   38.9020   25.1930   42.6020 C   0  0  0  0  0  0  0  0  0  0  0  0
   38.1350   26.2010   42.0670 N   0  0  0  0  0  0  0  0  0  0  0  0
   38.4030   27.4930   42.3330 C   0  0  0  0  0  0  0  0  0  0  0  0
   39.4210   27.8480   43.1250 N   0  0  0  0  0  0  0  0  0  0  0  0
   41.0080   27.2580   44.3040 H   0  0  0  0  0  0  0  0  0  0  0  0
   40.6440   24.8440   43.9110 H   0  0  0  0  0  0  0  0  0  0  0  0
   38.7430   24.1590   42.4310 H   0  0  0  0  0  0  0  0  0  0  0  0
   37.5570   28.5270   41.7390 C   0  0  0  0  0  0  0  0  0  0  0  0
   36.3230   28.2040   41.2110 C   0  0  0  0  0  0  0  0  0  0  0  0
   36.0350   27.1420   41.2710 H   0  0  0  0  0  0  0  0  0  0  0  0
   35.4500   29.1000   40.6300 C   0  0  0  0  0  0  0  0  0  0  0  0
   34.5000   28.8140   40.2300 H   0  0  0  0  0  0  0  0  0  0  0  0
   35.9230   30.4160   40.6120 C   0  0  0  0  0  3  0  0  0  0  0  0
   37.1670   30.7690   41.1390 C   0  0  0  0  0  3  0  0  0  0  0  0
   37.9640   29.8100   41.6970 N   0  0  0  0  0  0  0  0  0  0  0  0
  1  7  1  0  0  0  0
  2  1  1  0  0  0  0
  2  8  1  0  0  0  0
  3  2  2  0  0  0  0
  4  5  2  0  0  0  0
  4  3  1  0  0  0  0
  5  6  1  0  0  0  0
  6  1  2  0  0  0  0
  9  3  1  0  0  0  0
 10  5  1  0  0  0  0
 11 12  1  0  0  0  0
 11 10  2  0  0  0  0
 13 11  1  0  0  0  0
 14 13  1  0  0  0  0
 15 13  2  0  0  0  0
 15 16  1  0  0  0  0
 16 17  2  0  0  0  0
 17 10  1  0  0  0  0
M  END
>  <minimizedAffinity>
-3.80454397

$$$$

 OpenBabel03242510063D

 17 18  0  0  0  0  0  0  0  0999 V2000
   39.0160   24.7270   42.1220 C   0  0  0  0  0  0  0  0  0  0  0  0
   39.9790   24.8950   43.1340 C   0  0  0  0  0  0  0  0  0  0  0  0
   40.1310   26.1800   43.6790 C   0  0  0  0  0  0  0  0  0  0  0  0
   39.3410   27.2000   43.2030 N   0  0  0  0  0  0  0  0  0  0  0  0
   38.4350   26.9800   42.2330 C   0  0  0  0  0  0  0  0  0  0  0  0
   38.2650   25.7680   41.6940 N   0  0  0  0  0  0  0  0  0  0  0  0
   38.8250   23.7820   41.6440 H   0  0  0  0  0  0  0  0  0  0  0  0
   40.5300   24.0250   43.4180 H   0  0  0  0  0  0  0  0  0  0  0  0
   40.8610   26.2880   44.4400 H   0  0  0  0  0  0  0  0  0  0  0  0
   37.6190   28.0980   41.7620 C   0  0  0  0  0  0  0  0  0  0  0  0
   36.4220   27.8680   41.1130 C   0  0  0  0  0  0  0  0  0  0  0  0
   36.1390   26.8110   40.9850 H   0  0  0  0  0  0  0  0  0  0  0  0
   35.5800   28.8470   40.6310 C   0  0  0  0  0  0  0  0  0  0  0  0
   34.6590   28.6320   40.1330 H   0  0  0  0  0  0  0  0  0  0  0  0
   36.0440   30.1480   40.8530 C   0  0  0  0  0  3  0  0  0  0  0  0
   37.2500   30.4090   41.5060 C   0  0  0  0  0  3  0  0  0  0  0  0
   38.0190   29.3710   41.9510 N   0  0  0  0  0  0  0  0  0  0  0  0
  1  2  1  0  0  0  0
  2  8  1  0  0  0  0
  2  3  2  0  0  0  0
  3  9  1  0  0  0  0
  4  3  1  0  0  0  0
  5  4  2  0  0  0  0
  6  1  2  0  0  0  0
  6  5  1  0  0  0  0
  7  1  1  0  0  0  0
 10 17  1  0  0  0  0
 10  5  1  0  0  0  0
 11 10  2  0  0  0  0
 12 11  1  0  0  0  0
 13 15  2  0  0  0  0
 13 11  1  0  0  0  0
 14 13  1  0  0  0  0
 15 16  1  0  0  0  0
 16 17  2  0  0  0  0
M  END
>  <minimizedAffinity>
-3.71057081

$$$$

 OpenBabel03242510063D

 17 18  0  0  0  0  0  0  0  0999 V2000
   38.0280   33.9550   39.9390 C   0  0  0  0  0  0  0  0  0  0  0  0
   39.0920   33.6890   40.8200 C   0  0  0  0  0  0  0  0  0  0  0  0
   39.2770   32.3600   41.2330 C   0  0  0  0  0  0  0  0  0  0  0  0
   38.4190   31.3950   40.7620 N   0  0  0  0  0  0  0  0  0  0  0  0
   37.4180   31.7070   39.9190 C   0  0  0  0  0  0  0  0  0  0  0  0
   37.2150   32.9630   39.5070 N   0  0  0  0  0  0  0  0  0  0  0  0
   37.8060   34.9390   39.5650 H   0  0  0  0  0  0  0  0  0  0  0  0
   39.6880   34.5250   41.1140 H   0  0  0  0  0  0  0  0  0  0  0  0
   40.0830   32.1790   41.8970 H   0  0  0  0  0  0  0  0  0  0  0  0
   36.5340   30.6430   39.4470 C   0  0  0  0  0  0  0  0  0  0  0  0
   35.6300   30.0510   40.3060 C   0  0  0  0  0  0  0  0  0  0  0  0
   35.6260   30.4310   41.3400 H   0  0  0  0  0  0  0  0  0  0  0  0
   34.7530   29.0430   39.9640 C   0  0  0  0  0  0  0  0  0  0  0  0
   34.0650   28.6060   40.6560 H   0  0  0  0  0  0  0  0  0  0  0  0
   34.8490   28.6430   38.6270 C   0  0  0  0  0  3  0  0  0  0  0  0
   35.7540   29.2250   37.7370 C   0  0  0  0  0  3  0  0  0  0  0  0
   36.5840   30.2210   38.1690 N   0  0  0  0  0  0  0  0  0  0  0  0
  1  2  1  0  0  0  0
  2  8  1  0  0  0  0
  2  3  2  0  0  0  0
  3  9  1  0  0  0  0
  4  3  1  0  0  0  0
  5  4  2  0  0  0  0
  6  5  1  0  0  0  0
  6  1  2  0  0  0  0
  7  1  1  0  0  0  0
 10  5  1  0  0  0  0
 10 11  1  0  0  0  0
 11 12  1  0  0  0  0
 13 11  2  0  0  0  0
 13 14  1  0  0  0  0
 15 13  1  0  0  0  0
 16 17  1  0  0  0  0
 16 15  2  0  0  0  0
 17 10  2  0  0  0  0
M  END
>  <minimizedAffinity>
-3.67290711

$$$$

 OpenBabel03242510063D

 17 18  0  0  0  0  0  0  0  0999 V2000
   35.4940   29.4330   40.4900 C   0  0  0  0  0  0  0  0  0  0  0  0
   36.1830   30.6380   40.7240 C   0  0  0  0  0  0  0  0  0  0  0  0
   37.4440   30.5570   41.3350 C   0  0  0  0  0  0  0  0  0  0  0  0
   37.9390   29.3190   41.6710 N   0  0  0  0  0  0  0  0  0  0  0  0
   37.2360   28.1990   41.4220 C   0  0  0  0  0  0  0  0  0  0  0  0
   36.0320   28.2430   40.8420 N   0  0  0  0  0  0  0  0  0  0  0  0
   34.5240   29.3910   40.0280 H   0  0  0  0  0  0  0  0  0  0  0  0
   35.6920   31.5360   40.4170 H   0  0  0  0  0  0  0  0  0  0  0  0
   37.9480   31.4750   41.5030 H   0  0  0  0  0  0  0  0  0  0  0  0
   37.8080   26.9080   41.7990 C   0  0  0  0  0  0  0  0  0  0  0  0
   37.0290   25.7680   41.7910 C   0  0  0  0  0  0  0  0  0  0  0  0
   35.9790   25.9030   41.4870 H   0  0  0  0  0  0  0  0  0  0  0  0
   37.4680   24.5050   42.1270 C   0  0  0  0  0  0  0  0  0  0  0  0
   36.8360   23.6420   42.1090 H   0  0  0  0  0  0  0  0  0  0  0  0
   38.8170   24.4570   42.4950 C   0  0  0  0  0  3  0  0  0  0  0  0
   39.6260   25.5940   42.5120 C   0  0  0  0  0  3  0  0  0  0  0  0
   39.1020   26.8050   42.1610 N   0  0  0  0  0  0  0  0  0  0  0  0
  1  2  2  0  0  0  0
  1  6  1  0  0  0  0
  2  3  1  0  0  0  0
  3  9  1  0  0  0  0
  3  4  2  0  0  0  0
  5  4  1  0  0  0  0
  5 10  1  0  0  0  0
  6  5  2  0  0  0  0
  7  1  1  0  0  0  0
  8  2  1  0  0  0  0
 10 17  1  0  0  0  0
 11 10  2  0  0  0  0
 11 13  1  0  0  0  0
 12 11  1  0  0  0  0
 13 15  2  0  0  0  0
 14 13  1  0  0  0  0
 15 16  1  0  0  0  0
 17 16  2  0  0  0  0
M  END
>  <minimizedAffinity>
-3.65145421

$$$$
