
 OpenBabel03252508323D

 31 33  0  0  1  0  0  0  0  0999 V2000
   45.1040   34.4160   42.2810 N   0  0  0  0  0  0  0  0  0  0  0  0
   46.0570   33.6420   41.5520 C   0  0  1  0  0  0  0  0  0  0  0  0
   45.9010   33.6730   40.0790 C   0  0  0  0  0  0  0  0  0  0  0  0
   44.6160   33.8060   39.5500 N   0  0  0  0  0  0  0  0  0  0  0  0
   43.6320   34.4450   40.3340 C   0  0  0  0  0  0  0  0  0  0  0  0
   44.2540   35.2340   41.4700 C   0  0  0  0  0  0  0  0  0  0  0  0
   45.9820   32.5790   41.9280 H   0  0  0  0  0  0  0  0  0  0  0  0
   46.5650   34.4550   39.6550 H   0  0  0  0  0  0  0  0  0  0  0  0
   46.3360   32.7060   39.6910 H   0  0  0  0  0  0  0  0  0  0  0  0
   44.6510   34.2580   38.6050 H   0  0  0  0  0  0  0  0  0  0  0  0
   42.9970   35.1920   39.7800 H   0  0  0  0  0  0  0  0  0  0  0  0
   42.9520   33.6950   40.7660 H   0  0  0  0  0  0  0  0  0  0  0  0
   44.8310   36.0590   40.9520 H   0  0  0  0  0  0  0  0  0  0  0  0
   43.4350   35.7450   41.9660 H   0  0  0  0  0  0  0  0  0  0  0  0
   44.5860   35.4070   44.3830 C   0  0  0  0  0  0  0  0  0  0  0  0
   45.0900   34.3120   43.6880 C   0  0  0  0  0  0  0  0  0  0  0  0
   45.5360   33.2360   44.4330 C   0  0  0  0  0  0  0  0  0  0  0  0
   45.4870   33.2390   45.7890 N   0  0  0  0  0  0  0  0  0  0  0  0
   44.9860   34.3290   46.4420 C   0  0  0  0  0  0  0  0  0  0  0  0
   44.5510   35.3760   45.7450 N   0  0  0  0  0  0  0  0  0  0  0  0
   44.1940   36.3340   43.9990 H   0  0  0  0  0  0  0  0  0  0  0  0
   45.9190   32.3950   43.9080 H   0  0  0  0  0  0  0  0  0  0  0  0
   44.9720   34.2760   47.5200 H   0  0  0  0  0  0  0  0  0  0  0  0
   47.4510   34.0740   41.8410 C   0  0  0  0  0  0  0  0  0  0  0  0
   47.8970   35.3420   41.5240 C   0  0  0  0  0  0  0  0  0  0  0  0
   47.2600   36.0640   41.0630 H   0  0  0  0  0  0  0  0  0  0  0  0
   49.1830   35.7960   41.7630 C   0  0  0  0  0  0  0  0  0  0  0  0
   49.5130   36.7920   41.5070 H   0  0  0  0  0  0  0  0  0  0  0  0
   50.0940   34.9610   42.3500 C   0  0  0  0  0  3  0  0  0  0  0  0
   49.6500   33.6950   42.6670 C   0  0  0  0  0  3  0  0  0  0  0  0
   48.4130   33.2990   42.4220 N   0  0  0  0  0  0  0  0  0  0  0  0
  1 16  1  0  0  0  0
  2 24  1  0  0  0  0
  2  7  1  1  0  0  0
  2  1  1  0  0  0  0
  3  2  1  0  0  0  0
  4  3  1  0  0  0  0
  4  5  1  0  0  0  0
  5 12  1  0  0  0  0
  5  6  1  0  0  0  0
  6 14  1  0  0  0  0
  6  1  1  0  0  0  0
  8  3  1  0  0  0  0
  9  3  1  0  0  0  0
 10  4  1  0  0  0  0
 11  5  1  0  0  0  0
 13  6  1  0  0  0  0
 15 20  1  0  0  0  0
 16 15  2  0  0  0  0
 16 17  1  0  0  0  0
 17 18  2  0  0  0  0
 18 19  1  0  0  0  0
 19 23  1  0  0  0  0
 20 19  2  0  0  0  0
 21 15  1  0  0  0  0
 22 17  1  0  0  0  0
 24 31  1  0  0  0  0
 25 27  1  0  0  0  0
 25 24  2  0  0  0  0
 26 25  1  0  0  0  0
 27 29  2  0  0  0  0
 28 27  1  0  0  0  0
 29 30  1  0  0  0  0
 31 30  2  0  0  0  0
M  END
>  <minimizedAffinity>
-5.25875568

>  <minimizedRMSD>
1.96392512

$$$$
