
 OpenBabel03252500363D

 45 48  0  0  1  0  0  0  0  0999 V2000
   45.7230   35.4010   43.5580 C   0  0  1  0  0  0  0  0  0  0  0  0
   44.6170   34.9240   44.2640 C   0  0  0  0  0  0  0  0  0  0  0  0
   45.9180   34.4580   44.7800 C   0  0  1  0  0  0  0  0  0  0  0  0
   46.0950   36.4540   43.7140 H   0  0  0  0  0  0  0  0  0  0  0  0
   44.0140   35.5800   44.9060 H   0  0  0  0  0  0  0  0  0  0  0  0
   43.9780   34.1100   43.8140 H   0  0  0  0  0  0  0  0  0  0  0  0
   46.4770   34.9780   45.5730 H   0  0  0  0  0  0  0  0  0  0  0  0
   45.2980   34.2480   41.3880 C   0  0  0  0  0  0  0  0  0  0  0  0
   46.2380   34.9000   42.2480 C   0  0  0  0  0  0  0  0  0  0  0  0
   47.5310   35.0320   41.8560 C   0  0  0  0  0  0  0  0  0  0  0  0
   47.8650   34.5200   40.6320 N   0  0  0  0  0  0  0  0  0  0  0  0
   46.9780   33.9050   39.8200 C   0  0  0  0  0  0  0  0  0  0  0  0
   45.6570   33.7520   40.1810 N   0  0  0  0  0  0  0  0  0  0  0  0
   44.2670   34.1080   41.6280 H   0  0  0  0  0  0  0  0  0  0  0  0
   48.2540   35.5210   42.4940 H   0  0  0  0  0  0  0  0  0  0  0  0
   47.4310   33.3920   38.5290 C   0  0  0  0  0  0  0  0  0  0  0  0
   48.2840   34.1450   37.7500 C   0  0  0  0  0  0  0  0  0  0  0  0
   48.6510   35.1190   38.0380 H   0  0  0  0  0  0  0  0  0  0  0  0
   48.6900   33.6160   36.5250 C   0  0  0  0  0  0  0  0  0  0  0  0
   49.3490   34.1090   35.8390 H   0  0  0  0  0  0  0  0  0  0  0  0
   48.1890   32.3550   36.1960 C   0  0  0  0  0  0  0  0  0  0  0  0
   47.3260   31.6000   36.9940 C   0  0  0  0  0  0  0  0  0  0  0  0
   46.9750   32.1780   38.1660 N   0  0  0  0  0  0  0  0  0  0  0  0
   46.3530   33.0580   44.5520 C   0  0  0  0  0  0  0  0  0  0  0  0
   47.4570   33.0410   44.4920 H   0  0  0  0  0  0  0  0  0  0  0  0
   45.8930   32.6970   43.6080 H   0  0  0  0  0  0  0  0  0  0  0  0
   45.8680   32.2810   45.6350 N   0  0  0  0  0  0  0  0  0  0  0  0
   45.9500   32.8210   46.9240 C   0  0  0  0  0  0  0  0  0  0  0  0
   47.2710   32.4290   47.6080 C   0  0  0  0  0  0  0  0  0  0  0  0
   47.1760   30.9400   47.8560 C   0  0  0  0  0  0  0  0  0  0  0  0
   47.1040   30.3050   46.4900 C   0  0  0  0  0  0  0  0  0  0  0  0
   46.0360   30.8900   45.6120 C   0  0  2  0  0  0  0  0  0  0  0  0
   45.1750   32.2590   47.5330 H   0  0  0  0  0  0  0  0  0  0  0  0
   45.6680   33.8600   47.0920 H   0  0  0  0  0  0  0  0  0  0  0  0
   48.1250   32.5870   46.9170 H   0  0  0  0  0  0  0  0  0  0  0  0
   47.4110   32.9940   48.5500 H   0  0  0  0  0  0  0  0  0  0  0  0
   46.1880   30.7570   48.3450 H   0  0  0  0  0  0  0  0  0  0  0  0
   48.0180   30.5330   48.4020 H   0  0  0  0  0  0  0  0  0  0  0  0
   48.0750   30.5150   45.9750 H   0  0  0  0  0  0  0  0  0  0  0  0
   46.9680   29.2160   46.5260 H   0  0  0  0  0  0  0  0  0  0  0  0
   45.0810   30.3980   45.9350 H   0  0  0  0  0  0  0  0  0  0  0  0
   46.2990   30.3710   44.2040 C   0  0  0  0  0  0  0  0  0  0  0  0
   47.1440   30.9490   43.7890 H   0  0  0  0  0  0  0  0  0  0  0  0
   45.4150   30.4640   43.5630 H   0  0  0  0  0  0  0  0  0  0  0  0
   46.5930   29.3080   44.3320 H   0  0  0  0  0  0  0  0  0  0  0  0
  1  4  1  1  0  0  0
  1  2  1  0  0  0  0
  1  3  1  0  0  0  0
  2  3  1  0  0  0  0
  2  5  1  0  0  0  0
  3  7  1  1  0  0  0
  6  2  1  0  0  0  0
  8 14  1  0  0  0  0
  8  9  1  0  0  0  0
  9  1  1  0  0  0  0
 10  9  2  0  0  0  0
 10 15  1  0  0  0  0
 11 10  1  0  0  0  0
 12 13  1  0  0  0  0
 12 11  2  0  0  0  0
 13  8  2  0  0  0  0
 16 12  1  0  0  0  0
 17 18  1  0  0  0  0
 17 16  2  0  0  0  0
 19 17  1  0  0  0  0
 20 19  1  0  0  0  0
 21 19  2  0  0  0  0
 21 22  1  0  0  0  0
 22 23  2  0  0  0  0
 23 16  1  0  0  0  0
 24  3  1  0  0  0  0
 24 27  1  0  0  0  0
 25 24  1  0  0  0  0
 26 24  1  0  0  0  0
 27 28  1  0  0  0  0
 28 34  1  0  0  0  0
 28 33  1  0  0  0  0
 28 29  1  0  0  0  0
 29 30  1  0  0  0  0
 29 36  1  0  0  0  0
 30 37  1  0  0  0  0
 30 38  1  0  0  0  0
 31 40  1  0  0  0  0
 31 30  1  0  0  0  0
 32 27  1  0  0  0  0
 32 41  1  1  0  0  0
 32 31  1  0  0  0  0
 35 29  1  0  0  0  0
 39 31  1  0  0  0  0
 42 45  1  0  0  0  0
 42 32  1  0  0  0  0
 43 42  1  0  0  0  0
 44 42  1  0  0  0  0
M  END
>  <minimizedAffinity>
-4.94904232

>  <minimizedRMSD>
2.46965027

$$$$
