
 OpenBabel03252508323D

 31 33  0  0  1  0  0  0  0  0999 V2000
   44.3050   34.4530   41.9050 N   0  0  0  0  0  0  0  0  0  0  0  0
   44.6020   33.4860   40.8950 C   0  0  1  0  0  0  0  0  0  0  0  0
   43.9800   33.7410   39.5750 C   0  0  0  0  0  0  0  0  0  0  0  0
   42.7360   34.3710   39.5380 N   0  0  0  0  0  0  0  0  0  0  0  0
   42.3800   35.2150   40.6110 C   0  0  0  0  0  0  0  0  0  0  0  0
   43.5920   35.6030   41.4370 C   0  0  0  0  0  0  0  0  0  0  0  0
   44.2770   32.4790   41.2910 H   0  0  0  0  0  0  0  0  0  0  0  0
   44.6990   34.2880   38.9290 H   0  0  0  0  0  0  0  0  0  0  0  0
   43.8740   32.7350   39.0730 H   0  0  0  0  0  0  0  0  0  0  0  0
   42.6120   34.8900   38.6360 H   0  0  0  0  0  0  0  0  0  0  0  0
   41.9150   36.1950   40.3080 H   0  0  0  0  0  0  0  0  0  0  0  0
   41.6630   34.7030   41.2690 H   0  0  0  0  0  0  0  0  0  0  0  0
   44.2180   36.2310   40.7340 H   0  0  0  0  0  0  0  0  0  0  0  0
   43.2360   36.3040   42.1840 H   0  0  0  0  0  0  0  0  0  0  0  0
   44.5900   35.2420   44.1320 C   0  0  0  0  0  0  0  0  0  0  0  0
   44.7300   34.1970   43.2250 C   0  0  0  0  0  0  0  0  0  0  0  0
   45.2770   33.0170   43.6940 C   0  0  0  0  0  0  0  0  0  0  0  0
   45.6640   32.8750   44.9870 N   0  0  0  0  0  0  0  0  0  0  0  0
   45.5140   33.9200   45.8530 C   0  0  0  0  0  0  0  0  0  0  0  0
   44.9890   35.0660   45.4230 N   0  0  0  0  0  0  0  0  0  0  0  0
   44.1930   36.2320   43.9730 H   0  0  0  0  0  0  0  0  0  0  0  0
   45.3840   32.2130   43.0070 H   0  0  0  0  0  0  0  0  0  0  0  0
   45.8390   33.7510   46.8680 H   0  0  0  0  0  0  0  0  0  0  0  0
   46.0670   33.3720   40.6610 C   0  0  0  0  0  0  0  0  0  0  0  0
   46.6730   32.1490   40.4460 C   0  0  0  0  0  0  0  0  0  0  0  0
   46.1170   31.2390   40.4360 H   0  0  0  0  0  0  0  0  0  0  0  0
   48.0300   31.9830   40.2280 C   0  0  0  0  0  0  0  0  0  0  0  0
   48.4860   31.0180   40.0630 H   0  0  0  0  0  0  0  0  0  0  0  0
   48.8510   33.0780   40.2180 C   0  0  0  0  0  3  0  0  0  0  0  0
   48.2470   34.2980   40.4310 C   0  0  0  0  0  3  0  0  0  0  0  0
   46.9470   34.4160   40.6360 N   0  0  0  0  0  0  0  0  0  0  0  0
  1 16  1  0  0  0  0
  2  7  1  1  0  0  0
  2  1  1  0  0  0  0
  3  2  1  0  0  0  0
  4  3  1  0  0  0  0
  4  5  1  0  0  0  0
  5 12  1  0  0  0  0
  5  6  1  0  0  0  0
  6  1  1  0  0  0  0
  6 14  1  0  0  0  0
  8  3  1  0  0  0  0
  9  3  1  0  0  0  0
 10  4  1  0  0  0  0
 11  5  1  0  0  0  0
 13  6  1  0  0  0  0
 15 20  1  0  0  0  0
 16 17  1  0  0  0  0
 16 15  2  0  0  0  0
 17 18  2  0  0  0  0
 18 19  1  0  0  0  0
 19 23  1  0  0  0  0
 20 19  2  0  0  0  0
 21 15  1  0  0  0  0
 22 17  1  0  0  0  0
 24  2  1  0  0  0  0
 25 24  2  0  0  0  0
 26 25  1  0  0  0  0
 27 25  1  0  0  0  0
 28 27  1  0  0  0  0
 29 27  2  0  0  0  0
 29 30  1  0  0  0  0
 30 31  2  0  0  0  0
 31 24  1  0  0  0  0
M  END
>  <minimizedAffinity>
-4.24772692

>  <minimizedRMSD>
0.350782841

$$$$
