
 OpenBabel03252505533D

 32 34  0  0  0  0  0  0  0  0999 V2000
   45.3650   31.3110   47.7480 C   0  0  0  0  0  0  0  0  0  0  0  0
   44.7200   31.0700   46.8900 H   0  0  0  0  0  0  0  0  0  0  0  0
   44.7550   31.1980   48.6820 H   0  0  0  0  0  0  0  0  0  0  0  0
   46.5280   30.4230   47.8140 C   0  0  0  0  0  0  0  0  0  0  0  0
   46.7960   29.2470   47.1590 C   0  0  0  0  0  0  0  0  0  0  0  0
   47.9590   28.5880   47.3840 C   0  0  0  0  0  0  0  0  0  0  0  0
   48.8670   29.0740   48.2480 N   0  0  0  0  0  0  0  0  0  0  0  0
   48.6170   30.2240   48.8950 C   0  0  0  0  0  0  0  0  0  0  0  0
   47.4570   30.8970   48.6830 N   0  0  0  0  0  0  0  0  0  0  0  0
   45.9910   28.9540   46.4880 H   0  0  0  0  0  0  0  0  0  0  0  0
   48.1220   27.6660   46.8430 H   0  0  0  0  0  0  0  0  0  0  0  0
   49.6280   30.7430   49.8440 C   0  0  0  0  0  0  0  0  0  0  0  0
   50.1110   32.0260   49.7040 C   0  0  0  0  0  0  0  0  0  0  0  0
   49.7290   32.6240   48.8920 H   0  0  0  0  0  0  0  0  0  0  0  0
   51.0490   32.4120   50.6390 C   0  0  0  0  0  0  0  0  0  0  0  0
   51.4480   33.4120   50.5580 H   0  0  0  0  0  0  0  0  0  0  0  0
   51.4420   31.5330   51.6250 C   0  0  0  0  0  0  0  0  0  0  0  0
   50.9370   30.2360   51.7440 C   0  0  0  0  0  0  0  0  0  0  0  0
   50.0220   29.8990   50.8110 N   0  0  0  0  0  0  0  0  0  0  0  0
   45.8360   32.6340   47.6380 O   0  0  0  0  0  0  0  0  0  0  0  0
   44.9610   34.9380   45.0660 C   0  0  0  0  0  0  0  0  0  0  0  0
   45.8380   34.6280   44.0350 C   0  0  0  0  0  0  0  0  0  0  0  0
   46.7520   33.5890   44.2540 C   0  0  0  0  0  0  0  0  0  0  0  0
   46.7420   32.9450   45.4340 N   0  0  0  0  0  0  0  0  0  0  0  0
   45.8660   33.2840   46.4120 C   0  0  0  0  0  0  0  0  0  0  0  0
   44.9910   34.2660   46.2250 N   0  0  0  0  0  0  0  0  0  0  0  0
   44.2370   35.7400   44.9310 H   0  0  0  0  0  0  0  0  0  0  0  0
   47.4210   33.3710   43.4370 H   0  0  0  0  0  0  0  0  0  0  0  0
   45.7550   35.4170   42.7630 C   0  0  0  0  0  0  0  0  0  0  0  0
   45.3120   36.6600   43.1490 F   0  0  0  0  0  0  0  0  0  0  0  0
   44.7770   34.7820   41.9830 F   0  0  0  0  0  0  0  0  0  0  0  0
   46.9690   35.4120   42.1510 F   0  0  0  0  0  0  0  0  0  0  0  0
  1  4  1  0  0  0  0
  1  3  1  0  0  0  0
  2  1  1  0  0  0  0
  4  9  1  0  0  0  0
  5  6  1  0  0  0  0
  5  4  2  0  0  0  0
  6  7  2  0  0  0  0
  7  8  1  0  0  0  0
  8 12  1  0  0  0  0
  9  8  2  0  0  0  0
 10  5  1  0  0  0  0
 11  6  1  0  0  0  0
 12 19  1  0  0  0  0
 13 12  2  0  0  0  0
 13 15  1  0  0  0  0
 14 13  1  0  0  0  0
 15 17  2  0  0  0  0
 16 15  1  0  0  0  0
 17 18  1  0  0  0  0
 19 18  2  0  0  0  0
 20  1  1  0  0  0  0
 21 26  1  0  0  0  0
 22 23  1  0  0  0  0
 22 21  2  0  0  0  0
 23 24  2  0  0  0  0
 24 25  1  0  0  0  0
 25 20  1  0  0  0  0
 26 25  2  0  0  0  0
 27 21  1  0  0  0  0
 28 23  1  0  0  0  0
 29 30  1  0  0  0  0
 29 22  1  0  0  0  0
 31 29  1  0  0  0  0
 32 29  1  0  0  0  0
M  END
>  <minimizedAffinity>
-5.89567757

>  <minimizedRMSD>
0.829032958

$$$$
