
 OpenBabel03252505263D

 42 45  0  0  1  0  0  0  0  0999 V2000
   38.8350   30.3130   41.6480 F   0  0  0  0  0  0  0  0  0  0  0  0
   37.8770   30.1140   40.6910 C   0  0  0  0  0  0  0  0  0  0  0  0
   37.7130   31.0780   39.7290 C   0  0  0  0  0  0  0  0  0  0  0  0
   36.7590   30.8750   38.7810 C   0  0  0  0  0  0  0  0  0  0  0  0
   35.9930   29.7160   38.8160 C   0  0  0  0  0  0  0  0  0  0  0  0
   36.1550   28.7520   39.7750 C   0  0  0  0  0  0  0  0  0  0  0  0
   37.1370   28.9740   40.7410 C   0  0  0  0  0  0  0  0  0  0  0  0
   36.6180   31.6260   38.0150 H   0  0  0  0  0  0  0  0  0  0  0  0
   35.2390   29.6070   38.0250 H   0  0  0  0  0  0  0  0  0  0  0  0
   35.5420   27.8580   39.7750 H   0  0  0  0  0  0  0  0  0  0  0  0
   37.2730   27.9470   41.7190 N   0  0  0  0  0  0  0  0  0  0  0  0
   37.3860   26.5170   41.5780 C   0  0  0  0  0  0  0  0  0  0  0  0
   38.5860   26.1800   42.4640 C   0  0  0  0  0  0  0  0  0  0  0  0
   38.6530   27.3340   43.4310 C   0  0  0  0  0  0  0  0  0  0  0  0
   37.3400   28.0270   43.1660 C   0  0  2  0  0  0  0  0  0  0  0  0
   36.4730   25.9800   41.8890 H   0  0  0  0  0  0  0  0  0  0  0  0
   37.6680   26.3160   40.5410 H   0  0  0  0  0  0  0  0  0  0  0  0
   38.3870   25.2390   43.0340 H   0  0  0  0  0  0  0  0  0  0  0  0
   39.5280   26.1460   41.9100 H   0  0  0  0  0  0  0  0  0  0  0  0
   39.4490   28.0540   43.1500 H   0  0  0  0  0  0  0  0  0  0  0  0
   38.6830   27.0210   44.4870 H   0  0  0  0  0  0  0  0  0  0  0  0
   37.3640   29.1220   43.4070 H   0  0  0  0  0  0  0  0  0  0  0  0
   36.1790   27.4290   43.8670 C   0  0  0  0  0  0  0  0  0  0  0  0
   36.4860   26.5330   44.4150 H   0  0  0  0  0  0  0  0  0  0  0  0
   35.7160   28.1290   44.6160 H   0  0  0  0  0  0  0  0  0  0  0  0
   35.3420   27.1310   43.2010 H   0  0  0  0  0  0  0  0  0  0  0  0
   38.8590   34.5130   40.2840 C   0  0  0  0  0  0  0  0  0  0  0  0
   40.1490   34.5260   39.7430 C   0  0  0  0  0  0  0  0  0  0  0  0
   40.5760   33.3190   39.1980 C   0  0  0  0  0  0  0  0  0  0  0  0
   39.7640   32.2480   39.2170 N   0  0  0  0  0  0  0  0  0  0  0  0
   38.5390   32.2670   39.7410 C   0  0  0  0  0  0  0  0  0  0  0  0
   38.0730   33.4090   40.2820 N   0  0  0  0  0  0  0  0  0  0  0  0
   38.4180   35.4030   40.7390 H   0  0  0  0  0  0  0  0  0  0  0  0
   40.7400   35.4130   39.7610 H   0  0  0  0  0  0  0  0  0  0  0  0
   41.9080   33.2330   38.6100 C   0  0  0  0  0  0  0  0  0  0  0  0
   42.1890   32.2140   37.7230 C   0  0  0  0  0  0  0  0  0  0  0  0
   41.4360   31.4840   37.4620 H   0  0  0  0  0  0  0  0  0  0  0  0
   43.4310   32.1040   37.1500 C   0  0  0  0  0  0  0  0  0  0  0  0
   43.7400   31.3440   36.4500 H   0  0  0  0  0  0  0  0  0  0  0  0
   44.3420   33.0790   37.5340 C   0  0  0  0  0  3  0  0  0  0  0  0
   44.0860   34.1220   38.4300 C   0  0  0  0  0  3  0  0  0  0  0  0
   42.8370   34.1440   38.9380 N   0  0  0  0  0  0  0  0  0  0  0  0
  2  7  1  0  0  0  0
  2  1  1  0  0  0  0
  3 31  1  0  0  0  0
  3  2  2  0  0  0  0
  4  5  2  0  0  0  0
  4  3  1  0  0  0  0
  5  6  1  0  0  0  0
  6  7  2  0  0  0  0
  7 11  1  0  0  0  0
  8  4  1  0  0  0  0
  9  5  1  0  0  0  0
 10  6  1  0  0  0  0
 11 15  1  0  0  0  0
 12 11  1  0  0  0  0
 12 16  1  0  0  0  0
 12 13  1  0  0  0  0
 13 18  1  0  0  0  0
 13 14  1  0  0  0  0
 14 21  1  0  0  0  0
 15 22  1  1  0  0  0
 15 14  1  0  0  0  0
 15 23  1  0  0  0  0
 17 12  1  0  0  0  0
 19 13  1  0  0  0  0
 20 14  1  0  0  0  0
 23 24  1  0  0  0  0
 23 25  1  0  0  0  0
 26 23  1  0  0  0  0
 27 33  1  0  0  0  0
 28 34  1  0  0  0  0
 28 27  2  0  0  0  0
 29 30  2  0  0  0  0
 29 28  1  0  0  0  0
 30 31  1  0  0  0  0
 31 32  2  0  0  0  0
 32 27  1  0  0  0  0
 35 42  1  0  0  0  0
 35 29  1  0  0  0  0
 36 35  2  0  0  0  0
 37 36  1  0  0  0  0
 38 40  2  0  0  0  0
 38 36  1  0  0  0  0
 39 38  1  0  0  0  0
 40 41  1  0  0  0  0
 41 42  2  0  0  0  0
M  END
>  <minimizedAffinity>
-6.26767778

$$$$

 OpenBabel03252505263D

 42 45  0  0  1  0  0  0  0  0999 V2000
   40.2120   30.1340   41.6250 F   0  0  0  0  0  0  0  0  0  0  0  0
   38.9970   30.6050   41.2080 C   0  0  0  0  0  0  0  0  0  0  0  0
   38.9760   31.7030   40.3860 C   0  0  0  0  0  0  0  0  0  0  0  0
   37.7660   32.1670   39.9750 C   0  0  0  0  0  0  0  0  0  0  0  0
   36.6060   31.5240   40.3940 C   0  0  0  0  0  0  0  0  0  0  0  0
   36.6240   30.4280   41.2150 C   0  0  0  0  0  0  0  0  0  0  0  0
   37.8740   29.9640   41.6280 C   0  0  0  0  0  0  0  0  0  0  0  0
   37.7320   33.0320   39.3250 H   0  0  0  0  0  0  0  0  0  0  0  0
   35.6590   31.9430   40.0310 H   0  0  0  0  0  0  0  0  0  0  0  0
   35.7030   29.9490   41.5240 H   0  0  0  0  0  0  0  0  0  0  0  0
   37.8490   28.8220   42.4800 N   0  0  0  0  0  0  0  0  0  0  0  0
   37.3180   28.6470   43.8090 C   0  0  0  0  0  0  0  0  0  0  0  0
   36.4940   27.3650   43.6820 C   0  0  0  0  0  0  0  0  0  0  0  0
   37.1020   26.6650   42.4930 C   0  0  0  0  0  0  0  0  0  0  0  0
   38.3520   27.4780   42.2710 C   0  0  2  0  0  0  0  0  0  0  0  0
   38.1040   28.5650   44.5800 H   0  0  0  0  0  0  0  0  0  0  0  0
   36.6260   29.4740   43.9920 H   0  0  0  0  0  0  0  0  0  0  0  0
   36.6360   26.7290   44.5900 H   0  0  0  0  0  0  0  0  0  0  0  0
   35.4410   27.5560   43.4610 H   0  0  0  0  0  0  0  0  0  0  0  0
   36.4790   26.7940   41.5840 H   0  0  0  0  0  0  0  0  0  0  0  0
   37.3880   25.6210   42.6980 H   0  0  0  0  0  0  0  0  0  0  0  0
   38.7100   27.4530   41.2090 H   0  0  0  0  0  0  0  0  0  0  0  0
   39.4890   27.1060   43.1470 C   0  0  0  0  0  0  0  0  0  0  0  0
   39.1840   26.3300   43.8550 H   0  0  0  0  0  0  0  0  0  0  0  0
   40.3660   26.7000   42.5710 H   0  0  0  0  0  0  0  0  0  0  0  0
   39.9040   27.9450   43.7440 H   0  0  0  0  0  0  0  0  0  0  0  0
   41.7720   34.0600   40.1680 C   0  0  0  0  0  0  0  0  0  0  0  0
   42.5920   33.5140   39.1750 C   0  0  0  0  0  0  0  0  0  0  0  0
   42.1330   32.3270   38.6130 C   0  0  0  0  0  0  0  0  0  0  0  0
   40.9750   31.7890   39.0310 N   0  0  0  0  0  0  0  0  0  0  0  0
   40.2140   32.3330   39.9800 C   0  0  0  0  0  0  0  0  0  0  0  0
   40.6100   33.4830   40.5600 N   0  0  0  0  0  0  0  0  0  0  0  0
   42.0310   34.9900   40.6810 H   0  0  0  0  0  0  0  0  0  0  0  0
   43.5000   33.9950   38.8910 H   0  0  0  0  0  0  0  0  0  0  0  0
   42.9200   31.6810   37.5690 C   0  0  0  0  0  0  0  0  0  0  0  0
   42.3290   30.7200   36.7750 C   0  0  0  0  0  0  0  0  0  0  0  0
   41.2930   30.4440   36.9190 H   0  0  0  0  0  0  0  0  0  0  0  0
   43.0400   30.0920   35.7830 C   0  0  0  0  0  0  0  0  0  0  0  0
   42.6620   29.3330   35.1180 H   0  0  0  0  0  0  0  0  0  0  0  0
   44.3610   30.5020   35.6600 C   0  0  0  0  0  3  0  0  0  0  0  0
   44.9870   31.4720   36.4500 C   0  0  0  0  0  3  0  0  0  0  0  0
   44.2050   32.0300   37.3960 N   0  0  0  0  0  0  0  0  0  0  0  0
  2  1  1  0  0  0  0
  2  7  1  0  0  0  0
  3  2  2  0  0  0  0
  4  3  1  0  0  0  0
  4  5  2  0  0  0  0
  5  6  1  0  0  0  0
  6 10  1  0  0  0  0
  6  7  2  0  0  0  0
  7 11  1  0  0  0  0
  8  4  1  0  0  0  0
  9  5  1  0  0  0  0
 11 12  1  0  0  0  0
 12 17  1  0  0  0  0
 12 16  1  0  0  0  0
 13 12  1  0  0  0  0
 13 18  1  0  0  0  0
 14 21  1  0  0  0  0
 14 13  1  0  0  0  0
 15 22  1  6  0  0  0
 15 11  1  0  0  0  0
 15 14  1  0  0  0  0
 15 23  1  0  0  0  0
 19 13  1  0  0  0  0
 20 14  1  0  0  0  0
 23 26  1  0  0  0  0
 23 24  1  0  0  0  0
 25 23  1  0  0  0  0
 27 32  1  0  0  0  0
 27 33  1  0  0  0  0
 28 27  2  0  0  0  0
 29 30  2  0  0  0  0
 29 28  1  0  0  0  0
 30 31  1  0  0  0  0
 31  3  1  0  0  0  0
 31 32  2  0  0  0  0
 34 28  1  0  0  0  0
 35 29  1  0  0  0  0
 36 37  1  0  0  0  0
 36 35  2  0  0  0  0
 38 36  1  0  0  0  0
 39 38  1  0  0  0  0
 40 38  2  0  0  0  0
 40 41  1  0  0  0  0
 41 42  2  0  0  0  0
 42 35  1  0  0  0  0
M  END
>  <minimizedAffinity>
-6.23504925

$$$$

 OpenBabel03252505263D

 42 45  0  0  1  0  0  0  0  0999 V2000
   40.2530   30.7910   41.2940 F   0  0  0  0  0  0  0  0  0  0  0  0
   39.1640   31.4460   40.7880 C   0  0  0  0  0  0  0  0  0  0  0  0
   37.9290   30.8730   40.9520 C   0  0  0  0  0  0  0  0  0  0  0  0
   36.8500   31.5280   40.4460 C   0  0  0  0  0  0  0  0  0  0  0  0
   37.0290   32.7400   39.7900 C   0  0  0  0  0  0  0  0  0  0  0  0
   38.2610   33.3150   39.6240 C   0  0  0  0  0  0  0  0  0  0  0  0
   39.3590   32.6310   40.1480 C   0  0  0  0  0  0  0  0  0  0  0  0
   35.8680   31.0890   40.5690 H   0  0  0  0  0  0  0  0  0  0  0  0
   36.1230   33.2230   39.4030 H   0  0  0  0  0  0  0  0  0  0  0  0
   38.3680   34.2610   39.1070 H   0  0  0  0  0  0  0  0  0  0  0  0
   40.6210   33.2630   39.9550 N   0  0  0  0  0  0  0  0  0  0  0  0
   41.1860   34.4460   40.5540 C   0  0  0  0  0  0  0  0  0  0  0  0
   42.5770   33.9800   40.9860 C   0  0  0  0  0  0  0  0  0  0  0  0
   42.8510   32.7960   40.0930 C   0  0  0  0  0  0  0  0  0  0  0  0
   41.7300   32.9080   39.0910 C   0  0  2  0  0  0  0  0  0  0  0  0
   41.2300   35.3030   39.8580 H   0  0  0  0  0  0  0  0  0  0  0  0
   40.6070   34.6590   41.4570 H   0  0  0  0  0  0  0  0  0  0  0  0
   43.3300   34.7770   40.7730 H   0  0  0  0  0  0  0  0  0  0  0  0
   42.6070   33.6360   42.0230 H   0  0  0  0  0  0  0  0  0  0  0  0
   42.6960   31.8380   40.6300 H   0  0  0  0  0  0  0  0  0  0  0  0
   43.8130   32.8620   39.5600 H   0  0  0  0  0  0  0  0  0  0  0  0
   41.4510   31.9240   38.6310 H   0  0  0  0  0  0  0  0  0  0  0  0
   41.9840   33.8710   37.9920 C   0  0  0  0  0  0  0  0  0  0  0  0
   42.9390   34.3830   38.1490 H   0  0  0  0  0  0  0  0  0  0  0  0
   42.0390   33.3750   36.9840 H   0  0  0  0  0  0  0  0  0  0  0  0
   41.2090   34.6580   37.8810 H   0  0  0  0  0  0  0  0  0  0  0  0
   37.9130   28.3420   43.6010 C   0  0  0  0  0  0  0  0  0  0  0  0
   37.5430   27.1680   42.9380 C   0  0  0  0  0  0  0  0  0  0  0  0
   37.3090   27.3050   41.5740 C   0  0  0  0  0  0  0  0  0  0  0  0
   37.4450   28.5060   40.9860 N   0  0  0  0  0  0  0  0  0  0  0  0
   37.7990   29.6080   41.6450 C   0  0  0  0  0  0  0  0  0  0  0  0
   38.0390   29.5340   42.9690 N   0  0  0  0  0  0  0  0  0  0  0  0
   38.1220   28.3550   44.6740 H   0  0  0  0  0  0  0  0  0  0  0  0
   37.4540   26.2460   43.4680 H   0  0  0  0  0  0  0  0  0  0  0  0
   36.9170   26.1350   40.7960 C   0  0  0  0  0  0  0  0  0  0  0  0
   36.9760   24.8860   41.3790 C   0  0  0  0  0  0  0  0  0  0  0  0
   37.3060   24.7680   42.4020 H   0  0  0  0  0  0  0  0  0  0  0  0
   36.6140   23.7640   40.6760 C   0  0  0  0  0  0  0  0  0  0  0  0
   36.6280   22.7520   41.0490 H   0  0  0  0  0  0  0  0  0  0  0  0
   36.2010   23.9980   39.3710 C   0  0  0  0  0  3  0  0  0  0  0  0
   36.1320   25.2510   38.7530 C   0  0  0  0  0  3  0  0  0  0  0  0
   36.5070   26.2900   39.5270 N   0  0  0  0  0  0  0  0  0  0  0  0
  2  3  1  0  0  0  0
  2  1  1  0  0  0  0
  3 31  1  0  0  0  0
  4  8  1  0  0  0  0
  4  3  2  0  0  0  0
  5  4  1  0  0  0  0
  6  5  2  0  0  0  0
  6  7  1  0  0  0  0
  7  2  2  0  0  0  0
  9  5  1  0  0  0  0
 10  6  1  0  0  0  0
 11  7  1  0  0  0  0
 11 12  1  0  0  0  0
 12 13  1  0  0  0  0
 12 17  1  0  0  0  0
 13 19  1  0  0  0  0
 14 20  1  0  0  0  0
 14 13  1  0  0  0  0
 15 22  1  6  0  0  0
 15 11  1  0  0  0  0
 15 14  1  0  0  0  0
 16 12  1  0  0  0  0
 18 13  1  0  0  0  0
 21 14  1  0  0  0  0
 23 24  1  0  0  0  0
 23 15  1  0  0  0  0
 25 23  1  0  0  0  0
 26 23  1  0  0  0  0
 27 33  1  0  0  0  0
 28 34  1  0  0  0  0
 28 27  2  0  0  0  0
 29 28  1  0  0  0  0
 30 29  2  0  0  0  0
 30 31  1  0  0  0  0
 31 32  2  0  0  0  0
 32 27  1  0  0  0  0
 35 36  1  0  0  0  0
 35 29  1  0  0  0  0
 36 37  1  0  0  0  0
 38 39  1  0  0  0  0
 38 36  2  0  0  0  0
 40 38  1  0  0  0  0
 41 40  2  0  0  0  0
 41 42  1  0  0  0  0
 42 35  2  0  0  0  0
M  END
>  <minimizedAffinity>
-6.14470911

$$$$

 OpenBabel03252505263D

 42 45  0  0  1  0  0  0  0  0999 V2000
   37.8440   28.2270   39.6800 F   0  0  0  0  0  0  0  0  0  0  0  0
   37.7150   28.1020   41.0360 C   0  0  0  0  0  0  0  0  0  0  0  0
   37.7290   29.2440   41.7960 C   0  0  0  0  0  0  0  0  0  0  0  0
   37.6010   29.1130   43.1440 C   0  0  0  0  0  0  0  0  0  0  0  0
   37.4620   27.8470   43.7000 C   0  0  0  0  0  0  0  0  0  0  0  0
   37.4480   26.7050   42.9440 C   0  0  0  0  0  0  0  0  0  0  0  0
   37.5810   26.8550   41.5630 C   0  0  0  0  0  0  0  0  0  0  0  0
   37.6090   30.0050   43.7570 H   0  0  0  0  0  0  0  0  0  0  0  0
   37.3630   27.8030   44.7920 H   0  0  0  0  0  0  0  0  0  0  0  0
   37.3380   25.7320   43.4070 H   0  0  0  0  0  0  0  0  0  0  0  0
   37.5610   25.6440   40.8130 N   0  0  0  0  0  0  0  0  0  0  0  0
   38.5210   24.5710   40.7260 C   0  0  0  0  0  0  0  0  0  0  0  0
   37.6590   23.3240   40.9280 C   0  0  0  0  0  0  0  0  0  0  0  0
   36.2750   23.7780   40.5380 C   0  0  0  0  0  0  0  0  0  0  0  0
   36.5630   25.1150   39.9030 C   0  0  2  0  0  0  0  0  0  0  0  0
   39.0610   24.5550   39.7630 H   0  0  0  0  0  0  0  0  0  0  0  0
   39.1870   24.6630   41.5880 H   0  0  0  0  0  0  0  0  0  0  0  0
   37.9870   22.5160   40.2290 H   0  0  0  0  0  0  0  0  0  0  0  0
   37.6270   22.9940   41.9700 H   0  0  0  0  0  0  0  0  0  0  0  0
   35.6490   23.9830   41.4310 H   0  0  0  0  0  0  0  0  0  0  0  0
   35.7940   23.1260   39.7920 H   0  0  0  0  0  0  0  0  0  0  0  0
   35.6970   25.8240   39.9600 H   0  0  0  0  0  0  0  0  0  0  0  0
   37.0020   25.0400   38.4890 C   0  0  0  0  0  0  0  0  0  0  0  0
   37.0970   23.9950   38.1760 H   0  0  0  0  0  0  0  0  0  0  0  0
   36.2750   25.5290   37.7830 H   0  0  0  0  0  0  0  0  0  0  0  0
   37.9750   25.5310   38.2820 H   0  0  0  0  0  0  0  0  0  0  0  0
   36.9590   32.3710   40.0510 C   0  0  0  0  0  0  0  0  0  0  0  0
   38.1970   33.0160   39.9590 C   0  0  0  0  0  0  0  0  0  0  0  0
   39.2680   32.3260   40.5180 C   0  0  0  0  0  0  0  0  0  0  0  0
   39.0690   31.1270   41.0920 N   0  0  0  0  0  0  0  0  0  0  0  0
   37.8760   30.5380   41.1640 C   0  0  0  0  0  0  0  0  0  0  0  0
   36.8030   31.1610   40.6390 N   0  0  0  0  0  0  0  0  0  0  0  0
   36.0470   32.8190   39.6470 H   0  0  0  0  0  0  0  0  0  0  0  0
   38.2830   33.9690   39.4890 H   0  0  0  0  0  0  0  0  0  0  0  0
   40.6000   32.9170   40.4720 C   0  0  0  0  0  0  0  0  0  0  0  0
   40.8480   33.9550   39.5970 C   0  0  0  0  0  0  0  0  0  0  0  0
   40.0670   34.3330   38.9510 H   0  0  0  0  0  0  0  0  0  0  0  0
   42.0890   34.5360   39.5280 C   0  0  0  0  0  0  0  0  0  0  0  0
   42.3730   35.3480   38.8780 H   0  0  0  0  0  0  0  0  0  0  0  0
   43.0360   33.9970   40.3890 C   0  0  0  0  0  3  0  0  0  0  0  0
   42.8160   32.9460   41.2850 C   0  0  0  0  0  3  0  0  0  0  0  0
   41.5640   32.4440   41.2780 N   0  0  0  0  0  0  0  0  0  0  0  0
  1  2  1  0  0  0  0
  2  7  2  0  0  0  0
  2  3  1  0  0  0  0
  3  4  2  0  0  0  0
  4  5  1  0  0  0  0
  4  8  1  0  0  0  0
  5  9  1  0  0  0  0
  6 10  1  0  0  0  0
  6  5  2  0  0  0  0
  7  6  1  0  0  0  0
 11  7  1  0  0  0  0
 12 11  1  0  0  0  0
 12 13  1  0  0  0  0
 12 17  1  0  0  0  0
 13 19  1  0  0  0  0
 14 13  1  0  0  0  0
 14 20  1  0  0  0  0
 15 22  1  1  0  0  0
 15 14  1  0  0  0  0
 15 11  1  0  0  0  0
 16 12  1  0  0  0  0
 18 13  1  0  0  0  0
 21 14  1  0  0  0  0
 23 15  1  0  0  0  0
 24 23  1  0  0  0  0
 25 23  1  0  0  0  0
 26 23  1  0  0  0  0
 27 32  1  0  0  0  0
 28 27  2  0  0  0  0
 28 29  1  0  0  0  0
 29 30  2  0  0  0  0
 30 31  1  0  0  0  0
 31  3  1  0  0  0  0
 32 31  2  0  0  0  0
 33 27  1  0  0  0  0
 34 28  1  0  0  0  0
 35 29  1  0  0  0  0
 35 42  1  0  0  0  0
 36 35  2  0  0  0  0
 37 36  1  0  0  0  0
 38 36  1  0  0  0  0
 38 40  2  0  0  0  0
 39 38  1  0  0  0  0
 40 41  1  0  0  0  0
 42 41  2  0  0  0  0
M  END
>  <minimizedAffinity>
-6.07717419

$$$$

 OpenBabel03252505263D

 42 45  0  0  1  0  0  0  0  0999 V2000
   39.6850   30.3700   38.1580 F   0  0  0  0  0  0  0  0  0  0  0  0
   39.0910   31.4160   38.8090 C   0  0  0  0  0  0  0  0  0  0  0  0
   37.7720   31.2950   39.1630 C   0  0  0  0  0  0  0  0  0  0  0  0
   37.1860   32.3380   39.8090 C   0  0  0  0  0  0  0  0  0  0  0  0
   37.9330   33.4780   40.0880 C   0  0  0  0  0  0  0  0  0  0  0  0
   39.2510   33.6020   39.7370 C   0  0  0  0  0  0  0  0  0  0  0  0
   39.8370   32.5230   39.0740 C   0  0  0  0  0  0  0  0  0  0  0  0
   36.1460   32.2570   40.0950 H   0  0  0  0  0  0  0  0  0  0  0  0
   37.4080   34.2870   40.6120 H   0  0  0  0  0  0  0  0  0  0  0  0
   39.8050   34.5030   39.9680 H   0  0  0  0  0  0  0  0  0  0  0  0
   41.2080   32.6930   38.7270 N   0  0  0  0  0  0  0  0  0  0  0  0
   42.4130   32.3450   39.4380 C   0  0  0  0  0  0  0  0  0  0  0  0
   43.2380   31.6160   38.3770 C   0  0  0  0  0  0  0  0  0  0  0  0
   42.6770   32.1270   37.0740 C   0  0  0  0  0  0  0  0  0  0  0  0
   41.8160   33.2720   37.5440 C   0  0  2  0  0  0  0  0  0  0  0  0
   42.9410   33.2240   39.8480 H   0  0  0  0  0  0  0  0  0  0  0  0
   42.1350   31.6170   40.2060 H   0  0  0  0  0  0  0  0  0  0  0  0
   44.3110   31.9180   38.4540 H   0  0  0  0  0  0  0  0  0  0  0  0
   43.1020   30.5320   38.4020 H   0  0  0  0  0  0  0  0  0  0  0  0
   41.9910   31.3880   36.6100 H   0  0  0  0  0  0  0  0  0  0  0  0
   43.4460   32.5180   36.3890 H   0  0  0  0  0  0  0  0  0  0  0  0
   40.9670   33.4980   36.8480 H   0  0  0  0  0  0  0  0  0  0  0  0
   42.5550   34.5340   37.7900 C   0  0  0  0  0  0  0  0  0  0  0  0
   43.6280   34.3810   37.6400 H   0  0  0  0  0  0  0  0  0  0  0  0
   42.2400   35.3620   37.0970 H   0  0  0  0  0  0  0  0  0  0  0  0
   42.4260   34.9510   38.8100 H   0  0  0  0  0  0  0  0  0  0  0  0
   35.5540   28.9040   37.4930 C   0  0  0  0  0  0  0  0  0  0  0  0
   35.6570   27.7500   38.2750 C   0  0  0  0  0  0  0  0  0  0  0  0
   36.5090   27.8500   39.3710 C   0  0  0  0  0  0  0  0  0  0  0  0
   37.1610   29.0010   39.6130 N   0  0  0  0  0  0  0  0  0  0  0  0
   37.0420   30.0850   38.8470 C   0  0  0  0  0  0  0  0  0  0  0  0
   36.2300   30.0450   37.7720 N   0  0  0  0  0  0  0  0  0  0  0  0
   34.9150   28.9420   36.6060 H   0  0  0  0  0  0  0  0  0  0  0  0
   35.1100   26.8700   38.0260 H   0  0  0  0  0  0  0  0  0  0  0  0
   36.6820   26.6980   40.2480 C   0  0  0  0  0  0  0  0  0  0  0  0
   37.0070   26.9020   41.5730 C   0  0  0  0  0  0  0  0  0  0  0  0
   37.1320   27.9020   41.9650 H   0  0  0  0  0  0  0  0  0  0  0  0
   37.1760   25.8400   42.4270 C   0  0  0  0  0  0  0  0  0  0  0  0
   37.4300   25.9040   43.4730 H   0  0  0  0  0  0  0  0  0  0  0  0
   36.9980   24.5900   41.8500 C   0  0  0  0  0  3  0  0  0  0  0  0
   36.6700   24.3530   40.5110 C   0  0  0  0  0  3  0  0  0  0  0  0
   36.5240   25.4600   39.7540 N   0  0  0  0  0  0  0  0  0  0  0  0
  1  2  1  0  0  0  0
  2  7  2  0  0  0  0
  2  3  1  0  0  0  0
  3  4  2  0  0  0  0
  4  5  1  0  0  0  0
  4  8  1  0  0  0  0
  5  9  1  0  0  0  0
  6 10  1  0  0  0  0
  6  5  2  0  0  0  0
  7  6  1  0  0  0  0
 11  7  1  0  0  0  0
 11 12  1  0  0  0  0
 12 16  1  0  0  0  0
 12 17  1  0  0  0  0
 13 19  1  0  0  0  0
 13 18  1  0  0  0  0
 13 12  1  0  0  0  0
 14 15  1  0  0  0  0
 14 13  1  0  0  0  0
 15 22  1  6  0  0  0
 15 23  1  0  0  0  0
 15 11  1  0  0  0  0
 20 14  1  0  0  0  0
 21 14  1  0  0  0  0
 23 26  1  0  0  0  0
 24 23  1  0  0  0  0
 25 23  1  0  0  0  0
 27 32  2  0  0  0  0
 27 28  1  0  0  0  0
 28 29  2  0  0  0  0
 29 30  1  0  0  0  0
 29 35  1  0  0  0  0
 31  3  1  0  0  0  0
 31 30  2  0  0  0  0
 32 31  1  0  0  0  0
 33 27  1  0  0  0  0
 34 28  1  0  0  0  0
 35 36  1  0  0  0  0
 36 37  1  0  0  0  0
 36 38  2  0  0  0  0
 38 39  1  0  0  0  0
 40 38  1  0  0  0  0
 41 40  2  0  0  0  0
 42 35  2  0  0  0  0
 42 41  1  0  0  0  0
M  END
>  <minimizedAffinity>
-5.9007206

$$$$

 OpenBabel03252505263D

 42 45  0  0  1  0  0  0  0  0999 V2000
   39.7960   31.3110   39.1870 F   0  0  0  0  0  0  0  0  0  0  0  0
   40.3890   31.3100   40.4200 C   0  0  0  0  0  0  0  0  0  0  0  0
   39.7010   30.7550   41.4680 C   0  0  0  0  0  0  0  0  0  0  0  0
   40.2940   30.7560   42.6920 C   0  0  0  0  0  0  0  0  0  0  0  0
   41.5610   31.3100   42.8390 C   0  0  0  0  0  0  0  0  0  0  0  0
   42.2510   31.8650   41.7940 C   0  0  0  0  0  0  0  0  0  0  0  0
   41.6280   31.8560   40.5450 C   0  0  0  0  0  0  0  0  0  0  0  0
   39.7650   30.3210   43.5290 H   0  0  0  0  0  0  0  0  0  0  0  0
   41.9900   31.2830   43.8490 H   0  0  0  0  0  0  0  0  0  0  0  0
   43.2360   32.2900   41.9410 H   0  0  0  0  0  0  0  0  0  0  0  0
   42.3790   32.4430   39.4860 N   0  0  0  0  0  0  0  0  0  0  0  0
   42.9270   31.8650   38.2840 C   0  0  0  0  0  0  0  0  0  0  0  0
   42.4670   32.8360   37.1960 C   0  0  0  0  0  0  0  0  0  0  0  0
   42.2170   34.1200   37.9460 C   0  0  0  0  0  0  0  0  0  0  0  0
   42.8250   33.8090   39.2900 C   0  0  2  0  0  0  0  0  0  0  0  0
   44.0270   31.7630   38.3170 H   0  0  0  0  0  0  0  0  0  0  0  0
   42.4160   30.9120   38.1220 H   0  0  0  0  0  0  0  0  0  0  0  0
   43.2910   33.0010   36.4590 H   0  0  0  0  0  0  0  0  0  0  0  0
   41.5310   32.5320   36.7220 H   0  0  0  0  0  0  0  0  0  0  0  0
   41.1330   34.2820   38.1220 H   0  0  0  0  0  0  0  0  0  0  0  0
   42.7360   34.9900   37.5130 H   0  0  0  0  0  0  0  0  0  0  0  0
   42.3670   34.3980   40.1270 H   0  0  0  0  0  0  0  0  0  0  0  0
   44.2950   33.9890   39.3540 C   0  0  0  0  0  0  0  0  0  0  0  0
   44.6870   34.2630   38.3700 H   0  0  0  0  0  0  0  0  0  0  0  0
   44.6020   34.8020   40.0680 H   0  0  0  0  0  0  0  0  0  0  0  0
   44.8550   33.0900   39.6880 H   0  0  0  0  0  0  0  0  0  0  0  0
   36.0920   30.4550   40.9120 C   0  0  0  0  0  0  0  0  0  0  0  0
   35.8760   29.0740   40.8600 C   0  0  0  0  0  0  0  0  0  0  0  0
   37.0130   28.2890   41.0220 C   0  0  0  0  0  0  0  0  0  0  0  0
   38.2100   28.8700   41.2130 N   0  0  0  0  0  0  0  0  0  0  0  0
   38.3840   30.1900   41.2580 C   0  0  0  0  0  0  0  0  0  0  0  0
   37.3170   31.0000   41.1070 N   0  0  0  0  0  0  0  0  0  0  0  0
   35.2730   31.1690   40.7970 H   0  0  0  0  0  0  0  0  0  0  0  0
   34.8980   28.6790   40.7050 H   0  0  0  0  0  0  0  0  0  0  0  0
   36.8890   26.8360   40.9820 C   0  0  0  0  0  0  0  0  0  0  0  0
   37.1100   26.1090   42.1330 C   0  0  0  0  0  0  0  0  0  0  0  0
   37.3720   26.6030   43.0590 H   0  0  0  0  0  0  0  0  0  0  0  0
   37.0010   24.7400   42.1330 C   0  0  0  0  0  0  0  0  0  0  0  0
   37.1560   24.0930   42.9810 H   0  0  0  0  0  0  0  0  0  0  0  0
   36.6610   24.1810   40.9080 C   0  0  0  0  0  3  0  0  0  0  0  0
   36.4320   24.8920   39.7250 C   0  0  0  0  0  3  0  0  0  0  0  0
   36.5630   26.2300   39.8300 N   0  0  0  0  0  0  0  0  0  0  0  0
  1  2  1  0  0  0  0
  2  7  2  0  0  0  0
  2  3  1  0  0  0  0
  3  4  2  0  0  0  0
  4  5  1  0  0  0  0
  4  8  1  0  0  0  0
  5  9  1  0  0  0  0
  6 10  1  0  0  0  0
  6  5  2  0  0  0  0
  7  6  1  0  0  0  0
 11  7  1  0  0  0  0
 12 16  1  0  0  0  0
 12 11  1  0  0  0  0
 13 14  1  0  0  0  0
 13 12  1  0  0  0  0
 14 20  1  0  0  0  0
 14 15  1  0  0  0  0
 15 23  1  0  0  0  0
 15 11  1  0  0  0  0
 15 22  1  1  0  0  0
 17 12  1  0  0  0  0
 18 13  1  0  0  0  0
 19 13  1  0  0  0  0
 21 14  1  0  0  0  0
 23 26  1  0  0  0  0
 23 25  1  0  0  0  0
 24 23  1  0  0  0  0
 27 32  1  0  0  0  0
 28 27  2  0  0  0  0
 28 29  1  0  0  0  0
 29 30  2  0  0  0  0
 30 31  1  0  0  0  0
 31  3  1  0  0  0  0
 32 31  2  0  0  0  0
 33 27  1  0  0  0  0
 34 28  1  0  0  0  0
 35 29  1  0  0  0  0
 35 36  1  0  0  0  0
 36 38  2  0  0  0  0
 36 37  1  0  0  0  0
 38 39  1  0  0  0  0
 40 38  1  0  0  0  0
 41 42  1  0  0  0  0
 41 40  2  0  0  0  0
 42 35  2  0  0  0  0
M  END
>  <minimizedAffinity>
-5.88871527

$$$$

 OpenBabel03252505263D

 42 45  0  0  1  0  0  0  0  0999 V2000
   40.1430   30.0780   40.5760 F   0  0  0  0  0  0  0  0  0  0  0  0
   39.1480   30.9870   40.3390 C   0  0  0  0  0  0  0  0  0  0  0  0
   37.8890   30.7040   40.8020 C   0  0  0  0  0  0  0  0  0  0  0  0
   36.9040   31.6100   40.5640 C   0  0  0  0  0  0  0  0  0  0  0  0
   37.2000   32.7780   39.8680 C   0  0  0  0  0  0  0  0  0  0  0  0
   38.4560   33.0630   39.4040 C   0  0  0  0  0  0  0  0  0  0  0  0
   39.4560   32.1220   39.6570 C   0  0  0  0  0  0  0  0  0  0  0  0
   35.9050   31.4020   40.9240 H   0  0  0  0  0  0  0  0  0  0  0  0
   36.3650   33.4720   39.7050 H   0  0  0  0  0  0  0  0  0  0  0  0
   38.6550   33.9810   38.8650 H   0  0  0  0  0  0  0  0  0  0  0  0
   40.7480   32.4570   39.1580 N   0  0  0  0  0  0  0  0  0  0  0  0
   41.3370   32.2650   37.8550 C   0  0  0  0  0  0  0  0  0  0  0  0
   41.9220   33.6410   37.5380 C   0  0  0  0  0  0  0  0  0  0  0  0
   42.1040   34.2740   38.8940 C   0  0  0  0  0  0  0  0  0  0  0  0
   41.8730   33.0990   39.8100 C   0  0  2  0  0  0  0  0  0  0  0  0
   42.1040   31.4700   37.8430 H   0  0  0  0  0  0  0  0  0  0  0  0
   40.5170   32.0790   37.1550 H   0  0  0  0  0  0  0  0  0  0  0  0
   42.9230   33.5280   37.0530 H   0  0  0  0  0  0  0  0  0  0  0  0
   41.2410   34.2700   36.9590 H   0  0  0  0  0  0  0  0  0  0  0  0
   41.2980   35.0050   39.1130 H   0  0  0  0  0  0  0  0  0  0  0  0
   43.1210   34.6630   39.0640 H   0  0  0  0  0  0  0  0  0  0  0  0
   41.5030   33.3980   40.8250 H   0  0  0  0  0  0  0  0  0  0  0  0
   43.0560   32.2230   39.9940 C   0  0  0  0  0  0  0  0  0  0  0  0
   43.8830   32.5660   39.3650 H   0  0  0  0  0  0  0  0  0  0  0  0
   43.4290   32.2150   41.0550 H   0  0  0  0  0  0  0  0  0  0  0  0
   42.8810   31.1550   39.7460 H   0  0  0  0  0  0  0  0  0  0  0  0
   37.4420   28.2930   43.5250 C   0  0  0  0  0  0  0  0  0  0  0  0
   37.1490   27.0960   42.8650 C   0  0  0  0  0  0  0  0  0  0  0  0
   37.1180   27.1750   41.4770 C   0  0  0  0  0  0  0  0  0  0  0  0
   37.3610   28.3470   40.8650 N   0  0  0  0  0  0  0  0  0  0  0  0
   37.6370   29.4730   41.5210 C   0  0  0  0  0  0  0  0  0  0  0  0
   37.6800   29.4550   42.8680 N   0  0  0  0  0  0  0  0  0  0  0  0
   37.4930   28.3520   44.6150 H   0  0  0  0  0  0  0  0  0  0  0  0
   36.9670   26.2000   43.4140 H   0  0  0  0  0  0  0  0  0  0  0  0
   36.8210   25.9770   40.7000 C   0  0  0  0  0  0  0  0  0  0  0  0
   36.4200   26.1070   39.3860 C   0  0  0  0  0  0  0  0  0  0  0  0
   36.3250   27.0830   38.9300 H   0  0  0  0  0  0  0  0  0  0  0  0
   36.1340   25.0010   38.6250 C   0  0  0  0  0  0  0  0  0  0  0  0
   35.8150   25.0060   37.5960 H   0  0  0  0  0  0  0  0  0  0  0  0
   36.2800   23.7850   39.2810 C   0  0  0  0  0  3  0  0  0  0  0  0
   36.6840   23.6230   40.6110 C   0  0  0  0  0  3  0  0  0  0  0  0
   36.9420   24.7690   41.2730 N   0  0  0  0  0  0  0  0  0  0  0  0
  2  1  1  0  0  0  0
  2  3  1  0  0  0  0
  3 31  1  0  0  0  0
  4  3  2  0  0  0  0
  4  8  1  0  0  0  0
  5  4  1  0  0  0  0
  6  7  1  0  0  0  0
  6  5  2  0  0  0  0
  7  2  2  0  0  0  0
  9  5  1  0  0  0  0
 10  6  1  0  0  0  0
 11  7  1  0  0  0  0
 11 15  1  0  0  0  0
 12 11  1  0  0  0  0
 13 12  1  0  0  0  0
 13 14  1  0  0  0  0
 14 21  1  0  0  0  0
 14 20  1  0  0  0  0
 14 15  1  0  0  0  0
 15 23  1  0  0  0  0
 15 22  1  1  0  0  0
 16 12  1  0  0  0  0
 17 12  1  0  0  0  0
 18 13  1  0  0  0  0
 19 13  1  0  0  0  0
 23 25  1  0  0  0  0
 24 23  1  0  0  0  0
 26 23  1  0  0  0  0
 27 33  1  0  0  0  0
 28 34  1  0  0  0  0
 28 27  2  0  0  0  0
 29 28  1  0  0  0  0
 30 29  2  0  0  0  0
 30 31  1  0  0  0  0
 31 32  2  0  0  0  0
 32 27  1  0  0  0  0
 35 42  1  0  0  0  0
 35 29  1  0  0  0  0
 36 35  2  0  0  0  0
 37 36  1  0  0  0  0
 38 40  2  0  0  0  0
 38 36  1  0  0  0  0
 39 38  1  0  0  0  0
 40 41  1  0  0  0  0
 41 42  2  0  0  0  0
M  END
>  <minimizedAffinity>
-5.86429214

$$$$

 OpenBabel03252505263D

 42 45  0  0  1  0  0  0  0  0999 V2000
   32.7430   29.2860   39.1660 F   0  0  0  0  0  0  0  0  0  0  0  0
   33.3430   29.1690   37.9420 C   0  0  0  0  0  0  0  0  0  0  0  0
   34.6710   28.8300   37.9020 C   0  0  0  0  0  0  0  0  0  0  0  0
   35.2630   28.7150   36.6830 C   0  0  0  0  0  0  0  0  0  0  0  0
   34.5140   28.9400   35.5330 C   0  0  0  0  0  0  0  0  0  0  0  0
   33.1880   29.2780   35.5700 C   0  0  0  0  0  0  0  0  0  0  0  0
   32.5950   29.3930   36.8290 C   0  0  0  0  0  0  0  0  0  0  0  0
   36.3100   28.4470   36.6340 H   0  0  0  0  0  0  0  0  0  0  0  0
   35.0440   28.8330   34.5780 H   0  0  0  0  0  0  0  0  0  0  0  0
   32.6310   29.4480   34.6560 H   0  0  0  0  0  0  0  0  0  0  0  0
   31.2150   29.7460   36.8220 N   0  0  0  0  0  0  0  0  0  0  0  0
   30.0300   28.9280   36.7420 C   0  0  0  0  0  0  0  0  0  0  0  0
   29.1660   29.4640   37.8830 C   0  0  0  0  0  0  0  0  0  0  0  0
   29.6890   30.8610   38.1020 C   0  0  0  0  0  0  0  0  0  0  0  0
   30.5740   31.0450   36.8960 C   0  0  2  0  0  0  0  0  0  0  0  0
   29.5230   28.9990   35.7630 H   0  0  0  0  0  0  0  0  0  0  0  0
   30.3270   27.9060   36.9960 H   0  0  0  0  0  0  0  0  0  0  0  0
   28.0980   29.5230   37.5580 H   0  0  0  0  0  0  0  0  0  0  0  0
   29.2930   28.9040   38.8130 H   0  0  0  0  0  0  0  0  0  0  0  0
   30.3540   30.9110   38.9890 H   0  0  0  0  0  0  0  0  0  0  0  0
   28.9020   31.6320   38.0870 H   0  0  0  0  0  0  0  0  0  0  0  0
   31.4030   31.7810   37.0660 H   0  0  0  0  0  0  0  0  0  0  0  0
   29.8540   31.4440   35.6630 C   0  0  0  0  0  0  0  0  0  0  0  0
   28.7750   31.4730   35.8450 H   0  0  0  0  0  0  0  0  0  0  0  0
   30.1530   32.4650   35.2970 H   0  0  0  0  0  0  0  0  0  0  0  0
   30.0190   30.7710   34.7950 H   0  0  0  0  0  0  0  0  0  0  0  0
   36.2720   29.3890   41.1490 C   0  0  0  0  0  0  0  0  0  0  0  0
   36.8140   28.1420   41.4740 C   0  0  0  0  0  0  0  0  0  0  0  0
   36.5960   27.1380   40.5350 C   0  0  0  0  0  0  0  0  0  0  0  0
   35.9080   27.4060   39.4120 N   0  0  0  0  0  0  0  0  0  0  0  0
   35.4040   28.6070   39.1310 C   0  0  0  0  0  0  0  0  0  0  0  0
   35.5840   29.6170   40.0040 N   0  0  0  0  0  0  0  0  0  0  0  0
   36.3800   30.2530   41.8110 H   0  0  0  0  0  0  0  0  0  0  0  0
   37.3500   27.9990   42.3840 H   0  0  0  0  0  0  0  0  0  0  0  0
   37.1230   25.8010   40.7850 C   0  0  0  0  0  0  0  0  0  0  0  0
   36.5750   24.7250   40.1190 C   0  0  0  0  0  0  0  0  0  0  0  0
   35.7640   24.8630   39.4170 H   0  0  0  0  0  0  0  0  0  0  0  0
   37.0470   23.4530   40.3290 C   0  0  0  0  0  0  0  0  0  0  0  0
   36.6810   22.5560   39.8550 H   0  0  0  0  0  0  0  0  0  0  0  0
   38.0880   23.3580   41.2420 C   0  0  0  0  0  3  0  0  0  0  0  0
   38.6640   24.4300   41.9320 C   0  0  0  0  0  3  0  0  0  0  0  0
   38.1310   25.6380   41.6570 N   0  0  0  0  0  0  0  0  0  0  0  0
  2  1  1  0  0  0  0
  3  2  1  0  0  0  0
  3 31  1  0  0  0  0
  4  3  2  0  0  0  0
  5  6  2  0  0  0  0
  5  4  1  0  0  0  0
  6  7  1  0  0  0  0
  7  2  2  0  0  0  0
  8  4  1  0  0  0  0
  9  5  1  0  0  0  0
 10  6  1  0  0  0  0
 11  7  1  0  0  0  0
 11 15  1  0  0  0  0
 12 11  1  0  0  0  0
 12 17  1  0  0  0  0
 12 13  1  0  0  0  0
 13 14  1  0  0  0  0
 13 19  1  0  0  0  0
 14 20  1  0  0  0  0
 15 22  1  1  0  0  0
 15 14  1  0  0  0  0
 16 12  1  0  0  0  0
 18 13  1  0  0  0  0
 21 14  1  0  0  0  0
 23 24  1  0  0  0  0
 23 15  1  0  0  0  0
 25 23  1  0  0  0  0
 26 23  1  0  0  0  0
 27 28  1  0  0  0  0
 27 33  1  0  0  0  0
 28 34  1  0  0  0  0
 29 35  1  0  0  0  0
 29 28  2  0  0  0  0
 30 29  1  0  0  0  0
 31 30  2  0  0  0  0
 31 32  1  0  0  0  0
 32 27  2  0  0  0  0
 35 42  1  0  0  0  0
 36 38  1  0  0  0  0
 36 35  2  0  0  0  0
 37 36  1  0  0  0  0
 38 40  2  0  0  0  0
 39 38  1  0  0  0  0
 40 41  1  0  0  0  0
 42 41  2  0  0  0  0
M  END
>  <minimizedAffinity>
-5.75314665

$$$$

 OpenBabel03252505263D

 42 45  0  0  1  0  0  0  0  0999 V2000
   40.1790   30.0100   41.1670 F   0  0  0  0  0  0  0  0  0  0  0  0
   38.9580   30.2630   40.6040 C   0  0  0  0  0  0  0  0  0  0  0  0
   38.8940   31.1700   39.5770 C   0  0  0  0  0  0  0  0  0  0  0  0
   37.6790   31.4190   39.0210 C   0  0  0  0  0  0  0  0  0  0  0  0
   36.5560   30.7550   39.5020 C   0  0  0  0  0  0  0  0  0  0  0  0
   36.6160   29.8490   40.5270 C   0  0  0  0  0  0  0  0  0  0  0  0
   37.8710   29.6050   41.0870 C   0  0  0  0  0  0  0  0  0  0  0  0
   37.6120   32.1320   38.2090 H   0  0  0  0  0  0  0  0  0  0  0  0
   35.6020   30.9960   39.0150 H   0  0  0  0  0  0  0  0  0  0  0  0
   35.7230   29.3480   40.8800 H   0  0  0  0  0  0  0  0  0  0  0  0
   37.8890   28.6560   42.1500 N   0  0  0  0  0  0  0  0  0  0  0  0
   37.5230   28.7850   43.5390 C   0  0  0  0  0  0  0  0  0  0  0  0
   36.6180   27.5730   43.7670 C   0  0  0  0  0  0  0  0  0  0  0  0
   37.0290   26.6100   42.6830 C   0  0  0  0  0  0  0  0  0  0  0  0
   38.2850   27.2600   42.1600 C   0  0  2  0  0  0  0  0  0  0  0  0
   38.3960   28.7890   44.2160 H   0  0  0  0  0  0  0  0  0  0  0  0
   36.9080   29.6850   43.6280 H   0  0  0  0  0  0  0  0  0  0  0  0
   36.8390   27.1150   44.7620 H   0  0  0  0  0  0  0  0  0  0  0  0
   35.5580   27.8020   43.6330 H   0  0  0  0  0  0  0  0  0  0  0  0
   36.3040   26.6100   41.8430 H   0  0  0  0  0  0  0  0  0  0  0  0
   37.2800   25.6050   43.0600 H   0  0  0  0  0  0  0  0  0  0  0  0
   38.5030   27.0010   41.0920 H   0  0  0  0  0  0  0  0  0  0  0  0
   39.5020   26.9740   42.9580 C   0  0  0  0  0  0  0  0  0  0  0  0
   39.2460   26.3770   43.8390 H   0  0  0  0  0  0  0  0  0  0  0  0
   40.2730   26.3950   42.3800 H   0  0  0  0  0  0  0  0  0  0  0  0
   40.0360   27.8760   43.3220 H   0  0  0  0  0  0  0  0  0  0  0  0
   41.4120   32.6790   37.3850 C   0  0  0  0  0  0  0  0  0  0  0  0
   42.4110   33.1040   38.2660 C   0  0  0  0  0  0  0  0  0  0  0  0
   42.1650   32.8450   39.6110 C   0  0  0  0  0  0  0  0  0  0  0  0
   41.0300   32.2260   39.9800 N   0  0  0  0  0  0  0  0  0  0  0  0
   40.0960   31.8330   39.1150 C   0  0  0  0  0  0  0  0  0  0  0  0
   40.2810   32.0580   37.7990 N   0  0  0  0  0  0  0  0  0  0  0  0
   41.4960   32.8280   36.3050 H   0  0  0  0  0  0  0  0  0  0  0  0
   43.2890   33.5890   37.9040 H   0  0  0  0  0  0  0  0  0  0  0  0
   43.1500   33.2510   40.6070 C   0  0  0  0  0  0  0  0  0  0  0  0
   43.0700   32.7350   41.8840 C   0  0  0  0  0  0  0  0  0  0  0  0
   42.2890   32.0350   42.1500 H   0  0  0  0  0  0  0  0  0  0  0  0
   43.9800   33.0940   42.8460 C   0  0  0  0  0  0  0  0  0  0  0  0
   43.9950   32.7430   43.8650 H   0  0  0  0  0  0  0  0  0  0  0  0
   44.9500   33.9950   42.4270 C   0  0  0  0  0  3  0  0  0  0  0  0
   45.0560   34.5350   41.1410 C   0  0  0  0  0  3  0  0  0  0  0  0
   44.1160   34.1200   40.2690 N   0  0  0  0  0  0  0  0  0  0  0  0
  2  7  1  0  0  0  0
  2  1  1  0  0  0  0
  3  2  2  0  0  0  0
  4  5  2  0  0  0  0
  4  3  1  0  0  0  0
  5  6  1  0  0  0  0
  6 10  1  0  0  0  0
  6  7  2  0  0  0  0
  7 11  1  0  0  0  0
  8  4  1  0  0  0  0
  9  5  1  0  0  0  0
 11 15  1  0  0  0  0
 11 12  1  0  0  0  0
 12 17  1  0  0  0  0
 12 13  1  0  0  0  0
 12 16  1  0  0  0  0
 13 18  1  0  0  0  0
 14 21  1  0  0  0  0
 14 13  1  0  0  0  0
 15 22  1  6  0  0  0
 15 14  1  0  0  0  0
 15 23  1  0  0  0  0
 19 13  1  0  0  0  0
 20 14  1  0  0  0  0
 23 26  1  0  0  0  0
 23 24  1  0  0  0  0
 25 23  1  0  0  0  0
 27 32  2  0  0  0  0
 27 28  1  0  0  0  0
 28 29  2  0  0  0  0
 29 30  1  0  0  0  0
 29 35  1  0  0  0  0
 31  3  1  0  0  0  0
 31 30  2  0  0  0  0
 32 31  1  0  0  0  0
 33 27  1  0  0  0  0
 34 28  1  0  0  0  0
 35 36  1  0  0  0  0
 36 37  1  0  0  0  0
 36 38  2  0  0  0  0
 38 39  1  0  0  0  0
 40 38  1  0  0  0  0
 41 40  2  0  0  0  0
 42 35  2  0  0  0  0
 42 41  1  0  0  0  0
M  END
>  <minimizedAffinity>
-5.62648964

$$$$
