
 OpenBabel03242521403D

 20 21  0  0  0  0  0  0  0  0999 V2000
   37.6660   28.1890   43.0960 C   0  0  0  0  0  0  0  0  0  0  0  0
   37.4190   29.3700   42.3830 C   0  0  0  0  0  0  0  0  0  0  0  0
   38.5290   30.0770   41.9150 C   0  0  0  0  0  0  0  0  0  0  0  0
   39.7690   29.6100   42.1580 N   0  0  0  0  0  0  0  0  0  0  0  0
   39.9640   28.4530   42.8580 C   0  0  0  0  0  0  0  0  0  0  0  0
   38.9190   27.7510   43.3220 N   0  0  0  0  0  0  0  0  0  0  0  0
   36.4360   29.7250   42.1990 H   0  0  0  0  0  0  0  0  0  0  0  0
   40.9850   28.1190   43.0280 H   0  0  0  0  0  0  0  0  0  0  0  0
   38.3210   31.3120   41.1680 C   0  0  0  0  0  0  0  0  0  0  0  0
   37.2450   31.3970   40.3090 C   0  0  0  0  0  0  0  0  0  0  0  0
   36.5960   30.5380   40.2230 H   0  0  0  0  0  0  0  0  0  0  0  0
   37.0420   32.5700   39.5950 C   0  0  0  0  0  0  0  0  0  0  0  0
   36.1940   32.6500   38.9110 H   0  0  0  0  0  0  0  0  0  0  0  0
   37.9460   33.6150   39.7850 C   0  0  0  0  0  3  0  0  0  0  0  0
   39.0200   33.5030   40.6560 C   0  0  0  0  0  3  0  0  0  0  0  0
   39.1750   32.3300   41.3330 N   0  0  0  0  0  0  0  0  0  0  0  0
   36.4860   27.4160   43.6080 C   0  0  0  0  0  0  0  0  0  0  0  0
   35.9630   26.9570   42.7260 H   0  0  0  0  0  0  0  0  0  0  0  0
   35.7780   28.0660   44.1650 H   0  0  0  0  0  0  0  0  0  0  0  0
   36.8620   26.5730   44.2180 H   0  0  0  0  0  0  0  0  0  0  0  0
  1  6  1  0  0  0  0
  1 17  1  0  0  0  0
  2  1  2  0  0  0  0
  3  4  2  0  0  0  0
  3  2  1  0  0  0  0
  4  5  1  0  0  0  0
  5  8  1  0  0  0  0
  5  6  2  0  0  0  0
  7  2  1  0  0  0  0
  9 16  1  0  0  0  0
  9  3  1  0  0  0  0
 10  9  2  0  0  0  0
 11 10  1  0  0  0  0
 12 14  2  0  0  0  0
 12 10  1  0  0  0  0
 13 12  1  0  0  0  0
 14 15  1  0  0  0  0
 15 16  2  0  0  0  0
 17 19  1  0  0  0  0
 17 20  1  0  0  0  0
 18 17  1  0  0  0  0
M  END
>  <minimizedAffinity>
-4.36948347

$$$$

 OpenBabel03242521403D

 20 21  0  0  0  0  0  0  0  0999 V2000
   38.1780   32.8620   40.1450 C   0  0  0  0  0  0  0  0  0  0  0  0
   37.5930   31.7040   40.6780 C   0  0  0  0  0  0  0  0  0  0  0  0
   38.4190   30.8510   41.4140 C   0  0  0  0  0  0  0  0  0  0  0  0
   39.7190   31.1650   41.5840 N   0  0  0  0  0  0  0  0  0  0  0  0
   40.2480   32.3040   41.0480 C   0  0  0  0  0  0  0  0  0  0  0  0
   39.4810   33.1430   40.3340 N   0  0  0  0  0  0  0  0  0  0  0  0
   36.5670   31.4710   40.5350 H   0  0  0  0  0  0  0  0  0  0  0  0
   41.3030   32.5110   41.2130 H   0  0  0  0  0  0  0  0  0  0  0  0
   37.8550   29.6350   41.9860 C   0  0  0  0  0  0  0  0  0  0  0  0
   38.4230   29.1130   43.1290 C   0  0  0  0  0  0  0  0  0  0  0  0
   39.2700   29.6290   43.5560 H   0  0  0  0  0  0  0  0  0  0  0  0
   37.8910   27.9550   43.6790 C   0  0  0  0  0  0  0  0  0  0  0  0
   38.3310   27.5300   44.5840 H   0  0  0  0  0  0  0  0  0  0  0  0
   36.7950   27.3730   43.0420 C   0  0  0  0  0  3  0  0  0  0  0  0
   36.2430   27.9190   41.8930 C   0  0  0  0  0  3  0  0  0  0  0  0
   36.8030   29.0570   41.3930 N   0  0  0  0  0  0  0  0  0  0  0  0
   37.3060   33.7880   39.3510 C   0  0  0  0  0  0  0  0  0  0  0  0
   36.5940   34.2890   40.0600 H   0  0  0  0  0  0  0  0  0  0  0  0
   36.7340   33.2470   38.5680 H   0  0  0  0  0  0  0  0  0  0  0  0
   37.9440   34.5920   38.9350 H   0  0  0  0  0  0  0  0  0  0  0  0
  1  6  2  0  0  0  0
  1  2  1  0  0  0  0
  2  3  2  0  0  0  0
  3  4  1  0  0  0  0
  3  9  1  0  0  0  0
  5  8  1  0  0  0  0
  5  4  2  0  0  0  0
  6  5  1  0  0  0  0
  7  2  1  0  0  0  0
  9 10  1  0  0  0  0
 10 11  1  0  0  0  0
 10 12  2  0  0  0  0
 12 13  1  0  0  0  0
 14 12  1  0  0  0  0
 15 14  2  0  0  0  0
 16 15  1  0  0  0  0
 16  9  2  0  0  0  0
 17 18  1  0  0  0  0
 17  1  1  0  0  0  0
 19 17  1  0  0  0  0
 20 17  1  0  0  0  0
M  END
>  <minimizedAffinity>
-4.28767538

$$$$

 OpenBabel03242521403D

 20 21  0  0  0  0  0  0  0  0999 V2000
   37.4660   28.4630   42.5200 C   0  0  0  0  0  0  0  0  0  0  0  0
   37.9710   29.7290   42.1920 C   0  0  0  0  0  0  0  0  0  0  0  0
   37.3840   30.3910   41.1110 C   0  0  0  0  0  0  0  0  0  0  0  0
   36.3740   29.8040   40.4390 N   0  0  0  0  0  0  0  0  0  0  0  0
   35.9120   28.5690   40.7940 C   0  0  0  0  0  0  0  0  0  0  0  0
   36.4550   27.9060   41.8260 N   0  0  0  0  0  0  0  0  0  0  0  0
   38.7680   30.1780   42.7320 H   0  0  0  0  0  0  0  0  0  0  0  0
   35.0950   28.1390   40.2180 H   0  0  0  0  0  0  0  0  0  0  0  0
   37.8770   31.7100   40.7320 C   0  0  0  0  0  0  0  0  0  0  0  0
   37.0640   32.5320   39.9810 C   0  0  0  0  0  0  0  0  0  0  0  0
   36.0890   32.1630   39.7010 H   0  0  0  0  0  0  0  0  0  0  0  0
   37.5280   33.7890   39.6170 C   0  0  0  0  0  0  0  0  0  0  0  0
   36.8950   34.4510   39.0210 H   0  0  0  0  0  0  0  0  0  0  0  0
   38.8060   34.1600   40.0350 C   0  0  0  0  0  3  0  0  0  0  0  0
   39.6020   33.3130   40.7900 C   0  0  0  0  0  3  0  0  0  0  0  0
   39.1000   32.0890   41.1210 N   0  0  0  0  0  0  0  0  0  0  0  0
   38.0850   27.7380   43.6780 C   0  0  0  0  0  0  0  0  0  0  0  0
   37.7900   28.2700   44.6210 H   0  0  0  0  0  0  0  0  0  0  0  0
   39.1930   27.7050   43.5990 H   0  0  0  0  0  0  0  0  0  0  0  0
   37.6320   26.7300   43.7370 H   0  0  0  0  0  0  0  0  0  0  0  0
  1 17  1  0  0  0  0
  2  1  1  0  0  0  0
  2  7  1  0  0  0  0
  3  2  2  0  0  0  0
  4  5  2  0  0  0  0
  4  3  1  0  0  0  0
  5  6  1  0  0  0  0
  6  1  2  0  0  0  0
  8  5  1  0  0  0  0
  9  3  1  0  0  0  0
  9 16  1  0  0  0  0
 10  9  2  0  0  0  0
 11 10  1  0  0  0  0
 12 10  1  0  0  0  0
 12 14  2  0  0  0  0
 13 12  1  0  0  0  0
 14 15  1  0  0  0  0
 15 16  2  0  0  0  0
 17 20  1  0  0  0  0
 17 18  1  0  0  0  0
 19 17  1  0  0  0  0
M  END
>  <minimizedAffinity>
-4.28050327

$$$$

 OpenBabel03242521403D

 20 21  0  0  0  0  0  0  0  0999 V2000
   37.2800   32.2790   39.2900 C   0  0  0  0  0  0  0  0  0  0  0  0
   37.2670   31.4270   40.4040 C   0  0  0  0  0  0  0  0  0  0  0  0
   37.2580   30.0520   40.1560 C   0  0  0  0  0  0  0  0  0  0  0  0
   37.2650   29.6030   38.8850 N   0  0  0  0  0  0  0  0  0  0  0  0
   37.2790   30.4690   37.8290 C   0  0  0  0  0  0  0  0  0  0  0  0
   37.2850   31.7950   38.0330 N   0  0  0  0  0  0  0  0  0  0  0  0
   37.2610   31.7960   41.3990 H   0  0  0  0  0  0  0  0  0  0  0  0
   37.2830   30.0560   36.8230 H   0  0  0  0  0  0  0  0  0  0  0  0
   37.2440   29.1270   41.2830 C   0  0  0  0  0  0  0  0  0  0  0  0
   36.8690   27.8180   41.0630 C   0  0  0  0  0  0  0  0  0  0  0  0
   36.5990   27.5290   40.0590 H   0  0  0  0  0  0  0  0  0  0  0  0
   36.8540   26.9330   42.1320 C   0  0  0  0  0  0  0  0  0  0  0  0
   36.5590   25.8920   41.9730 H   0  0  0  0  0  0  0  0  0  0  0  0
   37.2220   27.4170   43.3870 C   0  0  0  0  0  3  0  0  0  0  0  0
   37.5950   28.7380   43.5800 C   0  0  0  0  0  3  0  0  0  0  0  0
   37.5930   29.5680   42.4980 N   0  0  0  0  0  0  0  0  0  0  0  0
   37.2880   33.7580   39.5370 C   0  0  0  0  0  0  0  0  0  0  0  0
   38.2930   34.0360   39.9550 H   0  0  0  0  0  0  0  0  0  0  0  0
   36.4910   34.0620   40.2490 H   0  0  0  0  0  0  0  0  0  0  0  0
   37.2060   34.2720   38.5610 H   0  0  0  0  0  0  0  0  0  0  0  0
  1 17  1  0  0  0  0
  1  2  1  0  0  0  0
  2  7  1  0  0  0  0
  3  2  2  0  0  0  0
  3  9  1  0  0  0  0
  4  3  1  0  0  0  0
  5  6  1  0  0  0  0
  5  4  2  0  0  0  0
  6  1  2  0  0  0  0
  8  5  1  0  0  0  0
  9 16  1  0  0  0  0
 10  9  2  0  0  0  0
 10 12  1  0  0  0  0
 11 10  1  0  0  0  0
 12 14  2  0  0  0  0
 13 12  1  0  0  0  0
 14 15  1  0  0  0  0
 16 15  2  0  0  0  0
 17 18  1  0  0  0  0
 17 19  1  0  0  0  0
 20 17  1  0  0  0  0
M  END
>  <minimizedAffinity>
-4.23362017

$$$$

 OpenBabel03242521403D

 20 21  0  0  0  0  0  0  0  0999 V2000
   39.7110   32.7970   40.5390 C   0  0  0  0  0  0  0  0  0  0  0  0
   39.3830   31.5900   41.1720 C   0  0  0  0  0  0  0  0  0  0  0  0
   38.0520   31.1730   41.1020 C   0  0  0  0  0  0  0  0  0  0  0  0
   37.1500   31.9290   40.4430 N   0  0  0  0  0  0  0  0  0  0  0  0
   37.5140   33.0990   39.8400 C   0  0  0  0  0  0  0  0  0  0  0  0
   38.7840   33.5270   39.8900 N   0  0  0  0  0  0  0  0  0  0  0  0
   40.1050   31.0060   41.6870 H   0  0  0  0  0  0  0  0  0  0  0  0
   36.7480   33.6720   39.3220 H   0  0  0  0  0  0  0  0  0  0  0  0
   37.6630   29.9240   41.7460 C   0  0  0  0  0  0  0  0  0  0  0  0
   38.3270   29.5310   42.8890 C   0  0  0  0  0  0  0  0  0  0  0  0
   39.1130   30.1680   43.2630 H   0  0  0  0  0  0  0  0  0  0  0  0
   37.9610   28.3420   43.5060 C   0  0  0  0  0  0  0  0  0  0  0  0
   38.4790   28.0180   44.4120 H   0  0  0  0  0  0  0  0  0  0  0  0
   36.9300   27.5990   42.9330 C   0  0  0  0  0  3  0  0  0  0  0  0
   36.2790   28.0180   41.7820 C   0  0  0  0  0  3  0  0  0  0  0  0
   36.6760   29.1920   41.2140 N   0  0  0  0  0  0  0  0  0  0  0  0
   41.1360   33.2610   40.6050 C   0  0  0  0  0  0  0  0  0  0  0  0
   41.7540   32.5780   39.9620 H   0  0  0  0  0  0  0  0  0  0  0  0
   41.5260   33.2480   41.6450 H   0  0  0  0  0  0  0  0  0  0  0  0
   41.1960   34.2620   40.1390 H   0  0  0  0  0  0  0  0  0  0  0  0
  1 17  1  0  0  0  0
  1  2  1  0  0  0  0
  2  7  1  0  0  0  0
  3  2  2  0  0  0  0
  3  9  1  0  0  0  0
  4  3  1  0  0  0  0
  5  6  1  0  0  0  0
  5  4  2  0  0  0  0
  6  1  2  0  0  0  0
  8  5  1  0  0  0  0
  9 10  1  0  0  0  0
 10 11  1  0  0  0  0
 10 12  2  0  0  0  0
 12 13  1  0  0  0  0
 14 12  1  0  0  0  0
 15 14  2  0  0  0  0
 16  9  2  0  0  0  0
 16 15  1  0  0  0  0
 17 19  1  0  0  0  0
 18 17  1  0  0  0  0
 20 17  1  0  0  0  0
M  END
>  <minimizedAffinity>
-4.19707203

$$$$

 OpenBabel03242521403D

 20 21  0  0  0  0  0  0  0  0999 V2000
   39.0680   27.6930   43.1200 C   0  0  0  0  0  0  0  0  0  0  0  0
   39.1870   28.9410   42.4930 C   0  0  0  0  0  0  0  0  0  0  0  0
   38.0190   29.5110   41.9800 C   0  0  0  0  0  0  0  0  0  0  0  0
   36.8470   28.8570   42.1030 N   0  0  0  0  0  0  0  0  0  0  0  0
   36.7780   27.6420   42.7220 C   0  0  0  0  0  0  0  0  0  0  0  0
   37.8810   27.0670   43.2250 N   0  0  0  0  0  0  0  0  0  0  0  0
   40.1170   29.4440   42.4030 H   0  0  0  0  0  0  0  0  0  0  0  0
   35.8070   27.1550   42.7950 H   0  0  0  0  0  0  0  0  0  0  0  0
   38.0930   30.8090   41.3190 C   0  0  0  0  0  0  0  0  0  0  0  0
   37.0290   31.2220   40.5450 C   0  0  0  0  0  0  0  0  0  0  0  0
   36.1780   30.5630   40.4590 H   0  0  0  0  0  0  0  0  0  0  0  0
   37.0930   32.4570   39.9140 C   0  0  0  0  0  0  0  0  0  0  0  0
   36.2570   32.7970   39.2970 H   0  0  0  0  0  0  0  0  0  0  0  0
   38.2430   33.2250   40.0960 C   0  0  0  0  0  3  0  0  0  0  0  0
   39.2990   32.7850   40.8790 C   0  0  0  0  0  3  0  0  0  0  0  0
   39.1870   31.5650   41.4780 N   0  0  0  0  0  0  0  0  0  0  0  0
   40.3110   27.0650   43.6760 C   0  0  0  0  0  0  0  0  0  0  0  0
   40.6290   27.6580   44.5750 H   0  0  0  0  0  0  0  0  0  0  0  0
   41.1350   27.0490   42.9300 H   0  0  0  0  0  0  0  0  0  0  0  0
   40.0530   26.0550   44.0480 H   0  0  0  0  0  0  0  0  0  0  0  0
  1  6  1  0  0  0  0
  1 17  1  0  0  0  0
  2  1  2  0  0  0  0
  3  4  2  0  0  0  0
  3  2  1  0  0  0  0
  4  5  1  0  0  0  0
  5  8  1  0  0  0  0
  5  6  2  0  0  0  0
  7  2  1  0  0  0  0
  9 16  1  0  0  0  0
  9  3  1  0  0  0  0
 10  9  2  0  0  0  0
 11 10  1  0  0  0  0
 12 14  2  0  0  0  0
 12 10  1  0  0  0  0
 13 12  1  0  0  0  0
 14 15  1  0  0  0  0
 15 16  2  0  0  0  0
 17 20  1  0  0  0  0
 17 18  1  0  0  0  0
 19 17  1  0  0  0  0
M  END
>  <minimizedAffinity>
-4.17271519

$$$$

 OpenBabel03242521403D

 20 21  0  0  0  0  0  0  0  0999 V2000
   37.1680   30.8530   38.0580 C   0  0  0  0  0  0  0  0  0  0  0  0
   37.1590   29.8870   39.0740 C   0  0  0  0  0  0  0  0  0  0  0  0
   37.2360   30.3450   40.3920 C   0  0  0  0  0  0  0  0  0  0  0  0
   37.3120   31.6690   40.6340 N   0  0  0  0  0  0  0  0  0  0  0  0
   37.3170   32.5760   39.6130 C   0  0  0  0  0  0  0  0  0  0  0  0
   37.2450   32.1680   38.3370 N   0  0  0  0  0  0  0  0  0  0  0  0
   37.0990   28.8480   38.8670 H   0  0  0  0  0  0  0  0  0  0  0  0
   37.3800   33.6330   39.8620 H   0  0  0  0  0  0  0  0  0  0  0  0
   37.2310   29.3770   41.4820 C   0  0  0  0  0  0  0  0  0  0  0  0
   36.5860   28.1720   41.2980 C   0  0  0  0  0  0  0  0  0  0  0  0
   36.1070   27.9930   40.3470 H   0  0  0  0  0  0  0  0  0  0  0  0
   36.5780   27.2460   42.3330 C   0  0  0  0  0  0  0  0  0  0  0  0
   36.0700   26.2880   42.2010 H   0  0  0  0  0  0  0  0  0  0  0  0
   37.2300   27.5860   43.5180 C   0  0  0  0  0  3  0  0  0  0  0  0
   37.8710   28.8050   43.6760 C   0  0  0  0  0  3  0  0  0  0  0  0
   37.8500   29.6800   42.6300 N   0  0  0  0  0  0  0  0  0  0  0  0
   37.0870   30.3790   36.6370 C   0  0  0  0  0  0  0  0  0  0  0  0
   36.0520   29.9800   36.4620 H   0  0  0  0  0  0  0  0  0  0  0  0
   37.8340   29.5850   36.4250 H   0  0  0  0  0  0  0  0  0  0  0  0
   37.1970   31.2570   35.9730 H   0  0  0  0  0  0  0  0  0  0  0  0
  1  6  2  0  0  0  0
  1  2  1  0  0  0  0
  2  3  2  0  0  0  0
  3  4  1  0  0  0  0
  3  9  1  0  0  0  0
  5  8  1  0  0  0  0
  5  4  2  0  0  0  0
  6  5  1  0  0  0  0
  7  2  1  0  0  0  0
  9 16  1  0  0  0  0
 10  9  2  0  0  0  0
 10 12  1  0  0  0  0
 11 10  1  0  0  0  0
 12 14  2  0  0  0  0
 13 12  1  0  0  0  0
 14 15  1  0  0  0  0
 16 15  2  0  0  0  0
 17  1  1  0  0  0  0
 18 17  1  0  0  0  0
 19 17  1  0  0  0  0
 20 17  1  0  0  0  0
M  END
>  <minimizedAffinity>
-4.12413645

$$$$

 OpenBabel03242521403D

 20 21  0  0  0  0  0  0  0  0999 V2000
   37.2370   27.0720   41.5750 C   0  0  0  0  0  0  0  0  0  0  0  0
   37.4070   28.3170   40.9540 C   0  0  0  0  0  0  0  0  0  0  0  0
   37.6540   29.4150   41.7810 C   0  0  0  0  0  0  0  0  0  0  0  0
   37.7200   29.2430   43.1160 N   0  0  0  0  0  0  0  0  0  0  0  0
   37.5490   28.0110   43.6800 C   0  0  0  0  0  0  0  0  0  0  0  0
   37.3090   26.9360   42.9130 N   0  0  0  0  0  0  0  0  0  0  0  0
   37.3520   28.4360   39.9000 H   0  0  0  0  0  0  0  0  0  0  0  0
   37.6110   27.9260   44.7620 H   0  0  0  0  0  0  0  0  0  0  0  0
   37.8360   30.7310   41.1790 C   0  0  0  0  0  0  0  0  0  0  0  0
   36.8790   31.2000   40.3050 C   0  0  0  0  0  0  0  0  0  0  0  0
   36.0270   30.5700   40.0980 H   0  0  0  0  0  0  0  0  0  0  0  0
   37.0480   32.4520   39.7290 C   0  0  0  0  0  0  0  0  0  0  0  0
   36.2970   32.8370   39.0330 H   0  0  0  0  0  0  0  0  0  0  0  0
   38.1880   33.1790   40.0680 C   0  0  0  0  0  3  0  0  0  0  0  0
   39.1350   32.6830   40.9510 C   0  0  0  0  0  3  0  0  0  0  0  0
   38.9230   31.4480   41.4900 N   0  0  0  0  0  0  0  0  0  0  0  0
   36.9710   25.8810   40.7030 C   0  0  0  0  0  0  0  0  0  0  0  0
   37.9130   25.6440   40.1400 H   0  0  0  0  0  0  0  0  0  0  0  0
   36.1450   26.0730   39.9850 H   0  0  0  0  0  0  0  0  0  0  0  0
   36.7740   25.0100   41.3570 H   0  0  0  0  0  0  0  0  0  0  0  0
  1  6  1  0  0  0  0
  2  1  2  0  0  0  0
  2  3  1  0  0  0  0
  3  4  2  0  0  0  0
  4  5  1  0  0  0  0
  5  8  1  0  0  0  0
  6  5  2  0  0  0  0
  7  2  1  0  0  0  0
  9 16  1  0  0  0  0
  9  3  1  0  0  0  0
 10  9  2  0  0  0  0
 11 10  1  0  0  0  0
 12 14  2  0  0  0  0
 12 10  1  0  0  0  0
 13 12  1  0  0  0  0
 14 15  1  0  0  0  0
 15 16  2  0  0  0  0
 17 20  1  0  0  0  0
 17  1  1  0  0  0  0
 18 17  1  0  0  0  0
 19 17  1  0  0  0  0
M  END
>  <minimizedAffinity>
-4.09091902

$$$$

 OpenBabel03242521403D

 20 21  0  0  0  0  0  0  0  0999 V2000
   35.5270   29.2190   40.3350 C   0  0  0  0  0  0  0  0  0  0  0  0
   36.2450   28.1290   40.8480 C   0  0  0  0  0  0  0  0  0  0  0  0
   37.3660   28.4140   41.6310 C   0  0  0  0  0  0  0  0  0  0  0  0
   37.7090   29.6970   41.8630 N   0  0  0  0  0  0  0  0  0  0  0  0
   36.9800   30.7290   41.3440 C   0  0  0  0  0  0  0  0  0  0  0  0
   35.8990   30.4880   40.5860 N   0  0  0  0  0  0  0  0  0  0  0  0
   35.9620   27.1240   40.6560 H   0  0  0  0  0  0  0  0  0  0  0  0
   37.2990   31.7460   41.5600 H   0  0  0  0  0  0  0  0  0  0  0  0
   38.1440   27.3130   42.1860 C   0  0  0  0  0  0  0  0  0  0  0  0
   39.0920   27.5880   43.1480 C   0  0  0  0  0  0  0  0  0  0  0  0
   39.2220   28.6160   43.4540 H   0  0  0  0  0  0  0  0  0  0  0  0
   39.8370   26.5440   43.6800 C   0  0  0  0  0  0  0  0  0  0  0  0
   40.5920   26.7470   44.4430 H   0  0  0  0  0  0  0  0  0  0  0  0
   39.5840   25.2560   43.2090 C   0  0  0  0  0  3  0  0  0  0  0  0
   38.6240   25.0070   42.2400 C   0  0  0  0  0  3  0  0  0  0  0  0
   37.9200   26.0670   41.7500 N   0  0  0  0  0  0  0  0  0  0  0  0
   34.3210   28.9320   39.4910 C   0  0  0  0  0  0  0  0  0  0  0  0
   33.5180   28.5200   40.1600 H   0  0  0  0  0  0  0  0  0  0  0  0
   34.5460   28.2010   38.6850 H   0  0  0  0  0  0  0  0  0  0  0  0
   33.9350   29.8920   39.1000 H   0  0  0  0  0  0  0  0  0  0  0  0
  1  6  2  0  0  0  0
  1  2  1  0  0  0  0
  2  3  2  0  0  0  0
  3  4  1  0  0  0  0
  3  9  1  0  0  0  0
  5  8  1  0  0  0  0
  5  4  2  0  0  0  0
  6  5  1  0  0  0  0
  7  2  1  0  0  0  0
  9 10  1  0  0  0  0
 10 11  1  0  0  0  0
 10 12  2  0  0  0  0
 12 13  1  0  0  0  0
 14 12  1  0  0  0  0
 15 14  2  0  0  0  0
 16  9  2  0  0  0  0
 16 15  1  0  0  0  0
 17 18  1  0  0  0  0
 17  1  1  0  0  0  0
 19 17  1  0  0  0  0
 20 17  1  0  0  0  0
M  END
>  <minimizedAffinity>
-4.07857609

$$$$
