
 OpenBabel03252508323D

 31 33  0  0  1  0  0  0  0  0999 V2000
   43.9630   33.8940   40.7920 N   0  0  0  0  0  0  0  0  0  0  0  0
   44.4540   32.6960   40.1890 C   0  0  1  0  0  0  0  0  0  0  0  0
   43.8480   32.3520   38.8820 C   0  0  0  0  0  0  0  0  0  0  0  0
   42.5180   32.7080   38.6530 N   0  0  0  0  0  0  0  0  0  0  0  0
   41.9880   33.8070   39.3610 C   0  0  0  0  0  0  0  0  0  0  0  0
   43.0860   34.6630   39.9610 C   0  0  0  0  0  0  0  0  0  0  0  0
   44.2870   31.8570   40.9280 H   0  0  0  0  0  0  0  0  0  0  0  0
   44.4890   32.7450   38.0640 H   0  0  0  0  0  0  0  0  0  0  0  0
   43.9300   31.2310   38.7770 H   0  0  0  0  0  0  0  0  0  0  0  0
   42.3430   32.8400   37.6280 H   0  0  0  0  0  0  0  0  0  0  0  0
   41.3770   34.5200   38.7380 H   0  0  0  0  0  0  0  0  0  0  0  0
   41.3420   33.4510   40.1770 H   0  0  0  0  0  0  0  0  0  0  0  0
   43.6250   35.0940   39.0640 H   0  0  0  0  0  0  0  0  0  0  0  0
   42.5910   35.5140   40.4160 H   0  0  0  0  0  0  0  0  0  0  0  0
   44.4180   35.5530   42.4360 C   0  0  0  0  0  0  0  0  0  0  0  0
   44.3760   34.2030   42.1040 C   0  0  0  0  0  0  0  0  0  0  0  0
   44.7480   33.2960   43.0800 C   0  0  0  0  0  0  0  0  0  0  0  0
   45.1400   33.6990   44.3150 N   0  0  0  0  0  0  0  0  0  0  0  0
   45.1710   35.0320   44.6100 C   0  0  0  0  0  0  0  0  0  0  0  0
   44.8160   35.9230   43.6860 N   0  0  0  0  0  0  0  0  0  0  0  0
   44.1730   36.4100   41.8310 H   0  0  0  0  0  0  0  0  0  0  0  0
   44.7150   32.2630   42.8340 H   0  0  0  0  0  0  0  0  0  0  0  0
   45.4900   35.2950   45.6070 H   0  0  0  0  0  0  0  0  0  0  0  0
   45.9250   32.7540   39.9740 C   0  0  0  0  0  0  0  0  0  0  0  0
   46.4930   33.6360   39.0760 C   0  0  0  0  0  0  0  0  0  0  0  0
   45.9020   34.3150   38.5030 H   0  0  0  0  0  0  0  0  0  0  0  0
   47.8520   33.7280   38.8310 C   0  0  0  0  0  0  0  0  0  0  0  0
   48.2780   34.4260   38.1240 H   0  0  0  0  0  0  0  0  0  0  0  0
   48.7160   32.9080   39.5050 C   0  0  0  0  0  3  0  0  0  0  0  0
   48.1520   32.0270   40.4020 C   0  0  0  0  0  3  0  0  0  0  0  0
   46.8460   31.9690   40.6070 N   0  0  0  0  0  0  0  0  0  0  0  0
  1 16  1  0  0  0  0
  2  1  1  0  0  0  0
  2  7  1  1  0  0  0
  3  2  1  0  0  0  0
  4  3  1  0  0  0  0
  4  5  1  0  0  0  0
  5  6  1  0  0  0  0
  5 12  1  0  0  0  0
  6 14  1  0  0  0  0
  6  1  1  0  0  0  0
  8  3  1  0  0  0  0
  9  3  1  0  0  0  0
 10  4  1  0  0  0  0
 11  5  1  0  0  0  0
 13  6  1  0  0  0  0
 15 20  1  0  0  0  0
 16 15  2  0  0  0  0
 16 17  1  0  0  0  0
 17 18  2  0  0  0  0
 18 19  1  0  0  0  0
 19 23  1  0  0  0  0
 20 19  2  0  0  0  0
 21 15  1  0  0  0  0
 22 17  1  0  0  0  0
 24  2  1  0  0  0  0
 24 31  1  0  0  0  0
 25 24  2  0  0  0  0
 26 25  1  0  0  0  0
 27 25  1  0  0  0  0
 27 29  2  0  0  0  0
 28 27  1  0  0  0  0
 29 30  1  0  0  0  0
 30 31  2  0  0  0  0
M  END
>  <minimizedAffinity>
-3.64725089

>  <minimizedRMSD>
1.75529289

$$$$
