
 OpenBabel03252508323D

 31 33  0  0  1  0  0  0  0  0999 V2000
   44.3050   34.4540   41.9030 N   0  0  0  0  0  0  0  0  0  0  0  0
   44.6020   33.4870   40.8940 C   0  0  1  0  0  0  0  0  0  0  0  0
   43.9800   33.7410   39.5730 C   0  0  0  0  0  0  0  0  0  0  0  0
   42.7350   34.3710   39.5360 N   0  0  0  0  0  0  0  0  0  0  0  0
   42.3800   35.2160   40.6090 C   0  0  0  0  0  0  0  0  0  0  0  0
   43.5920   35.6040   41.4350 C   0  0  0  0  0  0  0  0  0  0  0  0
   44.2760   32.4800   41.2900 H   0  0  0  0  0  0  0  0  0  0  0  0
   44.6990   34.2880   38.9280 H   0  0  0  0  0  0  0  0  0  0  0  0
   43.8740   32.7350   39.0720 H   0  0  0  0  0  0  0  0  0  0  0  0
   42.6120   34.8900   38.6340 H   0  0  0  0  0  0  0  0  0  0  0  0
   41.9150   36.1960   40.3050 H   0  0  0  0  0  0  0  0  0  0  0  0
   41.6630   34.7040   41.2670 H   0  0  0  0  0  0  0  0  0  0  0  0
   44.2190   36.2310   40.7320 H   0  0  0  0  0  0  0  0  0  0  0  0
   43.2360   36.3050   42.1820 H   0  0  0  0  0  0  0  0  0  0  0  0
   44.5890   35.2440   44.1300 C   0  0  0  0  0  0  0  0  0  0  0  0
   44.7300   34.1990   43.2230 C   0  0  0  0  0  0  0  0  0  0  0  0
   45.2760   33.0180   43.6930 C   0  0  0  0  0  0  0  0  0  0  0  0
   45.6630   32.8770   44.9860 N   0  0  0  0  0  0  0  0  0  0  0  0
   45.5120   33.9230   45.8520 C   0  0  0  0  0  0  0  0  0  0  0  0
   44.9880   35.0680   45.4210 N   0  0  0  0  0  0  0  0  0  0  0  0
   44.1920   36.2330   43.9710 H   0  0  0  0  0  0  0  0  0  0  0  0
   45.3830   32.2140   43.0070 H   0  0  0  0  0  0  0  0  0  0  0  0
   45.8370   33.7540   46.8670 H   0  0  0  0  0  0  0  0  0  0  0  0
   46.0660   33.3720   40.6600 C   0  0  0  0  0  0  0  0  0  0  0  0
   46.6720   32.1500   40.4460 C   0  0  0  0  0  0  0  0  0  0  0  0
   46.1160   31.2390   40.4350 H   0  0  0  0  0  0  0  0  0  0  0  0
   48.0300   31.9830   40.2280 C   0  0  0  0  0  0  0  0  0  0  0  0
   48.4860   31.0180   40.0620 H   0  0  0  0  0  0  0  0  0  0  0  0
   48.8510   33.0780   40.2170 C   0  0  0  0  0  3  0  0  0  0  0  0
   48.2470   34.2990   40.4310 C   0  0  0  0  0  3  0  0  0  0  0  0
   46.9460   34.4160   40.6350 N   0  0  0  0  0  0  0  0  0  0  0  0
  1 16  1  0  0  0  0
  2  7  1  1  0  0  0
  2  1  1  0  0  0  0
  3  2  1  0  0  0  0
  4  3  1  0  0  0  0
  4  5  1  0  0  0  0
  5 12  1  0  0  0  0
  5  6  1  0  0  0  0
  6  1  1  0  0  0  0
  6 14  1  0  0  0  0
  8  3  1  0  0  0  0
  9  3  1  0  0  0  0
 10  4  1  0  0  0  0
 11  5  1  0  0  0  0
 13  6  1  0  0  0  0
 15 20  1  0  0  0  0
 16 17  1  0  0  0  0
 16 15  2  0  0  0  0
 17 18  2  0  0  0  0
 18 19  1  0  0  0  0
 19 23  1  0  0  0  0
 20 19  2  0  0  0  0
 21 15  1  0  0  0  0
 22 17  1  0  0  0  0
 24  2  1  0  0  0  0
 25 24  2  0  0  0  0
 26 25  1  0  0  0  0
 27 25  1  0  0  0  0
 28 27  1  0  0  0  0
 29 27  2  0  0  0  0
 29 30  1  0  0  0  0
 30 31  2  0  0  0  0
 31 24  1  0  0  0  0
M  END
>  <minimizedAffinity>
-4.25122499

>  <minimizedRMSD>
0.239382759

$$$$
