
 OpenBabel03242516253D

 42 46  0  0  0  0  0  0  0  0999 V2000
   49.7650   30.1790   49.4150 C   0  0  0  0  0  0  0  0  0  0  0  0
   50.0020   31.3480   50.0690 N   0  0  0  0  0  0  0  0  0  0  0  0
   50.6650   31.4100   51.2310 C   0  0  0  0  0  0  0  0  0  0  0  0
   51.1100   30.2550   51.7590 N   0  0  0  0  0  0  0  0  0  0  0  0
   50.9200   29.0570   51.1780 C   0  0  0  0  0  0  0  0  0  0  0  0
   51.3800   27.8680   51.7210 C   0  0  0  0  0  0  0  0  0  0  0  0
   51.1590   26.6710   51.0840 C   0  0  0  0  0  0  0  0  0  0  0  0
   50.4660   26.6020   49.8700 C   0  0  0  0  0  0  0  0  0  0  0  0
   50.0250   27.8140   49.3650 C   0  0  0  0  0  0  0  0  0  0  0  0
   50.2370   29.0190   49.9880 C   0  0  0  0  0  0  0  0  0  0  0  0
   50.8500   32.3390   51.7480 H   0  0  0  0  0  0  0  0  0  0  0  0
   51.9110   27.9550   52.6590 H   0  0  0  0  0  0  0  0  0  0  0  0
   51.5660   25.8140   51.6060 H   0  0  0  0  0  0  0  0  0  0  0  0
   50.3570   25.6270   49.4720 H   0  0  0  0  0  0  0  0  0  0  0  0
   49.3250   27.5880   48.1090 C   0  0  0  0  0  0  0  0  0  0  0  0
   50.1750   27.5240   46.9980 C   0  0  0  0  0  0  0  0  0  0  0  0
   51.2300   27.6460   47.0580 H   0  0  0  0  0  0  0  0  0  0  0  0
   49.5630   27.2840   45.7670 C   0  0  0  0  0  0  0  0  0  0  0  0
   50.1160   27.2120   44.8380 H   0  0  0  0  0  0  0  0  0  0  0  0
   48.1950   27.1230   45.6750 C   0  0  0  0  0  0  0  0  0  0  0  0
   47.3920   27.1940   46.7950 C   0  0  0  0  0  0  0  0  0  0  0  0
   47.9720   27.4280   48.0000 N   0  0  0  0  0  0  0  0  0  0  0  0
   48.8960   30.0680   47.8730 S   0  0  0  0  0  0  0  0  0  0  0  0
   46.0360   32.7250   46.8980 C   0  0  0  0  0  0  0  0  0  0  0  0
   47.1570   31.9360   46.9070 C   0  0  0  0  0  0  0  0  0  0  0  0
   47.4120   31.0570   47.9450 C   0  0  0  0  0  0  0  0  0  0  0  0
   46.5240   30.9600   49.0140 C   0  0  0  0  0  0  0  0  0  0  0  0
   45.4150   31.7320   49.0210 C   0  0  0  0  0  0  0  0  0  0  0  0
   45.1900   32.5950   47.9720 C   0  0  0  0  0  0  0  0  0  0  0  0
   47.8510   32.0130   46.0690 H   0  0  0  0  0  0  0  0  0  0  0  0
   46.8170   30.2400   49.7750 H   0  0  0  0  0  0  0  0  0  0  0  0
   44.7430   31.6340   49.8640 H   0  0  0  0  0  0  0  0  0  0  0  0
   44.2910   33.2210   47.9790 H   0  0  0  0  0  0  0  0  0  0  0  0
   44.5570   35.5150   45.0430 C   0  0  0  0  0  0  0  0  0  0  0  0
   45.2100   35.4550   43.7900 C   0  0  0  0  0  0  0  0  0  0  0  0
   46.1590   34.4490   43.5960 C   0  0  0  0  0  0  0  0  0  0  0  0
   46.4320   33.5620   44.5940 N   0  0  0  0  0  0  0  0  0  0  0  0
   45.7810   33.6540   45.7890 C   0  0  0  0  0  0  0  0  0  0  0  0
   44.8540   34.6170   46.0120 N   0  0  0  0  0  0  0  0  0  0  0  0
   43.8200   36.2930   45.1990 H   0  0  0  0  0  0  0  0  0  0  0  0
   44.9990   36.1540   42.9920 H   0  0  0  0  0  0  0  0  0  0  0  0
   46.6830   34.3580   42.6670 H   0  0  0  0  0  0  0  0  0  0  0  0
  1 10  2  0  0  0  0
  1  2  1  0  0  0  0
  2  3  2  0  0  0  0
  3 11  1  0  0  0  0
  3  4  1  0  0  0  0
  5  6  1  0  0  0  0
  5  4  2  0  0  0  0
  6 12  1  0  0  0  0
  7 13  1  0  0  0  0
  7  6  2  0  0  0  0
  8  7  1  0  0  0  0
  9  8  2  0  0  0  0
  9 10  1  0  0  0  0
 10  5  1  0  0  0  0
 14  8  1  0  0  0  0
 15  9  1  0  0  0  0
 16 17  1  0  0  0  0
 16 15  2  0  0  0  0
 18 16  1  0  0  0  0
 19 18  1  0  0  0  0
 20 18  2  0  0  0  0
 20 21  1  0  0  0  0
 21 22  2  0  0  0  0
 22 15  1  0  0  0  0
 23 26  1  0  0  0  0
 23  1  1  0  0  0  0
 24 25  2  0  0  0  0
 24 29  1  0  0  0  0
 25 26  1  0  0  0  0
 26 27  2  0  0  0  0
 27 28  1  0  0  0  0
 27 31  1  0  0  0  0
 28 32  1  0  0  0  0
 29 33  1  0  0  0  0
 29 28  2  0  0  0  0
 30 25  1  0  0  0  0
 34 40  1  0  0  0  0
 34 39  1  0  0  0  0
 35 34  2  0  0  0  0
 36 35  1  0  0  0  0
 36 37  2  0  0  0  0
 37 38  1  0  0  0  0
 38 39  2  0  0  0  0
 38 24  1  0  0  0  0
 41 35  1  0  0  0  0
 42 36  1  0  0  0  0
M  END
>  <minimizedAffinity>
-6.50886679

>  <minimizedRMSD>
0.811703384

$$$$
