
 OpenBabel03252505163D

 24 26  0  0  0  0  0  0  0  0999 V2000
   36.5610   27.9650   38.8660 C   0  0  0  0  0  0  0  0  0  0  0  0
   36.5900   27.1340   39.9980 C   0  0  0  0  0  0  0  0  0  0  0  0
   37.0120   27.7210   41.1800 C   0  0  0  0  0  0  0  0  0  0  0  0
   37.3770   29.0430   41.2120 N   0  0  0  0  0  0  0  0  0  0  0  0
   37.3330   29.8140   40.0890 C   0  0  0  0  0  0  0  0  0  0  0  0
   36.9260   29.2660   38.9290 N   0  0  0  0  0  0  0  0  0  0  0  0
   36.2410   27.5690   37.9100 H   0  0  0  0  0  0  0  0  0  0  0  0
   36.3020   26.1080   39.9510 H   0  0  0  0  0  0  0  0  0  0  0  0
   37.0530   26.9310   42.4560 C   0  0  0  0  0  0  0  0  0  0  0  0
   38.0950   27.4270   43.4350 C   0  0  0  0  0  0  0  0  0  0  0  0
   36.5670   27.5490   43.6800 C   0  0  0  0  0  0  0  0  0  0  0  0
   36.9700   25.8290   42.3370 H   0  0  0  0  0  0  0  0  0  0  0  0
   38.6580   28.3340   43.1980 H   0  0  0  0  0  0  0  0  0  0  0  0
   38.6420   26.6960   44.0680 H   0  0  0  0  0  0  0  0  0  0  0  0
   36.1640   26.9510   44.5210 H   0  0  0  0  0  0  0  0  0  0  0  0
   36.2270   28.6040   43.7430 H   0  0  0  0  0  0  0  0  0  0  0  0
   37.7280   31.2160   40.1710 C   0  0  0  0  0  0  0  0  0  0  0  0
   37.0090   32.1480   39.4520 C   0  0  0  0  0  0  0  0  0  0  0  0
   36.1730   31.8010   38.8500 H   0  0  0  0  0  0  0  0  0  0  0  0
   37.3610   33.4870   39.5100 C   0  0  0  0  0  0  0  0  0  0  0  0
   36.7790   34.2060   38.9340 H   0  0  0  0  0  0  0  0  0  0  0  0
   38.4420   33.8380   40.3030 C   0  0  0  0  0  3  0  0  0  0  0  0
   39.1370   32.8550   41.0120 C   0  0  0  0  0  3  0  0  0  0  0  0
   38.7790   31.5410   40.9460 N   0  0  0  0  0  0  0  0  0  0  0  0
  1  6  2  0  0  0  0
  1  2  1  0  0  0  0
  2  3  2  0  0  0  0
  3  4  1  0  0  0  0
  3  9  1  0  0  0  0
  5 17  1  0  0  0  0
  5  4  2  0  0  0  0
  6  5  1  0  0  0  0
  7  1  1  0  0  0  0
  8  2  1  0  0  0  0
  9 10  1  0  0  0  0
  9 11  1  0  0  0  0
 10 11  1  0  0  0  0
 10 14  1  0  0  0  0
 11 16  1  0  0  0  0
 11 15  1  0  0  0  0
 12  9  1  0  0  0  0
 13 10  1  0  0  0  0
 17 24  1  0  0  0  0
 18 20  1  0  0  0  0
 18 17  2  0  0  0  0
 19 18  1  0  0  0  0
 20 22  2  0  0  0  0
 21 20  1  0  0  0  0
 22 23  1  0  0  0  0
 24 23  2  0  0  0  0
M  END
>  <minimizedAffinity>
-4.68282366

$$$$

 OpenBabel03252505163D

 24 26  0  0  0  0  0  0  0  0999 V2000
   35.5040   29.6270   40.0710 C   0  0  0  0  0  0  0  0  0  0  0  0
   35.6630   28.6440   41.0630 C   0  0  0  0  0  0  0  0  0  0  0  0
   36.7550   28.7920   41.9040 C   0  0  0  0  0  0  0  0  0  0  0  0
   37.6170   29.8490   41.7510 N   0  0  0  0  0  0  0  0  0  0  0  0
   37.4240   30.7800   40.7740 C   0  0  0  0  0  0  0  0  0  0  0  0
   36.3700   30.6580   39.9460 N   0  0  0  0  0  0  0  0  0  0  0  0
   34.6720   29.5710   39.3810 H   0  0  0  0  0  0  0  0  0  0  0  0
   34.9820   27.8310   41.1650 H   0  0  0  0  0  0  0  0  0  0  0  0
   37.0030   27.8160   43.0160 C   0  0  0  0  0  0  0  0  0  0  0  0
   37.5410   26.4840   42.5360 C   0  0  0  0  0  0  0  0  0  0  0  0
   38.3760   27.4920   43.3730 C   0  0  0  0  0  0  0  0  0  0  0  0
   36.2180   27.7780   43.8010 H   0  0  0  0  0  0  0  0  0  0  0  0
   37.7850   26.3600   41.4780 H   0  0  0  0  0  0  0  0  0  0  0  0
   37.2290   25.5510   43.0520 H   0  0  0  0  0  0  0  0  0  0  0  0
   38.6560   27.1570   44.3920 H   0  0  0  0  0  0  0  0  0  0  0  0
   39.2610   27.8740   42.8220 H   0  0  0  0  0  0  0  0  0  0  0  0
   38.3650   31.8880   40.6500 C   0  0  0  0  0  0  0  0  0  0  0  0
   37.9070   33.0910   40.1530 C   0  0  0  0  0  0  0  0  0  0  0  0
   36.8600   33.1670   39.8710 H   0  0  0  0  0  0  0  0  0  0  0  0
   38.7780   34.1610   40.0230 C   0  0  0  0  0  0  0  0  0  0  0  0
   38.3950   35.1010   39.6290 H   0  0  0  0  0  0  0  0  0  0  0  0
   40.0960   33.9720   40.4070 C   0  0  0  0  0  3  0  0  0  0  0  0
   40.5090   32.7350   40.9040 C   0  0  0  0  0  3  0  0  0  0  0  0
   39.6410   31.6890   41.0270 N   0  0  0  0  0  0  0  0  0  0  0  0
  1  2  1  0  0  0  0
  2  8  1  0  0  0  0
  2  3  2  0  0  0  0
  3  9  1  0  0  0  0
  4  3  1  0  0  0  0
  5  4  2  0  0  0  0
  6  1  2  0  0  0  0
  6  5  1  0  0  0  0
  7  1  1  0  0  0  0
  9 11  1  0  0  0  0
  9 12  1  0  0  0  0
 10  9  1  0  0  0  0
 10 14  1  0  0  0  0
 10 11  1  0  0  0  0
 11 15  1  0  0  0  0
 13 10  1  0  0  0  0
 16 11  1  0  0  0  0
 17  5  1  0  0  0  0
 17 24  1  0  0  0  0
 18 17  2  0  0  0  0
 19 18  1  0  0  0  0
 20 18  1  0  0  0  0
 20 22  2  0  0  0  0
 21 20  1  0  0  0  0
 22 23  1  0  0  0  0
 23 24  2  0  0  0  0
M  END
>  <minimizedAffinity>
-4.63565826

$$$$

 OpenBabel03252505163D

 24 26  0  0  0  0  0  0  0  0999 V2000
   37.4610   28.5330   43.4570 C   0  0  0  0  0  0  0  0  0  0  0  0
   37.4940   27.1740   43.1010 C   0  0  0  0  0  0  0  0  0  0  0  0
   37.5040   26.8950   41.7430 C   0  0  0  0  0  0  0  0  0  0  0  0
   37.4810   27.9110   40.8210 N   0  0  0  0  0  0  0  0  0  0  0  0
   37.4510   29.2170   41.2120 C   0  0  0  0  0  0  0  0  0  0  0  0
   37.4410   29.5120   42.5250 N   0  0  0  0  0  0  0  0  0  0  0  0
   37.4520   28.8200   44.5010 H   0  0  0  0  0  0  0  0  0  0  0  0
   37.5110   26.4000   43.8340 H   0  0  0  0  0  0  0  0  0  0  0  0
   37.5670   25.4790   41.2530 C   0  0  0  0  0  0  0  0  0  0  0  0
   38.2490   24.5380   42.2240 C   0  0  0  0  0  0  0  0  0  0  0  0
   36.7320   24.4750   41.8960 C   0  0  0  0  0  0  0  0  0  0  0  0
   37.8290   25.3570   40.1800 H   0  0  0  0  0  0  0  0  0  0  0  0
   38.5530   24.9160   43.2040 H   0  0  0  0  0  0  0  0  0  0  0  0
   38.8760   23.7080   41.8330 H   0  0  0  0  0  0  0  0  0  0  0  0
   36.3920   23.5650   41.3640 H   0  0  0  0  0  0  0  0  0  0  0  0
   36.0950   24.6820   42.7810 H   0  0  0  0  0  0  0  0  0  0  0  0
   37.4290   30.2640   40.1950 C   0  0  0  0  0  0  0  0  0  0  0  0
   37.2190   31.5680   40.5950 C   0  0  0  0  0  0  0  0  0  0  0  0
   37.0770   31.7650   41.6540 H   0  0  0  0  0  0  0  0  0  0  0  0
   37.1930   32.5830   39.6520 C   0  0  0  0  0  0  0  0  0  0  0  0
   37.0260   33.6050   39.9900 H   0  0  0  0  0  0  0  0  0  0  0  0
   37.3840   32.2370   38.3240 C   0  0  0  0  0  3  0  0  0  0  0  0
   37.5920   30.9020   37.9720 C   0  0  0  0  0  3  0  0  0  0  0  0
   37.6160   29.9130   38.9100 N   0  0  0  0  0  0  0  0  0  0  0  0
  1  7  1  0  0  0  0
  2  1  1  0  0  0  0
  2  8  1  0  0  0  0
  3  2  2  0  0  0  0
  4  5  2  0  0  0  0
  4  3  1  0  0  0  0
  5  6  1  0  0  0  0
  6  1  2  0  0  0  0
  9  3  1  0  0  0  0
  9 11  1  0  0  0  0
  9 10  1  0  0  0  0
 10 13  1  0  0  0  0
 11 10  1  0  0  0  0
 11 16  1  0  0  0  0
 12  9  1  0  0  0  0
 14 10  1  0  0  0  0
 15 11  1  0  0  0  0
 17 18  1  0  0  0  0
 17  5  1  0  0  0  0
 18 19  1  0  0  0  0
 20 21  1  0  0  0  0
 20 18  2  0  0  0  0
 22 20  1  0  0  0  0
 23 22  2  0  0  0  0
 23 24  1  0  0  0  0
 24 17  2  0  0  0  0
M  END
>  <minimizedAffinity>
-4.62849426

$$$$

 OpenBabel03252505163D

 24 26  0  0  0  0  0  0  0  0999 V2000
   41.1700   29.1570   42.3560 C   0  0  0  0  0  0  0  0  0  0  0  0
   40.3900   28.1600   42.9650 C   0  0  0  0  0  0  0  0  0  0  0  0
   39.0160   28.3070   42.8610 C   0  0  0  0  0  0  0  0  0  0  0  0
   38.4760   29.3780   42.1950 N   0  0  0  0  0  0  0  0  0  0  0  0
   39.2710   30.3220   41.6180 C   0  0  0  0  0  0  0  0  0  0  0  0
   40.6090   30.2010   41.7050 N   0  0  0  0  0  0  0  0  0  0  0  0
   42.2510   29.1030   42.4000 H   0  0  0  0  0  0  0  0  0  0  0  0
   40.8300   27.3360   43.4790 H   0  0  0  0  0  0  0  0  0  0  0  0
   38.0900   27.2840   43.4510 C   0  0  0  0  0  0  0  0  0  0  0  0
   36.6270   27.5950   43.2190 C   0  0  0  0  0  0  0  0  0  0  0  0
   37.3600   26.3990   42.5550 C   0  0  0  0  0  0  0  0  0  0  0  0
   38.3640   26.9200   44.4650 H   0  0  0  0  0  0  0  0  0  0  0  0
   36.3580   28.4520   42.5950 H   0  0  0  0  0  0  0  0  0  0  0  0
   35.8830   27.3460   44.0070 H   0  0  0  0  0  0  0  0  0  0  0  0
   37.0230   25.3910   42.8710 H   0  0  0  0  0  0  0  0  0  0  0  0
   37.3950   26.4800   41.4490 H   0  0  0  0  0  0  0  0  0  0  0  0
   38.6520   31.4430   40.9170 C   0  0  0  0  0  0  0  0  0  0  0  0
   37.6160   31.1840   40.0440 C   0  0  0  0  0  0  0  0  0  0  0  0
   37.2990   30.1530   39.9110 H   0  0  0  0  0  0  0  0  0  0  0  0
   37.0090   32.2290   39.3640 C   0  0  0  0  0  0  0  0  0  0  0  0
   36.1930   32.0020   38.6800 H   0  0  0  0  0  0  0  0  0  0  0  0
   37.4800   33.5110   39.5960 C   0  0  0  0  0  3  0  0  0  0  0  0
   38.5320   33.7190   40.4900 C   0  0  0  0  0  3  0  0  0  0  0  0
   39.1200   32.6820   41.1530 N   0  0  0  0  0  0  0  0  0  0  0  0
  1  7  1  0  0  0  0
  1  2  1  0  0  0  0
  2  8  1  0  0  0  0
  3  2  2  0  0  0  0
  3  9  1  0  0  0  0
  4  3  1  0  0  0  0
  5  6  1  0  0  0  0
  5  4  2  0  0  0  0
  6  1  2  0  0  0  0
  9 12  1  0  0  0  0
 10  9  1  0  0  0  0
 10 14  1  0  0  0  0
 11 15  1  0  0  0  0
 11 10  1  0  0  0  0
 11  9  1  0  0  0  0
 13 10  1  0  0  0  0
 16 11  1  0  0  0  0
 17 24  1  0  0  0  0
 17  5  1  0  0  0  0
 18 17  2  0  0  0  0
 19 18  1  0  0  0  0
 20 22  2  0  0  0  0
 20 18  1  0  0  0  0
 21 20  1  0  0  0  0
 22 23  1  0  0  0  0
 23 24  2  0  0  0  0
M  END
>  <minimizedAffinity>
-4.59786415

$$$$

 OpenBabel03252505163D

 24 26  0  0  0  0  0  0  0  0999 V2000
   40.0480   26.9590   43.6150 C   0  0  0  0  0  0  0  0  0  0  0  0
   39.5990   25.6480   43.3800 C   0  0  0  0  0  0  0  0  0  0  0  0
   38.5050   25.5160   42.5390 C   0  0  0  0  0  0  0  0  0  0  0  0
   37.9140   26.6220   41.9830 N   0  0  0  0  0  0  0  0  0  0  0  0
   38.3840   27.8760   42.2380 C   0  0  0  0  0  0  0  0  0  0  0  0
   39.4460   28.0290   43.0510 N   0  0  0  0  0  0  0  0  0  0  0  0
   40.8990   27.1320   44.2630 H   0  0  0  0  0  0  0  0  0  0  0  0
   40.0730   24.8020   43.8230 H   0  0  0  0  0  0  0  0  0  0  0  0
   37.9620   24.1600   42.1970 C   0  0  0  0  0  0  0  0  0  0  0  0
   36.7540   24.2110   41.2860 C   0  0  0  0  0  0  0  0  0  0  0  0
   38.1350   23.6550   40.8440 C   0  0  0  0  0  0  0  0  0  0  0  0
   37.9150   23.4380   43.0410 H   0  0  0  0  0  0  0  0  0  0  0  0
   36.4290   25.1750   40.8880 H   0  0  0  0  0  0  0  0  0  0  0  0
   35.9390   23.4670   41.4170 H   0  0  0  0  0  0  0  0  0  0  0  0
   38.1690   22.5700   40.6210 H   0  0  0  0  0  0  0  0  0  0  0  0
   38.5880   24.2460   40.0210 H   0  0  0  0  0  0  0  0  0  0  0  0
   37.7250   29.0230   41.6220 C   0  0  0  0  0  0  0  0  0  0  0  0
   36.4050   28.8980   41.2380 C   0  0  0  0  0  0  0  0  0  0  0  0
   35.9060   27.9490   41.4110 H   0  0  0  0  0  0  0  0  0  0  0  0
   35.7530   29.9710   40.6500 C   0  0  0  0  0  0  0  0  0  0  0  0
   34.7120   29.8510   40.3560 H   0  0  0  0  0  0  0  0  0  0  0  0
   36.4690   31.1430   40.4690 C   0  0  0  0  0  3  0  0  0  0  0  0
   37.8040   31.2170   40.8750 C   0  0  0  0  0  3  0  0  0  0  0  0
   38.4330   30.1540   41.4530 N   0  0  0  0  0  0  0  0  0  0  0  0
  1  7  1  0  0  0  0
  2  1  1  0  0  0  0
  2  8  1  0  0  0  0
  3  2  2  0  0  0  0
  4  5  2  0  0  0  0
  4  3  1  0  0  0  0
  5  6  1  0  0  0  0
  6  1  2  0  0  0  0
  9  3  1  0  0  0  0
  9 12  1  0  0  0  0
 10 14  1  0  0  0  0
 10  9  1  0  0  0  0
 11 10  1  0  0  0  0
 11  9  1  0  0  0  0
 13 10  1  0  0  0  0
 15 11  1  0  0  0  0
 16 11  1  0  0  0  0
 17  5  1  0  0  0  0
 18 19  1  0  0  0  0
 18 17  2  0  0  0  0
 20 18  1  0  0  0  0
 21 20  1  0  0  0  0
 22 20  2  0  0  0  0
 22 23  1  0  0  0  0
 23 24  2  0  0  0  0
 24 17  1  0  0  0  0
M  END
>  <minimizedAffinity>
-4.52851915

$$$$

 OpenBabel03252505163D

 24 26  0  0  0  0  0  0  0  0999 V2000
   38.8990   31.0180   40.9680 C   0  0  0  0  0  0  0  0  0  0  0  0
   38.8240   30.3600   42.2070 C   0  0  0  0  0  0  0  0  0  0  0  0
   37.8180   29.4150   42.3390 C   0  0  0  0  0  0  0  0  0  0  0  0
   36.9590   29.1580   41.3000 N   0  0  0  0  0  0  0  0  0  0  0  0
   37.0700   29.8200   40.1140 C   0  0  0  0  0  0  0  0  0  0  0  0
   38.0390   30.7420   39.9620 N   0  0  0  0  0  0  0  0  0  0  0  0
   39.6610   31.7680   40.7980 H   0  0  0  0  0  0  0  0  0  0  0  0
   39.5010   30.5750   43.0010 H   0  0  0  0  0  0  0  0  0  0  0  0
   37.6660   28.6320   43.6100 C   0  0  0  0  0  0  0  0  0  0  0  0
   36.6930   27.4790   43.4910 C   0  0  0  0  0  0  0  0  0  0  0  0
   38.2230   27.2900   43.6790 C   0  0  0  0  0  0  0  0  0  0  0  0
   37.6030   29.2390   44.5390 H   0  0  0  0  0  0  0  0  0  0  0  0
   36.2570   27.2500   42.5150 H   0  0  0  0  0  0  0  0  0  0  0  0
   36.0500   27.2140   44.3580 H   0  0  0  0  0  0  0  0  0  0  0  0
   38.5370   26.8320   44.6390 H   0  0  0  0  0  0  0  0  0  0  0  0
   38.6980   26.7770   42.8180 H   0  0  0  0  0  0  0  0  0  0  0  0
   36.1350   29.5120   39.0370 C   0  0  0  0  0  0  0  0  0  0  0  0
   34.8520   29.1260   39.3660 C   0  0  0  0  0  0  0  0  0  0  0  0
   34.5860   29.0660   40.4180 H   0  0  0  0  0  0  0  0  0  0  0  0
   33.9430   28.8260   38.3640 C   0  0  0  0  0  0  0  0  0  0  0  0
   32.9350   28.5240   38.6460 H   0  0  0  0  0  0  0  0  0  0  0  0
   34.3700   28.9310   37.0500 C   0  0  0  0  0  3  0  0  0  0  0  0
   35.6800   29.3260   36.7710 C   0  0  0  0  0  3  0  0  0  0  0  0
   36.5650   29.6180   37.7660 N   0  0  0  0  0  0  0  0  0  0  0  0
  1  2  1  0  0  0  0
  2  3  2  0  0  0  0
  2  8  1  0  0  0  0
  3  9  1  0  0  0  0
  4  3  1  0  0  0  0
  5  4  2  0  0  0  0
  6  5  1  0  0  0  0
  6  1  2  0  0  0  0
  7  1  1  0  0  0  0
  9 11  1  0  0  0  0
  9 12  1  0  0  0  0
 10  9  1  0  0  0  0
 10 11  1  0  0  0  0
 10 14  1  0  0  0  0
 11 15  1  0  0  0  0
 13 10  1  0  0  0  0
 16 11  1  0  0  0  0
 17 18  1  0  0  0  0
 17  5  1  0  0  0  0
 18 19  1  0  0  0  0
 20 21  1  0  0  0  0
 20 18  2  0  0  0  0
 22 20  1  0  0  0  0
 23 22  2  0  0  0  0
 23 24  1  0  0  0  0
 24 17  2  0  0  0  0
M  END
>  <minimizedAffinity>
-4.46815109

$$$$

 OpenBabel03252505163D

 24 26  0  0  0  0  0  0  0  0999 V2000
   36.1920   30.7520   40.4520 C   0  0  0  0  0  0  0  0  0  0  0  0
   36.2150   29.7620   41.4490 C   0  0  0  0  0  0  0  0  0  0  0  0
   37.3910   29.6490   42.1750 C   0  0  0  0  0  0  0  0  0  0  0  0
   38.4570   30.4710   41.9100 N   0  0  0  0  0  0  0  0  0  0  0  0
   38.3900   31.4180   40.9330 C   0  0  0  0  0  0  0  0  0  0  0  0
   37.2590   31.5480   40.2150 N   0  0  0  0  0  0  0  0  0  0  0  0
   35.3040   30.8930   39.8490 H   0  0  0  0  0  0  0  0  0  0  0  0
   35.3750   29.1330   41.6390 H   0  0  0  0  0  0  0  0  0  0  0  0
   37.5130   28.6440   43.2830 C   0  0  0  0  0  0  0  0  0  0  0  0
   36.9360   27.2900   42.9300 C   0  0  0  0  0  0  0  0  0  0  0  0
   38.4540   27.5450   43.1320 C   0  0  0  0  0  0  0  0  0  0  0  0
   37.2890   29.0280   44.3010 H   0  0  0  0  0  0  0  0  0  0  0  0
   36.5680   27.1170   41.9150 H   0  0  0  0  0  0  0  0  0  0  0  0
   36.4250   26.6920   43.7150 H   0  0  0  0  0  0  0  0  0  0  0  0
   38.9160   27.0420   44.0060 H   0  0  0  0  0  0  0  0  0  0  0  0
   39.0440   27.3630   42.2100 H   0  0  0  0  0  0  0  0  0  0  0  0
   39.5490   32.2720   40.6880 C   0  0  0  0  0  0  0  0  0  0  0  0
   40.7610   31.9150   41.2430 C   0  0  0  0  0  0  0  0  0  0  0  0
   40.8060   31.0090   41.8420 H   0  0  0  0  0  0  0  0  0  0  0  0
   41.8780   32.7060   41.0280 C   0  0  0  0  0  0  0  0  0  0  0  0
   42.8250   32.4050   41.4740 H   0  0  0  0  0  0  0  0  0  0  0  0
   41.7260   33.8430   40.2500 C   0  0  0  0  0  3  0  0  0  0  0  0
   40.4770   34.1600   39.7120 C   0  0  0  0  0  3  0  0  0  0  0  0
   39.3850   33.3720   39.9310 N   0  0  0  0  0  0  0  0  0  0  0  0
  1  2  1  0  0  0  0
  2  8  1  0  0  0  0
  2  3  2  0  0  0  0
  3  9  1  0  0  0  0
  4  3  1  0  0  0  0
  5  4  2  0  0  0  0
  6  1  2  0  0  0  0
  6  5  1  0  0  0  0
  7  1  1  0  0  0  0
  9 12  1  0  0  0  0
 10 11  1  0  0  0  0
 10  9  1  0  0  0  0
 10 14  1  0  0  0  0
 11  9  1  0  0  0  0
 11 15  1  0  0  0  0
 13 10  1  0  0  0  0
 16 11  1  0  0  0  0
 17  5  1  0  0  0  0
 17 18  1  0  0  0  0
 18 19  1  0  0  0  0
 20 18  2  0  0  0  0
 20 21  1  0  0  0  0
 22 20  1  0  0  0  0
 23 24  1  0  0  0  0
 23 22  2  0  0  0  0
 24 17  2  0  0  0  0
M  END
>  <minimizedAffinity>
-4.31841707

$$$$

 OpenBabel03252505163D

 24 26  0  0  0  0  0  0  0  0999 V2000
   36.8010   26.4960   40.6530 C   0  0  0  0  0  0  0  0  0  0  0  0
   37.5530   26.2370   41.8110 C   0  0  0  0  0  0  0  0  0  0  0  0
   38.2440   27.3120   42.3480 C   0  0  0  0  0  0  0  0  0  0  0  0
   38.1780   28.5490   41.7580 N   0  0  0  0  0  0  0  0  0  0  0  0
   37.4340   28.7560   40.6350 C   0  0  0  0  0  0  0  0  0  0  0  0
   36.7540   27.7270   40.0960 N   0  0  0  0  0  0  0  0  0  0  0  0
   36.2370   25.6990   40.1830 H   0  0  0  0  0  0  0  0  0  0  0  0
   37.5900   25.2670   42.2540 H   0  0  0  0  0  0  0  0  0  0  0  0
   39.0550   27.1530   43.6000 C   0  0  0  0  0  0  0  0  0  0  0  0
   39.7810   25.8270   43.6800 C   0  0  0  0  0  0  0  0  0  0  0  0
   40.5060   27.1890   43.5050 C   0  0  0  0  0  0  0  0  0  0  0  0
   38.5660   27.5070   44.5330 H   0  0  0  0  0  0  0  0  0  0  0  0
   39.7400   25.1470   42.8250 H   0  0  0  0  0  0  0  0  0  0  0  0
   39.8980   25.3260   44.6650 H   0  0  0  0  0  0  0  0  0  0  0  0
   41.1440   27.5090   44.3540 H   0  0  0  0  0  0  0  0  0  0  0  0
   41.0580   27.2590   42.5450 H   0  0  0  0  0  0  0  0  0  0  0  0
   37.3930   30.0890   40.0430 C   0  0  0  0  0  0  0  0  0  0  0  0
   37.3920   30.2010   38.6680 C   0  0  0  0  0  0  0  0  0  0  0  0
   37.4230   29.2900   38.0760 H   0  0  0  0  0  0  0  0  0  0  0  0
   37.3540   31.4550   38.0770 C   0  0  0  0  0  0  0  0  0  0  0  0
   37.3540   31.5200   36.9900 H   0  0  0  0  0  0  0  0  0  0  0  0
   37.3160   32.5610   38.9110 C   0  0  0  0  0  3  0  0  0  0  0  0
   37.3190   32.3930   40.2970 C   0  0  0  0  0  3  0  0  0  0  0  0
   37.3570   31.1540   40.8650 N   0  0  0  0  0  0  0  0  0  0  0  0
  1  2  1  0  0  0  0
  2  8  1  0  0  0  0
  2  3  2  0  0  0  0
  3  9  1  0  0  0  0
  4  3  1  0  0  0  0
  5  4  2  0  0  0  0
  6  5  1  0  0  0  0
  6  1  2  0  0  0  0
  7  1  1  0  0  0  0
  9 10  1  0  0  0  0
  9 12  1  0  0  0  0
 10 14  1  0  0  0  0
 11  9  1  0  0  0  0
 11 10  1  0  0  0  0
 11 15  1  0  0  0  0
 13 10  1  0  0  0  0
 16 11  1  0  0  0  0
 17  5  1  0  0  0  0
 17 24  1  0  0  0  0
 18 17  2  0  0  0  0
 19 18  1  0  0  0  0
 20 18  1  0  0  0  0
 20 22  2  0  0  0  0
 21 20  1  0  0  0  0
 22 23  1  0  0  0  0
 23 24  2  0  0  0  0
M  END
>  <minimizedAffinity>
-4.29795218

$$$$

 OpenBabel03252505163D

 24 26  0  0  0  0  0  0  0  0999 V2000
   38.6790   28.7450   42.8520 C   0  0  0  0  0  0  0  0  0  0  0  0
   38.1800   29.9670   42.3700 C   0  0  0  0  0  0  0  0  0  0  0  0
   37.2660   29.8900   41.3310 C   0  0  0  0  0  0  0  0  0  0  0  0
   36.8890   28.6730   40.8200 N   0  0  0  0  0  0  0  0  0  0  0  0
   37.3990   27.5120   41.3190 C   0  0  0  0  0  0  0  0  0  0  0  0
   38.2870   27.5610   42.3290 N   0  0  0  0  0  0  0  0  0  0  0  0
   39.3960   28.7340   43.6630 H   0  0  0  0  0  0  0  0  0  0  0  0
   38.4860   30.9020   42.7810 H   0  0  0  0  0  0  0  0  0  0  0  0
   36.6480   31.1330   40.7600 C   0  0  0  0  0  0  0  0  0  0  0  0
   37.6540   32.2290   40.4820 C   0  0  0  0  0  0  0  0  0  0  0  0
   36.8950   31.4630   39.3650 C   0  0  0  0  0  0  0  0  0  0  0  0
   35.6900   31.4470   41.2280 H   0  0  0  0  0  0  0  0  0  0  0  0
   38.7180   32.0220   40.6240 H   0  0  0  0  0  0  0  0  0  0  0  0
   37.3650   33.2900   40.6410 H   0  0  0  0  0  0  0  0  0  0  0  0
   36.1820   32.0640   38.7670 H   0  0  0  0  0  0  0  0  0  0  0  0
   37.5760   30.8820   38.7080 H   0  0  0  0  0  0  0  0  0  0  0  0
   36.9680   26.2410   40.7460 C   0  0  0  0  0  0  0  0  0  0  0  0
   37.0590   25.1020   41.5210 C   0  0  0  0  0  0  0  0  0  0  0  0
   37.4480   25.1970   42.5310 H   0  0  0  0  0  0  0  0  0  0  0  0
   36.6570   23.8810   41.0040 C   0  0  0  0  0  0  0  0  0  0  0  0
   36.7370   22.9960   41.6330 H   0  0  0  0  0  0  0  0  0  0  0  0
   36.1730   23.8560   39.7060 C   0  0  0  0  0  3  0  0  0  0  0  0
   36.1020   25.0370   38.9640 C   0  0  0  0  0  3  0  0  0  0  0  0
   36.5000   26.2330   39.4850 N   0  0  0  0  0  0  0  0  0  0  0  0
  1  7  1  0  0  0  0
  2  8  1  0  0  0  0
  2  1  1  0  0  0  0
  3  2  2  0  0  0  0
  4  5  2  0  0  0  0
  4  3  1  0  0  0  0
  5  6  1  0  0  0  0
  6  1  2  0  0  0  0
  9 12  1  0  0  0  0
  9  3  1  0  0  0  0
 10 13  1  0  0  0  0
 10 14  1  0  0  0  0
 10  9  1  0  0  0  0
 11 10  1  0  0  0  0
 11  9  1  0  0  0  0
 15 11  1  0  0  0  0
 16 11  1  0  0  0  0
 17  5  1  0  0  0  0
 17 18  1  0  0  0  0
 18 19  1  0  0  0  0
 20 18  2  0  0  0  0
 20 21  1  0  0  0  0
 22 20  1  0  0  0  0
 23 24  1  0  0  0  0
 23 22  2  0  0  0  0
 24 17  2  0  0  0  0
M  END
>  <minimizedAffinity>
-4.27373075

$$$$
