
 OpenBabel03252508323D

 31 33  0  0  1  0  0  0  0  0999 V2000
   45.1050   34.4070   42.2140 N   0  0  0  0  0  0  0  0  0  0  0  0
   46.0770   33.6450   41.4970 C   0  0  1  0  0  0  0  0  0  0  0  0
   45.9240   33.6530   40.0230 C   0  0  0  0  0  0  0  0  0  0  0  0
   44.6380   33.7500   39.4900 N   0  0  0  0  0  0  0  0  0  0  0  0
   43.6380   34.3770   40.2630 C   0  0  0  0  0  0  0  0  0  0  0  0
   44.2390   35.1960   41.3900 C   0  0  0  0  0  0  0  0  0  0  0  0
   46.0250   32.5860   41.8870 H   0  0  0  0  0  0  0  0  0  0  0  0
   46.5720   34.4440   39.5910 H   0  0  0  0  0  0  0  0  0  0  0  0
   46.3820   32.6910   39.6500 H   0  0  0  0  0  0  0  0  0  0  0  0
   44.6660   34.1910   38.5390 H   0  0  0  0  0  0  0  0  0  0  0  0
   42.9880   35.1020   39.6970 H   0  0  0  0  0  0  0  0  0  0  0  0
   42.9740   33.6180   40.7020 H   0  0  0  0  0  0  0  0  0  0  0  0
   44.7990   36.0260   40.8630 H   0  0  0  0  0  0  0  0  0  0  0  0
   43.4080   35.6940   41.8770 H   0  0  0  0  0  0  0  0  0  0  0  0
   44.5970   35.4300   44.3020 C   0  0  0  0  0  0  0  0  0  0  0  0
   45.0890   34.3220   43.6220 C   0  0  0  0  0  0  0  0  0  0  0  0
   45.5220   33.2500   44.3800 C   0  0  0  0  0  0  0  0  0  0  0  0
   45.4730   33.2710   45.7360 N   0  0  0  0  0  0  0  0  0  0  0  0
   44.9840   34.3750   46.3750 C   0  0  0  0  0  0  0  0  0  0  0  0
   44.5610   35.4180   45.6640 N   0  0  0  0  0  0  0  0  0  0  0  0
   44.2150   36.3570   43.9060 H   0  0  0  0  0  0  0  0  0  0  0  0
   45.8960   32.3980   43.8670 H   0  0  0  0  0  0  0  0  0  0  0  0
   44.9690   34.3360   47.4540 H   0  0  0  0  0  0  0  0  0  0  0  0
   47.4600   34.1110   41.7840 C   0  0  0  0  0  0  0  0  0  0  0  0
   48.4240   33.2590   42.2820 C   0  0  0  0  0  0  0  0  0  0  0  0
   48.2200   32.2290   42.4780 H   0  0  0  0  0  0  0  0  0  0  0  0
   49.7230   33.6390   42.5720 C   0  0  0  0  0  0  0  0  0  0  0  0
   50.4650   32.9560   42.9610 H   0  0  0  0  0  0  0  0  0  0  0  0
   50.1090   34.9360   42.3630 C   0  0  0  0  0  3  0  0  0  0  0  0
   49.1470   35.7880   41.8660 C   0  0  0  0  0  3  0  0  0  0  0  0
   47.9160   35.3860   41.6020 N   0  0  0  0  0  0  0  0  0  0  0  0
  1 16  1  0  0  0  0
  2 24  1  0  0  0  0
  2  7  1  1  0  0  0
  2  1  1  0  0  0  0
  3  2  1  0  0  0  0
  4  3  1  0  0  0  0
  4  5  1  0  0  0  0
  5 12  1  0  0  0  0
  5  6  1  0  0  0  0
  6 14  1  0  0  0  0
  6  1  1  0  0  0  0
  8  3  1  0  0  0  0
  9  3  1  0  0  0  0
 10  4  1  0  0  0  0
 11  5  1  0  0  0  0
 13  6  1  0  0  0  0
 15 20  1  0  0  0  0
 16 15  2  0  0  0  0
 16 17  1  0  0  0  0
 17 18  2  0  0  0  0
 18 19  1  0  0  0  0
 19 23  1  0  0  0  0
 20 19  2  0  0  0  0
 21 15  1  0  0  0  0
 22 17  1  0  0  0  0
 24 25  1  0  0  0  0
 25 26  1  0  0  0  0
 25 27  2  0  0  0  0
 27 28  1  0  0  0  0
 29 27  1  0  0  0  0
 30 29  2  0  0  0  0
 31 24  2  0  0  0  0
 31 30  1  0  0  0  0
M  END
>  <minimizedAffinity>
-5.01414347

>  <minimizedRMSD>
1.9435184

$$$$
