
 OpenBabel03252504493D

 23 24  0  0  0  0  0  0  0  0999 V2000
   45.6600   34.6220   44.2150 C   0  0  0  0  0  0  0  0  0  0  0  0
   46.7410   34.2940   43.4000 C   0  0  0  0  0  0  0  0  0  0  0  0
   47.5050   33.1840   43.7660 C   0  0  0  0  0  0  0  0  0  0  0  0
   47.1540   32.4940   44.8830 N   0  0  0  0  0  0  0  0  0  0  0  0
   46.0990   32.8370   45.6540 C   0  0  0  0  0  0  0  0  0  0  0  0
   45.3470   33.9080   45.3170 N   0  0  0  0  0  0  0  0  0  0  0  0
   44.9990   35.4540   44.0370 H   0  0  0  0  0  0  0  0  0  0  0  0
   48.3370   32.8960   43.1740 H   0  0  0  0  0  0  0  0  0  0  0  0
   45.8010   32.0330   46.8370 C   0  0  0  0  0  0  0  0  0  0  0  0
   45.6740   32.6460   48.0600 C   0  0  0  0  0  0  0  0  0  0  0  0
   45.7840   33.7140   48.2110 H   0  0  0  0  0  0  0  0  0  0  0  0
   45.3890   31.8100   49.1450 C   0  0  0  0  0  0  0  0  0  0  0  0
   45.2920   32.3060   50.0990 H   0  0  0  0  0  0  0  0  0  0  0  0
   45.2380   30.4280   48.9990 C   0  0  0  0  0  0  0  0  0  0  0  0
   45.3870   29.9100   47.7140 C   0  0  0  0  0  0  0  0  0  0  0  0
   45.6640   30.7060   46.6560 N   0  0  0  0  0  0  0  0  0  0  0  0
   47.0070   35.1050   42.2370 C   0  0  0  0  0  0  0  0  0  0  0  0
   46.7120   36.1480   42.3930 H   0  0  0  0  0  0  0  0  0  0  0  0
   46.4570   34.6660   41.3540 H   0  0  0  0  0  0  0  0  0  0  0  0
   48.5010   35.1020   41.9730 C   0  0  0  0  0  0  0  0  0  0  0  0
   48.9570   35.9590   42.4970 H   0  0  0  0  0  0  0  0  0  0  0  0
   48.9900   34.1430   42.1630 H   0  0  0  0  0  0  0  0  0  0  0  0
   48.6300   35.3440   40.8820 H   0  0  0  0  0  0  0  0  0  0  0  0
  1  6  1  0  0  0  0
  2  3  1  0  0  0  0
  2  1  2  0  0  0  0
  3  4  2  0  0  0  0
  4  5  1  0  0  0  0
  5  9  1  0  0  0  0
  6  5  2  0  0  0  0
  7  1  1  0  0  0  0
  8  3  1  0  0  0  0
  9 10  1  0  0  0  0
 10 11  1  0  0  0  0
 10 12  2  0  0  0  0
 12 13  1  0  0  0  0
 14 12  1  0  0  0  0
 15 14  2  0  0  0  0
 16  9  2  0  0  0  0
 16 15  1  0  0  0  0
 17 18  1  0  0  0  0
 17  2  1  0  0  0  0
 19 17  1  0  0  0  0
 20 22  1  0  0  0  0
 20 17  1  0  0  0  0
 20 21  1  0  0  0  0
 23 20  1  0  0  0  0
M  END
>  <minimizedAffinity>
-4.62076998

>  <minimizedRMSD>
1.64887309

$$$$
