
 OpenBabel03252504503D

 23 24  0  0  0  0  0  0  0  0999 V2000
   36.2570   28.3890   41.5100 C   0  0  0  0  0  0  0  0  0  0  0  0
   37.1240   27.8030   42.4290 C   0  0  0  0  0  0  0  0  0  0  0  0
   38.2480   28.5400   42.8100 C   0  0  0  0  0  0  0  0  0  0  0  0
   38.4290   29.7730   42.2680 N   0  0  0  0  0  0  0  0  0  0  0  0
   37.5700   30.3150   41.3780 C   0  0  0  0  0  0  0  0  0  0  0  0
   36.4760   29.6190   40.9970 N   0  0  0  0  0  0  0  0  0  0  0  0
   35.3590   27.9210   41.1420 H   0  0  0  0  0  0  0  0  0  0  0  0
   38.9360   28.1330   43.5080 H   0  0  0  0  0  0  0  0  0  0  0  0
   37.8510   31.6490   40.8500 C   0  0  0  0  0  0  0  0  0  0  0  0
   36.9730   32.2270   39.9670 C   0  0  0  0  0  0  0  0  0  0  0  0
   36.0620   31.7490   39.6230 H   0  0  0  0  0  0  0  0  0  0  0  0
   37.3110   33.5050   39.5060 C   0  0  0  0  0  0  0  0  0  0  0  0
   36.6120   33.9460   38.8120 H   0  0  0  0  0  0  0  0  0  0  0  0
   38.4730   34.1600   39.9190 C   0  0  0  0  0  3  0  0  0  0  0  0
   39.2940   33.4820   40.8190 C   0  0  0  0  0  3  0  0  0  0  0  0
   38.9800   32.2470   41.2710 N   0  0  0  0  0  0  0  0  0  0  0  0
   36.8170   26.4870   42.9340 C   0  0  0  0  0  0  0  0  0  0  0  0
   35.7480   26.3700   43.1400 H   0  0  0  0  0  0  0  0  0  0  0  0
   37.4220   26.3070   43.8710 H   0  0  0  0  0  0  0  0  0  0  0  0
   37.1790   25.4620   41.8760 C   0  0  0  0  0  0  0  0  0  0  0  0
   36.2930   25.2710   41.2480 H   0  0  0  0  0  0  0  0  0  0  0  0
   38.0890   25.6960   41.3160 H   0  0  0  0  0  0  0  0  0  0  0  0
   37.3480   24.4920   42.4190 H   0  0  0  0  0  0  0  0  0  0  0  0
  1  2  1  0  0  0  0
  2  3  2  0  0  0  0
  2 17  1  0  0  0  0
  3  8  1  0  0  0  0
  4  3  1  0  0  0  0
  5  4  2  0  0  0  0
  6  5  1  0  0  0  0
  6  1  2  0  0  0  0
  7  1  1  0  0  0  0
  9 16  1  0  0  0  0
  9  5  1  0  0  0  0
 10  9  2  0  0  0  0
 11 10  1  0  0  0  0
 12 14  2  0  0  0  0
 12 10  1  0  0  0  0
 13 12  1  0  0  0  0
 14 15  1  0  0  0  0
 15 16  2  0  0  0  0
 17 18  1  0  0  0  0
 17 19  1  0  0  0  0
 20 23  1  0  0  0  0
 20 17  1  0  0  0  0
 21 20  1  0  0  0  0
 22 20  1  0  0  0  0
M  END
>  <minimizedAffinity>
-4.45982313

$$$$

 OpenBabel03252504503D

 23 24  0  0  0  0  0  0  0  0999 V2000
   36.4150   30.9910   40.8440 C   0  0  0  0  0  0  0  0  0  0  0  0
   37.1140   31.4200   39.7180 C   0  0  0  0  0  0  0  0  0  0  0  0
   37.7620   30.4450   38.9560 C   0  0  0  0  0  0  0  0  0  0  0  0
   37.6750   29.1470   39.3530 N   0  0  0  0  0  0  0  0  0  0  0  0
   36.9900   28.7620   40.4510 C   0  0  0  0  0  0  0  0  0  0  0  0
   36.3550   29.6900   41.2010 N   0  0  0  0  0  0  0  0  0  0  0  0
   35.8770   31.6470   41.5080 H   0  0  0  0  0  0  0  0  0  0  0  0
   38.3060   30.7250   38.0900 H   0  0  0  0  0  0  0  0  0  0  0  0
   36.9550   27.3430   40.7960 C   0  0  0  0  0  0  0  0  0  0  0  0
   37.1730   26.9560   42.0970 C   0  0  0  0  0  0  0  0  0  0  0  0
   37.3750   27.6490   42.9050 H   0  0  0  0  0  0  0  0  0  0  0  0
   37.1230   25.5800   42.3480 C   0  0  0  0  0  0  0  0  0  0  0  0
   37.2960   25.2910   43.3740 H   0  0  0  0  0  0  0  0  0  0  0  0
   36.8660   24.6480   41.3400 C   0  0  0  0  0  3  0  0  0  0  0  0
   36.6580   25.1500   40.0560 C   0  0  0  0  0  3  0  0  0  0  0  0
   36.7040   26.4760   39.7980 N   0  0  0  0  0  0  0  0  0  0  0  0
   37.1270   32.8270   39.4010 C   0  0  0  0  0  0  0  0  0  0  0  0
   36.1890   33.3150   39.6820 H   0  0  0  0  0  0  0  0  0  0  0  0
   37.3200   32.9490   38.2950 H   0  0  0  0  0  0  0  0  0  0  0  0
   38.2310   33.4960   40.1980 C   0  0  0  0  0  0  0  0  0  0  0  0
   37.8110   33.8600   41.1500 H   0  0  0  0  0  0  0  0  0  0  0  0
   39.1370   32.8940   40.3050 H   0  0  0  0  0  0  0  0  0  0  0  0
   38.5030   34.4330   39.6390 H   0  0  0  0  0  0  0  0  0  0  0  0
  1  6  1  0  0  0  0
  1  7  1  0  0  0  0
  2  1  2  0  0  0  0
  3  4  2  0  0  0  0
  3  2  1  0  0  0  0
  4  5  1  0  0  0  0
  5  9  1  0  0  0  0
  5  6  2  0  0  0  0
  8  3  1  0  0  0  0
  9 10  1  0  0  0  0
 10 12  2  0  0  0  0
 10 11  1  0  0  0  0
 12 13  1  0  0  0  0
 14 12  1  0  0  0  0
 15 14  2  0  0  0  0
 16 15  1  0  0  0  0
 16  9  2  0  0  0  0
 17 18  1  0  0  0  0
 17  2  1  0  0  0  0
 17 20  1  0  0  0  0
 19 17  1  0  0  0  0
 20 22  1  0  0  0  0
 20 21  1  0  0  0  0
 23 20  1  0  0  0  0
M  END
>  <minimizedAffinity>
-4.20181942

$$$$

 OpenBabel03252504503D

 23 24  0  0  0  0  0  0  0  0999 V2000
   37.7790   28.3680   42.9000 C   0  0  0  0  0  0  0  0  0  0  0  0
   37.2710   27.4180   42.0170 C   0  0  0  0  0  0  0  0  0  0  0  0
   36.9880   27.8390   40.7160 C   0  0  0  0  0  0  0  0  0  0  0  0
   37.2230   29.1370   40.3880 N   0  0  0  0  0  0  0  0  0  0  0  0
   37.7170   30.0360   41.2670 C   0  0  0  0  0  0  0  0  0  0  0  0
   37.9980   29.6490   42.5310 N   0  0  0  0  0  0  0  0  0  0  0  0
   38.0350   28.1640   43.9260 H   0  0  0  0  0  0  0  0  0  0  0  0
   36.6000   27.1490   40.0090 H   0  0  0  0  0  0  0  0  0  0  0  0
   37.9360   31.4100   40.8200 C   0  0  0  0  0  0  0  0  0  0  0  0
   39.0370   32.1000   41.2650 C   0  0  0  0  0  0  0  0  0  0  0  0
   39.7740   31.6850   41.9440 H   0  0  0  0  0  0  0  0  0  0  0  0
   39.1780   33.4100   40.7940 C   0  0  0  0  0  0  0  0  0  0  0  0
   40.0480   33.9400   41.1520 H   0  0  0  0  0  0  0  0  0  0  0  0
   38.2550   33.9890   39.9190 C   0  0  0  0  0  3  0  0  0  0  0  0
   37.1740   33.1990   39.5300 C   0  0  0  0  0  3  0  0  0  0  0  0
   37.0250   31.9320   39.9790 N   0  0  0  0  0  0  0  0  0  0  0  0
   37.0700   26.0690   42.4870 C   0  0  0  0  0  0  0  0  0  0  0  0
   36.1080   25.9560   42.9970 H   0  0  0  0  0  0  0  0  0  0  0  0
   37.9190   25.7940   43.1790 H   0  0  0  0  0  0  0  0  0  0  0  0
   37.0490   25.1350   41.2920 C   0  0  0  0  0  0  0  0  0  0  0  0
   36.0070   25.0180   40.9490 H   0  0  0  0  0  0  0  0  0  0  0  0
   37.7580   25.3980   40.5020 H   0  0  0  0  0  0  0  0  0  0  0  0
   37.3290   24.1170   41.6810 H   0  0  0  0  0  0  0  0  0  0  0  0
  1  7  1  0  0  0  0
  2 17  1  0  0  0  0
  2  1  2  0  0  0  0
  3  2  1  0  0  0  0
  4  3  2  0  0  0  0
  4  5  1  0  0  0  0
  5  6  2  0  0  0  0
  6  1  1  0  0  0  0
  8  3  1  0  0  0  0
  9 10  1  0  0  0  0
  9  5  1  0  0  0  0
 10 11  1  0  0  0  0
 12 13  1  0  0  0  0
 12 10  2  0  0  0  0
 14 12  1  0  0  0  0
 15 14  2  0  0  0  0
 15 16  1  0  0  0  0
 16  9  2  0  0  0  0
 17 18  1  0  0  0  0
 17 19  1  0  0  0  0
 20 23  1  0  0  0  0
 20 17  1  0  0  0  0
 21 20  1  0  0  0  0
 22 20  1  0  0  0  0
M  END
>  <minimizedAffinity>
-4.12908983

$$$$

 OpenBabel03252504503D

 23 24  0  0  0  0  0  0  0  0999 V2000
   37.0680   28.7690   41.2370 C   0  0  0  0  0  0  0  0  0  0  0  0
   37.3890   28.4050   42.5430 C   0  0  0  0  0  0  0  0  0  0  0  0
   38.3410   29.1790   43.2090 C   0  0  0  0  0  0  0  0  0  0  0  0
   38.8950   30.2330   42.5530 N   0  0  0  0  0  0  0  0  0  0  0  0
   38.5640   30.5620   41.2850 C   0  0  0  0  0  0  0  0  0  0  0  0
   37.6440   29.8250   40.6230 N   0  0  0  0  0  0  0  0  0  0  0  0
   36.3510   28.2510   40.6240 H   0  0  0  0  0  0  0  0  0  0  0  0
   38.6160   28.9380   44.2050 H   0  0  0  0  0  0  0  0  0  0  0  0
   39.2150   31.7130   40.6640 C   0  0  0  0  0  0  0  0  0  0  0  0
   38.6900   32.9690   40.8480 C   0  0  0  0  0  0  0  0  0  0  0  0
   37.8020   33.1700   41.4370 H   0  0  0  0  0  0  0  0  0  0  0  0
   39.3690   34.0200   40.2210 C   0  0  0  0  0  0  0  0  0  0  0  0
   38.9450   35.0010   40.3740 H   0  0  0  0  0  0  0  0  0  0  0  0
   40.5160   33.8110   39.4520 C   0  0  0  0  0  3  0  0  0  0  0  0
   40.9630   32.4960   39.3310 C   0  0  0  0  0  3  0  0  0  0  0  0
   40.3170   31.4700   39.9300 N   0  0  0  0  0  0  0  0  0  0  0  0
   36.7260   27.2660   43.1300 C   0  0  0  0  0  0  0  0  0  0  0  0
   35.6380   27.3390   43.0410 H   0  0  0  0  0  0  0  0  0  0  0  0
   37.0300   27.1870   44.2150 H   0  0  0  0  0  0  0  0  0  0  0  0
   37.1490   26.0160   42.3800 C   0  0  0  0  0  0  0  0  0  0  0  0
   36.4310   25.8320   41.5630 H   0  0  0  0  0  0  0  0  0  0  0  0
   38.1970   26.0100   42.0710 H   0  0  0  0  0  0  0  0  0  0  0  0
   36.9920   25.1550   43.0860 H   0  0  0  0  0  0  0  0  0  0  0  0
  1  2  1  0  0  0  0
  2 17  1  0  0  0  0
  2  3  2  0  0  0  0
  3  8  1  0  0  0  0
  4  3  1  0  0  0  0
  5  4  2  0  0  0  0
  6  1  2  0  0  0  0
  6  5  1  0  0  0  0
  7  1  1  0  0  0  0
  9 10  1  0  0  0  0
  9  5  1  0  0  0  0
 10 11  1  0  0  0  0
 12 13  1  0  0  0  0
 12 10  2  0  0  0  0
 14 12  1  0  0  0  0
 15 14  2  0  0  0  0
 15 16  1  0  0  0  0
 16  9  2  0  0  0  0
 17 19  1  0  0  0  0
 18 17  1  0  0  0  0
 20 23  1  0  0  0  0
 20 17  1  0  0  0  0
 21 20  1  0  0  0  0
 22 20  1  0  0  0  0
M  END
>  <minimizedAffinity>
-4.07173252

$$$$

 OpenBabel03252504503D

 23 24  0  0  0  0  0  0  0  0999 V2000
   37.1810   27.2110   42.3680 C   0  0  0  0  0  0  0  0  0  0  0  0
   37.0180   26.1070   41.5340 C   0  0  0  0  0  0  0  0  0  0  0  0
   36.9200   26.3480   40.1620 C   0  0  0  0  0  0  0  0  0  0  0  0
   36.9900   27.6330   39.7230 N   0  0  0  0  0  0  0  0  0  0  0  0
   37.1480   28.6840   40.5560 C   0  0  0  0  0  0  0  0  0  0  0  0
   37.2450   28.4710   41.8870 N   0  0  0  0  0  0  0  0  0  0  0  0
   37.2680   27.1520   43.4400 H   0  0  0  0  0  0  0  0  0  0  0  0
   36.7960   25.5370   39.4900 H   0  0  0  0  0  0  0  0  0  0  0  0
   37.2110   30.0290   39.9890 C   0  0  0  0  0  0  0  0  0  0  0  0
   37.1990   30.1900   38.6240 C   0  0  0  0  0  0  0  0  0  0  0  0
   37.1450   29.3660   37.9210 H   0  0  0  0  0  0  0  0  0  0  0  0
   37.2630   31.5070   38.1570 C   0  0  0  0  0  0  0  0  0  0  0  0
   37.2520   31.6180   37.0830 H   0  0  0  0  0  0  0  0  0  0  0  0
   37.3340   32.6010   39.0230 C   0  0  0  0  0  3  0  0  0  0  0  0
   37.3400   32.3240   40.3890 C   0  0  0  0  0  3  0  0  0  0  0  0
   37.2800   31.0560   40.8550 N   0  0  0  0  0  0  0  0  0  0  0  0
   36.9630   24.7920   42.1250 C   0  0  0  0  0  0  0  0  0  0  0  0
   36.3090   24.1200   41.5600 H   0  0  0  0  0  0  0  0  0  0  0  0
   36.6050   24.8870   43.1920 H   0  0  0  0  0  0  0  0  0  0  0  0
   38.3530   24.1850   42.0950 C   0  0  0  0  0  0  0  0  0  0  0  0
   38.4690   23.6060   41.1640 H   0  0  0  0  0  0  0  0  0  0  0  0
   39.1590   24.8980   42.2860 H   0  0  0  0  0  0  0  0  0  0  0  0
   38.3780   23.4100   42.9090 H   0  0  0  0  0  0  0  0  0  0  0  0
  1  7  1  0  0  0  0
  2 17  1  0  0  0  0
  2  1  2  0  0  0  0
  3  2  1  0  0  0  0
  4  3  2  0  0  0  0
  4  5  1  0  0  0  0
  5  6  2  0  0  0  0
  6  1  1  0  0  0  0
  8  3  1  0  0  0  0
  9  5  1  0  0  0  0
  9 16  1  0  0  0  0
 10  9  2  0  0  0  0
 11 10  1  0  0  0  0
 12 10  1  0  0  0  0
 12 14  2  0  0  0  0
 13 12  1  0  0  0  0
 14 15  1  0  0  0  0
 15 16  2  0  0  0  0
 17 19  1  0  0  0  0
 18 17  1  0  0  0  0
 20 17  1  0  0  0  0
 20 22  1  0  0  0  0
 20 23  1  0  0  0  0
 21 20  1  0  0  0  0
M  END
>  <minimizedAffinity>
-4.06125402

$$$$

 OpenBabel03252504503D

 23 24  0  0  0  0  0  0  0  0999 V2000
   37.1110   26.6910   40.6930 C   0  0  0  0  0  0  0  0  0  0  0  0
   37.1950   26.1860   41.9880 C   0  0  0  0  0  0  0  0  0  0  0  0
   37.5520   27.0780   43.0020 C   0  0  0  0  0  0  0  0  0  0  0  0
   37.7930   28.3740   42.6700 N   0  0  0  0  0  0  0  0  0  0  0  0
   37.7030   28.8350   41.4040 C   0  0  0  0  0  0  0  0  0  0  0  0
   37.3590   27.9870   40.4090 N   0  0  0  0  0  0  0  0  0  0  0  0
   36.8450   26.1020   39.8300 H   0  0  0  0  0  0  0  0  0  0  0  0
   37.6280   26.7370   44.0040 H   0  0  0  0  0  0  0  0  0  0  0  0
   37.9810   30.2460   41.1460 C   0  0  0  0  0  0  0  0  0  0  0  0
   39.1670   30.7920   41.5750 C   0  0  0  0  0  0  0  0  0  0  0  0
   39.9300   30.2330   42.1050 H   0  0  0  0  0  0  0  0  0  0  0  0
   39.3610   32.1480   41.2920 C   0  0  0  0  0  0  0  0  0  0  0  0
   40.2970   32.5630   41.6340 H   0  0  0  0  0  0  0  0  0  0  0  0
   38.4070   32.9100   40.6110 C   0  0  0  0  0  3  0  0  0  0  0  0
   37.2400   32.2560   40.2220 C   0  0  0  0  0  3  0  0  0  0  0  0
   37.0380   30.9450   40.4890 N   0  0  0  0  0  0  0  0  0  0  0  0
   36.9100   24.7890   42.2100 C   0  0  0  0  0  0  0  0  0  0  0  0
   36.0460   24.6500   42.8680 H   0  0  0  0  0  0  0  0  0  0  0  0
   37.8260   24.2970   42.6520 H   0  0  0  0  0  0  0  0  0  0  0  0
   36.5640   24.1450   40.8810 C   0  0  0  0  0  0  0  0  0  0  0  0
   35.4720   24.1970   40.7350 H   0  0  0  0  0  0  0  0  0  0  0  0
   37.1510   24.5130   40.0360 H   0  0  0  0  0  0  0  0  0  0  0  0
   36.7760   23.0460   40.9960 H   0  0  0  0  0  0  0  0  0  0  0  0
  1  2  1  0  0  0  0
  2 17  1  0  0  0  0
  2  3  2  0  0  0  0
  3  8  1  0  0  0  0
  4  3  1  0  0  0  0
  5  4  2  0  0  0  0
  6  1  2  0  0  0  0
  6  5  1  0  0  0  0
  7  1  1  0  0  0  0
  9  5  1  0  0  0  0
  9 10  1  0  0  0  0
 10 11  1  0  0  0  0
 12 10  2  0  0  0  0
 12 13  1  0  0  0  0
 14 12  1  0  0  0  0
 15 16  1  0  0  0  0
 15 14  2  0  0  0  0
 16  9  2  0  0  0  0
 17 19  1  0  0  0  0
 17 18  1  0  0  0  0
 20 23  1  0  0  0  0
 20 17  1  0  0  0  0
 21 20  1  0  0  0  0
 22 20  1  0  0  0  0
M  END
>  <minimizedAffinity>
-4.05032969

$$$$

 OpenBabel03252504503D

 23 24  0  0  0  0  0  0  0  0999 V2000
   38.3500   27.1940   42.4700 C   0  0  0  0  0  0  0  0  0  0  0  0
   39.6140   27.0810   43.0450 C   0  0  0  0  0  0  0  0  0  0  0  0
   40.4530   28.1950   42.9710 C   0  0  0  0  0  0  0  0  0  0  0  0
   39.9940   29.3140   42.3510 N   0  0  0  0  0  0  0  0  0  0  0  0
   38.7620   29.3930   41.8010 C   0  0  0  0  0  0  0  0  0  0  0  0
   37.9350   28.3260   41.8620 N   0  0  0  0  0  0  0  0  0  0  0  0
   37.6170   26.4050   42.4630 H   0  0  0  0  0  0  0  0  0  0  0  0
   41.4250   28.1550   43.3960 H   0  0  0  0  0  0  0  0  0  0  0  0
   38.3590   30.6400   41.1550 C   0  0  0  0  0  0  0  0  0  0  0  0
   37.2360   30.6600   40.3630 C   0  0  0  0  0  0  0  0  0  0  0  0
   36.6130   29.7920   40.1800 H   0  0  0  0  0  0  0  0  0  0  0  0
   36.9150   31.8900   39.7780 C   0  0  0  0  0  0  0  0  0  0  0  0
   36.0300   31.8910   39.1590 H   0  0  0  0  0  0  0  0  0  0  0  0
   37.6860   33.0360   39.9850 C   0  0  0  0  0  3  0  0  0  0  0  0
   38.8040   32.9030   40.8070 C   0  0  0  0  0  3  0  0  0  0  0  0
   39.1280   31.7210   41.3780 N   0  0  0  0  0  0  0  0  0  0  0  0
   39.9820   25.8390   43.6790 C   0  0  0  0  0  0  0  0  0  0  0  0
   39.5230   25.7360   44.6680 H   0  0  0  0  0  0  0  0  0  0  0  0
   41.1070   25.7900   43.7590 H   0  0  0  0  0  0  0  0  0  0  0  0
   39.4710   24.6890   42.8320 C   0  0  0  0  0  0  0  0  0  0  0  0
   38.4650   24.4060   43.1860 H   0  0  0  0  0  0  0  0  0  0  0  0
   39.5400   24.8590   41.7540 H   0  0  0  0  0  0  0  0  0  0  0  0
   40.1130   23.8000   43.0830 H   0  0  0  0  0  0  0  0  0  0  0  0
  1  2  1  0  0  0  0
  2 17  1  0  0  0  0
  3  2  2  0  0  0  0
  3  8  1  0  0  0  0
  4  3  1  0  0  0  0
  5  6  1  0  0  0  0
  5  4  2  0  0  0  0
  6  1  2  0  0  0  0
  7  1  1  0  0  0  0
  9 16  1  0  0  0  0
  9  5  1  0  0  0  0
 10  9  2  0  0  0  0
 11 10  1  0  0  0  0
 12 14  2  0  0  0  0
 12 10  1  0  0  0  0
 13 12  1  0  0  0  0
 14 15  1  0  0  0  0
 15 16  2  0  0  0  0
 17 19  1  0  0  0  0
 17 18  1  0  0  0  0
 20 23  1  0  0  0  0
 20 21  1  0  0  0  0
 20 17  1  0  0  0  0
 22 20  1  0  0  0  0
M  END
>  <minimizedAffinity>
-3.98581243

$$$$

 OpenBabel03252504503D

 23 24  0  0  0  0  0  0  0  0999 V2000
   36.6310   30.8010   40.5970 C   0  0  0  0  0  0  0  0  0  0  0  0
   37.1130   31.1400   39.3340 C   0  0  0  0  0  0  0  0  0  0  0  0
   37.5530   30.0970   38.5160 C   0  0  0  0  0  0  0  0  0  0  0  0
   37.4870   28.8260   38.9920 N   0  0  0  0  0  0  0  0  0  0  0  0
   37.0140   28.5280   40.2220 C   0  0  0  0  0  0  0  0  0  0  0  0
   36.5830   29.5220   41.0290 N   0  0  0  0  0  0  0  0  0  0  0  0
   36.2640   31.5140   41.3150 H   0  0  0  0  0  0  0  0  0  0  0  0
   37.9280   30.3080   37.5460 H   0  0  0  0  0  0  0  0  0  0  0  0
   36.9820   27.1300   40.6440 C   0  0  0  0  0  0  0  0  0  0  0  0
   36.6040   26.1600   39.7480 C   0  0  0  0  0  0  0  0  0  0  0  0
   36.3190   26.3650   38.7220 H   0  0  0  0  0  0  0  0  0  0  0  0
   36.5980   24.8450   40.2270 C   0  0  0  0  0  0  0  0  0  0  0  0
   36.2990   24.0930   39.5120 H   0  0  0  0  0  0  0  0  0  0  0  0
   36.9570   24.5300   41.5400 C   0  0  0  0  0  3  0  0  0  0  0  0
   37.3250   25.5920   42.3650 C   0  0  0  0  0  3  0  0  0  0  0  0
   37.3340   26.8670   41.9160 N   0  0  0  0  0  0  0  0  0  0  0  0
   37.1280   32.5280   38.9450 C   0  0  0  0  0  0  0  0  0  0  0  0
   36.1170   32.9130   38.7730 H   0  0  0  0  0  0  0  0  0  0  0  0
   37.7560   32.6380   38.0130 H   0  0  0  0  0  0  0  0  0  0  0  0
   37.7260   33.3450   40.0750 C   0  0  0  0  0  0  0  0  0  0  0  0
   36.9120   33.6870   40.7360 H   0  0  0  0  0  0  0  0  0  0  0  0
   38.5550   32.8560   40.5940 H   0  0  0  0  0  0  0  0  0  0  0  0
   38.1210   34.2900   39.6090 H   0  0  0  0  0  0  0  0  0  0  0  0
  1  6  1  0  0  0  0
  1  7  1  0  0  0  0
  2  1  2  0  0  0  0
  3  4  2  0  0  0  0
  3  2  1  0  0  0  0
  4  5  1  0  0  0  0
  5  9  1  0  0  0  0
  5  6  2  0  0  0  0
  8  3  1  0  0  0  0
  9 16  1  0  0  0  0
 10 12  1  0  0  0  0
 10  9  2  0  0  0  0
 11 10  1  0  0  0  0
 12 14  2  0  0  0  0
 13 12  1  0  0  0  0
 14 15  1  0  0  0  0
 16 15  2  0  0  0  0
 17  2  1  0  0  0  0
 17 20  1  0  0  0  0
 18 17  1  0  0  0  0
 19 17  1  0  0  0  0
 20 22  1  0  0  0  0
 20 21  1  0  0  0  0
 23 20  1  0  0  0  0
M  END
>  <minimizedAffinity>
-3.93050909

$$$$

 OpenBabel03252504503D

 23 24  0  0  0  0  0  0  0  0999 V2000
   37.0710   30.3440   41.3100 C   0  0  0  0  0  0  0  0  0  0  0  0
   37.4180   30.6080   39.9870 C   0  0  0  0  0  0  0  0  0  0  0  0
   38.2560   29.6910   39.3490 C   0  0  0  0  0  0  0  0  0  0  0  0
   38.6790   28.6040   40.0470 N   0  0  0  0  0  0  0  0  0  0  0  0
   38.3250   28.3750   41.3300 C   0  0  0  0  0  0  0  0  0  0  0  0
   37.5150   29.2500   41.9650 N   0  0  0  0  0  0  0  0  0  0  0  0
   36.4320   30.9750   41.9050 H   0  0  0  0  0  0  0  0  0  0  0  0
   38.5460   29.8510   38.3410 H   0  0  0  0  0  0  0  0  0  0  0  0
   38.8320   27.1770   41.9970 C   0  0  0  0  0  0  0  0  0  0  0  0
   39.6460   27.3070   43.0960 C   0  0  0  0  0  0  0  0  0  0  0  0
   39.9460   28.2610   43.5140 H   0  0  0  0  0  0  0  0  0  0  0  0
   40.0910   26.1150   43.6790 C   0  0  0  0  0  0  0  0  0  0  0  0
   40.7290   26.2330   44.5420 H   0  0  0  0  0  0  0  0  0  0  0  0
   39.7310   24.8620   43.1780 C   0  0  0  0  0  3  0  0  0  0  0  0
   38.9000   24.8460   42.0590 C   0  0  0  0  0  3  0  0  0  0  0  0
   38.4630   25.9890   41.4840 N   0  0  0  0  0  0  0  0  0  0  0  0
   36.8990   31.7960   39.3550 C   0  0  0  0  0  0  0  0  0  0  0  0
   35.8300   31.9280   39.5540 H   0  0  0  0  0  0  0  0  0  0  0  0
   37.0890   31.7300   38.2440 H   0  0  0  0  0  0  0  0  0  0  0  0
   37.6090   33.0060   39.9320 C   0  0  0  0  0  0  0  0  0  0  0  0
   37.0290   33.3820   40.7910 H   0  0  0  0  0  0  0  0  0  0  0  0
   38.6710   32.8480   40.1380 H   0  0  0  0  0  0  0  0  0  0  0  0
   37.5250   33.8210   39.1620 H   0  0  0  0  0  0  0  0  0  0  0  0
  1  7  1  0  0  0  0
  1  6  1  0  0  0  0
  2  1  2  0  0  0  0
  3  2  1  0  0  0  0
  3  4  2  0  0  0  0
  4  5  1  0  0  0  0
  5  6  2  0  0  0  0
  5  9  1  0  0  0  0
  8  3  1  0  0  0  0
  9 10  1  0  0  0  0
 10 11  1  0  0  0  0
 10 12  2  0  0  0  0
 12 13  1  0  0  0  0
 14 12  1  0  0  0  0
 15 14  2  0  0  0  0
 16  9  2  0  0  0  0
 16 15  1  0  0  0  0
 17 18  1  0  0  0  0
 17 20  1  0  0  0  0
 17  2  1  0  0  0  0
 19 17  1  0  0  0  0
 20 22  1  0  0  0  0
 20 21  1  0  0  0  0
 23 20  1  0  0  0  0
M  END
>  <minimizedAffinity>
-3.90660143

$$$$
