
 OpenBabel03242522553D

 39 41  0  0  1  0  0  0  0  0999 V2000
   37.1940   27.3410   41.6660 C   0  0  0  0  0  0  0  0  0  0  0  0
   38.3090   27.1790   42.2810 O   0  0  0  0  0  0  0  0  0  0  0  0
   37.3110   26.0220   41.1330 N   0  0  0  0  0  0  0  0  0  0  0  0
   36.6710   25.9910   39.8290 C   0  0  0  0  0  0  0  0  0  0  0  0
   36.7460   24.5450   39.3730 C   0  0  0  0  0  0  0  0  0  0  0  0
   36.4220   23.6460   40.4850 N   0  0  0  0  0  0  0  0  0  0  0  0
   37.6130   23.5700   41.2800 C   0  0  0  0  0  0  0  0  0  0  0  0
   37.9630   24.9120   41.8010 C   0  0  1  0  0  0  0  0  0  0  0  0
   35.6200   26.2680   39.9650 H   0  0  0  0  0  0  0  0  0  0  0  0
   37.2220   26.6130   39.0880 H   0  0  0  0  0  0  0  0  0  0  0  0
   37.7530   24.2960   38.9880 H   0  0  0  0  0  0  0  0  0  0  0  0
   35.9870   24.3730   38.5760 H   0  0  0  0  0  0  0  0  0  0  0  0
   35.6410   24.0350   41.0600 H   0  0  0  0  0  0  0  0  0  0  0  0
   37.4310   22.8480   42.1260 H   0  0  0  0  0  0  0  0  0  0  0  0
   38.4300   23.1630   40.6410 H   0  0  0  0  0  0  0  0  0  0  0  0
   37.6540   24.9710   42.8670 H   0  0  0  0  0  0  0  0  0  0  0  0
   39.4530   25.0600   41.7650 C   0  0  0  0  0  0  0  0  0  0  0  0
   40.2130   24.9810   42.9220 C   0  0  0  0  0  0  0  0  0  0  0  0
   39.6360   24.8070   43.8380 H   0  0  0  0  0  0  0  0  0  0  0  0
   41.5820   25.1080   42.9600 C   0  0  0  0  0  0  0  0  0  0  0  0
   42.0780   25.0300   43.9250 H   0  0  0  0  0  0  0  0  0  0  0  0
   42.2270   25.3270   41.7410 C   0  0  0  0  0  3  0  0  0  0  0  0
   41.4730   25.4050   40.5850 C   0  0  0  0  0  3  0  0  0  0  0  0
   40.1160   25.2720   40.6030 N   0  0  0  0  0  0  0  0  0  0  0  0
   36.6330   28.5570   41.8760 O   0  0  0  0  0  0  0  0  0  0  0  0
   36.7110   29.7490   39.5230 O   0  0  0  0  0  0  0  0  0  0  0  0
   36.8050   29.9800   41.0560 P   0  0  1  0  0  0  0  0  0  0  0  0
   35.5770   31.0650   41.4250 O   0  0  0  0  0  0  0  0  0  0  0  0
   34.7380   30.8030   40.9510 H   0  0  0  0  0  0  0  0  0  0  0  0
   38.3200   30.6550   41.3670 O   0  0  0  0  0  0  0  0  0  0  0  0
   40.4480   33.4510   40.4680 C   0  0  0  0  0  0  0  0  0  0  0  0
   40.0090   32.1830   40.9300 C   0  0  0  0  0  0  0  0  0  0  0  0
   38.6750   31.8950   40.9070 C   0  0  0  0  0  0  0  0  0  0  0  0
   37.7990   32.8390   40.4410 N   0  0  0  0  0  0  0  0  0  0  0  0
   38.2450   34.0410   40.0060 C   0  0  0  0  0  0  0  0  0  0  0  0
   39.5370   34.3490   40.0150 N   0  0  0  0  0  0  0  0  0  0  0  0
   41.4780   33.7500   40.4540 H   0  0  0  0  0  0  0  0  0  0  0  0
   40.8330   31.5810   41.2540 H   0  0  0  0  0  0  0  0  0  0  0  0
   37.3980   34.6300   39.6840 H   0  0  0  0  0  0  0  0  0  0  0  0
  1 25  1  0  0  0  0
  1  2  2  0  0  0  0
  3  1  1  0  0  0  0
  3  8  1  0  0  0  0
  4  9  1  0  0  0  0
  4  3  1  0  0  0  0
  5  4  1  0  0  0  0
  5  6  1  0  0  0  0
  6 13  1  0  0  0  0
  6  7  1  0  0  0  0
  7  8  1  0  0  0  0
  7 14  1  0  0  0  0
  8 16  1  1  0  0  0
 10  4  1  0  0  0  0
 11  5  1  0  0  0  0
 12  5  1  0  0  0  0
 15  7  1  0  0  0  0
 17  8  1  0  0  0  0
 17 18  1  0  0  0  0
 18 20  2  0  0  0  0
 18 19  1  0  0  0  0
 20 21  1  0  0  0  0
 22 20  1  0  0  0  0
 23 24  1  0  0  0  0
 23 22  2  0  0  0  0
 24 17  2  0  0  0  0
 27 26  2  6  0  0  0
 27 30  1  0  0  0  0
 27 28  1  0  0  0  0
 27 25  1  0  0  0  0
 29 28  1  0  0  0  0
 31 32  1  0  0  0  0
 32 38  1  0  0  0  0
 33 32  2  0  0  0  0
 33 30  1  0  0  0  0
 34 33  1  0  0  0  0
 35 36  1  0  0  0  0
 35 34  2  0  0  0  0
 36 31  2  0  0  0  0
 37 31  1  0  0  0  0
 39 35  1  0  0  0  0
M  END
>  <minimizedAffinity>
-5.77851534

$$$$

 OpenBabel03242522553D

 39 41  0  0  1  0  0  0  0  0999 V2000
   40.0730   29.7330   39.7840 C   0  0  0  0  0  0  0  0  0  0  0  0
   39.1650   28.8520   39.9940 O   0  0  0  0  0  0  0  0  0  0  0  0
   40.6270   29.4530   41.0690 N   0  0  0  0  0  0  0  0  0  0  0  0
   41.2300   30.6690   41.5890 C   0  0  0  0  0  0  0  0  0  0  0  0
   41.8790   30.2710   42.9020 C   0  0  0  0  0  0  0  0  0  0  0  0
   42.5750   28.9880   42.7560 N   0  0  0  0  0  0  0  0  0  0  0  0
   41.5530   27.9850   42.8320 C   0  0  0  0  0  0  0  0  0  0  0  0
   40.5820   28.1610   41.7270 C   0  0  1  0  0  0  0  0  0  0  0  0
   42.0100   30.9820   40.8860 H   0  0  0  0  0  0  0  0  0  0  0  0
   40.4630   31.4460   41.8070 H   0  0  0  0  0  0  0  0  0  0  0  0
   41.1310   30.1860   43.7120 H   0  0  0  0  0  0  0  0  0  0  0  0
   42.6440   31.0330   43.1770 H   0  0  0  0  0  0  0  0  0  0  0  0
   43.0540   28.9310   41.8280 H   0  0  0  0  0  0  0  0  0  0  0  0
   42.0450   26.9720   42.7740 H   0  0  0  0  0  0  0  0  0  0  0  0
   41.0540   28.0750   43.8240 H   0  0  0  0  0  0  0  0  0  0  0  0
   40.7990   27.4080   40.9400 H   0  0  0  0  0  0  0  0  0  0  0  0
   39.2110   27.8690   42.2530 C   0  0  0  0  0  0  0  0  0  0  0  0
   38.5910   28.7170   43.1580 C   0  0  0  0  0  0  0  0  0  0  0  0
   39.1830   29.5940   43.4440 H   0  0  0  0  0  0  0  0  0  0  0  0
   37.3350   28.5080   43.6800 C   0  0  0  0  0  0  0  0  0  0  0  0
   36.9450   29.2390   44.3850 H   0  0  0  0  0  0  0  0  0  0  0  0
   36.6590   27.3630   43.2550 C   0  0  0  0  0  3  0  0  0  0  0  0
   37.2740   26.5150   42.3510 C   0  0  0  0  0  3  0  0  0  0  0  0
   38.5220   26.7690   41.8640 N   0  0  0  0  0  0  0  0  0  0  0  0
   39.9660   30.3420   38.5770 O   0  0  0  0  0  0  0  0  0  0  0  0
   39.9480   32.8930   39.2530 O   0  0  0  0  0  0  0  0  0  0  0  0
   39.4850   31.8710   38.1790 P   0  0  1  0  0  0  0  0  0  0  0  0
   40.1740   32.3870   36.7380 O   0  0  0  0  0  0  0  0  0  0  0  0
   41.1280   32.6430   36.8890 H   0  0  0  0  0  0  0  0  0  0  0  0
   37.8010   31.9530   38.1060 O   0  0  0  0  0  0  0  0  0  0  0  0
   36.0590   30.6980   41.0290 C   0  0  0  0  0  0  0  0  0  0  0  0
   36.8760   31.4910   40.1820 C   0  0  0  0  0  0  0  0  0  0  0  0
   36.9960   31.1470   38.8660 C   0  0  0  0  0  0  0  0  0  0  0  0
   36.3250   30.0470   38.4020 N   0  0  0  0  0  0  0  0  0  0  0  0
   35.5510   29.3090   39.2330 C   0  0  0  0  0  0  0  0  0  0  0  0
   35.4150   29.6190   40.5170 N   0  0  0  0  0  0  0  0  0  0  0  0
   35.9140   30.9040   42.0720 H   0  0  0  0  0  0  0  0  0  0  0  0
   37.3190   32.3040   40.7190 H   0  0  0  0  0  0  0  0  0  0  0  0
   35.1160   28.4950   38.6690 H   0  0  0  0  0  0  0  0  0  0  0  0
  1  2  2  0  0  0  0
  1  3  1  0  0  0  0
  3  4  1  0  0  0  0
  3  8  1  0  0  0  0
  4 10  1  0  0  0  0
  4  5  1  0  0  0  0
  5 12  1  0  0  0  0
  5 11  1  0  0  0  0
  6  7  1  0  0  0  0
  6  5  1  0  0  0  0
  7 15  1  0  0  0  0
  8 16  1  6  0  0  0
  8 17  1  0  0  0  0
  8  7  1  0  0  0  0
  9  4  1  0  0  0  0
 13  6  1  0  0  0  0
 14  7  1  0  0  0  0
 17 18  1  0  0  0  0
 18 19  1  0  0  0  0
 18 20  2  0  0  0  0
 20 21  1  0  0  0  0
 22 20  1  0  0  0  0
 23 22  2  0  0  0  0
 24 17  2  0  0  0  0
 24 23  1  0  0  0  0
 25  1  1  0  0  0  0
 27 25  1  0  0  0  0
 27 26  2  1  0  0  0
 28 29  1  0  0  0  0
 28 27  1  0  0  0  0
 30 27  1  0  0  0  0
 30 33  1  0  0  0  0
 31 37  1  0  0  0  0
 32 38  1  0  0  0  0
 32 31  2  0  0  0  0
 33 32  1  0  0  0  0
 34 33  2  0  0  0  0
 34 35  1  0  0  0  0
 35 36  2  0  0  0  0
 36 31  1  0  0  0  0
 39 35  1  0  0  0  0
M  END
>  <minimizedAffinity>
-5.76837492

$$$$

 OpenBabel03242522553D

 39 41  0  0  1  0  0  0  0  0999 V2000
   39.4700   30.1190   39.3110 C   0  0  0  0  0  0  0  0  0  0  0  0
   39.9870   29.4350   40.2660 O   0  0  0  0  0  0  0  0  0  0  0  0
   38.1890   29.9870   39.9270 N   0  0  0  0  0  0  0  0  0  0  0  0
   37.1730   29.9760   38.8870 C   0  0  0  0  0  0  0  0  0  0  0  0
   35.8440   29.9350   39.6180 C   0  0  0  0  0  0  0  0  0  0  0  0
   35.8630   30.8570   40.7580 N   0  0  0  0  0  0  0  0  0  0  0  0
   36.5780   30.1720   41.7960 C   0  0  0  0  0  0  0  0  0  0  0  0
   37.9630   29.8840   41.3560 C   0  0  1  0  0  0  0  0  0  0  0  0
   37.2490   30.9200   38.3360 H   0  0  0  0  0  0  0  0  0  0  0  0
   37.2450   29.0620   38.2550 H   0  0  0  0  0  0  0  0  0  0  0  0
   35.6150   28.9160   39.9820 H   0  0  0  0  0  0  0  0  0  0  0  0
   35.0370   30.2770   38.9290 H   0  0  0  0  0  0  0  0  0  0  0  0
   36.3650   31.7410   40.5110 H   0  0  0  0  0  0  0  0  0  0  0  0
   36.5780   30.8230   42.7160 H   0  0  0  0  0  0  0  0  0  0  0  0
   36.0280   29.2330   42.0320 H   0  0  0  0  0  0  0  0  0  0  0  0
   38.6460   30.6210   41.8290 H   0  0  0  0  0  0  0  0  0  0  0  0
   38.3490   28.5310   41.8690 C   0  0  0  0  0  0  0  0  0  0  0  0
   39.1220   28.3880   43.0100 C   0  0  0  0  0  0  0  0  0  0  0  0
   39.4160   29.3310   43.4870 H   0  0  0  0  0  0  0  0  0  0  0  0
   39.5130   27.1770   43.5350 C   0  0  0  0  0  0  0  0  0  0  0  0
   40.1210   27.1820   44.4360 H   0  0  0  0  0  0  0  0  0  0  0  0
   39.0900   26.0330   42.8570 C   0  0  0  0  0  3  0  0  0  0  0  0
   38.3170   26.1710   41.7180 C   0  0  0  0  0  3  0  0  0  0  0  0
   37.9580   27.3960   41.2400 N   0  0  0  0  0  0  0  0  0  0  0  0
   40.3720   30.5140   38.3790 O   0  0  0  0  0  0  0  0  0  0  0  0
   42.0370   32.0280   37.0010 O   0  0  0  0  0  0  0  0  0  0  0  0
   40.6610   32.0000   37.7210 P   0  0  1  0  0  0  0  0  0  0  0  0
   39.5280   32.3930   36.5450 O   0  0  0  0  0  0  0  0  0  0  0  0
   39.7270   31.8950   35.7020 H   0  0  0  0  0  0  0  0  0  0  0  0
   40.7070   33.1770   38.9300 O   0  0  0  0  0  0  0  0  0  0  0  0
   42.7260   32.5900   41.8860 C   0  0  0  0  0  0  0  0  0  0  0  0
   41.6740   32.5260   40.9350 C   0  0  0  0  0  0  0  0  0  0  0  0
   41.7550   33.2850   39.8040 C   0  0  0  0  0  0  0  0  0  0  0  0
   42.8510   34.0870   39.6180 N   0  0  0  0  0  0  0  0  0  0  0  0
   43.8410   34.1280   40.5410 C   0  0  0  0  0  0  0  0  0  0  0  0
   43.7890   33.4000   41.6510 N   0  0  0  0  0  0  0  0  0  0  0  0
   42.7350   32.0240   42.7970 H   0  0  0  0  0  0  0  0  0  0  0  0
   40.9070   31.8490   41.2500 H   0  0  0  0  0  0  0  0  0  0  0  0
   44.6020   34.8170   40.2020 H   0  0  0  0  0  0  0  0  0  0  0  0
  1  3  1  0  0  0  0
  1  2  2  0  0  0  0
  3  8  1  0  0  0  0
  4  5  1  0  0  0  0
  4  3  1  0  0  0  0
  5 11  1  0  0  0  0
  5  6  1  0  0  0  0
  6  7  1  0  0  0  0
  7 15  1  0  0  0  0
  7 14  1  0  0  0  0
  8  7  1  0  0  0  0
  8 16  1  1  0  0  0
  8 17  1  0  0  0  0
  9  4  1  0  0  0  0
 10  4  1  0  0  0  0
 12  5  1  0  0  0  0
 13  6  1  0  0  0  0
 17 18  1  0  0  0  0
 18 19  1  0  0  0  0
 18 20  2  0  0  0  0
 20 21  1  0  0  0  0
 22 20  1  0  0  0  0
 23 22  2  0  0  0  0
 24 23  1  0  0  0  0
 24 17  2  0  0  0  0
 25  1  1  0  0  0  0
 27 26  2  6  0  0  0
 27 25  1  0  0  0  0
 27 30  1  0  0  0  0
 28 27  1  0  0  0  0
 29 28  1  0  0  0  0
 30 33  1  0  0  0  0
 31 37  1  0  0  0  0
 32 38  1  0  0  0  0
 32 31  2  0  0  0  0
 33 32  1  0  0  0  0
 34 33  2  0  0  0  0
 34 35  1  0  0  0  0
 35 36  2  0  0  0  0
 36 31  1  0  0  0  0
 39 35  1  0  0  0  0
M  END
>  <minimizedAffinity>
-5.65488911

$$$$

 OpenBabel03242522553D

 39 41  0  0  1  0  0  0  0  0999 V2000
   37.3170   27.5400   41.9360 C   0  0  0  0  0  0  0  0  0  0  0  0
   38.3170   28.1730   42.4310 O   0  0  0  0  0  0  0  0  0  0  0  0
   38.0870   26.3380   41.9470 N   0  0  0  0  0  0  0  0  0  0  0  0
   37.6550   25.5000   40.8420 C   0  0  0  0  0  0  0  0  0  0  0  0
   38.4420   24.2090   40.9780 C   0  0  0  0  0  0  0  0  0  0  0  0
   38.4830   23.7860   42.3820 N   0  0  0  0  0  0  0  0  0  0  0  0
   39.4940   24.5950   42.9990 C   0  0  0  0  0  0  0  0  0  0  0  0
   39.1230   26.0270   42.9140 C   0  0  1  0  0  0  0  0  0  0  0  0
   36.5900   25.2850   40.9810 H   0  0  0  0  0  0  0  0  0  0  0  0
   37.9120   25.9560   39.8580 H   0  0  0  0  0  0  0  0  0  0  0  0
   39.4770   24.3260   40.6060 H   0  0  0  0  0  0  0  0  0  0  0  0
   37.9270   23.4050   40.4050 H   0  0  0  0  0  0  0  0  0  0  0  0
   37.5630   23.9590   42.8470 H   0  0  0  0  0  0  0  0  0  0  0  0
   39.5990   24.2730   44.0740 H   0  0  0  0  0  0  0  0  0  0  0  0
   40.4590   24.3980   42.4780 H   0  0  0  0  0  0  0  0  0  0  0  0
   38.7310   26.3510   43.9010 H   0  0  0  0  0  0  0  0  0  0  0  0
   40.3650   26.8210   42.6500 C   0  0  0  0  0  0  0  0  0  0  0  0
   41.0580   27.4380   43.6800 C   0  0  0  0  0  0  0  0  0  0  0  0
   40.6220   27.2940   44.6760 H   0  0  0  0  0  0  0  0  0  0  0  0
   42.2030   28.1810   43.5080 C   0  0  0  0  0  0  0  0  0  0  0  0
   42.6650   28.6220   44.3880 H   0  0  0  0  0  0  0  0  0  0  0  0
   42.6810   28.3070   42.2020 C   0  0  0  0  0  3  0  0  0  0  0  0
   41.9930   27.6920   41.1710 C   0  0  0  0  0  3  0  0  0  0  0  0
   40.8610   26.9660   41.3970 N   0  0  0  0  0  0  0  0  0  0  0  0
   36.2340   28.3260   41.7200 O   0  0  0  0  0  0  0  0  0  0  0  0
   34.8530   29.3040   39.6950 O   0  0  0  0  0  0  0  0  0  0  0  0
   36.0110   29.5950   40.6890 P   0  0  1  0  0  0  0  0  0  0  0  0
   35.5620   30.9920   41.5060 O   0  0  0  0  0  0  0  0  0  0  0  0
   34.6010   30.9370   41.7710 H   0  0  0  0  0  0  0  0  0  0  0  0
   37.4030   29.8550   39.7710 O   0  0  0  0  0  0  0  0  0  0  0  0
   40.6430   31.3530   40.4170 C   0  0  0  0  0  0  0  0  0  0  0  0
   39.6320   30.4130   40.0850 C   0  0  0  0  0  0  0  0  0  0  0  0
   38.3260   30.8110   40.0990 C   0  0  0  0  0  0  0  0  0  0  0  0
   38.0300   32.1060   40.4340 N   0  0  0  0  0  0  0  0  0  0  0  0
   39.0140   32.9820   40.7450 C   0  0  0  0  0  0  0  0  0  0  0  0
   40.2930   32.6230   40.7390 N   0  0  0  0  0  0  0  0  0  0  0  0
   41.6890   31.1160   40.4270 H   0  0  0  0  0  0  0  0  0  0  0  0
   40.0520   29.4560   39.8530 H   0  0  0  0  0  0  0  0  0  0  0  0
   38.5660   33.9390   40.9760 H   0  0  0  0  0  0  0  0  0  0  0  0
  1  3  1  0  0  0  0
  1  2  2  0  0  0  0
  3  8  1  0  0  0  0
  4  5  1  0  0  0  0
  4  9  1  0  0  0  0
  4  3  1  0  0  0  0
  5  6  1  0  0  0  0
  6 13  1  0  0  0  0
  6  7  1  0  0  0  0
  7 14  1  0  0  0  0
  8  7  1  0  0  0  0
  8 16  1  1  0  0  0
 10  4  1  0  0  0  0
 11  5  1  0  0  0  0
 12  5  1  0  0  0  0
 15  7  1  0  0  0  0
 17  8  1  0  0  0  0
 17 18  1  0  0  0  0
 18 19  1  0  0  0  0
 20 18  2  0  0  0  0
 20 21  1  0  0  0  0
 22 20  1  0  0  0  0
 23 24  1  0  0  0  0
 23 22  2  0  0  0  0
 24 17  2  0  0  0  0
 25  1  1  0  0  0  0
 27 26  2  6  0  0  0
 27 28  1  0  0  0  0
 27 25  1  0  0  0  0
 28 29  1  0  0  0  0
 30 33  1  0  0  0  0
 30 27  1  0  0  0  0
 31 37  1  0  0  0  0
 31 36  1  0  0  0  0
 32 33  1  0  0  0  0
 32 31  2  0  0  0  0
 33 34  2  0  0  0  0
 34 35  1  0  0  0  0
 35 39  1  0  0  0  0
 36 35  2  0  0  0  0
 38 32  1  0  0  0  0
M  END
>  <minimizedAffinity>
-5.60824585

$$$$

 OpenBabel03242522553D

 39 41  0  0  1  0  0  0  0  0999 V2000
   39.3800   30.5910   41.7320 C   0  0  0  0  0  0  0  0  0  0  0  0
   38.2180   30.0490   41.7040 O   0  0  0  0  0  0  0  0  0  0  0  0
   38.9680   31.5010   40.7130 N   0  0  0  0  0  0  0  0  0  0  0  0
   40.1250   31.8490   39.9060 C   0  0  0  0  0  0  0  0  0  0  0  0
   39.6330   32.8880   38.9160 C   0  0  0  0  0  0  0  0  0  0  0  0
   38.7620   33.8570   39.5880 N   0  0  0  0  0  0  0  0  0  0  0  0
   37.4870   33.2110   39.7090 C   0  0  0  0  0  0  0  0  0  0  0  0
   37.6130   31.9870   40.5340 C   0  0  1  0  0  0  0  0  0  0  0  0
   40.8680   32.3090   40.5670 H   0  0  0  0  0  0  0  0  0  0  0  0
   40.4980   30.9730   39.3280 H   0  0  0  0  0  0  0  0  0  0  0  0
   39.0770   32.4190   38.0820 H   0  0  0  0  0  0  0  0  0  0  0  0
   40.5060   33.4510   38.5130 H   0  0  0  0  0  0  0  0  0  0  0  0
   39.1300   34.0870   40.5400 H   0  0  0  0  0  0  0  0  0  0  0  0
   36.7630   33.9360   40.1790 H   0  0  0  0  0  0  0  0  0  0  0  0
   37.1240   32.9680   38.6840 H   0  0  0  0  0  0  0  0  0  0  0  0
   37.2260   32.2040   41.5530 H   0  0  0  0  0  0  0  0  0  0  0  0
   36.7330   30.9270   39.9450 C   0  0  0  0  0  0  0  0  0  0  0  0
   36.8770   30.5230   38.6270 C   0  0  0  0  0  0  0  0  0  0  0  0
   37.6720   31.0380   38.0730 H   0  0  0  0  0  0  0  0  0  0  0  0
   36.1040   29.5580   38.0230 C   0  0  0  0  0  0  0  0  0  0  0  0
   36.3040   29.3190   36.9810 H   0  0  0  0  0  0  0  0  0  0  0  0
   35.1180   28.9600   38.8100 C   0  0  0  0  0  3  0  0  0  0  0  0
   34.9720   29.3600   40.1260 C   0  0  0  0  0  3  0  0  0  0  0  0
   35.7650   30.3220   40.6750 N   0  0  0  0  0  0  0  0  0  0  0  0
   40.2200   30.0200   42.6310 O   0  0  0  0  0  0  0  0  0  0  0  0
   40.9090   27.8320   41.3280 O   0  0  0  0  0  0  0  0  0  0  0  0
   40.8040   28.4800   42.7350 P   0  0  1  0  0  0  0  0  0  0  0  0
   42.3590   28.4430   43.3660 O   0  0  0  0  0  0  0  0  0  0  0  0
   43.0160   28.7280   42.6690 H   0  0  0  0  0  0  0  0  0  0  0  0
   39.7590   27.5200   43.6500 O   0  0  0  0  0  0  0  0  0  0  0  0
   37.1780   25.4760   42.1290 C   0  0  0  0  0  0  0  0  0  0  0  0
   37.8730   26.5850   42.6780 C   0  0  0  0  0  0  0  0  0  0  0  0
   39.1480   26.4090   43.1330 C   0  0  0  0  0  0  0  0  0  0  0  0
   39.7190   25.1670   43.0480 N   0  0  0  0  0  0  0  0  0  0  0  0
   39.0330   24.1260   42.5200 C   0  0  0  0  0  0  0  0  0  0  0  0
   37.7920   24.2680   42.0680 N   0  0  0  0  0  0  0  0  0  0  0  0
   36.1760   25.5350   41.7500 H   0  0  0  0  0  0  0  0  0  0  0  0
   37.2690   27.4690   42.6610 H   0  0  0  0  0  0  0  0  0  0  0  0
   39.6610   23.2470   42.5470 H   0  0  0  0  0  0  0  0  0  0  0  0
  1 25  1  0  0  0  0
  2  1  2  0  0  0  0
  3  1  1  0  0  0  0
  4  9  1  0  0  0  0
  4  3  1  0  0  0  0
  5  6  1  0  0  0  0
  5  4  1  0  0  0  0
  6  7  1  0  0  0  0
  6 13  1  0  0  0  0
  7 14  1  0  0  0  0
  7  8  1  0  0  0  0
  8  3  1  0  0  0  0
  8 16  1  1  0  0  0
 10  4  1  0  0  0  0
 11  5  1  0  0  0  0
 12  5  1  0  0  0  0
 15  7  1  0  0  0  0
 17  8  1  0  0  0  0
 17 24  1  0  0  0  0
 18 17  2  0  0  0  0
 19 18  1  0  0  0  0
 20 18  1  0  0  0  0
 20 22  2  0  0  0  0
 21 20  1  0  0  0  0
 22 23  1  0  0  0  0
 23 24  2  0  0  0  0
 25 27  1  0  0  0  0
 27 26  2  6  0  0  0
 27 28  1  0  0  0  0
 27 30  1  0  0  0  0
 29 28  1  0  0  0  0
 31 32  1  0  0  0  0
 32 33  2  0  0  0  0
 33 30  1  0  0  0  0
 34 33  1  0  0  0  0
 35 39  1  0  0  0  0
 35 34  2  0  0  0  0
 36 31  2  0  0  0  0
 36 35  1  0  0  0  0
 37 31  1  0  0  0  0
 38 32  1  0  0  0  0
M  END
>  <minimizedAffinity>
-5.52122307

$$$$

 OpenBabel03242522553D

 39 41  0  0  1  0  0  0  0  0999 V2000
   35.6970   29.5930   37.5470 C   0  0  0  0  0  0  0  0  0  0  0  0
   36.7370   30.1640   37.0590 O   0  0  0  0  0  0  0  0  0  0  0  0
   36.1210   29.9660   38.8580 N   0  0  0  0  0  0  0  0  0  0  0  0
   35.6650   28.9570   39.7980 C   0  0  0  0  0  0  0  0  0  0  0  0
   36.0630   29.4690   41.1700 C   0  0  0  0  0  0  0  0  0  0  0  0
   35.7770   30.9030   41.2780 N   0  0  0  0  0  0  0  0  0  0  0  0
   36.8540   31.5640   40.5990 C   0  0  0  0  0  0  0  0  0  0  0  0
   36.8810   31.1610   39.1740 C   0  0  1  0  0  0  0  0  0  0  0  0
   34.5720   28.9130   39.7370 H   0  0  0  0  0  0  0  0  0  0  0  0
   36.1780   27.9820   39.6340 H   0  0  0  0  0  0  0  0  0  0  0  0
   37.1380   29.3000   41.3670 H   0  0  0  0  0  0  0  0  0  0  0  0
   35.4540   28.9510   41.9450 H   0  0  0  0  0  0  0  0  0  0  0  0
   34.8710   31.1360   40.8100 H   0  0  0  0  0  0  0  0  0  0  0  0
   36.7050   32.6770   40.6970 H   0  0  0  0  0  0  0  0  0  0  0  0
   37.8040   31.2910   41.1120 H   0  0  0  0  0  0  0  0  0  0  0  0
   36.4370   31.9770   38.5650 H   0  0  0  0  0  0  0  0  0  0  0  0
   38.3100   31.0210   38.7500 C   0  0  0  0  0  0  0  0  0  0  0  0
   39.0800   29.9420   39.1570 C   0  0  0  0  0  0  0  0  0  0  0  0
   38.5580   29.2230   39.8010 H   0  0  0  0  0  0  0  0  0  0  0  0
   40.3960   29.7520   38.8060 C   0  0  0  0  0  0  0  0  0  0  0  0
   40.9050   28.8690   39.1840 H   0  0  0  0  0  0  0  0  0  0  0  0
   40.9730   30.7220   37.9830 C   0  0  0  0  0  3  0  0  0  0  0  0
   40.2090   31.7990   37.5740 C   0  0  0  0  0  3  0  0  0  0  0  0
   38.9060   31.9400   37.9520 N   0  0  0  0  0  0  0  0  0  0  0  0
   34.8980   29.0300   36.6070 O   0  0  0  0  0  0  0  0  0  0  0  0
   33.2360   26.9810   36.6190 O   0  0  0  0  0  0  0  0  0  0  0  0
   33.3270   28.5300   36.6850 P   0  0  1  0  0  0  0  0  0  0  0  0
   32.6060   28.9630   38.1390 O   0  0  0  0  0  0  0  0  0  0  0  0
   32.9170   28.3540   38.8670 H   0  0  0  0  0  0  0  0  0  0  0  0
   32.4540   29.1380   35.3750 O   0  0  0  0  0  0  0  0  0  0  0  0
   30.9350   32.2690   34.3510 C   0  0  0  0  0  0  0  0  0  0  0  0
   31.6800   31.0610   34.3340 C   0  0  0  0  0  0  0  0  0  0  0  0
   31.7170   30.2890   35.4600 C   0  0  0  0  0  0  0  0  0  0  0  0
   31.0350   30.7040   36.5730 N   0  0  0  0  0  0  0  0  0  0  0  0
   30.3320   31.8610   36.5610 C   0  0  0  0  0  0  0  0  0  0  0  0
   30.2770   32.6310   35.4810 N   0  0  0  0  0  0  0  0  0  0  0  0
   30.8570   32.9270   33.5080 H   0  0  0  0  0  0  0  0  0  0  0  0
   32.1430   30.9040   33.3820 H   0  0  0  0  0  0  0  0  0  0  0  0
   29.8740   31.9980   37.5320 H   0  0  0  0  0  0  0  0  0  0  0  0
  1  3  1  0  0  0  0
  2  1  2  0  0  0  0
  3  8  1  0  0  0  0
  3  4  1  0  0  0  0
  4  5  1  0  0  0  0
  5  6  1  0  0  0  0
  5 11  1  0  0  0  0
  5 12  1  0  0  0  0
  7 14  1  0  0  0  0
  7 15  1  0  0  0  0
  7  6  1  0  0  0  0
  8 16  1  6  0  0  0
  8  7  1  0  0  0  0
  9  4  1  0  0  0  0
 10  4  1  0  0  0  0
 13  6  1  0  0  0  0
 17 18  1  0  0  0  0
 17  8  1  0  0  0  0
 18 19  1  0  0  0  0
 20 18  2  0  0  0  0
 20 21  1  0  0  0  0
 22 20  1  0  0  0  0
 23 24  1  0  0  0  0
 23 22  2  0  0  0  0
 24 17  2  0  0  0  0
 25 27  1  0  0  0  0
 25  1  1  0  0  0  0
 27 26  2  6  0  0  0
 27 28  1  0  0  0  0
 28 29  1  0  0  0  0
 30 33  1  0  0  0  0
 30 27  1  0  0  0  0
 31 36  1  0  0  0  0
 32 31  2  0  0  0  0
 32 33  1  0  0  0  0
 33 34  2  0  0  0  0
 35 34  1  0  0  0  0
 35 39  1  0  0  0  0
 36 35  2  0  0  0  0
 37 31  1  0  0  0  0
 38 32  1  0  0  0  0
M  END
>  <minimizedAffinity>
-5.50702047

$$$$

 OpenBabel03242522553D

 39 41  0  0  1  0  0  0  0  0999 V2000
   40.5290   32.4550   38.6300 C   0  0  0  0  0  0  0  0  0  0  0  0
   40.7460   31.5280   37.7690 O   0  0  0  0  0  0  0  0  0  0  0  0
   41.9250   32.7540   38.6440 N   0  0  0  0  0  0  0  0  0  0  0  0
   42.2820   33.2400   39.9650 C   0  0  0  0  0  0  0  0  0  0  0  0
   43.7470   33.6280   39.8740 C   0  0  0  0  0  0  0  0  0  0  0  0
   44.0040   34.3450   38.6210 N   0  0  0  0  0  0  0  0  0  0  0  0
   44.0970   33.3340   37.6090 C   0  0  0  0  0  0  0  0  0  0  0  0
   42.8180   32.5910   37.5120 C   0  0  1  0  0  0  0  0  0  0  0  0
   41.6870   34.1380   40.1640 H   0  0  0  0  0  0  0  0  0  0  0  0
   42.1870   32.4410   40.7350 H   0  0  0  0  0  0  0  0  0  0  0  0
   44.4030   32.7390   39.9220 H   0  0  0  0  0  0  0  0  0  0  0  0
   43.9950   34.3210   40.7100 H   0  0  0  0  0  0  0  0  0  0  0  0
   43.2150   34.9940   38.3980 H   0  0  0  0  0  0  0  0  0  0  0  0
   44.3440   33.8330   36.6290 H   0  0  0  0  0  0  0  0  0  0  0  0
   44.9370   32.6530   37.8770 H   0  0  0  0  0  0  0  0  0  0  0  0
   42.2600   32.9590   36.6250 H   0  0  0  0  0  0  0  0  0  0  0  0
   43.1290   31.1460   37.2710 C   0  0  0  0  0  0  0  0  0  0  0  0
   42.9840   30.5780   36.0150 C   0  0  0  0  0  0  0  0  0  0  0  0
   42.6310   31.2680   35.2380 H   0  0  0  0  0  0  0  0  0  0  0  0
   43.2500   29.2600   35.7250 C   0  0  0  0  0  0  0  0  0  0  0  0
   43.1010   28.9200   34.7030 H   0  0  0  0  0  0  0  0  0  0  0  0
   43.6960   28.4620   36.7800 C   0  0  0  0  0  3  0  0  0  0  0  0
   43.8420   29.0240   38.0350 C   0  0  0  0  0  3  0  0  0  0  0  0
   43.5640   30.3380   38.2690 N   0  0  0  0  0  0  0  0  0  0  0  0
   39.2240   32.5770   38.9740 O   0  0  0  0  0  0  0  0  0  0  0  0
   38.8630   34.0870   41.1080 O   0  0  0  0  0  0  0  0  0  0  0  0
   38.5080   32.7240   40.4540 P   0  0  1  0  0  0  0  0  0  0  0  0
   36.8320   32.6990   40.3430 O   0  0  0  0  0  0  0  0  0  0  0  0
   36.5010   33.5810   40.0090 H   0  0  0  0  0  0  0  0  0  0  0  0
   39.0600   31.5130   41.4930 O   0  0  0  0  0  0  0  0  0  0  0  0
   37.9740   28.5130   43.2180 C   0  0  0  0  0  0  0  0  0  0  0  0
   38.6970   29.6850   42.8730 C   0  0  0  0  0  0  0  0  0  0  0  0
   38.3200   30.3950   41.7690 C   0  0  0  0  0  0  0  0  0  0  0  0
   37.2560   29.9550   41.0270 N   0  0  0  0  0  0  0  0  0  0  0  0
   36.5840   28.8340   41.3800 C   0  0  0  0  0  0  0  0  0  0  0  0
   36.9270   28.1240   42.4490 N   0  0  0  0  0  0  0  0  0  0  0  0
   38.2080   27.9040   44.0700 H   0  0  0  0  0  0  0  0  0  0  0  0
   39.4910   29.8700   43.5660 H   0  0  0  0  0  0  0  0  0  0  0  0
   35.7880   28.6680   40.6670 H   0  0  0  0  0  0  0  0  0  0  0  0
  1  3  1  0  0  0  0
  1 25  1  0  0  0  0
  2  1  2  0  0  0  0
  3  4  1  0  0  0  0
  4  9  1  0  0  0  0
  4 10  1  0  0  0  0
  5 11  1  0  0  0  0
  5  4  1  0  0  0  0
  5 12  1  0  0  0  0
  6  5  1  0  0  0  0
  7 15  1  0  0  0  0
  7  6  1  0  0  0  0
  8 16  1  6  0  0  0
  8  7  1  0  0  0  0
  8  3  1  0  0  0  0
 13  6  1  0  0  0  0
 14  7  1  0  0  0  0
 17  8  1  0  0  0  0
 17 24  1  0  0  0  0
 18 17  2  0  0  0  0
 19 18  1  0  0  0  0
 20 18  1  0  0  0  0
 20 22  2  0  0  0  0
 21 20  1  0  0  0  0
 22 23  1  0  0  0  0
 23 24  2  0  0  0  0
 25 27  1  0  0  0  0
 27 26  2  1  0  0  0
 27 30  1  0  0  0  0
 28 27  1  0  0  0  0
 29 28  1  0  0  0  0
 30 33  1  0  0  0  0
 31 37  1  0  0  0  0
 32 31  1  0  0  0  0
 32 38  1  0  0  0  0
 33 32  2  0  0  0  0
 34 35  2  0  0  0  0
 34 33  1  0  0  0  0
 35 36  1  0  0  0  0
 36 31  2  0  0  0  0
 39 35  1  0  0  0  0
M  END
>  <minimizedAffinity>
-5.3945384

$$$$

 OpenBabel03242522553D

 39 41  0  0  1  0  0  0  0  0999 V2000
   38.4230   31.1020   39.9450 C   0  0  0  0  0  0  0  0  0  0  0  0
   38.9930   30.5060   40.9280 O   0  0  0  0  0  0  0  0  0  0  0  0
   37.3550   30.1570   40.0050 N   0  0  0  0  0  0  0  0  0  0  0  0
   36.8230   29.9740   38.6650 C   0  0  0  0  0  0  0  0  0  0  0  0
   35.6370   29.0400   38.8240 C   0  0  0  0  0  0  0  0  0  0  0  0
   34.8420   29.4230   39.9940 N   0  0  0  0  0  0  0  0  0  0  0  0
   35.5460   28.8970   41.1280 C   0  0  0  0  0  0  0  0  0  0  0  0
   36.8960   29.5010   41.2140 C   0  0  1  0  0  0  0  0  0  0  0  0
   36.4650   30.9470   38.3120 H   0  0  0  0  0  0  0  0  0  0  0  0
   37.5620   29.4790   37.9950 H   0  0  0  0  0  0  0  0  0  0  0  0
   35.9630   27.9890   38.9370 H   0  0  0  0  0  0  0  0  0  0  0  0
   34.9770   29.1320   37.9310 H   0  0  0  0  0  0  0  0  0  0  0  0
   34.7780   30.4640   40.0730 H   0  0  0  0  0  0  0  0  0  0  0  0
   34.9460   29.1240   42.0550 H   0  0  0  0  0  0  0  0  0  0  0  0
   35.6070   27.7910   41.0130 H   0  0  0  0  0  0  0  0  0  0  0  0
   36.8850   30.2840   42.0030 H   0  0  0  0  0  0  0  0  0  0  0  0
   37.8590   28.4430   41.6550 C   0  0  0  0  0  0  0  0  0  0  0  0
   38.2600   28.3410   42.9780 C   0  0  0  0  0  0  0  0  0  0  0  0
   37.8190   29.0870   43.6500 H   0  0  0  0  0  0  0  0  0  0  0  0
   39.1410   27.3950   43.4500 C   0  0  0  0  0  0  0  0  0  0  0  0
   39.3870   27.4070   44.5100 H   0  0  0  0  0  0  0  0  0  0  0  0
   39.6490   26.4880   42.5180 C   0  0  0  0  0  3  0  0  0  0  0  0
   39.2500   26.5860   41.1970 C   0  0  0  0  0  3  0  0  0  0  0  0
   38.3740   27.5440   40.7820 N   0  0  0  0  0  0  0  0  0  0  0  0
   39.1190   32.1720   39.4860 O   0  0  0  0  0  0  0  0  0  0  0  0
   38.8070   34.3440   40.9510 O   0  0  0  0  0  0  0  0  0  0  0  0
   39.8570   33.4070   40.2960 P   0  0  1  0  0  0  0  0  0  0  0  0
   40.8090   32.8430   41.5590 O   0  0  0  0  0  0  0  0  0  0  0  0
   40.2310   32.5800   42.3300 H   0  0  0  0  0  0  0  0  0  0  0  0
   40.7660   34.3450   39.2280 O   0  0  0  0  0  0  0  0  0  0  0  0
   43.9500   33.7910   37.5820 C   0  0  0  0  0  0  0  0  0  0  0  0
   42.5610   33.9700   37.8070 C   0  0  0  0  0  0  0  0  0  0  0  0
   42.1180   34.1810   39.0810 C   0  0  0  0  0  0  0  0  0  0  0  0
   43.0280   34.2130   40.1050 N   0  0  0  0  0  0  0  0  0  0  0  0
   44.3480   34.0400   39.8610 C   0  0  0  0  0  0  0  0  0  0  0  0
   44.8080   33.8340   38.6320 N   0  0  0  0  0  0  0  0  0  0  0  0
   44.3740   33.6220   36.6110 H   0  0  0  0  0  0  0  0  0  0  0  0
   42.0080   33.9130   36.8920 H   0  0  0  0  0  0  0  0  0  0  0  0
   44.8850   34.1020   40.7980 H   0  0  0  0  0  0  0  0  0  0  0  0
  1  3  1  0  0  0  0
  1  2  2  0  0  0  0
  3  8  1  0  0  0  0
  4  5  1  0  0  0  0
  4  3  1  0  0  0  0
  5 11  1  0  0  0  0
  5  6  1  0  0  0  0
  6 13  1  0  0  0  0
  6  7  1  0  0  0  0
  7  8  1  0  0  0  0
  7 14  1  0  0  0  0
  8 17  1  0  0  0  0
  8 16  1  1  0  0  0
  9  4  1  0  0  0  0
 10  4  1  0  0  0  0
 12  5  1  0  0  0  0
 15  7  1  0  0  0  0
 17 18  1  0  0  0  0
 18 20  2  0  0  0  0
 18 19  1  0  0  0  0
 20 21  1  0  0  0  0
 22 20  1  0  0  0  0
 23 22  2  0  0  0  0
 24 23  1  0  0  0  0
 24 17  2  0  0  0  0
 25  1  1  0  0  0  0
 25 27  1  0  0  0  0
 27 26  2  1  0  0  0
 27 28  1  0  0  0  0
 28 29  1  0  0  0  0
 30 27  1  0  0  0  0
 31 32  2  0  0  0  0
 31 36  1  0  0  0  0
 32 33  1  0  0  0  0
 33 30  1  0  0  0  0
 33 34  2  0  0  0  0
 35 34  1  0  0  0  0
 35 39  1  0  0  0  0
 36 35  2  0  0  0  0
 37 31  1  0  0  0  0
 38 32  1  0  0  0  0
M  END
>  <minimizedAffinity>
-5.37882948

$$$$

 OpenBabel03242522553D

 39 41  0  0  1  0  0  0  0  0999 V2000
   36.9690   28.6930   38.8690 C   0  0  0  0  0  0  0  0  0  0  0  0
   36.4410   27.7750   39.5950 O   0  0  0  0  0  0  0  0  0  0  0  0
   37.7930   27.7080   38.2440 N   0  0  0  0  0  0  0  0  0  0  0  0
   39.0490   28.3300   37.8620 C   0  0  0  0  0  0  0  0  0  0  0  0
   39.8250   27.2560   37.1210 C   0  0  0  0  0  0  0  0  0  0  0  0
   38.9380   26.5320   36.2040 N   0  0  0  0  0  0  0  0  0  0  0  0
   38.2180   25.5990   37.0220 C   0  0  0  0  0  0  0  0  0  0  0  0
   37.4150   26.3240   38.0340 C   0  0  1  0  0  0  0  0  0  0  0  0
   38.8210   29.1480   37.1700 H   0  0  0  0  0  0  0  0  0  0  0  0
   39.6450   28.6290   38.7540 H   0  0  0  0  0  0  0  0  0  0  0  0
   40.2870   26.5360   37.8210 H   0  0  0  0  0  0  0  0  0  0  0  0
   40.6170   27.7380   36.5030 H   0  0  0  0  0  0  0  0  0  0  0  0
   38.2660   27.1870   35.7450 H   0  0  0  0  0  0  0  0  0  0  0  0
   37.5540   24.9800   36.3540 H   0  0  0  0  0  0  0  0  0  0  0  0
   38.9580   24.9210   37.5060 H   0  0  0  0  0  0  0  0  0  0  0  0
   36.3550   26.3410   37.7010 H   0  0  0  0  0  0  0  0  0  0  0  0
   37.4620   25.5500   39.3160 C   0  0  0  0  0  0  0  0  0  0  0  0
   36.4150   24.7260   39.6990 C   0  0  0  0  0  0  0  0  0  0  0  0
   35.5750   24.6960   38.9950 H   0  0  0  0  0  0  0  0  0  0  0  0
   36.3940   23.9900   40.8610 C   0  0  0  0  0  0  0  0  0  0  0  0
   35.5190   23.3760   41.0620 H   0  0  0  0  0  0  0  0  0  0  0  0
   37.5110   24.0940   41.6920 C   0  0  0  0  0  3  0  0  0  0  0  0
   38.5580   24.9140   41.3130 C   0  0  0  0  0  3  0  0  0  0  0  0
   38.5280   25.6240   40.1500 N   0  0  0  0  0  0  0  0  0  0  0  0
   36.4710   29.9290   39.1150 O   0  0  0  0  0  0  0  0  0  0  0  0
   36.9470   32.4470   39.7450 O   0  0  0  0  0  0  0  0  0  0  0  0
   36.8100   31.0100   40.3170 P   0  0  1  0  0  0  0  0  0  0  0  0
   35.5730   31.0910   41.4500 O   0  0  0  0  0  0  0  0  0  0  0  0
   34.8100   31.6210   41.0830 H   0  0  0  0  0  0  0  0  0  0  0  0
   38.2780   30.6220   41.0530 O   0  0  0  0  0  0  0  0  0  0  0  0
   39.8500   27.9770   42.9740 C   0  0  0  0  0  0  0  0  0  0  0  0
   39.6510   29.0570   42.0750 C   0  0  0  0  0  0  0  0  0  0  0  0
   38.3990   29.5840   41.9380 C   0  0  0  0  0  0  0  0  0  0  0  0
   37.3710   29.0560   42.6740 N   0  0  0  0  0  0  0  0  0  0  0  0
   37.5900   28.0260   43.5250 C   0  0  0  0  0  0  0  0  0  0  0  0
   38.7960   27.4940   43.6790 N   0  0  0  0  0  0  0  0  0  0  0  0
   40.8020   27.5110   43.1370 H   0  0  0  0  0  0  0  0  0  0  0  0
   40.5650   29.3320   41.5910 H   0  0  0  0  0  0  0  0  0  0  0  0
   36.6540   27.7660   44.0010 H   0  0  0  0  0  0  0  0  0  0  0  0
  1 25  1  0  0  0  0
  1  2  2  0  0  0  0
  3  1  1  0  0  0  0
  4  3  1  0  0  0  0
  4 10  1  0  0  0  0
  5 11  1  0  0  0  0
  5  4  1  0  0  0  0
  6  7  1  0  0  0  0
  6  5  1  0  0  0  0
  7 15  1  0  0  0  0
  7  8  1  0  0  0  0
  8 16  1  6  0  0  0
  8  3  1  0  0  0  0
  8 17  1  0  0  0  0
  9  4  1  0  0  0  0
 12  5  1  0  0  0  0
 13  6  1  0  0  0  0
 14  7  1  0  0  0  0
 17 18  2  0  0  0  0
 17 24  1  0  0  0  0
 18 20  1  0  0  0  0
 19 18  1  0  0  0  0
 20 21  1  0  0  0  0
 20 22  2  0  0  0  0
 23 22  1  0  0  0  0
 24 23  2  0  0  0  0
 25 27  1  0  0  0  0
 27 26  2  6  0  0  0
 27 30  1  0  0  0  0
 27 28  1  0  0  0  0
 29 28  1  0  0  0  0
 30 33  1  0  0  0  0
 31 37  1  0  0  0  0
 31 36  1  0  0  0  0
 32 31  2  0  0  0  0
 33 32  1  0  0  0  0
 33 34  2  0  0  0  0
 34 35  1  0  0  0  0
 35 36  2  0  0  0  0
 35 39  1  0  0  0  0
 38 32  1  0  0  0  0
M  END
>  <minimizedAffinity>
-5.35519171

$$$$
