
 OpenBabel03242521393D

 20 21  0  0  0  0  0  0  0  0999 V2000
   45.5170   34.3560   45.2080 C   0  0  0  0  0  0  0  0  0  0  0  0
   45.9490   34.6720   43.9130 C   0  0  0  0  0  0  0  0  0  0  0  0
   46.9240   33.8480   43.3460 C   0  0  0  0  0  0  0  0  0  0  0  0
   47.4030   32.8010   44.0470 N   0  0  0  0  0  0  0  0  0  0  0  0
   46.9520   32.5290   45.3070 C   0  0  0  0  0  0  0  0  0  0  0  0
   46.0170   33.3020   45.8810 N   0  0  0  0  0  0  0  0  0  0  0  0
   45.5630   35.5010   43.3730 H   0  0  0  0  0  0  0  0  0  0  0  0
   47.3710   31.6720   45.8310 H   0  0  0  0  0  0  0  0  0  0  0  0
   47.4050   34.1390   42.0000 C   0  0  0  0  0  0  0  0  0  0  0  0
   48.2930   35.1790   41.8220 C   0  0  0  0  0  0  0  0  0  0  0  0
   48.5980   35.7400   42.6920 H   0  0  0  0  0  0  0  0  0  0  0  0
   48.7550   35.4600   40.5430 C   0  0  0  0  0  0  0  0  0  0  0  0
   49.4580   36.2810   40.3870 H   0  0  0  0  0  0  0  0  0  0  0  0
   48.2930   34.6670   39.4930 C   0  0  0  0  0  0  0  0  0  0  0  0
   47.4000   33.6270   39.7000 C   0  0  0  0  0  0  0  0  0  0  0  0
   46.9760   33.3920   40.9750 N   0  0  0  0  0  0  0  0  0  0  0  0
   44.4710   35.2300   45.8330 C   0  0  0  0  0  0  0  0  0  0  0  0
   43.5000   35.0480   45.2990 H   0  0  0  0  0  0  0  0  0  0  0  0
   44.7380   36.3060   45.7650 H   0  0  0  0  0  0  0  0  0  0  0  0
   44.3170   34.8940   46.8760 H   0  0  0  0  0  0  0  0  0  0  0  0
  1 17  1  0  0  0  0
  1  6  1  0  0  0  0
  2  1  2  0  0  0  0
  3  2  1  0  0  0  0
  3  4  2  0  0  0  0
  4  5  1  0  0  0  0
  5  8  1  0  0  0  0
  5  6  2  0  0  0  0
  7  2  1  0  0  0  0
  9  3  1  0  0  0  0
 10  9  1  0  0  0  0
 10 11  1  0  0  0  0
 12 10  2  0  0  0  0
 13 12  1  0  0  0  0
 14 15  2  0  0  0  0
 14 12  1  0  0  0  0
 15 16  1  0  0  0  0
 16  9  2  0  0  0  0
 17 20  1  0  0  0  0
 18 17  1  0  0  0  0
 19 17  1  0  0  0  0
M  END
>  <minimizedAffinity>
-4.16503811

>  <minimizedRMSD>
3.15282273

$$$$
