
 OpenBabel03242513303D

 36 39  0  0  0  0  0  0  0  0999 V2000
   46.4320   33.6140   41.1960 C   0  0  0  0  0  0  0  0  0  0  0  0
   46.8140   34.6130   42.0610 C   0  0  0  0  0  0  0  0  0  0  0  0
   47.8760   35.3850   41.6830 C   0  0  0  0  0  0  0  0  0  0  0  0
   48.5470   35.1830   40.4890 C   0  0  0  0  0  0  0  0  0  0  0  0
   48.1550   34.1840   39.6380 C   0  0  0  0  0  0  0  0  0  0  0  0
   47.0760   33.3700   39.9800 C   0  0  0  0  0  0  0  0  0  0  0  0
   48.2080   36.1860   42.3420 H   0  0  0  0  0  0  0  0  0  0  0  0
   49.3820   35.7890   40.1910 H   0  0  0  0  0  0  0  0  0  0  0  0
   48.6050   33.9530   38.7030 H   0  0  0  0  0  0  0  0  0  0  0  0
   44.5100   35.9390   44.7310 C   0  0  0  0  0  0  0  0  0  0  0  0
   45.2040   35.8160   43.5210 C   0  0  0  0  0  0  0  0  0  0  0  0
   46.0790   34.7770   43.2920 C   0  0  0  0  0  0  0  0  0  0  0  0
   46.2070   33.8950   44.3260 N   0  0  0  0  0  0  0  0  0  0  0  0
   45.5460   34.0020   45.4940 C   0  0  0  0  0  0  0  0  0  0  0  0
   44.6920   35.0360   45.6870 N   0  0  0  0  0  0  0  0  0  0  0  0
   43.8440   36.7730   44.8420 H   0  0  0  0  0  0  0  0  0  0  0  0
   45.0610   36.5470   42.7400 H   0  0  0  0  0  0  0  0  0  0  0  0
   45.7260   33.2440   46.2400 H   0  0  0  0  0  0  0  0  0  0  0  0
   45.3600   32.8020   41.5330 O   0  0  0  0  0  0  0  0  0  0  0  0
   44.4910   32.8700   41.0340 H   0  0  0  0  0  0  0  0  0  0  0  0
   46.6320   32.3530   39.1730 O   0  0  0  0  0  0  0  0  0  0  0  0
   46.6550   32.3490   37.8260 C   0  0  0  0  0  0  0  0  0  0  0  0
   45.6390   32.5990   36.9260 C   0  0  0  0  0  0  0  0  0  0  0  0
   45.8950   32.5390   35.5950 C   0  0  0  0  0  0  0  0  0  0  0  0
   47.2220   32.2140   35.2160 C   0  0  0  0  0  0  0  0  0  0  0  0
   48.0830   32.0020   36.8000 S   0  0  0  0  0  0  0  0  0  0  0  0
   44.6490   32.8420   37.2890 H   0  0  0  0  0  0  0  0  0  0  0  0
   45.2370   32.7000   34.7830 H   0  0  0  0  0  0  0  0  0  0  0  0
   47.8700   32.0570   33.9230 C   0  0  0  0  0  0  0  0  0  0  0  0
   47.5400   30.9840   33.1580 C   0  0  0  0  0  0  0  0  0  0  0  0
   46.8350   30.2220   33.4110 H   0  0  0  0  0  0  0  0  0  0  0  0
   48.2270   30.9390   31.9380 C   0  0  0  0  0  0  0  0  0  0  0  0
   48.0560   30.1330   31.2320 H   0  0  0  0  0  0  0  0  0  0  0  0
   49.1550   31.9170   31.5730 C   0  0  0  0  0  0  0  0  0  0  0  0
   49.4310   32.9770   32.4150 C   0  0  0  0  0  0  0  0  0  0  0  0
   48.7550   33.0110   33.6030 N   0  0  0  0  0  0  0  0  0  0  0  0
  1 19  1  0  0  0  0
  1  2  1  0  0  0  0
  2 12  1  0  0  0  0
  3  2  2  0  0  0  0
  3  7  1  0  0  0  0
  4  3  1  0  0  0  0
  5  6  1  0  0  0  0
  5  4  2  0  0  0  0
  6  1  2  0  0  0  0
  8  4  1  0  0  0  0
  9  5  1  0  0  0  0
 10 16  1  0  0  0  0
 10 15  1  0  0  0  0
 11 10  2  0  0  0  0
 12 11  1  0  0  0  0
 12 13  2  0  0  0  0
 13 14  1  0  0  0  0
 14 15  2  0  0  0  0
 14 18  1  0  0  0  0
 17 11  1  0  0  0  0
 20 19  1  0  0  0  0
 21  6  1  0  0  0  0
 22 21  1  0  0  0  0
 23 27  1  0  0  0  0
 23 22  2  0  0  0  0
 24 23  1  0  0  0  0
 25 24  2  0  0  0  0
 25 26  1  0  0  0  0
 26 22  1  0  0  0  0
 28 24  1  0  0  0  0
 29 25  1  0  0  0  0
 30 31  1  0  0  0  0
 30 29  2  0  0  0  0
 32 30  1  0  0  0  0
 33 32  1  0  0  0  0
 34 32  2  0  0  0  0
 34 35  1  0  0  0  0
 35 36  2  0  0  0  0
 36 29  1  0  0  0  0
M  END
>  <minimizedAffinity>
-6.42477798

>  <minimizedRMSD>
0.655228853

$$$$
