
 OpenBabel03252503073D

 19 20  0  0  0  0  0  0  0  0999 V2000
   38.5540   32.5720   40.6040 C   0  0  0  0  0  0  0  0  0  0  0  0
   37.9460   31.3630   40.9950 C   0  0  0  0  0  0  0  0  0  0  0  0
   38.7390   30.4130   41.6180 C   0  0  0  0  0  0  0  0  0  0  0  0
   40.0460   30.6670   41.8280 N   0  0  0  0  0  0  0  0  0  0  0  0
   40.6200   31.8480   41.4410 C   0  0  0  0  0  0  0  0  0  0  0  0
   39.8610   32.7650   40.8420 N   0  0  0  0  0  0  0  0  0  0  0  0
   37.9860   33.3530   40.1130 H   0  0  0  0  0  0  0  0  0  0  0  0
   41.6760   32.0070   41.6300 H   0  0  0  0  0  0  0  0  0  0  0  0
   38.1210   29.1530   42.0300 C   0  0  0  0  0  0  0  0  0  0  0  0
   37.7050   28.9940   43.3400 C   0  0  0  0  0  0  0  0  0  0  0  0
   37.8190   29.7730   44.0830 H   0  0  0  0  0  0  0  0  0  0  0  0
   37.1280   27.7850   43.6790 C   0  0  0  0  0  0  0  0  0  0  0  0
   36.8090   27.6850   44.7170 H   0  0  0  0  0  0  0  0  0  0  0  0
   36.9410   26.7290   42.7890 C   0  0  0  0  0  3  0  0  0  0  0  0
   37.3840   26.9700   41.5020 C   0  0  0  0  0  3  0  0  0  0  0  0
   37.9490   28.1470   41.1600 N   0  0  0  0  0  0  0  0  0  0  0  0
   36.5560   31.1440   40.7500 C   0  0  0  0  0  0  0  0  0  0  0  0
   36.2090   30.7880   39.5890 O   0  0  0  0  0  0  0  0  0  0  0  0
   35.8280   31.2780   41.5310 H   0  0  0  0  0  0  0  0  0  0  0  0
  1  6  2  0  0  0  0
  1  2  1  0  0  0  0
  2  3  2  0  0  0  0
  3  4  1  0  0  0  0
  3  9  1  0  0  0  0
  5  8  1  0  0  0  0
  5  4  2  0  0  0  0
  6  5  1  0  0  0  0
  7  1  1  0  0  0  0
  9 10  1  0  0  0  0
 10 12  2  0  0  0  0
 10 11  1  0  0  0  0
 12 13  1  0  0  0  0
 14 12  1  0  0  0  0
 15 14  2  0  0  0  0
 16 15  1  0  0  0  0
 16  9  2  0  0  0  0
 17  2  1  0  0  0  0
 17 19  1  0  0  0  0
 18 17  2  0  0  0  0
M  END
>  <minimizedAffinity>
-4.06024265

$$$$

 OpenBabel03252503073D

 19 20  0  0  0  0  0  0  0  0999 V2000
   39.5180   32.4950   40.7040 C   0  0  0  0  0  0  0  0  0  0  0  0
   39.2090   31.2500   41.2860 C   0  0  0  0  0  0  0  0  0  0  0  0
   37.9120   30.7810   41.1600 C   0  0  0  0  0  0  0  0  0  0  0  0
   36.9970   31.5160   40.4970 N   0  0  0  0  0  0  0  0  0  0  0  0
   37.3150   32.7250   39.9380 C   0  0  0  0  0  0  0  0  0  0  0  0
   38.5610   33.1790   40.0560 N   0  0  0  0  0  0  0  0  0  0  0  0
   40.5140   32.9150   40.7690 H   0  0  0  0  0  0  0  0  0  0  0  0
   36.5450   33.2810   39.4150 H   0  0  0  0  0  0  0  0  0  0  0  0
   37.5780   29.4890   41.7600 C   0  0  0  0  0  0  0  0  0  0  0  0
   37.2350   28.4270   40.9420 C   0  0  0  0  0  0  0  0  0  0  0  0
   37.2020   28.5130   39.8630 H   0  0  0  0  0  0  0  0  0  0  0  0
   36.9270   27.2280   41.5560 C   0  0  0  0  0  0  0  0  0  0  0  0
   36.6590   26.4070   40.8910 H   0  0  0  0  0  0  0  0  0  0  0  0
   36.9440   27.0280   42.9350 C   0  0  0  0  0  3  0  0  0  0  0  0
   37.2970   28.1390   43.6790 C   0  0  0  0  0  3  0  0  0  0  0  0
   37.5990   29.3140   43.0890 N   0  0  0  0  0  0  0  0  0  0  0  0
   40.2160   30.5100   41.9780 C   0  0  0  0  0  0  0  0  0  0  0  0
   40.8260   31.0820   42.9260 O   0  0  0  0  0  0  0  0  0  0  0  0
   40.4490   29.4960   41.7000 H   0  0  0  0  0  0  0  0  0  0  0  0
  1  7  1  0  0  0  0
  1  2  1  0  0  0  0
  2 17  1  0  0  0  0
  3  2  2  0  0  0  0
  3  9  1  0  0  0  0
  4  3  1  0  0  0  0
  5  6  1  0  0  0  0
  5  4  2  0  0  0  0
  6  1  2  0  0  0  0
  8  5  1  0  0  0  0
  9 16  1  0  0  0  0
 10 12  1  0  0  0  0
 10  9  2  0  0  0  0
 11 10  1  0  0  0  0
 12 14  2  0  0  0  0
 13 12  1  0  0  0  0
 14 15  1  0  0  0  0
 16 15  2  0  0  0  0
 17 18  2  0  0  0  0
 19 17  1  0  0  0  0
M  END
>  <minimizedAffinity>
-4.00712204

$$$$

 OpenBabel03252503073D

 19 20  0  0  0  0  0  0  0  0999 V2000
   37.1000   31.0710   38.1770 C   0  0  0  0  0  0  0  0  0  0  0  0
   37.1830   30.5950   39.5010 C   0  0  0  0  0  0  0  0  0  0  0  0
   37.4690   29.2520   39.6880 C   0  0  0  0  0  0  0  0  0  0  0  0
   37.6550   28.4530   38.6190 N   0  0  0  0  0  0  0  0  0  0  0  0
   37.5690   28.9330   37.3390 C   0  0  0  0  0  0  0  0  0  0  0  0
   37.2960   30.2230   37.1540 N   0  0  0  0  0  0  0  0  0  0  0  0
   36.8800   32.1100   37.9670 H   0  0  0  0  0  0  0  0  0  0  0  0
   37.7260   28.2510   36.5100 H   0  0  0  0  0  0  0  0  0  0  0  0
   37.5580   28.7450   41.0570 C   0  0  0  0  0  0  0  0  0  0  0  0
   36.4710   28.0960   41.6160 C   0  0  0  0  0  0  0  0  0  0  0  0
   35.5440   27.9470   41.0760 H   0  0  0  0  0  0  0  0  0  0  0  0
   36.6050   27.6360   42.9120 C   0  0  0  0  0  0  0  0  0  0  0  0
   35.7350   27.1300   43.3290 H   0  0  0  0  0  0  0  0  0  0  0  0
   37.7590   27.7840   43.6790 C   0  0  0  0  0  3  0  0  0  0  0  0
   38.7970   28.4430   43.0470 C   0  0  0  0  0  3  0  0  0  0  0  0
   38.6760   28.8950   41.7820 N   0  0  0  0  0  0  0  0  0  0  0  0
   36.9780   31.4840   40.5990 C   0  0  0  0  0  0  0  0  0  0  0  0
   37.6910   32.5250   40.6600 O   0  0  0  0  0  0  0  0  0  0  0  0
   36.2370   31.2730   41.3520 H   0  0  0  0  0  0  0  0  0  0  0  0
  1  2  1  0  0  0  0
  2  3  2  0  0  0  0
  2 17  1  0  0  0  0
  3  9  1  0  0  0  0
  4  3  1  0  0  0  0
  5  4  2  0  0  0  0
  6  5  1  0  0  0  0
  6  1  2  0  0  0  0
  7  1  1  0  0  0  0
  8  5  1  0  0  0  0
  9 10  2  0  0  0  0
  9 16  1  0  0  0  0
 10 12  1  0  0  0  0
 11 10  1  0  0  0  0
 12 13  1  0  0  0  0
 12 14  2  0  0  0  0
 15 14  1  0  0  0  0
 16 15  2  0  0  0  0
 17 18  2  0  0  0  0
 17 19  1  0  0  0  0
M  END
>  <minimizedAffinity>
-3.94152832

$$$$

 OpenBabel03252503073D

 19 20  0  0  0  0  0  0  0  0999 V2000
   36.9500   31.9510   39.4170 C   0  0  0  0  0  0  0  0  0  0  0  0
   37.1110   30.7400   40.1190 C   0  0  0  0  0  0  0  0  0  0  0  0
   38.0850   30.6870   41.1020 C   0  0  0  0  0  0  0  0  0  0  0  0
   38.8400   31.7750   41.3540 N   0  0  0  0  0  0  0  0  0  0  0  0
   38.6700   32.9440   40.6620 C   0  0  0  0  0  0  0  0  0  0  0  0
   37.7330   33.0000   39.7160 N   0  0  0  0  0  0  0  0  0  0  0  0
   36.2050   32.0550   38.6380 H   0  0  0  0  0  0  0  0  0  0  0  0
   39.3010   33.7930   40.8990 H   0  0  0  0  0  0  0  0  0  0  0  0
   38.2620   29.4360   41.8390 C   0  0  0  0  0  0  0  0  0  0  0  0
   37.5690   29.2360   43.0190 C   0  0  0  0  0  0  0  0  0  0  0  0
   36.8920   29.9770   43.4270 H   0  0  0  0  0  0  0  0  0  0  0  0
   37.7710   28.0390   43.6780 C   0  0  0  0  0  0  0  0  0  0  0  0
   37.2140   27.9060   44.6060 H   0  0  0  0  0  0  0  0  0  0  0  0
   38.6210   27.0320   43.2280 C   0  0  0  0  0  3  0  0  0  0  0  0
   39.2760   27.3110   42.0420 C   0  0  0  0  0  3  0  0  0  0  0  0
   39.0850   28.4770   41.3910 N   0  0  0  0  0  0  0  0  0  0  0  0
   36.2840   29.6160   39.8130 C   0  0  0  0  0  0  0  0  0  0  0  0
   35.1300   29.5730   40.3240 O   0  0  0  0  0  0  0  0  0  0  0  0
   36.6360   28.8300   39.1660 H   0  0  0  0  0  0  0  0  0  0  0  0
  1  6  2  0  0  0  0
  1  2  1  0  0  0  0
  2  3  2  0  0  0  0
  3  4  1  0  0  0  0
  3  9  1  0  0  0  0
  5  8  1  0  0  0  0
  5  4  2  0  0  0  0
  6  5  1  0  0  0  0
  7  1  1  0  0  0  0
  9 10  1  0  0  0  0
 10 11  1  0  0  0  0
 10 12  2  0  0  0  0
 12 13  1  0  0  0  0
 14 12  1  0  0  0  0
 15 14  2  0  0  0  0
 16  9  2  0  0  0  0
 16 15  1  0  0  0  0
 17  2  1  0  0  0  0
 17 18  2  0  0  0  0
 19 17  1  0  0  0  0
M  END
>  <minimizedAffinity>
-3.92357516

$$$$

 OpenBabel03252503073D

 19 20  0  0  0  0  0  0  0  0999 V2000
   38.7170   28.2910   43.3290 C   0  0  0  0  0  0  0  0  0  0  0  0
   38.7040   29.2200   42.2690 C   0  0  0  0  0  0  0  0  0  0  0  0
   37.5700   29.2810   41.4760 C   0  0  0  0  0  0  0  0  0  0  0  0
   36.5290   28.4640   41.7350 N   0  0  0  0  0  0  0  0  0  0  0  0
   36.5590   27.5670   42.7690 C   0  0  0  0  0  0  0  0  0  0  0  0
   37.6470   27.5060   43.5350 N   0  0  0  0  0  0  0  0  0  0  0  0
   39.5740   28.1970   43.9840 H   0  0  0  0  0  0  0  0  0  0  0  0
   35.6980   26.9300   42.9380 H   0  0  0  0  0  0  0  0  0  0  0  0
   37.5440   30.2400   40.3730 C   0  0  0  0  0  0  0  0  0  0  0  0
   37.0580   31.5170   40.5920 C   0  0  0  0  0  0  0  0  0  0  0  0
   36.6920   31.8410   41.5590 H   0  0  0  0  0  0  0  0  0  0  0  0
   37.0540   32.3860   39.5180 C   0  0  0  0  0  0  0  0  0  0  0  0
   36.6660   33.3860   39.7170 H   0  0  0  0  0  0  0  0  0  0  0  0
   37.5050   32.0560   38.2420 C   0  0  0  0  0  3  0  0  0  0  0  0
   37.9730   30.7620   38.1080 C   0  0  0  0  0  3  0  0  0  0  0  0
   37.9820   29.9060   39.1510 N   0  0  0  0  0  0  0  0  0  0  0  0
   39.8340   30.0620   42.0380 C   0  0  0  0  0  0  0  0  0  0  0  0
   40.0070   31.0460   42.8110 O   0  0  0  0  0  0  0  0  0  0  0  0
   40.5170   29.8640   41.2290 H   0  0  0  0  0  0  0  0  0  0  0  0
  1  6  1  0  0  0  0
  1  7  1  0  0  0  0
  2  1  2  0  0  0  0
  3  4  2  0  0  0  0
  3  2  1  0  0  0  0
  4  5  1  0  0  0  0
  5  8  1  0  0  0  0
  5  6  2  0  0  0  0
  9 10  1  0  0  0  0
  9  3  1  0  0  0  0
 10 11  1  0  0  0  0
 12 13  1  0  0  0  0
 12 10  2  0  0  0  0
 14 12  1  0  0  0  0
 15 14  2  0  0  0  0
 15 16  1  0  0  0  0
 16  9  2  0  0  0  0
 17  2  1  0  0  0  0
 17 18  2  0  0  0  0
 19 17  1  0  0  0  0
M  END
>  <minimizedAffinity>
-3.90831399

$$$$

 OpenBabel03252503073D

 19 20  0  0  0  0  0  0  0  0999 V2000
   37.4630   30.9990   38.0680 C   0  0  0  0  0  0  0  0  0  0  0  0
   37.5800   30.0050   39.0600 C   0  0  0  0  0  0  0  0  0  0  0  0
   37.4940   30.4000   40.3840 C   0  0  0  0  0  0  0  0  0  0  0  0
   37.3050   31.7020   40.6820 N   0  0  0  0  0  0  0  0  0  0  0  0
   37.1940   32.6540   39.7050 C   0  0  0  0  0  0  0  0  0  0  0  0
   37.2760   32.2780   38.4290 N   0  0  0  0  0  0  0  0  0  0  0  0
   37.5220   30.7510   37.0150 H   0  0  0  0  0  0  0  0  0  0  0  0
   37.0430   33.6890   39.9930 H   0  0  0  0  0  0  0  0  0  0  0  0
   37.6130   29.3790   41.4240 C   0  0  0  0  0  0  0  0  0  0  0  0
   36.5010   28.6370   41.7820 C   0  0  0  0  0  0  0  0  0  0  0  0
   35.5340   28.7830   41.3180 H   0  0  0  0  0  0  0  0  0  0  0  0
   36.6660   27.6850   42.7700 C   0  0  0  0  0  0  0  0  0  0  0  0
   35.7750   27.1150   43.0330 H   0  0  0  0  0  0  0  0  0  0  0  0
   37.8710   27.4310   43.4190 C   0  0  0  0  0  3  0  0  0  0  0  0
   38.9320   28.2160   43.0030 C   0  0  0  0  0  3  0  0  0  0  0  0
   38.7820   29.1470   42.0390 N   0  0  0  0  0  0  0  0  0  0  0  0
   37.7800   28.6400   38.6900 C   0  0  0  0  0  0  0  0  0  0  0  0
   36.7850   27.9910   38.2600 O   0  0  0  0  0  0  0  0  0  0  0  0
   38.7490   28.1780   38.7770 H   0  0  0  0  0  0  0  0  0  0  0  0
  1  6  2  0  0  0  0
  1  2  1  0  0  0  0
  2  3  2  0  0  0  0
  3  4  1  0  0  0  0
  3  9  1  0  0  0  0
  5  8  1  0  0  0  0
  5  4  2  0  0  0  0
  6  5  1  0  0  0  0
  7  1  1  0  0  0  0
  9 10  2  0  0  0  0
  9 16  1  0  0  0  0
 10 12  1  0  0  0  0
 11 10  1  0  0  0  0
 12 13  1  0  0  0  0
 12 14  2  0  0  0  0
 15 14  1  0  0  0  0
 16 15  2  0  0  0  0
 17 19  1  0  0  0  0
 17  2  1  0  0  0  0
 18 17  2  0  0  0  0
M  END
>  <minimizedAffinity>
-3.78132534

$$$$

 OpenBabel03252503073D

 19 20  0  0  0  0  0  0  0  0999 V2000
   37.3920   25.2350   42.1980 C   0  0  0  0  0  0  0  0  0  0  0  0
   37.4480   26.6380   42.0740 C   0  0  0  0  0  0  0  0  0  0  0  0
   37.0580   27.1970   40.8680 C   0  0  0  0  0  0  0  0  0  0  0  0
   36.6440   26.3970   39.8640 N   0  0  0  0  0  0  0  0  0  0  0  0
   36.5960   25.0360   40.0020 C   0  0  0  0  0  0  0  0  0  0  0  0
   36.9700   24.4940   41.1610 N   0  0  0  0  0  0  0  0  0  0  0  0
   37.6840   24.7400   43.1160 H   0  0  0  0  0  0  0  0  0  0  0  0
   36.2570   24.4340   39.1670 H   0  0  0  0  0  0  0  0  0  0  0  0
   37.1110   28.6510   40.7260 C   0  0  0  0  0  0  0  0  0  0  0  0
   35.9780   29.4030   40.9850 C   0  0  0  0  0  0  0  0  0  0  0  0
   35.0420   28.9540   41.2930 H   0  0  0  0  0  0  0  0  0  0  0  0
   36.0790   30.7730   40.8360 C   0  0  0  0  0  0  0  0  0  0  0  0
   35.1730   31.3420   41.0460 H   0  0  0  0  0  0  0  0  0  0  0  0
   37.2410   31.4340   40.4450 C   0  0  0  0  0  3  0  0  0  0  0  0
   38.3260   30.6100   40.2050 C   0  0  0  0  0  3  0  0  0  0  0  0
   38.2370   29.2720   40.3490 N   0  0  0  0  0  0  0  0  0  0  0  0
   37.8940   27.4390   43.1690 C   0  0  0  0  0  0  0  0  0  0  0  0
   39.0180   27.1720   43.6790 O   0  0  0  0  0  0  0  0  0  0  0  0
   37.2900   28.2460   43.5470 H   0  0  0  0  0  0  0  0  0  0  0  0
  1  7  1  0  0  0  0
  2  1  1  0  0  0  0
  2 17  1  0  0  0  0
  3  2  2  0  0  0  0
  4  5  2  0  0  0  0
  4  3  1  0  0  0  0
  5  6  1  0  0  0  0
  6  1  2  0  0  0  0
  8  5  1  0  0  0  0
  9  3  1  0  0  0  0
  9 10  1  0  0  0  0
 10 11  1  0  0  0  0
 12 10  2  0  0  0  0
 12 13  1  0  0  0  0
 14 12  1  0  0  0  0
 15 16  1  0  0  0  0
 15 14  2  0  0  0  0
 16  9  2  0  0  0  0
 17 19  1  0  0  0  0
 17 18  2  0  0  0  0
M  END
>  <minimizedAffinity>
-3.78025103

$$$$

 OpenBabel03252503073D

 19 20  0  0  0  0  0  0  0  0999 V2000
   39.6370   31.9070   39.6740 C   0  0  0  0  0  0  0  0  0  0  0  0
   39.3190   30.7240   40.3710 C   0  0  0  0  0  0  0  0  0  0  0  0
   38.0360   30.5980   40.8780 C   0  0  0  0  0  0  0  0  0  0  0  0
   37.1440   31.5920   40.6940 N   0  0  0  0  0  0  0  0  0  0  0  0
   37.4710   32.7350   40.0150 C   0  0  0  0  0  0  0  0  0  0  0  0
   38.7030   32.8610   39.5250 N   0  0  0  0  0  0  0  0  0  0  0  0
   40.6230   32.0640   39.2540 H   0  0  0  0  0  0  0  0  0  0  0  0
   36.7200   33.5080   39.8940 H   0  0  0  0  0  0  0  0  0  0  0  0
   37.6920   29.3760   41.6030 C   0  0  0  0  0  0  0  0  0  0  0  0
   37.8550   29.3290   42.9760 C   0  0  0  0  0  0  0  0  0  0  0  0
   38.2330   30.1700   43.5440 H   0  0  0  0  0  0  0  0  0  0  0  0
   37.5170   28.1510   43.6150 C   0  0  0  0  0  0  0  0  0  0  0  0
   37.6550   28.1400   44.6960 H   0  0  0  0  0  0  0  0  0  0  0  0
   37.0250   27.0220   42.9650 C   0  0  0  0  0  3  0  0  0  0  0  0
   36.8920   27.1510   41.5950 C   0  0  0  0  0  3  0  0  0  0  0  0
   37.2190   28.2970   40.9620 N   0  0  0  0  0  0  0  0  0  0  0  0
   40.3010   29.7010   40.5360 C   0  0  0  0  0  0  0  0  0  0  0  0
   41.4820   29.9470   40.1620 O   0  0  0  0  0  0  0  0  0  0  0  0
   40.0410   28.7480   40.9670 H   0  0  0  0  0  0  0  0  0  0  0  0
  1  2  1  0  0  0  0
  2 17  1  0  0  0  0
  2  3  2  0  0  0  0
  3  9  1  0  0  0  0
  4  3  1  0  0  0  0
  5  4  2  0  0  0  0
  6  1  2  0  0  0  0
  6  5  1  0  0  0  0
  7  1  1  0  0  0  0
  8  5  1  0  0  0  0
  9 10  1  0  0  0  0
 10 11  1  0  0  0  0
 10 12  2  0  0  0  0
 12 13  1  0  0  0  0
 14 12  1  0  0  0  0
 15 14  2  0  0  0  0
 16 15  1  0  0  0  0
 16  9  2  0  0  0  0
 17 19  1  0  0  0  0
 18 17  2  0  0  0  0
M  END
>  <minimizedAffinity>
-3.77954745

$$$$

 OpenBabel03252503073D

 19 20  0  0  0  0  0  0  0  0999 V2000
   40.0210   32.5400   39.6560 C   0  0  0  0  0  0  0  0  0  0  0  0
   39.0600   31.5270   39.4670 C   0  0  0  0  0  0  0  0  0  0  0  0
   37.7230   31.8780   39.5630 C   0  0  0  0  0  0  0  0  0  0  0  0
   37.3850   33.1560   39.8300 N   0  0  0  0  0  0  0  0  0  0  0  0
   38.3330   34.1270   40.0120 C   0  0  0  0  0  0  0  0  0  0  0  0
   39.6200   33.7940   39.9200 N   0  0  0  0  0  0  0  0  0  0  0  0
   41.0810   32.3280   39.5940 H   0  0  0  0  0  0  0  0  0  0  0  0
   38.0130   35.1410   40.2260 H   0  0  0  0  0  0  0  0  0  0  0  0
   36.7150   30.8370   39.3690 C   0  0  0  0  0  0  0  0  0  0  0  0
   36.0780   30.2910   40.4690 C   0  0  0  0  0  0  0  0  0  0  0  0
   36.2970   30.6070   41.4820 H   0  0  0  0  0  0  0  0  0  0  0  0
   35.1340   29.3100   40.2330 C   0  0  0  0  0  0  0  0  0  0  0  0
   34.6470   28.8970   41.1170 H   0  0  0  0  0  0  0  0  0  0  0  0
   34.7890   28.8450   38.9670 C   0  0  0  0  0  3  0  0  0  0  0  0
   35.4720   29.4410   37.9220 C   0  0  0  0  0  3  0  0  0  0  0  0
   36.3950   30.4000   38.1420 N   0  0  0  0  0  0  0  0  0  0  0  0
   39.4710   30.1890   39.1860 C   0  0  0  0  0  0  0  0  0  0  0  0
   40.6210   30.0140   38.6920 O   0  0  0  0  0  0  0  0  0  0  0  0
   38.8210   29.3550   39.3880 H   0  0  0  0  0  0  0  0  0  0  0  0
  1  6  1  0  0  0  0
  2  3  1  0  0  0  0
  2  1  2  0  0  0  0
  3  4  2  0  0  0  0
  4  5  1  0  0  0  0
  5  8  1  0  0  0  0
  6  5  2  0  0  0  0
  7  1  1  0  0  0  0
  9  3  1  0  0  0  0
  9 10  1  0  0  0  0
 10 11  1  0  0  0  0
 12 10  2  0  0  0  0
 12 13  1  0  0  0  0
 14 12  1  0  0  0  0
 15 16  1  0  0  0  0
 15 14  2  0  0  0  0
 16  9  2  0  0  0  0
 17 19  1  0  0  0  0
 17  2  1  0  0  0  0
 18 17  2  0  0  0  0
M  END
>  <minimizedAffinity>
-3.73092937

$$$$
