
 OpenBabel03242513183D

 36 39  0  0  0  0  0  0  0  0999 V2000
   44.8400   30.6220   48.0020 Cl  0  0  0  0  0  0  0  0  0  0  0  0
   46.0220   29.9990   46.8460 C   0  0  0  0  0  0  0  0  0  0  0  0
   46.9550   30.8510   46.2940 C   0  0  0  0  0  0  0  0  0  0  0  0
   47.8530   30.3290   45.4150 C   0  0  0  0  0  0  0  0  0  0  0  0
   47.8280   28.9930   45.0880 C   0  0  0  0  0  0  0  0  0  0  0  0
   46.8900   28.1380   45.6410 C   0  0  0  0  0  0  0  0  0  0  0  0
   45.9750   28.6730   46.5370 C   0  0  0  0  0  0  0  0  0  0  0  0
   48.5760   31.0280   44.9990 H   0  0  0  0  0  0  0  0  0  0  0  0
   48.5760   28.6640   44.3820 H   0  0  0  0  0  0  0  0  0  0  0  0
   46.9160   27.1180   45.3530 H   0  0  0  0  0  0  0  0  0  0  0  0
   45.0280   27.6930   47.0590 C   0  0  0  0  0  0  0  0  0  0  0  0
   43.9020   27.1450   46.4640 C   0  0  0  0  0  0  0  0  0  0  0  0
   43.2650   26.2430   47.2920 C   0  0  0  0  0  0  0  0  0  0  0  0
   44.0730   26.2820   48.4160 C   0  0  0  0  0  0  0  0  0  0  0  0
   45.0500   27.1170   48.2250 O   0  0  0  0  0  0  0  0  0  0  0  0
   43.5760   27.4170   45.4460 H   0  0  0  0  0  0  0  0  0  0  0  0
   42.3740   25.6680   47.1000 H   0  0  0  0  0  0  0  0  0  0  0  0
   43.9110   25.6920   49.3330 H   0  0  0  0  0  0  0  0  0  0  0  0
   46.9280   32.2630   46.6740 C   0  0  0  0  0  0  0  0  0  0  0  0
   47.4040   32.5750   47.7860 O   0  0  0  0  0  0  0  0  0  0  0  0
   44.7840   34.9070   45.4140 C   0  0  0  0  0  0  0  0  0  0  0  0
   45.2090   35.1540   44.1020 C   0  0  0  0  0  0  0  0  0  0  0  0
   46.2610   34.3700   43.6840 C   0  0  0  0  0  0  0  0  0  0  0  0
   46.8010   33.4430   44.5290 N   0  0  0  0  0  0  0  0  0  0  0  0
   46.3600   33.2460   45.7680 C   0  0  0  0  0  0  0  0  0  0  0  0
   45.3420   33.9920   46.2000 N   0  0  0  0  0  0  0  0  0  0  0  0
   43.9480   35.5270   45.7510 H   0  0  0  0  0  0  0  0  0  0  0  0
   44.8050   35.8660   43.4300 H   0  0  0  0  0  0  0  0  0  0  0  0
   46.8790   34.4380   42.3630 C   0  0  0  0  0  0  0  0  0  0  0  0
   47.9820   35.2270   42.1000 C   0  0  0  0  0  0  0  0  0  0  0  0
   48.4270   35.8280   42.8790 H   0  0  0  0  0  0  0  0  0  0  0  0
   48.6120   35.3350   40.8780 C   0  0  0  0  0  0  0  0  0  0  0  0
   49.4680   35.9620   40.7170 H   0  0  0  0  0  0  0  0  0  0  0  0
   48.1120   34.6010   39.8220 C   0  0  0  0  0  0  0  0  0  0  0  0
   47.0110   33.8160   40.0910 C   0  0  0  0  0  0  0  0  0  0  0  0
   46.4490   33.7530   41.2870 N   0  0  0  0  0  0  0  0  0  0  0  0
  2  1  1  0  0  0  0
  3 19  1  0  0  0  0
  3  2  2  0  0  0  0
  4  3  1  0  0  0  0
  5  4  2  0  0  0  0
  5  6  1  0  0  0  0
  6  7  2  0  0  0  0
  7  2  1  0  0  0  0
  7 11  1  0  0  0  0
  8  4  1  0  0  0  0
  9  5  1  0  0  0  0
 10  6  1  0  0  0  0
 11 15  1  0  0  0  0
 12 11  2  0  0  0  0
 12 13  1  0  0  0  0
 13 14  2  0  0  0  0
 14 18  1  0  0  0  0
 15 14  1  0  0  0  0
 16 12  1  0  0  0  0
 17 13  1  0  0  0  0
 19 20  2  0  0  0  0
 21 27  1  0  0  0  0
 21 26  1  0  0  0  0
 22 21  2  0  0  0  0
 23 22  1  0  0  0  0
 23 24  2  0  0  0  0
 24 25  1  0  0  0  0
 25 26  2  0  0  0  0
 25 19  1  0  0  0  0
 28 22  1  0  0  0  0
 29 23  1  0  0  0  0
 30 29  1  0  0  0  0
 30 31  1  0  0  0  0
 32 30  2  0  0  0  0
 33 32  1  0  0  0  0
 34 35  2  0  0  0  0
 34 32  1  0  0  0  0
 35 36  1  0  0  0  0
 36 29  2  0  0  0  0
M  END
>  <minimizedAffinity>
-6.41402197

>  <minimizedRMSD>
0.238804519

$$$$
