
 OpenBabel03252505183D

 33 36  0  0  0  0  0  0  0  0999 V2000
   46.0840   32.7590   47.0860 C   0  0  0  0  0  0  0  0  0  0  0  0
   44.9820   32.3690   47.8190 C   0  0  0  0  0  0  0  0  0  0  0  0
   45.1500   31.5490   48.9250 C   0  0  0  0  0  0  0  0  0  0  0  0
   46.4310   31.1540   49.2430 C   0  0  0  0  0  0  0  0  0  0  0  0
   47.5050   31.5770   48.4690 C   0  0  0  0  0  0  0  0  0  0  0  0
   47.3390   32.3780   47.3880 N   0  0  0  0  0  0  0  0  0  0  0  0
   43.9990   32.7090   47.5260 H   0  0  0  0  0  0  0  0  0  0  0  0
   44.2400   31.2880   49.4470 H   0  0  0  0  0  0  0  0  0  0  0  0
   46.5130   30.5210   50.1050 H   0  0  0  0  0  0  0  0  0  0  0  0
   44.7230   35.3140   44.7980 C   0  0  0  0  0  0  0  0  0  0  0  0
   45.5270   35.1970   43.6510 C   0  0  0  0  0  0  0  0  0  0  0  0
   46.5150   34.2430   43.7080 C   0  0  0  0  0  0  0  0  0  0  0  0
   46.6890   33.4620   44.8300 N   0  0  0  0  0  0  0  0  0  0  0  0
   45.8710   33.6210   45.9220 C   0  0  0  0  0  0  0  0  0  0  0  0
   44.9000   34.5440   45.8940 N   0  0  0  0  0  0  0  0  0  0  0  0
   43.9380   36.0450   44.8030 H   0  0  0  0  0  0  0  0  0  0  0  0
   45.3730   35.8200   42.7810 H   0  0  0  0  0  0  0  0  0  0  0  0
   47.4160   34.0030   42.5310 C   0  0  0  0  0  0  0  0  0  0  0  0
   47.9220   35.2980   41.8950 C   0  0  0  0  0  0  0  0  0  0  0  0
   48.8260   34.2690   42.6500 C   0  0  0  0  0  0  0  0  0  0  0  0
   46.9710   33.2630   41.8270 H   0  0  0  0  0  0  0  0  0  0  0  0
   48.0210   35.2920   40.7980 H   0  0  0  0  0  0  0  0  0  0  0  0
   47.7170   36.2460   42.4030 H   0  0  0  0  0  0  0  0  0  0  0  0
   49.2860   34.6600   43.5580 H   0  0  0  0  0  0  0  0  0  0  0  0
   49.5210   33.6720   42.0150 H   0  0  0  0  0  0  0  0  0  0  0  0
   48.8450   31.1350   48.8410 C   0  0  0  0  0  0  0  0  0  0  0  0
   49.2660   29.8590   48.5270 C   0  0  0  0  0  0  0  0  0  0  0  0
   48.5890   29.1960   48.0020 H   0  0  0  0  0  0  0  0  0  0  0  0
   50.5230   29.3830   48.8520 C   0  0  0  0  0  0  0  0  0  0  0  0
   50.7920   28.3560   48.5710 H   0  0  0  0  0  0  0  0  0  0  0  0
   51.3810   30.2550   49.5280 C   0  0  0  0  0  0  0  0  0  0  0  0
   50.9340   31.5400   49.8340 C   0  0  0  0  0  0  0  0  0  0  0  0
   49.6840   31.9350   49.4820 N   0  0  0  0  0  0  0  0  0  0  0  0
  1  6  2  0  0  0  0
  1  2  1  0  0  0  0
  2  3  2  0  0  0  0
  3  4  1  0  0  0  0
  3  8  1  0  0  0  0
  4  9  1  0  0  0  0
  5 26  1  0  0  0  0
  5  4  2  0  0  0  0
  6  5  1  0  0  0  0
  7  2  1  0  0  0  0
 10 16  1  0  0  0  0
 10 15  1  0  0  0  0
 11 12  1  0  0  0  0
 11 10  2  0  0  0  0
 12 13  2  0  0  0  0
 13 14  1  0  0  0  0
 14  1  1  0  0  0  0
 15 14  2  0  0  0  0
 17 11  1  0  0  0  0
 18 20  1  0  0  0  0
 18 12  1  0  0  0  0
 19 23  1  0  0  0  0
 19 18  1  0  0  0  0
 19 20  1  0  0  0  0
 20 24  1  0  0  0  0
 21 18  1  0  0  0  0
 22 19  1  0  0  0  0
 25 20  1  0  0  0  0
 26 33  1  0  0  0  0
 27 26  2  0  0  0  0
 27 29  1  0  0  0  0
 28 27  1  0  0  0  0
 29 31  2  0  0  0  0
 30 29  1  0  0  0  0
 31 32  1  0  0  0  0
 33 32  2  0  0  0  0
M  END
>  <minimizedAffinity>
-6.26821041

>  <minimizedRMSD>
1.52148438

$$$$
