
 OpenBabel03252508323D

 31 33  0  0  1  0  0  0  0  0999 V2000
   45.1050   34.4070   42.2130 N   0  0  0  0  0  0  0  0  0  0  0  0
   46.0780   33.6440   41.4960 C   0  0  1  0  0  0  0  0  0  0  0  0
   45.9250   33.6530   40.0230 C   0  0  0  0  0  0  0  0  0  0  0  0
   44.6390   33.7500   39.4890 N   0  0  0  0  0  0  0  0  0  0  0  0
   43.6390   34.3760   40.2620 C   0  0  0  0  0  0  0  0  0  0  0  0
   44.2390   35.1950   41.3890 C   0  0  0  0  0  0  0  0  0  0  0  0
   46.0260   32.5850   41.8860 H   0  0  0  0  0  0  0  0  0  0  0  0
   46.5730   34.4450   39.5900 H   0  0  0  0  0  0  0  0  0  0  0  0
   46.3830   32.6910   39.6490 H   0  0  0  0  0  0  0  0  0  0  0  0
   44.6670   34.1900   38.5390 H   0  0  0  0  0  0  0  0  0  0  0  0
   42.9890   35.1010   39.6970 H   0  0  0  0  0  0  0  0  0  0  0  0
   42.9750   33.6170   40.7020 H   0  0  0  0  0  0  0  0  0  0  0  0
   44.7990   36.0250   40.8620 H   0  0  0  0  0  0  0  0  0  0  0  0
   43.4080   35.6930   41.8770 H   0  0  0  0  0  0  0  0  0  0  0  0
   44.5980   35.4290   44.3020 C   0  0  0  0  0  0  0  0  0  0  0  0
   45.0900   34.3210   43.6210 C   0  0  0  0  0  0  0  0  0  0  0  0
   45.5230   33.2490   44.3800 C   0  0  0  0  0  0  0  0  0  0  0  0
   45.4740   33.2700   45.7360 N   0  0  0  0  0  0  0  0  0  0  0  0
   44.9850   34.3730   46.3750 C   0  0  0  0  0  0  0  0  0  0  0  0
   44.5620   35.4170   45.6640 N   0  0  0  0  0  0  0  0  0  0  0  0
   44.2160   36.3560   43.9060 H   0  0  0  0  0  0  0  0  0  0  0  0
   45.8970   32.3970   43.8660 H   0  0  0  0  0  0  0  0  0  0  0  0
   44.9700   34.3340   47.4530 H   0  0  0  0  0  0  0  0  0  0  0  0
   47.4610   34.1120   41.7830 C   0  0  0  0  0  0  0  0  0  0  0  0
   48.4250   33.2580   42.2810 C   0  0  0  0  0  0  0  0  0  0  0  0
   48.2210   32.2300   42.4770 H   0  0  0  0  0  0  0  0  0  0  0  0
   49.7250   33.6400   42.5720 C   0  0  0  0  0  0  0  0  0  0  0  0
   50.4670   32.9570   42.9610 H   0  0  0  0  0  0  0  0  0  0  0  0
   50.1090   34.9370   42.3630 C   0  0  0  0  0  3  0  0  0  0  0  0
   49.1470   35.7890   41.8660 C   0  0  0  0  0  3  0  0  0  0  0  0
   47.9160   35.3860   41.6010 N   0  0  0  0  0  0  0  0  0  0  0  0
  1 16  1  0  0  0  0
  2 24  1  0  0  0  0
  2  7  1  1  0  0  0
  2  1  1  0  0  0  0
  3  2  1  0  0  0  0
  4  3  1  0  0  0  0
  4  5  1  0  0  0  0
  5 12  1  0  0  0  0
  5  6  1  0  0  0  0
  6 14  1  0  0  0  0
  6  1  1  0  0  0  0
  8  3  1  0  0  0  0
  9  3  1  0  0  0  0
 10  4  1  0  0  0  0
 11  5  1  0  0  0  0
 13  6  1  0  0  0  0
 15 20  1  0  0  0  0
 16 15  2  0  0  0  0
 16 17  1  0  0  0  0
 17 18  2  0  0  0  0
 18 19  1  0  0  0  0
 19 23  1  0  0  0  0
 20 19  2  0  0  0  0
 21 15  1  0  0  0  0
 22 17  1  0  0  0  0
 24 25  1  0  0  0  0
 25 26  1  0  0  0  0
 25 27  2  0  0  0  0
 27 28  1  0  0  0  0
 29 27  1  0  0  0  0
 30 29  2  0  0  0  0
 31 24  2  0  0  0  0
 31 30  1  0  0  0  0
M  END
>  <minimizedAffinity>
-5.01464081

>  <minimizedRMSD>
1.95597792

$$$$
