
 OpenBabel03252506583D

 37 41  0  0  0  0  0  0  0  0999 V2000
   36.9290   25.8910   40.5650 C   0  0  0  0  0  0  0  0  0  0  0  0
   37.3460   24.5880   40.8140 C   0  0  0  0  0  0  0  0  0  0  0  0
   38.2890   24.2800   41.7630 C   0  0  0  0  0  0  0  0  0  0  0  0
   38.8710   25.2890   42.5250 C   0  0  0  0  0  0  0  0  0  0  0  0
   39.8010   25.3590   43.5150 N   0  0  0  0  0  0  0  0  0  0  0  0
   39.9540   26.6620   43.8670 C   0  0  0  0  0  0  0  0  0  0  0  0
   39.1120   27.3870   43.0850 N   0  0  0  0  0  0  0  0  0  0  0  0
   38.4420   26.5700   42.2590 C   0  0  0  0  0  0  0  0  0  0  0  0
   37.5030   26.9130   41.3200 C   0  0  0  0  0  0  0  0  0  0  0  0
   36.1790   26.1080   39.8060 H   0  0  0  0  0  0  0  0  0  0  0  0
   38.6310   23.2780   41.9780 H   0  0  0  0  0  0  0  0  0  0  0  0
   40.2890   24.5340   43.9090 H   0  0  0  0  0  0  0  0  0  0  0  0
   40.6290   27.0580   44.6360 H   0  0  0  0  0  0  0  0  0  0  0  0
   36.9590   21.4110   39.0100 C   0  0  0  0  0  0  0  0  0  0  0  0
   35.6450   21.4540   38.5700 C   0  0  0  0  0  0  0  0  0  0  0  0
   34.8880   22.5880   38.9000 C   0  0  0  0  0  0  0  0  0  0  0  0
   35.4670   23.5870   39.6280 N   0  0  0  0  0  0  0  0  0  0  0  0
   36.7600   23.5020   40.0370 C   0  0  0  0  0  0  0  0  0  0  0  0
   37.5060   22.4230   39.7320 N   0  0  0  0  0  0  0  0  0  0  0  0
   37.5800   20.5470   38.7740 H   0  0  0  0  0  0  0  0  0  0  0  0
   35.2060   20.6590   37.9980 H   0  0  0  0  0  0  0  0  0  0  0  0
   33.8610   22.7030   38.6000 H   0  0  0  0  0  0  0  0  0  0  0  0
   37.1130   28.3070   41.1120 C   0  0  0  0  0  0  0  0  0  0  0  0
   35.7940   28.7530   41.0810 C   0  0  0  0  0  0  0  0  0  0  0  0
   35.9300   30.1300   40.8610 C   0  0  0  0  0  0  0  0  0  0  0  0
   37.2710   30.4340   40.7750 C   0  0  0  0  0  0  0  0  0  0  0  0
   37.9390   29.2990   40.9330 O   0  0  0  0  0  0  0  0  0  0  0  0
   34.9060   28.1580   41.2000 H   0  0  0  0  0  0  0  0  0  0  0  0
   35.0990   30.8200   40.7770 H   0  0  0  0  0  0  0  0  0  0  0  0
   37.8730   31.7450   40.5520 C   0  0  0  0  0  0  0  0  0  0  0  0
   37.1410   32.7050   39.8800 C   0  0  0  0  0  0  0  0  0  0  0  0
   36.1400   32.5260   39.5120 H   0  0  0  0  0  0  0  0  0  0  0  0
   37.7240   33.9390   39.6770 C   0  0  0  0  0  0  0  0  0  0  0  0
   37.2220   34.7560   39.1580 H   0  0  0  0  0  0  0  0  0  0  0  0
   39.0020   34.1270   40.1620 C   0  0  0  0  0  3  0  0  0  0  0  0
   39.7350   33.1700   40.8330 C   0  0  0  0  0  3  0  0  0  0  0  0
   39.1220   31.9640   41.0130 N   0  0  0  0  0  0  0  0  0  0  0  0
  1  2  2  0  0  0  0
  1  9  1  0  0  0  0
  2  3  1  0  0  0  0
  3 11  1  0  0  0  0
  3  4  2  0  0  0  0
  4  5  1  0  0  0  0
  5  6  1  0  0  0  0
  5 12  1  0  0  0  0
  6 13  1  0  0  0  0
  7  6  2  0  0  0  0
  8  4  1  0  0  0  0
  8  7  1  0  0  0  0
  9  8  2  0  0  0  0
 10  1  1  0  0  0  0
 14 19  1  0  0  0  0
 15 16  1  0  0  0  0
 15 14  2  0  0  0  0
 16 17  2  0  0  0  0
 17 18  1  0  0  0  0
 18  2  1  0  0  0  0
 19 18  2  0  0  0  0
 20 14  1  0  0  0  0
 21 15  1  0  0  0  0
 22 16  1  0  0  0  0
 23  9  1  0  0  0  0
 24 23  2  0  0  0  0
 24 28  1  0  0  0  0
 25 24  1  0  0  0  0
 26 25  2  0  0  0  0
 26 27  1  0  0  0  0
 27 23  1  0  0  0  0
 29 25  1  0  0  0  0
 30 26  1  0  0  0  0
 30 37  1  0  0  0  0
 31 30  2  0  0  0  0
 32 31  1  0  0  0  0
 33 31  1  0  0  0  0
 33 35  2  0  0  0  0
 34 33  1  0  0  0  0
 35 36  1  0  0  0  0
 36 37  2  0  0  0  0
M  END
>  <minimizedAffinity>
-6.42882586

$$$$

 OpenBabel03252506583D

 37 41  0  0  0  0  0  0  0  0999 V2000
   40.9030   31.8220   41.4050 C   0  0  0  0  0  0  0  0  0  0  0  0
   41.3650   33.0180   40.8680 C   0  0  0  0  0  0  0  0  0  0  0  0
   40.5540   33.8800   40.1720 C   0  0  0  0  0  0  0  0  0  0  0  0
   39.2100   33.5750   39.9790 C   0  0  0  0  0  0  0  0  0  0  0  0
   38.1470   34.1630   39.3680 N   0  0  0  0  0  0  0  0  0  0  0  0
   37.0640   33.3580   39.5210 C   0  0  0  0  0  0  0  0  0  0  0  0
   37.4720   32.2740   40.2310 N   0  0  0  0  0  0  0  0  0  0  0  0
   38.7770   32.3850   40.5200 C   0  0  0  0  0  0  0  0  0  0  0  0
   39.5590   31.5010   41.2200 C   0  0  0  0  0  0  0  0  0  0  0  0
   41.5690   31.1560   41.9530 H   0  0  0  0  0  0  0  0  0  0  0  0
   40.8850   34.8160   39.7450 H   0  0  0  0  0  0  0  0  0  0  0  0
   38.1950   35.0750   38.8760 H   0  0  0  0  0  0  0  0  0  0  0  0
   36.0510   33.5440   39.1450 H   0  0  0  0  0  0  0  0  0  0  0  0
   44.8070   34.0860   40.1530 C   0  0  0  0  0  0  0  0  0  0  0  0
   45.4150   34.0490   41.3970 C   0  0  0  0  0  0  0  0  0  0  0  0
   44.6310   33.6520   42.4910 C   0  0  0  0  0  0  0  0  0  0  0  0
   43.3210   33.3250   42.2870 N   0  0  0  0  0  0  0  0  0  0  0  0
   42.7670   33.3750   41.0480 C   0  0  0  0  0  0  0  0  0  0  0  0
   43.5010   33.7530   39.9840 N   0  0  0  0  0  0  0  0  0  0  0  0
   45.3830   34.3880   39.2780 H   0  0  0  0  0  0  0  0  0  0  0  0
   46.4470   34.3100   41.5390 H   0  0  0  0  0  0  0  0  0  0  0  0
   45.0230   33.5960   43.4910 H   0  0  0  0  0  0  0  0  0  0  0  0
   39.0040   30.2590   41.7580 C   0  0  0  0  0  0  0  0  0  0  0  0
   38.8620   29.9920   43.1170 C   0  0  0  0  0  0  0  0  0  0  0  0
   38.2980   28.7080   43.1300 C   0  0  0  0  0  0  0  0  0  0  0  0
   38.1340   28.2850   41.8290 C   0  0  0  0  0  0  0  0  0  0  0  0
   38.5760   29.2580   41.0430 O   0  0  0  0  0  0  0  0  0  0  0  0
   39.1300   30.6350   43.9360 H   0  0  0  0  0  0  0  0  0  0  0  0
   38.0420   28.1630   44.0290 H   0  0  0  0  0  0  0  0  0  0  0  0
   37.5840   27.0130   41.3710 C   0  0  0  0  0  0  0  0  0  0  0  0
   37.4720   25.9750   42.2760 C   0  0  0  0  0  0  0  0  0  0  0  0
   37.7750   26.0650   43.3110 H   0  0  0  0  0  0  0  0  0  0  0  0
   36.9490   24.7790   41.8280 C   0  0  0  0  0  0  0  0  0  0  0  0
   36.8240   23.9070   42.4700 H   0  0  0  0  0  0  0  0  0  0  0  0
   36.5750   24.7050   40.5020 C   0  0  0  0  0  3  0  0  0  0  0  0
   36.6850   25.7400   39.5960 C   0  0  0  0  0  3  0  0  0  0  0  0
   37.2070   26.9050   40.0800 N   0  0  0  0  0  0  0  0  0  0  0  0
  1 10  1  0  0  0  0
  2 18  1  0  0  0  0
  2  1  2  0  0  0  0
  3  2  1  0  0  0  0
  4  3  2  0  0  0  0
  4  8  1  0  0  0  0
  5  6  1  0  0  0  0
  5  4  1  0  0  0  0
  6  7  2  0  0  0  0
  7  8  1  0  0  0  0
  8  9  2  0  0  0  0
  9  1  1  0  0  0  0
  9 23  1  0  0  0  0
 11  3  1  0  0  0  0
 12  5  1  0  0  0  0
 13  6  1  0  0  0  0
 14 15  1  0  0  0  0
 15 21  1  0  0  0  0
 15 16  2  0  0  0  0
 16 22  1  0  0  0  0
 17 16  1  0  0  0  0
 18 17  2  0  0  0  0
 19 14  2  0  0  0  0
 19 18  1  0  0  0  0
 20 14  1  0  0  0  0
 23 24  2  0  0  0  0
 24 25  1  0  0  0  0
 24 28  1  0  0  0  0
 25 29  1  0  0  0  0
 26 25  2  0  0  0  0
 27 23  1  0  0  0  0
 27 26  1  0  0  0  0
 30 26  1  0  0  0  0
 30 31  1  0  0  0  0
 31 32  1  0  0  0  0
 33 31  2  0  0  0  0
 33 34  1  0  0  0  0
 35 33  1  0  0  0  0
 36 37  1  0  0  0  0
 36 35  2  0  0  0  0
 37 30  2  0  0  0  0
M  END
>  <minimizedAffinity>
-6.21644831

$$$$

 OpenBabel03252506583D

 37 41  0  0  0  0  0  0  0  0999 V2000
   36.5530   30.5570   38.6820 C   0  0  0  0  0  0  0  0  0  0  0  0
   35.6930   29.4670   38.7450 C   0  0  0  0  0  0  0  0  0  0  0  0
   35.5920   28.6660   39.8550 C   0  0  0  0  0  0  0  0  0  0  0  0
   36.3670   28.9290   40.9800 C   0  0  0  0  0  0  0  0  0  0  0  0
   36.5300   28.3750   42.2120 N   0  0  0  0  0  0  0  0  0  0  0  0
   37.4590   29.0990   42.8880 C   0  0  0  0  0  0  0  0  0  0  0  0
   37.8640   30.0980   42.0610 N   0  0  0  0  0  0  0  0  0  0  0  0
   37.2120   30.0130   40.8930 C   0  0  0  0  0  0  0  0  0  0  0  0
   37.3380   30.8330   39.8010 C   0  0  0  0  0  0  0  0  0  0  0  0
   36.6140   31.1770   37.7870 H   0  0  0  0  0  0  0  0  0  0  0  0
   34.9320   27.8140   39.9330 H   0  0  0  0  0  0  0  0  0  0  0  0
   36.0120   27.5410   42.5430 H   0  0  0  0  0  0  0  0  0  0  0  0
   37.8180   28.9150   43.9080 H   0  0  0  0  0  0  0  0  0  0  0  0
   32.7890   28.5710   36.6800 C   0  0  0  0  0  0  0  0  0  0  0  0
   33.3010   28.5760   35.3930 C   0  0  0  0  0  0  0  0  0  0  0  0
   34.6600   28.8920   35.2370 C   0  0  0  0  0  0  0  0  0  0  0  0
   35.4090   29.1760   36.3420 N   0  0  0  0  0  0  0  0  0  0  0  0
   34.8630   29.1580   37.5870 C   0  0  0  0  0  0  0  0  0  0  0  0
   33.5620   28.8580   37.7600 N   0  0  0  0  0  0  0  0  0  0  0  0
   31.7390   28.3310   36.8430 H   0  0  0  0  0  0  0  0  0  0  0  0
   32.6970   28.3500   34.5340 H   0  0  0  0  0  0  0  0  0  0  0  0
   35.1380   28.9200   34.2730 H   0  0  0  0  0  0  0  0  0  0  0  0
   38.2650   31.9650   39.8050 C   0  0  0  0  0  0  0  0  0  0  0  0
   37.9340   33.2440   40.2420 C   0  0  0  0  0  0  0  0  0  0  0  0
   39.1240   33.9610   40.0570 C   0  0  0  0  0  0  0  0  0  0  0  0
   40.0760   33.1100   39.5390 C   0  0  0  0  0  0  0  0  0  0  0  0
   39.5040   31.9200   39.4070 O   0  0  0  0  0  0  0  0  0  0  0  0
   36.9840   33.5730   40.6250 H   0  0  0  0  0  0  0  0  0  0  0  0
   39.2480   35.0100   40.2920 H   0  0  0  0  0  0  0  0  0  0  0  0
   41.4570   33.4270   39.1900 C   0  0  0  0  0  0  0  0  0  0  0  0
   41.7580   33.7140   37.8720 C   0  0  0  0  0  0  0  0  0  0  0  0
   41.0140   33.7130   37.0880 H   0  0  0  0  0  0  0  0  0  0  0  0
   43.0690   34.0120   37.5590 C   0  0  0  0  0  0  0  0  0  0  0  0
   43.3990   34.2510   36.5470 H   0  0  0  0  0  0  0  0  0  0  0  0
   43.9880   34.0020   38.5880 C   0  0  0  0  0  3  0  0  0  0  0  0
   43.6900   33.7170   39.9040 C   0  0  0  0  0  3  0  0  0  0  0  0
   42.3820   33.4270   40.1710 N   0  0  0  0  0  0  0  0  0  0  0  0
  1  2  2  0  0  0  0
  1  9  1  0  0  0  0
  2  3  1  0  0  0  0
  3 11  1  0  0  0  0
  3  4  2  0  0  0  0
  4  5  1  0  0  0  0
  5 12  1  0  0  0  0
  5  6  1  0  0  0  0
  6 13  1  0  0  0  0
  7  6  2  0  0  0  0
  8  4  1  0  0  0  0
  8  7  1  0  0  0  0
  9 23  1  0  0  0  0
  9  8  2  0  0  0  0
 10  1  1  0  0  0  0
 14 20  1  0  0  0  0
 14 19  1  0  0  0  0
 15 14  2  0  0  0  0
 16 15  1  0  0  0  0
 16 17  2  0  0  0  0
 17 18  1  0  0  0  0
 18 19  2  0  0  0  0
 18  2  1  0  0  0  0
 21 15  1  0  0  0  0
 22 16  1  0  0  0  0
 23 24  2  0  0  0  0
 24 28  1  0  0  0  0
 25 24  1  0  0  0  0
 25 29  1  0  0  0  0
 26 25  2  0  0  0  0
 27 26  1  0  0  0  0
 27 23  1  0  0  0  0
 30 26  1  0  0  0  0
 30 37  1  0  0  0  0
 31 30  2  0  0  0  0
 32 31  1  0  0  0  0
 33 31  1  0  0  0  0
 33 35  2  0  0  0  0
 34 33  1  0  0  0  0
 35 36  1  0  0  0  0
 36 37  2  0  0  0  0
M  END
>  <minimizedAffinity>
-6.15639162

$$$$

 OpenBabel03252506583D

 37 41  0  0  0  0  0  0  0  0999 V2000
   33.4800   28.9680   38.3580 C   0  0  0  0  0  0  0  0  0  0  0  0
   32.8380   29.2180   37.1510 C   0  0  0  0  0  0  0  0  0  0  0  0
   33.4970   29.2160   35.9470 C   0  0  0  0  0  0  0  0  0  0  0  0
   34.8630   28.9580   35.8970 C   0  0  0  0  0  0  0  0  0  0  0  0
   35.8120   28.8760   34.9260 N   0  0  0  0  0  0  0  0  0  0  0  0
   37.0020   28.5860   35.5130 C   0  0  0  0  0  0  0  0  0  0  0  0
   36.7740   28.4900   36.8490 N   0  0  0  0  0  0  0  0  0  0  0  0
   35.4770   28.7140   37.1050 C   0  0  0  0  0  0  0  0  0  0  0  0
   34.8500   28.7080   38.3250 C   0  0  0  0  0  0  0  0  0  0  0  0
   32.9330   28.9750   39.3010 H   0  0  0  0  0  0  0  0  0  0  0  0
   33.0240   29.4060   34.9940 H   0  0  0  0  0  0  0  0  0  0  0  0
   35.6200   29.0180   33.9170 H   0  0  0  0  0  0  0  0  0  0  0  0
   37.9670   28.4520   35.0080 H   0  0  0  0  0  0  0  0  0  0  0  0
   29.3340   29.4800   36.0770 C   0  0  0  0  0  0  0  0  0  0  0  0
   28.7010   30.0160   37.1870 C   0  0  0  0  0  0  0  0  0  0  0  0
   29.4910   30.2890   38.3140 C   0  0  0  0  0  0  0  0  0  0  0  0
   30.8280   30.0190   38.2720 N   0  0  0  0  0  0  0  0  0  0  0  0
   31.4060   29.4930   37.1600 C   0  0  0  0  0  0  0  0  0  0  0  0
   30.6680   29.2240   36.0670 N   0  0  0  0  0  0  0  0  0  0  0  0
   28.7560   29.2540   35.1810 H   0  0  0  0  0  0  0  0  0  0  0  0
   27.6470   30.2220   37.2020 H   0  0  0  0  0  0  0  0  0  0  0  0
   29.0810   30.7050   39.2180 H   0  0  0  0  0  0  0  0  0  0  0  0
   35.5910   28.4370   39.5570 C   0  0  0  0  0  0  0  0  0  0  0  0
   35.6830   29.3260   40.6250 C   0  0  0  0  0  0  0  0  0  0  0  0
   36.4770   28.6320   41.5470 C   0  0  0  0  0  0  0  0  0  0  0  0
   36.8090   27.4070   41.0110 C   0  0  0  0  0  0  0  0  0  0  0  0
   36.2490   27.3420   39.8110 O   0  0  0  0  0  0  0  0  0  0  0  0
   35.2410   30.3040   40.6940 H   0  0  0  0  0  0  0  0  0  0  0  0
   36.7670   29.0180   42.5160 H   0  0  0  0  0  0  0  0  0  0  0  0
   37.6220   26.3590   41.6230 C   0  0  0  0  0  0  0  0  0  0  0  0
   37.2240   25.0440   41.4780 C   0  0  0  0  0  0  0  0  0  0  0  0
   36.3360   24.7570   40.9320 H   0  0  0  0  0  0  0  0  0  0  0  0
   38.0030   24.0650   42.0620 C   0  0  0  0  0  0  0  0  0  0  0  0
   37.7670   23.0020   42.0010 H   0  0  0  0  0  0  0  0  0  0  0  0
   39.1270   24.4720   42.7510 C   0  0  0  0  0  3  0  0  0  0  0  0
   39.5260   25.7850   42.8960 C   0  0  0  0  0  3  0  0  0  0  0  0
   38.7280   26.7210   42.3040 N   0  0  0  0  0  0  0  0  0  0  0  0
  1 10  1  0  0  0  0
  2 18  1  0  0  0  0
  2  1  2  0  0  0  0
  3  2  1  0  0  0  0
  4  3  2  0  0  0  0
  4  8  1  0  0  0  0
  5  6  1  0  0  0  0
  5  4  1  0  0  0  0
  6  7  2  0  0  0  0
  7  8  1  0  0  0  0
  8  9  2  0  0  0  0
  9  1  1  0  0  0  0
  9 23  1  0  0  0  0
 11  3  1  0  0  0  0
 12  5  1  0  0  0  0
 13  6  1  0  0  0  0
 14 15  1  0  0  0  0
 15 21  1  0  0  0  0
 15 16  2  0  0  0  0
 16 22  1  0  0  0  0
 17 16  1  0  0  0  0
 18 17  2  0  0  0  0
 19 14  2  0  0  0  0
 19 18  1  0  0  0  0
 20 14  1  0  0  0  0
 23 27  1  0  0  0  0
 23 24  2  0  0  0  0
 24 28  1  0  0  0  0
 24 25  1  0  0  0  0
 25 29  1  0  0  0  0
 26 25  2  0  0  0  0
 26 30  1  0  0  0  0
 27 26  1  0  0  0  0
 30 37  1  0  0  0  0
 31 30  2  0  0  0  0
 31 33  1  0  0  0  0
 32 31  1  0  0  0  0
 33 35  2  0  0  0  0
 34 33  1  0  0  0  0
 35 36  1  0  0  0  0
 37 36  2  0  0  0  0
M  END
>  <minimizedAffinity>
-5.9784441

$$$$

 OpenBabel03252506583D

 37 41  0  0  0  0  0  0  0  0999 V2000
   40.8250   30.7770   37.9150 C   0  0  0  0  0  0  0  0  0  0  0  0
   41.7890   31.7520   37.6880 C   0  0  0  0  0  0  0  0  0  0  0  0
   41.6740   33.0330   38.1690 C   0  0  0  0  0  0  0  0  0  0  0  0
   40.5600   33.4030   38.9150 C   0  0  0  0  0  0  0  0  0  0  0  0
   40.1210   34.5350   39.5290 N   0  0  0  0  0  0  0  0  0  0  0  0
   38.9250   34.2690   40.1150 C   0  0  0  0  0  0  0  0  0  0  0  0
   38.6360   32.9660   39.8550 N   0  0  0  0  0  0  0  0  0  0  0  0
   39.6190   32.4200   39.1250 C   0  0  0  0  0  0  0  0  0  0  0  0
   39.7020   31.1320   38.6610 C   0  0  0  0  0  0  0  0  0  0  0  0
   40.9410   29.7670   37.5220 H   0  0  0  0  0  0  0  0  0  0  0  0
   42.4080   33.8100   38.0090 H   0  0  0  0  0  0  0  0  0  0  0  0
   40.6410   35.4320   39.5280 H   0  0  0  0  0  0  0  0  0  0  0  0
   38.3070   34.9690   40.6890 H   0  0  0  0  0  0  0  0  0  0  0  0
   45.2240   31.7500   36.3850 C   0  0  0  0  0  0  0  0  0  0  0  0
   45.2030   30.7400   35.4360 C   0  0  0  0  0  0  0  0  0  0  0  0
   43.9930   30.0550   35.2450 C   0  0  0  0  0  0  0  0  0  0  0  0
   42.9050   30.4060   35.9910 N   0  0  0  0  0  0  0  0  0  0  0  0
   42.9720   31.4040   36.9100 C   0  0  0  0  0  0  0  0  0  0  0  0
   44.1220   32.0750   37.1100 N   0  0  0  0  0  0  0  0  0  0  0  0
   46.1450   32.3060   36.5620 H   0  0  0  0  0  0  0  0  0  0  0  0
   46.0690   30.4770   34.8590 H   0  0  0  0  0  0  0  0  0  0  0  0
   43.8890   29.2580   34.5300 H   0  0  0  0  0  0  0  0  0  0  0  0
   38.6470   30.1570   38.9370 C   0  0  0  0  0  0  0  0  0  0  0  0
   37.3860   30.1830   38.3490 C   0  0  0  0  0  0  0  0  0  0  0  0
   36.7480   29.0720   38.9170 C   0  0  0  0  0  0  0  0  0  0  0  0
   37.6220   28.4560   39.7840 C   0  0  0  0  0  0  0  0  0  0  0  0
   38.7520   29.1510   39.7580 O   0  0  0  0  0  0  0  0  0  0  0  0
   37.0180   30.8970   37.6330 H   0  0  0  0  0  0  0  0  0  0  0  0
   35.7320   28.7700   38.6920 H   0  0  0  0  0  0  0  0  0  0  0  0
   37.3820   27.2650   40.5930 C   0  0  0  0  0  0  0  0  0  0  0  0
   37.0800   26.0790   39.9520 C   0  0  0  0  0  0  0  0  0  0  0  0
   37.0140   25.9950   38.8750 H   0  0  0  0  0  0  0  0  0  0  0  0
   36.8550   24.9610   40.7300 C   0  0  0  0  0  0  0  0  0  0  0  0
   36.6110   23.9840   40.3120 H   0  0  0  0  0  0  0  0  0  0  0  0
   36.9480   25.1090   42.0990 C   0  0  0  0  0  3  0  0  0  0  0  0
   37.2500   26.2930   42.7420 C   0  0  0  0  0  3  0  0  0  0  0  0
   37.4650   27.3730   41.9350 N   0  0  0  0  0  0  0  0  0  0  0  0
  1  9  1  0  0  0  0
  2  1  2  0  0  0  0
  2  3  1  0  0  0  0
  3  4  2  0  0  0  0
  4  8  1  0  0  0  0
  4  5  1  0  0  0  0
  5  6  1  0  0  0  0
  6 13  1  0  0  0  0
  7  6  2  0  0  0  0
  8  7  1  0  0  0  0
  9 23  1  0  0  0  0
  9  8  2  0  0  0  0
 10  1  1  0  0  0  0
 11  3  1  0  0  0  0
 12  5  1  0  0  0  0
 14 20  1  0  0  0  0
 14 19  1  0  0  0  0
 15 14  2  0  0  0  0
 16 15  1  0  0  0  0
 16 17  2  0  0  0  0
 17 18  1  0  0  0  0
 18 19  2  0  0  0  0
 18  2  1  0  0  0  0
 21 15  1  0  0  0  0
 22 16  1  0  0  0  0
 23 27  1  0  0  0  0
 24 25  1  0  0  0  0
 24 23  2  0  0  0  0
 25 26  2  0  0  0  0
 26 30  1  0  0  0  0
 27 26  1  0  0  0  0
 28 24  1  0  0  0  0
 29 25  1  0  0  0  0
 30 37  1  0  0  0  0
 31 30  2  0  0  0  0
 31 33  1  0  0  0  0
 32 31  1  0  0  0  0
 33 35  2  0  0  0  0
 34 33  1  0  0  0  0
 35 36  1  0  0  0  0
 37 36  2  0  0  0  0
M  END
>  <minimizedAffinity>
-5.89699411

$$$$

 OpenBabel03252506583D

 37 41  0  0  0  0  0  0  0  0999 V2000
   39.5150   29.6640   40.1710 C   0  0  0  0  0  0  0  0  0  0  0  0
   38.2090   29.3990   40.5660 C   0  0  0  0  0  0  0  0  0  0  0  0
   37.2400   30.3700   40.6210 C   0  0  0  0  0  0  0  0  0  0  0  0
   37.5440   31.6830   40.2740 C   0  0  0  0  0  0  0  0  0  0  0  0
   36.8700   32.8630   40.2100 N   0  0  0  0  0  0  0  0  0  0  0  0
   37.7310   33.8260   39.7900 C   0  0  0  0  0  0  0  0  0  0  0  0
   38.9350   33.2260   39.5980 N   0  0  0  0  0  0  0  0  0  0  0  0
   38.8440   31.9200   39.8880 C   0  0  0  0  0  0  0  0  0  0  0  0
   39.8360   30.9750   39.8210 C   0  0  0  0  0  0  0  0  0  0  0  0
   40.2650   28.8750   40.1360 H   0  0  0  0  0  0  0  0  0  0  0  0
   36.2170   30.1920   40.9220 H   0  0  0  0  0  0  0  0  0  0  0  0
   35.8670   32.9690   40.4500 H   0  0  0  0  0  0  0  0  0  0  0  0
   37.5010   34.8870   39.6340 H   0  0  0  0  0  0  0  0  0  0  0  0
   36.9210   25.9630   40.3800 C   0  0  0  0  0  0  0  0  0  0  0  0
   37.1740   25.4600   41.6460 C   0  0  0  0  0  0  0  0  0  0  0  0
   37.7950   26.3150   42.5700 C   0  0  0  0  0  0  0  0  0  0  0  0
   38.1180   27.5850   42.1900 N   0  0  0  0  0  0  0  0  0  0  0  0
   37.8490   28.0350   40.9370 C   0  0  0  0  0  0  0  0  0  0  0  0
   37.2540   27.2340   40.0340 N   0  0  0  0  0  0  0  0  0  0  0  0
   36.4400   25.3310   39.6340 H   0  0  0  0  0  0  0  0  0  0  0  0
   36.9130   24.4580   41.9280 H   0  0  0  0  0  0  0  0  0  0  0  0
   38.0280   26.0050   43.5740 H   0  0  0  0  0  0  0  0  0  0  0  0
   41.1910   31.3270   39.3970 C   0  0  0  0  0  0  0  0  0  0  0  0
   42.0750   32.0870   40.1580 C   0  0  0  0  0  0  0  0  0  0  0  0
   43.2170   32.1510   39.3480 C   0  0  0  0  0  0  0  0  0  0  0  0
   42.9730   31.4530   38.1850 C   0  0  0  0  0  0  0  0  0  0  0  0
   41.7380   30.9780   38.2670 O   0  0  0  0  0  0  0  0  0  0  0  0
   41.8960   32.5090   41.1310 H   0  0  0  0  0  0  0  0  0  0  0  0
   44.1280   32.6700   39.6170 H   0  0  0  0  0  0  0  0  0  0  0  0
   43.8810   31.2580   37.0590 C   0  0  0  0  0  0  0  0  0  0  0  0
   43.5170   30.3740   36.0610 C   0  0  0  0  0  0  0  0  0  0  0  0
   42.5890   29.8200   36.0800 H   0  0  0  0  0  0  0  0  0  0  0  0
   44.3860   30.2000   35.0030 C   0  0  0  0  0  0  0  0  0  0  0  0
   44.1830   29.5240   34.1720 H   0  0  0  0  0  0  0  0  0  0  0  0
   45.5610   30.9240   35.0170 C   0  0  0  0  0  3  0  0  0  0  0  0
   45.9260   31.8080   36.0120 C   0  0  0  0  0  3  0  0  0  0  0  0
   45.0380   31.9500   37.0400 N   0  0  0  0  0  0  0  0  0  0  0  0
  1  2  1  0  0  0  0
  2  3  2  0  0  0  0
  2 18  1  0  0  0  0
  3 11  1  0  0  0  0
  4  3  1  0  0  0  0
  5  4  1  0  0  0  0
  5 12  1  0  0  0  0
  6  5  1  0  0  0  0
  7  6  2  0  0  0  0
  7  8  1  0  0  0  0
  8  4  2  0  0  0  0
  9  8  1  0  0  0  0
  9  1  2  0  0  0  0
 10  1  1  0  0  0  0
 13  6  1  0  0  0  0
 14 15  1  0  0  0  0
 15 21  1  0  0  0  0
 15 16  2  0  0  0  0
 16 22  1  0  0  0  0
 17 16  1  0  0  0  0
 18 17  2  0  0  0  0
 19 14  2  0  0  0  0
 19 18  1  0  0  0  0
 20 14  1  0  0  0  0
 23  9  1  0  0  0  0
 23 24  2  0  0  0  0
 24 28  1  0  0  0  0
 25 29  1  0  0  0  0
 25 24  1  0  0  0  0
 26 27  1  0  0  0  0
 26 25  2  0  0  0  0
 27 23  1  0  0  0  0
 30 26  1  0  0  0  0
 31 32  1  0  0  0  0
 31 30  2  0  0  0  0
 33 35  2  0  0  0  0
 33 31  1  0  0  0  0
 34 33  1  0  0  0  0
 35 36  1  0  0  0  0
 36 37  2  0  0  0  0
 37 30  1  0  0  0  0
M  END
>  <minimizedAffinity>
-5.76227236

$$$$

 OpenBabel03252506583D

 37 41  0  0  0  0  0  0  0  0999 V2000
   37.1660   27.4370   39.4730 C   0  0  0  0  0  0  0  0  0  0  0  0
   36.9090   26.2530   40.1550 C   0  0  0  0  0  0  0  0  0  0  0  0
   36.9470   26.1640   41.5250 C   0  0  0  0  0  0  0  0  0  0  0  0
   37.2510   27.2840   42.2910 C   0  0  0  0  0  0  0  0  0  0  0  0
   37.3760   27.5630   43.6170 N   0  0  0  0  0  0  0  0  0  0  0  0
   37.7010   28.8750   43.7510 C   0  0  0  0  0  0  0  0  0  0  0  0
   37.7720   29.3960   42.4980 N   0  0  0  0  0  0  0  0  0  0  0  0
   37.5030   28.4440   41.5930 C   0  0  0  0  0  0  0  0  0  0  0  0
   37.4740   28.5690   40.2270 C   0  0  0  0  0  0  0  0  0  0  0  0
   37.1300   27.4810   38.3850 H   0  0  0  0  0  0  0  0  0  0  0  0
   36.7510   25.2580   42.0810 H   0  0  0  0  0  0  0  0  0  0  0  0
   37.2400   26.8630   44.3690 H   0  0  0  0  0  0  0  0  0  0  0  0
   37.8720   29.4150   44.6890 H   0  0  0  0  0  0  0  0  0  0  0  0
   36.3990   23.9560   37.3330 C   0  0  0  0  0  0  0  0  0  0  0  0
   35.9740   22.7890   37.9480 C   0  0  0  0  0  0  0  0  0  0  0  0
   35.8640   22.7950   39.3460 C   0  0  0  0  0  0  0  0  0  0  0  0
   36.1750   23.9330   40.0340 N   0  0  0  0  0  0  0  0  0  0  0  0
   36.5860   25.0560   39.3880 C   0  0  0  0  0  0  0  0  0  0  0  0
   36.6990   25.0730   38.0470 N   0  0  0  0  0  0  0  0  0  0  0  0
   36.4960   23.9920   36.2490 H   0  0  0  0  0  0  0  0  0  0  0  0
   35.7350   21.9020   37.3910 H   0  0  0  0  0  0  0  0  0  0  0  0
   35.5440   21.9320   39.9030 H   0  0  0  0  0  0  0  0  0  0  0  0
   37.7560   29.8480   39.5770 C   0  0  0  0  0  0  0  0  0  0  0  0
   36.8190   30.5760   38.8470 C   0  0  0  0  0  0  0  0  0  0  0  0
   37.5460   31.7010   38.4330 C   0  0  0  0  0  0  0  0  0  0  0  0
   38.8320   31.5990   38.9160 C   0  0  0  0  0  0  0  0  0  0  0  0
   38.9030   30.4640   39.5980 O   0  0  0  0  0  0  0  0  0  0  0  0
   35.7930   30.3120   38.6630 H   0  0  0  0  0  0  0  0  0  0  0  0
   37.1370   32.5050   37.8330 H   0  0  0  0  0  0  0  0  0  0  0  0
   39.9290   32.5430   38.7290 C   0  0  0  0  0  0  0  0  0  0  0  0
   40.7650   32.3810   37.6410 C   0  0  0  0  0  0  0  0  0  0  0  0
   40.6410   31.5820   36.9220 H   0  0  0  0  0  0  0  0  0  0  0  0
   41.7980   33.2810   37.4780 C   0  0  0  0  0  0  0  0  0  0  0  0
   42.5060   33.2310   36.6510 H   0  0  0  0  0  0  0  0  0  0  0  0
   41.9230   34.2840   38.4180 C   0  0  0  0  0  3  0  0  0  0  0  0
   41.0890   34.4490   39.5050 C   0  0  0  0  0  3  0  0  0  0  0  0
   40.0810   33.5370   39.6290 N   0  0  0  0  0  0  0  0  0  0  0  0
  1  2  2  0  0  0  0
  1  9  1  0  0  0  0
  2  3  1  0  0  0  0
  3 11  1  0  0  0  0
  3  4  2  0  0  0  0
  4  5  1  0  0  0  0
  5  6  1  0  0  0  0
  5 12  1  0  0  0  0
  6 13  1  0  0  0  0
  7  6  2  0  0  0  0
  8  4  1  0  0  0  0
  8  7  1  0  0  0  0
  9  8  2  0  0  0  0
 10  1  1  0  0  0  0
 14 15  2  0  0  0  0
 14 19  1  0  0  0  0
 15 16  1  0  0  0  0
 16 22  1  0  0  0  0
 16 17  2  0  0  0  0
 18 17  1  0  0  0  0
 18  2  1  0  0  0  0
 19 18  2  0  0  0  0
 20 14  1  0  0  0  0
 21 15  1  0  0  0  0
 23 27  1  0  0  0  0
 23  9  1  0  0  0  0
 24 23  2  0  0  0  0
 25 24  1  0  0  0  0
 25 26  2  0  0  0  0
 26 27  1  0  0  0  0
 28 24  1  0  0  0  0
 29 25  1  0  0  0  0
 30 26  1  0  0  0  0
 30 37  1  0  0  0  0
 31 30  2  0  0  0  0
 32 31  1  0  0  0  0
 33 31  1  0  0  0  0
 33 35  2  0  0  0  0
 34 33  1  0  0  0  0
 35 36  1  0  0  0  0
 36 37  2  0  0  0  0
M  END
>  <minimizedAffinity>
-5.75225401

$$$$

 OpenBabel03252506583D

 37 41  0  0  0  0  0  0  0  0999 V2000
   36.7870   25.8180   40.2470 C   0  0  0  0  0  0  0  0  0  0  0  0
   36.8840   24.4310   40.2080 C   0  0  0  0  0  0  0  0  0  0  0  0
   37.7250   23.7240   41.0300 C   0  0  0  0  0  0  0  0  0  0  0  0
   38.5260   24.3900   41.9520 C   0  0  0  0  0  0  0  0  0  0  0  0
   39.4440   24.0370   42.8920 N   0  0  0  0  0  0  0  0  0  0  0  0
   39.9000   25.1670   43.4920 C   0  0  0  0  0  0  0  0  0  0  0  0
   39.2540   26.2130   42.9130 N   0  0  0  0  0  0  0  0  0  0  0  0
   38.4130   25.7630   41.9710 C   0  0  0  0  0  0  0  0  0  0  0  0
   37.5840   26.5000   41.1640 C   0  0  0  0  0  0  0  0  0  0  0  0
   36.1100   26.3550   39.5820 H   0  0  0  0  0  0  0  0  0  0  0  0
   37.8200   22.6480   41.0220 H   0  0  0  0  0  0  0  0  0  0  0  0
   39.7220   23.0580   43.0880 H   0  0  0  0  0  0  0  0  0  0  0  0
   40.6460   25.2280   44.2930 H   0  0  0  0  0  0  0  0  0  0  0  0
   34.2910   22.2310   38.8160 C   0  0  0  0  0  0  0  0  0  0  0  0
   34.5090   22.3090   37.4500 C   0  0  0  0  0  0  0  0  0  0  0  0
   35.5590   23.1270   37.0060 C   0  0  0  0  0  0  0  0  0  0  0  0
   36.3110   23.8020   37.9240 N   0  0  0  0  0  0  0  0  0  0  0  0
   36.0600   23.6950   39.2560 C   0  0  0  0  0  0  0  0  0  0  0  0
   35.0580   22.9160   39.7040 N   0  0  0  0  0  0  0  0  0  0  0  0
   33.4850   21.6070   39.2010 H   0  0  0  0  0  0  0  0  0  0  0  0
   33.9070   21.7700   36.7420 H   0  0  0  0  0  0  0  0  0  0  0  0
   35.7970   23.2440   35.9640 H   0  0  0  0  0  0  0  0  0  0  0  0
   37.5340   27.9590   41.2600 C   0  0  0  0  0  0  0  0  0  0  0  0
   36.4210   28.6760   41.6930 C   0  0  0  0  0  0  0  0  0  0  0  0
   36.8510   30.0070   41.6130 C   0  0  0  0  0  0  0  0  0  0  0  0
   38.1510   30.0260   41.1560 C   0  0  0  0  0  0  0  0  0  0  0  0
   38.5130   28.7650   40.9600 O   0  0  0  0  0  0  0  0  0  0  0  0
   35.4730   28.2750   42.0050 H   0  0  0  0  0  0  0  0  0  0  0  0
   36.2410   30.8620   41.8750 H   0  0  0  0  0  0  0  0  0  0  0  0
   38.9940   31.1930   40.9220 C   0  0  0  0  0  0  0  0  0  0  0  0
   40.3660   31.0260   40.9030 C   0  0  0  0  0  0  0  0  0  0  0  0
   40.8410   30.0660   41.0550 H   0  0  0  0  0  0  0  0  0  0  0  0
   41.1500   32.1400   40.6810 C   0  0  0  0  0  0  0  0  0  0  0  0
   42.2390   32.1040   40.6490 H   0  0  0  0  0  0  0  0  0  0  0  0
   40.5060   33.3460   40.4930 C   0  0  0  0  0  3  0  0  0  0  0  0
   39.1370   33.5150   40.5110 C   0  0  0  0  0  3  0  0  0  0  0  0
   38.3980   32.3880   40.7340 N   0  0  0  0  0  0  0  0  0  0  0  0
  1  9  1  0  0  0  0
  2  1  2  0  0  0  0
  2  3  1  0  0  0  0
  3  4  2  0  0  0  0
  4  8  1  0  0  0  0
  4  5  1  0  0  0  0
  5 12  1  0  0  0  0
  5  6  1  0  0  0  0
  6 13  1  0  0  0  0
  7  6  2  0  0  0  0
  8  7  1  0  0  0  0
  9 23  1  0  0  0  0
  9  8  2  0  0  0  0
 10  1  1  0  0  0  0
 11  3  1  0  0  0  0
 14 20  1  0  0  0  0
 14 19  1  0  0  0  0
 15 14  2  0  0  0  0
 16 15  1  0  0  0  0
 16 17  2  0  0  0  0
 17 18  1  0  0  0  0
 18 19  2  0  0  0  0
 18  2  1  0  0  0  0
 21 15  1  0  0  0  0
 22 16  1  0  0  0  0
 23 24  2  0  0  0  0
 24 28  1  0  0  0  0
 25 24  1  0  0  0  0
 25 29  1  0  0  0  0
 26 25  2  0  0  0  0
 27 26  1  0  0  0  0
 27 23  1  0  0  0  0
 30 26  1  0  0  0  0
 31 30  1  0  0  0  0
 31 32  1  0  0  0  0
 33 31  2  0  0  0  0
 34 33  1  0  0  0  0
 35 36  2  0  0  0  0
 35 33  1  0  0  0  0
 36 37  1  0  0  0  0
 37 30  2  0  0  0  0
M  END
>  <minimizedAffinity>
-5.69111204

$$$$

 OpenBabel03252506583D

 37 41  0  0  0  0  0  0  0  0999 V2000
   37.8170   30.3380   39.7790 C   0  0  0  0  0  0  0  0  0  0  0  0
   38.5420   31.0450   40.7310 C   0  0  0  0  0  0  0  0  0  0  0  0
   38.5870   30.6770   42.0530 C   0  0  0  0  0  0  0  0  0  0  0  0
   37.8900   29.5550   42.4910 C   0  0  0  0  0  0  0  0  0  0  0  0
   37.7070   28.9130   43.6760 N   0  0  0  0  0  0  0  0  0  0  0  0
   36.8960   27.8440   43.4640 C   0  0  0  0  0  0  0  0  0  0  0  0
   36.5840   27.8380   42.1410 N   0  0  0  0  0  0  0  0  0  0  0  0
   37.1790   28.8720   41.5290 C   0  0  0  0  0  0  0  0  0  0  0  0
   37.1130   29.2110   40.2020 C   0  0  0  0  0  0  0  0  0  0  0  0
   37.7990   30.6520   38.7350 H   0  0  0  0  0  0  0  0  0  0  0  0
   39.1420   31.2060   42.8140 H   0  0  0  0  0  0  0  0  0  0  0  0
   38.1330   29.2190   44.5700 H   0  0  0  0  0  0  0  0  0  0  0  0
   36.5550   27.1210   44.2150 H   0  0  0  0  0  0  0  0  0  0  0  0
   39.6640   34.5310   40.4350 C   0  0  0  0  0  0  0  0  0  0  0  0
   40.7000   34.4540   39.5170 C   0  0  0  0  0  0  0  0  0  0  0  0
   41.0130   33.1890   38.9970 C   0  0  0  0  0  0  0  0  0  0  0  0
   40.2960   32.1030   39.4100 N   0  0  0  0  0  0  0  0  0  0  0  0
   39.2870   32.2270   40.3130 C   0  0  0  0  0  0  0  0  0  0  0  0
   38.9690   33.4310   40.8240 N   0  0  0  0  0  0  0  0  0  0  0  0
   39.3910   35.4960   40.8610 H   0  0  0  0  0  0  0  0  0  0  0  0
   41.2540   35.3190   39.2040 H   0  0  0  0  0  0  0  0  0  0  0  0
   41.8020   33.0390   38.2810 H   0  0  0  0  0  0  0  0  0  0  0  0
   36.3280   28.4190   39.2550 C   0  0  0  0  0  0  0  0  0  0  0  0
   36.6820   27.1440   38.8210 C   0  0  0  0  0  0  0  0  0  0  0  0
   35.6430   26.8080   37.9430 C   0  0  0  0  0  0  0  0  0  0  0  0
   34.7490   27.8550   37.8950 C   0  0  0  0  0  0  0  0  0  0  0  0
   35.2110   28.7990   38.7040 O   0  0  0  0  0  0  0  0  0  0  0  0
   37.5520   26.5800   39.1090 H   0  0  0  0  0  0  0  0  0  0  0  0
   35.5780   25.8700   37.4060 H   0  0  0  0  0  0  0  0  0  0  0  0
   33.5200   27.9390   37.1120 C   0  0  0  0  0  0  0  0  0  0  0  0
   32.8180   29.1290   37.1060 C   0  0  0  0  0  0  0  0  0  0  0  0
   33.1410   30.0020   37.6580 H   0  0  0  0  0  0  0  0  0  0  0  0
   31.6580   29.1930   36.3620 C   0  0  0  0  0  0  0  0  0  0  0  0
   31.0410   30.0890   36.2980 H   0  0  0  0  0  0  0  0  0  0  0  0
   31.2800   28.0590   35.6730 C   0  0  0  0  0  3  0  0  0  0  0  0
   31.9790   26.8690   35.6770 C   0  0  0  0  0  3  0  0  0  0  0  0
   33.1200   26.8490   36.4260 N   0  0  0  0  0  0  0  0  0  0  0  0
  1  9  2  0  0  0  0
  1  2  1  0  0  0  0
  2  3  2  0  0  0  0
  3  4  1  0  0  0  0
  3 11  1  0  0  0  0
  4  5  1  0  0  0  0
  5 12  1  0  0  0  0
  6  5  1  0  0  0  0
  6 13  1  0  0  0  0
  7  6  2  0  0  0  0
  8  7  1  0  0  0  0
  8  4  2  0  0  0  0
  9  8  1  0  0  0  0
 10  1  1  0  0  0  0
 14 19  1  0  0  0  0
 14 20  1  0  0  0  0
 15 14  2  0  0  0  0
 16 17  2  0  0  0  0
 16 15  1  0  0  0  0
 17 18  1  0  0  0  0
 18  2  1  0  0  0  0
 18 19  2  0  0  0  0
 21 15  1  0  0  0  0
 22 16  1  0  0  0  0
 23  9  1  0  0  0  0
 24 28  1  0  0  0  0
 24 23  2  0  0  0  0
 25 24  1  0  0  0  0
 26 25  2  0  0  0  0
 26 27  1  0  0  0  0
 27 23  1  0  0  0  0
 29 25  1  0  0  0  0
 30 26  1  0  0  0  0
 31 30  1  0  0  0  0
 31 32  1  0  0  0  0
 33 31  2  0  0  0  0
 34 33  1  0  0  0  0
 35 36  2  0  0  0  0
 35 33  1  0  0  0  0
 36 37  1  0  0  0  0
 37 30  2  0  0  0  0
M  END
>  <minimizedAffinity>
-5.67882204

$$$$
