
 OpenBabel03252507073D

 23 24  0  0  0  0  0  0  0  0999 V2000
   44.5380   36.0280   44.4700 C   0  0  0  0  0  0  0  0  0  0  0  0
   45.1730   35.9500   43.2200 C   0  0  0  0  0  0  0  0  0  0  0  0
   46.0750   34.8990   43.0200 C   0  0  0  0  0  0  0  0  0  0  0  0
   46.2820   34.0270   44.0370 N   0  0  0  0  0  0  0  0  0  0  0  0
   45.6540   34.1290   45.2320 C   0  0  0  0  0  0  0  0  0  0  0  0
   44.7880   35.1270   45.4390 N   0  0  0  0  0  0  0  0  0  0  0  0
   43.8530   36.8680   44.5520 H   0  0  0  0  0  0  0  0  0  0  0  0
   44.9720   36.6780   42.4370 H   0  0  0  0  0  0  0  0  0  0  0  0
   45.9280   33.1500   46.2790 C   0  0  0  0  0  0  0  0  0  0  0  0
   46.9640   32.2530   46.1310 C   0  0  0  0  0  0  0  0  0  0  0  0
   47.5770   32.2760   45.2280 H   0  0  0  0  0  0  0  0  0  0  0  0
   47.2810   31.3090   47.0630 C   0  0  0  0  0  0  0  0  0  0  0  0
   48.1100   30.6140   46.9100 H   0  0  0  0  0  0  0  0  0  0  0  0
   46.5220   31.2600   48.2070 C   0  0  0  0  0  3  0  0  0  0  0  0
   45.4750   32.1640   48.3630 C   0  0  0  0  0  3  0  0  0  0  0  0
   45.1940   33.0880   47.4070 N   0  0  0  0  0  0  0  0  0  0  0  0
   46.7010   34.8200   41.7920 O   0  0  0  0  0  0  0  0  0  0  0  0
   48.6940   33.2270   41.0960 O   0  0  0  0  0  0  0  0  0  0  0  0
   48.3930   34.5830   41.7140 P   0  0  0  0  0  0  0  0  0  0  0  0
   49.0690   35.8340   40.8410 O   0  0  0  0  0  0  0  0  0  0  0  0
   49.2710   35.5040   39.9170 H   0  0  0  0  0  0  0  0  0  0  0  0
   48.9600   34.5650   43.3240 O   0  0  0  0  0  0  0  0  0  0  0  0
   48.8830   35.5030   43.6370 H   0  0  0  0  0  0  0  0  0  0  0  0
  1  7  1  0  0  0  0
  1  6  1  0  0  0  0
  2  1  2  0  0  0  0
  3  2  1  0  0  0  0
  3  4  2  0  0  0  0
  4  5  1  0  0  0  0
  5  6  2  0  0  0  0
  5  9  1  0  0  0  0
  8  2  1  0  0  0  0
  9 16  1  0  0  0  0
 10  9  2  0  0  0  0
 10 12  1  0  0  0  0
 11 10  1  0  0  0  0
 12 14  2  0  0  0  0
 13 12  1  0  0  0  0
 14 15  1  0  0  0  0
 16 15  2  0  0  0  0
 17  3  1  0  0  0  0
 18 19  2  0  0  0  0
 19 17  1  0  0  0  0
 19 22  1  0  0  0  0
 20 19  1  0  0  0  0
 21 20  1  0  0  0  0
 22 23  1  0  0  0  0
M  END
>  <minimizedAffinity>
-5.75791836

>  <minimizedRMSD>
0.304620355

$$$$
