
 OpenBabel03252507073D

 23 24  0  0  0  0  0  0  0  0999 V2000
   44.5460   35.9420   44.5440 C   0  0  0  0  0  0  0  0  0  0  0  0
   45.1670   35.8950   43.2850 C   0  0  0  0  0  0  0  0  0  0  0  0
   46.0930   34.8700   43.0610 C   0  0  0  0  0  0  0  0  0  0  0  0
   46.3340   33.9900   44.0640 N   0  0  0  0  0  0  0  0  0  0  0  0
   45.7180   34.0610   45.2670 C   0  0  0  0  0  0  0  0  0  0  0  0
   44.8300   35.0350   45.4980 N   0  0  0  0  0  0  0  0  0  0  0  0
   43.8400   36.7630   44.6450 H   0  0  0  0  0  0  0  0  0  0  0  0
   44.9380   36.6280   42.5140 H   0  0  0  0  0  0  0  0  0  0  0  0
   46.0300   33.0760   46.2980 C   0  0  0  0  0  0  0  0  0  0  0  0
   45.2590   33.0050   47.4390 C   0  0  0  0  0  0  0  0  0  0  0  0
   44.4170   33.6880   47.5690 H   0  0  0  0  0  0  0  0  0  0  0  0
   45.4870   32.1140   48.4460 C   0  0  0  0  0  0  0  0  0  0  0  0
   44.8530   32.0880   49.3370 H   0  0  0  0  0  0  0  0  0  0  0  0
   46.5400   31.2460   48.3050 C   0  0  0  0  0  3  0  0  0  0  0  0
   47.3230   31.3120   47.1540 C   0  0  0  0  0  3  0  0  0  0  0  0
   47.0600   32.2180   46.1760 N   0  0  0  0  0  0  0  0  0  0  0  0
   46.7050   34.8220   41.8240 O   0  0  0  0  0  0  0  0  0  0  0  0
   48.6810   33.2120   41.1170 O   0  0  0  0  0  0  0  0  0  0  0  0
   48.3940   34.5780   41.7210 P   0  0  0  0  0  0  0  0  0  0  0  0
   49.0600   35.8150   40.8190 O   0  0  0  0  0  0  0  0  0  0  0  0
   49.2450   35.4720   39.8970 H   0  0  0  0  0  0  0  0  0  0  0  0
   48.9880   34.5800   43.3220 O   0  0  0  0  0  0  0  0  0  0  0  0
   48.9200   35.5230   43.6230 H   0  0  0  0  0  0  0  0  0  0  0  0
  1  7  1  0  0  0  0
  1  6  1  0  0  0  0
  2  1  2  0  0  0  0
  3  2  1  0  0  0  0
  3  4  2  0  0  0  0
  4  5  1  0  0  0  0
  5  6  2  0  0  0  0
  5  9  1  0  0  0  0
  8  2  1  0  0  0  0
  9 10  1  0  0  0  0
 10 11  1  0  0  0  0
 10 12  2  0  0  0  0
 12 13  1  0  0  0  0
 14 12  1  0  0  0  0
 15 14  2  0  0  0  0
 16  9  2  0  0  0  0
 16 15  1  0  0  0  0
 17  3  1  0  0  0  0
 18 19  2  0  0  0  0
 19 17  1  0  0  0  0
 19 22  1  0  0  0  0
 20 19  1  0  0  0  0
 21 20  1  0  0  0  0
 22 23  1  0  0  0  0
M  END
>  <minimizedAffinity>
-5.78052664

>  <minimizedRMSD>
0.28090176

$$$$
