
 OpenBabel03252507073D

 23 24  0  0  0  0  0  0  0  0999 V2000
   44.6410   35.6720   44.7850 C   0  0  0  0  0  0  0  0  0  0  0  0
   45.2280   35.8330   43.5190 C   0  0  0  0  0  0  0  0  0  0  0  0
   46.1700   34.8790   43.1190 C   0  0  0  0  0  0  0  0  0  0  0  0
   46.4580   33.8640   43.9700 N   0  0  0  0  0  0  0  0  0  0  0  0
   45.8750   33.7350   45.1840 C   0  0  0  0  0  0  0  0  0  0  0  0
   44.9730   34.6380   45.5820 N   0  0  0  0  0  0  0  0  0  0  0  0
   43.9210   36.4490   45.0280 H   0  0  0  0  0  0  0  0  0  0  0  0
   44.9610   36.6690   42.8750 H   0  0  0  0  0  0  0  0  0  0  0  0
   46.2370   32.6130   46.0440 C   0  0  0  0  0  0  0  0  0  0  0  0
   46.8880   32.8410   47.2390 C   0  0  0  0  0  0  0  0  0  0  0  0
   47.1310   33.8630   47.5370 H   0  0  0  0  0  0  0  0  0  0  0  0
   47.2580   31.8470   48.0950 C   0  0  0  0  0  0  0  0  0  0  0  0
   47.7730   32.0670   49.0340 H   0  0  0  0  0  0  0  0  0  0  0  0
   46.9620   30.5540   47.7410 C   0  0  0  0  0  3  0  0  0  0  0  0
   46.3040   30.3160   46.5360 C   0  0  0  0  0  3  0  0  0  0  0  0
   45.9540   31.3400   45.7120 N   0  0  0  0  0  0  0  0  0  0  0  0
   46.7480   35.0370   41.8740 O   0  0  0  0  0  0  0  0  0  0  0  0
   48.5600   33.3160   41.0070 O   0  0  0  0  0  0  0  0  0  0  0  0
   48.4070   34.6820   41.6580 P   0  0  0  0  0  0  0  0  0  0  0  0
   49.0980   35.8950   40.7430 O   0  0  0  0  0  0  0  0  0  0  0  0
   49.2010   35.5640   39.8030 H   0  0  0  0  0  0  0  0  0  0  0  0
   49.0980   34.6020   43.2170 O   0  0  0  0  0  0  0  0  0  0  0  0
   49.1140   35.5390   43.5430 H   0  0  0  0  0  0  0  0  0  0  0  0
  1  7  1  0  0  0  0
  1  6  1  0  0  0  0
  2  1  2  0  0  0  0
  3  2  1  0  0  0  0
  3  4  2  0  0  0  0
  4  5  1  0  0  0  0
  5  6  2  0  0  0  0
  5  9  1  0  0  0  0
  8  2  1  0  0  0  0
  9 10  1  0  0  0  0
 10 11  1  0  0  0  0
 10 12  2  0  0  0  0
 12 13  1  0  0  0  0
 14 12  1  0  0  0  0
 15 14  2  0  0  0  0
 16  9  2  0  0  0  0
 16 15  1  0  0  0  0
 17  3  1  0  0  0  0
 18 19  2  0  0  0  0
 19 17  1  0  0  0  0
 19 22  1  0  0  0  0
 20 19  1  0  0  0  0
 21 20  1  0  0  0  0
 22 23  1  0  0  0  0
M  END
>  <minimizedAffinity>
-5.51815367

>  <minimizedRMSD>
0.398842037

$$$$
