
 OpenBabel03242518433D

 18 19  0  0  0  0  0  0  0  0999 V2000
   44.8550   35.0840   44.5280 C   0  0  0  0  0  0  0  0  0  0  0  0
   45.7340   35.0470   43.4170 C   0  0  0  0  0  0  0  0  0  0  0  0
   46.8320   34.1660   43.5070 C   0  0  0  0  0  0  0  0  0  0  0  0
   46.9830   33.4180   44.6280 N   0  0  0  0  0  0  0  0  0  0  0  0
   46.1130   33.4960   45.6540 C   0  0  0  0  0  0  0  0  0  0  0  0
   45.0620   34.3210   45.6000 N   0  0  0  0  0  0  0  0  0  0  0  0
   45.5400   35.6830   42.5530 H   0  0  0  0  0  0  0  0  0  0  0  0
   47.5110   34.1250   42.6710 H   0  0  0  0  0  0  0  0  0  0  0  0
   46.2800   32.6830   46.8680 C   0  0  0  0  0  0  0  0  0  0  0  0
   45.2860   32.6100   47.8330 C   0  0  0  0  0  0  0  0  0  0  0  0
   44.3500   33.1610   47.7070 H   0  0  0  0  0  0  0  0  0  0  0  0
   45.4580   31.8500   48.9560 C   0  0  0  0  0  0  0  0  0  0  0  0
   44.7270   31.7410   49.7560 H   0  0  0  0  0  0  0  0  0  0  0  0
   46.6170   31.1290   49.1740 C   0  0  0  0  0  0  0  0  0  0  0  0
   47.6020   31.2170   48.1920 C   0  0  0  0  0  0  0  0  0  0  0  0
   47.3920   31.9760   47.1040 N   0  0  0  0  0  0  0  0  0  0  0  0
   43.7830   35.9330   44.4590 O   0  0  0  0  0  0  0  0  0  0  0  0
   43.8700   36.9180   44.2490 H   0  0  0  0  0  0  0  0  0  0  0  0
  1  6  1  0  0  0  0
  2  3  1  0  0  0  0
  2  1  2  0  0  0  0
  3  4  2  0  0  0  0
  4  5  1  0  0  0  0
  5  9  1  0  0  0  0
  6  5  2  0  0  0  0
  7  2  1  0  0  0  0
  8  3  1  0  0  0  0
  9 16  2  0  0  0  0
  9 10  1  0  0  0  0
 10 12  2  0  0  0  0
 11 10  1  0  0  0  0
 12 14  1  0  0  0  0
 12 13  1  0  0  0  0
 15 14  2  0  0  0  0
 16 15  1  0  0  0  0
 17  1  1  0  0  0  0
 18 17  1  0  0  0  0
M  END
>  <minimizedAffinity>
-5.09562445

>  <minimizedRMSD>
1.47335804

$$$$
