
 OpenBabel03242519233D

 33 35  0  0  0  0  0  0  0  0999 V2000
   37.3570   27.4360   42.6250 C   0  0  0  0  0  0  0  0  0  0  0  0
   38.3360   27.8110   43.6670 C   0  0  0  0  0  0  0  0  0  0  0  0
   39.6930   27.2020   43.4550 C   0  0  0  0  0  0  0  0  0  0  0  0
   39.6170   25.6870   43.3540 C   0  0  0  0  0  0  0  0  0  0  0  0
   38.4820   25.2030   42.4880 C   0  0  0  0  0  0  0  0  0  0  0  0
   37.8480   26.3290   41.7010 C   0  0  0  0  0  0  0  0  0  0  0  0
   36.4080   27.0420   43.0710 H   0  0  0  0  0  0  0  0  0  0  0  0
   37.9770   27.3990   44.6540 H   0  0  0  0  0  0  0  0  0  0  0  0
   38.4590   28.8870   43.8450 H   0  0  0  0  0  0  0  0  0  0  0  0
   40.3250   27.4220   44.3480 H   0  0  0  0  0  0  0  0  0  0  0  0
   40.2480   27.5420   42.5890 H   0  0  0  0  0  0  0  0  0  0  0  0
   39.5200   25.3160   44.4070 H   0  0  0  0  0  0  0  0  0  0  0  0
   40.5430   25.3100   42.8970 H   0  0  0  0  0  0  0  0  0  0  0  0
   38.7810   24.4420   41.7380 H   0  0  0  0  0  0  0  0  0  0  0  0
   37.6980   24.8020   43.1720 H   0  0  0  0  0  0  0  0  0  0  0  0
   36.9710   25.9280   41.1850 H   0  0  0  0  0  0  0  0  0  0  0  0
   38.5470   26.7090   40.9270 H   0  0  0  0  0  0  0  0  0  0  0  0
   36.9830   28.5740   41.7640 C   0  0  0  0  0  0  0  0  0  0  0  0
   35.7410   28.4670   41.1020 C   0  0  0  0  0  0  0  0  0  0  0  0
   35.3120   29.5050   40.2710 C   0  0  0  0  0  0  0  0  0  0  0  0
   36.1410   30.5840   40.1480 N   0  0  0  0  0  0  0  0  0  0  0  0
   37.3340   30.6630   40.7980 C   0  0  0  0  0  0  0  0  0  0  0  0
   37.7410   29.6680   41.5920 N   0  0  0  0  0  0  0  0  0  0  0  0
   35.0450   27.6710   41.1430 H   0  0  0  0  0  0  0  0  0  0  0  0
   34.3760   29.4930   39.7330 H   0  0  0  0  0  0  0  0  0  0  0  0
   38.1570   31.8550   40.6090 C   0  0  0  0  0  0  0  0  0  0  0  0
   37.5620   33.0260   40.1890 C   0  0  0  0  0  0  0  0  0  0  0  0
   36.4950   33.0370   40.0090 H   0  0  0  0  0  0  0  0  0  0  0  0
   38.3240   34.1610   40.0060 C   0  0  0  0  0  0  0  0  0  0  0  0
   37.8310   35.0750   39.6740 H   0  0  0  0  0  0  0  0  0  0  0  0
   39.6990   34.0850   40.2550 C   0  0  0  0  0  3  0  0  0  0  0  0
   40.2660   32.8790   40.6780 C   0  0  0  0  0  3  0  0  0  0  0  0
   39.4800   31.8000   40.8440 N   0  0  0  0  0  0  0  0  0  0  0  0
  1  7  1  0  0  0  0
  1  2  1  0  0  0  0
  2  9  1  0  0  0  0
  2  8  1  0  0  0  0
  3  2  1  0  0  0  0
  3 10  1  0  0  0  0
  4  3  1  0  0  0  0
  4 12  1  0  0  0  0
  5 15  1  0  0  0  0
  5  4  1  0  0  0  0
  6  5  1  0  0  0  0
  6  1  1  0  0  0  0
 11  3  1  0  0  0  0
 13  4  1  0  0  0  0
 14  5  1  0  0  0  0
 16  6  1  0  0  0  0
 17  6  1  0  0  0  0
 18  1  1  0  0  0  0
 19 24  1  0  0  0  0
 19 18  2  0  0  0  0
 20 19  1  0  0  0  0
 21 20  2  0  0  0  0
 21 22  1  0  0  0  0
 22 23  2  0  0  0  0
 23 18  1  0  0  0  0
 25 20  1  0  0  0  0
 26 22  1  0  0  0  0
 26 33  1  0  0  0  0
 27 26  2  0  0  0  0
 28 27  1  0  0  0  0
 29 27  1  0  0  0  0
 29 31  2  0  0  0  0
 30 29  1  0  0  0  0
 31 32  1  0  0  0  0
 32 33  2  0  0  0  0
M  END
>  <minimizedAffinity>
-5.54478216

$$$$

 OpenBabel03242519233D

 33 35  0  0  0  0  0  0  0  0999 V2000
   36.8630   26.9630   41.4180 C   0  0  0  0  0  0  0  0  0  0  0  0
   36.9200   25.9410   42.4830 C   0  0  0  0  0  0  0  0  0  0  0  0
   37.5230   24.6430   42.0300 C   0  0  0  0  0  0  0  0  0  0  0  0
   36.7910   24.0760   40.8240 C   0  0  0  0  0  0  0  0  0  0  0  0
   36.4770   25.1120   39.7760 C   0  0  0  0  0  0  0  0  0  0  0  0
   37.1970   26.4180   40.0340 C   0  0  0  0  0  0  0  0  0  0  0  0
   35.8370   27.4010   41.3170 H   0  0  0  0  0  0  0  0  0  0  0  0
   35.8630   25.6880   42.7860 H   0  0  0  0  0  0  0  0  0  0  0  0
   37.4090   26.2480   43.4170 H   0  0  0  0  0  0  0  0  0  0  0  0
   37.4040   23.8910   42.8470 H   0  0  0  0  0  0  0  0  0  0  0  0
   38.5760   24.6590   41.7730 H   0  0  0  0  0  0  0  0  0  0  0  0
   35.8600   23.6010   41.2280 H   0  0  0  0  0  0  0  0  0  0  0  0
   37.4280   23.3220   40.3390 H   0  0  0  0  0  0  0  0  0  0  0  0
   36.7590   24.8110   38.7460 H   0  0  0  0  0  0  0  0  0  0  0  0
   35.3840   25.3230   39.8430 H   0  0  0  0  0  0  0  0  0  0  0  0
   36.8390   27.1500   39.3050 H   0  0  0  0  0  0  0  0  0  0  0  0
   38.2900   26.3000   39.8830 H   0  0  0  0  0  0  0  0  0  0  0  0
   37.7850   28.0890   41.6630 C   0  0  0  0  0  0  0  0  0  0  0  0
   38.8960   27.8100   42.4880 C   0  0  0  0  0  0  0  0  0  0  0  0
   39.8180   28.8230   42.7650 C   0  0  0  0  0  0  0  0  0  0  0  0
   39.5810   30.0470   42.2080 N   0  0  0  0  0  0  0  0  0  0  0  0
   38.5020   30.2900   41.4160 C   0  0  0  0  0  0  0  0  0  0  0  0
   37.6220   29.3190   41.1530 N   0  0  0  0  0  0  0  0  0  0  0  0
   39.1500   26.8960   42.9550 H   0  0  0  0  0  0  0  0  0  0  0  0
   40.6910   28.6840   43.3860 H   0  0  0  0  0  0  0  0  0  0  0  0
   38.3270   31.6300   40.8620 C   0  0  0  0  0  0  0  0  0  0  0  0
   37.2950   31.8650   39.9780 C   0  0  0  0  0  0  0  0  0  0  0  0
   36.6350   31.0490   39.7130 H   0  0  0  0  0  0  0  0  0  0  0  0
   37.1140   33.1250   39.4450 C   0  0  0  0  0  0  0  0  0  0  0  0
   36.2910   33.2850   38.7490 H   0  0  0  0  0  0  0  0  0  0  0  0
   38.0000   34.1390   39.8250 C   0  0  0  0  0  3  0  0  0  0  0  0
   39.0350   33.8620   40.7230 C   0  0  0  0  0  3  0  0  0  0  0  0
   39.1690   32.6180   41.2160 N   0  0  0  0  0  0  0  0  0  0  0  0
  1 18  1  0  0  0  0
  1  2  1  0  0  0  0
  2  8  1  0  0  0  0
  2  9  1  0  0  0  0
  3  2  1  0  0  0  0
  3 10  1  0  0  0  0
  4 12  1  0  0  0  0
  4  3  1  0  0  0  0
  5 15  1  0  0  0  0
  5  6  1  0  0  0  0
  5  4  1  0  0  0  0
  6  1  1  0  0  0  0
  7  1  1  0  0  0  0
 11  3  1  0  0  0  0
 13  4  1  0  0  0  0
 14  5  1  0  0  0  0
 16  6  1  0  0  0  0
 17  6  1  0  0  0  0
 18 19  1  0  0  0  0
 19 20  2  0  0  0  0
 19 24  1  0  0  0  0
 20 25  1  0  0  0  0
 21 20  1  0  0  0  0
 22 21  2  0  0  0  0
 23 22  1  0  0  0  0
 23 18  2  0  0  0  0
 26 33  1  0  0  0  0
 26 22  1  0  0  0  0
 27 26  2  0  0  0  0
 28 27  1  0  0  0  0
 29 31  2  0  0  0  0
 29 27  1  0  0  0  0
 30 29  1  0  0  0  0
 31 32  1  0  0  0  0
 32 33  2  0  0  0  0
M  END
>  <minimizedAffinity>
-5.34463549

$$$$

 OpenBabel03242519233D

 33 35  0  0  0  0  0  0  0  0999 V2000
   36.9220   25.2970   41.7550 C   0  0  0  0  0  0  0  0  0  0  0  0
   37.9970   24.4520   42.3160 C   0  0  0  0  0  0  0  0  0  0  0  0
   38.8180   23.7600   41.2670 C   0  0  0  0  0  0  0  0  0  0  0  0
   37.9510   22.9240   40.3390 C   0  0  0  0  0  0  0  0  0  0  0  0
   36.6940   23.6300   39.9000 C   0  0  0  0  0  0  0  0  0  0  0  0
   36.7140   25.1000   40.2590 C   0  0  0  0  0  0  0  0  0  0  0  0
   35.9280   25.0650   42.2180 H   0  0  0  0  0  0  0  0  0  0  0  0
   37.5190   23.6230   42.9140 H   0  0  0  0  0  0  0  0  0  0  0  0
   38.6760   24.9470   43.0220 H   0  0  0  0  0  0  0  0  0  0  0  0
   39.5100   23.0450   41.7720 H   0  0  0  0  0  0  0  0  0  0  0  0
   39.4300   24.3910   40.6330 H   0  0  0  0  0  0  0  0  0  0  0  0
   37.7210   21.9830   40.9020 H   0  0  0  0  0  0  0  0  0  0  0  0
   38.5190   22.6960   39.4250 H   0  0  0  0  0  0  0  0  0  0  0  0
   36.5130   23.5890   38.8060 H   0  0  0  0  0  0  0  0  0  0  0  0
   35.8480   23.1690   40.4610 H   0  0  0  0  0  0  0  0  0  0  0  0
   35.7350   25.5200   40.0110 H   0  0  0  0  0  0  0  0  0  0  0  0
   37.4730   25.6410   39.6560 H   0  0  0  0  0  0  0  0  0  0  0  0
   37.1650   26.7370   41.9650 C   0  0  0  0  0  0  0  0  0  0  0  0
   37.3980   27.1370   43.2980 C   0  0  0  0  0  0  0  0  0  0  0  0
   37.6410   28.4840   43.5790 C   0  0  0  0  0  0  0  0  0  0  0  0
   37.6370   29.3490   42.5220 N   0  0  0  0  0  0  0  0  0  0  0  0
   37.4100   28.9370   41.2460 C   0  0  0  0  0  0  0  0  0  0  0  0
   37.1780   27.6480   40.9800 N   0  0  0  0  0  0  0  0  0  0  0  0
   37.4170   26.5350   44.1670 H   0  0  0  0  0  0  0  0  0  0  0  0
   37.8270   28.8640   44.5730 H   0  0  0  0  0  0  0  0  0  0  0  0
   37.4250   29.9310   40.1750 C   0  0  0  0  0  0  0  0  0  0  0  0
   37.0430   31.2270   40.4530 C   0  0  0  0  0  0  0  0  0  0  0  0
   36.7400   31.4800   41.4610 H   0  0  0  0  0  0  0  0  0  0  0  0
   37.0510   32.1790   39.4540 C   0  0  0  0  0  0  0  0  0  0  0  0
   36.7450   33.1960   39.6990 H   0  0  0  0  0  0  0  0  0  0  0  0
   37.4520   31.7910   38.1710 C   0  0  0  0  0  3  0  0  0  0  0  0
   37.8320   30.4670   37.9280 C   0  0  0  0  0  3  0  0  0  0  0  0
   37.8080   29.5760   38.9360 N   0  0  0  0  0  0  0  0  0  0  0  0
  1 18  1  0  0  0  0
  1  7  1  0  0  0  0
  1  2  1  0  0  0  0
  2  8  1  0  0  0  0
  2  9  1  0  0  0  0
  3 10  1  0  0  0  0
  3  2  1  0  0  0  0
  4 12  1  0  0  0  0
  4  3  1  0  0  0  0
  5  6  1  0  0  0  0
  5  4  1  0  0  0  0
  5 15  1  0  0  0  0
  6  1  1  0  0  0  0
 11  3  1  0  0  0  0
 13  4  1  0  0  0  0
 14  5  1  0  0  0  0
 16  6  1  0  0  0  0
 17  6  1  0  0  0  0
 18 19  1  0  0  0  0
 19 20  2  0  0  0  0
 19 24  1  0  0  0  0
 20 25  1  0  0  0  0
 21 20  1  0  0  0  0
 22 21  2  0  0  0  0
 23 22  1  0  0  0  0
 23 18  2  0  0  0  0
 26 27  1  0  0  0  0
 26 22  1  0  0  0  0
 27 28  1  0  0  0  0
 29 30  1  0  0  0  0
 29 27  2  0  0  0  0
 31 29  1  0  0  0  0
 32 31  2  0  0  0  0
 32 33  1  0  0  0  0
 33 26  2  0  0  0  0
M  END
>  <minimizedAffinity>
-5.31686306

$$$$

 OpenBabel03242519233D

 33 35  0  0  0  0  0  0  0  0999 V2000
   37.0760   25.8080   40.7320 C   0  0  0  0  0  0  0  0  0  0  0  0
   36.9410   24.6310   41.6150 C   0  0  0  0  0  0  0  0  0  0  0  0
   38.1250   23.7090   41.5630 C   0  0  0  0  0  0  0  0  0  0  0  0
   38.4120   23.2460   40.1440 C   0  0  0  0  0  0  0  0  0  0  0  0
   38.3360   24.3550   39.1270 C   0  0  0  0  0  0  0  0  0  0  0  0
   38.2620   25.7190   39.7790 C   0  0  0  0  0  0  0  0  0  0  0  0
   36.1820   25.9340   40.0690 H   0  0  0  0  0  0  0  0  0  0  0  0
   36.0690   24.0150   41.2510 H   0  0  0  0  0  0  0  0  0  0  0  0
   36.7100   24.8450   42.6670 H   0  0  0  0  0  0  0  0  0  0  0  0
   37.8860   22.7890   42.1470 H   0  0  0  0  0  0  0  0  0  0  0  0
   39.0590   24.0940   41.9570 H   0  0  0  0  0  0  0  0  0  0  0  0
   37.6660   22.4380   39.9310 H   0  0  0  0  0  0  0  0  0  0  0  0
   39.4360   22.8460   40.0960 H   0  0  0  0  0  0  0  0  0  0  0  0
   39.2060   24.3970   38.4400 H   0  0  0  0  0  0  0  0  0  0  0  0
   37.3870   24.2130   38.5600 H   0  0  0  0  0  0  0  0  0  0  0  0
   38.0990   26.4600   38.9920 H   0  0  0  0  0  0  0  0  0  0  0  0
   39.2210   25.9670   40.2800 H   0  0  0  0  0  0  0  0  0  0  0  0
   37.2300   27.0670   41.4850 C   0  0  0  0  0  0  0  0  0  0  0  0
   37.1910   26.9550   42.8920 C   0  0  0  0  0  0  0  0  0  0  0  0
   37.3340   28.1010   43.6780 C   0  0  0  0  0  0  0  0  0  0  0  0
   37.5070   29.2860   43.0200 N   0  0  0  0  0  0  0  0  0  0  0  0
   37.5420   29.3670   41.6630 C   0  0  0  0  0  0  0  0  0  0  0  0
   37.4050   28.2680   40.9140 N   0  0  0  0  0  0  0  0  0  0  0  0
   37.0620   26.0820   43.4740 H   0  0  0  0  0  0  0  0  0  0  0  0
   37.3150   28.0930   44.7570 H   0  0  0  0  0  0  0  0  0  0  0  0
   37.7310   30.6760   41.0430 C   0  0  0  0  0  0  0  0  0  0  0  0
   36.7940   31.1390   40.1430 C   0  0  0  0  0  0  0  0  0  0  0  0
   35.9350   30.5200   39.9160 H   0  0  0  0  0  0  0  0  0  0  0  0
   36.9560   32.3730   39.5490 C   0  0  0  0  0  0  0  0  0  0  0  0
   36.2020   32.7170   38.8410 H   0  0  0  0  0  0  0  0  0  0  0  0
   38.0870   33.1270   39.8840 C   0  0  0  0  0  3  0  0  0  0  0  0
   39.0150   32.6240   40.8000 C   0  0  0  0  0  3  0  0  0  0  0  0
   38.8110   31.4150   41.3530 N   0  0  0  0  0  0  0  0  0  0  0  0
  1 18  1  0  0  0  0
  1  2  1  0  0  0  0
  2  9  1  0  0  0  0
  3  2  1  0  0  0  0
  3 11  1  0  0  0  0
  3 10  1  0  0  0  0
  4  3  1  0  0  0  0
  5  6  1  0  0  0  0
  5  4  1  0  0  0  0
  6 17  1  0  0  0  0
  6  1  1  0  0  0  0
  7  1  1  0  0  0  0
  8  2  1  0  0  0  0
 12  4  1  0  0  0  0
 13  4  1  0  0  0  0
 14  5  1  0  0  0  0
 15  5  1  0  0  0  0
 16  6  1  0  0  0  0
 18 19  1  0  0  0  0
 19 24  1  0  0  0  0
 19 20  2  0  0  0  0
 20 25  1  0  0  0  0
 21 20  1  0  0  0  0
 22 21  2  0  0  0  0
 23 18  2  0  0  0  0
 23 22  1  0  0  0  0
 26 33  1  0  0  0  0
 26 22  1  0  0  0  0
 27 26  2  0  0  0  0
 28 27  1  0  0  0  0
 29 31  2  0  0  0  0
 29 27  1  0  0  0  0
 30 29  1  0  0  0  0
 31 32  1  0  0  0  0
 32 33  2  0  0  0  0
M  END
>  <minimizedAffinity>
-5.28396034

$$$$

 OpenBabel03242519233D

 33 35  0  0  0  0  0  0  0  0999 V2000
   37.2220   27.0940   42.4560 C   0  0  0  0  0  0  0  0  0  0  0  0
   38.0310   27.5090   43.6210 C   0  0  0  0  0  0  0  0  0  0  0  0
   39.4640   27.0660   43.5390 C   0  0  0  0  0  0  0  0  0  0  0  0
   39.5750   25.5610   43.3560 C   0  0  0  0  0  0  0  0  0  0  0  0
   38.6060   25.0090   42.3430 C   0  0  0  0  0  0  0  0  0  0  0  0
   37.9360   26.1060   41.5420 C   0  0  0  0  0  0  0  0  0  0  0  0
   36.2820   26.5720   42.7690 H   0  0  0  0  0  0  0  0  0  0  0  0
   37.6160   27.0010   44.5390 H   0  0  0  0  0  0  0  0  0  0  0  0
   38.0090   28.5790   43.8640 H   0  0  0  0  0  0  0  0  0  0  0  0
   39.9650   27.2990   44.5090 H   0  0  0  0  0  0  0  0  0  0  0  0
   40.0680   27.5170   42.7600 H   0  0  0  0  0  0  0  0  0  0  0  0
   39.4070   25.1180   44.3720 H   0  0  0  0  0  0  0  0  0  0  0  0
   40.5830   25.3160   42.9920 H   0  0  0  0  0  0  0  0  0  0  0  0
   39.0710   24.3330   41.5970 H   0  0  0  0  0  0  0  0  0  0  0  0
   37.8030   24.4840   42.9110 H   0  0  0  0  0  0  0  0  0  0  0  0
   37.1740   25.6430   40.9100 H   0  0  0  0  0  0  0  0  0  0  0  0
   38.6670   26.6070   40.8740 H   0  0  0  0  0  0  0  0  0  0  0  0
   36.8160   28.2350   41.6140 C   0  0  0  0  0  0  0  0  0  0  0  0
   37.0940   29.5180   42.1330 C   0  0  0  0  0  0  0  0  0  0  0  0
   36.7450   30.6500   41.3930 C   0  0  0  0  0  0  0  0  0  0  0  0
   36.1410   30.4400   40.1860 N   0  0  0  0  0  0  0  0  0  0  0  0
   35.8850   29.1920   39.7080 C   0  0  0  0  0  0  0  0  0  0  0  0
   36.2210   28.1110   40.4180 N   0  0  0  0  0  0  0  0  0  0  0  0
   37.5550   29.7650   43.0520 H   0  0  0  0  0  0  0  0  0  0  0  0
   36.9250   31.6610   41.7250 H   0  0  0  0  0  0  0  0  0  0  0  0
   35.2350   29.0610   38.4050 C   0  0  0  0  0  0  0  0  0  0  0  0
   33.8770   28.8290   38.3490 C   0  0  0  0  0  0  0  0  0  0  0  0
   33.3200   28.7510   39.2740 H   0  0  0  0  0  0  0  0  0  0  0  0
   33.2480   28.7030   37.1280 C   0  0  0  0  0  0  0  0  0  0  0  0
   32.1730   28.5210   37.1090 H   0  0  0  0  0  0  0  0  0  0  0  0
   34.0220   28.8140   35.9680 C   0  0  0  0  0  3  0  0  0  0  0  0
   35.3970   29.0480   36.0650 C   0  0  0  0  0  3  0  0  0  0  0  0
   35.9640   29.1650   37.2790 N   0  0  0  0  0  0  0  0  0  0  0  0
  1  7  1  0  0  0  0
  1  2  1  0  0  0  0
  2  9  1  0  0  0  0
  2  8  1  0  0  0  0
  3  2  1  0  0  0  0
  3 10  1  0  0  0  0
  4  3  1  0  0  0  0
  4 12  1  0  0  0  0
  5 15  1  0  0  0  0
  5  4  1  0  0  0  0
  6  5  1  0  0  0  0
  6  1  1  0  0  0  0
 11  3  1  0  0  0  0
 13  4  1  0  0  0  0
 14  5  1  0  0  0  0
 16  6  1  0  0  0  0
 17  6  1  0  0  0  0
 18 19  1  0  0  0  0
 18  1  1  0  0  0  0
 19 24  1  0  0  0  0
 20 25  1  0  0  0  0
 20 19  2  0  0  0  0
 21 20  1  0  0  0  0
 22 21  2  0  0  0  0
 22 23  1  0  0  0  0
 23 18  2  0  0  0  0
 26 22  1  0  0  0  0
 27 26  1  0  0  0  0
 27 28  1  0  0  0  0
 29 27  2  0  0  0  0
 30 29  1  0  0  0  0
 31 32  2  0  0  0  0
 31 29  1  0  0  0  0
 32 33  1  0  0  0  0
 33 26  2  0  0  0  0
M  END
>  <minimizedAffinity>
-5.16835785

$$$$

 OpenBabel03242519233D

 33 35  0  0  0  0  0  0  0  0999 V2000
   37.1980   29.6280   42.1510 C   0  0  0  0  0  0  0  0  0  0  0  0
   38.5480   29.6890   42.7490 C   0  0  0  0  0  0  0  0  0  0  0  0
   39.2260   28.3510   42.8260 C   0  0  0  0  0  0  0  0  0  0  0  0
   38.3820   27.3390   43.5840 C   0  0  0  0  0  0  0  0  0  0  0  0
   36.9240   27.3720   43.2030 C   0  0  0  0  0  0  0  0  0  0  0  0
   36.6800   28.2070   41.9650 C   0  0  0  0  0  0  0  0  0  0  0  0
   36.4350   30.1320   42.7980 H   0  0  0  0  0  0  0  0  0  0  0  0
   38.4450   30.0310   43.8190 H   0  0  0  0  0  0  0  0  0  0  0  0
   39.2420   30.4070   42.2930 H   0  0  0  0  0  0  0  0  0  0  0  0
   40.1710   28.4640   43.4070 H   0  0  0  0  0  0  0  0  0  0  0  0
   39.4920   27.8860   41.8840 H   0  0  0  0  0  0  0  0  0  0  0  0
   38.5300   27.5720   44.6700 H   0  0  0  0  0  0  0  0  0  0  0  0
   38.7430   26.3260   43.3560 H   0  0  0  0  0  0  0  0  0  0  0  0
   36.4930   26.3740   42.9820 H   0  0  0  0  0  0  0  0  0  0  0  0
   36.3780   27.8640   44.0420 H   0  0  0  0  0  0  0  0  0  0  0  0
   35.5990   28.2760   41.8130 H   0  0  0  0  0  0  0  0  0  0  0  0
   37.1140   27.7170   41.0690 H   0  0  0  0  0  0  0  0  0  0  0  0
   37.1340   30.2800   40.8290 C   0  0  0  0  0  0  0  0  0  0  0  0
   37.6800   31.5800   40.7530 C   0  0  0  0  0  0  0  0  0  0  0  0
   37.6620   32.2630   39.5350 C   0  0  0  0  0  0  0  0  0  0  0  0
   37.1040   31.6170   38.4690 N   0  0  0  0  0  0  0  0  0  0  0  0
   36.5840   30.3630   38.5690 C   0  0  0  0  0  0  0  0  0  0  0  0
   36.6030   29.7120   39.7360 N   0  0  0  0  0  0  0  0  0  0  0  0
   38.1280   32.1460   41.5260 H   0  0  0  0  0  0  0  0  0  0  0  0
   38.0600   33.2580   39.4010 H   0  0  0  0  0  0  0  0  0  0  0  0
   36.0070   29.7470   37.3770 C   0  0  0  0  0  0  0  0  0  0  0  0
   34.8330   29.0310   37.4880 C   0  0  0  0  0  0  0  0  0  0  0  0
   34.3640   28.9420   38.4600 H   0  0  0  0  0  0  0  0  0  0  0  0
   34.2740   28.4430   36.3730 C   0  0  0  0  0  0  0  0  0  0  0  0
   33.3460   27.8820   36.4870 H   0  0  0  0  0  0  0  0  0  0  0  0
   34.9280   28.5940   35.1450 C   0  0  0  0  0  3  0  0  0  0  0  0
   36.1160   29.3260   35.0720 C   0  0  0  0  0  3  0  0  0  0  0  0
   36.6210   29.8820   36.1880 N   0  0  0  0  0  0  0  0  0  0  0  0
  1  2  1  0  0  0  0
  1  7  1  0  0  0  0
  2  3  1  0  0  0  0
  2  8  1  0  0  0  0
  3 10  1  0  0  0  0
  3  4  1  0  0  0  0
  4 12  1  0  0  0  0
  5  4  1  0  0  0  0
  5 15  1  0  0  0  0
  6  1  1  0  0  0  0
  6  5  1  0  0  0  0
  9  2  1  0  0  0  0
 11  3  1  0  0  0  0
 13  4  1  0  0  0  0
 14  5  1  0  0  0  0
 16  6  1  0  0  0  0
 17  6  1  0  0  0  0
 18  1  1  0  0  0  0
 19 18  1  0  0  0  0
 19 24  1  0  0  0  0
 20 19  2  0  0  0  0
 21 22  2  0  0  0  0
 21 20  1  0  0  0  0
 22 23  1  0  0  0  0
 23 18  2  0  0  0  0
 25 20  1  0  0  0  0
 26 27  1  0  0  0  0
 26 22  1  0  0  0  0
 27 28  1  0  0  0  0
 29 30  1  0  0  0  0
 29 27  2  0  0  0  0
 31 29  1  0  0  0  0
 32 31  2  0  0  0  0
 32 33  1  0  0  0  0
 33 26  2  0  0  0  0
M  END
>  <minimizedAffinity>
-5.10543299

$$$$

 OpenBabel03242519233D

 33 35  0  0  0  0  0  0  0  0999 V2000
   37.7790   27.0820   40.9450 C   0  0  0  0  0  0  0  0  0  0  0  0
   37.6470   26.2460   39.7340 C   0  0  0  0  0  0  0  0  0  0  0  0
   36.5720   25.2030   39.8450 C   0  0  0  0  0  0  0  0  0  0  0  0
   36.7830   24.3090   41.0570 C   0  0  0  0  0  0  0  0  0  0  0  0
   37.1600   25.0700   42.3020 C   0  0  0  0  0  0  0  0  0  0  0  0
   36.9770   26.5630   42.1320 C   0  0  0  0  0  0  0  0  0  0  0  0
   38.8380   27.1240   41.3070 H   0  0  0  0  0  0  0  0  0  0  0  0
   38.6070   25.6690   39.5970 H   0  0  0  0  0  0  0  0  0  0  0  0
   37.5130   26.7880   38.7890 H   0  0  0  0  0  0  0  0  0  0  0  0
   36.6310   24.5350   38.9530 H   0  0  0  0  0  0  0  0  0  0  0  0
   35.5510   25.5610   39.9000 H   0  0  0  0  0  0  0  0  0  0  0  0
   37.5800   23.5790   40.7620 H   0  0  0  0  0  0  0  0  0  0  0  0
   35.8440   23.7830   41.2830 H   0  0  0  0  0  0  0  0  0  0  0  0
   36.5660   24.7940   43.1960 H   0  0  0  0  0  0  0  0  0  0  0  0
   38.2470   24.8930   42.4760 H   0  0  0  0  0  0  0  0  0  0  0  0
   37.3700   27.0540   43.0260 H   0  0  0  0  0  0  0  0  0  0  0  0
   35.9000   26.8200   42.0540 H   0  0  0  0  0  0  0  0  0  0  0  0
   37.3500   28.4760   40.7200 C   0  0  0  0  0  0  0  0  0  0  0  0
   35.9580   28.7080   40.7570 C   0  0  0  0  0  0  0  0  0  0  0  0
   35.4720   30.0030   40.5580 C   0  0  0  0  0  0  0  0  0  0  0  0
   36.3940   30.9850   40.3340 N   0  0  0  0  0  0  0  0  0  0  0  0
   37.7310   30.7340   40.3040 C   0  0  0  0  0  0  0  0  0  0  0  0
   38.1940   29.4950   40.4950 N   0  0  0  0  0  0  0  0  0  0  0  0
   35.1830   28.0080   40.9230 H   0  0  0  0  0  0  0  0  0  0  0  0
   34.4220   30.2570   40.5720 H   0  0  0  0  0  0  0  0  0  0  0  0
   38.6470   31.8450   40.0580 C   0  0  0  0  0  0  0  0  0  0  0  0
   38.3680   33.0820   40.6000 C   0  0  0  0  0  0  0  0  0  0  0  0
   37.4740   33.2030   41.1990 H   0  0  0  0  0  0  0  0  0  0  0  0
   39.2220   34.1430   40.3790 C   0  0  0  0  0  0  0  0  0  0  0  0
   38.9800   35.1100   40.8180 H   0  0  0  0  0  0  0  0  0  0  0  0
   40.3620   33.9240   39.5970 C   0  0  0  0  0  3  0  0  0  0  0  0
   40.6100   32.6570   39.0630 C   0  0  0  0  0  3  0  0  0  0  0  0
   39.7480   31.6540   39.3090 N   0  0  0  0  0  0  0  0  0  0  0  0
  1  7  1  0  0  0  0
  1  6  1  0  0  0  0
  2  3  1  0  0  0  0
  2  1  1  0  0  0  0
  3 11  1  0  0  0  0
  3  4  1  0  0  0  0
  4 13  1  0  0  0  0
  4  5  1  0  0  0  0
  5 15  1  0  0  0  0
  5 14  1  0  0  0  0
  6  5  1  0  0  0  0
  6 16  1  0  0  0  0
  8  2  1  0  0  0  0
  9  2  1  0  0  0  0
 10  3  1  0  0  0  0
 12  4  1  0  0  0  0
 17  6  1  0  0  0  0
 18 19  1  0  0  0  0
 18  1  1  0  0  0  0
 19 24  1  0  0  0  0
 20 25  1  0  0  0  0
 20 19  2  0  0  0  0
 21 20  1  0  0  0  0
 22 21  2  0  0  0  0
 22 23  1  0  0  0  0
 23 18  2  0  0  0  0
 26 22  1  0  0  0  0
 26 27  1  0  0  0  0
 27 28  1  0  0  0  0
 29 27  2  0  0  0  0
 29 30  1  0  0  0  0
 31 29  1  0  0  0  0
 32 33  1  0  0  0  0
 32 31  2  0  0  0  0
 33 26  2  0  0  0  0
M  END
>  <minimizedAffinity>
-4.90609884

$$$$

 OpenBabel03242519233D

 33 35  0  0  0  0  0  0  0  0999 V2000
   35.0390   27.9670   38.2480 C   0  0  0  0  0  0  0  0  0  0  0  0
   35.9120   27.9670   37.0560 C   0  0  0  0  0  0  0  0  0  0  0  0
   35.5870   29.0620   36.0810 C   0  0  0  0  0  0  0  0  0  0  0  0
   34.1320   29.0080   35.6430 C   0  0  0  0  0  0  0  0  0  0  0  0
   33.1740   28.7690   36.7810 C   0  0  0  0  0  0  0  0  0  0  0  0
   33.8480   28.9100   38.1290 C   0  0  0  0  0  0  0  0  0  0  0  0
   34.5910   26.9570   38.4340 H   0  0  0  0  0  0  0  0  0  0  0  0
   35.7380   27.0060   36.4910 H   0  0  0  0  0  0  0  0  0  0  0  0
   36.9920   27.9820   37.2520 H   0  0  0  0  0  0  0  0  0  0  0  0
   36.1950   28.9090   35.1580 H   0  0  0  0  0  0  0  0  0  0  0  0
   35.7720   30.0780   36.4110 H   0  0  0  0  0  0  0  0  0  0  0  0
   34.0750   28.1930   34.8770 H   0  0  0  0  0  0  0  0  0  0  0  0
   33.8540   29.9750   35.1970 H   0  0  0  0  0  0  0  0  0  0  0  0
   32.3130   29.4690   36.8010 H   0  0  0  0  0  0  0  0  0  0  0  0
   32.8270   27.7130   36.6990 H   0  0  0  0  0  0  0  0  0  0  0  0
   33.1270   28.6170   38.8980 H   0  0  0  0  0  0  0  0  0  0  0  0
   34.1300   29.9660   38.3180 H   0  0  0  0  0  0  0  0  0  0  0  0
   35.7600   28.3460   39.4780 C   0  0  0  0  0  0  0  0  0  0  0  0
   35.5500   29.6650   39.9360 C   0  0  0  0  0  0  0  0  0  0  0  0
   36.1940   30.1000   41.0970 C   0  0  0  0  0  0  0  0  0  0  0  0
   37.0040   29.2020   41.7310 N   0  0  0  0  0  0  0  0  0  0  0  0
   37.1890   27.9360   41.2690 C   0  0  0  0  0  0  0  0  0  0  0  0
   36.5720   27.5220   40.1580 N   0  0  0  0  0  0  0  0  0  0  0  0
   34.9430   30.4170   39.5070 H   0  0  0  0  0  0  0  0  0  0  0  0
   36.0820   31.0930   41.5070 H   0  0  0  0  0  0  0  0  0  0  0  0
   38.0740   27.0410   42.0110 C   0  0  0  0  0  0  0  0  0  0  0  0
   38.9150   27.5660   42.9700 C   0  0  0  0  0  0  0  0  0  0  0  0
   38.8990   28.6330   43.1530 H   0  0  0  0  0  0  0  0  0  0  0  0
   39.7570   26.7360   43.6800 C   0  0  0  0  0  0  0  0  0  0  0  0
   40.4120   27.1750   44.4330 H   0  0  0  0  0  0  0  0  0  0  0  0
   39.7310   25.3660   43.3980 C   0  0  0  0  0  3  0  0  0  0  0  0
   38.8660   24.8710   42.4170 C   0  0  0  0  0  3  0  0  0  0  0  0
   38.0630   25.7210   41.7530 N   0  0  0  0  0  0  0  0  0  0  0  0
  1  7  1  0  0  0  0
  1 18  1  0  0  0  0
  2  9  1  0  0  0  0
  2  1  1  0  0  0  0
  3 11  1  0  0  0  0
  3  2  1  0  0  0  0
  4  3  1  0  0  0  0
  4  5  1  0  0  0  0
  5 14  1  0  0  0  0
  5  6  1  0  0  0  0
  6  1  1  0  0  0  0
  6 17  1  0  0  0  0
  6 16  1  0  0  0  0
  8  2  1  0  0  0  0
 10  3  1  0  0  0  0
 12  4  1  0  0  0  0
 13  4  1  0  0  0  0
 15  5  1  0  0  0  0
 18 19  2  0  0  0  0
 18 23  1  0  0  0  0
 19 20  1  0  0  0  0
 20 25  1  0  0  0  0
 20 21  2  0  0  0  0
 22 21  1  0  0  0  0
 22 26  1  0  0  0  0
 23 22  2  0  0  0  0
 24 19  1  0  0  0  0
 26 27  1  0  0  0  0
 27 28  1  0  0  0  0
 27 29  2  0  0  0  0
 29 30  1  0  0  0  0
 31 29  1  0  0  0  0
 32 31  2  0  0  0  0
 33 26  2  0  0  0  0
 33 32  1  0  0  0  0
M  END
>  <minimizedAffinity>
-4.90378332

$$$$

 OpenBabel03242519233D

 33 35  0  0  0  0  0  0  0  0999 V2000
   37.4440   28.7960   42.4440 C   0  0  0  0  0  0  0  0  0  0  0  0
   38.5750   28.3530   43.2850 C   0  0  0  0  0  0  0  0  0  0  0  0
   39.2420   27.1070   42.7770 C   0  0  0  0  0  0  0  0  0  0  0  0
   38.2500   25.9650   42.6190 C   0  0  0  0  0  0  0  0  0  0  0  0
   36.9540   26.3850   41.9750 C   0  0  0  0  0  0  0  0  0  0  0  0
   37.0370   27.7770   41.3870 C   0  0  0  0  0  0  0  0  0  0  0  0
   36.5190   28.9700   43.0510 H   0  0  0  0  0  0  0  0  0  0  0  0
   38.1720   28.0790   44.3030 H   0  0  0  0  0  0  0  0  0  0  0  0
   39.3480   29.1060   43.4870 H   0  0  0  0  0  0  0  0  0  0  0  0
   39.9870   26.7670   43.5350 H   0  0  0  0  0  0  0  0  0  0  0  0
   39.7710   27.1880   41.8340 H   0  0  0  0  0  0  0  0  0  0  0  0
   38.0870   25.5600   43.6510 H   0  0  0  0  0  0  0  0  0  0  0  0
   38.6880   25.1950   41.9680 H   0  0  0  0  0  0  0  0  0  0  0  0
   36.6290   25.7260   41.1450 H   0  0  0  0  0  0  0  0  0  0  0  0
   36.1840   26.4180   42.7820 H   0  0  0  0  0  0  0  0  0  0  0  0
   36.0390   28.0560   41.0380 H   0  0  0  0  0  0  0  0  0  0  0  0
   37.7150   27.7920   40.5080 H   0  0  0  0  0  0  0  0  0  0  0  0
   37.7290   30.0570   41.7310 C   0  0  0  0  0  0  0  0  0  0  0  0
   36.6350   30.6520   41.0660 C   0  0  0  0  0  0  0  0  0  0  0  0
   36.8220   31.8500   40.3710 C   0  0  0  0  0  0  0  0  0  0  0  0
   38.0800   32.3820   40.3790 N   0  0  0  0  0  0  0  0  0  0  0  0
   39.1170   31.7880   41.0290 C   0  0  0  0  0  0  0  0  0  0  0  0
   38.9360   30.6420   41.6930 N   0  0  0  0  0  0  0  0  0  0  0  0
   35.6380   30.3070   41.0110 H   0  0  0  0  0  0  0  0  0  0  0  0
   36.0350   32.3620   39.8400 H   0  0  0  0  0  0  0  0  0  0  0  0
   40.4300   32.4280   40.9860 C   0  0  0  0  0  0  0  0  0  0  0  0
   41.4760   31.8730   41.6930 C   0  0  0  0  0  0  0  0  0  0  0  0
   41.3000   30.9710   42.2670 H   0  0  0  0  0  0  0  0  0  0  0  0
   42.7220   32.4630   41.6630 C   0  0  0  0  0  0  0  0  0  0  0  0
   43.5320   32.0050   42.2300 H   0  0  0  0  0  0  0  0  0  0  0  0
   42.8860   33.6270   40.9040 C   0  0  0  0  0  3  0  0  0  0  0  0
   41.8020   34.1610   40.2010 C   0  0  0  0  0  3  0  0  0  0  0  0
   40.6070   33.5470   40.2610 N   0  0  0  0  0  0  0  0  0  0  0  0
  1  7  1  0  0  0  0
  1  2  1  0  0  0  0
  2  9  1  0  0  0  0
  2  8  1  0  0  0  0
  3  2  1  0  0  0  0
  3 10  1  0  0  0  0
  4  3  1  0  0  0  0
  4 12  1  0  0  0  0
  5  4  1  0  0  0  0
  5 15  1  0  0  0  0
  6  5  1  0  0  0  0
  6  1  1  0  0  0  0
 11  3  1  0  0  0  0
 13  4  1  0  0  0  0
 14  5  1  0  0  0  0
 16  6  1  0  0  0  0
 17  6  1  0  0  0  0
 18  1  1  0  0  0  0
 19 18  2  0  0  0  0
 20 21  2  0  0  0  0
 20 19  1  0  0  0  0
 21 22  1  0  0  0  0
 22 23  2  0  0  0  0
 23 18  1  0  0  0  0
 24 19  1  0  0  0  0
 25 20  1  0  0  0  0
 26 22  1  0  0  0  0
 26 27  1  0  0  0  0
 27 28  1  0  0  0  0
 29 27  2  0  0  0  0
 29 30  1  0  0  0  0
 31 29  1  0  0  0  0
 32 33  1  0  0  0  0
 32 31  2  0  0  0  0
 33 26  2  0  0  0  0
M  END
>  <minimizedAffinity>
-4.86565733

$$$$
