
 OpenBabel03242518213D

 38 41  0  0  0  0  0  0  0  0999 V2000
   45.0360   35.3670   42.4310 C   0  0  0  0  0  0  0  0  0  0  0  0
   44.1740   34.9180   41.8970 H   0  0  0  0  0  0  0  0  0  0  0  0
   44.8870   36.4470   42.4460 H   0  0  0  0  0  0  0  0  0  0  0  0
   46.3020   35.0180   41.7170 C   0  0  0  0  0  0  0  0  0  0  0  0
   47.5580   35.3750   42.1710 C   0  0  0  0  0  0  0  0  0  0  0  0
   48.4860   34.8930   41.2710 C   0  0  0  0  0  0  0  0  0  0  0  0
   47.7240   34.2520   40.2910 C   0  0  0  0  0  0  0  0  0  0  0  0
   46.4950   34.3660   40.6130 O   0  0  0  0  0  0  0  0  0  0  0  0
   47.8540   35.9360   43.0670 H   0  0  0  0  0  0  0  0  0  0  0  0
   49.5760   34.9850   41.3060 H   0  0  0  0  0  0  0  0  0  0  0  0
   48.3110   33.5940   39.1380 C   0  0  0  0  0  0  0  0  0  0  0  0
   48.9910   32.3970   39.3010 C   0  0  0  0  0  0  0  0  0  0  0  0
   49.5890   31.6890   38.2680 C   0  0  0  0  0  0  0  0  0  0  0  0
   49.4390   32.3050   37.0300 C   0  0  0  0  0  0  0  0  0  0  0  0
   48.7780   33.4780   36.8340 C   0  0  0  0  0  0  0  0  0  0  0  0
   48.2280   34.0950   37.8980 N   0  0  0  0  0  0  0  0  0  0  0  0
   49.0580   31.9900   40.3050 H   0  0  0  0  0  0  0  0  0  0  0  0
   50.1100   30.7570   38.4430 H   0  0  0  0  0  0  0  0  0  0  0  0
   49.8790   31.8150   36.1660 H   0  0  0  0  0  0  0  0  0  0  0  0
   48.6940   33.9150   35.8300 H   0  0  0  0  0  0  0  0  0  0  0  0
   44.5160   35.1910   46.0550 C   0  0  0  0  0  0  0  0  0  0  0  0
   45.1050   33.9650   46.4110 C   0  0  0  0  0  0  0  0  0  0  0  0
   45.6670   33.2260   45.3990 C   0  0  0  0  0  0  0  0  0  0  0  0
   45.6250   33.7110   44.1220 N   0  0  0  0  0  0  0  0  0  0  0  0
   45.0530   34.8850   43.8330 C   0  0  0  0  0  0  0  0  0  0  0  0
   44.4970   35.6250   44.8080 N   0  0  0  0  0  0  0  0  0  0  0  0
   44.0560   35.8120   46.8250 H   0  0  0  0  0  0  0  0  0  0  0  0
   46.3130   31.9490   45.5790 C   0  0  0  0  0  0  0  0  0  0  0  0
   46.2770   30.8440   44.7830 C   0  0  0  0  0  0  0  0  0  0  0  0
   45.7000   30.8850   43.8870 H   0  0  0  0  0  0  0  0  0  0  0  0
   46.9140   29.6460   45.0000 C   0  0  0  0  0  0  0  0  0  0  0  0
   46.8300   28.8200   44.3130 H   0  0  0  0  0  0  0  0  0  0  0  0
   47.6830   29.4970   46.1290 C   0  0  0  0  0  0  0  0  0  0  0  0
   47.7310   30.6050   46.9470 C   0  0  0  0  0  0  0  0  0  0  0  0
   47.0820   31.7250   46.6580 N   0  0  0  0  0  0  0  0  0  0  0  0
   45.0880   33.5770   47.7550 N   0  0  0  0  0  0  0  0  0  0  0  0
   44.1940   33.0560   47.7470 H   0  0  0  0  0  0  0  0  0  0  0  0
   45.9560   33.9490   48.2400 H   0  0  0  0  0  0  0  0  0  0  0  0
  1  3  1  0  0  0  0
  1 25  1  0  0  0  0
  2  1  1  0  0  0  0
  4  5  2  0  0  0  0
  4  1  1  0  0  0  0
  5  9  1  0  0  0  0
  6 10  1  0  0  0  0
  6  5  1  0  0  0  0
  7  8  1  0  0  0  0
  7  6  2  0  0  0  0
  8  4  1  0  0  0  0
 11 12  1  0  0  0  0
 11  7  1  0  0  0  0
 12 17  1  0  0  0  0
 13 18  1  0  0  0  0
 13 12  2  0  0  0  0
 14 13  1  0  0  0  0
 15 14  2  0  0  0  0
 15 16  1  0  0  0  0
 16 11  2  0  0  0  0
 19 14  1  0  0  0  0
 20 15  1  0  0  0  0
 21 22  1  0  0  0  0
 21 27  1  0  0  0  0
 22 36  1  0  0  0  0
 23 28  1  0  0  0  0
 23 22  2  0  0  0  0
 24 23  1  0  0  0  0
 25 24  2  0  0  0  0
 25 26  1  0  0  0  0
 26 21  2  0  0  0  0
 28 35  1  0  0  0  0
 29 31  1  0  0  0  0
 29 28  2  0  0  0  0
 30 29  1  0  0  0  0
 31 33  2  0  0  0  0
 32 31  1  0  0  0  0
 33 34  1  0  0  0  0
 35 34  2  0  0  0  0
 36 38  1  0  0  0  0
 37 36  1  0  0  0  0
M  END
>  <minimizedAffinity>
-6.04050732

>  <minimizedRMSD>
6.5075922

$$$$
