
 OpenBabel03252507083D

 23 24  0  0  0  0  0  0  0  0999 V2000
   44.5460   35.9400   44.5420 C   0  0  0  0  0  0  0  0  0  0  0  0
   45.1670   35.8930   43.2830 C   0  0  0  0  0  0  0  0  0  0  0  0
   46.0940   34.8690   43.0600 C   0  0  0  0  0  0  0  0  0  0  0  0
   46.3350   33.9890   44.0630 N   0  0  0  0  0  0  0  0  0  0  0  0
   45.7180   34.0600   45.2660 C   0  0  0  0  0  0  0  0  0  0  0  0
   44.8300   35.0340   45.4960 N   0  0  0  0  0  0  0  0  0  0  0  0
   43.8400   36.7610   44.6430 H   0  0  0  0  0  0  0  0  0  0  0  0
   44.9380   36.6260   42.5120 H   0  0  0  0  0  0  0  0  0  0  0  0
   46.0300   33.0760   46.2970 C   0  0  0  0  0  0  0  0  0  0  0  0
   45.2600   33.0060   47.4390 C   0  0  0  0  0  0  0  0  0  0  0  0
   44.4180   33.6890   47.5690 H   0  0  0  0  0  0  0  0  0  0  0  0
   45.4870   32.1140   48.4460 C   0  0  0  0  0  0  0  0  0  0  0  0
   44.8540   32.0890   49.3370 H   0  0  0  0  0  0  0  0  0  0  0  0
   46.5420   31.2460   48.3050 C   0  0  0  0  0  3  0  0  0  0  0  0
   47.3240   31.3110   47.1550 C   0  0  0  0  0  3  0  0  0  0  0  0
   47.0590   32.2170   46.1750 N   0  0  0  0  0  0  0  0  0  0  0  0
   46.7070   34.8210   41.8230 O   0  0  0  0  0  0  0  0  0  0  0  0
   48.6850   33.2150   41.1160 O   0  0  0  0  0  0  0  0  0  0  0  0
   48.3960   34.5790   41.7210 P   0  0  0  0  0  0  0  0  0  0  0  0
   49.0600   35.8180   40.8210 O   0  0  0  0  0  0  0  0  0  0  0  0
   49.2470   35.4760   39.8980 H   0  0  0  0  0  0  0  0  0  0  0  0
   48.9890   34.5810   43.3220 O   0  0  0  0  0  0  0  0  0  0  0  0
   48.9190   35.5230   43.6240 H   0  0  0  0  0  0  0  0  0  0  0  0
  1  7  1  0  0  0  0
  1  6  1  0  0  0  0
  2  1  2  0  0  0  0
  3  2  1  0  0  0  0
  3  4  2  0  0  0  0
  4  5  1  0  0  0  0
  5  6  2  0  0  0  0
  5  9  1  0  0  0  0
  8  2  1  0  0  0  0
  9 10  1  0  0  0  0
 10 11  1  0  0  0  0
 10 12  2  0  0  0  0
 12 13  1  0  0  0  0
 14 12  1  0  0  0  0
 15 14  2  0  0  0  0
 16  9  2  0  0  0  0
 16 15  1  0  0  0  0
 17  3  1  0  0  0  0
 18 19  2  0  0  0  0
 19 17  1  0  0  0  0
 19 22  1  0  0  0  0
 20 19  1  0  0  0  0
 21 20  1  0  0  0  0
 22 23  1  0  0  0  0
M  END
>  <minimizedAffinity>
-5.78090382

>  <minimizedRMSD>
0.291792274

$$$$
