
 OpenBabel03242518123D

 30 32  0  0  0  0  0  0  0  0999 V2000
   48.3110   33.5690   42.7240 C   0  0  0  0  0  0  0  0  0  0  0  0
   48.9210   33.6540   43.6670 H   0  0  0  0  0  0  0  0  0  0  0  0
   47.4120   32.9650   42.9950 H   0  0  0  0  0  0  0  0  0  0  0  0
   49.0960   32.8970   41.7450 C   0  0  0  0  0  0  0  0  0  0  0  0
   48.8780   32.2850   40.4640 C   0  0  0  0  0  0  0  0  0  0  0  0
   49.9130   31.7180   39.7940 C   0  0  0  0  0  0  0  0  0  0  0  0
   51.2140   31.7660   40.4320 C   0  0  0  0  0  0  0  0  0  0  0  0
   50.9480   32.6280   41.9940 S   0  0  0  0  0  0  0  0  0  0  0  0
   47.8540   32.3600   40.1850 H   0  0  0  0  0  0  0  0  0  0  0  0
   49.7460   31.2620   38.8390 H   0  0  0  0  0  0  0  0  0  0  0  0
   52.4020   31.2110   39.8480 C   0  0  0  0  0  0  0  0  0  0  0  0
   53.2580   30.3570   40.5110 C   0  0  0  0  0  0  0  0  0  0  0  0
   52.9830   30.1200   41.5170 H   0  0  0  0  0  0  0  0  0  0  0  0
   54.3510   29.9220   39.7920 C   0  0  0  0  0  0  0  0  0  0  0  0
   55.0090   29.2450   40.3500 H   0  0  0  0  0  0  0  0  0  0  0  0
   54.5870   30.3080   38.4900 C   0  0  0  0  0  0  0  0  0  0  0  0
   53.6900   31.1650   37.8850 C   0  0  0  0  0  0  0  0  0  0  0  0
   52.6090   31.5970   38.5900 N   0  0  0  0  0  0  0  0  0  0  0  0
   47.8520   34.9580   42.3870 C   0  0  0  0  0  0  0  0  0  0  0  0
   48.1660   35.6590   43.2140 H   0  0  0  0  0  0  0  0  0  0  0  0
   48.3720   35.3000   41.4990 H   0  0  0  0  0  0  0  0  0  0  0  0
   46.4110   34.9710   42.2440 C   0  0  0  0  0  0  0  0  0  0  0  0
   45.5770   35.5030   43.2230 C   0  0  0  0  0  0  0  0  0  0  0  0
   44.2030   35.4860   43.0270 C   0  0  0  0  0  0  0  0  0  0  0  0
   43.7370   34.9470   41.8800 N   0  0  0  0  0  0  0  0  0  0  0  0
   44.5590   34.4380   40.9470 C   0  0  0  0  0  0  0  0  0  0  0  0
   45.8680   34.4520   41.1280 N   0  0  0  0  0  0  0  0  0  0  0  0
   46.0390   35.9180   44.1180 H   0  0  0  0  0  0  0  0  0  0  0  0
   43.5520   35.8970   43.7830 H   0  0  0  0  0  0  0  0  0  0  0  0
   44.1570   34.0060   40.0270 H   0  0  0  0  0  0  0  0  0  0  0  0
  1  3  1  0  0  0  0
  1  2  1  0  0  0  0
  4  8  1  0  0  0  0
  4  1  1  0  0  0  0
  5  4  2  0  0  0  0
  6  7  2  0  0  0  0
  6  5  1  0  0  0  0
  7  8  1  0  0  0  0
  9  5  1  0  0  0  0
 10  6  1  0  0  0  0
 11  7  1  0  0  0  0
 11 12  1  0  0  0  0
 12 13  1  0  0  0  0
 14 15  1  0  0  0  0
 14 12  2  0  0  0  0
 16 14  1  0  0  0  0
 17 16  2  0  0  0  0
 17 18  1  0  0  0  0
 18 11  2  0  0  0  0
 19  1  1  0  0  0  0
 19 20  1  0  0  0  0
 21 19  1  0  0  0  0
 22 19  1  0  0  0  0
 22 23  1  0  0  0  0
 23 28  1  0  0  0  0
 24 23  2  0  0  0  0
 24 29  1  0  0  0  0
 25 24  1  0  0  0  0
 26 27  1  0  0  0  0
 26 25  2  0  0  0  0
 27 22  2  0  0  0  0
 30 26  1  0  0  0  0
M  END
>  <minimizedAffinity>
-4.18779612

>  <minimizedRMSD>
1.348014

$$$$
