
 OpenBabel03252503423D

 20 21  0  0  0  0  0  0  0  0999 V2000
   38.2090   28.4610   42.7160 C   0  0  0  0  0  0  0  0  0  0  0  0
   37.0760   27.7570   42.3040 C   0  0  0  0  0  0  0  0  0  0  0  0
   36.2200   28.3860   41.3870 C   0  0  0  0  0  0  0  0  0  0  0  0
   36.5460   29.6350   40.9570 N   0  0  0  0  0  0  0  0  0  0  0  0
   37.6470   30.2700   41.3830 C   0  0  0  0  0  0  0  0  0  0  0  0
   38.5030   29.7150   42.2630 N   0  0  0  0  0  0  0  0  0  0  0  0
   38.9420   28.0730   43.4240 H   0  0  0  0  0  0  0  0  0  0  0  0
   35.3780   27.7980   41.1150 H   0  0  0  0  0  0  0  0  0  0  0  0
   37.9360   31.6050   40.8850 C   0  0  0  0  0  0  0  0  0  0  0  0
   37.0810   32.2580   40.0220 C   0  0  0  0  0  0  0  0  0  0  0  0
   36.1740   31.7130   39.7380 H   0  0  0  0  0  0  0  0  0  0  0  0
   37.3030   33.5120   39.5230 C   0  0  0  0  0  0  0  0  0  0  0  0
   36.5490   33.9220   38.8470 H   0  0  0  0  0  0  0  0  0  0  0  0
   38.4710   34.1610   39.9170 C   0  0  0  0  0  3  0  0  0  0  0  0
   39.3270   33.5090   40.7790 C   0  0  0  0  0  3  0  0  0  0  0  0
   39.0500   32.2710   41.2360 N   0  0  0  0  0  0  0  0  0  0  0  0
   36.9090   26.4140   42.8920 C   0  0  0  0  0  0  0  0  0  0  0  0
   37.0620   26.4320   44.0000 H   0  0  0  0  0  0  0  0  0  0  0  0
   37.6400   25.6770   42.5160 H   0  0  0  0  0  0  0  0  0  0  0  0
   35.8620   26.0980   42.7090 H   0  0  0  0  0  0  0  0  0  0  0  0
  1  7  1  0  0  0  0
  2  1  1  0  0  0  0
  2 17  1  0  0  0  0
  3  2  2  0  0  0  0
  4  5  2  0  0  0  0
  4  3  1  0  0  0  0
  5  6  1  0  0  0  0
  6  1  2  0  0  0  0
  8  3  1  0  0  0  0
  9 16  1  0  0  0  0
  9  5  1  0  0  0  0
 10  9  2  0  0  0  0
 11 10  1  0  0  0  0
 12 14  2  0  0  0  0
 12 10  1  0  0  0  0
 13 12  1  0  0  0  0
 14 15  1  0  0  0  0
 15 16  2  0  0  0  0
 17 18  1  0  0  0  0
 19 17  1  0  0  0  0
 20 17  1  0  0  0  0
M  END
>  <minimizedAffinity>
-4.27972984

$$$$

 OpenBabel03252503423D

 20 21  0  0  0  0  0  0  0  0999 V2000
   37.0290   27.8080   40.8450 C   0  0  0  0  0  0  0  0  0  0  0  0
   37.2510   27.4370   42.1730 C   0  0  0  0  0  0  0  0  0  0  0  0
   37.6960   28.4320   43.0570 C   0  0  0  0  0  0  0  0  0  0  0  0
   37.8810   29.6880   42.5690 N   0  0  0  0  0  0  0  0  0  0  0  0
   37.6540   29.9930   41.2830 C   0  0  0  0  0  0  0  0  0  0  0  0
   37.2270   29.0790   40.3910 N   0  0  0  0  0  0  0  0  0  0  0  0
   36.6840   27.1190   40.0710 H   0  0  0  0  0  0  0  0  0  0  0  0
   37.8450   28.0860   44.0500 H   0  0  0  0  0  0  0  0  0  0  0  0
   37.8730   31.3560   40.8260 C   0  0  0  0  0  0  0  0  0  0  0  0
   37.0330   31.9590   39.9140 C   0  0  0  0  0  0  0  0  0  0  0  0
   36.1940   31.3530   39.5560 H   0  0  0  0  0  0  0  0  0  0  0  0
   37.1920   33.2370   39.4500 C   0  0  0  0  0  0  0  0  0  0  0  0
   36.4590   33.6010   38.7270 H   0  0  0  0  0  0  0  0  0  0  0  0
   38.2760   33.9650   39.9380 C   0  0  0  0  0  3  0  0  0  0  0  0
   39.1160   33.3630   40.8490 C   0  0  0  0  0  3  0  0  0  0  0  0
   38.9040   32.0980   41.2670 N   0  0  0  0  0  0  0  0  0  0  0  0
   36.9880   26.0210   42.4940 C   0  0  0  0  0  0  0  0  0  0  0  0
   37.4570   25.3390   41.7420 H   0  0  0  0  0  0  0  0  0  0  0  0
   35.9150   25.7610   42.4850 H   0  0  0  0  0  0  0  0  0  0  0  0
   37.4630   25.8080   43.4730 H   0  0  0  0  0  0  0  0  0  0  0  0
  1  2  1  0  0  0  0
  2 17  1  0  0  0  0
  2  3  2  0  0  0  0
  3  8  1  0  0  0  0
  4  3  1  0  0  0  0
  5  4  2  0  0  0  0
  6  1  2  0  0  0  0
  6  5  1  0  0  0  0
  7  1  1  0  0  0  0
  9 16  1  0  0  0  0
  9  5  1  0  0  0  0
 10  9  2  0  0  0  0
 11 10  1  0  0  0  0
 12 10  1  0  0  0  0
 12 14  2  0  0  0  0
 13 12  1  0  0  0  0
 14 15  1  0  0  0  0
 15 16  2  0  0  0  0
 17 20  1  0  0  0  0
 18 17  1  0  0  0  0
 19 17  1  0  0  0  0
M  END
>  <minimizedAffinity>
-4.27633476

$$$$

 OpenBabel03252503423D

 20 21  0  0  0  0  0  0  0  0999 V2000
   36.8950   31.6390   40.3980 C   0  0  0  0  0  0  0  0  0  0  0  0
   37.7990   32.6990   40.3020 C   0  0  0  0  0  0  0  0  0  0  0  0
   39.0510   32.5390   40.9140 C   0  0  0  0  0  0  0  0  0  0  0  0
   39.3060   31.3680   41.5590 N   0  0  0  0  0  0  0  0  0  0  0  0
   38.4030   30.3800   41.6230 C   0  0  0  0  0  0  0  0  0  0  0  0
   37.1860   30.4790   41.0540 N   0  0  0  0  0  0  0  0  0  0  0  0
   35.8940   31.6520   39.9620 H   0  0  0  0  0  0  0  0  0  0  0  0
   39.6910   33.3800   40.8050 H   0  0  0  0  0  0  0  0  0  0  0  0
   38.7390   29.1540   42.3290 C   0  0  0  0  0  0  0  0  0  0  0  0
   40.0440   28.8290   42.6370 C   0  0  0  0  0  0  0  0  0  0  0  0
   40.8080   29.5480   42.3210 H   0  0  0  0  0  0  0  0  0  0  0  0
   40.4170   27.6910   43.2990 C   0  0  0  0  0  0  0  0  0  0  0  0
   41.4830   27.5480   43.4840 H   0  0  0  0  0  0  0  0  0  0  0  0
   39.4050   26.8110   43.6790 C   0  0  0  0  0  3  0  0  0  0  0  0
   38.1010   27.1340   43.3710 C   0  0  0  0  0  3  0  0  0  0  0  0
   37.7990   28.2740   42.7160 N   0  0  0  0  0  0  0  0  0  0  0  0
   37.3220   33.8810   39.5570 C   0  0  0  0  0  0  0  0  0  0  0  0
   36.2950   34.1800   39.8820 H   0  0  0  0  0  0  0  0  0  0  0  0
   37.2380   33.7090   38.4700 H   0  0  0  0  0  0  0  0  0  0  0  0
   38.0030   34.7220   39.7970 H   0  0  0  0  0  0  0  0  0  0  0  0
  1  6  1  0  0  0  0
  2  1  2  0  0  0  0
  2  3  1  0  0  0  0
  3  4  2  0  0  0  0
  4  5  1  0  0  0  0
  5  9  1  0  0  0  0
  6  5  2  0  0  0  0
  7  1  1  0  0  0  0
  8  3  1  0  0  0  0
  9 10  2  0  0  0  0
  9 16  1  0  0  0  0
 10 12  1  0  0  0  0
 11 10  1  0  0  0  0
 12 13  1  0  0  0  0
 12 14  2  0  0  0  0
 15 14  1  0  0  0  0
 16 15  2  0  0  0  0
 17 20  1  0  0  0  0
 17 18  1  0  0  0  0
 17  2  1  0  0  0  0
 19 17  1  0  0  0  0
M  END
>  <minimizedAffinity>
-4.19643354

$$$$

 OpenBabel03252503423D

 20 21  0  0  0  0  0  0  0  0999 V2000
   36.5860   28.9140   41.6730 C   0  0  0  0  0  0  0  0  0  0  0  0
   37.2520   28.2480   42.7040 C   0  0  0  0  0  0  0  0  0  0  0  0
   38.4470   28.8150   43.1740 C   0  0  0  0  0  0  0  0  0  0  0  0
   38.8790   29.9700   42.6010 N   0  0  0  0  0  0  0  0  0  0  0  0
   38.2020   30.5710   41.6130 C   0  0  0  0  0  0  0  0  0  0  0  0
   37.0510   30.0730   41.1220 N   0  0  0  0  0  0  0  0  0  0  0  0
   35.6520   28.5670   41.2290 H   0  0  0  0  0  0  0  0  0  0  0  0
   38.9040   28.2610   43.9570 H   0  0  0  0  0  0  0  0  0  0  0  0
   38.7200   31.8050   41.0430 C   0  0  0  0  0  0  0  0  0  0  0  0
   40.0730   32.0690   40.9950 C   0  0  0  0  0  0  0  0  0  0  0  0
   40.7310   31.2960   41.4090 H   0  0  0  0  0  0  0  0  0  0  0  0
   40.6150   33.2110   40.4720 C   0  0  0  0  0  0  0  0  0  0  0  0
   41.7030   33.3030   40.4920 H   0  0  0  0  0  0  0  0  0  0  0  0
   39.7340   34.1610   39.9580 C   0  0  0  0  0  3  0  0  0  0  0  0
   38.3820   33.8990   40.0060 C   0  0  0  0  0  3  0  0  0  0  0  0
   37.9110   32.7500   40.5360 N   0  0  0  0  0  0  0  0  0  0  0  0
   36.6120   27.0080   43.1830 C   0  0  0  0  0  0  0  0  0  0  0  0
   36.3090   26.3500   42.3310 H   0  0  0  0  0  0  0  0  0  0  0  0
   35.6810   27.1860   43.7500 H   0  0  0  0  0  0  0  0  0  0  0  0
   37.3650   26.4530   43.7770 H   0  0  0  0  0  0  0  0  0  0  0  0
  1  2  1  0  0  0  0
  2  3  2  0  0  0  0
  2 17  1  0  0  0  0
  3  8  1  0  0  0  0
  4  3  1  0  0  0  0
  5  4  2  0  0  0  0
  6  5  1  0  0  0  0
  6  1  2  0  0  0  0
  7  1  1  0  0  0  0
  9  5  1  0  0  0  0
 10  9  1  0  0  0  0
 10 11  1  0  0  0  0
 12 13  1  0  0  0  0
 12 10  2  0  0  0  0
 14 15  2  0  0  0  0
 14 12  1  0  0  0  0
 15 16  1  0  0  0  0
 16  9  2  0  0  0  0
 17 19  1  0  0  0  0
 17 20  1  0  0  0  0
 18 17  1  0  0  0  0
M  END
>  <minimizedAffinity>
-4.0568738

$$$$

 OpenBabel03252503423D

 20 21  0  0  0  0  0  0  0  0999 V2000
   40.5350   31.8900   40.3930 C   0  0  0  0  0  0  0  0  0  0  0  0
   39.8390   33.0610   40.0890 C   0  0  0  0  0  0  0  0  0  0  0  0
   38.4630   33.0870   40.3640 C   0  0  0  0  0  0  0  0  0  0  0  0
   37.8960   31.9760   40.9070 N   0  0  0  0  0  0  0  0  0  0  0  0
   38.6090   30.8750   41.1810 C   0  0  0  0  0  0  0  0  0  0  0  0
   39.9310   30.7940   40.9380 N   0  0  0  0  0  0  0  0  0  0  0  0
   41.6040   31.7560   40.2220 H   0  0  0  0  0  0  0  0  0  0  0  0
   37.9930   34.0060   40.1100 H   0  0  0  0  0  0  0  0  0  0  0  0
   37.9400   29.7210   41.7610 C   0  0  0  0  0  0  0  0  0  0  0  0
   38.1190   29.3670   43.0820 C   0  0  0  0  0  0  0  0  0  0  0  0
   38.7910   30.0060   43.6660 H   0  0  0  0  0  0  0  0  0  0  0  0
   37.5160   28.2940   43.6780 C   0  0  0  0  0  0  0  0  0  0  0  0
   37.7380   28.1180   44.7330 H   0  0  0  0  0  0  0  0  0  0  0  0
   36.6700   27.5150   42.8910 C   0  0  0  0  0  3  0  0  0  0  0  0
   36.4910   27.8670   41.5700 C   0  0  0  0  0  3  0  0  0  0  0  0
   37.1160   28.9400   41.0420 N   0  0  0  0  0  0  0  0  0  0  0  0
   40.6450   34.1500   39.5040 C   0  0  0  0  0  0  0  0  0  0  0  0
   41.2980   33.7760   38.6770 H   0  0  0  0  0  0  0  0  0  0  0  0
   41.3390   34.6180   40.2250 H   0  0  0  0  0  0  0  0  0  0  0  0
   39.9420   34.8850   39.0620 H   0  0  0  0  0  0  0  0  0  0  0  0
  1  6  1  0  0  0  0
  2  3  1  0  0  0  0
  2  1  2  0  0  0  0
  3  4  2  0  0  0  0
  4  5  1  0  0  0  0
  5  9  1  0  0  0  0
  6  5  2  0  0  0  0
  7  1  1  0  0  0  0
  8  3  1  0  0  0  0
  9 10  1  0  0  0  0
 10 11  1  0  0  0  0
 10 12  2  0  0  0  0
 12 13  1  0  0  0  0
 14 12  1  0  0  0  0
 15 14  2  0  0  0  0
 16 15  1  0  0  0  0
 16  9  2  0  0  0  0
 17  2  1  0  0  0  0
 17 19  1  0  0  0  0
 18 17  1  0  0  0  0
 20 17  1  0  0  0  0
M  END
>  <minimizedAffinity>
-4.05180311

$$$$

 OpenBabel03252503423D

 20 21  0  0  0  0  0  0  0  0999 V2000
   37.0730   27.2990   42.7120 C   0  0  0  0  0  0  0  0  0  0  0  0
   37.1750   26.3090   41.7320 C   0  0  0  0  0  0  0  0  0  0  0  0
   37.4830   26.7190   40.4260 C   0  0  0  0  0  0  0  0  0  0  0  0
   37.6640   28.0480   40.1970 N   0  0  0  0  0  0  0  0  0  0  0  0
   37.5550   28.9600   41.1730 C   0  0  0  0  0  0  0  0  0  0  0  0
   37.2610   28.6240   42.4430 N   0  0  0  0  0  0  0  0  0  0  0  0
   36.8380   27.0970   43.7580 H   0  0  0  0  0  0  0  0  0  0  0  0
   37.5460   25.9190   39.7300 H   0  0  0  0  0  0  0  0  0  0  0  0
   37.7600   30.3650   40.8590 C   0  0  0  0  0  0  0  0  0  0  0  0
   36.9130   31.0500   40.0110 C   0  0  0  0  0  0  0  0  0  0  0  0
   36.0800   30.4740   39.5920 H   0  0  0  0  0  0  0  0  0  0  0  0
   37.0580   32.3700   39.6820 C   0  0  0  0  0  0  0  0  0  0  0  0
   36.3210   32.7980   39.0000 H   0  0  0  0  0  0  0  0  0  0  0  0
   38.1340   33.0560   40.2430 C   0  0  0  0  0  3  0  0  0  0  0  0
   38.9810   32.3730   41.0890 C   0  0  0  0  0  3  0  0  0  0  0  0
   38.7820   31.0690   41.3750 N   0  0  0  0  0  0  0  0  0  0  0  0
   36.9410   24.9270   42.1940 C   0  0  0  0  0  0  0  0  0  0  0  0
   36.0200   24.8570   42.8240 H   0  0  0  0  0  0  0  0  0  0  0  0
   37.7520   24.5340   42.8320 H   0  0  0  0  0  0  0  0  0  0  0  0
   36.7740   24.3000   41.2950 H   0  0  0  0  0  0  0  0  0  0  0  0
  1  7  1  0  0  0  0
  2 17  1  0  0  0  0
  2  1  2  0  0  0  0
  3  2  1  0  0  0  0
  4  3  2  0  0  0  0
  4  5  1  0  0  0  0
  5  6  2  0  0  0  0
  6  1  1  0  0  0  0
  8  3  1  0  0  0  0
  9  5  1  0  0  0  0
  9 16  1  0  0  0  0
 10  9  2  0  0  0  0
 11 10  1  0  0  0  0
 12 10  1  0  0  0  0
 12 14  2  0  0  0  0
 13 12  1  0  0  0  0
 14 15  1  0  0  0  0
 15 16  2  0  0  0  0
 17 18  1  0  0  0  0
 17 19  1  0  0  0  0
 20 17  1  0  0  0  0
M  END
>  <minimizedAffinity>
-4.03248072

$$$$

 OpenBabel03252503423D

 20 21  0  0  0  0  0  0  0  0999 V2000
   37.9420   30.4000   39.3870 C   0  0  0  0  0  0  0  0  0  0  0  0
   37.1040   31.3000   40.0490 C   0  0  0  0  0  0  0  0  0  0  0  0
   36.1940   30.7730   40.9780 C   0  0  0  0  0  0  0  0  0  0  0  0
   36.1860   29.4270   41.1760 N   0  0  0  0  0  0  0  0  0  0  0  0
   37.0120   28.6050   40.5140 C   0  0  0  0  0  0  0  0  0  0  0  0
   37.9040   29.0550   39.6110 N   0  0  0  0  0  0  0  0  0  0  0  0
   38.6860   30.6960   38.6450 H   0  0  0  0  0  0  0  0  0  0  0  0
   35.5870   31.5090   41.4460 H   0  0  0  0  0  0  0  0  0  0  0  0
   36.9500   27.1750   40.7730 C   0  0  0  0  0  0  0  0  0  0  0  0
   36.6200   26.2730   39.7830 C   0  0  0  0  0  0  0  0  0  0  0  0
   36.4100   26.6960   38.7940 H   0  0  0  0  0  0  0  0  0  0  0  0
   36.5470   24.9200   39.9700 C   0  0  0  0  0  0  0  0  0  0  0  0
   36.2750   24.3100   39.1060 H   0  0  0  0  0  0  0  0  0  0  0  0
   36.8240   24.4340   41.2470 C   0  0  0  0  0  3  0  0  0  0  0  0
   37.1530   25.3350   42.2370 C   0  0  0  0  0  3  0  0  0  0  0  0
   37.2080   26.6590   41.9870 N   0  0  0  0  0  0  0  0  0  0  0  0
   37.2770   32.7200   39.6860 C   0  0  0  0  0  0  0  0  0  0  0  0
   37.3130   32.8560   38.5770 H   0  0  0  0  0  0  0  0  0  0  0  0
   38.2210   33.1560   40.0570 H   0  0  0  0  0  0  0  0  0  0  0  0
   36.3880   33.2690   40.0580 H   0  0  0  0  0  0  0  0  0  0  0  0
  1  6  2  0  0  0  0
  1  2  1  0  0  0  0
  2  3  2  0  0  0  0
  3  4  1  0  0  0  0
  3  8  1  0  0  0  0
  5  9  1  0  0  0  0
  5  4  2  0  0  0  0
  6  5  1  0  0  0  0
  7  1  1  0  0  0  0
  9 16  1  0  0  0  0
 10 12  1  0  0  0  0
 10  9  2  0  0  0  0
 11 10  1  0  0  0  0
 12 14  2  0  0  0  0
 13 12  1  0  0  0  0
 14 15  1  0  0  0  0
 16 15  2  0  0  0  0
 17  2  1  0  0  0  0
 17 19  1  0  0  0  0
 17 20  1  0  0  0  0
 18 17  1  0  0  0  0
M  END
>  <minimizedAffinity>
-3.92734265

$$$$

 OpenBabel03252503423D

 20 21  0  0  0  0  0  0  0  0999 V2000
   40.4870   32.2480   41.1200 C   0  0  0  0  0  0  0  0  0  0  0  0
   39.8580   33.0390   40.1560 C   0  0  0  0  0  0  0  0  0  0  0  0
   38.5480   32.6940   39.7890 C   0  0  0  0  0  0  0  0  0  0  0  0
   37.9760   31.6170   40.3920 N   0  0  0  0  0  0  0  0  0  0  0  0
   38.6230   30.8890   41.3130 C   0  0  0  0  0  0  0  0  0  0  0  0
   39.8800   31.1740   41.7030 N   0  0  0  0  0  0  0  0  0  0  0  0
   41.5020   32.4220   41.4810 H   0  0  0  0  0  0  0  0  0  0  0  0
   38.1270   33.3340   39.0530 H   0  0  0  0  0  0  0  0  0  0  0  0
   37.9520   29.7500   41.9190 C   0  0  0  0  0  0  0  0  0  0  0  0
   36.8920   29.1200   41.3010 C   0  0  0  0  0  0  0  0  0  0  0  0
   36.5880   29.5270   40.3300 H   0  0  0  0  0  0  0  0  0  0  0  0
   36.2260   28.0460   41.8240 C   0  0  0  0  0  0  0  0  0  0  0  0
   35.4010   27.6340   41.2370 H   0  0  0  0  0  0  0  0  0  0  0  0
   36.6540   27.5670   43.0610 C   0  0  0  0  0  3  0  0  0  0  0  0
   37.7120   28.1960   43.6800 C   0  0  0  0  0  3  0  0  0  0  0  0
   38.3280   29.2520   43.1090 N   0  0  0  0  0  0  0  0  0  0  0  0
   40.6580   34.1610   39.6280 C   0  0  0  0  0  0  0  0  0  0  0  0
   41.6900   33.8310   39.3500 H   0  0  0  0  0  0  0  0  0  0  0  0
   40.8070   34.9760   40.3580 H   0  0  0  0  0  0  0  0  0  0  0  0
   40.1640   34.5150   38.7010 H   0  0  0  0  0  0  0  0  0  0  0  0
  1  7  1  0  0  0  0
  1  6  1  0  0  0  0
  2  1  2  0  0  0  0
  3  2  1  0  0  0  0
  3  4  2  0  0  0  0
  4  5  1  0  0  0  0
  5  6  2  0  0  0  0
  5  9  1  0  0  0  0
  8  3  1  0  0  0  0
  9 16  1  0  0  0  0
 10 12  1  0  0  0  0
 10  9  2  0  0  0  0
 11 10  1  0  0  0  0
 12 14  2  0  0  0  0
 13 12  1  0  0  0  0
 14 15  1  0  0  0  0
 16 15  2  0  0  0  0
 17  2  1  0  0  0  0
 17 19  1  0  0  0  0
 18 17  1  0  0  0  0
 20 17  1  0  0  0  0
M  END
>  <minimizedAffinity>
-3.9236176

$$$$

 OpenBabel03252503423D

 20 21  0  0  0  0  0  0  0  0999 V2000
   37.9240   26.5270   40.5500 C   0  0  0  0  0  0  0  0  0  0  0  0
   37.2430   26.2420   41.7350 C   0  0  0  0  0  0  0  0  0  0  0  0
   36.5810   27.3020   42.3730 C   0  0  0  0  0  0  0  0  0  0  0  0
   36.6430   28.5350   41.8000 N   0  0  0  0  0  0  0  0  0  0  0  0
   37.3120   28.7570   40.6590 C   0  0  0  0  0  0  0  0  0  0  0  0
   37.9650   27.7770   40.0050 N   0  0  0  0  0  0  0  0  0  0  0  0
   38.4730   25.7820   39.9700 H   0  0  0  0  0  0  0  0  0  0  0  0
   36.0830   27.0200   43.2680 H   0  0  0  0  0  0  0  0  0  0  0  0
   37.3390   30.0990   40.1010 C   0  0  0  0  0  0  0  0  0  0  0  0
   37.2510   30.3210   38.7420 C   0  0  0  0  0  0  0  0  0  0  0  0
   37.1590   29.4290   38.1120 H   0  0  0  0  0  0  0  0  0  0  0  0
   37.2710   31.5610   38.1630 C   0  0  0  0  0  0  0  0  0  0  0  0
   37.1940   31.6050   37.0750 H   0  0  0  0  0  0  0  0  0  0  0  0
   37.3900   32.6610   39.0100 C   0  0  0  0  0  3  0  0  0  0  0  0
   37.4780   32.4410   40.3680 C   0  0  0  0  0  3  0  0  0  0  0  0
   37.4520   31.1910   40.8760 N   0  0  0  0  0  0  0  0  0  0  0  0
   37.3010   24.8370   42.1850 C   0  0  0  0  0  0  0  0  0  0  0  0
   38.3460   24.4410   42.1480 H   0  0  0  0  0  0  0  0  0  0  0  0
   36.7140   24.1490   41.5520 H   0  0  0  0  0  0  0  0  0  0  0  0
   36.9760   24.8130   43.2440 H   0  0  0  0  0  0  0  0  0  0  0  0
  1  2  1  0  0  0  0
  2 17  1  0  0  0  0
  2  3  2  0  0  0  0
  3  8  1  0  0  0  0
  4  3  1  0  0  0  0
  5  4  2  0  0  0  0
  6  1  2  0  0  0  0
  6  5  1  0  0  0  0
  7  1  1  0  0  0  0
  9  5  1  0  0  0  0
  9 16  1  0  0  0  0
 10  9  2  0  0  0  0
 11 10  1  0  0  0  0
 12 10  1  0  0  0  0
 12 14  2  0  0  0  0
 13 12  1  0  0  0  0
 14 15  1  0  0  0  0
 15 16  2  0  0  0  0
 17 20  1  0  0  0  0
 18 17  1  0  0  0  0
 19 17  1  0  0  0  0
M  END
>  <minimizedAffinity>
-3.84596515

$$$$
