
 OpenBabel03252507083D

 23 24  0  0  0  0  0  0  0  0999 V2000
   44.5380   36.0270   44.4700 C   0  0  0  0  0  0  0  0  0  0  0  0
   45.1730   35.9480   43.2200 C   0  0  0  0  0  0  0  0  0  0  0  0
   46.0750   34.8980   43.0210 C   0  0  0  0  0  0  0  0  0  0  0  0
   46.2820   34.0260   44.0380 N   0  0  0  0  0  0  0  0  0  0  0  0
   45.6540   34.1280   45.2320 C   0  0  0  0  0  0  0  0  0  0  0  0
   44.7880   35.1260   45.4390 N   0  0  0  0  0  0  0  0  0  0  0  0
   43.8520   36.8670   44.5520 H   0  0  0  0  0  0  0  0  0  0  0  0
   44.9710   36.6770   42.4370 H   0  0  0  0  0  0  0  0  0  0  0  0
   45.9290   33.1500   46.2800 C   0  0  0  0  0  0  0  0  0  0  0  0
   46.9640   32.2520   46.1310 C   0  0  0  0  0  0  0  0  0  0  0  0
   47.5780   32.2750   45.2290 H   0  0  0  0  0  0  0  0  0  0  0  0
   47.2830   31.3090   47.0640 C   0  0  0  0  0  0  0  0  0  0  0  0
   48.1120   30.6140   46.9110 H   0  0  0  0  0  0  0  0  0  0  0  0
   46.5250   31.2610   48.2090 C   0  0  0  0  0  3  0  0  0  0  0  0
   45.4760   32.1650   48.3650 C   0  0  0  0  0  3  0  0  0  0  0  0
   45.1950   33.0880   47.4080 N   0  0  0  0  0  0  0  0  0  0  0  0
   46.7020   34.8190   41.7920 O   0  0  0  0  0  0  0  0  0  0  0  0
   48.6950   33.2260   41.0970 O   0  0  0  0  0  0  0  0  0  0  0  0
   48.3930   34.5830   41.7140 P   0  0  0  0  0  0  0  0  0  0  0  0
   49.0690   35.8340   40.8410 O   0  0  0  0  0  0  0  0  0  0  0  0
   49.2710   35.5040   39.9170 H   0  0  0  0  0  0  0  0  0  0  0  0
   48.9600   34.5650   43.3250 O   0  0  0  0  0  0  0  0  0  0  0  0
   48.8830   35.5030   43.6380 H   0  0  0  0  0  0  0  0  0  0  0  0
  1  7  1  0  0  0  0
  1  6  1  0  0  0  0
  2  1  2  0  0  0  0
  3  2  1  0  0  0  0
  3  4  2  0  0  0  0
  4  5  1  0  0  0  0
  5  6  2  0  0  0  0
  5  9  1  0  0  0  0
  8  2  1  0  0  0  0
  9 16  1  0  0  0  0
 10  9  2  0  0  0  0
 10 12  1  0  0  0  0
 11 10  1  0  0  0  0
 12 14  2  0  0  0  0
 13 12  1  0  0  0  0
 14 15  1  0  0  0  0
 16 15  2  0  0  0  0
 17  3  1  0  0  0  0
 18 19  2  0  0  0  0
 19 17  1  0  0  0  0
 19 22  1  0  0  0  0
 20 19  1  0  0  0  0
 21 20  1  0  0  0  0
 22 23  1  0  0  0  0
M  END
>  <minimizedAffinity>
-5.75518847

>  <minimizedRMSD>
0.341041476

$$$$
