
 OpenBabel03252506273D

 44 48  0  0  0  0  0  0  0  0999 V2000
   36.0470   30.0270   38.5980 C   0  0  0  0  0  0  0  0  0  0  0  0
   35.4820   30.8480   39.1190 H   0  0  0  0  0  0  0  0  0  0  0  0
   35.3020   29.5820   37.9060 H   0  0  0  0  0  0  0  0  0  0  0  0
   36.7540   27.7270   39.5620 C   0  0  0  0  0  0  0  0  0  0  0  0
   36.4280   29.0710   39.6400 C   0  0  0  0  0  0  0  0  0  0  0  0
   36.4600   29.6310   40.9250 C   0  0  0  0  0  0  0  0  0  0  0  0
   36.7940   28.8940   42.0390 C   0  0  0  0  0  0  0  0  0  0  0  0
   36.9040   29.1540   43.3430 N   0  0  0  0  0  0  0  0  0  0  0  0
   37.2730   28.0620   44.0360 C   0  0  0  0  0  0  0  0  0  0  0  0
   37.4150   27.0120   43.1490 C   0  0  0  0  0  0  0  0  0  0  0  0
   37.1130   27.5550   41.9200 C   0  0  0  0  0  0  0  0  0  0  0  0
   37.0840   27.0020   40.6670 C   0  0  0  0  0  0  0  0  0  0  0  0
   36.7010   27.3940   38.5430 H   0  0  0  0  0  0  0  0  0  0  0  0
   36.2280   30.6680   41.1370 H   0  0  0  0  0  0  0  0  0  0  0  0
   36.7280   30.0970   43.7810 H   0  0  0  0  0  0  0  0  0  0  0  0
   37.4310   28.0150   45.1170 H   0  0  0  0  0  0  0  0  0  0  0  0
   37.7020   26.0370   43.4640 H   0  0  0  0  0  0  0  0  0  0  0  0
   37.4140   25.5870   40.4960 C   0  0  0  0  0  0  0  0  0  0  0  0
   36.4690   24.6210   40.2550 C   0  0  0  0  0  0  0  0  0  0  0  0
   35.4260   24.8530   40.1770 H   0  0  0  0  0  0  0  0  0  0  0  0
   36.7380   23.2830   40.0890 C   0  0  0  0  0  0  0  0  0  0  0  0
   35.9600   22.5330   39.8970 H   0  0  0  0  0  0  0  0  0  0  0  0
   38.0410   22.8490   40.1660 C   0  0  0  0  0  3  0  0  0  0  0  0
   38.9640   23.8160   40.4040 C   0  0  0  0  0  3  0  0  0  0  0  0
   38.6620   25.0990   40.5590 N   0  0  0  0  0  0  0  0  0  0  0  0
   37.1490   30.6670   37.8540 C   0  0  0  0  0  0  0  0  0  0  0  0
   36.8140   31.0540   36.8950 H   0  0  0  0  0  0  0  0  0  0  0  0
   37.9320   29.9170   37.6550 H   0  0  0  0  0  0  0  0  0  0  0  0
   39.2630   32.8920   39.6900 C   0  0  0  0  0  0  0  0  0  0  0  0
   37.9960   33.5160   39.8240 C   0  0  0  0  0  0  0  0  0  0  0  0
   37.0660   32.7750   39.1670 C   0  0  0  0  0  0  0  0  0  0  0  0
   37.7380   31.7380   38.6500 N   0  0  0  0  0  0  0  0  0  0  0  0
   39.0460   31.8040   38.9610 N   0  0  0  0  0  0  0  0  0  0  0  0
   37.7870   34.4400   40.3640 H   0  0  0  0  0  0  0  0  0  0  0  0
   36.0060   32.9550   39.0630 H   0  0  0  0  0  0  0  0  0  0  0  0
   41.7730   35.3000   40.8020 C   0  0  0  0  0  0  0  0  0  0  0  0
   42.7500   34.4930   41.3610 C   0  0  0  0  0  0  0  0  0  0  0  0
   42.5570   33.0980   41.3640 C   0  0  0  0  0  0  0  0  0  0  0  0
   41.4080   32.6360   40.8100 N   0  0  0  0  0  0  0  0  0  0  0  0
   40.4790   33.4230   40.2760 C   0  0  0  0  0  0  0  0  0  0  0  0
   40.6640   34.7570   40.2750 N   0  0  0  0  0  0  0  0  0  0  0  0
   41.8690   36.3770   40.7730 H   0  0  0  0  0  0  0  0  0  0  0  0
   43.6310   34.9360   41.7800 H   0  0  0  0  0  0  0  0  0  0  0  0
   43.2810   32.4430   41.7820 H   0  0  0  0  0  0  0  0  0  0  0  0
  1  2  1  0  0  0  0
  1  5  1  0  0  0  0
  3  1  1  0  0  0  0
  4  5  2  0  0  0  0
  4 12  1  0  0  0  0
  5  6  1  0  0  0  0
  6 14  1  0  0  0  0
  6  7  2  0  0  0  0
  7  8  1  0  0  0  0
  8 15  1  0  0  0  0
  8  9  1  0  0  0  0
  9 16  1  0  0  0  0
 10 17  1  0  0  0  0
 10  9  2  0  0  0  0
 11  7  1  0  0  0  0
 11 10  1  0  0  0  0
 12 11  2  0  0  0  0
 13  4  1  0  0  0  0
 18 25  1  0  0  0  0
 18 12  1  0  0  0  0
 19 18  2  0  0  0  0
 20 19  1  0  0  0  0
 21 23  2  0  0  0  0
 21 19  1  0  0  0  0
 22 21  1  0  0  0  0
 23 24  1  0  0  0  0
 24 25  2  0  0  0  0
 26  1  1  0  0  0  0
 26 32  1  0  0  0  0
 27 26  1  0  0  0  0
 28 26  1  0  0  0  0
 29 30  1  0  0  0  0
 29 40  1  0  0  0  0
 30 34  1  0  0  0  0
 31 30  2  0  0  0  0
 32 33  1  0  0  0  0
 32 31  1  0  0  0  0
 33 29  2  0  0  0  0
 35 31  1  0  0  0  0
 36 37  1  0  0  0  0
 37 38  2  0  0  0  0
 37 43  1  0  0  0  0
 38 44  1  0  0  0  0
 39 38  1  0  0  0  0
 40 39  2  0  0  0  0
 41 40  1  0  0  0  0
 41 36  2  0  0  0  0
 42 36  1  0  0  0  0
M  END
>  <minimizedAffinity>
-6.80766296

$$$$

 OpenBabel03252506273D

 44 48  0  0  0  0  0  0  0  0999 V2000
   35.5700   29.6410   38.5470 C   0  0  0  0  0  0  0  0  0  0  0  0
   35.3370   30.6250   39.0400 H   0  0  0  0  0  0  0  0  0  0  0  0
   34.5830   29.2730   38.1980 H   0  0  0  0  0  0  0  0  0  0  0  0
   36.5520   27.4650   39.5580 C   0  0  0  0  0  0  0  0  0  0  0  0
   36.1070   28.7770   39.6000 C   0  0  0  0  0  0  0  0  0  0  0  0
   36.1730   29.4000   40.8540 C   0  0  0  0  0  0  0  0  0  0  0  0
   36.6490   28.7530   41.9720 C   0  0  0  0  0  0  0  0  0  0  0  0
   36.8220   29.0870   43.2520 N   0  0  0  0  0  0  0  0  0  0  0  0
   37.3370   28.0670   43.9640 C   0  0  0  0  0  0  0  0  0  0  0  0
   37.5170   26.9920   43.1150 C   0  0  0  0  0  0  0  0  0  0  0  0
   37.0840   27.4440   41.8890 C   0  0  0  0  0  0  0  0  0  0  0  0
   37.0210   26.8290   40.6660 C   0  0  0  0  0  0  0  0  0  0  0  0
   36.4620   27.0790   38.5600 H   0  0  0  0  0  0  0  0  0  0  0  0
   35.8610   30.4210   41.0370 H   0  0  0  0  0  0  0  0  0  0  0  0
   36.5890   30.0300   43.6610 H   0  0  0  0  0  0  0  0  0  0  0  0
   37.5710   28.0890   45.0320 H   0  0  0  0  0  0  0  0  0  0  0  0
   37.9140   26.0640   43.4510 H   0  0  0  0  0  0  0  0  0  0  0  0
   37.4700   25.4430   40.5330 C   0  0  0  0  0  0  0  0  0  0  0  0
   36.6070   24.3760   40.5030 C   0  0  0  0  0  0  0  0  0  0  0  0
   35.5460   24.5010   40.5740 H   0  0  0  0  0  0  0  0  0  0  0  0
   36.9880   23.0600   40.3800 C   0  0  0  0  0  0  0  0  0  0  0  0
   36.2740   22.2270   40.3590 H   0  0  0  0  0  0  0  0  0  0  0  0
   38.3270   22.7600   40.2790 C   0  0  0  0  0  3  0  0  0  0  0  0
   39.1670   23.8250   40.3110 C   0  0  0  0  0  3  0  0  0  0  0  0
   38.7580   25.0820   40.4310 N   0  0  0  0  0  0  0  0  0  0  0  0
   36.4640   29.9310   37.4090 C   0  0  0  0  0  0  0  0  0  0  0  0
   35.9690   30.5380   36.6550 H   0  0  0  0  0  0  0  0  0  0  0  0
   36.7580   28.9810   36.9330 H   0  0  0  0  0  0  0  0  0  0  0  0
   38.9310   32.1490   38.7440 C   0  0  0  0  0  0  0  0  0  0  0  0
   39.7180   31.0310   38.3660 C   0  0  0  0  0  0  0  0  0  0  0  0
   38.9080   30.0810   37.8300 C   0  0  0  0  0  0  0  0  0  0  0  0
   37.6740   30.5980   37.8780 N   0  0  0  0  0  0  0  0  0  0  0  0
   37.6830   31.8300   38.4210 N   0  0  0  0  0  0  0  0  0  0  0  0
   40.7970   30.9360   38.4820 H   0  0  0  0  0  0  0  0  0  0  0  0
   39.1710   29.1090   37.4400 H   0  0  0  0  0  0  0  0  0  0  0  0
   41.3400   34.7370   39.6580 C   0  0  0  0  0  0  0  0  0  0  0  0
   40.5950   35.5830   40.4630 C   0  0  0  0  0  0  0  0  0  0  0  0
   39.2420   35.2740   40.7030 C   0  0  0  0  0  0  0  0  0  0  0  0
   38.7570   34.1490   40.1200 N   0  0  0  0  0  0  0  0  0  0  0  0
   39.4850   33.3460   39.3500 C   0  0  0  0  0  0  0  0  0  0  0  0
   40.7780   33.6430   39.1200 N   0  0  0  0  0  0  0  0  0  0  0  0
   42.3820   34.9270   39.4400 H   0  0  0  0  0  0  0  0  0  0  0  0
   41.0530   36.4550   40.8870 H   0  0  0  0  0  0  0  0  0  0  0  0
   38.6350   35.8950   41.3140 H   0  0  0  0  0  0  0  0  0  0  0  0
  1  2  1  0  0  0  0
  1  5  1  0  0  0  0
  3  1  1  0  0  0  0
  4  5  2  0  0  0  0
  4 12  1  0  0  0  0
  5  6  1  0  0  0  0
  6 14  1  0  0  0  0
  6  7  2  0  0  0  0
  7  8  1  0  0  0  0
  8 15  1  0  0  0  0
  8  9  1  0  0  0  0
  9 16  1  0  0  0  0
 10 17  1  0  0  0  0
 10  9  2  0  0  0  0
 11  7  1  0  0  0  0
 11 10  1  0  0  0  0
 12 11  2  0  0  0  0
 13  4  1  0  0  0  0
 18 12  1  0  0  0  0
 19 18  1  0  0  0  0
 19 20  1  0  0  0  0
 21 19  2  0  0  0  0
 22 21  1  0  0  0  0
 23 24  2  0  0  0  0
 23 21  1  0  0  0  0
 24 25  1  0  0  0  0
 25 18  2  0  0  0  0
 26 32  1  0  0  0  0
 26  1  1  0  0  0  0
 27 26  1  0  0  0  0
 28 26  1  0  0  0  0
 29 40  1  0  0  0  0
 30 34  1  0  0  0  0
 30 29  1  0  0  0  0
 31 32  1  0  0  0  0
 31 30  2  0  0  0  0
 32 33  1  0  0  0  0
 33 29  2  0  0  0  0
 35 31  1  0  0  0  0
 36 37  1  0  0  0  0
 37 38  2  0  0  0  0
 37 43  1  0  0  0  0
 38 44  1  0  0  0  0
 39 38  1  0  0  0  0
 40 39  2  0  0  0  0
 41 40  1  0  0  0  0
 41 36  2  0  0  0  0
 42 36  1  0  0  0  0
M  END
>  <minimizedAffinity>
-6.77284431

$$$$

 OpenBabel03252506273D

 44 48  0  0  0  0  0  0  0  0999 V2000
   37.4480   32.4590   38.6680 C   0  0  0  0  0  0  0  0  0  0  0  0
   36.6100   32.6980   37.9560 H   0  0  0  0  0  0  0  0  0  0  0  0
   38.3660   32.6060   38.0630 H   0  0  0  0  0  0  0  0  0  0  0  0
   37.6990   30.3480   40.1520 C   0  0  0  0  0  0  0  0  0  0  0  0
   37.2820   31.0500   39.0320 C   0  0  0  0  0  0  0  0  0  0  0  0
   36.5840   30.3040   38.0720 C   0  0  0  0  0  0  0  0  0  0  0  0
   36.3270   28.9620   38.2300 C   0  0  0  0  0  0  0  0  0  0  0  0
   35.7050   28.0290   37.5070 N   0  0  0  0  0  0  0  0  0  0  0  0
   35.7260   26.8320   38.1200 C   0  0  0  0  0  0  0  0  0  0  0  0
   36.3990   26.9680   39.3190 C   0  0  0  0  0  0  0  0  0  0  0  0
   36.7600   28.2960   39.3620 C   0  0  0  0  0  0  0  0  0  0  0  0
   37.4430   29.0200   40.3030 C   0  0  0  0  0  0  0  0  0  0  0  0
   38.2210   31.0030   40.8230 H   0  0  0  0  0  0  0  0  0  0  0  0
   36.1990   30.7200   37.1490 H   0  0  0  0  0  0  0  0  0  0  0  0
   35.2520   28.2030   36.5710 H   0  0  0  0  0  0  0  0  0  0  0  0
   35.2850   25.9090   37.7320 H   0  0  0  0  0  0  0  0  0  0  0  0
   36.5450   26.1520   39.9840 H   0  0  0  0  0  0  0  0  0  0  0  0
   37.9200   28.3550   41.5160 C   0  0  0  0  0  0  0  0  0  0  0  0
   37.2250   28.3680   42.7000 C   0  0  0  0  0  0  0  0  0  0  0  0
   36.2850   28.8710   42.8020 H   0  0  0  0  0  0  0  0  0  0  0  0
   37.6380   27.7570   43.8610 C   0  0  0  0  0  0  0  0  0  0  0  0
   37.0600   27.7850   44.7930 H   0  0  0  0  0  0  0  0  0  0  0  0
   38.8330   27.0750   43.8670 C   0  0  0  0  0  3  0  0  0  0  0  0
   39.5080   27.0710   42.6900 C   0  0  0  0  0  3  0  0  0  0  0  0
   39.0730   27.6750   41.5900 N   0  0  0  0  0  0  0  0  0  0  0  0
   37.3710   33.4400   39.7680 C   0  0  0  0  0  0  0  0  0  0  0  0
   37.0920   32.9680   40.7060 H   0  0  0  0  0  0  0  0  0  0  0  0
   36.5970   34.1890   39.5280 H   0  0  0  0  0  0  0  0  0  0  0  0
   40.8010   34.4210   40.0180 C   0  0  0  0  0  0  0  0  0  0  0  0
   40.1300   35.6590   40.1890 C   0  0  0  0  0  0  0  0  0  0  0  0
   38.7890   35.4500   40.1190 C   0  0  0  0  0  0  0  0  0  0  0  0
   38.6450   34.1340   39.9120 N   0  0  0  0  0  0  0  0  0  0  0  0
   39.8410   33.5180   39.8520 N   0  0  0  0  0  0  0  0  0  0  0  0
   40.6000   36.6280   40.3520 H   0  0  0  0  0  0  0  0  0  0  0  0
   37.9860   36.1660   40.2060 H   0  0  0  0  0  0  0  0  0  0  0  0
   44.2360   34.4610   41.2580 C   0  0  0  0  0  0  0  0  0  0  0  0
   44.9680   34.0590   40.1530 C   0  0  0  0  0  0  0  0  0  0  0  0
   44.2850   33.7650   38.9560 C   0  0  0  0  0  0  0  0  0  0  0  0
   42.9350   33.8990   38.9720 N   0  0  0  0  0  0  0  0  0  0  0  0
   42.2450   34.2870   40.0400 C   0  0  0  0  0  0  0  0  0  0  0  0
   42.8990   34.5670   41.1840 N   0  0  0  0  0  0  0  0  0  0  0  0
   44.7080   34.6990   42.2010 H   0  0  0  0  0  0  0  0  0  0  0  0
   46.0350   33.9770   40.2220 H   0  0  0  0  0  0  0  0  0  0  0  0
   44.8080   33.4540   38.0860 H   0  0  0  0  0  0  0  0  0  0  0  0
  1  5  1  0  0  0  0
  1 26  1  0  0  0  0
  2  1  1  0  0  0  0
  3  1  1  0  0  0  0
  4 12  1  0  0  0  0
  4 13  1  0  0  0  0
  5  4  2  0  0  0  0
  6  7  2  0  0  0  0
  6  5  1  0  0  0  0
  7 11  1  0  0  0  0
  8  9  1  0  0  0  0
  8  7  1  0  0  0  0
  9 10  2  0  0  0  0
 10 11  1  0  0  0  0
 10 17  1  0  0  0  0
 11 12  2  0  0  0  0
 12 18  1  0  0  0  0
 14  6  1  0  0  0  0
 15  8  1  0  0  0  0
 16  9  1  0  0  0  0
 18 25  2  0  0  0  0
 18 19  1  0  0  0  0
 19 20  1  0  0  0  0
 19 21  2  0  0  0  0
 21 23  1  0  0  0  0
 21 22  1  0  0  0  0
 24 23  2  0  0  0  0
 25 24  1  0  0  0  0
 26 32  1  0  0  0  0
 26 27  1  0  0  0  0
 28 26  1  0  0  0  0
 29 40  1  0  0  0  0
 29 30  1  0  0  0  0
 30 34  1  0  0  0  0
 31 30  2  0  0  0  0
 31 35  1  0  0  0  0
 32 31  1  0  0  0  0
 33 32  1  0  0  0  0
 33 29  2  0  0  0  0
 36 42  1  0  0  0  0
 37 43  1  0  0  0  0
 37 36  2  0  0  0  0
 38 39  2  0  0  0  0
 38 37  1  0  0  0  0
 39 40  1  0  0  0  0
 40 41  2  0  0  0  0
 41 36  1  0  0  0  0
 44 38  1  0  0  0  0
M  END
>  <minimizedAffinity>
-6.504879

$$$$

 OpenBabel03252506273D

 44 48  0  0  0  0  0  0  0  0999 V2000
   36.1210   28.7180   41.6220 C   0  0  0  0  0  0  0  0  0  0  0  0
   36.6050   29.6560   42.0080 H   0  0  0  0  0  0  0  0  0  0  0  0
   35.2650   28.5520   42.3080 H   0  0  0  0  0  0  0  0  0  0  0  0
   37.2860   26.4670   41.0740 C   0  0  0  0  0  0  0  0  0  0  0  0
   37.1190   27.6560   41.7670 C   0  0  0  0  0  0  0  0  0  0  0  0
   38.0530   27.9040   42.7820 C   0  0  0  0  0  0  0  0  0  0  0  0
   39.0710   27.0240   43.0750 C   0  0  0  0  0  0  0  0  0  0  0  0
   40.0720   27.0000   43.9560 N   0  0  0  0  0  0  0  0  0  0  0  0
   40.8140   25.8850   43.8320 C   0  0  0  0  0  0  0  0  0  0  0  0
   40.2810   25.1190   42.8130 C   0  0  0  0  0  0  0  0  0  0  0  0
   39.2030   25.8480   42.3610 C   0  0  0  0  0  0  0  0  0  0  0  0
   38.2930   25.6000   41.3670 C   0  0  0  0  0  0  0  0  0  0  0  0
   36.5260   26.3700   40.3220 H   0  0  0  0  0  0  0  0  0  0  0  0
   38.0470   28.7910   43.4040 H   0  0  0  0  0  0  0  0  0  0  0  0
   40.2640   27.7580   44.6640 H   0  0  0  0  0  0  0  0  0  0  0  0
   41.6890   25.6300   44.4370 H   0  0  0  0  0  0  0  0  0  0  0  0
   40.6990   24.1840   42.5270 H   0  0  0  0  0  0  0  0  0  0  0  0
   38.3960   24.3660   40.5880 C   0  0  0  0  0  0  0  0  0  0  0  0
   37.7190   23.2170   40.9120 C   0  0  0  0  0  0  0  0  0  0  0  0
   37.0700   23.1600   41.7630 H   0  0  0  0  0  0  0  0  0  0  0  0
   37.7890   22.0380   40.2080 C   0  0  0  0  0  0  0  0  0  0  0  0
   37.2340   21.1340   40.4920 H   0  0  0  0  0  0  0  0  0  0  0  0
   38.5890   21.9750   39.0910 C   0  0  0  0  0  3  0  0  0  0  0  0
   39.2520   23.1180   38.7830 C   0  0  0  0  0  3  0  0  0  0  0  0
   39.1570   24.2370   39.4920 N   0  0  0  0  0  0  0  0  0  0  0  0
   35.6560   29.0060   40.2510 C   0  0  0  0  0  0  0  0  0  0  0  0
   34.5940   29.2360   40.2270 H   0  0  0  0  0  0  0  0  0  0  0  0
   35.8190   28.1150   39.6220 H   0  0  0  0  0  0  0  0  0  0  0  0
   37.7170   31.8580   39.6110 C   0  0  0  0  0  0  0  0  0  0  0  0
   37.3200   31.4850   38.3020 C   0  0  0  0  0  0  0  0  0  0  0  0
   36.5150   30.3930   38.3770 C   0  0  0  0  0  0  0  0  0  0  0  0
   36.4230   30.1090   39.6820 N   0  0  0  0  0  0  0  0  0  0  0  0
   37.1370   30.9790   40.4210 N   0  0  0  0  0  0  0  0  0  0  0  0
   37.6070   31.9840   37.3760 H   0  0  0  0  0  0  0  0  0  0  0  0
   36.0370   29.8480   37.5770 H   0  0  0  0  0  0  0  0  0  0  0  0
   38.7850   35.2960   40.2250 C   0  0  0  0  0  0  0  0  0  0  0  0
   40.1520   35.1670   40.4120 C   0  0  0  0  0  0  0  0  0  0  0  0
   40.7290   33.8850   40.3300 C   0  0  0  0  0  0  0  0  0  0  0  0
   39.8910   32.8500   40.0690 N   0  0  0  0  0  0  0  0  0  0  0  0
   38.5810   32.9890   39.8910 C   0  0  0  0  0  0  0  0  0  0  0  0
   38.0300   34.2160   39.9700 N   0  0  0  0  0  0  0  0  0  0  0  0
   38.2890   36.2560   40.2770 H   0  0  0  0  0  0  0  0  0  0  0  0
   40.7460   36.0350   40.6150 H   0  0  0  0  0  0  0  0  0  0  0  0
   41.7720   33.7410   40.4670 H   0  0  0  0  0  0  0  0  0  0  0  0
  1  5  1  0  0  0  0
  1  2  1  0  0  0  0
  1  3  1  0  0  0  0
  4 12  2  0  0  0  0
  4  5  1  0  0  0  0
  5  6  2  0  0  0  0
  6  7  1  0  0  0  0
  6 14  1  0  0  0  0
  7  8  1  0  0  0  0
  8 15  1  0  0  0  0
  9  8  1  0  0  0  0
  9 16  1  0  0  0  0
 10  9  2  0  0  0  0
 11 10  1  0  0  0  0
 11  7  2  0  0  0  0
 12 11  1  0  0  0  0
 13  4  1  0  0  0  0
 17 10  1  0  0  0  0
 18 19  1  0  0  0  0
 18 12  1  0  0  0  0
 19 20  1  0  0  0  0
 21 22  1  0  0  0  0
 21 19  2  0  0  0  0
 23 21  1  0  0  0  0
 24 23  2  0  0  0  0
 24 25  1  0  0  0  0
 25 18  2  0  0  0  0
 26  1  1  0  0  0  0
 27 26  1  0  0  0  0
 28 26  1  0  0  0  0
 29 40  1  0  0  0  0
 29 33  2  0  0  0  0
 30 31  2  0  0  0  0
 30 29  1  0  0  0  0
 31 32  1  0  0  0  0
 32 26  1  0  0  0  0
 32 33  1  0  0  0  0
 34 30  1  0  0  0  0
 35 31  1  0  0  0  0
 36 42  1  0  0  0  0
 36 37  1  0  0  0  0
 37 43  1  0  0  0  0
 38 37  2  0  0  0  0
 38 44  1  0  0  0  0
 39 38  1  0  0  0  0
 40 41  1  0  0  0  0
 40 39  2  0  0  0  0
 41 36  2  0  0  0  0
M  END
>  <minimizedAffinity>
-6.41709375

$$$$

 OpenBabel03252506273D

 44 48  0  0  0  0  0  0  0  0999 V2000
   35.2420   29.4780   38.7550 C   0  0  0  0  0  0  0  0  0  0  0  0
   35.0550   30.4660   39.2590 H   0  0  0  0  0  0  0  0  0  0  0  0
   34.2270   29.0970   38.5210 H   0  0  0  0  0  0  0  0  0  0  0  0
   36.4090   27.3460   39.6570 C   0  0  0  0  0  0  0  0  0  0  0  0
   35.9010   28.6320   39.7520 C   0  0  0  0  0  0  0  0  0  0  0  0
   36.0290   29.2430   41.0070 C   0  0  0  0  0  0  0  0  0  0  0  0
   36.6190   28.6100   42.0760 C   0  0  0  0  0  0  0  0  0  0  0  0
   36.8710   28.9380   43.3450 N   0  0  0  0  0  0  0  0  0  0  0  0
   37.4890   27.9390   44.0010 C   0  0  0  0  0  0  0  0  0  0  0  0
   37.6610   26.8840   43.1250 C   0  0  0  0  0  0  0  0  0  0  0  0
   37.1140   27.3270   41.9410 C   0  0  0  0  0  0  0  0  0  0  0  0
   36.9920   26.7230   40.7170 C   0  0  0  0  0  0  0  0  0  0  0  0
   36.2640   26.9660   38.6630 H   0  0  0  0  0  0  0  0  0  0  0  0
   35.6780   30.2440   41.2270 H   0  0  0  0  0  0  0  0  0  0  0  0
   36.6200   29.8630   43.7840 H   0  0  0  0  0  0  0  0  0  0  0  0
   37.8010   27.9610   45.0490 H   0  0  0  0  0  0  0  0  0  0  0  0
   38.1300   25.9750   43.4160 H   0  0  0  0  0  0  0  0  0  0  0  0
   37.5010   25.3640   40.5300 C   0  0  0  0  0  0  0  0  0  0  0  0
   36.7280   24.2440   40.7060 C   0  0  0  0  0  0  0  0  0  0  0  0
   35.6970   24.3040   40.9920 H   0  0  0  0  0  0  0  0  0  0  0  0
   37.1670   22.9510   40.5420 C   0  0  0  0  0  0  0  0  0  0  0  0
   36.5250   22.0740   40.6900 H   0  0  0  0  0  0  0  0  0  0  0  0
   38.4750   22.7330   40.1750 C   0  0  0  0  0  3  0  0  0  0  0  0
   39.2270   23.8500   40.0050 C   0  0  0  0  0  3  0  0  0  0  0  0
   38.7630   25.0820   40.1740 N   0  0  0  0  0  0  0  0  0  0  0  0
   36.0020   29.7610   37.5220 C   0  0  0  0  0  0  0  0  0  0  0  0
   35.3690   30.1940   36.7520 H   0  0  0  0  0  0  0  0  0  0  0  0
   36.4090   28.8160   37.1260 H   0  0  0  0  0  0  0  0  0  0  0  0
   39.1510   31.4350   37.7890 C   0  0  0  0  0  0  0  0  0  0  0  0
   38.3100   32.2680   38.5710 C   0  0  0  0  0  0  0  0  0  0  0  0
   37.0520   31.7550   38.5680 C   0  0  0  0  0  0  0  0  0  0  0  0
   37.1210   30.6500   37.8140 N   0  0  0  0  0  0  0  0  0  0  0  0
   38.3690   30.4560   37.3490 N   0  0  0  0  0  0  0  0  0  0  0  0
   38.6110   33.1760   39.0940 H   0  0  0  0  0  0  0  0  0  0  0  0
   36.1660   32.1320   39.0570 H   0  0  0  0  0  0  0  0  0  0  0  0
   42.3140   33.2470   37.5720 C   0  0  0  0  0  0  0  0  0  0  0  0
   43.2140   32.2570   37.2110 C   0  0  0  0  0  0  0  0  0  0  0  0
   42.7420   30.9410   37.0380 C   0  0  0  0  0  0  0  0  0  0  0  0
   41.4160   30.7340   37.2390 N   0  0  0  0  0  0  0  0  0  0  0  0
   40.5640   31.6950   37.5840 C   0  0  0  0  0  0  0  0  0  0  0  0
   41.0170   32.9520   37.7510 N   0  0  0  0  0  0  0  0  0  0  0  0
   42.6220   34.2730   37.7180 H   0  0  0  0  0  0  0  0  0  0  0  0
   44.2480   32.5020   37.0710 H   0  0  0  0  0  0  0  0  0  0  0  0
   43.3970   30.1530   36.7620 H   0  0  0  0  0  0  0  0  0  0  0  0
  1  2  1  0  0  0  0
  1  5  1  0  0  0  0
  3  1  1  0  0  0  0
  4  5  2  0  0  0  0
  4 12  1  0  0  0  0
  5  6  1  0  0  0  0
  6 14  1  0  0  0  0
  6  7  2  0  0  0  0
  7  8  1  0  0  0  0
  8 15  1  0  0  0  0
  8  9  1  0  0  0  0
  9 16  1  0  0  0  0
 10 17  1  0  0  0  0
 10  9  2  0  0  0  0
 11  7  1  0  0  0  0
 11 10  1  0  0  0  0
 12 11  2  0  0  0  0
 13  4  1  0  0  0  0
 18 19  1  0  0  0  0
 18 12  1  0  0  0  0
 19 20  1  0  0  0  0
 21 22  1  0  0  0  0
 21 19  2  0  0  0  0
 23 21  1  0  0  0  0
 24 25  1  0  0  0  0
 24 23  2  0  0  0  0
 25 18  2  0  0  0  0
 26 32  1  0  0  0  0
 26  1  1  0  0  0  0
 27 26  1  0  0  0  0
 28 26  1  0  0  0  0
 29 30  1  0  0  0  0
 30 34  1  0  0  0  0
 31 30  2  0  0  0  0
 31 35  1  0  0  0  0
 32 31  1  0  0  0  0
 33 29  2  0  0  0  0
 33 32  1  0  0  0  0
 36 42  1  0  0  0  0
 36 41  1  0  0  0  0
 37 36  2  0  0  0  0
 38 37  1  0  0  0  0
 38 39  2  0  0  0  0
 39 40  1  0  0  0  0
 40 41  2  0  0  0  0
 40 29  1  0  0  0  0
 43 37  1  0  0  0  0
 44 38  1  0  0  0  0
M  END
>  <minimizedAffinity>
-6.3878603

$$$$

 OpenBabel03252506273D

 44 48  0  0  0  0  0  0  0  0999 V2000
   36.5770   31.0140   39.5400 C   0  0  0  0  0  0  0  0  0  0  0  0
   36.7950   30.0290   39.0440 H   0  0  0  0  0  0  0  0  0  0  0  0
   35.7900   31.4690   38.9050 H   0  0  0  0  0  0  0  0  0  0  0  0
   39.0760   31.4440   38.9970 C   0  0  0  0  0  0  0  0  0  0  0  0
   37.8190   31.7880   39.4690 C   0  0  0  0  0  0  0  0  0  0  0  0
   37.6930   33.0920   39.9680 C   0  0  0  0  0  0  0  0  0  0  0  0
   38.7470   33.9750   39.9880 C   0  0  0  0  0  0  0  0  0  0  0  0
   38.9130   35.2370   40.3900 N   0  0  0  0  0  0  0  0  0  0  0  0
   40.1750   35.6590   40.1880 C   0  0  0  0  0  0  0  0  0  0  0  0
   40.8940   34.6240   39.6220 C   0  0  0  0  0  0  0  0  0  0  0  0
   39.9870   33.5940   39.5090 C   0  0  0  0  0  0  0  0  0  0  0  0
   40.1160   32.3210   39.0200 C   0  0  0  0  0  0  0  0  0  0  0  0
   39.0700   30.4320   38.6390 H   0  0  0  0  0  0  0  0  0  0  0  0
   36.7710   33.4970   40.3680 H   0  0  0  0  0  0  0  0  0  0  0  0
   38.1540   35.8340   40.8120 H   0  0  0  0  0  0  0  0  0  0  0  0
   40.5620   36.6520   40.4320 H   0  0  0  0  0  0  0  0  0  0  0  0
   41.9230   34.7190   39.3690 H   0  0  0  0  0  0  0  0  0  0  0  0
   41.4110   31.8760   38.5040 C   0  0  0  0  0  0  0  0  0  0  0  0
   42.4070   31.3790   39.3070 C   0  0  0  0  0  0  0  0  0  0  0  0
   42.2890   31.2870   40.3680 H   0  0  0  0  0  0  0  0  0  0  0  0
   43.6360   30.9510   38.8620 C   0  0  0  0  0  0  0  0  0  0  0  0
   44.4130   30.5580   39.5290 H   0  0  0  0  0  0  0  0  0  0  0  0
   43.9170   31.0150   37.5170 C   0  0  0  0  0  3  0  0  0  0  0  0
   42.9230   31.5080   36.7360 C   0  0  0  0  0  3  0  0  0  0  0  0
   41.7490   31.9110   37.2070 N   0  0  0  0  0  0  0  0  0  0  0  0
   36.0630   30.7110   40.8910 C   0  0  0  0  0  0  0  0  0  0  0  0
   34.9780   30.6670   40.9060 H   0  0  0  0  0  0  0  0  0  0  0  0
   36.3740   31.5130   41.5810 H   0  0  0  0  0  0  0  0  0  0  0  0
   38.0730   28.0750   42.2320 C   0  0  0  0  0  0  0  0  0  0  0  0
   36.8780   27.3890   41.8970 C   0  0  0  0  0  0  0  0  0  0  0  0
   35.9950   28.2730   41.3630 C   0  0  0  0  0  0  0  0  0  0  0  0
   36.6250   29.4540   41.3720 N   0  0  0  0  0  0  0  0  0  0  0  0
   37.8640   29.3400   41.8880 N   0  0  0  0  0  0  0  0  0  0  0  0
   36.6850   26.3260   42.0390 H   0  0  0  0  0  0  0  0  0  0  0  0
   34.9930   28.0950   41.0010 H   0  0  0  0  0  0  0  0  0  0  0  0
   40.2110   25.4460   43.5960 C   0  0  0  0  0  0  0  0  0  0  0  0
   41.3640   26.1330   43.9390 C   0  0  0  0  0  0  0  0  0  0  0  0
   41.4240   27.5200   43.7030 C   0  0  0  0  0  0  0  0  0  0  0  0
   40.3280   28.0950   43.1470 N   0  0  0  0  0  0  0  0  0  0  0  0
   39.2270   27.4240   42.8240 C   0  0  0  0  0  0  0  0  0  0  0  0
   39.1720   26.0970   43.0490 N   0  0  0  0  0  0  0  0  0  0  0  0
   40.1110   24.3810   43.7550 H   0  0  0  0  0  0  0  0  0  0  0  0
   42.1890   25.6040   44.3750 H   0  0  0  0  0  0  0  0  0  0  0  0
   42.2880   28.0840   43.9510 H   0  0  0  0  0  0  0  0  0  0  0  0
  1 26  1  0  0  0  0
  2  1  1  0  0  0  0
  3  1  1  0  0  0  0
  4 12  2  0  0  0  0
  4  5  1  0  0  0  0
  5  1  1  0  0  0  0
  5  6  2  0  0  0  0
  6  7  1  0  0  0  0
  6 14  1  0  0  0  0
  7  8  1  0  0  0  0
  8 15  1  0  0  0  0
  9  8  1  0  0  0  0
  9 16  1  0  0  0  0
 10  9  2  0  0  0  0
 11 10  1  0  0  0  0
 11  7  2  0  0  0  0
 12 11  1  0  0  0  0
 13  4  1  0  0  0  0
 17 10  1  0  0  0  0
 18 12  1  0  0  0  0
 18 19  1  0  0  0  0
 19 20  1  0  0  0  0
 21 19  2  0  0  0  0
 21 22  1  0  0  0  0
 23 21  1  0  0  0  0
 24 25  1  0  0  0  0
 24 23  2  0  0  0  0
 25 18  2  0  0  0  0
 26 27  1  0  0  0  0
 26 32  1  0  0  0  0
 26 28  1  0  0  0  0
 29 40  1  0  0  0  0
 30 34  1  0  0  0  0
 30 29  1  0  0  0  0
 31 32  1  0  0  0  0
 31 30  2  0  0  0  0
 32 33  1  0  0  0  0
 33 29  2  0  0  0  0
 35 31  1  0  0  0  0
 36 42  1  0  0  0  0
 36 37  1  0  0  0  0
 37 43  1  0  0  0  0
 38 37  2  0  0  0  0
 38 44  1  0  0  0  0
 39 38  1  0  0  0  0
 40 41  1  0  0  0  0
 40 39  2  0  0  0  0
 41 36  2  0  0  0  0
M  END
>  <minimizedAffinity>
-6.38466406

$$$$

 OpenBabel03252506273D

 44 48  0  0  0  0  0  0  0  0999 V2000
   38.2330   31.6970   39.4090 C   0  0  0  0  0  0  0  0  0  0  0  0
   37.4210   31.4330   38.6770 H   0  0  0  0  0  0  0  0  0  0  0  0
   39.1230   31.8770   38.7720 H   0  0  0  0  0  0  0  0  0  0  0  0
   39.2800   29.4320   40.1120 C   0  0  0  0  0  0  0  0  0  0  0  0
   38.4240   30.5130   40.2490 C   0  0  0  0  0  0  0  0  0  0  0  0
   37.5890   30.4870   41.3750 C   0  0  0  0  0  0  0  0  0  0  0  0
   37.6160   29.4560   42.2860 C   0  0  0  0  0  0  0  0  0  0  0  0
   36.9590   29.1760   43.4130 N   0  0  0  0  0  0  0  0  0  0  0  0
   37.3680   28.0120   43.9480 C   0  0  0  0  0  0  0  0  0  0  0  0
   38.3510   27.4810   43.1350 C   0  0  0  0  0  0  0  0  0  0  0  0
   38.4850   28.3960   42.1150 C   0  0  0  0  0  0  0  0  0  0  0  0
   39.3040   28.4150   41.0160 C   0  0  0  0  0  0  0  0  0  0  0  0
   39.8740   29.5440   39.2250 H   0  0  0  0  0  0  0  0  0  0  0  0
   36.8700   31.2630   41.6100 H   0  0  0  0  0  0  0  0  0  0  0  0
   36.2130   29.7880   43.8380 H   0  0  0  0  0  0  0  0  0  0  0  0
   36.9840   27.5630   44.8690 H   0  0  0  0  0  0  0  0  0  0  0  0
   38.8300   26.5570   43.3530 H   0  0  0  0  0  0  0  0  0  0  0  0
   40.2390   27.3110   40.7950 C   0  0  0  0  0  0  0  0  0  0  0  0
   41.5400   27.3330   41.2320 C   0  0  0  0  0  0  0  0  0  0  0  0
   41.9470   28.1690   41.7640 H   0  0  0  0  0  0  0  0  0  0  0  0
   42.4490   26.3190   41.0440 C   0  0  0  0  0  0  0  0  0  0  0  0
   43.4850   26.3650   41.4050 H   0  0  0  0  0  0  0  0  0  0  0  0
   42.0550   25.1850   40.3730 C   0  0  0  0  0  3  0  0  0  0  0  0
   40.7650   25.1770   39.9480 C   0  0  0  0  0  3  0  0  0  0  0  0
   39.9190   26.1800   40.1500 N   0  0  0  0  0  0  0  0  0  0  0  0
   37.8090   32.9330   40.0950 C   0  0  0  0  0  0  0  0  0  0  0  0
   37.3640   32.7210   41.0640 H   0  0  0  0  0  0  0  0  0  0  0  0
   37.0460   33.4400   39.4810 H   0  0  0  0  0  0  0  0  0  0  0  0
   40.9960   34.4810   40.5810 C   0  0  0  0  0  0  0  0  0  0  0  0
   40.1560   35.6030   40.3630 C   0  0  0  0  0  0  0  0  0  0  0  0
   38.8840   35.1720   40.1580 C   0  0  0  0  0  0  0  0  0  0  0  0
   38.9430   33.8370   40.2480 N   0  0  0  0  0  0  0  0  0  0  0  0
   40.1990   33.4220   40.5000 N   0  0  0  0  0  0  0  0  0  0  0  0
   40.4670   36.6480   40.3570 H   0  0  0  0  0  0  0  0  0  0  0  0
   37.9950   35.7530   39.9630 H   0  0  0  0  0  0  0  0  0  0  0  0
   44.1380   35.4240   42.1850 C   0  0  0  0  0  0  0  0  0  0  0  0
   45.0910   34.8340   41.3710 C   0  0  0  0  0  0  0  0  0  0  0  0
   44.6620   34.0960   40.2500 C   0  0  0  0  0  0  0  0  0  0  0  0
   43.3230   34.0160   40.0440 N   0  0  0  0  0  0  0  0  0  0  0  0
   42.4200   34.5880   40.8350 C   0  0  0  0  0  0  0  0  0  0  0  0
   42.8320   35.2930   41.9070 N   0  0  0  0  0  0  0  0  0  0  0  0
   44.4110   36.0010   43.0580 H   0  0  0  0  0  0  0  0  0  0  0  0
   46.1310   34.9440   41.6020 H   0  0  0  0  0  0  0  0  0  0  0  0
   45.3580   33.6280   39.6000 H   0  0  0  0  0  0  0  0  0  0  0  0
  1 26  1  0  0  0  0
  1  5  1  0  0  0  0
  2  1  1  0  0  0  0
  3  1  1  0  0  0  0
  4  5  2  0  0  0  0
  4 12  1  0  0  0  0
  5  6  1  0  0  0  0
  6 14  1  0  0  0  0
  6  7  2  0  0  0  0
  7  8  1  0  0  0  0
  8 15  1  0  0  0  0
  8  9  1  0  0  0  0
  9 16  1  0  0  0  0
 10 17  1  0  0  0  0
 10  9  2  0  0  0  0
 11  7  1  0  0  0  0
 11 10  1  0  0  0  0
 12 11  2  0  0  0  0
 13  4  1  0  0  0  0
 18 12  1  0  0  0  0
 18 19  1  0  0  0  0
 19 20  1  0  0  0  0
 21 19  2  0  0  0  0
 21 22  1  0  0  0  0
 23 21  1  0  0  0  0
 24 25  1  0  0  0  0
 24 23  2  0  0  0  0
 25 18  2  0  0  0  0
 26 32  1  0  0  0  0
 26 27  1  0  0  0  0
 28 26  1  0  0  0  0
 29 40  1  0  0  0  0
 30 29  1  0  0  0  0
 31 32  1  0  0  0  0
 31 30  2  0  0  0  0
 32 33  1  0  0  0  0
 33 29  2  0  0  0  0
 34 30  1  0  0  0  0
 35 31  1  0  0  0  0
 36 42  1  0  0  0  0
 37 43  1  0  0  0  0
 37 36  2  0  0  0  0
 38 37  1  0  0  0  0
 39 38  2  0  0  0  0
 39 40  1  0  0  0  0
 40 41  2  0  0  0  0
 41 36  1  0  0  0  0
 44 38  1  0  0  0  0
M  END
>  <minimizedAffinity>
-6.3301158

$$$$

 OpenBabel03252506273D

 44 48  0  0  0  0  0  0  0  0999 V2000
   36.5340   31.0770   39.7200 C   0  0  0  0  0  0  0  0  0  0  0  0
   36.6830   30.1130   39.1620 H   0  0  0  0  0  0  0  0  0  0  0  0
   35.7140   31.5840   39.1710 H   0  0  0  0  0  0  0  0  0  0  0  0
   39.0240   31.4340   39.0930 C   0  0  0  0  0  0  0  0  0  0  0  0
   37.7890   31.8210   39.5880 C   0  0  0  0  0  0  0  0  0  0  0  0
   37.7050   33.1430   40.0450 C   0  0  0  0  0  0  0  0  0  0  0  0
   38.7780   34.0040   40.0050 C   0  0  0  0  0  0  0  0  0  0  0  0
   38.9820   35.2740   40.3580 N   0  0  0  0  0  0  0  0  0  0  0  0
   40.2460   35.6610   40.1070 C   0  0  0  0  0  0  0  0  0  0  0  0
   40.9270   34.5920   39.5570 C   0  0  0  0  0  0  0  0  0  0  0  0
   39.9950   33.5800   39.5040 C   0  0  0  0  0  0  0  0  0  0  0  0
   40.0830   32.2880   39.0570 C   0  0  0  0  0  0  0  0  0  0  0  0
   38.9870   30.4110   38.7700 H   0  0  0  0  0  0  0  0  0  0  0  0
   36.8040   33.5830   40.4560 H   0  0  0  0  0  0  0  0  0  0  0  0
   38.2480   35.9020   40.7810 H   0  0  0  0  0  0  0  0  0  0  0  0
   40.6610   36.6530   40.3060 H   0  0  0  0  0  0  0  0  0  0  0  0
   41.9490   34.6560   39.2720 H   0  0  0  0  0  0  0  0  0  0  0  0
   41.3530   31.7970   38.5190 C   0  0  0  0  0  0  0  0  0  0  0  0
   42.3100   31.1910   39.2950 C   0  0  0  0  0  0  0  0  0  0  0  0
   42.1780   31.0420   40.3470 H   0  0  0  0  0  0  0  0  0  0  0  0
   43.5140   30.7180   38.8300 C   0  0  0  0  0  0  0  0  0  0  0  0
   44.2610   30.2370   39.4750 H   0  0  0  0  0  0  0  0  0  0  0  0
   43.8110   30.8480   37.4930 C   0  0  0  0  0  3  0  0  0  0  0  0
   42.8550   31.4480   36.7390 C   0  0  0  0  0  3  0  0  0  0  0  0
   41.7030   31.8920   37.2290 N   0  0  0  0  0  0  0  0  0  0  0  0
   36.1180   30.7220   41.0910 C   0  0  0  0  0  0  0  0  0  0  0  0
   35.0430   30.5780   41.1590 H   0  0  0  0  0  0  0  0  0  0  0  0
   36.3880   31.5450   41.7730 H   0  0  0  0  0  0  0  0  0  0  0  0
   37.4130   27.4270   41.5970 C   0  0  0  0  0  0  0  0  0  0  0  0
   38.0990   28.1670   42.5940 C   0  0  0  0  0  0  0  0  0  0  0  0
   37.7070   29.4660   42.5300 C   0  0  0  0  0  0  0  0  0  0  0  0
   36.8150   29.5190   41.5320 N   0  0  0  0  0  0  0  0  0  0  0  0
   36.6370   28.3070   40.9740 N   0  0  0  0  0  0  0  0  0  0  0  0
   38.8260   27.7700   43.3020 H   0  0  0  0  0  0  0  0  0  0  0  0
   38.0260   30.3000   43.1370 H   0  0  0  0  0  0  0  0  0  0  0  0
   36.8710   24.0370   40.3510 C   0  0  0  0  0  0  0  0  0  0  0  0
   37.8850   23.3170   40.9610 C   0  0  0  0  0  0  0  0  0  0  0  0
   38.7780   23.9940   41.8150 C   0  0  0  0  0  0  0  0  0  0  0  0
   38.5770   25.3250   41.9820 N   0  0  0  0  0  0  0  0  0  0  0  0
   37.5980   26.0030   41.3910 C   0  0  0  0  0  0  0  0  0  0  0  0
   36.7450   25.3550   40.5740 N   0  0  0  0  0  0  0  0  0  0  0  0
   36.1580   23.5690   39.6860 H   0  0  0  0  0  0  0  0  0  0  0  0
   37.9770   22.2660   40.7760 H   0  0  0  0  0  0  0  0  0  0  0  0
   39.5700   23.4810   42.3020 H   0  0  0  0  0  0  0  0  0  0  0  0
  1 26  1  0  0  0  0
  2  1  1  0  0  0  0
  3  1  1  0  0  0  0
  4  5  1  0  0  0  0
  5  1  1  0  0  0  0
  5  6  2  0  0  0  0
  6 14  1  0  0  0  0
  7  6  1  0  0  0  0
  7  8  1  0  0  0  0
  8 15  1  0  0  0  0
  9 16  1  0  0  0  0
  9  8  1  0  0  0  0
 10  9  2  0  0  0  0
 11 10  1  0  0  0  0
 11  7  2  0  0  0  0
 12  4  2  0  0  0  0
 12 11  1  0  0  0  0
 13  4  1  0  0  0  0
 17 10  1  0  0  0  0
 18 12  1  0  0  0  0
 18 19  1  0  0  0  0
 19 20  1  0  0  0  0
 21 19  2  0  0  0  0
 21 22  1  0  0  0  0
 23 21  1  0  0  0  0
 24 25  1  0  0  0  0
 24 23  2  0  0  0  0
 25 18  2  0  0  0  0
 26 27  1  0  0  0  0
 26 32  1  0  0  0  0
 26 28  1  0  0  0  0
 29 30  1  0  0  0  0
 30 34  1  0  0  0  0
 31 30  2  0  0  0  0
 31 35  1  0  0  0  0
 32 31  1  0  0  0  0
 33 32  1  0  0  0  0
 33 29  2  0  0  0  0
 36 41  2  0  0  0  0
 36 37  1  0  0  0  0
 37 38  2  0  0  0  0
 38 39  1  0  0  0  0
 38 44  1  0  0  0  0
 40 29  1  0  0  0  0
 40 39  2  0  0  0  0
 41 40  1  0  0  0  0
 42 36  1  0  0  0  0
 43 37  1  0  0  0  0
M  END
>  <minimizedAffinity>
-6.26851559

$$$$

 OpenBabel03252506273D

 44 48  0  0  0  0  0  0  0  0999 V2000
   37.1790   28.0440   43.4140 C   0  0  0  0  0  0  0  0  0  0  0  0
   36.4450   27.2100   43.2380 H   0  0  0  0  0  0  0  0  0  0  0  0
   36.7430   28.6140   44.2610 H   0  0  0  0  0  0  0  0  0  0  0  0
   37.8640   30.0110   41.8700 C   0  0  0  0  0  0  0  0  0  0  0  0
   37.1810   28.8480   42.1900 C   0  0  0  0  0  0  0  0  0  0  0  0
   36.3440   28.3390   41.1870 C   0  0  0  0  0  0  0  0  0  0  0  0
   36.2090   28.9530   39.9620 C   0  0  0  0  0  0  0  0  0  0  0  0
   35.5090   28.7030   38.8540 N   0  0  0  0  0  0  0  0  0  0  0  0
   35.7320   29.6320   37.9080 C   0  0  0  0  0  0  0  0  0  0  0  0
   36.6280   30.5570   38.4080 C   0  0  0  0  0  0  0  0  0  0  0  0
   36.9070   30.1120   39.6810 C   0  0  0  0  0  0  0  0  0  0  0  0
   37.7260   30.6140   40.6580 C   0  0  0  0  0  0  0  0  0  0  0  0
   38.4740   30.3180   42.6980 H   0  0  0  0  0  0  0  0  0  0  0  0
   35.7510   27.4400   41.2960 H   0  0  0  0  0  0  0  0  0  0  0  0
   34.8620   27.8800   38.7290 H   0  0  0  0  0  0  0  0  0  0  0  0
   35.2790   29.6500   36.9120 H   0  0  0  0  0  0  0  0  0  0  0  0
   36.9590   31.3920   37.8390 H   0  0  0  0  0  0  0  0  0  0  0  0
   38.4830   31.8400   40.4030 C   0  0  0  0  0  0  0  0  0  0  0  0
   39.7950   31.8400   39.9960 C   0  0  0  0  0  0  0  0  0  0  0  0
   40.3410   30.9320   39.8410 H   0  0  0  0  0  0  0  0  0  0  0  0
   40.5410   32.9680   39.7470 C   0  0  0  0  0  0  0  0  0  0  0  0
   41.5890   32.9360   39.4230 H   0  0  0  0  0  0  0  0  0  0  0  0
   39.9570   34.2030   39.9090 C   0  0  0  0  0  3  0  0  0  0  0  0
   38.6610   34.1870   40.3100 C   0  0  0  0  0  3  0  0  0  0  0  0
   37.9760   33.0730   40.5410 N   0  0  0  0  0  0  0  0  0  0  0  0
   38.4590   27.4170   43.7960 C   0  0  0  0  0  0  0  0  0  0  0  0
   38.5210   27.2540   44.8680 H   0  0  0  0  0  0  0  0  0  0  0  0
   39.2860   28.0890   43.5120 H   0  0  0  0  0  0  0  0  0  0  0  0
   38.1640   24.4840   41.7710 C   0  0  0  0  0  0  0  0  0  0  0  0
   39.4520   24.3170   42.3420 C   0  0  0  0  0  0  0  0  0  0  0  0
   39.7170   25.3730   43.1550 C   0  0  0  0  0  0  0  0  0  0  0  0
   38.6330   26.1560   43.0840 N   0  0  0  0  0  0  0  0  0  0  0  0
   37.7060   25.6300   42.2620 N   0  0  0  0  0  0  0  0  0  0  0  0
   40.1300   23.4820   42.1650 H   0  0  0  0  0  0  0  0  0  0  0  0
   40.6000   25.5690   43.7440 H   0  0  0  0  0  0  0  0  0  0  0  0
   37.7450   21.4930   39.7180 C   0  0  0  0  0  0  0  0  0  0  0  0
   36.5080   21.6950   39.1270 C   0  0  0  0  0  0  0  0  0  0  0  0
   35.7950   22.8710   39.4300 C   0  0  0  0  0  0  0  0  0  0  0  0
   36.3810   23.7380   40.2940 N   0  0  0  0  0  0  0  0  0  0  0  0
   37.5690   23.5320   40.8530 C   0  0  0  0  0  0  0  0  0  0  0  0
   38.2500   22.4060   40.5630 N   0  0  0  0  0  0  0  0  0  0  0  0
   38.3350   20.6090   39.5210 H   0  0  0  0  0  0  0  0  0  0  0  0
   36.1140   20.9590   38.4540 H   0  0  0  0  0  0  0  0  0  0  0  0
   34.8440   23.0640   38.9990 H   0  0  0  0  0  0  0  0  0  0  0  0
  1 26  1  0  0  0  0
  1  3  1  0  0  0  0
  2  1  1  0  0  0  0
  4  5  1  0  0  0  0
  4 13  1  0  0  0  0
  5  1  1  0  0  0  0
  6 14  1  0  0  0  0
  6  5  2  0  0  0  0
  7  6  1  0  0  0  0
  8  7  1  0  0  0  0
  9 10  2  0  0  0  0
  9  8  1  0  0  0  0
 10 11  1  0  0  0  0
 11  7  2  0  0  0  0
 11 12  1  0  0  0  0
 12  4  2  0  0  0  0
 15  8  1  0  0  0  0
 16  9  1  0  0  0  0
 17 10  1  0  0  0  0
 18 25  1  0  0  0  0
 18 12  1  0  0  0  0
 19 18  2  0  0  0  0
 20 19  1  0  0  0  0
 21 23  2  0  0  0  0
 21 19  1  0  0  0  0
 22 21  1  0  0  0  0
 23 24  1  0  0  0  0
 24 25  2  0  0  0  0
 26 27  1  0  0  0  0
 28 26  1  0  0  0  0
 29 33  2  0  0  0  0
 29 30  1  0  0  0  0
 30 31  2  0  0  0  0
 31 35  1  0  0  0  0
 32 31  1  0  0  0  0
 32 26  1  0  0  0  0
 33 32  1  0  0  0  0
 34 30  1  0  0  0  0
 36 41  1  0  0  0  0
 37 38  1  0  0  0  0
 37 36  2  0  0  0  0
 38 39  2  0  0  0  0
 39 40  1  0  0  0  0
 40 29  1  0  0  0  0
 41 40  2  0  0  0  0
 42 36  1  0  0  0  0
 43 37  1  0  0  0  0
 44 38  1  0  0  0  0
M  END
>  <minimizedAffinity>
-6.19676447

$$$$
