
 OpenBabel03252502543D

 30 32  0  0  0  0  0  0  0  0999 V2000
   39.3640   30.2430   42.5150 Br  0  0  0  0  0  0  0  0  0  0  0  0
   37.7680   29.9810   41.4490 C   0  0  0  0  0  0  0  0  0  0  0  0
   36.9670   28.9440   41.8430 C   0  0  0  0  0  0  0  0  0  0  0  0
   35.8250   28.7800   41.0550 C   0  0  0  0  0  0  0  0  0  0  0  0
   35.5180   29.5820   39.9750 C   0  0  0  0  0  0  0  0  0  0  0  0
   36.3910   30.6010   39.6610 C   0  0  0  0  0  0  0  0  0  0  0  0
   37.5370   30.8280   40.3860 C   0  0  0  0  0  0  0  0  0  0  0  0
   35.1260   27.9840   41.2870 H   0  0  0  0  0  0  0  0  0  0  0  0
   34.6190   29.4160   39.3940 H   0  0  0  0  0  0  0  0  0  0  0  0
   36.1940   31.2560   38.8230 H   0  0  0  0  0  0  0  0  0  0  0  0
   38.5150   31.8830   40.1200 C   0  0  0  0  0  0  0  0  0  0  0  0
   38.4210   33.1340   40.6800 C   0  0  0  0  0  0  0  0  0  0  0  0
   37.6250   33.3860   41.3370 H   0  0  0  0  0  0  0  0  0  0  0  0
   39.3170   34.1610   40.4590 C   0  0  0  0  0  0  0  0  0  0  0  0
   39.2150   35.1360   40.9160 H   0  0  0  0  0  0  0  0  0  0  0  0
   40.3960   33.9220   39.6090 C   0  0  0  0  0  3  0  0  0  0  0  0
   40.4610   32.6560   39.0630 C   0  0  0  0  0  3  0  0  0  0  0  0
   39.5630   31.6840   39.3060 N   0  0  0  0  0  0  0  0  0  0  0  0
   37.1770   28.0230   42.9650 C   0  0  0  0  0  0  0  0  0  0  0  0
   37.7250   28.5140   43.7910 H   0  0  0  0  0  0  0  0  0  0  0  0
   36.1780   27.7690   43.3940 H   0  0  0  0  0  0  0  0  0  0  0  0
   39.5460   25.3560   41.8830 C   0  0  0  0  0  0  0  0  0  0  0  0
   38.7250   24.2320   41.8170 C   0  0  0  0  0  0  0  0  0  0  0  0
   37.3760   24.4110   42.1430 C   0  0  0  0  0  0  0  0  0  0  0  0
   36.9380   25.6380   42.5010 N   0  0  0  0  0  0  0  0  0  0  0  0
   37.7760   26.7200   42.5560 C   0  0  0  0  0  0  0  0  0  0  0  0
   39.0700   26.5440   42.2420 N   0  0  0  0  0  0  0  0  0  0  0  0
   40.6080   25.3180   41.6490 H   0  0  0  0  0  0  0  0  0  0  0  0
   39.1540   23.2830   41.5200 H   0  0  0  0  0  0  0  0  0  0  0  0
   36.7170   23.5540   42.0990 H   0  0  0  0  0  0  0  0  0  0  0  0
  2  3  1  0  0  0  0
  2  1  1  0  0  0  0
  3 19  1  0  0  0  0
  4  8  1  0  0  0  0
  4  3  2  0  0  0  0
  5  4  1  0  0  0  0
  6  5  2  0  0  0  0
  6  7  1  0  0  0  0
  7  2  2  0  0  0  0
  9  5  1  0  0  0  0
 10  6  1  0  0  0  0
 11  7  1  0  0  0  0
 11 12  1  0  0  0  0
 12 13  1  0  0  0  0
 14 12  2  0  0  0  0
 14 15  1  0  0  0  0
 16 14  1  0  0  0  0
 17 18  1  0  0  0  0
 17 16  2  0  0  0  0
 18 11  2  0  0  0  0
 19 21  1  0  0  0  0
 19 20  1  0  0  0  0
 22 27  1  0  0  0  0
 23 22  2  0  0  0  0
 23 24  1  0  0  0  0
 24 25  2  0  0  0  0
 25 26  1  0  0  0  0
 26 19  1  0  0  0  0
 27 26  2  0  0  0  0
 28 22  1  0  0  0  0
 29 23  1  0  0  0  0
 30 24  1  0  0  0  0
M  END
>  <minimizedAffinity>
-5.47234297

$$$$

 OpenBabel03252502543D

 30 32  0  0  0  0  0  0  0  0999 V2000
   36.2680   26.5160   39.0590 Br  0  0  0  0  0  0  0  0  0  0  0  0
   36.9020   26.9350   40.8410 C   0  0  0  0  0  0  0  0  0  0  0  0
   36.4470   28.1170   41.3580 C   0  0  0  0  0  0  0  0  0  0  0  0
   36.9210   28.3920   42.6440 C   0  0  0  0  0  0  0  0  0  0  0  0
   37.7710   27.5570   43.3410 C   0  0  0  0  0  0  0  0  0  0  0  0
   38.1710   26.3890   42.7300 C   0  0  0  0  0  0  0  0  0  0  0  0
   37.7500   26.0460   41.4660 C   0  0  0  0  0  0  0  0  0  0  0  0
   36.6170   29.3060   43.1410 H   0  0  0  0  0  0  0  0  0  0  0  0
   38.1120   27.8140   44.3360 H   0  0  0  0  0  0  0  0  0  0  0  0
   38.8370   25.7030   43.2350 H   0  0  0  0  0  0  0  0  0  0  0  0
   38.1260   24.8290   40.7470 C   0  0  0  0  0  0  0  0  0  0  0  0
   37.4710   23.6350   40.9220 C   0  0  0  0  0  0  0  0  0  0  0  0
   36.6530   23.5500   41.5950 H   0  0  0  0  0  0  0  0  0  0  0  0
   37.7890   22.4620   40.2680 C   0  0  0  0  0  0  0  0  0  0  0  0
   37.2510   21.5370   40.4290 H   0  0  0  0  0  0  0  0  0  0  0  0
   38.8500   22.4800   39.3640 C   0  0  0  0  0  3  0  0  0  0  0  0
   39.4880   23.6930   39.2110 C   0  0  0  0  0  3  0  0  0  0  0  0
   39.1440   24.8150   39.8720 N   0  0  0  0  0  0  0  0  0  0  0  0
   35.5460   29.0870   40.7270 C   0  0  0  0  0  0  0  0  0  0  0  0
   34.8480   28.5900   40.0280 H   0  0  0  0  0  0  0  0  0  0  0  0
   34.8960   29.5220   41.5220 H   0  0  0  0  0  0  0  0  0  0  0  0
   37.2830   32.3430   40.1970 C   0  0  0  0  0  0  0  0  0  0  0  0
   37.5740   32.3110   38.8350 C   0  0  0  0  0  0  0  0  0  0  0  0
   37.1690   31.1750   38.1250 C   0  0  0  0  0  0  0  0  0  0  0  0
   36.5280   30.1800   38.7770 N   0  0  0  0  0  0  0  0  0  0  0  0
   36.2600   30.2470   40.1190 C   0  0  0  0  0  0  0  0  0  0  0  0
   36.6500   31.3380   40.7960 N   0  0  0  0  0  0  0  0  0  0  0  0
   37.5570   33.1810   40.8340 H   0  0  0  0  0  0  0  0  0  0  0  0
   38.0920   33.1500   38.3880 H   0  0  0  0  0  0  0  0  0  0  0  0
   37.3830   31.1260   37.0660 H   0  0  0  0  0  0  0  0  0  0  0  0
  1  2  1  0  0  0  0
  2  3  2  0  0  0  0
  2  7  1  0  0  0  0
  3  4  1  0  0  0  0
  4  8  1  0  0  0  0
  4  5  2  0  0  0  0
  5  9  1  0  0  0  0
  6 10  1  0  0  0  0
  6  5  1  0  0  0  0
  7  6  2  0  0  0  0
 11 12  1  0  0  0  0
 11  7  1  0  0  0  0
 12 13  1  0  0  0  0
 14 15  1  0  0  0  0
 14 12  2  0  0  0  0
 16 14  1  0  0  0  0
 17 16  2  0  0  0  0
 17 18  1  0  0  0  0
 18 11  2  0  0  0  0
 19  3  1  0  0  0  0
 19 21  1  0  0  0  0
 20 19  1  0  0  0  0
 22 27  1  0  0  0  0
 22 28  1  0  0  0  0
 23 22  2  0  0  0  0
 24 25  2  0  0  0  0
 24 23  1  0  0  0  0
 25 26  1  0  0  0  0
 26 19  1  0  0  0  0
 26 27  2  0  0  0  0
 29 23  1  0  0  0  0
 30 24  1  0  0  0  0
M  END
>  <minimizedAffinity>
-5.43276548

$$$$

 OpenBabel03252502543D

 30 32  0  0  0  0  0  0  0  0999 V2000
   39.3310   27.1250   39.7800 Br  0  0  0  0  0  0  0  0  0  0  0  0
   38.3290   27.4720   41.4010 C   0  0  0  0  0  0  0  0  0  0  0  0
   38.5560   28.6930   41.9760 C   0  0  0  0  0  0  0  0  0  0  0  0
   37.8200   28.9140   43.1430 C   0  0  0  0  0  0  0  0  0  0  0  0
   36.9410   27.9960   43.6800 C   0  0  0  0  0  0  0  0  0  0  0  0
   36.7850   26.7950   43.0220 C   0  0  0  0  0  0  0  0  0  0  0  0
   37.4720   26.5000   41.8690 C   0  0  0  0  0  0  0  0  0  0  0  0
   37.9300   29.8540   43.6730 H   0  0  0  0  0  0  0  0  0  0  0  0
   36.3920   28.2130   44.5870 H   0  0  0  0  0  0  0  0  0  0  0  0
   36.1070   26.0420   43.4050 H   0  0  0  0  0  0  0  0  0  0  0  0
   37.3650   25.2520   41.1120 C   0  0  0  0  0  0  0  0  0  0  0  0
   38.0970   24.1330   41.4260 C   0  0  0  0  0  0  0  0  0  0  0  0
   38.7770   24.1310   42.2430 H   0  0  0  0  0  0  0  0  0  0  0  0
   38.0310   22.9350   40.7430 C   0  0  0  0  0  0  0  0  0  0  0  0
   38.6220   22.0710   41.0170 H   0  0  0  0  0  0  0  0  0  0  0  0
   37.1640   22.8450   39.6550 C   0  0  0  0  0  3  0  0  0  0  0  0
   36.4440   23.9860   39.3650 C   0  0  0  0  0  3  0  0  0  0  0  0
   36.5410   25.1350   40.0590 N   0  0  0  0  0  0  0  0  0  0  0  0
   39.4570   29.7520   41.5100 C   0  0  0  0  0  0  0  0  0  0  0  0
   40.1340   30.0880   42.3170 H   0  0  0  0  0  0  0  0  0  0  0  0
   40.1290   29.3160   40.7340 H   0  0  0  0  0  0  0  0  0  0  0  0
   37.1710   31.7650   39.3590 C   0  0  0  0  0  0  0  0  0  0  0  0
   37.5340   33.0730   39.6750 C   0  0  0  0  0  0  0  0  0  0  0  0
   38.5550   33.2380   40.6180 C   0  0  0  0  0  0  0  0  0  0  0  0
   39.1320   32.1480   41.1690 N   0  0  0  0  0  0  0  0  0  0  0  0
   38.7470   30.8770   40.8340 C   0  0  0  0  0  0  0  0  0  0  0  0
   37.7670   30.7210   39.9290 N   0  0  0  0  0  0  0  0  0  0  0  0
   36.3900   31.5330   38.6400 H   0  0  0  0  0  0  0  0  0  0  0  0
   37.0230   33.8930   39.1880 H   0  0  0  0  0  0  0  0  0  0  0  0
   38.8550   34.2440   40.8800 H   0  0  0  0  0  0  0  0  0  0  0  0
  1  2  1  0  0  0  0
  2  7  2  0  0  0  0
  2  3  1  0  0  0  0
  3  4  2  0  0  0  0
  4  8  1  0  0  0  0
  4  5  1  0  0  0  0
  5  9  1  0  0  0  0
  6 10  1  0  0  0  0
  6  5  2  0  0  0  0
  7  6  1  0  0  0  0
 11 12  1  0  0  0  0
 11  7  1  0  0  0  0
 12 13  1  0  0  0  0
 14 15  1  0  0  0  0
 14 12  2  0  0  0  0
 16 14  1  0  0  0  0
 17 16  2  0  0  0  0
 17 18  1  0  0  0  0
 18 11  2  0  0  0  0
 19  3  1  0  0  0  0
 19 20  1  0  0  0  0
 21 19  1  0  0  0  0
 22 23  2  0  0  0  0
 22 27  1  0  0  0  0
 23 24  1  0  0  0  0
 24 30  1  0  0  0  0
 24 25  2  0  0  0  0
 26 25  1  0  0  0  0
 26 19  1  0  0  0  0
 27 26  2  0  0  0  0
 28 22  1  0  0  0  0
 29 23  1  0  0  0  0
M  END
>  <minimizedAffinity>
-5.31855488

$$$$

 OpenBabel03252502543D

 30 32  0  0  0  0  0  0  0  0999 V2000
   36.5520   27.3190   39.1800 Br  0  0  0  0  0  0  0  0  0  0  0  0
   37.1110   27.6480   41.0050 C   0  0  0  0  0  0  0  0  0  0  0  0
   36.8980   28.9210   41.4600 C   0  0  0  0  0  0  0  0  0  0  0  0
   37.3110   29.1280   42.7790 C   0  0  0  0  0  0  0  0  0  0  0  0
   37.8840   28.1480   43.5640 C   0  0  0  0  0  0  0  0  0  0  0  0
   38.0550   26.8980   43.0100 C   0  0  0  0  0  0  0  0  0  0  0  0
   37.6760   26.6140   41.7200 C   0  0  0  0  0  0  0  0  0  0  0  0
   37.1830   30.1050   43.2310 H   0  0  0  0  0  0  0  0  0  0  0  0
   38.1880   28.3570   44.5820 H   0  0  0  0  0  0  0  0  0  0  0  0
   38.5000   26.0980   43.5860 H   0  0  0  0  0  0  0  0  0  0  0  0
   37.8230   25.3170   41.0580 C   0  0  0  0  0  0  0  0  0  0  0  0
   36.8410   24.3570   41.0880 C   0  0  0  0  0  0  0  0  0  0  0  0
   35.9240   24.5230   41.6000 H   0  0  0  0  0  0  0  0  0  0  0  0
   36.9330   23.1210   40.4800 C   0  0  0  0  0  0  0  0  0  0  0  0
   36.1400   22.3870   40.5230 H   0  0  0  0  0  0  0  0  0  0  0  0
   38.1020   22.8160   39.7840 C   0  0  0  0  0  3  0  0  0  0  0  0
   39.0690   23.8000   39.7740 C   0  0  0  0  0  3  0  0  0  0  0  0
   38.9370   24.9940   40.3820 N   0  0  0  0  0  0  0  0  0  0  0  0
   36.3010   30.0460   40.7320 C   0  0  0  0  0  0  0  0  0  0  0  0
   35.6360   29.6940   39.9220 H   0  0  0  0  0  0  0  0  0  0  0  0
   35.6310   30.5950   41.4360 H   0  0  0  0  0  0  0  0  0  0  0  0
   38.1200   33.2240   40.0310 C   0  0  0  0  0  0  0  0  0  0  0  0
   39.2560   32.7780   39.3570 C   0  0  0  0  0  0  0  0  0  0  0  0
   39.3740   31.3990   39.1560 C   0  0  0  0  0  0  0  0  0  0  0  0
   38.4050   30.5760   39.6140 N   0  0  0  0  0  0  0  0  0  0  0  0
   37.3030   31.0510   40.2740 C   0  0  0  0  0  0  0  0  0  0  0  0
   37.1920   32.3760   40.4650 N   0  0  0  0  0  0  0  0  0  0  0  0
   37.9380   34.2760   40.2360 H   0  0  0  0  0  0  0  0  0  0  0  0
   39.9860   33.5030   39.0210 H   0  0  0  0  0  0  0  0  0  0  0  0
   40.2470   31.0280   38.6350 H   0  0  0  0  0  0  0  0  0  0  0  0
  1  2  1  0  0  0  0
  2  3  2  0  0  0  0
  2  7  1  0  0  0  0
  3  4  1  0  0  0  0
  4  8  1  0  0  0  0
  4  5  2  0  0  0  0
  5  9  1  0  0  0  0
  6  5  1  0  0  0  0
  6 10  1  0  0  0  0
  7  6  2  0  0  0  0
 11 12  1  0  0  0  0
 11  7  1  0  0  0  0
 12 13  1  0  0  0  0
 14 15  1  0  0  0  0
 14 12  2  0  0  0  0
 16 14  1  0  0  0  0
 17 16  2  0  0  0  0
 17 18  1  0  0  0  0
 18 11  2  0  0  0  0
 19 21  1  0  0  0  0
 19  3  1  0  0  0  0
 20 19  1  0  0  0  0
 22 28  1  0  0  0  0
 22 27  1  0  0  0  0
 23 22  2  0  0  0  0
 24 23  1  0  0  0  0
 24 25  2  0  0  0  0
 25 26  1  0  0  0  0
 26 27  2  0  0  0  0
 26 19  1  0  0  0  0
 29 23  1  0  0  0  0
 30 24  1  0  0  0  0
M  END
>  <minimizedAffinity>
-5.08376932

$$$$

 OpenBabel03252502543D

 30 32  0  0  0  0  0  0  0  0999 V2000
   39.6880   27.9550   42.1410 Br  0  0  0  0  0  0  0  0  0  0  0  0
   38.0270   28.7340   41.5160 C   0  0  0  0  0  0  0  0  0  0  0  0
   37.9610   30.0990   41.5870 C   0  0  0  0  0  0  0  0  0  0  0  0
   36.7520   30.6310   41.1300 C   0  0  0  0  0  0  0  0  0  0  0  0
   35.7110   29.8640   40.6490 C   0  0  0  0  0  0  0  0  0  0  0  0
   35.8790   28.4970   40.6200 C   0  0  0  0  0  0  0  0  0  0  0  0
   37.0370   27.8950   41.0520 C   0  0  0  0  0  0  0  0  0  0  0  0
   36.6030   31.7050   41.1450 H   0  0  0  0  0  0  0  0  0  0  0  0
   34.7930   30.3230   40.3060 H   0  0  0  0  0  0  0  0  0  0  0  0
   35.0910   27.8530   40.2520 H   0  0  0  0  0  0  0  0  0  0  0  0
   37.2960   26.4540   41.0550 C   0  0  0  0  0  0  0  0  0  0  0  0
   37.0300   25.6600   42.1430 C   0  0  0  0  0  0  0  0  0  0  0  0
   36.6190   26.0660   43.0350 H   0  0  0  0  0  0  0  0  0  0  0  0
   37.2560   24.2990   42.1940 C   0  0  0  0  0  0  0  0  0  0  0  0
   37.0340   23.7010   43.0690 H   0  0  0  0  0  0  0  0  0  0  0  0
   37.7930   23.6780   41.0680 C   0  0  0  0  0  3  0  0  0  0  0  0
   38.0500   24.5040   39.9930 C   0  0  0  0  0  3  0  0  0  0  0  0
   37.8140   25.8290   39.9860 N   0  0  0  0  0  0  0  0  0  0  0  0
   38.9900   31.0240   42.0730 C   0  0  0  0  0  0  0  0  0  0  0  0
   38.6090   31.6490   42.9020 H   0  0  0  0  0  0  0  0  0  0  0  0
   39.8120   30.4190   42.5240 H   0  0  0  0  0  0  0  0  0  0  0  0
   41.0620   32.0840   39.1610 C   0  0  0  0  0  0  0  0  0  0  0  0
   40.7280   33.4300   39.0270 C   0  0  0  0  0  0  0  0  0  0  0  0
   39.8000   33.9480   39.9380 C   0  0  0  0  0  0  0  0  0  0  0  0
   39.2800   33.1380   40.8860 N   0  0  0  0  0  0  0  0  0  0  0  0
   39.6320   31.8180   40.9860 C   0  0  0  0  0  0  0  0  0  0  0  0
   40.5220   31.3250   40.1100 N   0  0  0  0  0  0  0  0  0  0  0  0
   41.7720   31.5900   38.5010 H   0  0  0  0  0  0  0  0  0  0  0  0
   41.1910   34.0120   38.2400 H   0  0  0  0  0  0  0  0  0  0  0  0
   39.5240   34.9900   39.8550 H   0  0  0  0  0  0  0  0  0  0  0  0
  2  3  1  0  0  0  0
  2  1  1  0  0  0  0
  3 19  1  0  0  0  0
  4  8  1  0  0  0  0
  4  3  2  0  0  0  0
  5  4  1  0  0  0  0
  6  5  2  0  0  0  0
  6  7  1  0  0  0  0
  7 11  1  0  0  0  0
  7  2  2  0  0  0  0
  9  5  1  0  0  0  0
 10  6  1  0  0  0  0
 11 12  1  0  0  0  0
 12 14  2  0  0  0  0
 12 13  1  0  0  0  0
 14 15  1  0  0  0  0
 16 14  1  0  0  0  0
 17 16  2  0  0  0  0
 18 17  1  0  0  0  0
 18 11  2  0  0  0  0
 19 21  1  0  0  0  0
 19 20  1  0  0  0  0
 22 27  1  0  0  0  0
 23 22  2  0  0  0  0
 23 24  1  0  0  0  0
 24 25  2  0  0  0  0
 25 26  1  0  0  0  0
 26 19  1  0  0  0  0
 27 26  2  0  0  0  0
 28 22  1  0  0  0  0
 29 23  1  0  0  0  0
 30 24  1  0  0  0  0
M  END
>  <minimizedAffinity>
-5.0424366

$$$$

 OpenBabel03252502543D

 30 32  0  0  0  0  0  0  0  0999 V2000
   36.2810   26.8160   39.3000 Br  0  0  0  0  0  0  0  0  0  0  0  0
   36.4790   28.6660   39.8390 C   0  0  0  0  0  0  0  0  0  0  0  0
   36.5600   28.8740   41.1890 C   0  0  0  0  0  0  0  0  0  0  0  0
   36.7020   30.2180   41.5470 C   0  0  0  0  0  0  0  0  0  0  0  0
   36.7580   31.2510   40.6340 C   0  0  0  0  0  0  0  0  0  0  0  0
   36.6670   30.9340   39.2960 C   0  0  0  0  0  0  0  0  0  0  0  0
   36.5250   29.6370   38.8620 C   0  0  0  0  0  0  0  0  0  0  0  0
   36.7760   30.4860   42.5940 H   0  0  0  0  0  0  0  0  0  0  0  0
   36.8690   32.2780   40.9600 H   0  0  0  0  0  0  0  0  0  0  0  0
   36.7050   31.7100   38.5430 H   0  0  0  0  0  0  0  0  0  0  0  0
   36.4210   29.2160   37.4650 C   0  0  0  0  0  0  0  0  0  0  0  0
   35.2220   29.1570   36.7990 C   0  0  0  0  0  0  0  0  0  0  0  0
   34.3110   29.4200   37.2800 H   0  0  0  0  0  0  0  0  0  0  0  0
   35.0730   28.7670   35.4830 C   0  0  0  0  0  0  0  0  0  0  0  0
   34.1120   28.7310   34.9870 H   0  0  0  0  0  0  0  0  0  0  0  0
   36.2160   28.4040   34.7720 C   0  0  0  0  0  3  0  0  0  0  0  0
   37.4040   28.4730   35.4690 C   0  0  0  0  0  3  0  0  0  0  0  0
   37.5030   28.8590   36.7540 N   0  0  0  0  0  0  0  0  0  0  0  0
   36.5160   27.8700   42.2570 C   0  0  0  0  0  0  0  0  0  0  0  0
   35.9410   28.2350   43.1280 H   0  0  0  0  0  0  0  0  0  0  0  0
   35.9410   26.9920   41.8800 H   0  0  0  0  0  0  0  0  0  0  0  0
   40.0540   27.5540   43.3880 C   0  0  0  0  0  0  0  0  0  0  0  0
   40.2920   26.1870   43.2550 C   0  0  0  0  0  0  0  0  0  0  0  0
   39.2350   25.4020   42.7800 C   0  0  0  0  0  0  0  0  0  0  0  0
   38.0570   25.9890   42.4770 N   0  0  0  0  0  0  0  0  0  0  0  0
   37.8600   27.3370   42.6230 C   0  0  0  0  0  0  0  0  0  0  0  0
   38.8760   28.0880   43.0790 N   0  0  0  0  0  0  0  0  0  0  0  0
   40.8110   28.2460   43.7490 H   0  0  0  0  0  0  0  0  0  0  0  0
   41.2660   25.7950   43.5190 H   0  0  0  0  0  0  0  0  0  0  0  0
   39.3950   24.3380   42.6670 H   0  0  0  0  0  0  0  0  0  0  0  0
  1  2  1  0  0  0  0
  2  3  1  0  0  0  0
  3  4  2  0  0  0  0
  3 19  1  0  0  0  0
  4  8  1  0  0  0  0
  5  9  1  0  0  0  0
  5  4  1  0  0  0  0
  6  5  2  0  0  0  0
  7  6  1  0  0  0  0
  7  2  2  0  0  0  0
 10  6  1  0  0  0  0
 11  7  1  0  0  0  0
 12 13  1  0  0  0  0
 12 11  1  0  0  0  0
 14 12  2  0  0  0  0
 15 14  1  0  0  0  0
 16 17  2  0  0  0  0
 16 14  1  0  0  0  0
 17 18  1  0  0  0  0
 18 11  2  0  0  0  0
 19 26  1  0  0  0  0
 19 20  1  0  0  0  0
 21 19  1  0  0  0  0
 22 28  1  0  0  0  0
 23 22  1  0  0  0  0
 23 29  1  0  0  0  0
 24 23  2  0  0  0  0
 25 26  2  0  0  0  0
 25 24  1  0  0  0  0
 26 27  1  0  0  0  0
 27 22  2  0  0  0  0
 30 24  1  0  0  0  0
M  END
>  <minimizedAffinity>
-4.98435545

$$$$

 OpenBabel03252502543D

 30 32  0  0  0  0  0  0  0  0999 V2000
   39.8740   27.7670   40.1070 Br  0  0  0  0  0  0  0  0  0  0  0  0
   38.5170   27.6400   41.4840 C   0  0  0  0  0  0  0  0  0  0  0  0
   37.2600   28.0180   41.0990 C   0  0  0  0  0  0  0  0  0  0  0  0
   36.3030   27.9160   42.1130 C   0  0  0  0  0  0  0  0  0  0  0  0
   36.5860   27.4770   43.3910 C   0  0  0  0  0  0  0  0  0  0  0  0
   37.8850   27.1190   43.6750 C   0  0  0  0  0  0  0  0  0  0  0  0
   38.8850   27.1910   42.7340 C   0  0  0  0  0  0  0  0  0  0  0  0
   35.2750   28.1920   41.9070 H   0  0  0  0  0  0  0  0  0  0  0  0
   35.8090   27.4150   44.1430 H   0  0  0  0  0  0  0  0  0  0  0  0
   38.1560   26.7700   44.6630 H   0  0  0  0  0  0  0  0  0  0  0  0
   40.2860   26.8330   42.9540 C   0  0  0  0  0  0  0  0  0  0  0  0
   41.2160   27.7360   43.4090 C   0  0  0  0  0  0  0  0  0  0  0  0
   40.9480   28.7420   43.6220 H   0  0  0  0  0  0  0  0  0  0  0  0
   42.5470   27.4460   43.6320 C   0  0  0  0  0  0  0  0  0  0  0  0
   43.2550   28.1810   43.9920 H   0  0  0  0  0  0  0  0  0  0  0  0
   42.9890   26.1480   43.3790 C   0  0  0  0  0  3  0  0  0  0  0  0
   42.0310   25.2660   42.9220 C   0  0  0  0  0  3  0  0  0  0  0  0
   40.7420   25.5920   42.7180 N   0  0  0  0  0  0  0  0  0  0  0  0
   36.8290   28.4990   39.7820 C   0  0  0  0  0  0  0  0  0  0  0  0
   37.2610   27.8860   38.9700 H   0  0  0  0  0  0  0  0  0  0  0  0
   35.7270   28.3460   39.7030 H   0  0  0  0  0  0  0  0  0  0  0  0
   37.0960   32.1790   40.3200 C   0  0  0  0  0  0  0  0  0  0  0  0
   37.4770   32.6400   39.0610 C   0  0  0  0  0  0  0  0  0  0  0  0
   37.6340   31.6810   38.0540 C   0  0  0  0  0  0  0  0  0  0  0  0
   37.4140   30.3790   38.3380 N   0  0  0  0  0  0  0  0  0  0  0  0
   37.0420   29.9630   39.5890 C   0  0  0  0  0  0  0  0  0  0  0  0
   36.8930   30.8850   40.5530 N   0  0  0  0  0  0  0  0  0  0  0  0
   36.9500   32.8450   41.1660 H   0  0  0  0  0  0  0  0  0  0  0  0
   37.6330   33.7010   38.9150 H   0  0  0  0  0  0  0  0  0  0  0  0
   37.9280   32.0140   37.0670 H   0  0  0  0  0  0  0  0  0  0  0  0
  1  2  1  0  0  0  0
  2  7  1  0  0  0  0
  3  2  2  0  0  0  0
  3  4  1  0  0  0  0
  4  5  2  0  0  0  0
  5  6  1  0  0  0  0
  5  9  1  0  0  0  0
  6 10  1  0  0  0  0
  7 11  1  0  0  0  0
  7  6  2  0  0  0  0
  8  4  1  0  0  0  0
 11 12  1  0  0  0  0
 12 13  1  0  0  0  0
 12 14  2  0  0  0  0
 14 15  1  0  0  0  0
 16 14  1  0  0  0  0
 17 16  2  0  0  0  0
 18 17  1  0  0  0  0
 18 11  2  0  0  0  0
 19  3  1  0  0  0  0
 20 19  1  0  0  0  0
 21 19  1  0  0  0  0
 22 27  1  0  0  0  0
 22 28  1  0  0  0  0
 23 22  2  0  0  0  0
 24 25  2  0  0  0  0
 24 23  1  0  0  0  0
 25 26  1  0  0  0  0
 26 19  1  0  0  0  0
 26 27  2  0  0  0  0
 29 23  1  0  0  0  0
 30 24  1  0  0  0  0
M  END
>  <minimizedAffinity>
-4.94719744

$$$$

 OpenBabel03252502543D

 30 32  0  0  0  0  0  0  0  0999 V2000
   39.3240   28.5770   39.4400 Br  0  0  0  0  0  0  0  0  0  0  0  0
   38.5880   28.2650   41.2040 C   0  0  0  0  0  0  0  0  0  0  0  0
   38.6770   26.9760   41.6530 C   0  0  0  0  0  0  0  0  0  0  0  0
   38.1380   26.7820   42.9280 C   0  0  0  0  0  0  0  0  0  0  0  0
   37.5640   27.7880   43.6780 C   0  0  0  0  0  0  0  0  0  0  0  0
   37.5230   29.0530   43.1330 C   0  0  0  0  0  0  0  0  0  0  0  0
   38.0310   29.3260   41.8850 C   0  0  0  0  0  0  0  0  0  0  0  0
   38.1620   25.7930   43.3730 H   0  0  0  0  0  0  0  0  0  0  0  0
   37.1590   27.5880   44.6620 H   0  0  0  0  0  0  0  0  0  0  0  0
   37.0820   29.8740   43.6820 H   0  0  0  0  0  0  0  0  0  0  0  0
   38.0270   30.6370   41.2350 C   0  0  0  0  0  0  0  0  0  0  0  0
   36.9990   31.0570   40.4270 C   0  0  0  0  0  0  0  0  0  0  0  0
   36.1560   30.4370   40.2420 H   0  0  0  0  0  0  0  0  0  0  0  0
   36.9510   32.2820   39.7930 C   0  0  0  0  0  0  0  0  0  0  0  0
   36.1240   32.5830   39.1620 H   0  0  0  0  0  0  0  0  0  0  0  0
   38.0150   33.1620   39.9790 C   0  0  0  0  0  3  0  0  0  0  0  0
   39.0320   32.7100   40.7950 C   0  0  0  0  0  3  0  0  0  0  0  0
   39.0390   31.5050   41.3940 N   0  0  0  0  0  0  0  0  0  0  0  0
   39.2610   25.8220   40.9610 C   0  0  0  0  0  0  0  0  0  0  0  0
   39.9690   26.1410   40.1740 H   0  0  0  0  0  0  0  0  0  0  0  0
   39.8830   25.2580   41.6960 H   0  0  0  0  0  0  0  0  0  0  0  0
   36.2190   24.2740   39.4620 C   0  0  0  0  0  0  0  0  0  0  0  0
   36.4590   22.9110   39.6310 C   0  0  0  0  0  0  0  0  0  0  0  0
   37.6590   22.5510   40.2560 C   0  0  0  0  0  0  0  0  0  0  0  0
   38.5120   23.5170   40.6590 N   0  0  0  0  0  0  0  0  0  0  0  0
   38.2420   24.8480   40.4740 C   0  0  0  0  0  0  0  0  0  0  0  0
   37.0900   25.1900   39.8740 N   0  0  0  0  0  0  0  0  0  0  0  0
   35.3170   24.6530   38.9870 H   0  0  0  0  0  0  0  0  0  0  0  0
   35.7230   22.2000   39.2800 H   0  0  0  0  0  0  0  0  0  0  0  0
   37.8680   21.5000   40.3990 H   0  0  0  0  0  0  0  0  0  0  0  0
  1  2  1  0  0  0  0
  2  3  2  0  0  0  0
  2  7  1  0  0  0  0
  3  4  1  0  0  0  0
  4  8  1  0  0  0  0
  4  5  2  0  0  0  0
  5  9  1  0  0  0  0
  6  5  1  0  0  0  0
  6 10  1  0  0  0  0
  7  6  2  0  0  0  0
 11 18  1  0  0  0  0
 11  7  1  0  0  0  0
 12 11  2  0  0  0  0
 13 12  1  0  0  0  0
 14 16  2  0  0  0  0
 14 12  1  0  0  0  0
 15 14  1  0  0  0  0
 16 17  1  0  0  0  0
 17 18  2  0  0  0  0
 19  3  1  0  0  0  0
 19 21  1  0  0  0  0
 20 19  1  0  0  0  0
 22 23  2  0  0  0  0
 22 27  1  0  0  0  0
 23 24  1  0  0  0  0
 24 30  1  0  0  0  0
 24 25  2  0  0  0  0
 26 25  1  0  0  0  0
 26 19  1  0  0  0  0
 27 26  2  0  0  0  0
 28 22  1  0  0  0  0
 29 23  1  0  0  0  0
M  END
>  <minimizedAffinity>
-4.93846273

$$$$

 OpenBabel03252502543D

 30 32  0  0  0  0  0  0  0  0999 V2000
   34.9420   28.5260   39.0110 Br  0  0  0  0  0  0  0  0  0  0  0  0
   36.2020   29.9200   38.5360 C   0  0  0  0  0  0  0  0  0  0  0  0
   36.6050   30.7180   39.5720 C   0  0  0  0  0  0  0  0  0  0  0  0
   37.5130   31.7130   39.1990 C   0  0  0  0  0  0  0  0  0  0  0  0
   37.9700   31.8880   37.9090 C   0  0  0  0  0  0  0  0  0  0  0  0
   37.5010   31.0300   36.9390 C   0  0  0  0  0  0  0  0  0  0  0  0
   36.6060   30.0250   37.2230 C   0  0  0  0  0  0  0  0  0  0  0  0
   37.8930   32.3970   39.9500 H   0  0  0  0  0  0  0  0  0  0  0  0
   38.6740   32.6750   37.6690 H   0  0  0  0  0  0  0  0  0  0  0  0
   37.8300   31.1280   35.9120 H   0  0  0  0  0  0  0  0  0  0  0  0
   36.0600   29.0750   36.2540 C   0  0  0  0  0  0  0  0  0  0  0  0
   34.8690   29.2860   35.6040 C   0  0  0  0  0  0  0  0  0  0  0  0
   34.2920   30.1600   35.7820 H   0  0  0  0  0  0  0  0  0  0  0  0
   34.3140   28.4200   34.6840 C   0  0  0  0  0  0  0  0  0  0  0  0
   33.3720   28.6160   34.1880 H   0  0  0  0  0  0  0  0  0  0  0  0
   35.0030   27.2450   34.3870 C   0  0  0  0  0  3  0  0  0  0  0  0
   36.1950   27.0620   35.0570 C   0  0  0  0  0  3  0  0  0  0  0  0
   36.7000   27.9350   35.9490 N   0  0  0  0  0  0  0  0  0  0  0  0
   36.1990   30.6370   40.9790 C   0  0  0  0  0  0  0  0  0  0  0  0
   36.0790   31.6440   41.4210 H   0  0  0  0  0  0  0  0  0  0  0  0
   35.1810   30.1830   41.0190 H   0  0  0  0  0  0  0  0  0  0  0  0
   39.0430   29.1920   42.9080 C   0  0  0  0  0  0  0  0  0  0  0  0
   38.5400   27.9540   43.3050 C   0  0  0  0  0  0  0  0  0  0  0  0
   37.2370   27.6400   42.9020 C   0  0  0  0  0  0  0  0  0  0  0  0
   36.5380   28.5300   42.1640 N   0  0  0  0  0  0  0  0  0  0  0  0
   37.0660   29.7380   41.7940 C   0  0  0  0  0  0  0  0  0  0  0  0
   38.3170   30.0370   42.1820 N   0  0  0  0  0  0  0  0  0  0  0  0
   40.0430   29.5280   43.1710 H   0  0  0  0  0  0  0  0  0  0  0  0
   39.1650   27.2970   43.8960 H   0  0  0  0  0  0  0  0  0  0  0  0
   36.8240   26.6840   43.1970 H   0  0  0  0  0  0  0  0  0  0  0  0
  2  1  1  0  0  0  0
  2  3  1  0  0  0  0
  3 19  1  0  0  0  0
  4  3  2  0  0  0  0
  4  8  1  0  0  0  0
  5  4  1  0  0  0  0
  6  7  1  0  0  0  0
  6  5  2  0  0  0  0
  7  2  2  0  0  0  0
  9  5  1  0  0  0  0
 10  6  1  0  0  0  0
 11  7  1  0  0  0  0
 12 13  1  0  0  0  0
 12 11  2  0  0  0  0
 14 12  1  0  0  0  0
 15 14  1  0  0  0  0
 16 14  2  0  0  0  0
 16 17  1  0  0  0  0
 17 18  2  0  0  0  0
 18 11  1  0  0  0  0
 19 21  1  0  0  0  0
 19 20  1  0  0  0  0
 19 26  1  0  0  0  0
 22 28  1  0  0  0  0
 22 23  1  0  0  0  0
 23 29  1  0  0  0  0
 24 30  1  0  0  0  0
 24 23  2  0  0  0  0
 25 24  1  0  0  0  0
 26 25  2  0  0  0  0
 26 27  1  0  0  0  0
 27 22  2  0  0  0  0
M  END
>  <minimizedAffinity>
-4.88293982

$$$$
