
 OpenBabel03252507083D

 23 24  0  0  0  0  0  0  0  0999 V2000
   44.5410   36.0320   44.4580 C   0  0  0  0  0  0  0  0  0  0  0  0
   45.1750   35.9680   43.2060 C   0  0  0  0  0  0  0  0  0  0  0  0
   46.0780   34.9210   42.9940 C   0  0  0  0  0  0  0  0  0  0  0  0
   46.2860   34.0370   44.0010 N   0  0  0  0  0  0  0  0  0  0  0  0
   45.6580   34.1240   45.1960 C   0  0  0  0  0  0  0  0  0  0  0  0
   44.7920   35.1200   45.4150 N   0  0  0  0  0  0  0  0  0  0  0  0
   43.8540   36.8700   44.5490 H   0  0  0  0  0  0  0  0  0  0  0  0
   44.9730   36.7060   42.4320 H   0  0  0  0  0  0  0  0  0  0  0  0
   45.9330   33.1330   46.2320 C   0  0  0  0  0  0  0  0  0  0  0  0
   46.9450   32.2140   46.0560 C   0  0  0  0  0  0  0  0  0  0  0  0
   47.5390   32.2300   45.1400 H   0  0  0  0  0  0  0  0  0  0  0  0
   47.2620   31.2580   46.9760 C   0  0  0  0  0  0  0  0  0  0  0  0
   48.0720   30.5460   46.8000 H   0  0  0  0  0  0  0  0  0  0  0  0
   46.5270   31.2180   48.1350 C   0  0  0  0  0  3  0  0  0  0  0  0
   45.5040   32.1450   48.3200 C   0  0  0  0  0  3  0  0  0  0  0  0
   45.2220   33.0810   47.3740 N   0  0  0  0  0  0  0  0  0  0  0  0
   46.7040   34.8570   41.7640 O   0  0  0  0  0  0  0  0  0  0  0  0
   48.6850   33.2540   41.0570 O   0  0  0  0  0  0  0  0  0  0  0  0
   48.3940   34.6080   41.6830 P   0  0  0  0  0  0  0  0  0  0  0  0
   49.0780   35.8600   40.8170 O   0  0  0  0  0  0  0  0  0  0  0  0
   49.2770   35.5350   39.8900 H   0  0  0  0  0  0  0  0  0  0  0  0
   48.9630   34.5770   43.2930 O   0  0  0  0  0  0  0  0  0  0  0  0
   48.8930   35.5140   43.6110 H   0  0  0  0  0  0  0  0  0  0  0  0
  1  7  1  0  0  0  0
  1  6  1  0  0  0  0
  2  1  2  0  0  0  0
  3  2  1  0  0  0  0
  3  4  2  0  0  0  0
  4  5  1  0  0  0  0
  5  6  2  0  0  0  0
  5  9  1  0  0  0  0
  8  2  1  0  0  0  0
  9 16  1  0  0  0  0
 10  9  2  0  0  0  0
 10 12  1  0  0  0  0
 11 10  1  0  0  0  0
 12 14  2  0  0  0  0
 13 12  1  0  0  0  0
 14 15  1  0  0  0  0
 16 15  2  0  0  0  0
 17  3  1  0  0  0  0
 18 19  2  0  0  0  0
 19 17  1  0  0  0  0
 19 22  1  0  0  0  0
 20 19  1  0  0  0  0
 21 20  1  0  0  0  0
 22 23  1  0  0  0  0
M  END
>  <minimizedAffinity>
-5.74738216

>  <minimizedRMSD>
0.452057838

$$$$
