
 OpenBabel03252507433D

 30 32  0  0  0  0  0  0  0  0999 V2000
   45.6220   34.6100   41.6900 C   0  0  0  0  0  0  0  0  0  0  0  0
   45.6190   33.8390   42.4940 H   0  0  0  0  0  0  0  0  0  0  0  0
   45.8500   35.5660   42.2330 H   0  0  0  0  0  0  0  0  0  0  0  0
   44.2400   34.6060   41.1410 C   0  0  0  0  0  0  0  0  0  0  0  0
   43.3410   35.6740   41.4760 C   0  0  0  0  0  0  0  0  0  0  0  0
   41.8070   35.1720   40.5490 S   0  0  0  0  0  0  0  0  0  0  0  0
   42.6750   33.6320   39.8980 C   0  0  0  0  0  0  0  0  0  0  0  0
   43.7130   33.7010   40.3510 N   0  0  0  0  0  0  0  0  0  0  0  0
   43.5610   36.5200   42.1080 H   0  0  0  0  0  0  0  0  0  0  0  0
   41.9800   32.6600   38.9970 C   0  0  0  0  0  0  0  0  0  0  0  0
   40.6200   32.5040   39.1580 C   0  0  0  0  0  0  0  0  0  0  0  0
   40.1430   33.0900   39.9220 H   0  0  0  0  0  0  0  0  0  0  0  0
   40.0200   31.6020   38.3130 C   0  0  0  0  0  0  0  0  0  0  0  0
   38.9380   31.4920   38.4570 H   0  0  0  0  0  0  0  0  0  0  0  0
   40.7660   30.9220   37.3800 C   0  0  0  0  0  3  0  0  0  0  0  0
   42.1270   31.1120   37.2550 C   0  0  0  0  0  3  0  0  0  0  0  0
   42.6950   32.0000   38.0930 N   0  0  0  0  0  0  0  0  0  0  0  0
   46.6880   34.2430   40.7210 C   0  0  0  0  0  0  0  0  0  0  0  0
   46.7490   35.0930   39.9780 H   0  0  0  0  0  0  0  0  0  0  0  0
   46.4090   33.3120   40.2390 H   0  0  0  0  0  0  0  0  0  0  0  0
   48.0420   34.1820   41.3180 C   0  0  0  0  0  0  0  0  0  0  0  0
   48.7480   32.9760   41.1730 C   0  0  0  0  0  0  0  0  0  0  0  0
   50.0130   32.8530   41.7040 C   0  0  0  0  0  0  0  0  0  0  0  0
   50.5390   33.9260   42.3590 N   0  0  0  0  0  0  0  0  0  0  0  0
   49.8350   35.0740   42.4820 C   0  0  0  0  0  0  0  0  0  0  0  0
   48.6080   35.1920   41.9670 N   0  0  0  0  0  0  0  0  0  0  0  0
   50.5950   31.9400   41.6160 H   0  0  0  0  0  0  0  0  0  0  0  0
   50.3370   35.8680   43.0200 H   0  0  0  0  0  0  0  0  0  0  0  0
   48.0040   31.5920   40.2970 S   0  0  0  0  0  0  0  0  0  0  0  0
   47.8920   31.8480   38.9220 H   0  0  0  0  0  0  0  0  0  0  0  0
  1  3  1  0  0  0  0
  1  2  1  0  0  0  0
  4  5  2  0  0  0  0
  4  1  1  0  0  0  0
  5  9  1  0  0  0  0
  6  5  1  0  0  0  0
  7  8  2  0  0  0  0
  7  6  1  0  0  0  0
  8  4  1  0  0  0  0
 10 11  1  0  0  0  0
 10  7  1  0  0  0  0
 11 12  1  0  0  0  0
 13 14  1  0  0  0  0
 13 11  2  0  0  0  0
 15 13  1  0  0  0  0
 16 15  2  0  0  0  0
 16 17  1  0  0  0  0
 17 10  2  0  0  0  0
 18 21  1  0  0  0  0
 18  1  1  0  0  0  0
 19 18  1  0  0  0  0
 20 18  1  0  0  0  0
 21 26  1  0  0  0  0
 22 21  2  0  0  0  0
 22 23  1  0  0  0  0
 23 24  2  0  0  0  0
 24 25  1  0  0  0  0
 25 28  1  0  0  0  0
 26 25  2  0  0  0  0
 27 23  1  0  0  0  0
 29 22  1  0  0  0  0
 30 29  1  0  0  0  0
M  END
>  <minimizedAffinity>
-4.29358959

>  <minimizedRMSD>
0.893215656

$$$$
