
 OpenBabel03252507433D

 30 32  0  0  0  0  0  0  0  0999 V2000
   45.6100   34.5070   41.7660 C   0  0  0  0  0  0  0  0  0  0  0  0
   45.5990   33.6290   42.4510 H   0  0  0  0  0  0  0  0  0  0  0  0
   45.8530   35.3720   42.4400 H   0  0  0  0  0  0  0  0  0  0  0  0
   44.2260   34.6000   41.2310 C   0  0  0  0  0  0  0  0  0  0  0  0
   43.4220   35.7500   41.5380 C   0  0  0  0  0  0  0  0  0  0  0  0
   41.8420   35.3470   40.6420 S   0  0  0  0  0  0  0  0  0  0  0  0
   42.5710   33.7200   40.0340 C   0  0  0  0  0  0  0  0  0  0  0  0
   43.6170   33.7180   40.4750 N   0  0  0  0  0  0  0  0  0  0  0  0
   43.7190   36.5940   42.1400 H   0  0  0  0  0  0  0  0  0  0  0  0
   41.7880   32.7810   39.1720 C   0  0  0  0  0  0  0  0  0  0  0  0
   40.4980   33.1420   38.8460 C   0  0  0  0  0  0  0  0  0  0  0  0
   40.1360   34.0780   39.2310 H   0  0  0  0  0  0  0  0  0  0  0  0
   39.8120   32.2530   38.0540 C   0  0  0  0  0  0  0  0  0  0  0  0
   38.7890   32.5590   37.8050 H   0  0  0  0  0  0  0  0  0  0  0  0
   40.4130   31.0900   37.6360 C   0  0  0  0  0  3  0  0  0  0  0  0
   41.7080   30.7690   37.9890 C   0  0  0  0  0  3  0  0  0  0  0  0
   42.3610   31.6540   38.7650 N   0  0  0  0  0  0  0  0  0  0  0  0
   46.6670   34.2680   40.7490 C   0  0  0  0  0  0  0  0  0  0  0  0
   46.7060   35.1980   40.1070 H   0  0  0  0  0  0  0  0  0  0  0  0
   46.3940   33.3940   40.1670 H   0  0  0  0  0  0  0  0  0  0  0  0
   48.0300   34.1590   41.3180 C   0  0  0  0  0  0  0  0  0  0  0  0
   48.7100   32.9470   41.1170 C   0  0  0  0  0  0  0  0  0  0  0  0
   49.9810   32.7800   41.6190 C   0  0  0  0  0  0  0  0  0  0  0  0
   50.5390   33.8180   42.3030 N   0  0  0  0  0  0  0  0  0  0  0  0
   49.8600   34.9740   42.4810 C   0  0  0  0  0  0  0  0  0  0  0  0
   48.6270   35.1330   41.9930 N   0  0  0  0  0  0  0  0  0  0  0  0
   50.5430   31.8600   41.4880 H   0  0  0  0  0  0  0  0  0  0  0  0
   50.3870   35.7380   43.0380 H   0  0  0  0  0  0  0  0  0  0  0  0
   47.9220   31.6100   40.2050 S   0  0  0  0  0  0  0  0  0  0  0  0
   47.7920   31.9190   38.8420 H   0  0  0  0  0  0  0  0  0  0  0  0
  1  3  1  0  0  0  0
  1  2  1  0  0  0  0
  4  5  2  0  0  0  0
  4  1  1  0  0  0  0
  5  9  1  0  0  0  0
  6  5  1  0  0  0  0
  7  8  2  0  0  0  0
  7  6  1  0  0  0  0
  8  4  1  0  0  0  0
 10  7  1  0  0  0  0
 11 10  1  0  0  0  0
 11 12  1  0  0  0  0
 13 11  2  0  0  0  0
 14 13  1  0  0  0  0
 15 16  2  0  0  0  0
 15 13  1  0  0  0  0
 16 17  1  0  0  0  0
 17 10  2  0  0  0  0
 18 21  1  0  0  0  0
 18  1  1  0  0  0  0
 19 18  1  0  0  0  0
 20 18  1  0  0  0  0
 21 26  1  0  0  0  0
 22 21  2  0  0  0  0
 22 23  1  0  0  0  0
 23 24  2  0  0  0  0
 24 25  1  0  0  0  0
 25 28  1  0  0  0  0
 26 25  2  0  0  0  0
 27 23  1  0  0  0  0
 29 22  1  0  0  0  0
 30 29  1  0  0  0  0
M  END
>  <minimizedAffinity>
-4.2369628

>  <minimizedRMSD>
0.977081835

$$$$
