
 OpenBabel03242510133D

 41 44  0  0  1  0  0  0  0  0999 V2000
   46.8210   33.0090   38.7320 N   0  0  0  0  0  0  0  0  0  0  0  0
   45.9190   33.3150   37.6260 C   0  0  0  0  0  0  0  0  0  0  0  0
   45.1410   32.0930   37.1980 C   0  0  0  0  0  0  0  0  0  0  0  0
   46.0080   31.0870   36.6420 N   0  0  0  0  0  0  0  0  0  0  0  0
   47.3760   31.3260   37.1230 C   0  0  0  0  0  0  0  0  0  0  0  0
   47.3320   31.6320   38.6020 C   0  0  1  0  0  0  0  0  0  0  0  0
   46.5890   33.6510   36.7940 H   0  0  0  0  0  0  0  0  0  0  0  0
   45.2380   34.1400   37.8470 H   0  0  0  0  0  0  0  0  0  0  0  0
   44.3120   32.3840   36.5570 H   0  0  0  0  0  0  0  0  0  0  0  0
   44.7020   31.6770   38.1510 H   0  0  0  0  0  0  0  0  0  0  0  0
   45.9640   31.1550   35.6010 H   0  0  0  0  0  0  0  0  0  0  0  0
   47.9060   30.3760   36.9050 H   0  0  0  0  0  0  0  0  0  0  0  0
   47.9010   32.1000   36.5360 H   0  0  0  0  0  0  0  0  0  0  0  0
   46.4960   31.0020   39.0230 H   0  0  0  0  0  0  0  0  0  0  0  0
   44.9590   32.8680   41.2380 Br  0  0  0  0  0  0  0  0  0  0  0  0
   46.5230   33.9280   40.9950 C   0  0  0  0  0  0  0  0  0  0  0  0
   46.9560   34.7610   41.9960 C   0  0  0  0  0  0  0  0  0  0  0  0
   48.1070   35.5520   41.8360 C   0  0  0  0  0  0  0  0  0  0  0  0
   48.7810   35.4630   40.6530 C   0  0  0  0  0  0  0  0  0  0  0  0
   48.3200   34.6140   39.6650 C   0  0  0  0  0  0  0  0  0  0  0  0
   47.2060   33.8450   39.8100 C   0  0  0  0  0  0  0  0  0  0  0  0
   48.4290   36.2060   42.6470 H   0  0  0  0  0  0  0  0  0  0  0  0
   49.6770   36.0700   40.5120 H   0  0  0  0  0  0  0  0  0  0  0  0
   48.8950   34.5850   38.7480 H   0  0  0  0  0  0  0  0  0  0  0  0
   45.7430   33.9560   45.3480 C   0  0  0  0  0  0  0  0  0  0  0  0
   44.7580   34.9350   45.5970 C   0  0  0  0  0  0  0  0  0  0  0  0
   44.5340   35.8630   44.5850 C   0  0  0  0  0  0  0  0  0  0  0  0
   45.2570   35.7700   43.4550 N   0  0  0  0  0  0  0  0  0  0  0  0
   46.2000   34.8180   43.2380 C   0  0  0  0  0  0  0  0  0  0  0  0
   46.4210   33.9210   44.2080 N   0  0  0  0  0  0  0  0  0  0  0  0
   45.8550   33.2770   46.1810 H   0  0  0  0  0  0  0  0  0  0  0  0
   44.1570   35.0560   46.4720 H   0  0  0  0  0  0  0  0  0  0  0  0
   43.8260   36.6890   44.5810 H   0  0  0  0  0  0  0  0  0  0  0  0
   48.5850   31.4130   39.3140 C   0  0  0  0  0  0  0  0  0  0  0  0
   48.7920   31.0560   40.6300 C   0  0  0  0  0  0  0  0  0  0  0  0
   47.9000   30.9230   41.1970 H   0  0  0  0  0  0  0  0  0  0  0  0
   50.0540   30.8870   41.1610 C   0  0  0  0  0  0  0  0  0  0  0  0
   50.0610   30.6050   42.2140 H   0  0  0  0  0  0  0  0  0  0  0  0
   51.1620   31.0780   40.3590 C   0  0  0  0  0  0  0  0  0  0  0  0
   50.9320   31.4350   39.0440 C   0  0  0  0  0  0  0  0  0  0  0  0
   49.6970   31.5960   38.5430 N   0  0  0  0  0  0  0  0  0  0  0  0
  1 21  1  0  0  0  0
  2  8  1  0  0  0  0
  2  1  1  0  0  0  0
  3  2  1  0  0  0  0
  3 10  1  0  0  0  0
  4  5  1  0  0  0  0
  4  3  1  0  0  0  0
  5  6  1  0  0  0  0
  6  1  1  0  0  0  0
  6 14  1  1  0  0  0
  6 34  1  0  0  0  0
  7  2  1  0  0  0  0
  9  3  1  0  0  0  0
 11  4  1  0  0  0  0
 12  5  1  0  0  0  0
 13  5  1  0  0  0  0
 16 15  1  0  0  0  0
 16 17  1  0  0  0  0
 17 29  1  0  0  0  0
 18 17  2  0  0  0  0
 18 22  1  0  0  0  0
 19 18  1  0  0  0  0
 20 21  1  0  0  0  0
 20 19  2  0  0  0  0
 21 16  2  0  0  0  0
 23 19  1  0  0  0  0
 24 20  1  0  0  0  0
 25 26  1  0  0  0  0
 25 31  1  0  0  0  0
 26 32  1  0  0  0  0
 27 26  2  0  0  0  0
 28 27  1  0  0  0  0
 29 28  2  0  0  0  0
 29 30  1  0  0  0  0
 30 25  2  0  0  0  0
 33 27  1  0  0  0  0
 34 35  1  0  0  0  0
 35 37  2  0  0  0  0
 35 36  1  0  0  0  0
 37 38  1  0  0  0  0
 39 37  1  0  0  0  0
 40 39  2  0  0  0  0
 41 40  1  0  0  0  0
 41 34  2  0  0  0  0
M  END
>  <minimizedAffinity>
-5.79449177

>  <minimizedRMSD>
0.324123859

$$$$
