
 OpenBabel03242510143D

 41 44  0  0  1  0  0  0  0  0999 V2000
   38.6990   30.1770   40.9140 N   0  0  0  0  0  0  0  0  0  0  0  0
   40.0640   30.6940   40.8720 C   0  0  0  0  0  0  0  0  0  0  0  0
   40.0770   32.1970   40.7260 C   0  0  0  0  0  0  0  0  0  0  0  0
   39.5360   32.6050   39.4550 N   0  0  0  0  0  0  0  0  0  0  0  0
   38.6890   31.5230   38.9350 C   0  0  0  0  0  0  0  0  0  0  0  0
   37.8230   30.9930   40.0530 C   0  0  1  0  0  0  0  0  0  0  0  0
   40.5220   30.2180   39.9680 H   0  0  0  0  0  0  0  0  0  0  0  0
   40.6600   30.3910   41.7360 H   0  0  0  0  0  0  0  0  0  0  0  0
   41.0710   32.5840   40.9420 H   0  0  0  0  0  0  0  0  0  0  0  0
   39.3830   32.5750   41.5310 H   0  0  0  0  0  0  0  0  0  0  0  0
   40.3310   32.7980   38.8070 H   0  0  0  0  0  0  0  0  0  0  0  0
   38.0940   32.0110   38.1350 H   0  0  0  0  0  0  0  0  0  0  0  0
   39.2740   30.7340   38.4290 H   0  0  0  0  0  0  0  0  0  0  0  0
   37.5760   31.8830   40.7010 H   0  0  0  0  0  0  0  0  0  0  0  0
   38.8830   27.4360   39.4220 Br  0  0  0  0  0  0  0  0  0  0  0  0
   38.1910   27.7820   41.1630 C   0  0  0  0  0  0  0  0  0  0  0  0
   37.6920   26.7560   41.9250 C   0  0  0  0  0  0  0  0  0  0  0  0
   37.1770   26.9900   43.2120 C   0  0  0  0  0  0  0  0  0  0  0  0
   37.1910   28.2710   43.6790 C   0  0  0  0  0  0  0  0  0  0  0  0
   37.7010   29.2830   42.8880 C   0  0  0  0  0  0  0  0  0  0  0  0
   38.2010   29.0670   41.6410 C   0  0  0  0  0  0  0  0  0  0  0  0
   36.7860   26.1560   43.7970 H   0  0  0  0  0  0  0  0  0  0  0  0
   36.7950   28.4710   44.6770 H   0  0  0  0  0  0  0  0  0  0  0  0
   37.6860   30.2790   43.3110 H   0  0  0  0  0  0  0  0  0  0  0  0
   38.8020   23.3870   41.0450 C   0  0  0  0  0  0  0  0  0  0  0  0
   37.7090   22.8430   40.3370 C   0  0  0  0  0  0  0  0  0  0  0  0
   36.5990   23.6670   40.1780 C   0  0  0  0  0  0  0  0  0  0  0  0
   36.6380   24.9060   40.7010 N   0  0  0  0  0  0  0  0  0  0  0  0
   37.7010   25.4070   41.3780 C   0  0  0  0  0  0  0  0  0  0  0  0
   38.7730   24.6190   41.5350 N   0  0  0  0  0  0  0  0  0  0  0  0
   39.6190   22.6850   41.1230 H   0  0  0  0  0  0  0  0  0  0  0  0
   37.6240   21.8700   39.9020 H   0  0  0  0  0  0  0  0  0  0  0  0
   35.6660   23.4390   39.6690 H   0  0  0  0  0  0  0  0  0  0  0  0
   36.6210   30.2880   39.6220 C   0  0  0  0  0  0  0  0  0  0  0  0
   35.4920   29.9650   40.3440 C   0  0  0  0  0  0  0  0  0  0  0  0
   35.5120   30.2790   41.3610 H   0  0  0  0  0  0  0  0  0  0  0  0
   34.4270   29.2860   39.7860 C   0  0  0  0  0  0  0  0  0  0  0  0
   33.6050   29.1000   40.4770 H   0  0  0  0  0  0  0  0  0  0  0  0
   34.4780   28.9110   38.4580 C   0  0  0  0  0  3  0  0  0  0  0  0
   35.6190   29.2470   37.7540 C   0  0  0  0  0  3  0  0  0  0  0  0
   36.6470   29.9070   38.3120 N   0  0  0  0  0  0  0  0  0  0  0  0
  1 21  1  0  0  0  0
  2  1  1  0  0  0  0
  2  8  1  0  0  0  0
  3  2  1  0  0  0  0
  3  9  1  0  0  0  0
  3 10  1  0  0  0  0
  4  3  1  0  0  0  0
  5  4  1  0  0  0  0
  5  6  1  0  0  0  0
  6 14  1  1  0  0  0
  6  1  1  0  0  0  0
  7  2  1  0  0  0  0
 11  4  1  0  0  0  0
 12  5  1  0  0  0  0
 13  5  1  0  0  0  0
 15 16  1  0  0  0  0
 16 21  2  0  0  0  0
 16 17  1  0  0  0  0
 17 18  2  0  0  0  0
 18 19  1  0  0  0  0
 18 22  1  0  0  0  0
 19 23  1  0  0  0  0
 20 24  1  0  0  0  0
 20 19  2  0  0  0  0
 21 20  1  0  0  0  0
 25 31  1  0  0  0  0
 25 30  1  0  0  0  0
 26 25  2  0  0  0  0
 27 26  1  0  0  0  0
 27 28  2  0  0  0  0
 28 29  1  0  0  0  0
 29 30  2  0  0  0  0
 29 17  1  0  0  0  0
 32 26  1  0  0  0  0
 33 27  1  0  0  0  0
 34  6  1  0  0  0  0
 34 35  1  0  0  0  0
 35 36  1  0  0  0  0
 37 35  2  0  0  0  0
 37 38  1  0  0  0  0
 39 37  1  0  0  0  0
 40 41  1  0  0  0  0
 40 39  2  0  0  0  0
 41 34  2  0  0  0  0
M  END
>  <minimizedAffinity>
-5.93325806

$$$$

 OpenBabel03242510143D

 41 44  0  0  1  0  0  0  0  0999 V2000
   38.5030   31.3070   40.2450 N   0  0  0  0  0  0  0  0  0  0  0  0
   39.1450   32.3430   41.0480 C   0  0  0  0  0  0  0  0  0  0  0  0
   38.9760   33.7070   40.4210 C   0  0  0  0  0  0  0  0  0  0  0  0
   39.6680   33.7950   39.1620 N   0  0  0  0  0  0  0  0  0  0  0  0
   39.8740   32.4370   38.6410 C   0  0  0  0  0  0  0  0  0  0  0  0
   38.5990   31.6450   38.8120 C   0  0  1  0  0  0  0  0  0  0  0  0
   40.2290   32.0620   41.0630 H   0  0  0  0  0  0  0  0  0  0  0  0
   38.7980   32.3550   42.0840 H   0  0  0  0  0  0  0  0  0  0  0  0
   39.2360   34.4820   41.1390 H   0  0  0  0  0  0  0  0  0  0  0  0
   37.8700   33.7970   40.2120 H   0  0  0  0  0  0  0  0  0  0  0  0
   40.5820   34.2730   39.3230 H   0  0  0  0  0  0  0  0  0  0  0  0
   40.1310   32.5960   37.5730 H   0  0  0  0  0  0  0  0  0  0  0  0
   40.7550   31.9420   39.0870 H   0  0  0  0  0  0  0  0  0  0  0  0
   37.7560   32.3790   38.6590 H   0  0  0  0  0  0  0  0  0  0  0  0
   40.4310   29.0300   41.1760 Br  0  0  0  0  0  0  0  0  0  0  0  0
   38.5270   29.0130   41.1350 C   0  0  0  0  0  0  0  0  0  0  0  0
   37.8360   27.9020   41.5480 C   0  0  0  0  0  0  0  0  0  0  0  0
   36.4310   27.8680   41.5240 C   0  0  0  0  0  0  0  0  0  0  0  0
   35.7750   28.9780   41.0780 C   0  0  0  0  0  0  0  0  0  0  0  0
   36.4990   30.0820   40.6690 C   0  0  0  0  0  0  0  0  0  0  0  0
   37.8600   30.1240   40.6870 C   0  0  0  0  0  0  0  0  0  0  0  0
   35.9060   26.9720   41.8580 H   0  0  0  0  0  0  0  0  0  0  0  0
   34.6840   28.9690   41.0530 H   0  0  0  0  0  0  0  0  0  0  0  0
   35.9260   30.9330   40.3240 H   0  0  0  0  0  0  0  0  0  0  0  0
   39.8310   25.7000   43.6770 C   0  0  0  0  0  0  0  0  0  0  0  0
   40.0040   24.5380   42.8960 C   0  0  0  0  0  0  0  0  0  0  0  0
   39.4190   24.5430   41.6330 C   0  0  0  0  0  0  0  0  0  0  0  0
   38.7370   25.6370   41.2450 N   0  0  0  0  0  0  0  0  0  0  0  0
   38.5840   26.7430   42.0150 C   0  0  0  0  0  0  0  0  0  0  0  0
   39.1450   26.7450   43.2320 N   0  0  0  0  0  0  0  0  0  0  0  0
   40.3150   25.6130   44.6390 H   0  0  0  0  0  0  0  0  0  0  0  0
   40.5330   23.6450   43.1520 H   0  0  0  0  0  0  0  0  0  0  0  0
   39.4360   23.7550   40.8860 H   0  0  0  0  0  0  0  0  0  0  0  0
   38.4710   30.4850   37.9380 C   0  0  0  0  0  0  0  0  0  0  0  0
   39.3810   29.4810   37.6790 C   0  0  0  0  0  0  0  0  0  0  0  0
   40.3050   29.5780   38.1970 H   0  0  0  0  0  0  0  0  0  0  0  0
   39.1060   28.4400   36.8150 C   0  0  0  0  0  0  0  0  0  0  0  0
   39.9200   27.7220   36.7090 H   0  0  0  0  0  0  0  0  0  0  0  0
   37.8810   28.3860   36.1800 C   0  0  0  0  0  3  0  0  0  0  0  0
   36.9860   29.4020   36.4550 C   0  0  0  0  0  3  0  0  0  0  0  0
   37.2680   30.4080   37.2970 N   0  0  0  0  0  0  0  0  0  0  0  0
  1 21  1  0  0  0  0
  1  2  1  0  0  0  0
  2  7  1  0  0  0  0
  2  8  1  0  0  0  0
  3  2  1  0  0  0  0
  3  9  1  0  0  0  0
  4 11  1  0  0  0  0
  4  3  1  0  0  0  0
  5  6  1  0  0  0  0
  5 13  1  0  0  0  0
  5  4  1  0  0  0  0
  6 14  1  6  0  0  0
  6  1  1  0  0  0  0
 10  3  1  0  0  0  0
 12  5  1  0  0  0  0
 16 15  1  0  0  0  0
 16 17  1  0  0  0  0
 17 29  1  0  0  0  0
 18 17  2  0  0  0  0
 18 22  1  0  0  0  0
 19 18  1  0  0  0  0
 20 21  1  0  0  0  0
 20 19  2  0  0  0  0
 21 16  2  0  0  0  0
 23 19  1  0  0  0  0
 24 20  1  0  0  0  0
 25 31  1  0  0  0  0
 26 32  1  0  0  0  0
 26 25  2  0  0  0  0
 27 26  1  0  0  0  0
 28 27  2  0  0  0  0
 28 29  1  0  0  0  0
 29 30  2  0  0  0  0
 30 25  1  0  0  0  0
 33 27  1  0  0  0  0
 34  6  1  0  0  0  0
 35 34  1  0  0  0  0
 35 36  1  0  0  0  0
 37 35  2  0  0  0  0
 38 37  1  0  0  0  0
 39 40  2  0  0  0  0
 39 37  1  0  0  0  0
 40 41  1  0  0  0  0
 41 34  2  0  0  0  0
M  END
>  <minimizedAffinity>
-5.82668734

$$$$

 OpenBabel03242510143D

 41 44  0  0  1  0  0  0  0  0999 V2000
   38.5400   31.3120   40.7670 N   0  0  0  0  0  0  0  0  0  0  0  0
   39.5660   32.3450   40.6660 C   0  0  0  0  0  0  0  0  0  0  0  0
   38.9700   33.7260   40.8050 C   0  0  0  0  0  0  0  0  0  0  0  0
   38.0920   34.0310   39.7050 N   0  0  0  0  0  0  0  0  0  0  0  0
   37.6510   32.7710   39.0910 C   0  0  0  0  0  0  0  0  0  0  0  0
   37.2750   31.7960   40.1820 C   0  0  1  0  0  0  0  0  0  0  0  0
   40.0010   32.2180   39.6420 H   0  0  0  0  0  0  0  0  0  0  0  0
   40.3790   32.2080   41.3830 H   0  0  0  0  0  0  0  0  0  0  0  0
   39.7570   34.4570   40.9750 H   0  0  0  0  0  0  0  0  0  0  0  0
   38.3420   33.6800   41.7420 H   0  0  0  0  0  0  0  0  0  0  0  0
   38.6180   34.6140   39.0180 H   0  0  0  0  0  0  0  0  0  0  0  0
   36.7780   33.0670   38.4720 H   0  0  0  0  0  0  0  0  0  0  0  0
   38.3930   32.3640   38.3820 H   0  0  0  0  0  0  0  0  0  0  0  0
   36.8250   32.4160   41.0110 H   0  0  0  0  0  0  0  0  0  0  0  0
   39.7360   29.1530   38.8480 Br  0  0  0  0  0  0  0  0  0  0  0  0
   39.1500   28.9300   40.6460 C   0  0  0  0  0  0  0  0  0  0  0  0
   39.2270   27.7010   41.2520 C   0  0  0  0  0  0  0  0  0  0  0  0
   38.7990   27.5150   42.5780 C   0  0  0  0  0  0  0  0  0  0  0  0
   38.3050   28.5980   43.2440 C   0  0  0  0  0  0  0  0  0  0  0  0
   38.2400   29.8230   42.6080 C   0  0  0  0  0  0  0  0  0  0  0  0
   38.6510   30.0130   41.3240 C   0  0  0  0  0  0  0  0  0  0  0  0
   38.8710   26.5280   43.0350 H   0  0  0  0  0  0  0  0  0  0  0  0
   37.9680   28.4720   44.2750 H   0  0  0  0  0  0  0  0  0  0  0  0
   37.8390   30.6460   43.1850 H   0  0  0  0  0  0  0  0  0  0  0  0
   39.4150   24.7620   39.0880 C   0  0  0  0  0  0  0  0  0  0  0  0
   40.7900   24.4480   39.0600 C   0  0  0  0  0  0  0  0  0  0  0  0
   41.6320   25.2710   39.8020 C   0  0  0  0  0  0  0  0  0  0  0  0
   41.0900   26.2960   40.4850 N   0  0  0  0  0  0  0  0  0  0  0  0
   39.7630   26.5790   40.4950 C   0  0  0  0  0  0  0  0  0  0  0  0
   38.9480   25.7900   39.7840 N   0  0  0  0  0  0  0  0  0  0  0  0
   38.8350   24.0760   38.4880 H   0  0  0  0  0  0  0  0  0  0  0  0
   41.2740   23.6500   38.5380 H   0  0  0  0  0  0  0  0  0  0  0  0
   42.7110   25.1990   39.9110 H   0  0  0  0  0  0  0  0  0  0  0  0
   36.3840   30.7190   39.7670 C   0  0  0  0  0  0  0  0  0  0  0  0
   35.5020   29.9750   40.5220 C   0  0  0  0  0  0  0  0  0  0  0  0
   35.4770   30.2330   41.5550 H   0  0  0  0  0  0  0  0  0  0  0  0
   34.7190   28.9790   39.9750 C   0  0  0  0  0  0  0  0  0  0  0  0
   34.0710   28.4760   40.6940 H   0  0  0  0  0  0  0  0  0  0  0  0
   34.8090   28.7040   38.6250 C   0  0  0  0  0  3  0  0  0  0  0  0
   35.6990   29.4620   37.8880 C   0  0  0  0  0  3  0  0  0  0  0  0
   36.4540   30.4280   38.4360 N   0  0  0  0  0  0  0  0  0  0  0  0
  1 21  1  0  0  0  0
  2  1  1  0  0  0  0
  2  3  1  0  0  0  0
  2  8  1  0  0  0  0
  3  9  1  0  0  0  0
  3 10  1  0  0  0  0
  4  3  1  0  0  0  0
  5  4  1  0  0  0  0
  5  6  1  0  0  0  0
  6  1  1  0  0  0  0
  6 14  1  1  0  0  0
  7  2  1  0  0  0  0
 11  4  1  0  0  0  0
 12  5  1  0  0  0  0
 13  5  1  0  0  0  0
 15 16  1  0  0  0  0
 16 17  2  0  0  0  0
 16 21  1  0  0  0  0
 17 18  1  0  0  0  0
 18 22  1  0  0  0  0
 18 19  2  0  0  0  0
 19 23  1  0  0  0  0
 20 24  1  0  0  0  0
 20 19  1  0  0  0  0
 21 20  2  0  0  0  0
 25 30  1  0  0  0  0
 26 25  2  0  0  0  0
 26 27  1  0  0  0  0
 27 33  1  0  0  0  0
 27 28  2  0  0  0  0
 28 29  1  0  0  0  0
 29 17  1  0  0  0  0
 30 29  2  0  0  0  0
 31 25  1  0  0  0  0
 32 26  1  0  0  0  0
 34  6  1  0  0  0  0
 34 35  1  0  0  0  0
 35 36  1  0  0  0  0
 37 35  2  0  0  0  0
 37 38  1  0  0  0  0
 39 37  1  0  0  0  0
 40 41  1  0  0  0  0
 40 39  2  0  0  0  0
 41 34  2  0  0  0  0
M  END
>  <minimizedAffinity>
-5.74515629

$$$$

 OpenBabel03242510143D

 41 44  0  0  1  0  0  0  0  0999 V2000
   39.9060   29.7540   42.2130 N   0  0  0  0  0  0  0  0  0  0  0  0
   41.2940   29.7910   42.6640 C   0  0  0  0  0  0  0  0  0  0  0  0
   41.7150   31.1950   43.0280 C   0  0  0  0  0  0  0  0  0  0  0  0
   41.7250   32.0560   41.8730 N   0  0  0  0  0  0  0  0  0  0  0  0
   40.8560   31.4720   40.8430 C   0  0  0  0  0  0  0  0  0  0  0  0
   39.5760   30.9960   41.4890 C   0  0  1  0  0  0  0  0  0  0  0  0
   41.8900   29.4290   41.7870 H   0  0  0  0  0  0  0  0  0  0  0  0
   41.4900   29.1090   43.4940 H   0  0  0  0  0  0  0  0  0  0  0  0
   42.6490   31.1720   43.5860 H   0  0  0  0  0  0  0  0  0  0  0  0
   40.9120   31.5690   43.7270 H   0  0  0  0  0  0  0  0  0  0  0  0
   42.7080   32.1320   41.5300 H   0  0  0  0  0  0  0  0  0  0  0  0
   40.6840   32.3070   40.1330 H   0  0  0  0  0  0  0  0  0  0  0  0
   41.3640   30.6850   40.2580 H   0  0  0  0  0  0  0  0  0  0  0  0
   39.3560   31.7300   42.3180 H   0  0  0  0  0  0  0  0  0  0  0  0
   40.1040   27.3940   40.1720 Br  0  0  0  0  0  0  0  0  0  0  0  0
   38.8700   27.6060   41.6070 C   0  0  0  0  0  0  0  0  0  0  0  0
   37.9150   26.6490   41.8440 C   0  0  0  0  0  0  0  0  0  0  0  0
   36.9940   26.7860   42.8970 C   0  0  0  0  0  0  0  0  0  0  0  0
   37.0810   27.9020   43.6770 C   0  0  0  0  0  0  0  0  0  0  0  0
   38.0540   28.8470   43.4130 C   0  0  0  0  0  0  0  0  0  0  0  0
   38.9490   28.7240   42.3960 C   0  0  0  0  0  0  0  0  0  0  0  0
   36.2450   26.0110   43.0640 H   0  0  0  0  0  0  0  0  0  0  0  0
   36.3740   28.0240   44.5000 H   0  0  0  0  0  0  0  0  0  0  0  0
   38.0750   29.7120   44.0650 H   0  0  0  0  0  0  0  0  0  0  0  0
   37.0490   24.4230   39.0780 C   0  0  0  0  0  0  0  0  0  0  0  0
   37.7790   23.2460   39.3480 C   0  0  0  0  0  0  0  0  0  0  0  0
   38.5630   23.2500   40.4970 C   0  0  0  0  0  0  0  0  0  0  0  0
   38.5770   24.3560   41.2630 N   0  0  0  0  0  0  0  0  0  0  0  0
   37.8660   25.4770   40.9820 C   0  0  0  0  0  0  0  0  0  0  0  0
   37.1080   25.4800   39.8770 N   0  0  0  0  0  0  0  0  0  0  0  0
   36.4690   24.3360   38.1710 H   0  0  0  0  0  0  0  0  0  0  0  0
   37.8060   22.3420   38.7780 H   0  0  0  0  0  0  0  0  0  0  0  0
   39.1940   22.4500   40.8780 H   0  0  0  0  0  0  0  0  0  0  0  0
   38.4440   30.8490   40.5820 C   0  0  0  0  0  0  0  0  0  0  0  0
   37.0960   30.9840   40.8380 C   0  0  0  0  0  0  0  0  0  0  0  0
   36.8600   31.2300   41.8460 H   0  0  0  0  0  0  0  0  0  0  0  0
   36.1370   30.8110   39.8600 C   0  0  0  0  0  0  0  0  0  0  0  0
   35.1140   30.9490   40.2100 H   0  0  0  0  0  0  0  0  0  0  0  0
   36.5240   30.4920   38.5740 C   0  0  0  0  0  3  0  0  0  0  0  0
   37.8800   30.3620   38.3400 C   0  0  0  0  0  3  0  0  0  0  0  0
   38.8010   30.5340   39.3030 N   0  0  0  0  0  0  0  0  0  0  0  0
  1 21  1  0  0  0  0
  1  2  1  0  0  0  0
  2  3  1  0  0  0  0
  2  8  1  0  0  0  0
  3  9  1  0  0  0  0
  3 10  1  0  0  0  0
  4  3  1  0  0  0  0
  5  6  1  0  0  0  0
  5  4  1  0  0  0  0
  6  1  1  0  0  0  0
  6 14  1  1  0  0  0
  7  2  1  0  0  0  0
 11  4  1  0  0  0  0
 12  5  1  0  0  0  0
 13  5  1  0  0  0  0
 15 16  1  0  0  0  0
 16 17  2  0  0  0  0
 16 21  1  0  0  0  0
 17 18  1  0  0  0  0
 18 22  1  0  0  0  0
 18 19  2  0  0  0  0
 19 23  1  0  0  0  0
 20 19  1  0  0  0  0
 20 24  1  0  0  0  0
 21 20  2  0  0  0  0
 25 26  2  0  0  0  0
 25 30  1  0  0  0  0
 26 27  1  0  0  0  0
 27 33  1  0  0  0  0
 27 28  2  0  0  0  0
 29 28  1  0  0  0  0
 29 17  1  0  0  0  0
 30 29  2  0  0  0  0
 31 25  1  0  0  0  0
 32 26  1  0  0  0  0
 34 35  1  0  0  0  0
 34  6  1  0  0  0  0
 35 36  1  0  0  0  0
 37 38  1  0  0  0  0
 37 35  2  0  0  0  0
 39 37  1  0  0  0  0
 40 39  2  0  0  0  0
 40 41  1  0  0  0  0
 41 34  2  0  0  0  0
M  END
>  <minimizedAffinity>
-5.74277973

$$$$

 OpenBabel03242510143D

 41 44  0  0  1  0  0  0  0  0999 V2000
   37.3860   25.6220   40.6820 N   0  0  0  0  0  0  0  0  0  0  0  0
   36.4440   25.3700   39.5960 C   0  0  0  0  0  0  0  0  0  0  0  0
   36.0980   23.9030   39.4990 C   0  0  0  0  0  0  0  0  0  0  0  0
   37.2450   23.1170   39.1240 N   0  0  0  0  0  0  0  0  0  0  0  0
   38.4610   23.8730   39.4520 C   0  0  0  0  0  0  0  0  0  0  0  0
   38.3090   24.4810   40.8260 C   0  0  1  0  0  0  0  0  0  0  0  0
   36.9810   25.6970   38.6690 H   0  0  0  0  0  0  0  0  0  0  0  0
   35.5350   25.9710   39.6730 H   0  0  0  0  0  0  0  0  0  0  0  0
   35.2250   23.7670   38.8640 H   0  0  0  0  0  0  0  0  0  0  0  0
   35.8040   23.6030   40.5470 H   0  0  0  0  0  0  0  0  0  0  0  0
   37.1910   22.9280   38.0990 H   0  0  0  0  0  0  0  0  0  0  0  0
   39.2670   23.1110   39.4150 H   0  0  0  0  0  0  0  0  0  0  0  0
   38.7200   24.6150   38.6760 H   0  0  0  0  0  0  0  0  0  0  0  0
   37.7120   23.7370   41.4290 H   0  0  0  0  0  0  0  0  0  0  0  0
   38.7690   28.1090   39.3870 Br  0  0  0  0  0  0  0  0  0  0  0  0
   38.0470   27.9480   41.1420 C   0  0  0  0  0  0  0  0  0  0  0  0
   38.0980   29.0090   42.0100 C   0  0  0  0  0  0  0  0  0  0  0  0
   37.5710   28.9110   43.3100 C   0  0  0  0  0  0  0  0  0  0  0  0
   37.0060   27.7260   43.6800 C   0  0  0  0  0  0  0  0  0  0  0  0
   36.9680   26.6760   42.7810 C   0  0  0  0  0  0  0  0  0  0  0  0
   37.4770   26.7610   41.5220 C   0  0  0  0  0  0  0  0  0  0  0  0
   37.6250   29.7690   43.9810 H   0  0  0  0  0  0  0  0  0  0  0  0
   36.5910   27.6320   44.6850 H   0  0  0  0  0  0  0  0  0  0  0  0
   36.5080   25.7600   43.1300 H   0  0  0  0  0  0  0  0  0  0  0  0
   38.5070   32.3560   40.6000 C   0  0  0  0  0  0  0  0  0  0  0  0
   39.8890   32.6100   40.7240 C   0  0  0  0  0  0  0  0  0  0  0  0
   40.6580   31.6030   41.3000 C   0  0  0  0  0  0  0  0  0  0  0  0
   40.0450   30.4730   41.6950 N   0  0  0  0  0  0  0  0  0  0  0  0
   38.7130   30.2520   41.5660 C   0  0  0  0  0  0  0  0  0  0  0  0
   37.9670   31.2160   41.0120 N   0  0  0  0  0  0  0  0  0  0  0  0
   37.9850   33.1850   40.1450 H   0  0  0  0  0  0  0  0  0  0  0  0
   40.4270   33.4860   40.4290 H   0  0  0  0  0  0  0  0  0  0  0  0
   41.7290   31.6030   41.4830 H   0  0  0  0  0  0  0  0  0  0  0  0
   39.5600   24.8320   41.4880 C   0  0  0  0  0  0  0  0  0  0  0  0
   39.8780   24.8030   42.8290 C   0  0  0  0  0  0  0  0  0  0  0  0
   39.0880   24.4750   43.4630 H   0  0  0  0  0  0  0  0  0  0  0  0
   41.1210   25.1710   43.3020 C   0  0  0  0  0  0  0  0  0  0  0  0
   41.2250   25.0980   44.3850 H   0  0  0  0  0  0  0  0  0  0  0  0
   42.0940   25.5860   42.4150 C   0  0  0  0  0  3  0  0  0  0  0  0
   41.7530   25.6070   41.0750 C   0  0  0  0  0  3  0  0  0  0  0  0
   40.5390   25.2450   40.6310 N   0  0  0  0  0  0  0  0  0  0  0  0
  1  6  1  0  0  0  0
  1 21  1  0  0  0  0
  2  8  1  0  0  0  0
  2  1  1  0  0  0  0
  3  2  1  0  0  0  0
  3 10  1  0  0  0  0
  4  5  1  0  0  0  0
  4  3  1  0  0  0  0
  5  6  1  0  0  0  0
  6 14  1  1  0  0  0
  6 34  1  0  0  0  0
  7  2  1  0  0  0  0
  9  3  1  0  0  0  0
 11  4  1  0  0  0  0
 12  5  1  0  0  0  0
 13  5  1  0  0  0  0
 15 16  1  0  0  0  0
 16 21  2  0  0  0  0
 16 17  1  0  0  0  0
 17 18  2  0  0  0  0
 18 19  1  0  0  0  0
 18 22  1  0  0  0  0
 19 23  1  0  0  0  0
 20 24  1  0  0  0  0
 20 19  2  0  0  0  0
 21 20  1  0  0  0  0
 25 26  2  0  0  0  0
 25 30  1  0  0  0  0
 26 27  1  0  0  0  0
 27 33  1  0  0  0  0
 27 28  2  0  0  0  0
 29 28  1  0  0  0  0
 29 17  1  0  0  0  0
 30 29  2  0  0  0  0
 31 25  1  0  0  0  0
 32 26  1  0  0  0  0
 34 35  1  0  0  0  0
 35 37  2  0  0  0  0
 35 36  1  0  0  0  0
 37 38  1  0  0  0  0
 39 37  1  0  0  0  0
 40 39  2  0  0  0  0
 41 40  1  0  0  0  0
 41 34  2  0  0  0  0
M  END
>  <minimizedAffinity>
-5.56768131

$$$$

 OpenBabel03242510143D

 41 44  0  0  1  0  0  0  0  0999 V2000
   37.0970   28.4600   38.0890 N   0  0  0  0  0  0  0  0  0  0  0  0
   36.5100   27.6270   37.0440 C   0  0  0  0  0  0  0  0  0  0  0  0
   37.3620   27.6310   35.7960 C   0  0  0  0  0  0  0  0  0  0  0  0
   37.3990   28.9370   35.1900 N   0  0  0  0  0  0  0  0  0  0  0  0
   37.0500   29.9380   36.2070 C   0  0  0  0  0  0  0  0  0  0  0  0
   37.7850   29.6180   37.4870 C   0  0  1  0  0  0  0  0  0  0  0  0
   35.5160   28.0960   36.8280 H   0  0  0  0  0  0  0  0  0  0  0  0
   36.3220   26.6020   37.3710 H   0  0  0  0  0  0  0  0  0  0  0  0
   37.0520   26.8290   35.1300 H   0  0  0  0  0  0  0  0  0  0  0  0
   38.4050   27.3900   36.1540 H   0  0  0  0  0  0  0  0  0  0  0  0
   36.7130   28.9520   34.4040 H   0  0  0  0  0  0  0  0  0  0  0  0
   37.3820   30.8990   35.7600 H   0  0  0  0  0  0  0  0  0  0  0  0
   35.9590   30.0370   36.3460 H   0  0  0  0  0  0  0  0  0  0  0  0
   38.7830   29.1940   37.1740 H   0  0  0  0  0  0  0  0  0  0  0  0
   39.6530   27.1320   39.3010 Br  0  0  0  0  0  0  0  0  0  0  0  0
   38.0810   27.7000   40.2130 C   0  0  0  0  0  0  0  0  0  0  0  0
   37.9750   27.5440   41.5720 C   0  0  0  0  0  0  0  0  0  0  0  0
   36.8220   27.9550   42.2630 C   0  0  0  0  0  0  0  0  0  0  0  0
   35.8120   28.5170   41.5390 C   0  0  0  0  0  0  0  0  0  0  0  0
   35.9490   28.6620   40.1710 C   0  0  0  0  0  0  0  0  0  0  0  0
   37.0610   28.2660   39.4930 C   0  0  0  0  0  0  0  0  0  0  0  0
   36.7630   27.8190   43.3440 H   0  0  0  0  0  0  0  0  0  0  0  0
   34.9100   28.8430   42.0600 H   0  0  0  0  0  0  0  0  0  0  0  0
   35.1160   29.1140   39.6490 H   0  0  0  0  0  0  0  0  0  0  0  0
   40.1400   25.0370   43.1170 C   0  0  0  0  0  0  0  0  0  0  0  0
   41.1900   25.7940   43.6780 C   0  0  0  0  0  0  0  0  0  0  0  0
   41.1220   27.1740   43.5060 C   0  0  0  0  0  0  0  0  0  0  0  0
   40.0800   27.6880   42.8280 N   0  0  0  0  0  0  0  0  0  0  0  0
   39.0820   26.9380   42.2980 C   0  0  0  0  0  0  0  0  0  0  0  0
   39.1400   25.6090   42.4590 N   0  0  0  0  0  0  0  0  0  0  0  0
   40.2680   23.9800   43.2950 H   0  0  0  0  0  0  0  0  0  0  0  0
   42.0380   25.4410   44.2240 H   0  0  0  0  0  0  0  0  0  0  0  0
   41.8240   27.9260   43.8580 H   0  0  0  0  0  0  0  0  0  0  0  0
   37.9390   30.7380   38.4070 C   0  0  0  0  0  0  0  0  0  0  0  0
   37.0080   31.6720   38.8110 C   0  0  0  0  0  0  0  0  0  0  0  0
   36.0420   31.5460   38.3830 H   0  0  0  0  0  0  0  0  0  0  0  0
   37.3140   32.6840   39.6990 C   0  0  0  0  0  0  0  0  0  0  0  0
   36.4780   33.3460   39.9240 H   0  0  0  0  0  0  0  0  0  0  0  0
   38.5930   32.7790   40.2110 C   0  0  0  0  0  3  0  0  0  0  0  0
   39.5090   31.8330   39.7920 C   0  0  0  0  0  3  0  0  0  0  0  0
   39.1960   30.8540   38.9280 N   0  0  0  0  0  0  0  0  0  0  0  0
  1 21  1  0  0  0  0
  2  8  1  0  0  0  0
  2  1  1  0  0  0  0
  3 10  1  0  0  0  0
  3  2  1  0  0  0  0
  4  3  1  0  0  0  0
  4  5  1  0  0  0  0
  5 13  1  0  0  0  0
  5  6  1  0  0  0  0
  6 14  1  6  0  0  0
  6  1  1  0  0  0  0
  6 34  1  0  0  0  0
  7  2  1  0  0  0  0
  9  3  1  0  0  0  0
 11  4  1  0  0  0  0
 12  5  1  0  0  0  0
 15 16  1  0  0  0  0
 16 17  1  0  0  0  0
 17 18  2  0  0  0  0
 17 29  1  0  0  0  0
 18 22  1  0  0  0  0
 19 23  1  0  0  0  0
 19 18  1  0  0  0  0
 20 19  2  0  0  0  0
 21 20  1  0  0  0  0
 21 16  2  0  0  0  0
 24 20  1  0  0  0  0
 25 31  1  0  0  0  0
 25 26  1  0  0  0  0
 26 32  1  0  0  0  0
 27 26  2  0  0  0  0
 27 33  1  0  0  0  0
 28 27  1  0  0  0  0
 29 30  1  0  0  0  0
 29 28  2  0  0  0  0
 30 25  2  0  0  0  0
 34 35  2  0  0  0  0
 34 41  1  0  0  0  0
 35 37  1  0  0  0  0
 36 35  1  0  0  0  0
 37 38  1  0  0  0  0
 37 39  2  0  0  0  0
 40 39  1  0  0  0  0
 41 40  2  0  0  0  0
M  END
>  <minimizedAffinity>
-5.5525136

$$$$

 OpenBabel03242510143D

 41 44  0  0  1  0  0  0  0  0999 V2000
   37.8680   30.3590   40.6290 N   0  0  0  0  0  0  0  0  0  0  0  0
   36.7800   31.1780   40.1050 C   0  0  0  0  0  0  0  0  0  0  0  0
   37.1180   31.7310   38.7400 C   0  0  0  0  0  0  0  0  0  0  0  0
   38.2190   32.6560   38.8070 N   0  0  0  0  0  0  0  0  0  0  0  0
   38.9840   32.3900   40.0330 C   0  0  0  0  0  0  0  0  0  0  0  0
   39.1670   30.8990   40.1870 C   0  0  1  0  0  0  0  0  0  0  0  0
   36.6730   32.0160   40.8400 H   0  0  0  0  0  0  0  0  0  0  0  0
   35.8240   30.6490   40.0740 H   0  0  0  0  0  0  0  0  0  0  0  0
   36.2220   32.1240   38.2640 H   0  0  0  0  0  0  0  0  0  0  0  0
   37.4560   30.8380   38.1390 H   0  0  0  0  0  0  0  0  0  0  0  0
   37.8330   33.6250   38.8140 H   0  0  0  0  0  0  0  0  0  0  0  0
   39.9460   32.9180   39.8680 H   0  0  0  0  0  0  0  0  0  0  0  0
   38.5340   32.8660   40.9230 H   0  0  0  0  0  0  0  0  0  0  0  0
   39.2760   30.4910   39.1400 H   0  0  0  0  0  0  0  0  0  0  0  0
   37.9170   27.6430   39.0820 Br  0  0  0  0  0  0  0  0  0  0  0  0
   37.7890   27.9210   40.9620 C   0  0  0  0  0  0  0  0  0  0  0  0
   37.7040   26.8510   41.8150 C   0  0  0  0  0  0  0  0  0  0  0  0
   37.6080   27.0340   43.2060 C   0  0  0  0  0  0  0  0  0  0  0  0
   37.6030   28.3130   43.6790 C   0  0  0  0  0  0  0  0  0  0  0  0
   37.6910   29.3720   42.7940 C   0  0  0  0  0  0  0  0  0  0  0  0
   37.7830   29.2040   41.4470 C   0  0  0  0  0  0  0  0  0  0  0  0
   37.5410   26.1660   43.8620 H   0  0  0  0  0  0  0  0  0  0  0  0
   37.5300   28.4750   44.7560 H   0  0  0  0  0  0  0  0  0  0  0  0
   37.6830   30.3640   43.2270 H   0  0  0  0  0  0  0  0  0  0  0  0
   38.8930   23.6030   40.6340 C   0  0  0  0  0  0  0  0  0  0  0  0
   37.7210   22.9500   40.1970 C   0  0  0  0  0  0  0  0  0  0  0  0
   36.5300   23.6590   40.3230 C   0  0  0  0  0  0  0  0  0  0  0  0
   36.5720   24.8990   40.8440 N   0  0  0  0  0  0  0  0  0  0  0  0
   37.7130   25.5060   41.2580 C   0  0  0  0  0  0  0  0  0  0  0  0
   38.8630   24.8290   41.1390 N   0  0  0  0  0  0  0  0  0  0  0  0
   39.7690   22.9850   40.5010 H   0  0  0  0  0  0  0  0  0  0  0  0
   37.6290   21.9710   39.7780 H   0  0  0  0  0  0  0  0  0  0  0  0
   35.5290   23.3380   40.0480 H   0  0  0  0  0  0  0  0  0  0  0  0
   40.2780   30.4980   41.0420 C   0  0  0  0  0  0  0  0  0  0  0  0
   41.0770   29.3770   40.9680 C   0  0  0  0  0  0  0  0  0  0  0  0
   40.8390   28.7160   40.1680 H   0  0  0  0  0  0  0  0  0  0  0  0
   42.0990   29.1380   41.8640 C   0  0  0  0  0  0  0  0  0  0  0  0
   42.6450   28.2110   41.6810 H   0  0  0  0  0  0  0  0  0  0  0  0
   42.3460   30.0450   42.8760 C   0  0  0  0  0  3  0  0  0  0  0  0
   41.5330   31.1610   42.9300 C   0  0  0  0  0  3  0  0  0  0  0  0
   40.5420   31.3790   42.0510 N   0  0  0  0  0  0  0  0  0  0  0  0
  1 21  1  0  0  0  0
  2  1  1  0  0  0  0
  2  7  1  0  0  0  0
  3  4  1  0  0  0  0
  3  2  1  0  0  0  0
  4 11  1  0  0  0  0
  4  5  1  0  0  0  0
  5  6  1  0  0  0  0
  5 13  1  0  0  0  0
  6 14  1  6  0  0  0
  6  1  1  0  0  0  0
  6 34  1  0  0  0  0
  8  2  1  0  0  0  0
  9  3  1  0  0  0  0
 10  3  1  0  0  0  0
 12  5  1  0  0  0  0
 15 16  1  0  0  0  0
 16 21  2  0  0  0  0
 16 17  1  0  0  0  0
 17 18  2  0  0  0  0
 18 19  1  0  0  0  0
 18 22  1  0  0  0  0
 19 23  1  0  0  0  0
 20 24  1  0  0  0  0
 20 19  2  0  0  0  0
 21 20  1  0  0  0  0
 25 30  1  0  0  0  0
 26 27  1  0  0  0  0
 26 25  2  0  0  0  0
 27 28  2  0  0  0  0
 28 29  1  0  0  0  0
 29 17  1  0  0  0  0
 30 29  2  0  0  0  0
 31 25  1  0  0  0  0
 32 26  1  0  0  0  0
 33 27  1  0  0  0  0
 34 41  1  0  0  0  0
 35 34  2  0  0  0  0
 35 37  1  0  0  0  0
 36 35  1  0  0  0  0
 37 39  2  0  0  0  0
 38 37  1  0  0  0  0
 39 40  1  0  0  0  0
 41 40  2  0  0  0  0
M  END
>  <minimizedAffinity>
-5.53223705

$$$$

 OpenBabel03242510143D

 41 44  0  0  1  0  0  0  0  0999 V2000
   38.1130   30.9420   40.5210 N   0  0  0  0  0  0  0  0  0  0  0  0
   38.3710   32.3790   40.5180 C   0  0  0  0  0  0  0  0  0  0  0  0
   39.8490   32.6700   40.4080 C   0  0  0  0  0  0  0  0  0  0  0  0
   40.5620   32.2140   41.5730 N   0  0  0  0  0  0  0  0  0  0  0  0
   39.7590   31.1810   42.2420 C   0  0  0  0  0  0  0  0  0  0  0  0
   39.2120   30.2310   41.2020 C   0  0  1  0  0  0  0  0  0  0  0  0
   37.9830   32.7410   41.5040 H   0  0  0  0  0  0  0  0  0  0  0  0
   37.8200   32.9090   39.7380 H   0  0  0  0  0  0  0  0  0  0  0  0
   40.0050   33.7180   40.1610 H   0  0  0  0  0  0  0  0  0  0  0  0
   40.2020   32.0590   39.5280 H   0  0  0  0  0  0  0  0  0  0  0  0
   40.7150   33.0300   42.2040 H   0  0  0  0  0  0  0  0  0  0  0  0
   40.4780   30.6860   42.9270 H   0  0  0  0  0  0  0  0  0  0  0  0
   38.9760   31.6090   42.8920 H   0  0  0  0  0  0  0  0  0  0  0  0
   40.0060   30.1540   40.4040 H   0  0  0  0  0  0  0  0  0  0  0  0
   38.4660   30.0080   37.5590 Br  0  0  0  0  0  0  0  0  0  0  0  0
   36.9610   29.7560   38.6980 C   0  0  0  0  0  0  0  0  0  0  0  0
   35.8510   29.0920   38.2400 C   0  0  0  0  0  0  0  0  0  0  0  0
   34.7290   28.8960   39.0640 C   0  0  0  0  0  0  0  0  0  0  0  0
   34.7800   29.3870   40.3360 C   0  0  0  0  0  0  0  0  0  0  0  0
   35.9130   30.0510   40.7680 C   0  0  0  0  0  0  0  0  0  0  0  0
   37.0030   30.2470   39.9770 C   0  0  0  0  0  0  0  0  0  0  0  0
   33.8590   28.3650   38.6760 H   0  0  0  0  0  0  0  0  0  0  0  0
   33.9190   29.2430   40.9900 H   0  0  0  0  0  0  0  0  0  0  0  0
   35.8970   30.4190   41.7860 H   0  0  0  0  0  0  0  0  0  0  0  0
   36.3100   26.8800   35.3670 C   0  0  0  0  0  0  0  0  0  0  0  0
   35.8370   27.6380   34.2750 C   0  0  0  0  0  0  0  0  0  0  0  0
   35.3640   28.9150   34.5630 C   0  0  0  0  0  0  0  0  0  0  0  0
   35.3870   29.3370   35.8400 N   0  0  0  0  0  0  0  0  0  0  0  0
   35.8480   28.5880   36.8740 C   0  0  0  0  0  0  0  0  0  0  0  0
   36.3050   27.3580   36.6040 N   0  0  0  0  0  0  0  0  0  0  0  0
   36.6580   25.9050   35.0580 H   0  0  0  0  0  0  0  0  0  0  0  0
   35.7950   27.3550   33.2450 H   0  0  0  0  0  0  0  0  0  0  0  0
   34.9610   29.6490   33.8710 H   0  0  0  0  0  0  0  0  0  0  0  0
   38.8230   28.9200   41.7070 C   0  0  0  0  0  0  0  0  0  0  0  0
   38.2520   28.5830   42.9160 C   0  0  0  0  0  0  0  0  0  0  0  0
   38.0740   29.4080   43.5660 H   0  0  0  0  0  0  0  0  0  0  0  0
   37.9410   27.2810   43.2490 C   0  0  0  0  0  0  0  0  0  0  0  0
   37.4950   27.1670   44.2380 H   0  0  0  0  0  0  0  0  0  0  0  0
   38.2030   26.2660   42.3500 C   0  0  0  0  0  3  0  0  0  0  0  0
   38.7750   26.6260   41.1450 C   0  0  0  0  0  3  0  0  0  0  0  0
   39.0720   27.8990   40.8370 N   0  0  0  0  0  0  0  0  0  0  0  0
  1  6  1  0  0  0  0
  2  1  1  0  0  0  0
  2  7  1  0  0  0  0
  3  2  1  0  0  0  0
  3  4  1  0  0  0  0
  4 11  1  0  0  0  0
  4  5  1  0  0  0  0
  5 13  1  0  0  0  0
  5 12  1  0  0  0  0
  6 14  1  6  0  0  0
  6 34  1  0  0  0  0
  6  5  1  0  0  0  0
  8  2  1  0  0  0  0
  9  3  1  0  0  0  0
 10  3  1  0  0  0  0
 15 16  1  0  0  0  0
 16 21  1  0  0  0  0
 17 16  2  0  0  0  0
 17 18  1  0  0  0  0
 18 19  2  0  0  0  0
 19 20  1  0  0  0  0
 19 23  1  0  0  0  0
 20 24  1  0  0  0  0
 21  1  1  0  0  0  0
 21 20  2  0  0  0  0
 22 18  1  0  0  0  0
 25 30  1  0  0  0  0
 26 27  1  0  0  0  0
 26 25  2  0  0  0  0
 27 28  2  0  0  0  0
 28 29  1  0  0  0  0
 29 17  1  0  0  0  0
 30 29  2  0  0  0  0
 31 25  1  0  0  0  0
 32 26  1  0  0  0  0
 33 27  1  0  0  0  0
 34 35  1  0  0  0  0
 35 37  2  0  0  0  0
 35 36  1  0  0  0  0
 37 38  1  0  0  0  0
 39 37  1  0  0  0  0
 40 39  2  0  0  0  0
 41 40  1  0  0  0  0
 41 34  2  0  0  0  0
M  END
>  <minimizedAffinity>
-5.4615407

$$$$

 OpenBabel03242510143D

 41 44  0  0  1  0  0  0  0  0999 V2000
   37.4420   30.4220   38.4170 N   0  0  0  0  0  0  0  0  0  0  0  0
   36.9970   30.1060   37.0630 C   0  0  0  0  0  0  0  0  0  0  0  0
   35.7590   29.2410   37.0810 C   0  0  0  0  0  0  0  0  0  0  0  0
   36.0330   27.9440   37.6440 N   0  0  0  0  0  0  0  0  0  0  0  0
   37.2410   28.0380   38.4750 C   0  0  0  0  0  0  0  0  0  0  0  0
   37.1630   29.2890   39.3190 C   0  0  1  0  0  0  0  0  0  0  0  0
   37.8490   29.5430   36.6060 H   0  0  0  0  0  0  0  0  0  0  0  0
   36.8300   30.9960   36.4510 H   0  0  0  0  0  0  0  0  0  0  0  0
   35.3040   29.2210   36.0930 H   0  0  0  0  0  0  0  0  0  0  0  0
   35.0420   29.7710   37.7730 H   0  0  0  0  0  0  0  0  0  0  0  0
   36.1740   27.2700   36.8600 H   0  0  0  0  0  0  0  0  0  0  0  0
   37.2140   27.1140   39.0890 H   0  0  0  0  0  0  0  0  0  0  0  0
   38.1690   27.9730   37.8810 H   0  0  0  0  0  0  0  0  0  0  0  0
   36.0720   29.4220   39.5760 H   0  0  0  0  0  0  0  0  0  0  0  0
   40.5130   30.6170   37.8670 Br  0  0  0  0  0  0  0  0  0  0  0  0
   39.3940   31.8860   38.7430 C   0  0  0  0  0  0  0  0  0  0  0  0
   39.9210   33.0580   39.2220 C   0  0  0  0  0  0  0  0  0  0  0  0
   39.1120   34.0070   39.8720 C   0  0  0  0  0  0  0  0  0  0  0  0
   37.7850   33.7250   40.0090 C   0  0  0  0  0  0  0  0  0  0  0  0
   37.2830   32.5350   39.5150 C   0  0  0  0  0  0  0  0  0  0  0  0
   38.0580   31.6100   38.8850 C   0  0  0  0  0  0  0  0  0  0  0  0
   39.5560   34.9310   40.2440 H   0  0  0  0  0  0  0  0  0  0  0  0
   37.1420   34.4500   40.5100 H   0  0  0  0  0  0  0  0  0  0  0  0
   36.2230   32.3650   39.6520 H   0  0  0  0  0  0  0  0  0  0  0  0
   43.0890   34.1520   37.7640 C   0  0  0  0  0  0  0  0  0  0  0  0
   44.0510   33.7870   38.7300 C   0  0  0  0  0  0  0  0  0  0  0  0
   43.5740   33.1620   39.8790 C   0  0  0  0  0  0  0  0  0  0  0  0
   42.2500   32.9500   39.9930 N   0  0  0  0  0  0  0  0  0  0  0  0
   41.3440   33.3110   39.0500 C   0  0  0  0  0  0  0  0  0  0  0  0
   41.7960   33.9120   37.9420 N   0  0  0  0  0  0  0  0  0  0  0  0
   43.5410   34.6290   36.9080 H   0  0  0  0  0  0  0  0  0  0  0  0
   45.1090   33.9300   38.6920 H   0  0  0  0  0  0  0  0  0  0  0  0
   44.1450   32.8070   40.7330 H   0  0  0  0  0  0  0  0  0  0  0  0
   38.0020   29.2820   40.5110 C   0  0  0  0  0  0  0  0  0  0  0  0
   37.7770   29.8620   41.7420 C   0  0  0  0  0  0  0  0  0  0  0  0
   36.8540   30.3880   41.8200 H   0  0  0  0  0  0  0  0  0  0  0  0
   38.6800   29.7650   42.7810 C   0  0  0  0  0  0  0  0  0  0  0  0
   38.3660   30.2740   43.6930 H   0  0  0  0  0  0  0  0  0  0  0  0
   39.8560   29.0660   42.5990 C   0  0  0  0  0  3  0  0  0  0  0  0
   40.0610   28.4930   41.3590 C   0  0  0  0  0  3  0  0  0  0  0  0
   39.1720   28.5960   40.3570 N   0  0  0  0  0  0  0  0  0  0  0  0
  1 21  1  0  0  0  0
  1  6  1  0  0  0  0
  2  3  1  0  0  0  0
  2  1  1  0  0  0  0
  3  4  1  0  0  0  0
  3 10  1  0  0  0  0
  4  5  1  0  0  0  0
  5 12  1  0  0  0  0
  5  6  1  0  0  0  0
  6 14  1  1  0  0  0
  6 34  1  0  0  0  0
  7  2  1  0  0  0  0
  8  2  1  0  0  0  0
  9  3  1  0  0  0  0
 11  4  1  0  0  0  0
 13  5  1  0  0  0  0
 15 16  1  0  0  0  0
 16 21  2  0  0  0  0
 16 17  1  0  0  0  0
 17 18  2  0  0  0  0
 18 19  1  0  0  0  0
 18 22  1  0  0  0  0
 19 23  1  0  0  0  0
 20 24  1  0  0  0  0
 20 19  2  0  0  0  0
 21 20  1  0  0  0  0
 25 30  2  0  0  0  0
 25 26  1  0  0  0  0
 26 27  2  0  0  0  0
 27 28  1  0  0  0  0
 27 33  1  0  0  0  0
 29 17  1  0  0  0  0
 29 28  2  0  0  0  0
 30 29  1  0  0  0  0
 31 25  1  0  0  0  0
 32 26  1  0  0  0  0
 34 35  1  0  0  0  0
 35 36  1  0  0  0  0
 35 37  2  0  0  0  0
 37 38  1  0  0  0  0
 39 37  1  0  0  0  0
 40 39  2  0  0  0  0
 41 34  2  0  0  0  0
 41 40  1  0  0  0  0
M  END
>  <minimizedAffinity>
-5.43347311

$$$$
