
 OpenBabel03252507433D

 30 32  0  0  0  0  0  0  0  0999 V2000
   45.6500   34.4230   41.9450 C   0  0  0  0  0  0  0  0  0  0  0  0
   45.6720   33.4920   42.5540 H   0  0  0  0  0  0  0  0  0  0  0  0
   45.8950   35.2340   42.6810 H   0  0  0  0  0  0  0  0  0  0  0  0
   44.2500   34.5330   41.4520 C   0  0  0  0  0  0  0  0  0  0  0  0
   43.5410   35.7720   41.6020 C   0  0  0  0  0  0  0  0  0  0  0  0
   41.8960   35.3510   40.8410 S   0  0  0  0  0  0  0  0  0  0  0  0
   42.4850   33.6000   40.4730 C   0  0  0  0  0  0  0  0  0  0  0  0
   43.5490   33.5900   40.8700 N   0  0  0  0  0  0  0  0  0  0  0  0
   43.9210   36.6760   42.0500 H   0  0  0  0  0  0  0  0  0  0  0  0
   41.6000   32.5970   39.8020 C   0  0  0  0  0  0  0  0  0  0  0  0
   40.8090   31.8060   40.6070 C   0  0  0  0  0  0  0  0  0  0  0  0
   40.8770   31.9610   41.6700 H   0  0  0  0  0  0  0  0  0  0  0  0
   40.0110   30.8990   39.9530 C   0  0  0  0  0  0  0  0  0  0  0  0
   39.3890   30.2800   40.6110 H   0  0  0  0  0  0  0  0  0  0  0  0
   40.0330   30.8190   38.5810 C   0  0  0  0  0  3  0  0  0  0  0  0
   40.8420   31.6320   37.8150 C   0  0  0  0  0  3  0  0  0  0  0  0
   41.6150   32.5140   38.4770 N   0  0  0  0  0  0  0  0  0  0  0  0
   46.6840   34.2900   40.8860 C   0  0  0  0  0  0  0  0  0  0  0  0
   46.6960   35.2740   40.3280 H   0  0  0  0  0  0  0  0  0  0  0  0
   46.4060   33.4680   40.2350 H   0  0  0  0  0  0  0  0  0  0  0  0
   48.0610   34.1500   41.4110 C   0  0  0  0  0  0  0  0  0  0  0  0
   48.7220   32.9380   41.1510 C   0  0  0  0  0  0  0  0  0  0  0  0
   50.0060   32.7430   41.6100 C   0  0  0  0  0  0  0  0  0  0  0  0
   50.5950   33.7520   42.3110 N   0  0  0  0  0  0  0  0  0  0  0  0
   49.9330   34.9090   42.5460 C   0  0  0  0  0  0  0  0  0  0  0  0
   48.6880   35.0960   42.1000 N   0  0  0  0  0  0  0  0  0  0  0  0
   50.5540   31.8220   41.4330 H   0  0  0  0  0  0  0  0  0  0  0  0
   50.4840   35.6490   43.1110 H   0  0  0  0  0  0  0  0  0  0  0  0
   47.8950   31.6400   40.2190 S   0  0  0  0  0  0  0  0  0  0  0  0
   47.7290   31.9940   38.8710 H   0  0  0  0  0  0  0  0  0  0  0  0
  1  2  1  0  0  0  0
  1  3  1  0  0  0  0
  4  5  2  0  0  0  0
  4  1  1  0  0  0  0
  5  9  1  0  0  0  0
  6  5  1  0  0  0  0
  7  6  1  0  0  0  0
  7  8  2  0  0  0  0
  8  4  1  0  0  0  0
 10  7  1  0  0  0  0
 10 11  1  0  0  0  0
 11 12  1  0  0  0  0
 13 11  2  0  0  0  0
 13 14  1  0  0  0  0
 15 13  1  0  0  0  0
 16 17  1  0  0  0  0
 16 15  2  0  0  0  0
 17 10  2  0  0  0  0
 18 21  1  0  0  0  0
 18  1  1  0  0  0  0
 19 18  1  0  0  0  0
 20 18  1  0  0  0  0
 21 26  1  0  0  0  0
 22 21  2  0  0  0  0
 22 23  1  0  0  0  0
 23 24  2  0  0  0  0
 24 25  1  0  0  0  0
 25 28  1  0  0  0  0
 26 25  2  0  0  0  0
 27 23  1  0  0  0  0
 29 22  1  0  0  0  0
 30 29  1  0  0  0  0
M  END
>  <minimizedAffinity>
-4.18365717

>  <minimizedRMSD>
1.55864656

$$$$
