
 OpenBabel03242511543D

 33 35  0  0  1  0  0  0  0  0999 V2000
   46.2980   33.6780   43.3130 C   0  0  2  0  0  0  0  0  0  0  0  0
   45.6580   34.6510   42.4090 C   0  0  0  0  0  0  0  0  0  0  0  0
   45.3590   35.9690   43.0620 C   0  0  0  0  0  0  0  0  0  0  0  0
   44.4920   35.7980   44.2920 C   0  0  0  0  0  0  0  0  0  0  0  0
   44.9500   34.6790   45.1860 C   0  0  0  0  0  0  0  0  0  0  0  0
   46.2630   34.0960   44.7730 C   0  0  1  0  0  0  0  0  0  0  0  0
   45.7800   32.6740   43.2610 H   0  0  0  0  0  0  0  0  0  0  0  0
   44.6420   34.2490   42.1190 H   0  0  0  0  0  0  0  0  0  0  0  0
   46.1600   34.8160   41.4490 H   0  0  0  0  0  0  0  0  0  0  0  0
   46.1950   36.6250   43.2610 H   0  0  0  0  0  0  0  0  0  0  0  0
   44.6970   36.5190   42.3310 H   0  0  0  0  0  0  0  0  0  0  0  0
   44.5700   36.7460   44.8640 H   0  0  0  0  0  0  0  0  0  0  0  0
   43.4230   35.6560   44.0610 H   0  0  0  0  0  0  0  0  0  0  0  0
   44.2100   33.8460   45.2490 H   0  0  0  0  0  0  0  0  0  0  0  0
   45.0700   35.0240   46.2330 H   0  0  0  0  0  0  0  0  0  0  0  0
   47.1250   34.7750   44.9380 H   0  0  0  0  0  0  0  0  0  0  0  0
   47.7060   33.4050   42.9610 C   0  0  0  0  0  0  0  0  0  0  0  0
   48.5600   34.5480   42.9040 C   0  0  0  0  0  0  0  0  0  0  0  0
   49.9030   34.3660   42.5860 C   0  0  0  0  0  0  0  0  0  0  0  0
   50.3230   33.0780   42.3450 N   0  0  0  0  0  0  0  0  0  0  0  0
   49.4860   32.0150   42.4090 C   0  0  0  0  0  0  0  0  0  0  0  0
   48.1810   32.1840   42.7160 N   0  0  0  0  0  0  0  0  0  0  0  0
   48.3160   35.5620   43.0730 H   0  0  0  0  0  0  0  0  0  0  0  0
   50.6180   35.1660   42.5210 H   0  0  0  0  0  0  0  0  0  0  0  0
   49.9330   31.0360   42.1970 H   0  0  0  0  0  0  0  0  0  0  0  0
   46.4380   32.8420   45.5620 C   0  0  0  0  0  0  0  0  0  0  0  0
   45.8760   31.6500   45.0910 C   0  0  0  0  0  0  0  0  0  0  0  0
   45.3320   31.6840   44.1660 H   0  0  0  0  0  0  0  0  0  0  0  0
   46.0840   30.5360   45.8800 C   0  0  0  0  0  0  0  0  0  0  0  0
   45.6620   29.5980   45.5430 H   0  0  0  0  0  0  0  0  0  0  0  0
   46.8090   30.6600   47.0470 C   0  0  0  0  0  0  0  0  0  0  0  0
   47.3550   31.8380   47.4970 C   0  0  0  0  0  0  0  0  0  0  0  0
   47.1380   32.9050   46.7130 N   0  0  0  0  0  0  0  0  0  0  0  0
  1  7  1  6  0  0  0
  1  6  1  0  0  0  0
  2  3  1  0  0  0  0
  2  1  1  0  0  0  0
  3 10  1  0  0  0  0
  3  4  1  0  0  0  0
  4 12  1  0  0  0  0
  4  5  1  0  0  0  0
  5 14  1  0  0  0  0
  5 15  1  0  0  0  0
  6 16  1  1  0  0  0
  6  5  1  0  0  0  0
  6 26  1  0  0  0  0
  8  2  1  0  0  0  0
  9  2  1  0  0  0  0
 11  3  1  0  0  0  0
 13  4  1  0  0  0  0
 17  1  1  0  0  0  0
 18 17  1  0  0  0  0
 18 23  1  0  0  0  0
 19 18  2  0  0  0  0
 20 21  2  0  0  0  0
 20 19  1  0  0  0  0
 21 22  1  0  0  0  0
 22 17  2  0  0  0  0
 24 19  1  0  0  0  0
 25 21  1  0  0  0  0
 26 33  1  0  0  0  0
 27 26  2  0  0  0  0
 27 29  1  0  0  0  0
 28 27  1  0  0  0  0
 29 31  2  0  0  0  0
 30 29  1  0  0  0  0
 31 32  1  0  0  0  0
 33 32  2  0  0  0  0
M  END
>  <minimizedAffinity>
-4.95294905

>  <minimizedRMSD>
1.73541081

$$$$
