
 OpenBabel03242519573D

 27 29  0  0  0  0  0  0  0  0999 V2000
   44.7420   32.9330   41.2110 Br  0  0  0  0  0  0  0  0  0  0  0  0
   46.3740   33.9200   40.9870 C   0  0  0  0  0  0  0  0  0  0  0  0
   46.8900   34.7300   41.9740 C   0  0  0  0  0  0  0  0  0  0  0  0
   48.0630   35.3920   41.7130 C   0  0  0  0  0  0  0  0  0  0  0  0
   48.7320   35.2740   40.5140 C   0  0  0  0  0  0  0  0  0  0  0  0
   48.2140   34.4600   39.5230 C   0  0  0  0  0  0  0  0  0  0  0  0
   47.0390   33.8020   39.7930 C   0  0  0  0  0  0  0  0  0  0  0  0
   48.4380   36.0260   42.5240 H   0  0  0  0  0  0  0  0  0  0  0  0
   49.6410   35.8500   40.4470 H   0  0  0  0  0  0  0  0  0  0  0  0
   48.7890   34.4170   38.6200 H   0  0  0  0  0  0  0  0  0  0  0  0
   44.4930   35.9190   44.6700 C   0  0  0  0  0  0  0  0  0  0  0  0
   45.2060   35.8430   43.4680 C   0  0  0  0  0  0  0  0  0  0  0  0
   46.1380   34.8210   43.2280 C   0  0  0  0  0  0  0  0  0  0  0  0
   46.2870   33.9370   44.2310 N   0  0  0  0  0  0  0  0  0  0  0  0
   45.6080   33.9990   45.3910 C   0  0  0  0  0  0  0  0  0  0  0  0
   44.7170   34.9920   45.5980 N   0  0  0  0  0  0  0  0  0  0  0  0
   43.7790   36.7170   44.8320 H   0  0  0  0  0  0  0  0  0  0  0  0
   45.0340   36.5900   42.7010 H   0  0  0  0  0  0  0  0  0  0  0  0
   45.8560   33.2050   46.0860 H   0  0  0  0  0  0  0  0  0  0  0  0
   46.4840   32.9400   38.7540 C   0  0  0  0  0  0  0  0  0  0  0  0
   45.5990   33.3240   37.7950 C   0  0  0  0  0  0  0  0  0  0  0  0
   45.2570   34.3260   37.7660 H   0  0  0  0  0  0  0  0  0  0  0  0
   45.0820   32.5110   36.8240 C   0  0  0  0  0  0  0  0  0  0  0  0
   44.3810   32.8500   36.0790 H   0  0  0  0  0  0  0  0  0  0  0  0
   45.4800   31.1700   36.7890 C   0  0  0  0  0  0  0  0  0  0  0  0
   46.3750   30.7940   37.7620 C   0  0  0  0  0  0  0  0  0  0  0  0
   46.8380   31.6320   38.6770 N   0  0  0  0  0  0  0  0  0  0  0  0
  2  1  1  0  0  0  0
  2  3  1  0  0  0  0
  3 13  1  0  0  0  0
  4  3  2  0  0  0  0
  4  8  1  0  0  0  0
  5  4  1  0  0  0  0
  6  7  1  0  0  0  0
  6  5  2  0  0  0  0
  7  2  2  0  0  0  0
  9  5  1  0  0  0  0
 10  6  1  0  0  0  0
 11 17  1  0  0  0  0
 11 16  1  0  0  0  0
 12 11  2  0  0  0  0
 13 12  1  0  0  0  0
 13 14  2  0  0  0  0
 14 15  1  0  0  0  0
 15 16  2  0  0  0  0
 15 19  1  0  0  0  0
 18 12  1  0  0  0  0
 20  7  1  0  0  0  0
 21 20  2  0  0  0  0
 22 21  1  0  0  0  0
 23 21  1  0  0  0  0
 24 23  1  0  0  0  0
 25 23  2  0  0  0  0
 25 26  1  0  0  0  0
 26 27  2  0  0  0  0
 27 20  1  0  0  0  0
M  END
>  <minimizedAffinity>
-5.45558977

>  <minimizedRMSD>
0.272505224

$$$$
