
 OpenBabel03252506183D

 22 23  0  0  0  0  0  0  0  0999 V2000
   44.8820   35.6270   44.0100 C   0  0  0  0  0  0  0  0  0  0  0  0
   44.4040   35.1980   42.7580 C   0  0  0  0  0  0  0  0  0  0  0  0
   44.4840   33.8370   42.4460 C   0  0  0  0  0  0  0  0  0  0  0  0
   45.0250   33.0000   43.3790 N   0  0  0  0  0  0  0  0  0  0  0  0
   45.4770   33.4440   44.5750 C   0  0  0  0  0  0  0  0  0  0  0  0
   45.3990   34.7550   44.8750 N   0  0  0  0  0  0  0  0  0  0  0  0
   43.9730   35.8630   42.0160 H   0  0  0  0  0  0  0  0  0  0  0  0
   44.1510   33.4140   41.5270 H   0  0  0  0  0  0  0  0  0  0  0  0
   46.0420   32.4910   45.5190 C   0  0  0  0  0  0  0  0  0  0  0  0
   46.6690   32.9380   46.6640 C   0  0  0  0  0  0  0  0  0  0  0  0
   46.7300   34.0150   46.8410 H   0  0  0  0  0  0  0  0  0  0  0  0
   47.2080   32.0300   47.5650 C   0  0  0  0  0  0  0  0  0  0  0  0
   47.6970   32.3510   48.4550 H   0  0  0  0  0  0  0  0  0  0  0  0
   47.0510   30.7060   47.2040 C   0  0  0  0  0  3  0  0  0  0  0  0
   46.4350   30.2540   46.0770 C   0  0  0  0  0  3  0  0  0  0  0  0
   45.9180   31.1680   45.2160 N   0  0  0  0  0  0  0  0  0  0  0  0
   44.7960   37.0490   44.3320 C   0  0  0  0  0  3  0  0  0  0  0  0
   45.4180   37.9100   43.5550 C   0  0  0  0  0  3  0  0  0  0  0  0
   45.3740   39.3790   43.8230 C   0  0  0  0  0  0  0  0  0  0  0  0
   44.2950   39.6240   44.0220 H   0  0  0  0  0  0  0  0  0  0  0  0
   45.9270   39.6700   44.7350 H   0  0  0  0  0  0  0  0  0  0  0  0
   45.6710   39.9220   42.9160 H   0  0  0  0  0  0  0  0  0  0  0  0
  1 17  1  0  0  0  0
  1  6  1  0  0  0  0
  2  1  2  0  0  0  0
  3  2  1  0  0  0  0
  3  4  2  0  0  0  0
  4  5  1  0  0  0  0
  5  6  2  0  0  0  0
  5  9  1  0  0  0  0
  7  2  1  0  0  0  0
  8  3  1  0  0  0  0
  9 10  1  0  0  0  0
 10 11  1  0  0  0  0
 10 12  2  0  0  0  0
 12 13  1  0  0  0  0
 14 12  1  0  0  0  0
 15 14  2  0  0  0  0
 16  9  2  0  0  0  0
 16 15  1  0  0  0  0
 18 19  1  0  0  0  0
 18 17  2  0  0  0  0
 19 20  1  0  0  0  0
 19 21  1  0  0  0  0
 22 19  1  0  0  0  0
M  END
>  <minimizedAffinity>
-3.68232036

>  <minimizedRMSD>
1.42241001

$$$$
