
 OpenBabel03242519593D

 27 29  0  0  0  0  0  0  0  0999 V2000
   38.2800   28.3000   39.2010 Br  0  0  0  0  0  0  0  0  0  0  0  0
   37.7320   27.9450   41.0070 C   0  0  0  0  0  0  0  0  0  0  0  0
   37.4500   26.6760   41.4580 C   0  0  0  0  0  0  0  0  0  0  0  0
   37.0660   26.5300   42.7680 C   0  0  0  0  0  0  0  0  0  0  0  0
   36.9570   27.5960   43.6330 C   0  0  0  0  0  0  0  0  0  0  0  0
   37.2410   28.8720   43.1800 C   0  0  0  0  0  0  0  0  0  0  0  0
   37.6230   29.0090   41.8680 C   0  0  0  0  0  0  0  0  0  0  0  0
   36.8500   25.5040   43.0850 H   0  0  0  0  0  0  0  0  0  0  0  0
   36.6460   27.3360   44.6320 H   0  0  0  0  0  0  0  0  0  0  0  0
   37.1340   29.6500   43.9090 H   0  0  0  0  0  0  0  0  0  0  0  0
   36.6370   24.0840   38.8020 C   0  0  0  0  0  0  0  0  0  0  0  0
   36.4990   25.1340   39.7180 C   0  0  0  0  0  0  0  0  0  0  0  0
   37.5810   25.5780   40.4970 C   0  0  0  0  0  0  0  0  0  0  0  0
   38.7380   24.9240   40.2930 N   0  0  0  0  0  0  0  0  0  0  0  0
   38.8830   23.9130   39.4160 C   0  0  0  0  0  0  0  0  0  0  0  0
   37.8280   23.5040   38.6790 N   0  0  0  0  0  0  0  0  0  0  0  0
   35.7890   23.7590   38.2140 H   0  0  0  0  0  0  0  0  0  0  0  0
   35.5360   25.6170   39.8300 H   0  0  0  0  0  0  0  0  0  0  0  0
   39.8860   23.5020   39.3840 H   0  0  0  0  0  0  0  0  0  0  0  0
   37.9250   30.3500   41.3800 C   0  0  0  0  0  0  0  0  0  0  0  0
   37.0570   31.1730   40.7320 C   0  0  0  0  0  0  0  0  0  0  0  0
   36.0660   30.8480   40.5460 H   0  0  0  0  0  0  0  0  0  0  0  0
   37.3470   32.4300   40.2770 C   0  0  0  0  0  0  0  0  0  0  0  0
   36.6320   33.0540   39.7670 H   0  0  0  0  0  0  0  0  0  0  0  0
   38.6340   32.9370   40.4820 C   0  0  0  0  0  3  0  0  0  0  0  0
   39.5030   32.0980   41.1370 C   0  0  0  0  0  3  0  0  0  0  0  0
   39.1590   30.8880   41.5530 N   0  0  0  0  0  0  0  0  0  0  0  0
  1  2  1  0  0  0  0
  2  3  2  0  0  0  0
  2  7  1  0  0  0  0
  3  4  1  0  0  0  0
  4  8  1  0  0  0  0
  4  5  2  0  0  0  0
  5  9  1  0  0  0  0
  6  5  1  0  0  0  0
  6 10  1  0  0  0  0
  7  6  2  0  0  0  0
 11 12  1  0  0  0  0
 12 18  1  0  0  0  0
 12 13  2  0  0  0  0
 13  3  1  0  0  0  0
 14 13  1  0  0  0  0
 15 14  2  0  0  0  0
 16 11  2  0  0  0  0
 16 15  1  0  0  0  0
 17 11  1  0  0  0  0
 19 15  1  0  0  0  0
 20 27  1  0  0  0  0
 20  7  1  0  0  0  0
 21 20  2  0  0  0  0
 22 21  1  0  0  0  0
 23 25  2  0  0  0  0
 23 21  1  0  0  0  0
 24 23  1  0  0  0  0
 25 26  1  0  0  0  0
 26 27  2  0  0  0  0
M  END
>  <minimizedAffinity>
-4.95779991

$$$$

 OpenBabel03242519593D

 27 29  0  0  0  0  0  0  0  0999 V2000
   38.2660   28.2380   39.1990 Br  0  0  0  0  0  0  0  0  0  0  0  0
   37.7380   28.0510   41.0350 C   0  0  0  0  0  0  0  0  0  0  0  0
   37.6570   29.1230   41.8950 C   0  0  0  0  0  0  0  0  0  0  0  0
   37.2680   28.8820   43.1890 C   0  0  0  0  0  0  0  0  0  0  0  0
   36.9610   27.6200   43.6490 C   0  0  0  0  0  0  0  0  0  0  0  0
   37.0420   26.5420   42.7850 C   0  0  0  0  0  0  0  0  0  0  0  0
   37.4320   26.7930   41.4930 C   0  0  0  0  0  0  0  0  0  0  0  0
   37.2180   29.7620   43.8380 H   0  0  0  0  0  0  0  0  0  0  0  0
   36.6710   27.5780   44.6860 H   0  0  0  0  0  0  0  0  0  0  0  0
   36.7880   25.5930   43.2140 H   0  0  0  0  0  0  0  0  0  0  0  0
   37.3840   32.5050   40.1870 C   0  0  0  0  0  0  0  0  0  0  0  0
   37.0490   31.2470   40.6990 C   0  0  0  0  0  0  0  0  0  0  0  0
   37.9950   30.4420   41.3550 C   0  0  0  0  0  0  0  0  0  0  0  0
   39.2280   30.9720   41.4480 N   0  0  0  0  0  0  0  0  0  0  0  0
   39.5630   32.1810   40.9600 C   0  0  0  0  0  0  0  0  0  0  0  0
   38.6350   32.9350   40.3330 N   0  0  0  0  0  0  0  0  0  0  0  0
   36.6370   33.1070   39.6850 H   0  0  0  0  0  0  0  0  0  0  0  0
   36.0350   30.8820   40.5890 H   0  0  0  0  0  0  0  0  0  0  0  0
   40.6010   32.4470   41.1250 H   0  0  0  0  0  0  0  0  0  0  0  0
   37.5210   25.6630   40.5740 C   0  0  0  0  0  0  0  0  0  0  0  0
   36.5060   25.1840   39.8060 C   0  0  0  0  0  0  0  0  0  0  0  0
   35.5520   25.6420   39.8510 H   0  0  0  0  0  0  0  0  0  0  0  0
   36.5950   24.1220   38.9480 C   0  0  0  0  0  0  0  0  0  0  0  0
   35.7680   23.7700   38.3540 H   0  0  0  0  0  0  0  0  0  0  0  0
   37.8200   23.4580   38.8270 C   0  0  0  0  0  3  0  0  0  0  0  0
   38.8390   23.9510   39.6080 C   0  0  0  0  0  3  0  0  0  0  0  0
   38.6860   24.9850   40.4220 N   0  0  0  0  0  0  0  0  0  0  0  0
  1  2  1  0  0  0  0
  2  7  2  0  0  0  0
  2  3  1  0  0  0  0
  3  4  2  0  0  0  0
  4  5  1  0  0  0  0
  4  8  1  0  0  0  0
  5  9  1  0  0  0  0
  6 10  1  0  0  0  0
  6  5  2  0  0  0  0
  7  6  1  0  0  0  0
 11 16  2  0  0  0  0
 11 12  1  0  0  0  0
 12 13  2  0  0  0  0
 13 14  1  0  0  0  0
 13  3  1  0  0  0  0
 15 19  1  0  0  0  0
 15 14  2  0  0  0  0
 16 15  1  0  0  0  0
 17 11  1  0  0  0  0
 18 12  1  0  0  0  0
 20  7  1  0  0  0  0
 21 22  1  0  0  0  0
 21 20  2  0  0  0  0
 23 21  1  0  0  0  0
 24 23  1  0  0  0  0
 25 23  2  0  0  0  0
 25 26  1  0  0  0  0
 26 27  2  0  0  0  0
 27 20  1  0  0  0  0
M  END
>  <minimizedAffinity>
-4.95486736

$$$$

 OpenBabel03242519593D

 27 29  0  0  0  0  0  0  0  0999 V2000
   38.0810   28.3360   39.0990 Br  0  0  0  0  0  0  0  0  0  0  0  0
   37.6300   27.9740   40.9290 C   0  0  0  0  0  0  0  0  0  0  0  0
   37.3480   26.7060   41.3850 C   0  0  0  0  0  0  0  0  0  0  0  0
   37.0370   26.5540   42.7130 C   0  0  0  0  0  0  0  0  0  0  0  0
   36.9980   27.6140   43.5920 C   0  0  0  0  0  0  0  0  0  0  0  0
   37.2820   28.8880   43.1350 C   0  0  0  0  0  0  0  0  0  0  0  0
   37.5910   29.0300   41.8050 C   0  0  0  0  0  0  0  0  0  0  0  0
   36.8190   25.5300   43.0330 H   0  0  0  0  0  0  0  0  0  0  0  0
   36.7400   27.3490   44.6050 H   0  0  0  0  0  0  0  0  0  0  0  0
   37.2320   29.6610   43.8760 H   0  0  0  0  0  0  0  0  0  0  0  0
   38.5890   23.7850   39.2970 C   0  0  0  0  0  0  0  0  0  0  0  0
   38.5500   24.8250   40.2340 C   0  0  0  0  0  0  0  0  0  0  0  0
   37.4020   25.6150   40.4080 C   0  0  0  0  0  0  0  0  0  0  0  0
   36.3630   25.2960   39.6160 N   0  0  0  0  0  0  0  0  0  0  0  0
   36.3890   24.2990   38.7110 C   0  0  0  0  0  0  0  0  0  0  0  0
   37.5050   23.5540   38.5620 N   0  0  0  0  0  0  0  0  0  0  0  0
   39.4860   23.1900   39.1810 H   0  0  0  0  0  0  0  0  0  0  0  0
   39.4240   25.0260   40.8410 H   0  0  0  0  0  0  0  0  0  0  0  0
   35.4630   24.1850   38.1600 H   0  0  0  0  0  0  0  0  0  0  0  0
   37.8920   30.3710   41.3120 C   0  0  0  0  0  0  0  0  0  0  0  0
   37.0090   31.2090   40.7050 C   0  0  0  0  0  0  0  0  0  0  0  0
   36.0070   30.8990   40.5560 H   0  0  0  0  0  0  0  0  0  0  0  0
   37.2980   32.4640   40.2440 C   0  0  0  0  0  0  0  0  0  0  0  0
   36.5720   33.1020   39.7670 H   0  0  0  0  0  0  0  0  0  0  0  0
   38.5990   32.9530   40.4000 C   0  0  0  0  0  3  0  0  0  0  0  0
   39.4830   32.0980   41.0150 C   0  0  0  0  0  3  0  0  0  0  0  0
   39.1390   30.8910   41.4380 N   0  0  0  0  0  0  0  0  0  0  0  0
  1  2  1  0  0  0  0
  2  3  2  0  0  0  0
  2  7  1  0  0  0  0
  3  4  1  0  0  0  0
  4  8  1  0  0  0  0
  4  5  2  0  0  0  0
  5  9  1  0  0  0  0
  6  5  1  0  0  0  0
  6 10  1  0  0  0  0
  7  6  2  0  0  0  0
 11 12  1  0  0  0  0
 12 13  2  0  0  0  0
 12 18  1  0  0  0  0
 13  3  1  0  0  0  0
 14 13  1  0  0  0  0
 15 14  2  0  0  0  0
 16 15  1  0  0  0  0
 16 11  2  0  0  0  0
 17 11  1  0  0  0  0
 19 15  1  0  0  0  0
 20 27  1  0  0  0  0
 20  7  1  0  0  0  0
 21 20  2  0  0  0  0
 22 21  1  0  0  0  0
 23 25  2  0  0  0  0
 23 21  1  0  0  0  0
 24 23  1  0  0  0  0
 25 26  1  0  0  0  0
 26 27  2  0  0  0  0
M  END
>  <minimizedAffinity>
-4.94792461

$$$$

 OpenBabel03242519593D

 27 29  0  0  0  0  0  0  0  0999 V2000
   40.7170   29.9650   41.5550 Br  0  0  0  0  0  0  0  0  0  0  0  0
   39.3430   31.1160   40.8670 C   0  0  0  0  0  0  0  0  0  0  0  0
   39.6230   32.3030   40.2290 C   0  0  0  0  0  0  0  0  0  0  0  0
   38.5670   33.0530   39.7740 C   0  0  0  0  0  0  0  0  0  0  0  0
   37.2560   32.6620   39.9320 C   0  0  0  0  0  0  0  0  0  0  0  0
   36.9740   31.4690   40.5730 C   0  0  0  0  0  0  0  0  0  0  0  0
   38.0360   30.7260   41.0260 C   0  0  0  0  0  0  0  0  0  0  0  0
   38.8340   33.9900   39.2730 H   0  0  0  0  0  0  0  0  0  0  0  0
   36.5290   33.3470   39.5260 H   0  0  0  0  0  0  0  0  0  0  0  0
   35.9320   31.2310   40.6590 H   0  0  0  0  0  0  0  0  0  0  0  0
   43.1350   32.6830   38.8320 C   0  0  0  0  0  0  0  0  0  0  0  0
   41.7870   32.3240   38.9560 C   0  0  0  0  0  0  0  0  0  0  0  0
   41.0330   32.6720   40.0880 C   0  0  0  0  0  0  0  0  0  0  0  0
   41.7010   33.3660   41.0270 N   0  0  0  0  0  0  0  0  0  0  0  0
   42.9960   33.7170   40.9210 C   0  0  0  0  0  0  0  0  0  0  0  0
   43.7000   33.3690   39.8220 N   0  0  0  0  0  0  0  0  0  0  0  0
   43.6950   32.4020   37.9500 H   0  0  0  0  0  0  0  0  0  0  0  0
   41.3120   31.7650   38.1590 H   0  0  0  0  0  0  0  0  0  0  0  0
   43.3700   34.2720   41.7730 H   0  0  0  0  0  0  0  0  0  0  0  0
   37.7500   29.4660   41.7030 C   0  0  0  0  0  0  0  0  0  0  0  0
   37.6850   29.2860   43.0500 C   0  0  0  0  0  0  0  0  0  0  0  0
   37.8520   30.1070   43.6980 H   0  0  0  0  0  0  0  0  0  0  0  0
   37.4170   28.1010   43.6790 C   0  0  0  0  0  0  0  0  0  0  0  0
   37.3730   27.9960   44.7510 H   0  0  0  0  0  0  0  0  0  0  0  0
   37.1840   26.9650   42.8980 C   0  0  0  0  0  3  0  0  0  0  0  0
   37.2520   27.1570   41.5380 C   0  0  0  0  0  3  0  0  0  0  0  0
   37.5180   28.3340   40.9910 N   0  0  0  0  0  0  0  0  0  0  0  0
  2  7  1  0  0  0  0
  2  1  1  0  0  0  0
  3  2  2  0  0  0  0
  4  5  2  0  0  0  0
  4  3  1  0  0  0  0
  5  6  1  0  0  0  0
  6 10  1  0  0  0  0
  6  7  2  0  0  0  0
  7 20  1  0  0  0  0
  8  4  1  0  0  0  0
  9  5  1  0  0  0  0
 11 12  2  0  0  0  0
 11 16  1  0  0  0  0
 12 13  1  0  0  0  0
 13  3  1  0  0  0  0
 13 14  2  0  0  0  0
 15 14  1  0  0  0  0
 15 19  1  0  0  0  0
 16 15  2  0  0  0  0
 17 11  1  0  0  0  0
 18 12  1  0  0  0  0
 20 21  1  0  0  0  0
 21 23  2  0  0  0  0
 21 22  1  0  0  0  0
 23 24  1  0  0  0  0
 25 23  1  0  0  0  0
 26 25  2  0  0  0  0
 27 26  1  0  0  0  0
 27 20  2  0  0  0  0
M  END
>  <minimizedAffinity>
-4.93145895

$$$$

 OpenBabel03242519593D

 27 29  0  0  0  0  0  0  0  0999 V2000
   36.2090   26.2370   38.4840 Br  0  0  0  0  0  0  0  0  0  0  0  0
   36.3350   27.7340   39.6800 C   0  0  0  0  0  0  0  0  0  0  0  0
   37.0440   27.6820   40.8590 C   0  0  0  0  0  0  0  0  0  0  0  0
   37.0720   28.8080   41.6430 C   0  0  0  0  0  0  0  0  0  0  0  0
   36.4230   29.9720   41.2940 C   0  0  0  0  0  0  0  0  0  0  0  0
   35.7110   30.0250   40.1090 C   0  0  0  0  0  0  0  0  0  0  0  0
   35.6880   28.8930   39.3310 C   0  0  0  0  0  0  0  0  0  0  0  0
   37.6470   28.7230   42.5710 H   0  0  0  0  0  0  0  0  0  0  0  0
   36.5310   30.7770   42.0030 H   0  0  0  0  0  0  0  0  0  0  0  0
   35.2340   30.9630   39.9050 H   0  0  0  0  0  0  0  0  0  0  0  0
   37.7270   24.1990   42.2130 C   0  0  0  0  0  0  0  0  0  0  0  0
   37.0770   25.4010   41.9100 C   0  0  0  0  0  0  0  0  0  0  0  0
   37.7140   26.4200   41.1820 C   0  0  0  0  0  0  0  0  0  0  0  0
   38.9770   26.1490   40.8080 N   0  0  0  0  0  0  0  0  0  0  0  0
   39.6130   24.9980   41.0930 C   0  0  0  0  0  0  0  0  0  0  0  0
   38.9790   24.0340   41.7940 N   0  0  0  0  0  0  0  0  0  0  0  0
   37.2150   23.4280   42.7750 H   0  0  0  0  0  0  0  0  0  0  0  0
   36.0570   25.5510   42.2430 H   0  0  0  0  0  0  0  0  0  0  0  0
   40.6280   24.9530   40.7130 H   0  0  0  0  0  0  0  0  0  0  0  0
   34.9400   28.9390   38.0800 C   0  0  0  0  0  0  0  0  0  0  0  0
   33.5920   28.8060   37.9570 C   0  0  0  0  0  0  0  0  0  0  0  0
   32.9980   28.6530   38.8200 H   0  0  0  0  0  0  0  0  0  0  0  0
   32.8960   28.8490   36.7800 C   0  0  0  0  0  0  0  0  0  0  0  0
   31.8260   28.7390   36.7200 H   0  0  0  0  0  0  0  0  0  0  0  0
   33.6030   29.0470   35.5890 C   0  0  0  0  0  3  0  0  0  0  0  0
   34.9640   29.1810   35.7250 C   0  0  0  0  0  3  0  0  0  0  0  0
   35.5790   29.1280   36.8980 N   0  0  0  0  0  0  0  0  0  0  0  0
  1  2  1  0  0  0  0
  2  3  1  0  0  0  0
  3 13  1  0  0  0  0
  3  4  2  0  0  0  0
  4  8  1  0  0  0  0
  5  4  1  0  0  0  0
  5  9  1  0  0  0  0
  6  5  2  0  0  0  0
  7  2  2  0  0  0  0
  7  6  1  0  0  0  0
 10  6  1  0  0  0  0
 11 17  1  0  0  0  0
 12 11  1  0  0  0  0
 12 18  1  0  0  0  0
 13 12  2  0  0  0  0
 14 15  2  0  0  0  0
 14 13  1  0  0  0  0
 15 16  1  0  0  0  0
 16 11  2  0  0  0  0
 19 15  1  0  0  0  0
 20  7  1  0  0  0  0
 21 20  1  0  0  0  0
 21 22  1  0  0  0  0
 23 21  2  0  0  0  0
 24 23  1  0  0  0  0
 25 26  2  0  0  0  0
 25 23  1  0  0  0  0
 26 27  1  0  0  0  0
 27 20  2  0  0  0  0
M  END
>  <minimizedAffinity>
-4.80397463

$$$$

 OpenBabel03242519593D

 27 29  0  0  0  0  0  0  0  0999 V2000
   37.5520   30.6340   38.5390 Br  0  0  0  0  0  0  0  0  0  0  0  0
   37.4890   29.8600   40.2950 C   0  0  0  0  0  0  0  0  0  0  0  0
   38.3160   30.2740   41.3150 C   0  0  0  0  0  0  0  0  0  0  0  0
   38.1910   29.6560   42.5340 C   0  0  0  0  0  0  0  0  0  0  0  0
   37.2790   28.6500   42.7670 C   0  0  0  0  0  0  0  0  0  0  0  0
   36.4470   28.2350   41.7420 C   0  0  0  0  0  0  0  0  0  0  0  0
   36.5800   28.8580   40.5250 C   0  0  0  0  0  0  0  0  0  0  0  0
   38.8680   30.0140   43.3170 H   0  0  0  0  0  0  0  0  0  0  0  0
   37.2900   28.2560   43.7700 H   0  0  0  0  0  0  0  0  0  0  0  0
   35.7640   27.4490   41.9980 H   0  0  0  0  0  0  0  0  0  0  0  0
   41.5260   32.1200   40.4680 C   0  0  0  0  0  0  0  0  0  0  0  0
   40.6250   31.0880   40.7560 C   0  0  0  0  0  0  0  0  0  0  0  0
   39.2680   31.3450   41.0130 C   0  0  0  0  0  0  0  0  0  0  0  0
   38.9130   32.6410   40.9620 N   0  0  0  0  0  0  0  0  0  0  0  0
   39.7700   33.6430   40.6870 C   0  0  0  0  0  0  0  0  0  0  0  0
   41.0690   33.3700   40.4430 N   0  0  0  0  0  0  0  0  0  0  0  0
   42.5670   31.8970   40.2730 H   0  0  0  0  0  0  0  0  0  0  0  0
   40.9810   30.0650   40.7790 H   0  0  0  0  0  0  0  0  0  0  0  0
   39.3100   34.6240   40.6890 H   0  0  0  0  0  0  0  0  0  0  0  0
   35.7080   28.4270   39.4380 C   0  0  0  0  0  0  0  0  0  0  0  0
   34.5680   29.0530   39.0410 C   0  0  0  0  0  0  0  0  0  0  0  0
   34.2500   29.9320   39.5390 H   0  0  0  0  0  0  0  0  0  0  0  0
   33.7540   28.6430   38.0200 C   0  0  0  0  0  0  0  0  0  0  0  0
   32.8560   29.1640   37.7330 H   0  0  0  0  0  0  0  0  0  0  0  0
   34.1000   27.4890   37.3080 C   0  0  0  0  0  3  0  0  0  0  0  0
   35.2540   26.8650   37.7180 C   0  0  0  0  0  3  0  0  0  0  0  0
   35.9990   27.3140   38.7170 N   0  0  0  0  0  0  0  0  0  0  0  0
  1  2  1  0  0  0  0
  2  7  2  0  0  0  0
  2  3  1  0  0  0  0
  3  4  2  0  0  0  0
  4  5  1  0  0  0  0
  4  8  1  0  0  0  0
  5  9  1  0  0  0  0
  6 10  1  0  0  0  0
  6  5  2  0  0  0  0
  7  6  1  0  0  0  0
 11 12  1  0  0  0  0
 12 18  1  0  0  0  0
 12 13  2  0  0  0  0
 13  3  1  0  0  0  0
 14 13  1  0  0  0  0
 15 19  1  0  0  0  0
 15 14  2  0  0  0  0
 16 11  2  0  0  0  0
 16 15  1  0  0  0  0
 17 11  1  0  0  0  0
 20  7  1  0  0  0  0
 21 20  1  0  0  0  0
 21 22  1  0  0  0  0
 23 21  2  0  0  0  0
 24 23  1  0  0  0  0
 25 26  2  0  0  0  0
 25 23  1  0  0  0  0
 26 27  1  0  0  0  0
 27 20  2  0  0  0  0
M  END
>  <minimizedAffinity>
-4.78411007

$$$$

 OpenBabel03242519593D

 27 29  0  0  0  0  0  0  0  0999 V2000
   39.2740   29.2050   41.1670 Br  0  0  0  0  0  0  0  0  0  0  0  0
   37.8430   29.3060   39.8910 C   0  0  0  0  0  0  0  0  0  0  0  0
   37.5470   30.4600   39.2010 C   0  0  0  0  0  0  0  0  0  0  0  0
   36.5030   30.4260   38.3100 C   0  0  0  0  0  0  0  0  0  0  0  0
   35.7530   29.2920   38.0870 C   0  0  0  0  0  0  0  0  0  0  0  0
   36.0500   28.1320   38.7800 C   0  0  0  0  0  0  0  0  0  0  0  0
   37.0960   28.1760   39.6700 C   0  0  0  0  0  0  0  0  0  0  0  0
   36.3020   31.3650   37.7830 H   0  0  0  0  0  0  0  0  0  0  0  0
   34.9650   29.4090   37.3600 H   0  0  0  0  0  0  0  0  0  0  0  0
   35.4250   27.2920   38.5540 H   0  0  0  0  0  0  0  0  0  0  0  0
   38.8010   33.7280   40.6760 C   0  0  0  0  0  0  0  0  0  0  0  0
   38.0020   32.6080   40.4200 C   0  0  0  0  0  0  0  0  0  0  0  0
   38.3740   31.6360   39.4760 C   0  0  0  0  0  0  0  0  0  0  0  0
   39.5420   31.8680   38.8500 N   0  0  0  0  0  0  0  0  0  0  0  0
   40.3190   32.9410   39.0860 C   0  0  0  0  0  0  0  0  0  0  0  0
   39.9390   33.8610   39.9980 N   0  0  0  0  0  0  0  0  0  0  0  0
   38.4930   34.4630   41.4080 H   0  0  0  0  0  0  0  0  0  0  0  0
   37.0720   32.4840   40.9640 H   0  0  0  0  0  0  0  0  0  0  0  0
   41.2240   32.9650   38.4890 H   0  0  0  0  0  0  0  0  0  0  0  0
   37.4170   26.9570   40.4060 C   0  0  0  0  0  0  0  0  0  0  0  0
   36.9160   26.6100   41.6220 C   0  0  0  0  0  0  0  0  0  0  0  0
   36.2300   27.2530   42.1100 H   0  0  0  0  0  0  0  0  0  0  0  0
   37.2220   25.4660   42.3070 C   0  0  0  0  0  0  0  0  0  0  0  0
   36.8040   25.2230   43.2700 H   0  0  0  0  0  0  0  0  0  0  0  0
   38.1210   24.5610   41.7340 C   0  0  0  0  0  3  0  0  0  0  0  0
   38.6210   24.9220   40.5050 C   0  0  0  0  0  3  0  0  0  0  0  0
   38.2840   26.0480   39.8940 N   0  0  0  0  0  0  0  0  0  0  0  0
  2  1  1  0  0  0  0
  3 13  1  0  0  0  0
  3  2  2  0  0  0  0
  4  3  1  0  0  0  0
  5  4  2  0  0  0  0
  5  6  1  0  0  0  0
  6  7  2  0  0  0  0
  7  2  1  0  0  0  0
  7 20  1  0  0  0  0
  8  4  1  0  0  0  0
  9  5  1  0  0  0  0
 10  6  1  0  0  0  0
 11 17  1  0  0  0  0
 12 11  1  0  0  0  0
 12 18  1  0  0  0  0
 13 12  2  0  0  0  0
 14 15  2  0  0  0  0
 14 13  1  0  0  0  0
 15 16  1  0  0  0  0
 16 11  2  0  0  0  0
 19 15  1  0  0  0  0
 20 21  1  0  0  0  0
 21 22  1  0  0  0  0
 21 23  2  0  0  0  0
 23 24  1  0  0  0  0
 25 23  1  0  0  0  0
 26 25  2  0  0  0  0
 27 20  2  0  0  0  0
 27 26  1  0  0  0  0
M  END
>  <minimizedAffinity>
-4.7762661

$$$$

 OpenBabel03242519593D

 27 29  0  0  0  0  0  0  0  0999 V2000
   37.1980   27.5370   39.3590 Br  0  0  0  0  0  0  0  0  0  0  0  0
   37.2950   29.4370   39.6190 C   0  0  0  0  0  0  0  0  0  0  0  0
   36.8050   30.3360   38.6990 C   0  0  0  0  0  0  0  0  0  0  0  0
   36.9230   31.6740   38.9800 C   0  0  0  0  0  0  0  0  0  0  0  0
   37.5080   32.1400   40.1370 C   0  0  0  0  0  0  0  0  0  0  0  0
   38.0000   31.2370   41.0630 C   0  0  0  0  0  0  0  0  0  0  0  0
   37.8780   29.9010   40.7720 C   0  0  0  0  0  0  0  0  0  0  0  0
   36.5210   32.3530   38.2220 H   0  0  0  0  0  0  0  0  0  0  0  0
   37.5330   33.2140   40.2280 H   0  0  0  0  0  0  0  0  0  0  0  0
   38.4390   31.6740   41.9380 H   0  0  0  0  0  0  0  0  0  0  0  0
   36.3000   29.1750   35.1170 C   0  0  0  0  0  0  0  0  0  0  0  0
   36.8940   29.7030   36.2700 C   0  0  0  0  0  0  0  0  0  0  0  0
   36.1950   29.7870   37.4860 C   0  0  0  0  0  0  0  0  0  0  0  0
   34.9320   29.3270   37.4500 N   0  0  0  0  0  0  0  0  0  0  0  0
   34.3500   28.8180   36.3480 C   0  0  0  0  0  0  0  0  0  0  0  0
   35.0420   28.7490   35.1910 N   0  0  0  0  0  0  0  0  0  0  0  0
   36.8590   29.1210   34.1920 H   0  0  0  0  0  0  0  0  0  0  0  0
   37.9180   30.0540   36.2260 H   0  0  0  0  0  0  0  0  0  0  0  0
   33.3260   28.4970   36.5030 H   0  0  0  0  0  0  0  0  0  0  0  0
   38.3940   28.9410   41.7420 C   0  0  0  0  0  0  0  0  0  0  0  0
   39.6660   28.4630   41.7850 C   0  0  0  0  0  0  0  0  0  0  0  0
   40.3750   28.7910   41.0690 H   0  0  0  0  0  0  0  0  0  0  0  0
   40.1440   27.5610   42.6970 C   0  0  0  0  0  0  0  0  0  0  0  0
   41.1610   27.2050   42.7000 H   0  0  0  0  0  0  0  0  0  0  0  0
   39.2740   27.0760   43.6790 C   0  0  0  0  0  3  0  0  0  0  0  0
   37.9910   27.5650   43.6260 C   0  0  0  0  0  3  0  0  0  0  0  0
   37.5900   28.4390   42.7140 N   0  0  0  0  0  0  0  0  0  0  0  0
  1  2  1  0  0  0  0
  2  7  1  0  0  0  0
  3  4  1  0  0  0  0
  3  2  2  0  0  0  0
  4  5  2  0  0  0  0
  5  9  1  0  0  0  0
  5  6  1  0  0  0  0
  6 10  1  0  0  0  0
  7  6  2  0  0  0  0
  7 20  1  0  0  0  0
  8  4  1  0  0  0  0
 11 16  2  0  0  0  0
 11 12  1  0  0  0  0
 12 13  2  0  0  0  0
 13  3  1  0  0  0  0
 14 13  1  0  0  0  0
 15 19  1  0  0  0  0
 15 14  2  0  0  0  0
 16 15  1  0  0  0  0
 17 11  1  0  0  0  0
 18 12  1  0  0  0  0
 20 21  2  0  0  0  0
 20 27  1  0  0  0  0
 21 23  1  0  0  0  0
 22 21  1  0  0  0  0
 23 24  1  0  0  0  0
 23 25  2  0  0  0  0
 26 25  1  0  0  0  0
 27 26  2  0  0  0  0
M  END
>  <minimizedAffinity>
-4.71137142

$$$$

 OpenBabel03242519593D

 27 29  0  0  0  0  0  0  0  0999 V2000
   36.8310   26.4360   38.3160 Br  0  0  0  0  0  0  0  0  0  0  0  0
   36.5720   27.9400   39.4810 C   0  0  0  0  0  0  0  0  0  0  0  0
   35.9730   29.1060   39.0610 C   0  0  0  0  0  0  0  0  0  0  0  0
   35.8360   30.1220   39.9740 C   0  0  0  0  0  0  0  0  0  0  0  0
   36.2710   30.0150   41.2760 C   0  0  0  0  0  0  0  0  0  0  0  0
   36.8720   28.8420   41.6980 C   0  0  0  0  0  0  0  0  0  0  0  0
   37.0060   27.8320   40.7790 C   0  0  0  0  0  0  0  0  0  0  0  0
   35.3550   31.0320   39.5980 H   0  0  0  0  0  0  0  0  0  0  0  0
   36.0980   30.8900   41.8820 H   0  0  0  0  0  0  0  0  0  0  0  0
   37.1840   28.8320   42.7240 H   0  0  0  0  0  0  0  0  0  0  0  0
   33.7960   28.9470   35.9520 C   0  0  0  0  0  0  0  0  0  0  0  0
   34.2080   28.8840   37.2890 C   0  0  0  0  0  0  0  0  0  0  0  0
   35.5310   29.1680   37.6670 C   0  0  0  0  0  0  0  0  0  0  0  0
   36.3540   29.4990   36.6560 N   0  0  0  0  0  0  0  0  0  0  0  0
   35.9710   29.5630   35.3670 C   0  0  0  0  0  0  0  0  0  0  0  0
   34.6930   29.2850   35.0290 N   0  0  0  0  0  0  0  0  0  0  0  0
   32.7710   28.7240   35.6860 H   0  0  0  0  0  0  0  0  0  0  0  0
   33.4900   28.6120   38.0530 H   0  0  0  0  0  0  0  0  0  0  0  0
   36.7670   29.8450   34.6870 H   0  0  0  0  0  0  0  0  0  0  0  0
   37.6390   26.5910   41.2140 C   0  0  0  0  0  0  0  0  0  0  0  0
   37.0030   25.5350   41.7880 C   0  0  0  0  0  0  0  0  0  0  0  0
   35.9570   25.5770   41.9510 H   0  0  0  0  0  0  0  0  0  0  0  0
   37.6030   24.3740   42.1950 C   0  0  0  0  0  0  0  0  0  0  0  0
   37.0660   23.5570   42.6460 H   0  0  0  0  0  0  0  0  0  0  0  0
   38.9830   24.2350   42.0160 C   0  0  0  0  0  3  0  0  0  0  0  0
   39.6160   25.3080   41.4350 C   0  0  0  0  0  3  0  0  0  0  0  0
   38.9760   26.4060   41.0640 N   0  0  0  0  0  0  0  0  0  0  0  0
  1  2  1  0  0  0  0
  2  7  1  0  0  0  0
  3  2  2  0  0  0  0
  3  4  1  0  0  0  0
  4  5  2  0  0  0  0
  5  6  1  0  0  0  0
  5  9  1  0  0  0  0
  6 10  1  0  0  0  0
  7 20  1  0  0  0  0
  7  6  2  0  0  0  0
  8  4  1  0  0  0  0
 11 12  1  0  0  0  0
 12 13  2  0  0  0  0
 12 18  1  0  0  0  0
 13  3  1  0  0  0  0
 14 13  1  0  0  0  0
 15 14  2  0  0  0  0
 16 15  1  0  0  0  0
 16 11  2  0  0  0  0
 17 11  1  0  0  0  0
 19 15  1  0  0  0  0
 20 21  1  0  0  0  0
 21 22  1  0  0  0  0
 21 23  2  0  0  0  0
 23 24  1  0  0  0  0
 25 23  1  0  0  0  0
 26 25  2  0  0  0  0
 27 20  2  0  0  0  0
 27 26  1  0  0  0  0
M  END
>  <minimizedAffinity>
-4.68899679

$$$$
