
 OpenBabel03252503583D

 33 36  0  0  1  0  0  0  0  0999 V2000
   47.2800   34.7900   42.7260 C   0  0  0  0  0  0  0  0  0  0  0  0
   46.3110   35.7330   42.4420 C   0  0  0  0  0  0  0  0  0  0  0  0
   45.1550   35.7100   43.2120 C   0  0  0  0  0  0  0  0  0  0  0  0
   45.0310   34.7790   44.1920 N   0  0  0  0  0  0  0  0  0  0  0  0
   46.0010   33.8780   44.4350 C   0  0  0  0  0  0  0  0  0  0  0  0
   47.1310   33.8750   43.7060 N   0  0  0  0  0  0  0  0  0  0  0  0
   46.3420   36.4920   41.6890 H   0  0  0  0  0  0  0  0  0  0  0  0
   44.3530   36.4200   43.0440 H   0  0  0  0  0  0  0  0  0  0  0  0
   46.0350   31.5320   45.1420 C   0  0  0  0  0  0  0  0  0  0  0  0
   45.8710   32.8720   45.4930 C   0  0  0  0  0  0  0  0  0  0  0  0
   45.5960   33.2200   46.8110 C   0  0  0  0  0  0  0  0  0  0  0  0
   45.4930   32.2090   47.7420 C   0  0  0  0  0  0  0  0  0  0  0  0
   45.2470   32.2100   49.0570 N   0  0  0  0  0  0  0  0  0  0  0  0
   45.2420   30.9760   49.5670 C   0  0  0  0  0  0  0  0  0  0  0  0
   45.4970   30.1000   48.5480 C   0  0  0  0  0  0  0  0  0  0  0  0
   45.6560   30.8680   47.4060 C   0  0  0  0  0  0  0  0  0  0  0  0
   45.9290   30.5400   46.0850 C   0  0  0  0  0  0  0  0  0  0  0  0
   46.2490   31.3020   44.1010 H   0  0  0  0  0  0  0  0  0  0  0  0
   45.4680   34.2510   47.0820 H   0  0  0  0  0  0  0  0  0  0  0  0
   45.0820   33.0990   49.5930 H   0  0  0  0  0  0  0  0  0  0  0  0
   45.0760   30.6500   50.5780 H   0  0  0  0  0  0  0  0  0  0  0  0
   45.5850   29.0070   48.5080 H   0  0  0  0  0  0  0  0  0  0  0  0
   46.0650   29.5170   45.7600 H   0  0  0  0  0  0  0  0  0  0  0  0
   48.4810   34.8400   41.9040 C   0  0  1  0  0  3  0  0  0  0  0  0
   49.5090   35.5590   42.1890 O   0  0  0  0  0  1  0  0  0  0  0  0
   48.5860   34.0520   40.6760 C   0  0  0  0  0  0  0  0  0  0  0  0
   48.1310   34.5420   39.4910 C   0  0  0  0  0  0  0  0  0  0  0  0
   47.6900   35.5150   39.4490 H   0  0  0  0  0  0  0  0  0  0  0  0
   48.2380   33.7840   38.3410 C   0  0  0  0  0  0  0  0  0  0  0  0
   47.8730   34.1750   37.3900 H   0  0  0  0  0  0  0  0  0  0  0  0
   48.8000   32.5220   38.3480 C   0  0  0  0  0  3  0  0  0  0  0  0
   49.2320   32.1060   39.5850 C   0  0  0  0  0  3  0  0  0  0  0  0
   49.1520   32.8110   40.7460 N   0  0  0  0  0  0  0  0  0  0  0  0
  1  6  1  0  0  0  0
  2  1  2  0  0  0  0
  2  3  1  0  0  0  0
  3  4  2  0  0  0  0
  4  5  1  0  0  0  0
  5 10  1  0  0  0  0
  6  5  2  0  0  0  0
  7  2  1  0  0  0  0
  8  3  1  0  0  0  0
  9 10  2  0  0  0  0
  9 17  1  0  0  0  0
 10 11  1  0  0  0  0
 11 19  1  0  0  0  0
 11 12  2  0  0  0  0
 12 13  1  0  0  0  0
 13 14  1  0  0  0  0
 13 20  1  0  0  0  0
 14 21  1  0  0  0  0
 15 14  2  0  0  0  0
 16 12  1  0  0  0  0
 16 15  1  0  0  0  0
 17 16  2  0  0  0  0
 18  9  1  0  0  0  0
 22 15  1  0  0  0  0
 23 17  1  0  0  0  0
 24 25  1  1  0  0  0
 24  1  1  0  0  0  0
 26 33  1  0  0  0  0
 26 24  1  0  0  0  0
 27 26  2  0  0  0  0
 28 27  1  0  0  0  0
 29 31  2  0  0  0  0
 29 27  1  0  0  0  0
 30 29  1  0  0  0  0
 31 32  1  0  0  0  0
 32 33  2  0  0  0  0
M  END
>  <minimizedAffinity>
-6.18826342

>  <minimizedRMSD>
0.608181953

$$$$
