
 OpenBabel03252502273D

 34 36  0  0  0  0  0  0  0  0999 V2000
   45.0930   34.4350   41.0690 C   0  0  0  0  0  0  0  0  0  0  0  0
   45.2490   35.0850   42.2890 C   0  0  0  0  0  0  0  0  0  0  0  0
   46.5290   35.3700   42.7380 C   0  0  0  0  0  0  0  0  0  0  0  0
   47.6100   35.0060   41.9720 C   0  0  0  0  0  0  0  0  0  0  0  0
   47.4820   34.3600   40.7550 C   0  0  0  0  0  0  0  0  0  0  0  0
   46.1820   34.0890   40.3340 C   0  0  0  0  0  0  0  0  0  0  0  0
   44.4030   35.3690   42.8870 H   0  0  0  0  0  0  0  0  0  0  0  0
   46.7420   35.8680   43.6680 H   0  0  0  0  0  0  0  0  0  0  0  0
   48.6390   35.2150   42.2950 H   0  0  0  0  0  0  0  0  0  0  0  0
   48.3030   34.0680   40.1430 H   0  0  0  0  0  0  0  0  0  0  0  0
   41.4750   34.7570   40.0620 C   0  0  0  0  0  0  0  0  0  0  0  0
   42.7680   35.1370   40.4490 C   0  0  0  0  0  0  0  0  0  0  0  0
   43.7250   34.1720   40.6660 C   0  0  0  0  0  0  0  0  0  0  0  0
   43.3400   32.8840   40.4830 N   0  0  0  0  0  0  0  0  0  0  0  0
   42.0970   32.5160   40.1110 C   0  0  0  0  0  0  0  0  0  0  0  0
   41.1580   33.4590   39.8980 N   0  0  0  0  0  0  0  0  0  0  0  0
   43.0460   36.1750   40.5870 H   0  0  0  0  0  0  0  0  0  0  0  0
   41.9030   31.4470   39.9950 H   0  0  0  0  0  0  0  0  0  0  0  0
   40.4370   35.7820   39.8250 C   0  0  0  0  0  0  0  0  0  0  0  0
   39.2450   35.1100   39.5150 F   0  0  0  0  0  0  0  0  0  0  0  0
   40.7860   36.4380   38.6470 F   0  0  0  0  0  0  0  0  0  0  0  0
   40.2490   36.6270   40.8730 F   0  0  0  0  0  0  0  0  0  0  0  0
   46.2270   32.1560   38.5540 C   0  0  0  0  0  0  0  0  0  0  0  0
   46.8930   31.2750   39.1270 O   0  0  0  0  0  0  0  0  0  0  0  0
   45.9140   33.4390   39.1110 N   0  0  0  0  0  0  0  0  0  0  0  0
   45.3480   34.1580   38.5610 H   0  0  0  0  0  0  0  0  0  0  0  0
   45.6900   31.9430   37.2100 C   0  0  0  0  0  0  0  0  0  0  0  0
   44.5360   31.2030   37.0750 C   0  0  0  0  0  0  0  0  0  0  0  0
   44.0570   30.7990   37.9580 H   0  0  0  0  0  0  0  0  0  0  0  0
   43.9470   30.9440   35.8560 C   0  0  0  0  0  0  0  0  0  0  0  0
   43.0360   30.3500   35.8300 H   0  0  0  0  0  0  0  0  0  0  0  0
   44.5100   31.4310   34.6930 C   0  0  0  0  0  0  0  0  0  0  0  0
   45.6620   32.1660   34.8680 C   0  0  0  0  0  0  0  0  0  0  0  0
   46.2190   32.4080   36.0680 N   0  0  0  0  0  0  0  0  0  0  0  0
  1  2  1  0  0  0  0
  2  3  2  0  0  0  0
  2  7  1  0  0  0  0
  3  8  1  0  0  0  0
  4  9  1  0  0  0  0
  4  3  1  0  0  0  0
  5  4  2  0  0  0  0
  6  5  1  0  0  0  0
  6  1  2  0  0  0  0
 10  5  1  0  0  0  0
 11 12  1  0  0  0  0
 12 17  1  0  0  0  0
 12 13  2  0  0  0  0
 13  1  1  0  0  0  0
 14 13  1  0  0  0  0
 15 14  2  0  0  0  0
 16 11  2  0  0  0  0
 16 15  1  0  0  0  0
 18 15  1  0  0  0  0
 19 11  1  0  0  0  0
 19 22  1  0  0  0  0
 20 19  1  0  0  0  0
 21 19  1  0  0  0  0
 23 25  1  0  0  0  0
 23 24  2  0  0  0  0
 25  6  1  0  0  0  0
 26 25  1  0  0  0  0
 27 23  1  0  0  0  0
 28 27  1  0  0  0  0
 28 29  1  0  0  0  0
 30 28  2  0  0  0  0
 31 30  1  0  0  0  0
 32 33  2  0  0  0  0
 32 30  1  0  0  0  0
 33 34  1  0  0  0  0
 34 27  2  0  0  0  0
M  END
>  <minimizedAffinity>
-5.96116114

>  <minimizedRMSD>
0.751496315

$$$$
