
 OpenBabel03252507593D

 28 30  0  0  1  0  0  0  0  0999 V2000
   46.6550   34.7880   43.0470 C   0  0  0  0  0  0  0  0  0  0  0  0
   45.5950   35.7290   43.2150 C   0  0  0  0  0  0  0  0  0  0  0  0
   44.7580   35.5160   44.3080 C   0  0  0  0  0  0  0  0  0  0  0  0
   44.9920   34.4590   45.1210 N   0  0  0  0  0  0  0  0  0  0  0  0
   46.0360   33.5910   44.8960 C   0  0  0  0  0  0  0  0  0  0  0  0
   46.8610   33.7420   43.8780 N   0  0  0  0  0  0  0  0  0  0  0  0
   45.4830   36.5460   42.5160 H   0  0  0  0  0  0  0  0  0  0  0  0
   43.9420   36.2000   44.4780 H   0  0  0  0  0  0  0  0  0  0  0  0
   46.2380   32.4610   45.8500 C   0  0  1  0  0  0  0  0  0  0  0  0
   46.9810   32.7170   47.1410 C   0  0  0  0  0  0  0  0  0  0  0  0
   45.4840   32.5810   47.1140 C   0  0  1  0  0  0  0  0  0  0  0  0
   46.3480   31.4590   45.3960 H   0  0  0  0  0  0  0  0  0  0  0  0
   47.4770   33.6780   47.2930 H   0  0  0  0  0  0  0  0  0  0  0  0
   47.4910   31.8330   47.5700 H   0  0  0  0  0  0  0  0  0  0  0  0
   45.0070   31.7160   47.5960 H   0  0  0  0  0  0  0  0  0  0  0  0
   44.8310   33.8560   47.4430 N   0  0  0  0  0  0  0  0  0  0  0  0
   45.2960   34.2680   48.2710 H   0  0  0  0  0  0  0  0  0  0  0  0
   43.7980   33.7380   47.5270 H   0  0  0  0  0  0  0  0  0  0  0  0
   47.5200   35.0390   41.9110 C   0  0  0  0  0  0  0  0  0  0  0  0
   48.5370   35.8180   41.9680 O   0  0  0  0  0  0  0  0  0  0  0  0
   47.2580   34.3970   40.6240 C   0  0  0  0  0  0  0  0  0  0  0  0
   46.0800   33.7070   40.4250 C   0  0  0  0  0  0  0  0  0  0  0  0
   45.3370   33.6330   41.2190 H   0  0  0  0  0  0  0  0  0  0  0  0
   45.7420   33.0690   39.2520 C   0  0  0  0  0  0  0  0  0  0  0  0
   44.8140   32.5360   39.1210 H   0  0  0  0  0  0  0  0  0  0  0  0
   46.6880   33.1600   38.2330 C   0  0  0  0  0  3  0  0  0  0  0  0
   47.8590   33.8560   38.4570 C   0  0  0  0  0  3  0  0  0  0  0  0
   48.1530   34.4690   39.6270 N   0  0  0  0  0  0  0  0  0  0  0  0
  1  2  2  0  0  0  0
  1  6  1  0  0  0  0
  2  3  1  0  0  0  0
  3  8  1  0  0  0  0
  3  4  2  0  0  0  0
  5  4  1  0  0  0  0
  5  9  1  0  0  0  0
  6  5  2  0  0  0  0
  7  2  1  0  0  0  0
  9 12  1  6  0  0  0
  9 11  1  0  0  0  0
  9 10  1  0  0  0  0
 10 13  1  0  0  0  0
 10 14  1  0  0  0  0
 11 10  1  0  0  0  0
 11 16  1  0  0  0  0
 11 15  1  1  0  0  0
 16 18  1  0  0  0  0
 16 17  1  0  0  0  0
 19 20  2  0  0  0  0
 19  1  1  0  0  0  0
 21 19  1  0  0  0  0
 22 21  1  0  0  0  0
 22 23  1  0  0  0  0
 24 22  2  0  0  0  0
 25 24  1  0  0  0  0
 26 27  2  0  0  0  0
 26 24  1  0  0  0  0
 27 28  1  0  0  0  0
 28 21  2  0  0  0  0
M  END
>  <minimizedAffinity>
-5.53667212

>  <minimizedRMSD>
0.8998245

$$$$
