
 OpenBabel03242519403D

 28 29  0  0  0  0  0  0  0  0999 V2000
   48.0160   32.8270   41.9030 O   0  0  0  0  0  0  0  0  0  0  0  0
   47.0870   33.9420   41.3560 P   0  0  2  0  0  0  0  0  0  0  0  0
   45.5160   33.7200   42.0070 O   0  0  0  0  0  0  0  0  0  0  0  0
   44.3880   35.9160   44.6830 C   0  0  0  0  0  0  0  0  0  0  0  0
   44.6500   35.4200   43.3850 C   0  0  0  0  0  0  0  0  0  0  0  0
   45.2720   34.1700   43.2870 C   0  0  0  0  0  0  0  0  0  0  0  0
   45.5820   33.5160   44.4210 N   0  0  0  0  0  0  0  0  0  0  0  0
   45.3190   34.0160   45.6470 C   0  0  0  0  0  0  0  0  0  0  0  0
   44.7260   35.2090   45.7890 N   0  0  0  0  0  0  0  0  0  0  0  0
   43.9070   36.8840   44.7620 H   0  0  0  0  0  0  0  0  0  0  0  0
   44.3550   36.0360   42.5610 H   0  0  0  0  0  0  0  0  0  0  0  0
   45.5920   33.4410   46.5210 H   0  0  0  0  0  0  0  0  0  0  0  0
   47.0020   33.8200   39.7050 O   0  0  0  0  0  0  0  0  0  0  0  0
   46.0730   33.2020   38.9250 C   0  0  0  0  0  0  0  0  0  0  0  0
   46.5460   32.3710   37.9470 O   0  0  0  0  0  0  0  0  0  0  0  0
   44.5910   33.0030   38.6520 C   0  0  0  0  0  0  0  0  0  0  0  0
   44.2850   31.9110   37.9040 C   0  0  0  0  0  0  0  0  0  0  0  0
   44.8630   31.1440   37.4230 H   0  0  0  0  0  0  0  0  0  0  0  0
   42.9160   31.6960   37.6740 C   0  0  0  0  0  0  0  0  0  0  0  0
   42.5820   30.8630   37.0990 H   0  0  0  0  0  0  0  0  0  0  0  0
   41.9530   32.5270   38.1680 C   0  0  0  0  0  0  0  0  0  0  0  0
   42.3580   33.5970   38.9080 C   0  0  0  0  0  0  0  0  0  0  0  0
   43.6340   33.7810   39.1110 N   0  0  0  0  0  0  0  0  0  0  0  0
   47.6960   35.3790   41.9120 O   0  0  0  0  0  0  0  0  0  0  0  0
   48.9460   35.6690   41.3890 C   0  0  0  0  0  0  0  0  0  0  0  0
   49.3920   36.9310   41.7470 F   0  0  0  0  0  0  0  0  0  0  0  0
   49.8320   34.6900   41.7080 F   0  0  0  0  0  0  0  0  0  0  0  0
   48.7920   35.6860   40.0070 F   0  0  0  0  0  0  0  0  0  0  0  0
  2  1  2  1  0  0  0
  2 24  1  0  0  0  0
  2  3  1  0  0  0  0
  3  6  1  0  0  0  0
  4 10  1  0  0  0  0
  4  9  1  0  0  0  0
  5  4  2  0  0  0  0
  6  5  1  0  0  0  0
  6  7  2  0  0  0  0
  7  8  1  0  0  0  0
  8  9  2  0  0  0  0
  8 12  1  0  0  0  0
 11  5  1  0  0  0  0
 13  2  1  0  0  0  0
 14 13  1  0  0  0  0
 15 14  2  0  0  0  0
 16 14  1  0  0  0  0
 16 23  1  0  0  0  0
 17 16  2  0  0  0  0
 18 17  1  0  0  0  0
 19 17  1  0  0  0  0
 19 21  2  0  0  0  0
 20 19  1  0  0  0  0
 21 22  1  0  0  0  0
 22 23  2  0  0  0  0
 25 27  1  0  0  0  0
 25 26  1  0  0  0  0
 25 24  1  0  0  0  0
 28 25  1  0  0  0  0
M  END
>  <minimizedAffinity>
-5.26239252

>  <minimizedRMSD>
2.11103773

$$$$
