
 OpenBabel03252502293D

 34 36  0  0  0  0  0  0  0  0999 V2000
   37.4000   31.3220   39.9740 C   0  0  0  0  0  0  0  0  0  0  0  0
   37.3180   32.6580   39.5940 C   0  0  0  0  0  0  0  0  0  0  0  0
   38.2480   33.5550   40.0940 C   0  0  0  0  0  0  0  0  0  0  0  0
   39.2270   33.1070   40.9480 C   0  0  0  0  0  0  0  0  0  0  0  0
   39.3310   31.7840   41.3400 C   0  0  0  0  0  0  0  0  0  0  0  0
   38.3800   30.9100   40.8200 C   0  0  0  0  0  0  0  0  0  0  0  0
   36.5510   33.0060   38.9270 H   0  0  0  0  0  0  0  0  0  0  0  0
   38.2590   34.6040   39.8540 H   0  0  0  0  0  0  0  0  0  0  0  0
   39.9820   33.7890   41.3640 H   0  0  0  0  0  0  0  0  0  0  0  0
   40.0800   31.4130   42.0000 H   0  0  0  0  0  0  0  0  0  0  0  0
   35.2630   29.2600   37.6520 C   0  0  0  0  0  0  0  0  0  0  0  0
   36.2840   30.1230   38.0770 C   0  0  0  0  0  0  0  0  0  0  0  0
   36.3930   30.4430   39.4110 C   0  0  0  0  0  0  0  0  0  0  0  0
   35.4790   29.8860   40.2450 N   0  0  0  0  0  0  0  0  0  0  0  0
   34.4970   29.0560   39.8390 C   0  0  0  0  0  0  0  0  0  0  0  0
   34.3880   28.7400   38.5330 N   0  0  0  0  0  0  0  0  0  0  0  0
   36.9990   30.5520   37.3860 H   0  0  0  0  0  0  0  0  0  0  0  0
   33.8190   28.6680   40.6020 H   0  0  0  0  0  0  0  0  0  0  0  0
   35.1340   28.9060   36.2230 C   0  0  0  0  0  0  0  0  0  0  0  0
   36.0440   29.7020   35.5090 F   0  0  0  0  0  0  0  0  0  0  0  0
   33.8800   29.3540   35.8130 F   0  0  0  0  0  0  0  0  0  0  0  0
   35.3450   27.5900   35.9600 F   0  0  0  0  0  0  0  0  0  0  0  0
   38.2250   28.7730   42.3400 C   0  0  0  0  0  0  0  0  0  0  0  0
   38.0570   29.2570   43.4740 O   0  0  0  0  0  0  0  0  0  0  0  0
   38.3780   29.5360   41.1370 N   0  0  0  0  0  0  0  0  0  0  0  0
   38.5330   29.0590   40.1950 H   0  0  0  0  0  0  0  0  0  0  0  0
   38.2830   27.3250   42.1390 C   0  0  0  0  0  0  0  0  0  0  0  0
   37.1340   26.5900   42.3320 C   0  0  0  0  0  0  0  0  0  0  0  0
   36.2220   27.0950   42.6250 H   0  0  0  0  0  0  0  0  0  0  0  0
   37.0800   25.2220   42.1680 C   0  0  0  0  0  0  0  0  0  0  0  0
   36.1350   24.7110   42.3390 H   0  0  0  0  0  0  0  0  0  0  0  0
   38.2090   24.5200   41.7960 C   0  0  0  0  0  3  0  0  0  0  0  0
   39.3380   25.2890   41.6120 C   0  0  0  0  0  3  0  0  0  0  0  0
   39.3680   26.6240   41.7760 N   0  0  0  0  0  0  0  0  0  0  0  0
  1  6  1  0  0  0  0
  2  1  2  0  0  0  0
  2  3  1  0  0  0  0
  3  4  2  0  0  0  0
  4  5  1  0  0  0  0
  4  9  1  0  0  0  0
  5 10  1  0  0  0  0
  6 25  1  0  0  0  0
  6  5  2  0  0  0  0
  7  2  1  0  0  0  0
  8  3  1  0  0  0  0
 11 12  2  0  0  0  0
 11 16  1  0  0  0  0
 12 13  1  0  0  0  0
 13  1  1  0  0  0  0
 13 14  2  0  0  0  0
 15 14  1  0  0  0  0
 15 18  1  0  0  0  0
 16 15  2  0  0  0  0
 17 12  1  0  0  0  0
 19 11  1  0  0  0  0
 20 19  1  0  0  0  0
 21 19  1  0  0  0  0
 22 19  1  0  0  0  0
 23 24  2  0  0  0  0
 25 23  1  0  0  0  0
 26 25  1  0  0  0  0
 27 28  1  0  0  0  0
 27 23  1  0  0  0  0
 28 29  1  0  0  0  0
 30 28  2  0  0  0  0
 30 31  1  0  0  0  0
 32 30  1  0  0  0  0
 33 34  1  0  0  0  0
 33 32  2  0  0  0  0
 34 27  2  0  0  0  0
M  END
>  <minimizedAffinity>
-5.95413208

$$$$

 OpenBabel03252502293D

 34 36  0  0  0  0  0  0  0  0999 V2000
   36.8790   28.6470   40.0250 C   0  0  0  0  0  0  0  0  0  0  0  0
   35.7950   27.9810   39.4630 C   0  0  0  0  0  0  0  0  0  0  0  0
   35.2070   28.5030   38.3220 C   0  0  0  0  0  0  0  0  0  0  0  0
   35.7060   29.6600   37.7730 C   0  0  0  0  0  0  0  0  0  0  0  0
   36.7830   30.3400   38.3130 C   0  0  0  0  0  0  0  0  0  0  0  0
   37.3500   29.7890   39.4590 C   0  0  0  0  0  0  0  0  0  0  0  0
   35.4060   27.0770   39.8930 H   0  0  0  0  0  0  0  0  0  0  0  0
   34.3660   28.0550   37.8220 H   0  0  0  0  0  0  0  0  0  0  0  0
   35.2660   30.1030   36.8700 H   0  0  0  0  0  0  0  0  0  0  0  0
   37.1880   31.2380   37.9070 H   0  0  0  0  0  0  0  0  0  0  0  0
   38.4630   26.2870   42.5020 C   0  0  0  0  0  0  0  0  0  0  0  0
   37.9450   26.7620   41.2870 C   0  0  0  0  0  0  0  0  0  0  0  0
   37.4420   28.0410   41.2170 C   0  0  0  0  0  0  0  0  0  0  0  0
   37.4830   28.7730   42.3580 N   0  0  0  0  0  0  0  0  0  0  0  0
   37.9800   28.3190   43.5270 C   0  0  0  0  0  0  0  0  0  0  0  0
   38.4740   27.0660   43.5990 N   0  0  0  0  0  0  0  0  0  0  0  0
   37.9260   26.1530   40.3920 H   0  0  0  0  0  0  0  0  0  0  0  0
   37.9600   28.9990   44.3800 H   0  0  0  0  0  0  0  0  0  0  0  0
   39.0070   24.9160   42.5920 C   0  0  0  0  0  0  0  0  0  0  0  0
   39.7210   24.6670   41.4100 F   0  0  0  0  0  0  0  0  0  0  0  0
   37.9180   24.0500   42.5340 F   0  0  0  0  0  0  0  0  0  0  0  0
   39.7980   24.7090   43.6780 F   0  0  0  0  0  0  0  0  0  0  0  0
   38.7480   31.6850   40.6220 C   0  0  0  0  0  0  0  0  0  0  0  0
   37.9760   32.6610   40.5740 O   0  0  0  0  0  0  0  0  0  0  0  0
   38.4550   30.3820   40.1040 N   0  0  0  0  0  0  0  0  0  0  0  0
   39.1680   29.5890   40.1650 H   0  0  0  0  0  0  0  0  0  0  0  0
   40.0710   31.8000   41.2350 C   0  0  0  0  0  0  0  0  0  0  0  0
   40.3610   31.0050   42.3220 C   0  0  0  0  0  0  0  0  0  0  0  0
   39.6100   30.3200   42.6960 H   0  0  0  0  0  0  0  0  0  0  0  0
   41.5760   31.0340   42.9720 C   0  0  0  0  0  0  0  0  0  0  0  0
   41.7300   30.3760   43.8250 H   0  0  0  0  0  0  0  0  0  0  0  0
   42.5750   31.8860   42.5450 C   0  0  0  0  0  3  0  0  0  0  0  0
   42.2480   32.6640   41.4560 C   0  0  0  0  0  3  0  0  0  0  0  0
   41.0560   32.6190   40.8350 N   0  0  0  0  0  0  0  0  0  0  0  0
  1 13  1  0  0  0  0
  2  7  1  0  0  0  0
  2  1  1  0  0  0  0
  3  2  2  0  0  0  0
  4  5  2  0  0  0  0
  4  3  1  0  0  0  0
  5  6  1  0  0  0  0
  6  1  2  0  0  0  0
  6 25  1  0  0  0  0
  8  3  1  0  0  0  0
  9  4  1  0  0  0  0
 10  5  1  0  0  0  0
 11 19  1  0  0  0  0
 11 16  1  0  0  0  0
 12 11  2  0  0  0  0
 13 12  1  0  0  0  0
 13 14  2  0  0  0  0
 14 15  1  0  0  0  0
 15 16  2  0  0  0  0
 15 18  1  0  0  0  0
 17 12  1  0  0  0  0
 19 22  1  0  0  0  0
 20 19  1  0  0  0  0
 21 19  1  0  0  0  0
 23 27  1  0  0  0  0
 24 23  2  0  0  0  0
 25 26  1  0  0  0  0
 25 23  1  0  0  0  0
 27 28  1  0  0  0  0
 28 29  1  0  0  0  0
 28 30  2  0  0  0  0
 30 31  1  0  0  0  0
 32 30  1  0  0  0  0
 33 32  2  0  0  0  0
 34 27  2  0  0  0  0
 34 33  1  0  0  0  0
M  END
>  <minimizedAffinity>
-5.83565092

$$$$

 OpenBabel03252502293D

 34 36  0  0  0  0  0  0  0  0999 V2000
   35.5570   28.1120   38.4880 C   0  0  0  0  0  0  0  0  0  0  0  0
   34.7210   28.4180   37.4190 C   0  0  0  0  0  0  0  0  0  0  0  0
   34.2610   27.3900   36.6130 C   0  0  0  0  0  0  0  0  0  0  0  0
   34.6390   26.0970   36.8850 C   0  0  0  0  0  0  0  0  0  0  0  0
   35.4690   25.7660   37.9420 C   0  0  0  0  0  0  0  0  0  0  0  0
   35.9130   26.8240   38.7320 C   0  0  0  0  0  0  0  0  0  0  0  0
   34.4260   29.4290   37.2080 H   0  0  0  0  0  0  0  0  0  0  0  0
   33.6120   27.5350   35.7660 H   0  0  0  0  0  0  0  0  0  0  0  0
   34.2950   25.2560   36.2670 H   0  0  0  0  0  0  0  0  0  0  0  0
   35.7760   24.7730   38.1730 H   0  0  0  0  0  0  0  0  0  0  0  0
   36.9680   31.4050   39.6620 C   0  0  0  0  0  0  0  0  0  0  0  0
   36.5830   30.3790   38.7850 C   0  0  0  0  0  0  0  0  0  0  0  0
   35.9970   29.2400   39.2870 C   0  0  0  0  0  0  0  0  0  0  0  0
   35.8270   29.1870   40.6320 N   0  0  0  0  0  0  0  0  0  0  0  0
   36.1960   30.1710   41.4770 C   0  0  0  0  0  0  0  0  0  0  0  0
   36.7700   31.2890   40.9880 N   0  0  0  0  0  0  0  0  0  0  0  0
   36.7320   30.4510   37.7150 H   0  0  0  0  0  0  0  0  0  0  0  0
   36.0090   30.0170   42.5420 H   0  0  0  0  0  0  0  0  0  0  0  0
   37.5980   32.6340   39.1380 C   0  0  0  0  0  0  0  0  0  0  0  0
   38.0480   32.3560   37.8380 F   0  0  0  0  0  0  0  0  0  0  0  0
   38.7620   32.8320   39.8760 F   0  0  0  0  0  0  0  0  0  0  0  0
   36.7750   33.7160   39.1350 F   0  0  0  0  0  0  0  0  0  0  0  0
   37.0050   25.5370   40.7460 C   0  0  0  0  0  0  0  0  0  0  0  0
   36.4240   24.4360   40.7120 O   0  0  0  0  0  0  0  0  0  0  0  0
   36.7590   26.6220   39.8420 N   0  0  0  0  0  0  0  0  0  0  0  0
   37.2830   27.5470   39.9330 H   0  0  0  0  0  0  0  0  0  0  0  0
   38.0250   25.8210   41.7540 C   0  0  0  0  0  0  0  0  0  0  0  0
   38.9210   24.8260   42.0780 C   0  0  0  0  0  0  0  0  0  0  0  0
   38.8510   23.8650   41.5850 H   0  0  0  0  0  0  0  0  0  0  0  0
   39.9210   24.9900   43.0140 C   0  0  0  0  0  0  0  0  0  0  0  0
   40.5900   24.1560   43.2160 H   0  0  0  0  0  0  0  0  0  0  0  0
   40.0630   26.1910   43.6780 C   0  0  0  0  0  3  0  0  0  0  0  0
   39.1500   27.1610   43.3280 C   0  0  0  0  0  3  0  0  0  0  0  0
   38.1820   26.9810   42.4110 N   0  0  0  0  0  0  0  0  0  0  0  0
  1  6  1  0  0  0  0
  1 13  1  0  0  0  0
  2  1  2  0  0  0  0
  3  4  2  0  0  0  0
  3  2  1  0  0  0  0
  4  5  1  0  0  0  0
  5 10  1  0  0  0  0
  5  6  2  0  0  0  0
  6 25  1  0  0  0  0
  7  2  1  0  0  0  0
  8  3  1  0  0  0  0
  9  4  1  0  0  0  0
 11 16  1  0  0  0  0
 12 13  1  0  0  0  0
 12 11  2  0  0  0  0
 13 14  2  0  0  0  0
 14 15  1  0  0  0  0
 15 18  1  0  0  0  0
 16 15  2  0  0  0  0
 17 12  1  0  0  0  0
 19 11  1  0  0  0  0
 19 21  1  0  0  0  0
 20 19  1  0  0  0  0
 22 19  1  0  0  0  0
 23 27  1  0  0  0  0
 24 23  2  0  0  0  0
 25 26  1  0  0  0  0
 25 23  1  0  0  0  0
 27 28  2  0  0  0  0
 27 34  1  0  0  0  0
 28 30  1  0  0  0  0
 29 28  1  0  0  0  0
 30 31  1  0  0  0  0
 30 32  2  0  0  0  0
 33 32  1  0  0  0  0
 34 33  2  0  0  0  0
M  END
>  <minimizedAffinity>
-5.7250185

$$$$

 OpenBabel03252502293D

 34 36  0  0  0  0  0  0  0  0999 V2000
   35.7410   27.8100   38.2840 C   0  0  0  0  0  0  0  0  0  0  0  0
   34.9690   26.7140   37.9110 C   0  0  0  0  0  0  0  0  0  0  0  0
   34.0050   26.8770   36.9300 C   0  0  0  0  0  0  0  0  0  0  0  0
   33.8340   28.1110   36.3490 C   0  0  0  0  0  0  0  0  0  0  0  0
   34.5890   29.2150   36.7010 C   0  0  0  0  0  0  0  0  0  0  0  0
   35.5490   29.0170   37.6910 C   0  0  0  0  0  0  0  0  0  0  0  0
   35.1040   25.7510   38.3670 H   0  0  0  0  0  0  0  0  0  0  0  0
   33.3640   26.0860   36.5810 H   0  0  0  0  0  0  0  0  0  0  0  0
   33.0790   28.2780   35.5670 H   0  0  0  0  0  0  0  0  0  0  0  0
   34.4760   30.1800   36.2650 H   0  0  0  0  0  0  0  0  0  0  0  0
   37.5740   27.5150   41.5650 C   0  0  0  0  0  0  0  0  0  0  0  0
   36.5390   27.7940   40.6600 C   0  0  0  0  0  0  0  0  0  0  0  0
   36.7290   27.5630   39.3170 C   0  0  0  0  0  0  0  0  0  0  0  0
   37.9380   27.0660   38.9510 N   0  0  0  0  0  0  0  0  0  0  0  0
   38.9350   26.7970   39.8190 C   0  0  0  0  0  0  0  0  0  0  0  0
   38.7510   27.0220   41.1360 N   0  0  0  0  0  0  0  0  0  0  0  0
   35.5840   28.1900   40.9830 H   0  0  0  0  0  0  0  0  0  0  0  0
   39.8650   26.4000   39.4090 H   0  0  0  0  0  0  0  0  0  0  0  0
   37.3850   27.7580   43.0100 C   0  0  0  0  0  0  0  0  0  0  0  0
   38.4800   27.1890   43.6800 F   0  0  0  0  0  0  0  0  0  0  0  0
   36.2940   26.9860   43.4040 F   0  0  0  0  0  0  0  0  0  0  0  0
   37.2570   29.0710   43.3360 F   0  0  0  0  0  0  0  0  0  0  0  0
   37.7250   30.4810   37.8430 C   0  0  0  0  0  0  0  0  0  0  0  0
   38.4910   29.9140   37.0440 O   0  0  0  0  0  0  0  0  0  0  0  0
   36.3870   30.0600   38.1370 N   0  0  0  0  0  0  0  0  0  0  0  0
   35.7840   30.5830   38.8450 H   0  0  0  0  0  0  0  0  0  0  0  0
   38.1490   31.6720   38.5790 C   0  0  0  0  0  0  0  0  0  0  0  0
   37.1800   32.4920   39.1130 C   0  0  0  0  0  0  0  0  0  0  0  0
   36.1350   32.2400   38.9780 H   0  0  0  0  0  0  0  0  0  0  0  0
   37.4710   33.6370   39.8250 C   0  0  0  0  0  0  0  0  0  0  0  0
   36.6500   34.2340   40.2150 H   0  0  0  0  0  0  0  0  0  0  0  0
   38.7830   34.0130   40.0310 C   0  0  0  0  0  3  0  0  0  0  0  0
   39.7240   33.1690   39.4830 C   0  0  0  0  0  3  0  0  0  0  0  0
   39.4170   32.0550   38.7930 N   0  0  0  0  0  0  0  0  0  0  0  0
  1 13  1  0  0  0  0
  2  1  1  0  0  0  0
  2  7  1  0  0  0  0
  3  2  2  0  0  0  0
  4  5  2  0  0  0  0
  4  3  1  0  0  0  0
  5  6  1  0  0  0  0
  6 25  1  0  0  0  0
  6  1  2  0  0  0  0
  8  3  1  0  0  0  0
  9  4  1  0  0  0  0
 10  5  1  0  0  0  0
 11 19  1  0  0  0  0
 12 17  1  0  0  0  0
 12 11  2  0  0  0  0
 13 12  1  0  0  0  0
 14 13  2  0  0  0  0
 14 15  1  0  0  0  0
 15 16  2  0  0  0  0
 16 11  1  0  0  0  0
 18 15  1  0  0  0  0
 19 22  1  0  0  0  0
 19 21  1  0  0  0  0
 19 20  1  0  0  0  0
 23 25  1  0  0  0  0
 23 27  1  0  0  0  0
 24 23  2  0  0  0  0
 25 26  1  0  0  0  0
 27 34  2  0  0  0  0
 27 28  1  0  0  0  0
 28 30  2  0  0  0  0
 29 28  1  0  0  0  0
 30 32  1  0  0  0  0
 30 31  1  0  0  0  0
 33 32  2  0  0  0  0
 34 33  1  0  0  0  0
M  END
>  <minimizedAffinity>
-5.72087049

$$$$

 OpenBabel03252502293D

 34 36  0  0  0  0  0  0  0  0999 V2000
   35.4050   29.1510   38.4090 C   0  0  0  0  0  0  0  0  0  0  0  0
   34.0640   28.7830   38.3340 C   0  0  0  0  0  0  0  0  0  0  0  0
   33.4690   28.6690   37.0890 C   0  0  0  0  0  0  0  0  0  0  0  0
   34.2120   28.9180   35.9590 C   0  0  0  0  0  0  0  0  0  0  0  0
   35.5460   29.2840   36.0060 C   0  0  0  0  0  0  0  0  0  0  0  0
   36.1120   29.3900   37.2740 C   0  0  0  0  0  0  0  0  0  0  0  0
   33.4860   28.5890   39.2180 H   0  0  0  0  0  0  0  0  0  0  0  0
   32.4410   28.3910   36.9380 H   0  0  0  0  0  0  0  0  0  0  0  0
   33.7740   28.8370   34.9550 H   0  0  0  0  0  0  0  0  0  0  0  0
   36.1420   29.4820   35.1470 H   0  0  0  0  0  0  0  0  0  0  0  0
   36.7100   28.4090   41.8660 C   0  0  0  0  0  0  0  0  0  0  0  0
   36.1690   28.1850   40.5920 C   0  0  0  0  0  0  0  0  0  0  0  0
   35.9580   29.2500   39.7460 C   0  0  0  0  0  0  0  0  0  0  0  0
   36.2980   30.4760   40.2170 N   0  0  0  0  0  0  0  0  0  0  0  0
   36.8190   30.6940   41.4420 C   0  0  0  0  0  0  0  0  0  0  0  0
   37.0270   29.6520   42.2720 N   0  0  0  0  0  0  0  0  0  0  0  0
   35.9070   27.1930   40.2440 H   0  0  0  0  0  0  0  0  0  0  0  0
   37.0550   31.7250   41.7120 H   0  0  0  0  0  0  0  0  0  0  0  0
   36.9430   27.2750   42.7850 C   0  0  0  0  0  0  0  0  0  0  0  0
   36.7960   26.0930   42.0420 F   0  0  0  0  0  0  0  0  0  0  0  0
   35.8760   27.2610   43.6800 F   0  0  0  0  0  0  0  0  0  0  0  0
   38.1560   27.3030   43.3980 F   0  0  0  0  0  0  0  0  0  0  0  0
   38.2010   30.9780   37.4110 C   0  0  0  0  0  0  0  0  0  0  0  0
   37.7140   32.0930   37.1470 O   0  0  0  0  0  0  0  0  0  0  0  0
   37.4630   29.7510   37.4600 N   0  0  0  0  0  0  0  0  0  0  0  0
   37.9440   28.8240   37.6790 H   0  0  0  0  0  0  0  0  0  0  0  0
   39.6270   30.8280   37.7030 C   0  0  0  0  0  0  0  0  0  0  0  0
   40.1610   29.5590   37.7270 C   0  0  0  0  0  0  0  0  0  0  0  0
   39.5200   28.7080   37.5310 H   0  0  0  0  0  0  0  0  0  0  0  0
   41.4900   29.3070   37.9900 C   0  0  0  0  0  0  0  0  0  0  0  0
   41.8380   28.2760   37.9910 H   0  0  0  0  0  0  0  0  0  0  0  0
   42.3580   30.3490   38.2480 C   0  0  0  0  0  3  0  0  0  0  0  0
   41.7890   31.6030   38.2160 C   0  0  0  0  0  3  0  0  0  0  0  0
   40.4880   31.8260   37.9550 N   0  0  0  0  0  0  0  0  0  0  0  0
  1 13  1  0  0  0  0
  2  1  1  0  0  0  0
  2  7  1  0  0  0  0
  3  2  2  0  0  0  0
  4  5  2  0  0  0  0
  4  3  1  0  0  0  0
  5  6  1  0  0  0  0
  6 25  1  0  0  0  0
  6  1  2  0  0  0  0
  8  3  1  0  0  0  0
  9  4  1  0  0  0  0
 10  5  1  0  0  0  0
 11 16  1  0  0  0  0
 11 19  1  0  0  0  0
 12 11  2  0  0  0  0
 13 14  2  0  0  0  0
 13 12  1  0  0  0  0
 14 15  1  0  0  0  0
 15 18  1  0  0  0  0
 15 16  2  0  0  0  0
 17 12  1  0  0  0  0
 19 22  1  0  0  0  0
 19 21  1  0  0  0  0
 20 19  1  0  0  0  0
 23 25  1  0  0  0  0
 23 27  1  0  0  0  0
 24 23  2  0  0  0  0
 25 26  1  0  0  0  0
 27 28  2  0  0  0  0
 27 34  1  0  0  0  0
 28 30  1  0  0  0  0
 29 28  1  0  0  0  0
 30 31  1  0  0  0  0
 30 32  2  0  0  0  0
 33 32  1  0  0  0  0
 34 33  2  0  0  0  0
M  END
>  <minimizedAffinity>
-5.66685915

$$$$

 OpenBabel03252502293D

 34 36  0  0  0  0  0  0  0  0999 V2000
   37.5780   31.8440   40.0300 C   0  0  0  0  0  0  0  0  0  0  0  0
   37.3120   33.1260   39.5610 C   0  0  0  0  0  0  0  0  0  0  0  0
   38.1640   34.1600   39.9160 C   0  0  0  0  0  0  0  0  0  0  0  0
   39.2470   33.8970   40.7190 C   0  0  0  0  0  0  0  0  0  0  0  0
   39.5340   32.6300   41.1980 C   0  0  0  0  0  0  0  0  0  0  0  0
   38.6570   31.6150   40.8230 C   0  0  0  0  0  0  0  0  0  0  0  0
   36.4640   33.3300   38.9330 H   0  0  0  0  0  0  0  0  0  0  0  0
   38.0340   35.1800   39.5990 H   0  0  0  0  0  0  0  0  0  0  0  0
   39.9440   34.6900   41.0220 H   0  0  0  0  0  0  0  0  0  0  0  0
   40.3660   32.4010   41.8220 H   0  0  0  0  0  0  0  0  0  0  0  0
   35.5210   29.3880   38.0430 C   0  0  0  0  0  0  0  0  0  0  0  0
   36.4590   30.3940   38.3190 C   0  0  0  0  0  0  0  0  0  0  0  0
   36.6430   30.8150   39.6160 C   0  0  0  0  0  0  0  0  0  0  0  0
   35.8840   30.2100   40.5650 N   0  0  0  0  0  0  0  0  0  0  0  0
   34.9820   29.2420   40.3020 C   0  0  0  0  0  0  0  0  0  0  0  0
   34.7990   28.8280   39.0320 N   0  0  0  0  0  0  0  0  0  0  0  0
   37.0500   30.8590   37.5400 H   0  0  0  0  0  0  0  0  0  0  0  0
   34.4280   28.8280   41.1470 H   0  0  0  0  0  0  0  0  0  0  0  0
   35.3120   28.9260   36.6550 C   0  0  0  0  0  0  0  0  0  0  0  0
   33.9340   28.9870   36.3940 F   0  0  0  0  0  0  0  0  0  0  0  0
   35.6120   27.5660   36.6390 F   0  0  0  0  0  0  0  0  0  0  0  0
   36.0040   29.6380   35.7270 F   0  0  0  0  0  0  0  0  0  0  0  0
   39.6400   29.1790   40.7930 C   0  0  0  0  0  0  0  0  0  0  0  0
   40.4110   29.2080   39.8160 O   0  0  0  0  0  0  0  0  0  0  0  0
   38.8400   30.2800   41.2390 N   0  0  0  0  0  0  0  0  0  0  0  0
   38.1870   30.1860   42.0790 H   0  0  0  0  0  0  0  0  0  0  0  0
   39.4840   27.9650   41.5950 C   0  0  0  0  0  0  0  0  0  0  0  0
   40.0820   27.9170   42.8340 C   0  0  0  0  0  0  0  0  0  0  0  0
   40.6500   28.7700   43.1850 H   0  0  0  0  0  0  0  0  0  0  0  0
   39.9960   26.8230   43.6690 C   0  0  0  0  0  0  0  0  0  0  0  0
   40.4970   26.8600   44.6340 H   0  0  0  0  0  0  0  0  0  0  0  0
   39.2880   25.7040   43.2800 C   0  0  0  0  0  3  0  0  0  0  0  0
   38.7040   25.7890   42.0350 C   0  0  0  0  0  3  0  0  0  0  0  0
   38.7990   26.8680   41.2360 N   0  0  0  0  0  0  0  0  0  0  0  0
  1  6  1  0  0  0  0
  2  3  1  0  0  0  0
  2  1  2  0  0  0  0
  3  4  2  0  0  0  0
  4  9  1  0  0  0  0
  4  5  1  0  0  0  0
  5 10  1  0  0  0  0
  6  5  2  0  0  0  0
  6 25  1  0  0  0  0
  7  2  1  0  0  0  0
  8  3  1  0  0  0  0
 11 12  2  0  0  0  0
 11 16  1  0  0  0  0
 12 13  1  0  0  0  0
 13  1  1  0  0  0  0
 13 14  2  0  0  0  0
 15 14  1  0  0  0  0
 15 18  1  0  0  0  0
 16 15  2  0  0  0  0
 17 12  1  0  0  0  0
 19 11  1  0  0  0  0
 20 19  1  0  0  0  0
 21 19  1  0  0  0  0
 22 19  1  0  0  0  0
 23 25  1  0  0  0  0
 23 27  1  0  0  0  0
 24 23  2  0  0  0  0
 25 26  1  0  0  0  0
 27 28  1  0  0  0  0
 28 29  1  0  0  0  0
 28 30  2  0  0  0  0
 30 31  1  0  0  0  0
 32 30  1  0  0  0  0
 33 32  2  0  0  0  0
 34 27  2  0  0  0  0
 34 33  1  0  0  0  0
M  END
>  <minimizedAffinity>
-5.65335846

$$$$

 OpenBabel03252502293D

 34 36  0  0  0  0  0  0  0  0999 V2000
   37.8640   31.0480   39.6620 C   0  0  0  0  0  0  0  0  0  0  0  0
   37.6410   32.3060   39.1080 C   0  0  0  0  0  0  0  0  0  0  0  0
   38.1970   33.4160   39.7220 C   0  0  0  0  0  0  0  0  0  0  0  0
   38.9530   33.2530   40.8580 C   0  0  0  0  0  0  0  0  0  0  0  0
   39.1900   32.0140   41.4280 C   0  0  0  0  0  0  0  0  0  0  0  0
   38.6160   30.9190   40.7850 C   0  0  0  0  0  0  0  0  0  0  0  0
   37.0500   32.4310   38.2200 H   0  0  0  0  0  0  0  0  0  0  0  0
   38.0760   34.4240   39.3640 H   0  0  0  0  0  0  0  0  0  0  0  0
   39.4090   34.1090   41.3730 H   0  0  0  0  0  0  0  0  0  0  0  0
   39.7720   31.8610   42.3060 H   0  0  0  0  0  0  0  0  0  0  0  0
   35.4320   28.6940   38.0030 C   0  0  0  0  0  0  0  0  0  0  0  0
   35.9070   29.8230   38.6860 C   0  0  0  0  0  0  0  0  0  0  0  0
   37.2510   29.9350   38.9640 C   0  0  0  0  0  0  0  0  0  0  0  0
   38.0440   28.9170   38.5450 N   0  0  0  0  0  0  0  0  0  0  0  0
   37.5890   27.8300   37.8880 C   0  0  0  0  0  0  0  0  0  0  0  0
   36.2740   27.7180   37.6140 N   0  0  0  0  0  0  0  0  0  0  0  0
   35.2480   30.6200   39.0080 H   0  0  0  0  0  0  0  0  0  0  0  0
   38.3220   27.0740   37.6000 H   0  0  0  0  0  0  0  0  0  0  0  0
   33.9930   28.5600   37.6980 C   0  0  0  0  0  0  0  0  0  0  0  0
   33.2810   28.9360   38.8480 F   0  0  0  0  0  0  0  0  0  0  0  0
   33.7390   27.1970   37.5600 F   0  0  0  0  0  0  0  0  0  0  0  0
   33.5860   29.2910   36.6270 F   0  0  0  0  0  0  0  0  0  0  0  0
   38.2200   28.8290   42.3270 C   0  0  0  0  0  0  0  0  0  0  0  0
   37.3750   29.2460   43.1400 O   0  0  0  0  0  0  0  0  0  0  0  0
   38.7850   29.6020   41.2610 N   0  0  0  0  0  0  0  0  0  0  0  0
   39.5180   29.1880   40.6050 H   0  0  0  0  0  0  0  0  0  0  0  0
   38.7260   27.4580   42.4010 C   0  0  0  0  0  0  0  0  0  0  0  0
   39.4540   27.0880   43.5100 C   0  0  0  0  0  0  0  0  0  0  0  0
   39.6360   27.8120   44.2940 H   0  0  0  0  0  0  0  0  0  0  0  0
   39.9750   25.8220   43.6800 C   0  0  0  0  0  0  0  0  0  0  0  0
   40.5410   25.6060   44.5830 H   0  0  0  0  0  0  0  0  0  0  0  0
   39.7800   24.8540   42.7160 C   0  0  0  0  0  3  0  0  0  0  0  0
   39.0460   25.2610   41.6220 C   0  0  0  0  0  3  0  0  0  0  0  0
   38.5460   26.5020   41.4780 N   0  0  0  0  0  0  0  0  0  0  0  0
  1  6  1  0  0  0  0
  2  1  2  0  0  0  0
  2  3  1  0  0  0  0
  3  4  2  0  0  0  0
  4  9  1  0  0  0  0
  4  5  1  0  0  0  0
  5 10  1  0  0  0  0
  6 25  1  0  0  0  0
  6  5  2  0  0  0  0
  7  2  1  0  0  0  0
  8  3  1  0  0  0  0
 11 12  1  0  0  0  0
 12 13  2  0  0  0  0
 12 17  1  0  0  0  0
 13  1  1  0  0  0  0
 14 13  1  0  0  0  0
 15 14  2  0  0  0  0
 16 15  1  0  0  0  0
 16 11  2  0  0  0  0
 18 15  1  0  0  0  0
 19 11  1  0  0  0  0
 19 20  1  0  0  0  0
 21 19  1  0  0  0  0
 22 19  1  0  0  0  0
 23 27  1  0  0  0  0
 23 24  2  0  0  0  0
 25 23  1  0  0  0  0
 26 25  1  0  0  0  0
 27 28  1  0  0  0  0
 28 30  2  0  0  0  0
 28 29  1  0  0  0  0
 30 31  1  0  0  0  0
 32 30  1  0  0  0  0
 33 32  2  0  0  0  0
 34 33  1  0  0  0  0
 34 27  2  0  0  0  0
M  END
>  <minimizedAffinity>
-5.65107632

$$$$

 OpenBabel03252502293D

 34 36  0  0  0  0  0  0  0  0999 V2000
   37.8040   30.9740   39.4580 C   0  0  0  0  0  0  0  0  0  0  0  0
   37.7810   32.2990   39.0310 C   0  0  0  0  0  0  0  0  0  0  0  0
   38.4140   33.2620   39.8010 C   0  0  0  0  0  0  0  0  0  0  0  0
   39.0470   32.8890   40.9620 C   0  0  0  0  0  0  0  0  0  0  0  0
   39.0860   31.5800   41.4070 C   0  0  0  0  0  0  0  0  0  0  0  0
   38.4400   30.6380   40.6100 C   0  0  0  0  0  0  0  0  0  0  0  0
   37.2850   32.5880   38.1230 H   0  0  0  0  0  0  0  0  0  0  0  0
   38.4450   34.3070   39.5470 H   0  0  0  0  0  0  0  0  0  0  0  0
   39.5600   33.6250   41.5980 H   0  0  0  0  0  0  0  0  0  0  0  0
   39.5700   31.2660   42.3020 H   0  0  0  0  0  0  0  0  0  0  0  0
   35.2120   28.9140   37.6560 C   0  0  0  0  0  0  0  0  0  0  0  0
   35.7560   29.8710   38.5260 C   0  0  0  0  0  0  0  0  0  0  0  0
   37.1220   30.0240   38.6000 C   0  0  0  0  0  0  0  0  0  0  0  0
   37.8680   29.2170   37.8050 N   0  0  0  0  0  0  0  0  0  0  0  0
   37.3470   28.2960   36.9680 C   0  0  0  0  0  0  0  0  0  0  0  0
   36.0100   28.1430   36.8930 N   0  0  0  0  0  0  0  0  0  0  0  0
   35.1340   30.5010   39.1490 H   0  0  0  0  0  0  0  0  0  0  0  0
   38.0470   27.7030   36.3760 H   0  0  0  0  0  0  0  0  0  0  0  0
   33.7480   28.7380   37.5650 C   0  0  0  0  0  0  0  0  0  0  0  0
   33.2060   29.0580   38.8200 F   0  0  0  0  0  0  0  0  0  0  0  0
   33.5190   27.3720   37.4230 F   0  0  0  0  0  0  0  0  0  0  0  0
   33.1640   29.4830   36.5900 F   0  0  0  0  0  0  0  0  0  0  0  0
   37.9530   28.5140   42.0790 C   0  0  0  0  0  0  0  0  0  0  0  0
   37.4470   29.0030   43.1060 O   0  0  0  0  0  0  0  0  0  0  0  0
   38.4090   29.2690   40.9490 N   0  0  0  0  0  0  0  0  0  0  0  0
   38.8470   28.7890   40.1030 H   0  0  0  0  0  0  0  0  0  0  0  0
   38.1310   27.0690   41.9410 C   0  0  0  0  0  0  0  0  0  0  0  0
   37.0730   26.2450   42.2570 C   0  0  0  0  0  0  0  0  0  0  0  0
   36.1430   26.6810   42.5980 H   0  0  0  0  0  0  0  0  0  0  0  0
   37.1350   24.8710   42.1610 C   0  0  0  0  0  0  0  0  0  0  0  0
   36.2570   24.2880   42.4300 H   0  0  0  0  0  0  0  0  0  0  0  0
   38.2930   24.2540   41.7340 C   0  0  0  0  0  3  0  0  0  0  0  0
   39.3290   25.1100   41.4260 C   0  0  0  0  0  3  0  0  0  0  0  0
   39.2460   26.4490   41.5250 N   0  0  0  0  0  0  0  0  0  0  0  0
  1  6  1  0  0  0  0
  2  1  2  0  0  0  0
  2  3  1  0  0  0  0
  3  4  2  0  0  0  0
  4  5  1  0  0  0  0
  4  9  1  0  0  0  0
  5 10  1  0  0  0  0
  6 25  1  0  0  0  0
  6  5  2  0  0  0  0
  7  2  1  0  0  0  0
  8  3  1  0  0  0  0
 11 12  1  0  0  0  0
 12 13  2  0  0  0  0
 12 17  1  0  0  0  0
 13  1  1  0  0  0  0
 14 13  1  0  0  0  0
 15 14  2  0  0  0  0
 16 15  1  0  0  0  0
 16 11  2  0  0  0  0
 18 15  1  0  0  0  0
 19 11  1  0  0  0  0
 19 20  1  0  0  0  0
 21 19  1  0  0  0  0
 22 19  1  0  0  0  0
 23 24  2  0  0  0  0
 25 23  1  0  0  0  0
 26 25  1  0  0  0  0
 27 23  1  0  0  0  0
 27 28  1  0  0  0  0
 28 29  1  0  0  0  0
 30 28  2  0  0  0  0
 30 31  1  0  0  0  0
 32 30  1  0  0  0  0
 33 34  1  0  0  0  0
 33 32  2  0  0  0  0
 34 27  2  0  0  0  0
M  END
>  <minimizedAffinity>
-5.6380558

$$$$

 OpenBabel03252502293D

 34 36  0  0  0  0  0  0  0  0999 V2000
   39.4260   29.7980   41.7440 C   0  0  0  0  0  0  0  0  0  0  0  0
   40.5150   30.0950   42.5570 C   0  0  0  0  0  0  0  0  0  0  0  0
   41.2640   31.2290   42.2850 C   0  0  0  0  0  0  0  0  0  0  0  0
   40.9170   32.0300   41.2250 C   0  0  0  0  0  0  0  0  0  0  0  0
   39.8380   31.7570   40.4020 C   0  0  0  0  0  0  0  0  0  0  0  0
   39.1070   30.6100   40.7030 C   0  0  0  0  0  0  0  0  0  0  0  0
   40.7850   29.4670   43.3860 H   0  0  0  0  0  0  0  0  0  0  0  0
   42.1210   31.5340   42.8610 H   0  0  0  0  0  0  0  0  0  0  0  0
   41.4870   32.9370   40.9790 H   0  0  0  0  0  0  0  0  0  0  0  0
   39.5490   32.3620   39.5750 H   0  0  0  0  0  0  0  0  0  0  0  0
   38.4040   26.2390   42.4530 C   0  0  0  0  0  0  0  0  0  0  0  0
   39.2180   27.3260   42.1000 C   0  0  0  0  0  0  0  0  0  0  0  0
   38.6900   28.5970   42.0900 C   0  0  0  0  0  0  0  0  0  0  0  0
   37.3830   28.7140   42.4320 N   0  0  0  0  0  0  0  0  0  0  0  0
   36.5970   27.6710   42.7710 C   0  0  0  0  0  0  0  0  0  0  0  0
   37.1120   26.4250   42.7830 N   0  0  0  0  0  0  0  0  0  0  0  0
   40.2600   27.2000   41.8320 H   0  0  0  0  0  0  0  0  0  0  0  0
   35.5580   27.8870   43.0280 H   0  0  0  0  0  0  0  0  0  0  0  0
   38.9560   24.8690   42.4690 C   0  0  0  0  0  0  0  0  0  0  0  0
   37.8750   23.9800   42.5750 F   0  0  0  0  0  0  0  0  0  0  0  0
   39.6430   24.7310   43.6730 F   0  0  0  0  0  0  0  0  0  0  0  0
   39.7150   24.5690   41.3830 F   0  0  0  0  0  0  0  0  0  0  0  0
   37.7630   29.8320   38.5830 C   0  0  0  0  0  0  0  0  0  0  0  0
   38.6460   29.7730   37.7080 O   0  0  0  0  0  0  0  0  0  0  0  0
   37.9830   30.2220   39.9450 N   0  0  0  0  0  0  0  0  0  0  0  0
   37.1790   30.2650   40.6450 H   0  0  0  0  0  0  0  0  0  0  0  0
   36.3730   29.4960   38.2770 C   0  0  0  0  0  0  0  0  0  0  0  0
   35.4910   29.3380   39.3230 C   0  0  0  0  0  0  0  0  0  0  0  0
   35.8430   29.4650   40.3390 H   0  0  0  0  0  0  0  0  0  0  0  0
   34.1610   29.0220   39.1440 C   0  0  0  0  0  0  0  0  0  0  0  0
   33.5260   28.9140   40.0210 H   0  0  0  0  0  0  0  0  0  0  0  0
   33.6520   28.8470   37.8740 C   0  0  0  0  0  3  0  0  0  0  0  0
   34.5630   29.0130   36.8530 C   0  0  0  0  0  3  0  0  0  0  0  0
   35.8570   29.3220   37.0500 N   0  0  0  0  0  0  0  0  0  0  0  0
  1 13  1  0  0  0  0
  1  2  1  0  0  0  0
  2  7  1  0  0  0  0
  3  2  2  0  0  0  0
  3  8  1  0  0  0  0
  4  3  1  0  0  0  0
  5  6  1  0  0  0  0
  5  4  2  0  0  0  0
  6  1  2  0  0  0  0
  9  4  1  0  0  0  0
 10  5  1  0  0  0  0
 11 19  1  0  0  0  0
 11 16  1  0  0  0  0
 12 11  2  0  0  0  0
 13 12  1  0  0  0  0
 13 14  2  0  0  0  0
 14 15  1  0  0  0  0
 15 16  2  0  0  0  0
 15 18  1  0  0  0  0
 17 12  1  0  0  0  0
 19 20  1  0  0  0  0
 19 21  1  0  0  0  0
 22 19  1  0  0  0  0
 23 25  1  0  0  0  0
 24 23  2  0  0  0  0
 25 26  1  0  0  0  0
 25  6  1  0  0  0  0
 27 23  1  0  0  0  0
 27 28  1  0  0  0  0
 28 29  1  0  0  0  0
 30 28  2  0  0  0  0
 30 31  1  0  0  0  0
 32 30  1  0  0  0  0
 33 34  1  0  0  0  0
 33 32  2  0  0  0  0
 34 27  2  0  0  0  0
M  END
>  <minimizedAffinity>
-5.52288389

$$$$
