
 OpenBabel03252507593D

 28 30  0  0  1  0  0  0  0  0999 V2000
   46.3420   34.7880   43.1770 C   0  0  0  0  0  0  0  0  0  0  0  0
   45.3840   35.8160   43.4280 C   0  0  0  0  0  0  0  0  0  0  0  0
   44.6520   35.6940   44.6080 C   0  0  0  0  0  0  0  0  0  0  0  0
   44.8870   34.6370   45.4210 N   0  0  0  0  0  0  0  0  0  0  0  0
   45.8280   33.6820   45.1140 C   0  0  0  0  0  0  0  0  0  0  0  0
   46.5510   33.7450   44.0120 N   0  0  0  0  0  0  0  0  0  0  0  0
   45.2640   36.6250   42.7220 H   0  0  0  0  0  0  0  0  0  0  0  0
   43.9160   36.4450   44.8410 H   0  0  0  0  0  0  0  0  0  0  0  0
   46.0390   32.5580   46.0730 C   0  0  1  0  0  0  0  0  0  0  0  0
   46.8110   32.8180   47.3470 C   0  0  0  0  0  0  0  0  0  0  0  0
   45.3120   32.6960   47.3510 C   0  0  1  0  0  0  0  0  0  0  0  0
   46.1310   31.5520   45.6260 H   0  0  0  0  0  0  0  0  0  0  0  0
   47.3180   33.7760   47.4810 H   0  0  0  0  0  0  0  0  0  0  0  0
   47.3210   31.9320   47.7730 H   0  0  0  0  0  0  0  0  0  0  0  0
   44.8380   31.8400   47.8510 H   0  0  0  0  0  0  0  0  0  0  0  0
   44.6780   33.9800   47.6830 N   0  0  0  0  0  0  0  0  0  0  0  0
   45.1640   34.3940   48.4970 H   0  0  0  0  0  0  0  0  0  0  0  0
   43.6460   33.8730   47.7880 H   0  0  0  0  0  0  0  0  0  0  0  0
   47.1000   34.9440   41.9520 C   0  0  0  0  0  0  0  0  0  0  0  0
   48.1510   35.6750   41.8700 O   0  0  0  0  0  0  0  0  0  0  0  0
   46.6830   34.2570   40.7300 C   0  0  0  0  0  0  0  0  0  0  0  0
   45.3770   33.8360   40.5880 C   0  0  0  0  0  0  0  0  0  0  0  0
   44.6460   34.0090   41.3780 H   0  0  0  0  0  0  0  0  0  0  0  0
   44.8880   33.1820   39.4790 C   0  0  0  0  0  0  0  0  0  0  0  0
   43.8630   32.8620   39.3910 H   0  0  0  0  0  0  0  0  0  0  0  0
   45.8190   32.9580   38.4650 C   0  0  0  0  0  3  0  0  0  0  0  0
   47.1190   33.3900   38.6300 C   0  0  0  0  0  3  0  0  0  0  0  0
   47.5590   34.0310   39.7390 N   0  0  0  0  0  0  0  0  0  0  0  0
  1  2  2  0  0  0  0
  1  6  1  0  0  0  0
  2  3  1  0  0  0  0
  3  8  1  0  0  0  0
  3  4  2  0  0  0  0
  5  4  1  0  0  0  0
  5  9  1  0  0  0  0
  6  5  2  0  0  0  0
  7  2  1  0  0  0  0
  9 12  1  6  0  0  0
  9 10  1  0  0  0  0
  9 11  1  0  0  0  0
 10 11  1  0  0  0  0
 10 13  1  0  0  0  0
 10 14  1  0  0  0  0
 11 16  1  0  0  0  0
 11 15  1  1  0  0  0
 16 18  1  0  0  0  0
 16 17  1  0  0  0  0
 19  1  1  0  0  0  0
 20 19  2  0  0  0  0
 21 19  1  0  0  0  0
 22 21  1  0  0  0  0
 22 23  1  0  0  0  0
 24 22  2  0  0  0  0
 25 24  1  0  0  0  0
 26 27  2  0  0  0  0
 26 24  1  0  0  0  0
 27 28  1  0  0  0  0
 28 21  2  0  0  0  0
M  END
>  <minimizedAffinity>
-5.53822565

>  <minimizedRMSD>
0.545646548

$$$$
