
 OpenBabel03252504013D

 33 36  0  0  1  0  0  0  0  0999 V2000
   33.7440   28.7570   36.6320 C   0  0  0  0  0  0  0  0  0  0  0  0
   34.5520   29.1060   35.5670 C   0  0  0  0  0  0  0  0  0  0  0  0
   35.9210   29.1420   35.7910 C   0  0  0  0  0  0  0  0  0  0  0  0
   36.3990   28.8370   37.0250 N   0  0  0  0  0  0  0  0  0  0  0  0
   35.5760   28.5010   38.0350 C   0  0  0  0  0  0  0  0  0  0  0  0
   34.2450   28.4580   37.8490 N   0  0  0  0  0  0  0  0  0  0  0  0
   34.2460   29.3570   34.5730 H   0  0  0  0  0  0  0  0  0  0  0  0
   36.6150   29.4090   35.0000 H   0  0  0  0  0  0  0  0  0  0  0  0
   36.4560   26.8470   39.6160 C   0  0  0  0  0  0  0  0  0  0  0  0
   36.0880   28.1700   39.3680 C   0  0  0  0  0  0  0  0  0  0  0  0
   36.2140   29.1290   40.3680 C   0  0  0  0  0  0  0  0  0  0  0  0
   36.7080   28.7300   41.5910 C   0  0  0  0  0  0  0  0  0  0  0  0
   36.9480   29.3900   42.7300 N   0  0  0  0  0  0  0  0  0  0  0  0
   37.4390   28.5900   43.6790 C   0  0  0  0  0  0  0  0  0  0  0  0
   37.5360   27.3290   43.1570 C   0  0  0  0  0  0  0  0  0  0  0  0
   37.0800   27.4140   41.8510 C   0  0  0  0  0  0  0  0  0  0  0  0
   36.9460   26.4710   40.8420 C   0  0  0  0  0  0  0  0  0  0  0  0
   36.3420   26.1290   38.8070 H   0  0  0  0  0  0  0  0  0  0  0  0
   35.9310   30.1470   40.1790 H   0  0  0  0  0  0  0  0  0  0  0  0
   36.7600   30.4190   42.8290 H   0  0  0  0  0  0  0  0  0  0  0  0
   37.7290   28.8180   44.6890 H   0  0  0  0  0  0  0  0  0  0  0  0
   37.8800   26.3740   43.5720 H   0  0  0  0  0  0  0  0  0  0  0  0
   37.2160   25.4340   40.9810 H   0  0  0  0  0  0  0  0  0  0  0  0
   32.3130   28.7260   36.3670 C   0  0  2  0  0  3  0  0  0  0  0  0
   31.7020   27.7040   35.8790 O   0  0  0  0  0  1  0  0  0  0  0  0
   31.4700   29.8870   36.6490 C   0  0  0  0  0  0  0  0  0  0  0  0
   31.3190   30.8810   35.7320 C   0  0  0  0  0  0  0  0  0  0  0  0
   31.8200   30.8190   34.7900 H   0  0  0  0  0  0  0  0  0  0  0  0
   30.5190   31.9710   36.0160 C   0  0  0  0  0  0  0  0  0  0  0  0
   30.3970   32.7680   35.2820 H   0  0  0  0  0  0  0  0  0  0  0  0
   29.8520   32.0930   37.2200 C   0  0  0  0  0  3  0  0  0  0  0  0
   30.0610   31.0450   38.0870 C   0  0  0  0  0  3  0  0  0  0  0  0
   30.8360   29.9520   37.8570 N   0  0  0  0  0  0  0  0  0  0  0  0
  1  6  1  0  0  0  0
  2  3  1  0  0  0  0
  2  1  2  0  0  0  0
  3  4  2  0  0  0  0
  4  5  1  0  0  0  0
  5 10  1  0  0  0  0
  6  5  2  0  0  0  0
  7  2  1  0  0  0  0
  8  3  1  0  0  0  0
  9 17  1  0  0  0  0
 10  9  2  0  0  0  0
 10 11  1  0  0  0  0
 11 12  2  0  0  0  0
 12 16  1  0  0  0  0
 12 13  1  0  0  0  0
 13 20  1  0  0  0  0
 13 14  1  0  0  0  0
 14 21  1  0  0  0  0
 15 22  1  0  0  0  0
 15 14  2  0  0  0  0
 16 15  1  0  0  0  0
 17 23  1  0  0  0  0
 17 16  2  0  0  0  0
 18  9  1  0  0  0  0
 19 11  1  0  0  0  0
 24 25  1  6  0  0  0
 24  1  1  0  0  0  0
 24 26  1  0  0  0  0
 26 33  1  0  0  0  0
 27 29  1  0  0  0  0
 27 26  2  0  0  0  0
 28 27  1  0  0  0  0
 29 31  2  0  0  0  0
 30 29  1  0  0  0  0
 31 32  1  0  0  0  0
 33 32  2  0  0  0  0
M  END
>  <minimizedAffinity>
-6.09080744

$$$$

 OpenBabel03252504013D

 33 36  0  0  1  0  0  0  0  0999 V2000
   36.8860   28.7030   41.5820 C   0  0  0  0  0  0  0  0  0  0  0  0
   35.6440   28.7220   40.9770 C   0  0  0  0  0  0  0  0  0  0  0  0
   35.4360   29.6630   39.9780 C   0  0  0  0  0  0  0  0  0  0  0  0
   36.4450   30.5080   39.6440 N   0  0  0  0  0  0  0  0  0  0  0  0
   37.6410   30.4550   40.2590 C   0  0  0  0  0  0  0  0  0  0  0  0
   37.8720   29.5550   41.2300 N   0  0  0  0  0  0  0  0  0  0  0  0
   34.8080   28.0890   41.1890 H   0  0  0  0  0  0  0  0  0  0  0  0
   34.4850   29.7350   39.4610 H   0  0  0  0  0  0  0  0  0  0  0  0
   39.3250   32.1080   40.9220 C   0  0  0  0  0  0  0  0  0  0  0  0
   38.7330   31.3650   39.9000 C   0  0  0  0  0  0  0  0  0  0  0  0
   39.1810   31.4970   38.5900 C   0  0  0  0  0  0  0  0  0  0  0  0
   40.2160   32.3740   38.3440 C   0  0  0  0  0  0  0  0  0  0  0  0
   40.8630   32.7200   37.2250 N   0  0  0  0  0  0  0  0  0  0  0  0
   41.8180   33.6230   37.4570 C   0  0  0  0  0  0  0  0  0  0  0  0
   41.8170   33.9010   38.7970 C   0  0  0  0  0  0  0  0  0  0  0  0
   40.8160   33.1200   39.3540 C   0  0  0  0  0  0  0  0  0  0  0  0
   40.3550   32.9760   40.6540 C   0  0  0  0  0  0  0  0  0  0  0  0
   38.9450   31.9750   41.9320 H   0  0  0  0  0  0  0  0  0  0  0  0
   38.7260   30.9270   37.8030 H   0  0  0  0  0  0  0  0  0  0  0  0
   40.6200   32.3080   36.2890 H   0  0  0  0  0  0  0  0  0  0  0  0
   42.5020   34.0930   36.7730 H   0  0  0  0  0  0  0  0  0  0  0  0
   42.4210   34.5710   39.4200 H   0  0  0  0  0  0  0  0  0  0  0  0
   40.7780   33.5270   41.4830 H   0  0  0  0  0  0  0  0  0  0  0  0
   37.0760   27.7040   42.6240 C   0  0  2  0  0  3  0  0  0  0  0  0
   36.2430   27.5130   43.5860 O   0  0  0  0  0  1  0  0  0  0  0  0
   38.2570   26.8420   42.6340 C   0  0  0  0  0  0  0  0  0  0  0  0
   39.1360   26.8720   43.6730 C   0  0  0  0  0  0  0  0  0  0  0  0
   38.9680   27.5320   44.4960 H   0  0  0  0  0  0  0  0  0  0  0  0
   40.2470   26.0500   43.6650 C   0  0  0  0  0  0  0  0  0  0  0  0
   40.9510   26.0730   44.4970 H   0  0  0  0  0  0  0  0  0  0  0  0
   40.5040   25.1810   42.6220 C   0  0  0  0  0  3  0  0  0  0  0  0
   39.5660   25.2160   41.6160 C   0  0  0  0  0  3  0  0  0  0  0  0
   38.4590   26.0030   41.5750 N   0  0  0  0  0  0  0  0  0  0  0  0
  1 24  1  0  0  0  0
  2  7  1  0  0  0  0
  2  1  2  0  0  0  0
  3  2  1  0  0  0  0
  4  3  2  0  0  0  0
  4  5  1  0  0  0  0
  5  6  2  0  0  0  0
  6  1  1  0  0  0  0
  8  3  1  0  0  0  0
  9 18  1  0  0  0  0
 10  5  1  0  0  0  0
 10  9  2  0  0  0  0
 11 10  1  0  0  0  0
 12 11  2  0  0  0  0
 12 16  1  0  0  0  0
 13 14  1  0  0  0  0
 13 12  1  0  0  0  0
 14 15  2  0  0  0  0
 15 16  1  0  0  0  0
 15 22  1  0  0  0  0
 16 17  2  0  0  0  0
 17  9  1  0  0  0  0
 17 23  1  0  0  0  0
 19 11  1  0  0  0  0
 20 13  1  0  0  0  0
 21 14  1  0  0  0  0
 24 26  1  0  0  0  0
 24 25  1  1  0  0  0
 26 27  1  0  0  0  0
 27 28  1  0  0  0  0
 29 27  2  0  0  0  0
 29 30  1  0  0  0  0
 31 29  1  0  0  0  0
 32 31  2  0  0  0  0
 33 32  1  0  0  0  0
 33 26  2  0  0  0  0
M  END
>  <minimizedAffinity>
-6.06165552

$$$$

 OpenBabel03252504013D

 33 36  0  0  1  0  0  0  0  0999 V2000
   38.8240   31.4530   41.0430 C   0  0  0  0  0  0  0  0  0  0  0  0
   38.8320   32.8350   41.0550 C   0  0  0  0  0  0  0  0  0  0  0  0
   38.1690   33.4840   40.0220 C   0  0  0  0  0  0  0  0  0  0  0  0
   37.5530   32.7460   39.0630 N   0  0  0  0  0  0  0  0  0  0  0  0
   37.5710   31.4000   39.0900 C   0  0  0  0  0  0  0  0  0  0  0  0
   38.2040   30.7440   40.0770 N   0  0  0  0  0  0  0  0  0  0  0  0
   39.2930   33.4770   41.7750 H   0  0  0  0  0  0  0  0  0  0  0  0
   38.1350   34.5670   39.9670 H   0  0  0  0  0  0  0  0  0  0  0  0
   35.8230   29.8100   38.4410 C   0  0  0  0  0  0  0  0  0  0  0  0
   36.9060   30.6000   38.0570 C   0  0  0  0  0  0  0  0  0  0  0  0
   37.3240   30.6160   36.7310 C   0  0  0  0  0  0  0  0  0  0  0  0
   36.6390   29.8350   35.8250 C   0  0  0  0  0  0  0  0  0  0  0  0
   36.7850   29.6350   34.5100 N   0  0  0  0  0  0  0  0  0  0  0  0
   35.8790   28.7800   34.0300 C   0  0  0  0  0  0  0  0  0  0  0  0
   35.0830   28.3840   35.0700 C   0  0  0  0  0  0  0  0  0  0  0  0
   35.5570   29.0430   36.1940 C   0  0  0  0  0  0  0  0  0  0  0  0
   35.1540   29.0390   37.5220 C   0  0  0  0  0  0  0  0  0  0  0  0
   35.5280   29.8260   39.4880 H   0  0  0  0  0  0  0  0  0  0  0  0
   38.1590   31.2240   36.4350 H   0  0  0  0  0  0  0  0  0  0  0  0
   37.5360   30.1130   33.9520 H   0  0  0  0  0  0  0  0  0  0  0  0
   35.7360   28.4200   33.0280 H   0  0  0  0  0  0  0  0  0  0  0  0
   34.2270   27.7010   35.1370 H   0  0  0  0  0  0  0  0  0  0  0  0
   34.3220   28.4450   37.8720 H   0  0  0  0  0  0  0  0  0  0  0  0
   39.5250   30.8000   42.1400 C   0  0  2  0  0  3  0  0  0  0  0  0
   40.4850   31.3490   42.7980 O   0  0  0  0  0  1  0  0  0  0  0  0
   39.1650   29.4480   42.5630 C   0  0  0  0  0  0  0  0  0  0  0  0
   38.0360   29.2190   43.2880 C   0  0  0  0  0  0  0  0  0  0  0  0
   37.3980   30.0340   43.5540 H   0  0  0  0  0  0  0  0  0  0  0  0
   37.7120   27.9340   43.6800 C   0  0  0  0  0  0  0  0  0  0  0  0
   36.8070   27.7490   44.2590 H   0  0  0  0  0  0  0  0  0  0  0  0
   38.5060   26.8500   43.3570 C   0  0  0  0  0  3  0  0  0  0  0  0
   39.6260   27.1720   42.6250 C   0  0  0  0  0  3  0  0  0  0  0  0
   39.9900   28.4160   42.2150 N   0  0  0  0  0  0  0  0  0  0  0  0
  1  2  1  0  0  0  0
  1 24  1  0  0  0  0
  2  7  1  0  0  0  0
  3  2  2  0  0  0  0
  4  5  2  0  0  0  0
  4  3  1  0  0  0  0
  5  6  1  0  0  0  0
  6  1  2  0  0  0  0
  8  3  1  0  0  0  0
  9 18  1  0  0  0  0
 10  9  1  0  0  0  0
 10  5  1  0  0  0  0
 11 10  2  0  0  0  0
 12 16  2  0  0  0  0
 12 11  1  0  0  0  0
 13 12  1  0  0  0  0
 14 13  1  0  0  0  0
 14 15  2  0  0  0  0
 15 22  1  0  0  0  0
 15 16  1  0  0  0  0
 16 17  1  0  0  0  0
 17 23  1  0  0  0  0
 17  9  2  0  0  0  0
 19 11  1  0  0  0  0
 20 13  1  0  0  0  0
 21 14  1  0  0  0  0
 24 26  1  0  0  0  0
 24 25  1  6  0  0  0
 26 27  1  0  0  0  0
 27 28  1  0  0  0  0
 27 29  2  0  0  0  0
 29 30  1  0  0  0  0
 31 29  1  0  0  0  0
 32 31  2  0  0  0  0
 33 26  2  0  0  0  0
 33 32  1  0  0  0  0
M  END
>  <minimizedAffinity>
-5.90134048

$$$$

 OpenBabel03252504013D

 33 36  0  0  1  0  0  0  0  0999 V2000
   36.5610   28.5070   41.5440 C   0  0  0  0  0  0  0  0  0  0  0  0
   37.0680   29.7290   41.9410 C   0  0  0  0  0  0  0  0  0  0  0  0
   36.8750   30.8070   41.0860 C   0  0  0  0  0  0  0  0  0  0  0  0
   36.2070   30.6150   39.9200 N   0  0  0  0  0  0  0  0  0  0  0  0
   35.7290   29.4060   39.5720 C   0  0  0  0  0  0  0  0  0  0  0  0
   35.9010   28.3440   40.3780 N   0  0  0  0  0  0  0  0  0  0  0  0
   37.6000   29.9510   42.8410 H   0  0  0  0  0  0  0  0  0  0  0  0
   37.2470   31.7950   41.3330 H   0  0  0  0  0  0  0  0  0  0  0  0
   35.7300   29.2880   37.1240 C   0  0  0  0  0  0  0  0  0  0  0  0
   35.0070   29.1960   38.3130 C   0  0  0  0  0  0  0  0  0  0  0  0
   33.6470   28.9110   38.2830 C   0  0  0  0  0  0  0  0  0  0  0  0
   33.0490   28.7250   37.0550 C   0  0  0  0  0  0  0  0  0  0  0  0
   31.7930   28.4420   36.6930 N   0  0  0  0  0  0  0  0  0  0  0  0
   31.6620   28.3460   35.3680 C   0  0  0  0  0  0  0  0  0  0  0  0
   32.8900   28.5760   34.8080 C   0  0  0  0  0  0  0  0  0  0  0  0
   33.7590   28.8120   35.8610 C   0  0  0  0  0  0  0  0  0  0  0  0
   35.1160   29.0980   35.9110 C   0  0  0  0  0  0  0  0  0  0  0  0
   36.7930   29.5120   37.1910 H   0  0  0  0  0  0  0  0  0  0  0  0
   33.0890   28.8410   39.1980 H   0  0  0  0  0  0  0  0  0  0  0  0
   31.0230   28.3150   37.3980 H   0  0  0  0  0  0  0  0  0  0  0  0
   30.7910   28.1330   34.7750 H   0  0  0  0  0  0  0  0  0  0  0  0
   33.2440   28.5970   33.7700 H   0  0  0  0  0  0  0  0  0  0  0  0
   35.7220   29.1800   35.0200 H   0  0  0  0  0  0  0  0  0  0  0  0
   36.7770   27.3960   42.4610 C   0  0  2  0  0  3  0  0  0  0  0  0
   36.3460   27.3800   43.6730 O   0  0  0  0  0  1  0  0  0  0  0  0
   37.5160   26.2070   42.0400 C   0  0  0  0  0  0  0  0  0  0  0  0
   36.9450   24.9720   42.0970 C   0  0  0  0  0  0  0  0  0  0  0  0
   35.9430   24.8630   42.4520 H   0  0  0  0  0  0  0  0  0  0  0  0
   37.6590   23.8590   41.6960 C   0  0  0  0  0  0  0  0  0  0  0  0
   37.2030   22.8700   41.7410 H   0  0  0  0  0  0  0  0  0  0  0  0
   38.9570   23.9530   41.2300 C   0  0  0  0  0  3  0  0  0  0  0  0
   39.4540   25.2360   41.2060 C   0  0  0  0  0  3  0  0  0  0  0  0
   38.7960   26.3620   41.5880 N   0  0  0  0  0  0  0  0  0  0  0  0
  1  2  1  0  0  0  0
  1 24  1  0  0  0  0
  2  7  1  0  0  0  0
  3  8  1  0  0  0  0
  3  2  2  0  0  0  0
  4  3  1  0  0  0  0
  5  4  2  0  0  0  0
  5  6  1  0  0  0  0
  6  1  2  0  0  0  0
  9 18  1  0  0  0  0
  9 10  1  0  0  0  0
 10  5  1  0  0  0  0
 11 10  2  0  0  0  0
 11 19  1  0  0  0  0
 12 11  1  0  0  0  0
 13 12  1  0  0  0  0
 13 20  1  0  0  0  0
 14 13  1  0  0  0  0
 15 14  2  0  0  0  0
 15 16  1  0  0  0  0
 16 17  1  0  0  0  0
 16 12  2  0  0  0  0
 17  9  2  0  0  0  0
 21 14  1  0  0  0  0
 22 15  1  0  0  0  0
 23 17  1  0  0  0  0
 24 25  1  1  0  0  0
 26 27  1  0  0  0  0
 26 24  1  0  0  0  0
 27 28  1  0  0  0  0
 29 30  1  0  0  0  0
 29 27  2  0  0  0  0
 31 29  1  0  0  0  0
 32 31  2  0  0  0  0
 32 33  1  0  0  0  0
 33 26  2  0  0  0  0
M  END
>  <minimizedAffinity>
-5.84235668

$$$$

 OpenBabel03252504013D

 33 36  0  0  1  0  0  0  0  0999 V2000
   36.7960   29.5990   39.3060 C   0  0  0  0  0  0  0  0  0  0  0  0
   36.1770   29.3940   38.0880 C   0  0  0  0  0  0  0  0  0  0  0  0
   36.7750   29.9560   36.9680 C   0  0  0  0  0  0  0  0  0  0  0  0
   37.9210   30.6690   37.1150 N   0  0  0  0  0  0  0  0  0  0  0  0
   38.4910   30.8440   38.3220 C   0  0  0  0  0  0  0  0  0  0  0  0
   37.9360   30.3120   39.4250 N   0  0  0  0  0  0  0  0  0  0  0  0
   35.2790   28.8460   37.8990 H   0  0  0  0  0  0  0  0  0  0  0  0
   36.3430   29.8370   35.9790 H   0  0  0  0  0  0  0  0  0  0  0  0
   40.3380   31.6070   39.7400 C   0  0  0  0  0  0  0  0  0  0  0  0
   39.7280   31.6120   38.4860 C   0  0  0  0  0  0  0  0  0  0  0  0
   40.2950   32.3280   37.4370 C   0  0  0  0  0  0  0  0  0  0  0  0
   41.4620   33.0200   37.6790 C   0  0  0  0  0  0  0  0  0  0  0  0
   42.2400   33.7830   36.9030 N   0  0  0  0  0  0  0  0  0  0  0  0
   43.2950   34.2610   37.5660 C   0  0  0  0  0  0  0  0  0  0  0  0
   43.2270   33.7990   38.8520 C   0  0  0  0  0  0  0  0  0  0  0  0
   42.0820   33.0220   38.9250 C   0  0  0  0  0  0  0  0  0  0  0  0
   41.5010   32.3020   39.9600 C   0  0  0  0  0  0  0  0  0  0  0  0
   39.8630   31.0340   40.5340 H   0  0  0  0  0  0  0  0  0  0  0  0
   39.8260   32.3330   36.4710 H   0  0  0  0  0  0  0  0  0  0  0  0
   42.0160   33.9620   35.8920 H   0  0  0  0  0  0  0  0  0  0  0  0
   44.0930   34.8970   37.2250 H   0  0  0  0  0  0  0  0  0  0  0  0
   43.8700   33.9380   39.7300 H   0  0  0  0  0  0  0  0  0  0  0  0
   41.9330   32.2650   40.9500 H   0  0  0  0  0  0  0  0  0  0  0  0
   36.1480   28.9960   40.4630 C   0  0  1  0  0  3  0  0  0  0  0  0
   34.8740   28.9820   40.6370 O   0  0  0  0  0  1  0  0  0  0  0  0
   36.9340   28.3560   41.5170 C   0  0  0  0  0  0  0  0  0  0  0  0
   37.2290   29.0190   42.6690 C   0  0  0  0  0  0  0  0  0  0  0  0
   36.8850   30.0200   42.8120 H   0  0  0  0  0  0  0  0  0  0  0  0
   37.9740   28.3990   43.6540 C   0  0  0  0  0  0  0  0  0  0  0  0
   38.2100   28.9280   44.5770 H   0  0  0  0  0  0  0  0  0  0  0  0
   38.4390   27.1050   43.5120 C   0  0  0  0  0  3  0  0  0  0  0  0
   38.0960   26.5120   42.3190 C   0  0  0  0  0  3  0  0  0  0  0  0
   37.3680   27.0760   41.3190 N   0  0  0  0  0  0  0  0  0  0  0  0
  1  6  1  0  0  0  0
  1 24  1  0  0  0  0
  2  1  2  0  0  0  0
  3  4  2  0  0  0  0
  3  2  1  0  0  0  0
  4  5  1  0  0  0  0
  5 10  1  0  0  0  0
  5  6  2  0  0  0  0
  7  2  1  0  0  0  0
  8  3  1  0  0  0  0
  9 17  1  0  0  0  0
  9 18  1  0  0  0  0
 10  9  2  0  0  0  0
 11 12  2  0  0  0  0
 11 10  1  0  0  0  0
 12 16  1  0  0  0  0
 13 14  1  0  0  0  0
 13 12  1  0  0  0  0
 14 15  2  0  0  0  0
 15 16  1  0  0  0  0
 15 22  1  0  0  0  0
 16 17  2  0  0  0  0
 17 23  1  0  0  0  0
 19 11  1  0  0  0  0
 20 13  1  0  0  0  0
 21 14  1  0  0  0  0
 24 25  1  6  0  0  0
 24 26  1  0  0  0  0
 26 27  1  0  0  0  0
 27 28  1  0  0  0  0
 27 29  2  0  0  0  0
 29 30  1  0  0  0  0
 31 29  1  0  0  0  0
 32 31  2  0  0  0  0
 33 26  2  0  0  0  0
 33 32  1  0  0  0  0
M  END
>  <minimizedAffinity>
-5.80148697

$$$$

 OpenBabel03252504013D

 33 36  0  0  1  0  0  0  0  0999 V2000
   38.1390   31.5120   40.3220 C   0  0  0  0  0  0  0  0  0  0  0  0
   38.1380   32.8600   40.6250 C   0  0  0  0  0  0  0  0  0  0  0  0
   39.1220   33.6450   40.0400 C   0  0  0  0  0  0  0  0  0  0  0  0
   40.0270   33.0640   39.2110 N   0  0  0  0  0  0  0  0  0  0  0  0
   39.9910   31.7460   38.9420 C   0  0  0  0  0  0  0  0  0  0  0  0
   39.0500   30.9600   39.4940 N   0  0  0  0  0  0  0  0  0  0  0  0
   37.4590   33.3820   41.2660 H   0  0  0  0  0  0  0  0  0  0  0  0
   39.1820   34.7110   40.2340 H   0  0  0  0  0  0  0  0  0  0  0  0
   40.7290   29.7990   37.6490 C   0  0  0  0  0  0  0  0  0  0  0  0
   40.9650   31.1150   38.0460 C   0  0  0  0  0  0  0  0  0  0  0  0
   42.0940   31.7900   37.5940 C   0  0  0  0  0  0  0  0  0  0  0  0
   42.9550   31.1210   36.7510 C   0  0  0  0  0  0  0  0  0  0  0  0
   44.0970   31.4790   36.1530 N   0  0  0  0  0  0  0  0  0  0  0  0
   44.6030   30.4940   35.4070 C   0  0  0  0  0  0  0  0  0  0  0  0
   43.7620   29.4190   35.5060 C   0  0  0  0  0  0  0  0  0  0  0  0
   42.7310   29.8090   36.3450 C   0  0  0  0  0  0  0  0  0  0  0  0
   41.6000   29.1520   36.8080 C   0  0  0  0  0  0  0  0  0  0  0  0
   39.8350   29.3080   38.0250 H   0  0  0  0  0  0  0  0  0  0  0  0
   42.2770   32.8030   37.9000 H   0  0  0  0  0  0  0  0  0  0  0  0
   44.5170   32.4350   36.2780 H   0  0  0  0  0  0  0  0  0  0  0  0
   45.4970   30.4720   34.8110 H   0  0  0  0  0  0  0  0  0  0  0  0
   43.7840   28.4130   35.0690 H   0  0  0  0  0  0  0  0  0  0  0  0
   41.3690   28.1320   36.5300 H   0  0  0  0  0  0  0  0  0  0  0  0
   37.0940   30.7140   40.9480 C   0  0  2  0  0  3  0  0  0  0  0  0
   35.8380   30.9710   40.8350 O   0  0  0  0  0  1  0  0  0  0  0  0
   37.4250   29.5460   41.7630 C   0  0  0  0  0  0  0  0  0  0  0  0
   36.6030   28.4610   41.7970 C   0  0  0  0  0  0  0  0  0  0  0  0
   35.7030   28.4560   41.2230 H   0  0  0  0  0  0  0  0  0  0  0  0
   36.9330   27.3660   42.5720 C   0  0  0  0  0  0  0  0  0  0  0  0
   36.2760   26.4970   42.6000 H   0  0  0  0  0  0  0  0  0  0  0  0
   38.0880   27.3290   43.3300 C   0  0  0  0  0  3  0  0  0  0  0  0
   38.8580   28.4660   43.2380 C   0  0  0  0  0  3  0  0  0  0  0  0
   38.5810   29.5680   42.4910 N   0  0  0  0  0  0  0  0  0  0  0  0
  1  2  1  0  0  0  0
  1 24  1  0  0  0  0
  2  7  1  0  0  0  0
  3  8  1  0  0  0  0
  3  2  2  0  0  0  0
  4  3  1  0  0  0  0
  5  4  2  0  0  0  0
  5  6  1  0  0  0  0
  6  1  2  0  0  0  0
  9 18  1  0  0  0  0
  9 10  1  0  0  0  0
 10  5  1  0  0  0  0
 11 19  1  0  0  0  0
 11 10  2  0  0  0  0
 12 11  1  0  0  0  0
 13 20  1  0  0  0  0
 13 12  1  0  0  0  0
 14 15  2  0  0  0  0
 14 13  1  0  0  0  0
 15 16  1  0  0  0  0
 16 12  2  0  0  0  0
 16 17  1  0  0  0  0
 17  9  2  0  0  0  0
 21 14  1  0  0  0  0
 22 15  1  0  0  0  0
 23 17  1  0  0  0  0
 24 25  1  1  0  0  0
 24 26  1  0  0  0  0
 26 27  2  0  0  0  0
 26 33  1  0  0  0  0
 27 29  1  0  0  0  0
 28 27  1  0  0  0  0
 29 30  1  0  0  0  0
 29 31  2  0  0  0  0
 32 31  1  0  0  0  0
 33 32  2  0  0  0  0
M  END
>  <minimizedAffinity>
-5.80136967

$$$$

 OpenBabel03252504013D

 33 36  0  0  1  0  0  0  0  0999 V2000
   33.3880   28.9830   36.6700 C   0  0  0  0  0  0  0  0  0  0  0  0
   34.1420   29.1100   35.5180 C   0  0  0  0  0  0  0  0  0  0  0  0
   35.5180   29.2110   35.6670 C   0  0  0  0  0  0  0  0  0  0  0  0
   36.0550   29.1800   36.9140 N   0  0  0  0  0  0  0  0  0  0  0  0
   35.2830   29.0550   38.0090 C   0  0  0  0  0  0  0  0  0  0  0  0
   33.9470   28.9560   37.8980 N   0  0  0  0  0  0  0  0  0  0  0  0
   33.7880   29.1410   34.5100 H   0  0  0  0  0  0  0  0  0  0  0  0
   36.1710   29.3140   34.8060 H   0  0  0  0  0  0  0  0  0  0  0  0
   36.0890   30.2380   39.9990 C   0  0  0  0  0  0  0  0  0  0  0  0
   35.8580   29.0210   39.3570 C   0  0  0  0  0  0  0  0  0  0  0  0
   36.1680   27.8250   39.9950 C   0  0  0  0  0  0  0  0  0  0  0  0
   36.7030   27.8860   41.2640 C   0  0  0  0  0  0  0  0  0  0  0  0
   37.0970   26.9430   42.1270 N   0  0  0  0  0  0  0  0  0  0  0  0
   37.5590   27.4660   43.2650 C   0  0  0  0  0  0  0  0  0  0  0  0
   37.4730   28.8280   43.1660 C   0  0  0  0  0  0  0  0  0  0  0  0
   36.9370   29.0930   41.9160 C   0  0  0  0  0  0  0  0  0  0  0  0
   36.6220   30.2760   41.2630 C   0  0  0  0  0  0  0  0  0  0  0  0
   35.8320   31.1500   39.4650 H   0  0  0  0  0  0  0  0  0  0  0  0
   35.9910   26.8870   39.5020 H   0  0  0  0  0  0  0  0  0  0  0  0
   37.0350   25.9180   41.9020 H   0  0  0  0  0  0  0  0  0  0  0  0
   37.9450   26.9760   44.1410 H   0  0  0  0  0  0  0  0  0  0  0  0
   37.7350   29.6440   43.8510 H   0  0  0  0  0  0  0  0  0  0  0  0
   36.7810   31.2460   41.7150 H   0  0  0  0  0  0  0  0  0  0  0  0
   31.9470   28.8780   36.4830 C   0  0  1  0  0  3  0  0  0  0  0  0
   31.3760   27.8820   35.9020 O   0  0  0  0  0  1  0  0  0  0  0  0
   31.0480   29.9280   36.9600 C   0  0  0  0  0  0  0  0  0  0  0  0
   30.9320   31.1070   36.2900 C   0  0  0  0  0  0  0  0  0  0  0  0
   31.5020   31.2740   35.4020 H   0  0  0  0  0  0  0  0  0  0  0  0
   30.0780   32.0880   36.7550 C   0  0  0  0  0  0  0  0  0  0  0  0
   29.9830   33.0320   36.2190 H   0  0  0  0  0  0  0  0  0  0  0  0
   29.3210   31.9140   37.8990 C   0  0  0  0  0  3  0  0  0  0  0  0
   29.5010   30.6960   38.5130 C   0  0  0  0  0  3  0  0  0  0  0  0
   30.3260   29.6990   38.0970 N   0  0  0  0  0  0  0  0  0  0  0  0
  1  6  1  0  0  0  0
  2  3  1  0  0  0  0
  2  1  2  0  0  0  0
  3  4  2  0  0  0  0
  4  5  1  0  0  0  0
  5 10  1  0  0  0  0
  6  5  2  0  0  0  0
  7  2  1  0  0  0  0
  8  3  1  0  0  0  0
  9 17  1  0  0  0  0
 10 11  1  0  0  0  0
 10  9  2  0  0  0  0
 11 12  2  0  0  0  0
 12 16  1  0  0  0  0
 12 13  1  0  0  0  0
 13 14  1  0  0  0  0
 14 21  1  0  0  0  0
 15 14  2  0  0  0  0
 15 22  1  0  0  0  0
 16 15  1  0  0  0  0
 17 23  1  0  0  0  0
 17 16  2  0  0  0  0
 18  9  1  0  0  0  0
 19 11  1  0  0  0  0
 20 13  1  0  0  0  0
 24 25  1  1  0  0  0
 24  1  1  0  0  0  0
 24 26  1  0  0  0  0
 26 33  1  0  0  0  0
 27 29  1  0  0  0  0
 27 26  2  0  0  0  0
 28 27  1  0  0  0  0
 29 31  2  0  0  0  0
 30 29  1  0  0  0  0
 31 32  1  0  0  0  0
 33 32  2  0  0  0  0
M  END
>  <minimizedAffinity>
-5.79533482

$$$$

 OpenBabel03252504013D

 33 36  0  0  1  0  0  0  0  0999 V2000
   38.3790   26.3340   42.1970 C   0  0  0  0  0  0  0  0  0  0  0  0
   39.3710   26.2180   43.1520 C   0  0  0  0  0  0  0  0  0  0  0  0
   40.0480   27.3750   43.5110 C   0  0  0  0  0  0  0  0  0  0  0  0
   39.7120   28.5500   42.9190 N   0  0  0  0  0  0  0  0  0  0  0  0
   38.7370   28.6190   41.9930 C   0  0  0  0  0  0  0  0  0  0  0  0
   38.0640   27.5150   41.6240 N   0  0  0  0  0  0  0  0  0  0  0  0
   39.6870   25.3300   43.6570 H   0  0  0  0  0  0  0  0  0  0  0  0
   40.8390   27.3580   44.2530 H   0  0  0  0  0  0  0  0  0  0  0  0
   37.3590   29.8620   40.3930 C   0  0  0  0  0  0  0  0  0  0  0  0
   38.3710   29.8850   41.3530 C   0  0  0  0  0  0  0  0  0  0  0  0
   38.9960   31.0840   41.6790 C   0  0  0  0  0  0  0  0  0  0  0  0
   38.5860   32.2280   41.0290 C   0  0  0  0  0  0  0  0  0  0  0  0
   38.9730   33.5060   41.1140 N   0  0  0  0  0  0  0  0  0  0  0  0
   38.2860   34.2940   40.2840 C   0  0  0  0  0  0  0  0  0  0  0  0
   37.3920   33.5110   39.6060 C   0  0  0  0  0  0  0  0  0  0  0  0
   37.5770   32.2190   40.0710 C   0  0  0  0  0  0  0  0  0  0  0  0
   36.9640   31.0140   39.7580 C   0  0  0  0  0  0  0  0  0  0  0  0
   36.8950   28.9040   40.1670 H   0  0  0  0  0  0  0  0  0  0  0  0
   39.7760   31.1030   42.4170 H   0  0  0  0  0  0  0  0  0  0  0  0
   39.7330   33.8170   41.7700 H   0  0  0  0  0  0  0  0  0  0  0  0
   38.3620   35.3540   40.1200 H   0  0  0  0  0  0  0  0  0  0  0  0
   36.6390   33.7310   38.8390 H   0  0  0  0  0  0  0  0  0  0  0  0
   36.1750   30.9400   39.0230 H   0  0  0  0  0  0  0  0  0  0  0  0
   37.6850   25.1040   41.8420 C   0  0  2  0  0  3  0  0  0  0  0  0
   36.5850   24.7240   42.3890 O   0  0  0  0  0  1  0  0  0  0  0  0
   38.2180   24.2100   40.8150 C   0  0  0  0  0  0  0  0  0  0  0  0
   39.1370   24.6500   39.9120 C   0  0  0  0  0  0  0  0  0  0  0  0
   39.4790   25.6610   39.9490 H   0  0  0  0  0  0  0  0  0  0  0  0
   39.6290   23.7900   38.9490 C   0  0  0  0  0  0  0  0  0  0  0  0
   40.3650   24.1410   38.2260 H   0  0  0  0  0  0  0  0  0  0  0  0
   39.2150   22.4740   38.8650 C   0  0  0  0  0  3  0  0  0  0  0  0
   38.2860   22.1150   39.8140 C   0  0  0  0  0  3  0  0  0  0  0  0
   37.7710   22.9190   40.7810 N   0  0  0  0  0  0  0  0  0  0  0  0
  1  2  1  0  0  0  0
  2  3  2  0  0  0  0
  2  7  1  0  0  0  0
  3  8  1  0  0  0  0
  4  3  1  0  0  0  0
  5  4  2  0  0  0  0
  6  5  1  0  0  0  0
  6  1  2  0  0  0  0
  9 10  1  0  0  0  0
 10 11  2  0  0  0  0
 10  5  1  0  0  0  0
 11 19  1  0  0  0  0
 12 13  1  0  0  0  0
 12 11  1  0  0  0  0
 13 20  1  0  0  0  0
 14 13  1  0  0  0  0
 15 16  1  0  0  0  0
 15 14  2  0  0  0  0
 16 12  2  0  0  0  0
 17 16  1  0  0  0  0
 17  9  2  0  0  0  0
 18  9  1  0  0  0  0
 21 14  1  0  0  0  0
 22 15  1  0  0  0  0
 23 17  1  0  0  0  0
 24  1  1  0  0  0  0
 24 25  1  1  0  0  0
 26 24  1  0  0  0  0
 27 28  1  0  0  0  0
 27 26  2  0  0  0  0
 29 27  1  0  0  0  0
 30 29  1  0  0  0  0
 31 29  2  0  0  0  0
 31 32  1  0  0  0  0
 32 33  2  0  0  0  0
 33 26  1  0  0  0  0
M  END
>  <minimizedAffinity>
-5.71719551

$$$$

 OpenBabel03252504013D

 33 36  0  0  1  0  0  0  0  0999 V2000
   37.3470   30.3540   39.6300 C   0  0  0  0  0  0  0  0  0  0  0  0
   36.9480   30.3810   38.3070 C   0  0  0  0  0  0  0  0  0  0  0  0
   37.7250   31.1180   37.4230 C   0  0  0  0  0  0  0  0  0  0  0  0
   38.8230   31.7680   37.8890 N   0  0  0  0  0  0  0  0  0  0  0  0
   39.1750   31.7140   39.1870 C   0  0  0  0  0  0  0  0  0  0  0  0
   38.4430   31.0100   40.0670 N   0  0  0  0  0  0  0  0  0  0  0  0
   36.1010   29.8950   37.8740 H   0  0  0  0  0  0  0  0  0  0  0  0
   37.4710   31.1840   36.3710 H   0  0  0  0  0  0  0  0  0  0  0  0
   40.9490   33.3760   38.8720 C   0  0  0  0  0  0  0  0  0  0  0  0
   40.3600   32.4140   39.6930 C   0  0  0  0  0  0  0  0  0  0  0  0
   40.8940   32.1450   40.9480 C   0  0  0  0  0  0  0  0  0  0  0  0
   42.0090   32.8530   41.3440 C   0  0  0  0  0  0  0  0  0  0  0  0
   42.7430   32.8330   42.4620 N   0  0  0  0  0  0  0  0  0  0  0  0
   43.7510   33.7080   42.4150 C   0  0  0  0  0  0  0  0  0  0  0  0
   43.6950   34.3490   41.2080 C   0  0  0  0  0  0  0  0  0  0  0  0
   42.6050   33.8160   40.5370 C   0  0  0  0  0  0  0  0  0  0  0  0
   42.0580   34.0700   39.2870 C   0  0  0  0  0  0  0  0  0  0  0  0
   40.5000   33.5570   37.8980 H   0  0  0  0  0  0  0  0  0  0  0  0
   40.4420   31.4040   41.5800 H   0  0  0  0  0  0  0  0  0  0  0  0
   42.5220   32.1910   43.2650 H   0  0  0  0  0  0  0  0  0  0  0  0
   44.5070   33.9260   43.1470 H   0  0  0  0  0  0  0  0  0  0  0  0
   44.3120   35.1300   40.7480 H   0  0  0  0  0  0  0  0  0  0  0  0
   42.4750   34.8050   38.6120 H   0  0  0  0  0  0  0  0  0  0  0  0
   36.5140   29.5720   40.5340 C   0  0  2  0  0  3  0  0  0  0  0  0
   35.2300   29.6370   40.5530 O   0  0  0  0  0  1  0  0  0  0  0  0
   37.1120   28.6470   41.4950 C   0  0  0  0  0  0  0  0  0  0  0  0
   37.3670   29.0360   42.7750 C   0  0  0  0  0  0  0  0  0  0  0  0
   37.1310   30.0290   43.0880 H   0  0  0  0  0  0  0  0  0  0  0  0
   37.9330   28.1480   43.6700 C   0  0  0  0  0  0  0  0  0  0  0  0
   38.1370   28.4580   44.6940 H   0  0  0  0  0  0  0  0  0  0  0  0
   38.2550   26.8530   43.3080 C   0  0  0  0  0  3  0  0  0  0  0  0
   37.9630   26.5450   41.9990 C   0  0  0  0  0  3  0  0  0  0  0  0
   37.4090   27.3800   41.0800 N   0  0  0  0  0  0  0  0  0  0  0  0
  1  6  1  0  0  0  0
  1 24  1  0  0  0  0
  2  1  2  0  0  0  0
  3  4  2  0  0  0  0
  3  2  1  0  0  0  0
  4  5  1  0  0  0  0
  5 10  1  0  0  0  0
  5  6  2  0  0  0  0
  7  2  1  0  0  0  0
  8  3  1  0  0  0  0
  9 17  2  0  0  0  0
  9 10  1  0  0  0  0
 10 11  2  0  0  0  0
 11 12  1  0  0  0  0
 11 19  1  0  0  0  0
 12 13  1  0  0  0  0
 13 20  1  0  0  0  0
 14 13  1  0  0  0  0
 14 21  1  0  0  0  0
 15 14  2  0  0  0  0
 16 15  1  0  0  0  0
 16 12  2  0  0  0  0
 17 16  1  0  0  0  0
 18  9  1  0  0  0  0
 22 15  1  0  0  0  0
 23 17  1  0  0  0  0
 24 25  1  1  0  0  0
 24 26  1  0  0  0  0
 26 27  1  0  0  0  0
 27 28  1  0  0  0  0
 27 29  2  0  0  0  0
 29 30  1  0  0  0  0
 31 29  1  0  0  0  0
 32 31  2  0  0  0  0
 33 26  2  0  0  0  0
 33 32  1  0  0  0  0
M  END
>  <minimizedAffinity>
-5.6328845

$$$$
