
 OpenBabel03252507593D

 28 30  0  0  1  0  0  0  0  0999 V2000
   46.6550   34.7880   43.0470 C   0  0  0  0  0  0  0  0  0  0  0  0
   45.5950   35.7290   43.2160 C   0  0  0  0  0  0  0  0  0  0  0  0
   44.7580   35.5150   44.3090 C   0  0  0  0  0  0  0  0  0  0  0  0
   44.9930   34.4580   45.1220 N   0  0  0  0  0  0  0  0  0  0  0  0
   46.0360   33.5910   44.8960 C   0  0  0  0  0  0  0  0  0  0  0  0
   46.8620   33.7420   43.8780 N   0  0  0  0  0  0  0  0  0  0  0  0
   45.4830   36.5450   42.5170 H   0  0  0  0  0  0  0  0  0  0  0  0
   43.9420   36.1990   44.4780 H   0  0  0  0  0  0  0  0  0  0  0  0
   46.2390   32.4610   45.8500 C   0  0  1  0  0  0  0  0  0  0  0  0
   46.9820   32.7170   47.1420 C   0  0  0  0  0  0  0  0  0  0  0  0
   45.4840   32.5800   47.1150 C   0  0  1  0  0  0  0  0  0  0  0  0
   46.3500   31.4590   45.3970 H   0  0  0  0  0  0  0  0  0  0  0  0
   47.4770   33.6780   47.2940 H   0  0  0  0  0  0  0  0  0  0  0  0
   47.4910   31.8330   47.5710 H   0  0  0  0  0  0  0  0  0  0  0  0
   45.0080   31.7160   47.5970 H   0  0  0  0  0  0  0  0  0  0  0  0
   44.8320   33.8560   47.4440 N   0  0  0  0  0  0  0  0  0  0  0  0
   45.2960   34.2670   48.2710 H   0  0  0  0  0  0  0  0  0  0  0  0
   43.7990   33.7370   47.5270 H   0  0  0  0  0  0  0  0  0  0  0  0
   47.5200   35.0390   41.9120 C   0  0  0  0  0  0  0  0  0  0  0  0
   48.5370   35.8180   41.9680 O   0  0  0  0  0  0  0  0  0  0  0  0
   47.2590   34.3960   40.6240 C   0  0  0  0  0  0  0  0  0  0  0  0
   46.0790   33.7060   40.4260 C   0  0  0  0  0  0  0  0  0  0  0  0
   45.3360   33.6330   41.2200 H   0  0  0  0  0  0  0  0  0  0  0  0
   45.7410   33.0700   39.2530 C   0  0  0  0  0  0  0  0  0  0  0  0
   44.8130   32.5360   39.1210 H   0  0  0  0  0  0  0  0  0  0  0  0
   46.6870   33.1600   38.2340 C   0  0  0  0  0  3  0  0  0  0  0  0
   47.8590   33.8560   38.4560 C   0  0  0  0  0  3  0  0  0  0  0  0
   48.1530   34.4700   39.6280 N   0  0  0  0  0  0  0  0  0  0  0  0
  1  2  2  0  0  0  0
  1  6  1  0  0  0  0
  2  3  1  0  0  0  0
  3  8  1  0  0  0  0
  3  4  2  0  0  0  0
  5  4  1  0  0  0  0
  5  9  1  0  0  0  0
  6  5  2  0  0  0  0
  7  2  1  0  0  0  0
  9 12  1  6  0  0  0
  9 11  1  0  0  0  0
  9 10  1  0  0  0  0
 10 13  1  0  0  0  0
 10 14  1  0  0  0  0
 11 10  1  0  0  0  0
 11 16  1  0  0  0  0
 11 15  1  1  0  0  0
 16 18  1  0  0  0  0
 16 17  1  0  0  0  0
 19 20  2  0  0  0  0
 19  1  1  0  0  0  0
 21 19  1  0  0  0  0
 22 21  1  0  0  0  0
 22 23  1  0  0  0  0
 24 22  2  0  0  0  0
 25 24  1  0  0  0  0
 26 27  2  0  0  0  0
 26 24  1  0  0  0  0
 27 28  1  0  0  0  0
 28 21  2  0  0  0  0
M  END
>  <minimizedAffinity>
-5.53712749

>  <minimizedRMSD>
1.11488652

$$$$
