
 OpenBabel03242523383D

 18 19  0  0  0  0  0  0  0  0999 V2000
   44.5210   35.7880   44.7310 C   0  0  0  0  0  0  0  0  0  0  0  0
   45.2010   35.7310   43.4950 C   0  0  0  0  0  0  0  0  0  0  0  0
   46.1540   34.7120   43.3420 C   0  0  0  0  0  0  0  0  0  0  0  0
   46.3690   33.8490   44.3720 N   0  0  0  0  0  0  0  0  0  0  0  0
   45.6890   33.9500   45.5330 C   0  0  0  0  0  0  0  0  0  0  0  0
   44.7700   34.9130   45.7140 N   0  0  0  0  0  0  0  0  0  0  0  0
   43.7900   36.5690   44.8500 H   0  0  0  0  0  0  0  0  0  0  0  0
   45.0420   36.4020   42.6780 H   0  0  0  0  0  0  0  0  0  0  0  0
   45.9710   32.9900   46.5950 C   0  0  0  0  0  0  0  0  0  0  0  0
   47.0840   32.1580   46.4840 C   0  0  0  0  0  0  0  0  0  0  0  0
   47.7140   32.2450   45.6070 H   0  0  0  0  0  0  0  0  0  0  0  0
   47.3430   31.2470   47.5020 C   0  0  0  0  0  0  0  0  0  0  0  0
   48.1830   30.6000   47.4440 H   0  0  0  0  0  0  0  0  0  0  0  0
   46.4600   31.2420   48.5590 C   0  0  0  0  0  3  0  0  0  0  0  0
   45.3450   32.0670   48.6820 C   0  0  0  0  0  3  0  0  0  0  0  0
   45.1580   32.9200   47.6650 N   0  0  0  0  0  0  0  0  0  0  0  0
   47.0620   34.5730   41.7990 S   0  0  0  0  0  0  0  0  0  0  0  0
   48.4330   34.7430   42.1360 H   0  0  0  0  0  0  0  0  0  0  0  0
  1  7  1  0  0  0  0
  1  6  1  0  0  0  0
  2  1  2  0  0  0  0
  3  2  1  0  0  0  0
  3  4  2  0  0  0  0
  4  5  1  0  0  0  0
  5  6  2  0  0  0  0
  5  9  1  0  0  0  0
  8  2  1  0  0  0  0
  9 16  1  0  0  0  0
 10  9  2  0  0  0  0
 10 12  1  0  0  0  0
 11 10  1  0  0  0  0
 12 14  2  0  0  0  0
 13 12  1  0  0  0  0
 14 15  1  0  0  0  0
 16 15  2  0  0  0  0
 17 18  1  0  0  0  0
 17  3  1  0  0  0  0
M  END
>  <minimizedAffinity>
-4.68098354

>  <minimizedRMSD>
0.383031577

$$$$
