
 OpenBabel03242523383D

 18 19  0  0  0  0  0  0  0  0999 V2000
   44.5210   35.7870   44.7310 C   0  0  0  0  0  0  0  0  0  0  0  0
   45.2010   35.7300   43.4950 C   0  0  0  0  0  0  0  0  0  0  0  0
   46.1540   34.7120   43.3420 C   0  0  0  0  0  0  0  0  0  0  0  0
   46.3700   33.8490   44.3730 N   0  0  0  0  0  0  0  0  0  0  0  0
   45.6890   33.9500   45.5330 C   0  0  0  0  0  0  0  0  0  0  0  0
   44.7700   34.9120   45.7150 N   0  0  0  0  0  0  0  0  0  0  0  0
   43.7890   36.5680   44.8500 H   0  0  0  0  0  0  0  0  0  0  0  0
   45.0420   36.4010   42.6790 H   0  0  0  0  0  0  0  0  0  0  0  0
   45.9720   32.9900   46.5950 C   0  0  0  0  0  0  0  0  0  0  0  0
   47.0830   32.1570   46.4840 C   0  0  0  0  0  0  0  0  0  0  0  0
   47.7150   32.2440   45.6060 H   0  0  0  0  0  0  0  0  0  0  0  0
   47.3430   31.2450   47.5020 C   0  0  0  0  0  0  0  0  0  0  0  0
   48.1820   30.5980   47.4450 H   0  0  0  0  0  0  0  0  0  0  0  0
   46.4600   31.2410   48.5600 C   0  0  0  0  0  3  0  0  0  0  0  0
   45.3470   32.0670   48.6830 C   0  0  0  0  0  3  0  0  0  0  0  0
   45.1590   32.9200   47.6660 N   0  0  0  0  0  0  0  0  0  0  0  0
   47.0630   34.5730   41.7990 S   0  0  0  0  0  0  0  0  0  0  0  0
   48.4340   34.7440   42.1370 H   0  0  0  0  0  0  0  0  0  0  0  0
  1  7  1  0  0  0  0
  1  6  1  0  0  0  0
  2  1  2  0  0  0  0
  3  2  1  0  0  0  0
  3  4  2  0  0  0  0
  4  5  1  0  0  0  0
  5  6  2  0  0  0  0
  5  9  1  0  0  0  0
  8  2  1  0  0  0  0
  9 16  1  0  0  0  0
 10  9  2  0  0  0  0
 10 12  1  0  0  0  0
 11 10  1  0  0  0  0
 12 14  2  0  0  0  0
 13 12  1  0  0  0  0
 14 15  1  0  0  0  0
 16 15  2  0  0  0  0
 17 18  1  0  0  0  0
 17  3  1  0  0  0  0
M  END
>  <minimizedAffinity>
-4.68115091

>  <minimizedRMSD>
0.503681481

$$$$
