
 OpenBabel03252507023D

 37 39  0  0  0  0  0  0  0  0999 V2000
   43.2230   33.2130   41.1080 C   0  0  0  0  0  0  0  0  0  0  0  0
   43.1930   32.1980   41.5260 H   0  0  0  0  0  0  0  0  0  0  0  0
   43.4810   33.1480   40.0290 H   0  0  0  0  0  0  0  0  0  0  0  0
   44.2270   34.0930   41.7680 C   0  0  0  0  0  0  0  0  0  0  0  0
   43.8800   35.2890   42.3750 C   0  0  0  0  0  0  0  0  0  0  0  0
   44.8970   36.0400   42.9460 C   0  0  0  0  0  0  0  0  0  0  0  0
   46.1740   35.5770   42.8880 N   0  0  0  0  0  0  0  0  0  0  0  0
   46.4680   34.4240   42.2970 C   0  0  0  0  0  0  0  0  0  0  0  0
   45.4910   33.6950   41.7430 N   0  0  0  0  0  0  0  0  0  0  0  0
   42.8470   35.5940   42.3840 H   0  0  0  0  0  0  0  0  0  0  0  0
   44.6570   36.9760   43.4260 H   0  0  0  0  0  0  0  0  0  0  0  0
   47.8650   33.9950   42.2750 C   0  0  0  0  0  0  0  0  0  0  0  0
   48.2070   32.6790   42.0320 C   0  0  0  0  0  0  0  0  0  0  0  0
   47.4530   31.9190   41.8470 H   0  0  0  0  0  0  0  0  0  0  0  0
   49.5340   32.2980   42.0170 C   0  0  0  0  0  0  0  0  0  0  0  0
   49.8940   31.2970   41.8350 H   0  0  0  0  0  0  0  0  0  0  0  0
   50.4260   33.3150   42.2580 C   0  0  0  0  0  3  0  0  0  0  0  0
   50.1400   34.6500   42.5090 C   0  0  0  0  0  3  0  0  0  0  0  0
   48.8140   34.9290   42.5030 N   0  0  0  0  0  0  0  0  0  0  0  0
   41.9010   33.9140   41.2100 C   0  0  0  0  0  0  0  0  0  0  0  0
   41.5080   33.7770   42.2570 H   0  0  0  0  0  0  0  0  0  0  0  0
   42.1540   35.0250   41.2350 H   0  0  0  0  0  0  0  0  0  0  0  0
   41.0110   33.4830   40.3240 N   0  0  0  0  0  0  0  0  0  0  0  0
   40.3250   32.2430   40.2870 C   0  0  0  0  0  0  0  0  0  0  0  0
   38.9510   32.7110   40.8150 C   0  0  0  0  0  0  0  0  0  0  0  0
   38.3180   33.7250   39.9690 C   0  0  0  0  0  0  0  0  0  0  0  0
   39.1640   34.5290   39.0860 C   0  0  0  0  0  0  0  0  0  0  0  0
   40.6560   34.4370   39.2650 C   0  0  0  0  0  0  0  0  0  0  0  0
   40.2720   31.6740   39.3800 H   0  0  0  0  0  0  0  0  0  0  0  0
   40.7120   31.5820   41.1190 H   0  0  0  0  0  0  0  0  0  0  0  0
   39.1760   33.1110   41.8260 H   0  0  0  0  0  0  0  0  0  0  0  0
   38.2830   31.8280   40.9630 H   0  0  0  0  0  0  0  0  0  0  0  0
   37.5650   33.2190   39.2990 H   0  0  0  0  0  0  0  0  0  0  0  0
   37.6740   34.3720   40.6360 H   0  0  0  0  0  0  0  0  0  0  0  0
   38.8510   35.2010   38.3320 H   0  0  0  0  0  0  0  0  0  0  0  0
   41.7700   35.4200   38.3200 S   0  0  0  0  0  0  0  0  0  0  0  0
   41.6990   36.7870   38.5900 H   0  0  0  0  0  0  0  0  0  0  0  0
  1 20  1  0  0  0  0
  1  2  1  0  0  0  0
  1  4  1  0  0  0  0
  3  1  1  0  0  0  0
  4  5  1  0  0  0  0
  5 10  1  0  0  0  0
  5  6  2  0  0  0  0
  6 11  1  0  0  0  0
  7  6  1  0  0  0  0
  8  7  2  0  0  0  0
  9  4  2  0  0  0  0
  9  8  1  0  0  0  0
 12  8  1  0  0  0  0
 12 19  1  0  0  0  0
 13 12  2  0  0  0  0
 14 13  1  0  0  0  0
 15 13  1  0  0  0  0
 15 17  2  0  0  0  0
 16 15  1  0  0  0  0
 17 18  1  0  0  0  0
 19 18  2  0  0  0  0
 20 22  1  0  0  0  0
 20 21  1  0  0  0  0
 23 20  1  0  0  0  0
 24 23  1  0  0  0  0
 24 25  1  0  0  0  0
 24 30  1  0  0  0  0
 25 32  1  0  0  0  0
 25 31  1  0  0  0  0
 26 34  1  0  0  0  0
 26 25  1  0  0  0  0
 27 28  2  0  0  0  0
 27 26  1  0  0  0  0
 28 23  1  0  0  0  0
 29 24  1  0  0  0  0
 33 26  1  0  0  0  0
 35 27  1  0  0  0  0
 36 37  1  0  0  0  0
 36 28  1  0  0  0  0
M  END
>  <minimizedAffinity>
-5.43509912

>  <minimizedRMSD>
7.61330462

$$$$
