
 OpenBabel03242523373D

 18 19  0  0  0  0  0  0  0  0999 V2000
   44.5210   35.7860   44.7310 C   0  0  0  0  0  0  0  0  0  0  0  0
   45.2020   35.7290   43.4960 C   0  0  0  0  0  0  0  0  0  0  0  0
   46.1550   34.7110   43.3430 C   0  0  0  0  0  0  0  0  0  0  0  0
   46.3700   33.8480   44.3730 N   0  0  0  0  0  0  0  0  0  0  0  0
   45.6900   33.9480   45.5340 C   0  0  0  0  0  0  0  0  0  0  0  0
   44.7700   34.9110   45.7150 N   0  0  0  0  0  0  0  0  0  0  0  0
   43.7900   36.5660   44.8500 H   0  0  0  0  0  0  0  0  0  0  0  0
   45.0430   36.4000   42.6790 H   0  0  0  0  0  0  0  0  0  0  0  0
   45.9720   32.9890   46.5960 C   0  0  0  0  0  0  0  0  0  0  0  0
   47.0830   32.1570   46.4840 C   0  0  0  0  0  0  0  0  0  0  0  0
   47.7140   32.2420   45.6070 H   0  0  0  0  0  0  0  0  0  0  0  0
   47.3430   31.2450   47.5030 C   0  0  0  0  0  0  0  0  0  0  0  0
   48.1830   30.5980   47.4450 H   0  0  0  0  0  0  0  0  0  0  0  0
   46.4610   31.2410   48.5600 C   0  0  0  0  0  3  0  0  0  0  0  0
   45.3480   32.0670   48.6850 C   0  0  0  0  0  3  0  0  0  0  0  0
   45.1590   32.9200   47.6660 N   0  0  0  0  0  0  0  0  0  0  0  0
   47.0640   34.5720   41.8000 S   0  0  0  0  0  0  0  0  0  0  0  0
   48.4340   34.7430   42.1380 H   0  0  0  0  0  0  0  0  0  0  0  0
  1  7  1  0  0  0  0
  1  6  1  0  0  0  0
  2  1  2  0  0  0  0
  3  2  1  0  0  0  0
  3  4  2  0  0  0  0
  4  5  1  0  0  0  0
  5  6  2  0  0  0  0
  5  9  1  0  0  0  0
  8  2  1  0  0  0  0
  9 16  1  0  0  0  0
 10  9  2  0  0  0  0
 10 12  1  0  0  0  0
 11 10  1  0  0  0  0
 12 14  2  0  0  0  0
 13 12  1  0  0  0  0
 14 15  1  0  0  0  0
 16 15  2  0  0  0  0
 17 18  1  0  0  0  0
 17  3  1  0  0  0  0
M  END
>  <minimizedAffinity>
-4.68133783

>  <minimizedRMSD>
0.608044744

$$$$
