
 OpenBabel03242523373D

 18 19  0  0  0  0  0  0  0  0999 V2000
   44.5330   35.5310   44.9980 C   0  0  0  0  0  0  0  0  0  0  0  0
   45.2040   35.4500   43.7590 C   0  0  0  0  0  0  0  0  0  0  0  0
   46.1750   34.4460   43.6280 C   0  0  0  0  0  0  0  0  0  0  0  0
   46.4160   33.6180   44.6820 N   0  0  0  0  0  0  0  0  0  0  0  0
   45.7430   33.7410   45.8450 C   0  0  0  0  0  0  0  0  0  0  0  0
   44.8070   34.6910   46.0060 N   0  0  0  0  0  0  0  0  0  0  0  0
   43.7880   36.3010   45.1000 H   0  0  0  0  0  0  0  0  0  0  0  0
   45.0260   36.0930   42.9240 H   0  0  0  0  0  0  0  0  0  0  0  0
   46.0520   32.8200   46.9330 C   0  0  0  0  0  0  0  0  0  0  0  0
   45.1080   32.6070   47.9360 C   0  0  0  0  0  0  0  0  0  0  0  0
   44.1620   33.1340   47.8830 H   0  0  0  0  0  0  0  0  0  0  0  0
   45.4140   31.7270   48.9680 C   0  0  0  0  0  0  0  0  0  0  0  0
   44.7140   31.5460   49.7470 H   0  0  0  0  0  0  0  0  0  0  0  0
   46.6510   31.1250   48.9140 C   0  0  0  0  0  3  0  0  0  0  0  0
   47.6030   31.3280   47.9180 C   0  0  0  0  0  3  0  0  0  0  0  0
   47.2400   32.1890   46.9560 N   0  0  0  0  0  0  0  0  0  0  0  0
   47.0730   34.2770   42.0820 S   0  0  0  0  0  0  0  0  0  0  0  0
   48.4440   34.4830   42.4020 H   0  0  0  0  0  0  0  0  0  0  0  0
  1  7  1  0  0  0  0
  1  6  1  0  0  0  0
  2  1  2  0  0  0  0
  3  2  1  0  0  0  0
  3  4  2  0  0  0  0
  4  5  1  0  0  0  0
  5  6  2  0  0  0  0
  5  9  1  0  0  0  0
  8  2  1  0  0  0  0
  9 16  2  0  0  0  0
  9 10  1  0  0  0  0
 10 12  2  0  0  0  0
 11 10  1  0  0  0  0
 12 13  1  0  0  0  0
 14 12  1  0  0  0  0
 15 14  2  0  0  0  0
 16 15  1  0  0  0  0
 17 18  1  0  0  0  0
 17  3  1  0  0  0  0
M  END
>  <minimizedAffinity>
-4.72325802

>  <minimizedRMSD>
1.12747359

$$$$
