
 OpenBabel03242520223D

 43 46  0  0  0  0  0  0  0  0999 V2000
   39.5360   35.3860   40.2870 C   0  0  0  0  0  0  0  0  0  0  0  0
   38.7840   36.1980   40.2740 H   0  0  0  0  0  0  0  0  0  0  0  0
   39.6680   35.1260   41.3690 H   0  0  0  0  0  0  0  0  0  0  0  0
   38.9510   33.0120   40.1680 C   0  0  0  0  0  0  0  0  0  0  0  0
   39.0000   32.8640   41.4260 O   0  0  0  0  0  0  0  0  0  0  0  0
   39.1120   34.2480   39.5030 N   0  0  0  0  0  0  0  0  0  0  0  0
   38.9490   34.4030   38.4920 H   0  0  0  0  0  0  0  0  0  0  0  0
   38.7130   31.8320   39.3120 C   0  0  0  0  0  0  0  0  0  0  0  0
   39.1270   31.8520   37.9990 C   0  0  0  0  0  0  0  0  0  0  0  0
   38.9690   30.8250   37.0960 C   0  0  0  0  0  0  0  0  0  0  0  0
   38.3270   29.6770   37.5890 C   0  0  0  0  0  0  0  0  0  0  0  0
   37.9290   29.6920   38.8970 C   0  0  0  0  0  0  0  0  0  0  0  0
   38.1100   30.7230   39.7320 N   0  0  0  0  0  0  0  0  0  0  0  0
   39.6200   32.7570   37.6510 H   0  0  0  0  0  0  0  0  0  0  0  0
   39.3070   30.8830   36.0790 H   0  0  0  0  0  0  0  0  0  0  0  0
   38.1950   28.8740   36.9090 H   0  0  0  0  0  0  0  0  0  0  0  0
   37.2580   28.5330   39.4720 C   0  0  0  0  0  0  0  0  0  0  0  0
   35.9680   28.1690   39.1500 C   0  0  0  0  0  0  0  0  0  0  0  0
   35.3940   28.7340   38.4510 H   0  0  0  0  0  0  0  0  0  0  0  0
   35.2980   27.0820   39.6700 C   0  0  0  0  0  0  0  0  0  0  0  0
   34.2830   26.8260   39.3940 H   0  0  0  0  0  0  0  0  0  0  0  0
   35.9450   26.2810   40.5860 C   0  0  0  0  0  0  0  0  0  0  0  0
   37.2360   26.6360   40.9130 C   0  0  0  0  0  0  0  0  0  0  0  0
   37.8320   27.7100   40.3700 N   0  0  0  0  0  0  0  0  0  0  0  0
   40.8600   35.9740   39.8180 C   0  0  0  0  0  0  0  0  0  0  0  0
   40.8920   36.0600   38.7170 H   0  0  0  0  0  0  0  0  0  0  0  0
   40.9400   36.9930   40.2920 H   0  0  0  0  0  0  0  0  0  0  0  0
   43.7750   34.5850   41.8020 C   0  0  0  0  0  0  0  0  0  0  0  0
   42.7170   35.4420   41.3960 C   0  0  0  0  0  0  0  0  0  0  0  0
   41.9800   35.1150   40.2740 C   0  0  0  0  0  0  0  0  0  0  0  0
   42.3370   33.9550   39.6200 N   0  0  0  0  0  0  0  0  0  0  0  0
   43.3630   33.1710   40.0580 C   0  0  0  0  0  0  0  0  0  0  0  0
   44.0720   33.4870   41.1380 N   0  0  0  0  0  0  0  0  0  0  0  0
   42.4680   36.3470   41.9370 H   0  0  0  0  0  0  0  0  0  0  0  0
   43.5920   32.2670   39.4930 H   0  0  0  0  0  0  0  0  0  0  0  0
   44.5710   34.9630   43.0130 C   0  0  0  0  0  0  0  0  0  0  0  0
   46.0480   35.3520   42.6170 C   0  0  0  0  0  0  0  0  0  0  0  0
   45.0960   36.2390   43.2850 C   0  0  0  0  0  0  0  0  0  0  0  0
   44.5410   34.1450   43.7810 H   0  0  0  0  0  0  0  0  0  0  0  0
   46.8280   34.8630   43.2380 H   0  0  0  0  0  0  0  0  0  0  0  0
   46.2900   35.3870   41.5560 H   0  0  0  0  0  0  0  0  0  0  0  0
   44.7510   37.1100   42.6550 H   0  0  0  0  0  0  0  0  0  0  0  0
   45.3100   36.5550   44.3120 H   0  0  0  0  0  0  0  0  0  0  0  0
  1  3  1  0  0  0  0
  2  1  1  0  0  0  0
  4  5  2  0  0  0  0
  6  4  1  0  0  0  0
  6  1  1  0  0  0  0
  7  6  1  0  0  0  0
  8 13  1  0  0  0  0
  8  4  1  0  0  0  0
  9  8  2  0  0  0  0
 10 11  2  0  0  0  0
 10  9  1  0  0  0  0
 11 12  1  0  0  0  0
 12 17  1  0  0  0  0
 12 13  2  0  0  0  0
 14  9  1  0  0  0  0
 15 10  1  0  0  0  0
 16 11  1  0  0  0  0
 17 24  1  0  0  0  0
 18 17  2  0  0  0  0
 18 20  1  0  0  0  0
 19 18  1  0  0  0  0
 20 22  2  0  0  0  0
 21 20  1  0  0  0  0
 22 23  1  0  0  0  0
 24 23  2  0  0  0  0
 25 30  1  0  0  0  0
 25  1  1  0  0  0  0
 25 27  1  0  0  0  0
 26 25  1  0  0  0  0
 28 36  1  0  0  0  0
 29 28  1  0  0  0  0
 29 34  1  0  0  0  0
 30 29  2  0  0  0  0
 31 32  2  0  0  0  0
 31 30  1  0  0  0  0
 32 33  1  0  0  0  0
 33 28  2  0  0  0  0
 35 32  1  0  0  0  0
 36 38  1  0  0  0  0
 36 39  1  0  0  0  0
 37 36  1  0  0  0  0
 37 40  1  0  0  0  0
 37 38  1  0  0  0  0
 38 43  1  0  0  0  0
 41 37  1  0  0  0  0
 42 38  1  0  0  0  0
M  END
>  <minimizedAffinity>
-5.33393621

>  <minimizedRMSD>
1.76384342

$$$$
