
 OpenBabel03242510093D

 27 29  0  0  0  0  0  0  0  0999 V2000
   44.7630   32.9900   41.1740 Br  0  0  0  0  0  0  0  0  0  0  0  0
   46.4200   33.9390   40.9170 C   0  0  0  0  0  0  0  0  0  0  0  0
   46.9020   34.7450   41.9190 C   0  0  0  0  0  0  0  0  0  0  0  0
   48.1000   35.4400   41.7520 C   0  0  0  0  0  0  0  0  0  0  0  0
   48.7720   35.2910   40.5650 C   0  0  0  0  0  0  0  0  0  0  0  0
   48.2460   34.4740   39.5960 C   0  0  0  0  0  0  0  0  0  0  0  0
   47.0930   33.7870   39.7210 C   0  0  0  0  0  0  0  0  0  0  0  0
   48.4850   36.0730   42.5330 H   0  0  0  0  0  0  0  0  0  0  0  0
   49.7090   35.8230   40.4100 H   0  0  0  0  0  0  0  0  0  0  0  0
   48.8190   34.3950   38.6820 H   0  0  0  0  0  0  0  0  0  0  0  0
   45.6380   34.0410   45.2750 C   0  0  0  0  0  0  0  0  0  0  0  0
   44.7090   35.0930   45.4980 C   0  0  0  0  0  0  0  0  0  0  0  0
   44.5400   36.0290   44.4740 C   0  0  0  0  0  0  0  0  0  0  0  0
   45.2610   35.8880   43.3360 N   0  0  0  0  0  0  0  0  0  0  0  0
   46.1460   34.8630   43.1560 C   0  0  0  0  0  0  0  0  0  0  0  0
   46.3220   33.9500   44.1330 N   0  0  0  0  0  0  0  0  0  0  0  0
   45.7920   33.3000   46.0470 H   0  0  0  0  0  0  0  0  0  0  0  0
   44.1510   35.1710   46.4250 H   0  0  0  0  0  0  0  0  0  0  0  0
   43.8550   36.8520   44.5730 H   0  0  0  0  0  0  0  0  0  0  0  0
   46.5230   32.9210   38.7130 C   0  0  0  0  0  0  0  0  0  0  0  0
   45.7650   33.3880   37.6650 C   0  0  0  0  0  0  0  0  0  0  0  0
   45.5670   34.4440   37.5560 H   0  0  0  0  0  0  0  0  0  0  0  0
   45.2120   32.5600   36.6880 C   0  0  0  0  0  0  0  0  0  0  0  0
   44.6190   32.8910   35.8610 H   0  0  0  0  0  0  0  0  0  0  0  0
   45.4310   31.1970   36.7710 C   0  0  0  0  0  3  0  0  0  0  0  0
   46.1900   30.7400   37.8250 C   0  0  0  0  0  3  0  0  0  0  0  0
   46.6920   31.5990   38.7300 N   0  0  0  0  0  0  0  0  0  0  0  0
  2  1  1  0  0  0  0
  2  3  1  0  0  0  0
  3 15  1  0  0  0  0
  4  3  2  0  0  0  0
  4  8  1  0  0  0  0
  5  4  1  0  0  0  0
  6  7  1  0  0  0  0
  6  5  2  0  0  0  0
  7  2  2  0  0  0  0
  9  5  1  0  0  0  0
 10  6  1  0  0  0  0
 11 12  1  0  0  0  0
 11 17  1  0  0  0  0
 12 18  1  0  0  0  0
 13 19  1  0  0  0  0
 13 12  2  0  0  0  0
 14 13  1  0  0  0  0
 15 14  2  0  0  0  0
 15 16  1  0  0  0  0
 16 11  2  0  0  0  0
 20 27  1  0  0  0  0
 20  7  1  0  0  0  0
 21 20  2  0  0  0  0
 22 21  1  0  0  0  0
 23 25  2  0  0  0  0
 23 21  1  0  0  0  0
 24 23  1  0  0  0  0
 25 26  1  0  0  0  0
 26 27  2  0  0  0  0
M  END
>  <minimizedAffinity>
-5.3611722

>  <minimizedRMSD>
0.31236127

$$$$
