
 OpenBabel03242510093D

 27 29  0  0  0  0  0  0  0  0999 V2000
   44.7630   32.9900   41.1740 Br  0  0  0  0  0  0  0  0  0  0  0  0
   46.4210   33.9390   40.9170 C   0  0  0  0  0  0  0  0  0  0  0  0
   46.9030   34.7450   41.9190 C   0  0  0  0  0  0  0  0  0  0  0  0
   48.1010   35.4400   41.7520 C   0  0  0  0  0  0  0  0  0  0  0  0
   48.7720   35.2910   40.5650 C   0  0  0  0  0  0  0  0  0  0  0  0
   48.2470   34.4740   39.5960 C   0  0  0  0  0  0  0  0  0  0  0  0
   47.0930   33.7870   39.7200 C   0  0  0  0  0  0  0  0  0  0  0  0
   48.4850   36.0730   42.5330 H   0  0  0  0  0  0  0  0  0  0  0  0
   49.7090   35.8230   40.4100 H   0  0  0  0  0  0  0  0  0  0  0  0
   48.8200   34.3950   38.6820 H   0  0  0  0  0  0  0  0  0  0  0  0
   45.6380   34.0410   45.2750 C   0  0  0  0  0  0  0  0  0  0  0  0
   44.7090   35.0930   45.4980 C   0  0  0  0  0  0  0  0  0  0  0  0
   44.5400   36.0290   44.4740 C   0  0  0  0  0  0  0  0  0  0  0  0
   45.2610   35.8880   43.3360 N   0  0  0  0  0  0  0  0  0  0  0  0
   46.1460   34.8630   43.1560 C   0  0  0  0  0  0  0  0  0  0  0  0
   46.3220   33.9500   44.1330 N   0  0  0  0  0  0  0  0  0  0  0  0
   45.7920   33.3000   46.0470 H   0  0  0  0  0  0  0  0  0  0  0  0
   44.1510   35.1700   46.4250 H   0  0  0  0  0  0  0  0  0  0  0  0
   43.8550   36.8520   44.5730 H   0  0  0  0  0  0  0  0  0  0  0  0
   46.5230   32.9210   38.7130 C   0  0  0  0  0  0  0  0  0  0  0  0
   45.7670   33.3890   37.6640 C   0  0  0  0  0  0  0  0  0  0  0  0
   45.5680   34.4430   37.5550 H   0  0  0  0  0  0  0  0  0  0  0  0
   45.2140   32.5590   36.6890 C   0  0  0  0  0  0  0  0  0  0  0  0
   44.6200   32.8900   35.8610 H   0  0  0  0  0  0  0  0  0  0  0  0
   45.4320   31.1970   36.7720 C   0  0  0  0  0  3  0  0  0  0  0  0
   46.1910   30.7390   37.8250 C   0  0  0  0  0  3  0  0  0  0  0  0
   46.6930   31.5980   38.7300 N   0  0  0  0  0  0  0  0  0  0  0  0
  2  1  1  0  0  0  0
  2  3  1  0  0  0  0
  3 15  1  0  0  0  0
  4  3  2  0  0  0  0
  4  8  1  0  0  0  0
  5  4  1  0  0  0  0
  6  7  1  0  0  0  0
  6  5  2  0  0  0  0
  7  2  2  0  0  0  0
  9  5  1  0  0  0  0
 10  6  1  0  0  0  0
 11 12  1  0  0  0  0
 11 17  1  0  0  0  0
 12 18  1  0  0  0  0
 13 19  1  0  0  0  0
 13 12  2  0  0  0  0
 14 13  1  0  0  0  0
 15 14  2  0  0  0  0
 15 16  1  0  0  0  0
 16 11  2  0  0  0  0
 20 27  1  0  0  0  0
 20  7  1  0  0  0  0
 21 20  2  0  0  0  0
 22 21  1  0  0  0  0
 23 25  2  0  0  0  0
 23 21  1  0  0  0  0
 24 23  1  0  0  0  0
 25 26  1  0  0  0  0
 26 27  2  0  0  0  0
M  END
>  <minimizedAffinity>
-5.36383486

>  <minimizedRMSD>
0.236578748

$$$$
