
 OpenBabel03242510103D

 27 29  0  0  0  0  0  0  0  0999 V2000
   38.2800   28.3040   39.2230 Br  0  0  0  0  0  0  0  0  0  0  0  0
   37.7290   28.0390   41.0500 C   0  0  0  0  0  0  0  0  0  0  0  0
   37.4410   26.7730   41.4950 C   0  0  0  0  0  0  0  0  0  0  0  0
   37.0410   26.5610   42.8140 C   0  0  0  0  0  0  0  0  0  0  0  0
   36.9460   27.6510   43.6420 C   0  0  0  0  0  0  0  0  0  0  0  0
   37.2440   28.8960   43.1470 C   0  0  0  0  0  0  0  0  0  0  0  0
   37.6340   29.1390   41.8800 C   0  0  0  0  0  0  0  0  0  0  0  0
   36.8140   25.5710   43.1700 H   0  0  0  0  0  0  0  0  0  0  0  0
   36.6350   27.5120   44.6760 H   0  0  0  0  0  0  0  0  0  0  0  0
   37.1520   29.7170   43.8450 H   0  0  0  0  0  0  0  0  0  0  0  0
   38.8550   23.9540   39.6460 C   0  0  0  0  0  0  0  0  0  0  0  0
   37.7790   23.5400   38.8160 C   0  0  0  0  0  0  0  0  0  0  0  0
   36.5790   24.2500   38.9160 C   0  0  0  0  0  0  0  0  0  0  0  0
   36.5050   25.2840   39.7880 N   0  0  0  0  0  0  0  0  0  0  0  0
   37.5600   25.6560   40.5700 C   0  0  0  0  0  0  0  0  0  0  0  0
   38.7260   24.9820   40.4880 N   0  0  0  0  0  0  0  0  0  0  0  0
   39.7970   23.4260   39.5930 H   0  0  0  0  0  0  0  0  0  0  0  0
   37.8800   22.7040   38.1320 H   0  0  0  0  0  0  0  0  0  0  0  0
   35.7220   23.9910   38.3200 H   0  0  0  0  0  0  0  0  0  0  0  0
   37.9540   30.4420   41.3390 C   0  0  0  0  0  0  0  0  0  0  0  0
   37.0310   31.2340   40.6990 C   0  0  0  0  0  0  0  0  0  0  0  0
   36.0120   30.9030   40.5750 H   0  0  0  0  0  0  0  0  0  0  0  0
   37.3320   32.4920   40.1740 C   0  0  0  0  0  0  0  0  0  0  0  0
   36.6370   33.1330   39.6720 H   0  0  0  0  0  0  0  0  0  0  0  0
   38.6210   32.9730   40.3010 C   0  0  0  0  0  3  0  0  0  0  0  0
   39.5380   32.1720   40.9430 C   0  0  0  0  0  3  0  0  0  0  0  0
   39.1760   30.9690   41.4230 N   0  0  0  0  0  0  0  0  0  0  0  0
  1  2  1  0  0  0  0
  2  3  2  0  0  0  0
  2  7  1  0  0  0  0
  3  4  1  0  0  0  0
  4  8  1  0  0  0  0
  4  5  2  0  0  0  0
  5  9  1  0  0  0  0
  6  5  1  0  0  0  0
  6 10  1  0  0  0  0
  7  6  2  0  0  0  0
 11 16  1  0  0  0  0
 12 13  1  0  0  0  0
 12 11  2  0  0  0  0
 13 14  2  0  0  0  0
 14 15  1  0  0  0  0
 15  3  1  0  0  0  0
 16 15  2  0  0  0  0
 17 11  1  0  0  0  0
 18 12  1  0  0  0  0
 19 13  1  0  0  0  0
 20 27  1  0  0  0  0
 20  7  1  0  0  0  0
 21 20  2  0  0  0  0
 22 21  1  0  0  0  0
 23 25  2  0  0  0  0
 23 21  1  0  0  0  0
 24 23  1  0  0  0  0
 25 26  1  0  0  0  0
 26 27  2  0  0  0  0
M  END
>  <minimizedAffinity>
-4.9444685

$$$$

 OpenBabel03242510103D

 27 29  0  0  0  0  0  0  0  0999 V2000
   40.6800   29.5060   40.7040 Br  0  0  0  0  0  0  0  0  0  0  0  0
   38.8320   30.0440   40.7880 C   0  0  0  0  0  0  0  0  0  0  0  0
   38.4540   31.2540   40.2620 C   0  0  0  0  0  0  0  0  0  0  0  0
   37.1200   31.6620   40.3130 C   0  0  0  0  0  0  0  0  0  0  0  0
   36.2110   30.8190   40.9010 C   0  0  0  0  0  0  0  0  0  0  0  0
   36.6410   29.6210   41.4120 C   0  0  0  0  0  0  0  0  0  0  0  0
   37.9190   29.1930   41.3810 C   0  0  0  0  0  0  0  0  0  0  0  0
   36.8160   32.6090   39.9020 H   0  0  0  0  0  0  0  0  0  0  0  0
   35.1640   31.1150   40.9530 H   0  0  0  0  0  0  0  0  0  0  0  0
   35.8800   28.9990   41.8630 H   0  0  0  0  0  0  0  0  0  0  0  0
   40.7460   32.6650   37.7880 C   0  0  0  0  0  0  0  0  0  0  0  0
   41.3770   33.7210   38.4990 C   0  0  0  0  0  0  0  0  0  0  0  0
   40.9930   33.9230   39.8270 C   0  0  0  0  0  0  0  0  0  0  0  0
   40.0500   33.1120   40.3630 N   0  0  0  0  0  0  0  0  0  0  0  0
   39.4630   32.1050   39.6510 C   0  0  0  0  0  0  0  0  0  0  0  0
   39.8220   31.8950   38.3670 N   0  0  0  0  0  0  0  0  0  0  0  0
   41.0210   32.4820   36.7590 H   0  0  0  0  0  0  0  0  0  0  0  0
   42.1290   34.3490   38.0310 H   0  0  0  0  0  0  0  0  0  0  0  0
   41.4270   34.7040   40.4250 H   0  0  0  0  0  0  0  0  0  0  0  0
   38.3930   27.9350   41.9130 C   0  0  0  0  0  0  0  0  0  0  0  0
   38.9800   27.8180   43.1500 C   0  0  0  0  0  0  0  0  0  0  0  0
   39.1110   28.6830   43.7820 H   0  0  0  0  0  0  0  0  0  0  0  0
   39.4400   26.6080   43.6700 C   0  0  0  0  0  0  0  0  0  0  0  0
   39.9000   26.4830   44.6280 H   0  0  0  0  0  0  0  0  0  0  0  0
   39.3010   25.4630   42.9080 C   0  0  0  0  0  3  0  0  0  0  0  0
   38.7140   25.5900   41.6710 C   0  0  0  0  0  3  0  0  0  0  0  0
   38.2940   26.7910   41.2340 N   0  0  0  0  0  0  0  0  0  0  0  0
  1  2  1  0  0  0  0
  2  7  1  0  0  0  0
  3  4  1  0  0  0  0
  3  2  2  0  0  0  0
  4  5  2  0  0  0  0
  5  9  1  0  0  0  0
  5  6  1  0  0  0  0
  6 10  1  0  0  0  0
  7  6  2  0  0  0  0
  7 20  1  0  0  0  0
  8  4  1  0  0  0  0
 11 16  2  0  0  0  0
 11 12  1  0  0  0  0
 12 13  2  0  0  0  0
 13 14  1  0  0  0  0
 13 19  1  0  0  0  0
 15  3  1  0  0  0  0
 15 14  2  0  0  0  0
 16 15  1  0  0  0  0
 17 11  1  0  0  0  0
 18 12  1  0  0  0  0
 20 21  1  0  0  0  0
 21 23  2  0  0  0  0
 21 22  1  0  0  0  0
 23 24  1  0  0  0  0
 25 23  1  0  0  0  0
 26 25  2  0  0  0  0
 27 26  1  0  0  0  0
 27 20  2  0  0  0  0
M  END
>  <minimizedAffinity>
-4.90452528

$$$$

 OpenBabel03242510103D

 27 29  0  0  0  0  0  0  0  0999 V2000
   40.4830   30.3720   40.8400 Br  0  0  0  0  0  0  0  0  0  0  0  0
   38.8490   30.5190   39.8310 C   0  0  0  0  0  0  0  0  0  0  0  0
   38.7810   31.3900   38.7730 C   0  0  0  0  0  0  0  0  0  0  0  0
   37.6060   31.5110   38.0300 C   0  0  0  0  0  0  0  0  0  0  0  0
   36.5330   30.7360   38.3910 C   0  0  0  0  0  0  0  0  0  0  0  0
   36.6530   29.8810   39.4570 C   0  0  0  0  0  0  0  0  0  0  0  0
   37.7710   29.7370   40.1980 C   0  0  0  0  0  0  0  0  0  0  0  0
   37.5460   32.1920   37.1990 H   0  0  0  0  0  0  0  0  0  0  0  0
   35.6050   30.8120   37.8270 H   0  0  0  0  0  0  0  0  0  0  0  0
   35.7750   29.2950   39.6950 H   0  0  0  0  0  0  0  0  0  0  0  0
   41.2390   34.0960   38.7890 C   0  0  0  0  0  0  0  0  0  0  0  0
   42.1730   33.6900   37.7980 C   0  0  0  0  0  0  0  0  0  0  0  0
   41.9290   32.4810   37.1420 C   0  0  0  0  0  0  0  0  0  0  0  0
   40.8290   31.7650   37.4800 N   0  0  0  0  0  0  0  0  0  0  0  0
   39.9520   32.1860   38.4380 C   0  0  0  0  0  0  0  0  0  0  0  0
   40.1710   33.3510   39.0820 N   0  0  0  0  0  0  0  0  0  0  0  0
   41.3980   35.0270   39.3150 H   0  0  0  0  0  0  0  0  0  0  0  0
   43.0420   34.2930   37.5580 H   0  0  0  0  0  0  0  0  0  0  0  0
   42.5940   32.1100   36.3820 H   0  0  0  0  0  0  0  0  0  0  0  0
   37.9180   28.8420   41.3240 C   0  0  0  0  0  0  0  0  0  0  0  0
   37.4460   29.1360   42.5810 C   0  0  0  0  0  0  0  0  0  0  0  0
   36.9370   30.0670   42.7750 H   0  0  0  0  0  0  0  0  0  0  0  0
   37.5840   28.2770   43.6730 C   0  0  0  0  0  0  0  0  0  0  0  0
   37.2280   28.4760   44.6620 H   0  0  0  0  0  0  0  0  0  0  0  0
   38.2270   27.0680   43.4890 C   0  0  0  0  0  3  0  0  0  0  0  0
   38.6980   26.7840   42.2270 C   0  0  0  0  0  3  0  0  0  0  0  0
   38.5280   27.6610   41.2220 N   0  0  0  0  0  0  0  0  0  0  0  0
  2  7  1  0  0  0  0
  2  1  1  0  0  0  0
  3  2  2  0  0  0  0
  4  5  2  0  0  0  0
  4  3  1  0  0  0  0
  5  6  1  0  0  0  0
  6 10  1  0  0  0  0
  6  7  2  0  0  0  0
  7 20  1  0  0  0  0
  8  4  1  0  0  0  0
  9  5  1  0  0  0  0
 11 16  1  0  0  0  0
 11 17  1  0  0  0  0
 12 11  2  0  0  0  0
 13 14  2  0  0  0  0
 13 12  1  0  0  0  0
 14 15  1  0  0  0  0
 15  3  1  0  0  0  0
 15 16  2  0  0  0  0
 18 12  1  0  0  0  0
 19 13  1  0  0  0  0
 20 21  1  0  0  0  0
 21 22  1  0  0  0  0
 21 23  2  0  0  0  0
 23 24  1  0  0  0  0
 25 23  1  0  0  0  0
 26 25  2  0  0  0  0
 27 20  2  0  0  0  0
 27 26  1  0  0  0  0
M  END
>  <minimizedAffinity>
-4.90221357

$$$$

 OpenBabel03242510103D

 27 29  0  0  0  0  0  0  0  0999 V2000
   38.3150   28.2740   39.2480 Br  0  0  0  0  0  0  0  0  0  0  0  0
   37.7740   27.9790   41.0740 C   0  0  0  0  0  0  0  0  0  0  0  0
   37.7220   29.0370   41.9460 C   0  0  0  0  0  0  0  0  0  0  0  0
   37.3330   28.8430   43.2710 C   0  0  0  0  0  0  0  0  0  0  0  0
   37.0070   27.5700   43.6670 C   0  0  0  0  0  0  0  0  0  0  0  0
   37.0760   26.5470   42.7560 C   0  0  0  0  0  0  0  0  0  0  0  0
   37.4470   26.6960   41.4690 C   0  0  0  0  0  0  0  0  0  0  0  0
   37.2890   29.6680   43.9610 H   0  0  0  0  0  0  0  0  0  0  0  0
   36.7000   27.3930   44.6970 H   0  0  0  0  0  0  0  0  0  0  0  0
   36.8080   25.5660   43.1250 H   0  0  0  0  0  0  0  0  0  0  0  0
   39.6840   32.0340   41.2170 C   0  0  0  0  0  0  0  0  0  0  0  0
   38.7500   32.8790   40.5590 C   0  0  0  0  0  0  0  0  0  0  0  0
   37.4540   32.3900   40.3810 C   0  0  0  0  0  0  0  0  0  0  0  0
   37.1570   31.1500   40.8390 N   0  0  0  0  0  0  0  0  0  0  0  0
   38.0800   30.3640   41.4680 C   0  0  0  0  0  0  0  0  0  0  0  0
   39.3360   30.8200   41.6480 N   0  0  0  0  0  0  0  0  0  0  0  0
   40.6960   32.3830   41.3710 H   0  0  0  0  0  0  0  0  0  0  0  0
   39.0300   33.8670   40.2070 H   0  0  0  0  0  0  0  0  0  0  0  0
   36.6950   32.9740   39.8910 H   0  0  0  0  0  0  0  0  0  0  0  0
   37.5260   25.6320   40.4930 C   0  0  0  0  0  0  0  0  0  0  0  0
   36.4590   25.2460   39.7170 C   0  0  0  0  0  0  0  0  0  0  0  0
   35.5030   25.7380   39.8110 H   0  0  0  0  0  0  0  0  0  0  0  0
   36.5270   24.2210   38.7730 C   0  0  0  0  0  0  0  0  0  0  0  0
   35.7160   23.8980   38.1530 H   0  0  0  0  0  0  0  0  0  0  0  0
   37.7250   23.5530   38.6040 C   0  0  0  0  0  3  0  0  0  0  0  0
   38.7870   23.9440   39.3860 C   0  0  0  0  0  3  0  0  0  0  0  0
   38.6470   24.9430   40.2770 N   0  0  0  0  0  0  0  0  0  0  0  0
  1  2  1  0  0  0  0
  2  7  2  0  0  0  0
  2  3  1  0  0  0  0
  3  4  2  0  0  0  0
  4  5  1  0  0  0  0
  4  8  1  0  0  0  0
  5  9  1  0  0  0  0
  6 10  1  0  0  0  0
  6  5  2  0  0  0  0
  7  6  1  0  0  0  0
 11 17  1  0  0  0  0
 11 16  1  0  0  0  0
 12 11  2  0  0  0  0
 13 12  1  0  0  0  0
 13 14  2  0  0  0  0
 14 15  1  0  0  0  0
 15 16  2  0  0  0  0
 15  3  1  0  0  0  0
 18 12  1  0  0  0  0
 19 13  1  0  0  0  0
 20  7  1  0  0  0  0
 21 22  1  0  0  0  0
 21 20  2  0  0  0  0
 23 21  1  0  0  0  0
 24 23  1  0  0  0  0
 25 23  2  0  0  0  0
 25 26  1  0  0  0  0
 26 27  2  0  0  0  0
 27 20  1  0  0  0  0
M  END
>  <minimizedAffinity>
-4.89158535

$$$$

 OpenBabel03242510103D

 27 29  0  0  0  0  0  0  0  0999 V2000
   37.2100   30.7900   38.3410 Br  0  0  0  0  0  0  0  0  0  0  0  0
   37.2160   29.9380   40.0690 C   0  0  0  0  0  0  0  0  0  0  0  0
   38.0580   30.4000   41.0500 C   0  0  0  0  0  0  0  0  0  0  0  0
   38.0770   29.7960   42.3070 C   0  0  0  0  0  0  0  0  0  0  0  0
   37.2340   28.7360   42.5260 C   0  0  0  0  0  0  0  0  0  0  0  0
   36.4130   28.3130   41.5120 C   0  0  0  0  0  0  0  0  0  0  0  0
   36.3660   28.8710   40.2850 C   0  0  0  0  0  0  0  0  0  0  0  0
   38.7350   30.1530   43.0810 H   0  0  0  0  0  0  0  0  0  0  0  0
   37.2300   28.2480   43.4990 H   0  0  0  0  0  0  0  0  0  0  0  0
   35.7700   27.4740   41.7420 H   0  0  0  0  0  0  0  0  0  0  0  0
   41.0150   32.3220   40.0870 C   0  0  0  0  0  0  0  0  0  0  0  0
   40.5770   33.6690   40.2080 C   0  0  0  0  0  0  0  0  0  0  0  0
   39.2600   33.8830   40.6220 C   0  0  0  0  0  0  0  0  0  0  0  0
   38.4770   32.8090   40.8850 N   0  0  0  0  0  0  0  0  0  0  0  0
   38.9300   31.5270   40.7580 C   0  0  0  0  0  0  0  0  0  0  0  0
   40.1990   31.3010   40.3590 N   0  0  0  0  0  0  0  0  0  0  0  0
   42.0280   32.1220   39.7690 H   0  0  0  0  0  0  0  0  0  0  0  0
   41.2370   34.5010   39.9870 H   0  0  0  0  0  0  0  0  0  0  0  0
   38.8610   34.8750   40.7340 H   0  0  0  0  0  0  0  0  0  0  0  0
   35.5080   28.4420   39.2030 C   0  0  0  0  0  0  0  0  0  0  0  0
   34.3210   29.0630   38.8970 C   0  0  0  0  0  0  0  0  0  0  0  0
   33.9800   29.9130   39.4680 H   0  0  0  0  0  0  0  0  0  0  0  0
   33.4870   28.6540   37.8550 C   0  0  0  0  0  0  0  0  0  0  0  0
   32.5580   29.1160   37.5910 H   0  0  0  0  0  0  0  0  0  0  0  0
   33.8680   27.5710   37.0870 C   0  0  0  0  0  3  0  0  0  0  0  0
   35.0570   26.9550   37.4020 C   0  0  0  0  0  3  0  0  0  0  0  0
   35.8100   27.4040   38.4220 N   0  0  0  0  0  0  0  0  0  0  0  0
  1  2  1  0  0  0  0
  2  7  2  0  0  0  0
  2  3  1  0  0  0  0
  3  4  2  0  0  0  0
  4  5  1  0  0  0  0
  4  8  1  0  0  0  0
  5  9  1  0  0  0  0
  6 10  1  0  0  0  0
  6  5  2  0  0  0  0
  7  6  1  0  0  0  0
 11 12  2  0  0  0  0
 11 16  1  0  0  0  0
 12 13  1  0  0  0  0
 13 19  1  0  0  0  0
 13 14  2  0  0  0  0
 15 14  1  0  0  0  0
 15  3  1  0  0  0  0
 16 15  2  0  0  0  0
 17 11  1  0  0  0  0
 18 12  1  0  0  0  0
 20  7  1  0  0  0  0
 21 20  1  0  0  0  0
 21 22  1  0  0  0  0
 23 21  2  0  0  0  0
 24 23  1  0  0  0  0
 25 26  2  0  0  0  0
 25 23  1  0  0  0  0
 26 27  1  0  0  0  0
 27 20  2  0  0  0  0
M  END
>  <minimizedAffinity>
-4.80309486

$$$$

 OpenBabel03242510103D

 27 29  0  0  0  0  0  0  0  0999 V2000
   40.5560   30.4760   40.8820 Br  0  0  0  0  0  0  0  0  0  0  0  0
   38.9220   30.5440   39.8650 C   0  0  0  0  0  0  0  0  0  0  0  0
   37.8610   29.7550   40.2340 C   0  0  0  0  0  0  0  0  0  0  0  0
   36.6690   29.7900   39.5090 C   0  0  0  0  0  0  0  0  0  0  0  0
   36.5960   30.6310   38.4280 C   0  0  0  0  0  0  0  0  0  0  0  0
   37.6860   31.3980   38.1020 C   0  0  0  0  0  0  0  0  0  0  0  0
   38.8530   31.3920   38.7770 C   0  0  0  0  0  0  0  0  0  0  0  0
   35.8320   29.1750   39.7930 H   0  0  0  0  0  0  0  0  0  0  0  0
   35.6770   30.6770   37.8460 H   0  0  0  0  0  0  0  0  0  0  0  0
   37.5700   32.0420   37.2400 H   0  0  0  0  0  0  0  0  0  0  0  0
   37.7360   28.5420   43.6800 C   0  0  0  0  0  0  0  0  0  0  0  0
   38.2580   27.2250   43.5770 C   0  0  0  0  0  0  0  0  0  0  0  0
   38.6440   26.7820   42.3090 C   0  0  0  0  0  0  0  0  0  0  0  0
   38.5030   27.6220   41.2550 N   0  0  0  0  0  0  0  0  0  0  0  0
   37.9970   28.8830   41.3900 C   0  0  0  0  0  0  0  0  0  0  0  0
   37.6190   29.3270   42.6060 N   0  0  0  0  0  0  0  0  0  0  0  0
   37.4290   28.9150   44.6460 H   0  0  0  0  0  0  0  0  0  0  0  0
   38.3540   26.5840   44.4470 H   0  0  0  0  0  0  0  0  0  0  0  0
   39.0470   25.7970   42.1560 H   0  0  0  0  0  0  0  0  0  0  0  0
   40.0120   32.1920   38.4500 C   0  0  0  0  0  0  0  0  0  0  0  0
   40.3000   33.3830   39.0730 C   0  0  0  0  0  0  0  0  0  0  0  0
   39.6550   33.7700   39.8470 H   0  0  0  0  0  0  0  0  0  0  0  0
   41.4170   34.1600   38.7640 C   0  0  0  0  0  0  0  0  0  0  0  0
   41.6700   35.0900   39.2300 H   0  0  0  0  0  0  0  0  0  0  0  0
   42.2820   33.7180   37.7820 C   0  0  0  0  0  3  0  0  0  0  0  0
   41.9840   32.5260   37.1620 C   0  0  0  0  0  3  0  0  0  0  0  0
   40.8890   31.8290   37.5130 N   0  0  0  0  0  0  0  0  0  0  0  0
  2  3  1  0  0  0  0
  2  1  1  0  0  0  0
  3 15  1  0  0  0  0
  4  8  1  0  0  0  0
  4  3  2  0  0  0  0
  5  4  1  0  0  0  0
  6  5  2  0  0  0  0
  6  7  1  0  0  0  0
  7  2  2  0  0  0  0
  9  5  1  0  0  0  0
 10  6  1  0  0  0  0
 11 17  1  0  0  0  0
 12 11  1  0  0  0  0
 12 18  1  0  0  0  0
 13 12  2  0  0  0  0
 14 15  2  0  0  0  0
 14 13  1  0  0  0  0
 15 16  1  0  0  0  0
 16 11  2  0  0  0  0
 19 13  1  0  0  0  0
 20  7  1  0  0  0  0
 20 21  1  0  0  0  0
 21 22  1  0  0  0  0
 23 21  2  0  0  0  0
 23 24  1  0  0  0  0
 25 23  1  0  0  0  0
 26 27  1  0  0  0  0
 26 25  2  0  0  0  0
 27 20  2  0  0  0  0
M  END
>  <minimizedAffinity>
-4.7676959

$$$$

 OpenBabel03242510103D

 27 29  0  0  0  0  0  0  0  0999 V2000
   36.8060   27.5290   39.3210 Br  0  0  0  0  0  0  0  0  0  0  0  0
   37.1090   29.4220   39.5120 C   0  0  0  0  0  0  0  0  0  0  0  0
   37.6990   29.9030   40.6540 C   0  0  0  0  0  0  0  0  0  0  0  0
   37.9260   31.2710   40.8110 C   0  0  0  0  0  0  0  0  0  0  0  0
   37.5420   32.1090   39.7940 C   0  0  0  0  0  0  0  0  0  0  0  0
   36.9560   31.5770   38.6740 C   0  0  0  0  0  0  0  0  0  0  0  0
   36.7200   30.2630   38.4870 C   0  0  0  0  0  0  0  0  0  0  0  0
   38.3890   31.6550   41.7040 H   0  0  0  0  0  0  0  0  0  0  0  0
   37.7090   33.1800   39.8930 H   0  0  0  0  0  0  0  0  0  0  0  0
   36.6740   32.2850   37.9060 H   0  0  0  0  0  0  0  0  0  0  0  0
   39.6930   27.5620   42.6310 C   0  0  0  0  0  0  0  0  0  0  0  0
   38.8090   27.1910   43.6800 C   0  0  0  0  0  0  0  0  0  0  0  0
   37.5340   27.7630   43.6790 C   0  0  0  0  0  0  0  0  0  0  0  0
   37.2090   28.6320   42.6920 N   0  0  0  0  0  0  0  0  0  0  0  0
   38.0840   28.9660   41.6980 C   0  0  0  0  0  0  0  0  0  0  0  0
   39.3200   28.4240   41.6820 N   0  0  0  0  0  0  0  0  0  0  0  0
   40.6860   27.1370   42.6020 H   0  0  0  0  0  0  0  0  0  0  0  0
   39.1080   26.4910   44.4530 H   0  0  0  0  0  0  0  0  0  0  0  0
   36.8130   27.5290   44.4420 H   0  0  0  0  0  0  0  0  0  0  0  0
   36.1040   29.6820   37.3140 C   0  0  0  0  0  0  0  0  0  0  0  0
   36.7790   29.4860   36.1330 C   0  0  0  0  0  0  0  0  0  0  0  0
   37.8170   29.7650   36.0380 H   0  0  0  0  0  0  0  0  0  0  0  0
   36.1920   28.9270   34.9970 C   0  0  0  0  0  0  0  0  0  0  0  0
   36.6890   28.7600   34.0640 H   0  0  0  0  0  0  0  0  0  0  0  0
   34.8640   28.5480   35.0550 C   0  0  0  0  0  3  0  0  0  0  0  0
   34.1970   28.7490   36.2420 C   0  0  0  0  0  3  0  0  0  0  0  0
   34.8290   29.2950   37.2960 N   0  0  0  0  0  0  0  0  0  0  0  0
  1  2  1  0  0  0  0
  2  3  1  0  0  0  0
  3  4  2  0  0  0  0
  3 15  1  0  0  0  0
  4  8  1  0  0  0  0
  5  9  1  0  0  0  0
  5  4  1  0  0  0  0
  6  5  2  0  0  0  0
  7  6  1  0  0  0  0
  7  2  2  0  0  0  0
 10  6  1  0  0  0  0
 11 12  1  0  0  0  0
 12 18  1  0  0  0  0
 13 12  2  0  0  0  0
 13 19  1  0  0  0  0
 14 13  1  0  0  0  0
 15 14  2  0  0  0  0
 16 15  1  0  0  0  0
 16 11  2  0  0  0  0
 17 11  1  0  0  0  0
 20  7  1  0  0  0  0
 21 20  2  0  0  0  0
 22 21  1  0  0  0  0
 23 25  2  0  0  0  0
 23 21  1  0  0  0  0
 24 23  1  0  0  0  0
 25 26  1  0  0  0  0
 26 27  2  0  0  0  0
 27 20  1  0  0  0  0
M  END
>  <minimizedAffinity>
-4.76048422

$$$$

 OpenBabel03242510103D

 27 29  0  0  0  0  0  0  0  0999 V2000
   38.7080   29.3430   39.6780 Br  0  0  0  0  0  0  0  0  0  0  0  0
   38.0030   28.6450   41.3290 C   0  0  0  0  0  0  0  0  0  0  0  0
   38.7560   28.7210   42.4740 C   0  0  0  0  0  0  0  0  0  0  0  0
   38.2630   28.2210   43.6790 C   0  0  0  0  0  0  0  0  0  0  0  0
   37.0120   27.6570   43.6790 C   0  0  0  0  0  0  0  0  0  0  0  0
   36.3010   27.6060   42.5070 C   0  0  0  0  0  0  0  0  0  0  0  0
   36.7430   28.0780   41.3250 C   0  0  0  0  0  0  0  0  0  0  0  0
   38.8480   28.2780   44.5810 H   0  0  0  0  0  0  0  0  0  0  0  0
   36.6050   27.2600   44.6080 H   0  0  0  0  0  0  0  0  0  0  0  0
   35.3210   27.1500   42.5690 H   0  0  0  0  0  0  0  0  0  0  0  0
   42.3760   29.0940   42.1290 C   0  0  0  0  0  0  0  0  0  0  0  0
   42.5740   30.4910   42.2950 C   0  0  0  0  0  0  0  0  0  0  0  0
   41.4430   31.2790   42.5230 C   0  0  0  0  0  0  0  0  0  0  0  0
   40.2300   30.6780   42.5750 N   0  0  0  0  0  0  0  0  0  0  0  0
   40.0760   29.3310   42.4120 C   0  0  0  0  0  0  0  0  0  0  0  0
   41.1570   28.5540   42.1900 N   0  0  0  0  0  0  0  0  0  0  0  0
   43.2310   28.4570   41.9510 H   0  0  0  0  0  0  0  0  0  0  0  0
   43.5640   30.9330   42.2450 H   0  0  0  0  0  0  0  0  0  0  0  0
   41.5170   32.3430   42.6570 H   0  0  0  0  0  0  0  0  0  0  0  0
   36.0100   28.0340   40.0790 C   0  0  0  0  0  0  0  0  0  0  0  0
   35.0640   28.9690   39.7340 C   0  0  0  0  0  0  0  0  0  0  0  0
   34.8310   29.7890   40.3960 H   0  0  0  0  0  0  0  0  0  0  0  0
   34.3520   28.9330   38.5340 C   0  0  0  0  0  0  0  0  0  0  0  0
   33.6110   29.6450   38.2350 H   0  0  0  0  0  0  0  0  0  0  0  0
   34.6050   27.9080   37.6430 C   0  0  0  0  0  3  0  0  0  0  0  0
   35.5530   26.9760   37.9980 C   0  0  0  0  0  3  0  0  0  0  0  0
   36.2000   27.0740   39.1730 N   0  0  0  0  0  0  0  0  0  0  0  0
  1  2  1  0  0  0  0
  2  3  1  0  0  0  0
  3  4  2  0  0  0  0
  4  8  1  0  0  0  0
  5  4  1  0  0  0  0
  5  9  1  0  0  0  0
  6 10  1  0  0  0  0
  6  5  2  0  0  0  0
  7  2  2  0  0  0  0
  7  6  1  0  0  0  0
 11 16  2  0  0  0  0
 11 12  1  0  0  0  0
 12 13  2  0  0  0  0
 13 14  1  0  0  0  0
 13 19  1  0  0  0  0
 15  3  1  0  0  0  0
 15 14  2  0  0  0  0
 16 15  1  0  0  0  0
 17 11  1  0  0  0  0
 18 12  1  0  0  0  0
 20  7  1  0  0  0  0
 21 20  1  0  0  0  0
 21 22  1  0  0  0  0
 23 21  2  0  0  0  0
 24 23  1  0  0  0  0
 25 26  2  0  0  0  0
 25 23  1  0  0  0  0
 26 27  1  0  0  0  0
 27 20  2  0  0  0  0
M  END
>  <minimizedAffinity>
-4.74575281

$$$$

 OpenBabel03242510103D

 27 29  0  0  0  0  0  0  0  0999 V2000
   37.6240   30.9180   37.0720 Br  0  0  0  0  0  0  0  0  0  0  0  0
   36.5470   30.1930   38.4950 C   0  0  0  0  0  0  0  0  0  0  0  0
   35.6670   29.1740   38.2270 C   0  0  0  0  0  0  0  0  0  0  0  0
   34.8770   28.6360   39.2440 C   0  0  0  0  0  0  0  0  0  0  0  0
   35.0110   29.1560   40.5070 C   0  0  0  0  0  0  0  0  0  0  0  0
   35.9050   30.1740   40.7210 C   0  0  0  0  0  0  0  0  0  0  0  0
   36.6840   30.7190   39.7650 C   0  0  0  0  0  0  0  0  0  0  0  0
   34.1850   27.8370   39.0420 H   0  0  0  0  0  0  0  0  0  0  0  0
   34.4060   28.7530   41.3180 H   0  0  0  0  0  0  0  0  0  0  0  0
   35.9670   30.5430   41.7360 H   0  0  0  0  0  0  0  0  0  0  0  0
   36.3310   27.2050   35.2200 C   0  0  0  0  0  0  0  0  0  0  0  0
   35.3780   27.7020   34.2910 C   0  0  0  0  0  0  0  0  0  0  0  0
   34.5210   28.7150   34.7290 C   0  0  0  0  0  0  0  0  0  0  0  0
   34.6400   29.1650   36.0010 N   0  0  0  0  0  0  0  0  0  0  0  0
   35.5690   28.6650   36.8680 C   0  0  0  0  0  0  0  0  0  0  0  0
   36.4050   27.6870   36.4630 N   0  0  0  0  0  0  0  0  0  0  0  0
   37.0100   26.4220   34.9130 H   0  0  0  0  0  0  0  0  0  0  0  0
   35.3150   27.3130   33.2800 H   0  0  0  0  0  0  0  0  0  0  0  0
   33.7740   29.1380   34.0810 H   0  0  0  0  0  0  0  0  0  0  0  0
   37.6320   31.7920   39.9690 C   0  0  0  0  0  0  0  0  0  0  0  0
   37.3060   33.1180   39.8200 C   0  0  0  0  0  0  0  0  0  0  0  0
   36.3060   33.4120   39.5390 H   0  0  0  0  0  0  0  0  0  0  0  0
   38.2150   34.1590   40.0160 C   0  0  0  0  0  0  0  0  0  0  0  0
   37.9930   35.2010   39.9090 H   0  0  0  0  0  0  0  0  0  0  0  0
   39.5110   33.8480   40.3770 C   0  0  0  0  0  3  0  0  0  0  0  0
   39.8290   32.5170   40.5220 C   0  0  0  0  0  3  0  0  0  0  0  0
   38.8990   31.5670   40.3170 N   0  0  0  0  0  0  0  0  0  0  0  0
  1  2  1  0  0  0  0
  2  7  1  0  0  0  0
  3  2  2  0  0  0  0
  3  4  1  0  0  0  0
  4  5  2  0  0  0  0
  5  6  1  0  0  0  0
  5  9  1  0  0  0  0
  6 10  1  0  0  0  0
  7 20  1  0  0  0  0
  7  6  2  0  0  0  0
  8  4  1  0  0  0  0
 11 16  1  0  0  0  0
 12 13  1  0  0  0  0
 12 11  2  0  0  0  0
 13 14  2  0  0  0  0
 14 15  1  0  0  0  0
 15  3  1  0  0  0  0
 16 15  2  0  0  0  0
 17 11  1  0  0  0  0
 18 12  1  0  0  0  0
 19 13  1  0  0  0  0
 20 27  1  0  0  0  0
 21 20  2  0  0  0  0
 21 23  1  0  0  0  0
 22 21  1  0  0  0  0
 23 25  2  0  0  0  0
 24 23  1  0  0  0  0
 25 26  1  0  0  0  0
 27 26  2  0  0  0  0
M  END
>  <minimizedAffinity>
-4.73847437

$$$$
