
 OpenBabel03242523173D

 26 28  0  0  0  0  0  0  0  0999 V2000
   36.2970   27.7990   40.0140 C   0  0  0  0  0  0  0  0  0  0  0  0
   36.9020   27.4230   41.1690 C   0  0  0  0  0  0  0  0  0  0  0  0
   37.8470   26.4320   41.0470 C   0  0  0  0  0  0  0  0  0  0  0  0
   38.1100   25.9010   39.7880 N   0  0  0  0  0  0  0  0  0  0  0  0
   37.4800   26.3140   38.6940 C   0  0  0  0  0  0  0  0  0  0  0  0
   36.5360   27.2940   38.7800 N   0  0  0  0  0  0  0  0  0  0  0  0
   38.4160   26.0260   41.8830 H   0  0  0  0  0  0  0  0  0  0  0  0
   37.7760   25.8190   37.7770 H   0  0  0  0  0  0  0  0  0  0  0  0
   36.6040   27.9170   42.4600 C   0  0  0  0  0  0  0  0  0  0  0  0
   37.0900   27.5770   43.6800 C   0  0  0  0  0  0  0  0  0  0  0  0
   37.6220   28.9110   43.1620 C   0  0  0  0  0  0  0  0  0  0  0  0
   35.7030   28.6750   42.3460 H   0  0  0  0  0  0  0  0  0  0  0  0
   36.5240   27.6280   44.6570 H   0  0  0  0  0  0  0  0  0  0  0  0
   37.9220   26.8280   43.7980 H   0  0  0  0  0  0  0  0  0  0  0  0
   38.5950   28.9740   42.6740 H   0  0  0  0  0  0  0  0  0  0  0  0
   37.2320   29.7940   43.6650 H   0  0  0  0  0  0  0  0  0  0  0  0
   35.3470   28.9150   39.8650 C   0  0  0  0  0  0  0  0  0  0  0  0
   34.1370   29.2380   39.9170 O   0  0  0  0  0  0  0  0  0  0  0  0
   36.1530   30.1310   39.5100 C   0  0  0  0  0  0  0  0  0  0  0  0
   36.4760   31.0600   40.5050 C   0  0  0  0  0  0  0  0  0  0  0  0
   36.1730   30.9550   41.5380 H   0  0  0  0  0  0  0  0  0  0  0  0
   37.2190   32.2270   40.3010 C   0  0  0  0  0  0  0  0  0  0  0  0
   37.4470   32.9190   41.0900 H   0  0  0  0  0  0  0  0  0  0  0  0
   37.6650   32.4830   39.0380 C   0  0  0  0  0  3  0  0  0  0  0  0
   37.3410   31.5640   38.0740 C   0  0  0  0  0  3  0  0  0  0  0  0
   36.6270   30.4630   38.3220 N   0  0  0  0  0  0  0  0  0  0  0  0
  1  2  1  0  0  0  0
  2  9  1  0  0  0  0
  3  2  2  0  0  0  0
  3  7  1  0  0  0  0
  4  3  1  0  0  0  0
  5  6  1  0  0  0  0
  5  4  2  0  0  0  0
  6  1  2  0  0  0  0
  8  5  1  0  0  0  0
  9 11  1  0  0  0  0
  9 10  1  0  0  0  0
 10 14  1  0  0  0  0
 10 13  1  0  0  0  0
 11 16  1  0  0  0  0
 11 10  1  0  0  0  0
 12  9  1  0  0  0  0
 15 11  1  0  0  0  0
 17 18  2  0  0  0  0
 17  1  1  0  0  0  0
 19 17  1  0  0  0  0
 19 20  1  0  0  0  0
 20 21  1  0  0  0  0
 22 20  2  0  0  0  0
 22 23  1  0  0  0  0
 24 22  1  0  0  0  0
 25 26  1  0  0  0  0
 25 24  2  0  0  0  0
 26 19  2  0  0  0  0
M  END
>  <minimizedAffinity>
-4.75238609

$$$$

 OpenBabel03242523173D

 26 28  0  0  0  0  0  0  0  0999 V2000
   38.4000   30.4840   39.5580 C   0  0  0  0  0  0  0  0  0  0  0  0
   38.9260   31.7330   39.6390 C   0  0  0  0  0  0  0  0  0  0  0  0
   40.1540   31.8960   39.0430 C   0  0  0  0  0  0  0  0  0  0  0  0
   40.7520   30.8060   38.4180 N   0  0  0  0  0  0  0  0  0  0  0  0
   40.1820   29.6080   38.3750 C   0  0  0  0  0  0  0  0  0  0  0  0
   38.9650   29.4100   38.9570 N   0  0  0  0  0  0  0  0  0  0  0  0
   40.7020   32.8380   39.0240 H   0  0  0  0  0  0  0  0  0  0  0  0
   40.7520   28.8450   37.8590 H   0  0  0  0  0  0  0  0  0  0  0  0
   38.3530   32.8320   40.3180 C   0  0  0  0  0  0  0  0  0  0  0  0
   38.6240   34.1600   40.2540 C   0  0  0  0  0  0  0  0  0  0  0  0
   37.3280   33.7670   39.5490 C   0  0  0  0  0  0  0  0  0  0  0  0
   37.5950   32.3960   41.1150 H   0  0  0  0  0  0  0  0  0  0  0  0
   38.5090   34.9010   41.1010 H   0  0  0  0  0  0  0  0  0  0  0  0
   39.3720   34.5770   39.5240 H   0  0  0  0  0  0  0  0  0  0  0  0
   37.3030   33.6130   38.4700 H   0  0  0  0  0  0  0  0  0  0  0  0
   36.4130   34.0710   40.0540 H   0  0  0  0  0  0  0  0  0  0  0  0
   37.0540   30.0880   40.0080 C   0  0  0  0  0  0  0  0  0  0  0  0
   35.8320   30.1330   39.7310 O   0  0  0  0  0  0  0  0  0  0  0  0
   37.2260   29.3470   41.3030 C   0  0  0  0  0  0  0  0  0  0  0  0
   36.4770   28.1890   41.5400 C   0  0  0  0  0  0  0  0  0  0  0  0
   35.7650   27.7860   40.8340 H   0  0  0  0  0  0  0  0  0  0  0  0
   36.5480   27.4140   42.7020 C   0  0  0  0  0  0  0  0  0  0  0  0
   35.9560   26.5300   42.8510 H   0  0  0  0  0  0  0  0  0  0  0  0
   37.4110   27.8120   43.6800 C   0  0  0  0  0  3  0  0  0  0  0  0
   38.1380   28.9480   43.4320 C   0  0  0  0  0  3  0  0  0  0  0  0
   38.0320   29.6540   42.3030 N   0  0  0  0  0  0  0  0  0  0  0  0
  1  2  1  0  0  0  0
  1 17  1  0  0  0  0
  2  9  1  0  0  0  0
  3  2  2  0  0  0  0
  4  3  1  0  0  0  0
  5  4  2  0  0  0  0
  5  6  1  0  0  0  0
  6  1  2  0  0  0  0
  7  3  1  0  0  0  0
  8  5  1  0  0  0  0
  9 12  1  0  0  0  0
 10  9  1  0  0  0  0
 10 13  1  0  0  0  0
 11 16  1  0  0  0  0
 11 10  1  0  0  0  0
 11  9  1  0  0  0  0
 14 10  1  0  0  0  0
 15 11  1  0  0  0  0
 17 19  1  0  0  0  0
 18 17  2  0  0  0  0
 19 20  2  0  0  0  0
 19 26  1  0  0  0  0
 20 22  1  0  0  0  0
 21 20  1  0  0  0  0
 22 23  1  0  0  0  0
 22 24  2  0  0  0  0
 25 24  1  0  0  0  0
 26 25  2  0  0  0  0
M  END
>  <minimizedAffinity>
-4.52567053

$$$$

 OpenBabel03242523173D

 26 28  0  0  0  0  0  0  0  0999 V2000
   37.5000   29.1060   42.2160 C   0  0  0  0  0  0  0  0  0  0  0  0
   36.9320   29.5430   41.0630 C   0  0  0  0  0  0  0  0  0  0  0  0
   37.5510   30.6180   40.4700 C   0  0  0  0  0  0  0  0  0  0  0  0
   38.6810   31.1650   41.0720 N   0  0  0  0  0  0  0  0  0  0  0  0
   39.1860   30.6880   42.2030 C   0  0  0  0  0  0  0  0  0  0  0  0
   38.5970   29.6240   42.8200 N   0  0  0  0  0  0  0  0  0  0  0  0
   37.2130   31.0800   39.5430 H   0  0  0  0  0  0  0  0  0  0  0  0
   40.0670   31.2040   42.5670 H   0  0  0  0  0  0  0  0  0  0  0  0
   35.7550   29.0300   40.4730 C   0  0  0  0  0  0  0  0  0  0  0  0
   35.1670   29.2960   39.2800 C   0  0  0  0  0  0  0  0  0  0  0  0
   35.8760   27.9440   39.3230 C   0  0  0  0  0  0  0  0  0  0  0  0
   35.2290   28.3430   41.2790 H   0  0  0  0  0  0  0  0  0  0  0  0
   34.0570   29.2540   39.0630 H   0  0  0  0  0  0  0  0  0  0  0  0
   35.6440   29.9790   38.5230 H   0  0  0  0  0  0  0  0  0  0  0  0
   36.8830   27.8280   38.9210 H   0  0  0  0  0  0  0  0  0  0  0  0
   35.2200   27.0760   39.3490 H   0  0  0  0  0  0  0  0  0  0  0  0
   37.1000   27.9050   42.9700 C   0  0  0  0  0  0  0  0  0  0  0  0
   36.1990   27.4000   43.6800 O   0  0  0  0  0  0  0  0  0  0  0  0
   38.2130   26.9070   42.8250 C   0  0  0  0  0  0  0  0  0  0  0  0
   38.2810   26.1100   41.6770 C   0  0  0  0  0  0  0  0  0  0  0  0
   37.5660   26.1680   40.8690 H   0  0  0  0  0  0  0  0  0  0  0  0
   39.2660   25.1500   41.4270 C   0  0  0  0  0  0  0  0  0  0  0  0
   39.2870   24.5540   40.5330 H   0  0  0  0  0  0  0  0  0  0  0  0
   40.2360   24.9720   42.3700 C   0  0  0  0  0  3  0  0  0  0  0  0
   40.1550   25.7600   43.4890 C   0  0  0  0  0  3  0  0  0  0  0  0
   39.1920   26.6660   43.6800 N   0  0  0  0  0  0  0  0  0  0  0  0
  1  6  1  0  0  0  0
  1 17  1  0  0  0  0
  2  1  2  0  0  0  0
  3  2  1  0  0  0  0
  3  4  2  0  0  0  0
  4  5  1  0  0  0  0
  5  8  1  0  0  0  0
  5  6  2  0  0  0  0
  7  3  1  0  0  0  0
  9  2  1  0  0  0  0
  9 12  1  0  0  0  0
 10 11  1  0  0  0  0
 10  9  1  0  0  0  0
 11 16  1  0  0  0  0
 11  9  1  0  0  0  0
 13 10  1  0  0  0  0
 14 10  1  0  0  0  0
 15 11  1  0  0  0  0
 17 18  2  0  0  0  0
 19 17  1  0  0  0  0
 19 26  1  0  0  0  0
 20 19  2  0  0  0  0
 21 20  1  0  0  0  0
 22 20  1  0  0  0  0
 22 24  2  0  0  0  0
 23 22  1  0  0  0  0
 24 25  1  0  0  0  0
 25 26  2  0  0  0  0
M  END
>  <minimizedAffinity>
-4.52437973

$$$$

 OpenBabel03242523173D

 26 28  0  0  0  0  0  0  0  0999 V2000
   36.7930   28.8080   41.2780 C   0  0  0  0  0  0  0  0  0  0  0  0
   37.0200   28.3240   40.0300 C   0  0  0  0  0  0  0  0  0  0  0  0
   36.9340   29.2460   39.0140 C   0  0  0  0  0  0  0  0  0  0  0  0
   36.6310   30.5680   39.3240 N   0  0  0  0  0  0  0  0  0  0  0  0
   36.4190   30.9770   40.5690 C   0  0  0  0  0  0  0  0  0  0  0  0
   36.4960   30.0890   41.6020 N   0  0  0  0  0  0  0  0  0  0  0  0
   37.0910   29.0080   37.9620 H   0  0  0  0  0  0  0  0  0  0  0  0
   36.1920   32.0310   40.6760 H   0  0  0  0  0  0  0  0  0  0  0  0
   37.2740   26.9740   39.6990 C   0  0  0  0  0  0  0  0  0  0  0  0
   36.7540   25.8220   40.1920 C   0  0  0  0  0  0  0  0  0  0  0  0
   36.2250   26.1850   38.8060 C   0  0  0  0  0  0  0  0  0  0  0  0
   38.1710   26.9640   38.9270 H   0  0  0  0  0  0  0  0  0  0  0  0
   37.2910   24.8280   40.2590 H   0  0  0  0  0  0  0  0  0  0  0  0
   35.9260   25.8240   40.9540 H   0  0  0  0  0  0  0  0  0  0  0  0
   35.2670   26.6920   38.6890 H   0  0  0  0  0  0  0  0  0  0  0  0
   36.5920   25.5650   37.9910 H   0  0  0  0  0  0  0  0  0  0  0  0
   36.9460   28.0530   42.5340 C   0  0  0  0  0  0  0  0  0  0  0  0
   36.3270   27.4650   43.4510 O   0  0  0  0  0  0  0  0  0  0  0  0
   38.4180   27.9610   42.8130 C   0  0  0  0  0  0  0  0  0  0  0  0
   38.9430   26.7930   43.3740 C   0  0  0  0  0  0  0  0  0  0  0  0
   38.3410   25.9310   43.6270 H   0  0  0  0  0  0  0  0  0  0  0  0
   40.2920   26.5870   43.6780 C   0  0  0  0  0  0  0  0  0  0  0  0
   40.6610   25.6740   44.1110 H   0  0  0  0  0  0  0  0  0  0  0  0
   41.1670   27.5980   43.4090 C   0  0  0  0  0  3  0  0  0  0  0  0
   40.6370   28.7370   42.8590 C   0  0  0  0  0  3  0  0  0  0  0  0
   39.3380   28.8830   42.5870 N   0  0  0  0  0  0  0  0  0  0  0  0
  1  6  1  0  0  0  0
  1 17  1  0  0  0  0
  2  1  2  0  0  0  0
  3  4  2  0  0  0  0
  3  2  1  0  0  0  0
  4  5  1  0  0  0  0
  5  8  1  0  0  0  0
  5  6  2  0  0  0  0
  7  3  1  0  0  0  0
  9  2  1  0  0  0  0
  9 10  1  0  0  0  0
 10 13  1  0  0  0  0
 10 14  1  0  0  0  0
 11  9  1  0  0  0  0
 11 10  1  0  0  0  0
 12  9  1  0  0  0  0
 15 11  1  0  0  0  0
 16 11  1  0  0  0  0
 17 19  1  0  0  0  0
 17 18  2  0  0  0  0
 19 20  1  0  0  0  0
 20 21  1  0  0  0  0
 20 22  2  0  0  0  0
 22 23  1  0  0  0  0
 24 22  1  0  0  0  0
 25 24  2  0  0  0  0
 26 19  2  0  0  0  0
 26 25  1  0  0  0  0
M  END
>  <minimizedAffinity>
-4.4856286

$$$$

 OpenBabel03242523173D

 26 28  0  0  0  0  0  0  0  0999 V2000
   38.8070   27.3830   43.2690 C   0  0  0  0  0  0  0  0  0  0  0  0
   39.4570   28.5240   42.9260 C   0  0  0  0  0  0  0  0  0  0  0  0
   40.8300   28.4590   42.9710 C   0  0  0  0  0  0  0  0  0  0  0  0
   41.4370   27.2670   43.3540 N   0  0  0  0  0  0  0  0  0  0  0  0
   40.7410   26.1840   43.6790 C   0  0  0  0  0  0  0  0  0  0  0  0
   39.3780   26.2140   43.6460 N   0  0  0  0  0  0  0  0  0  0  0  0
   41.4870   29.2920   42.7230 H   0  0  0  0  0  0  0  0  0  0  0  0
   41.3340   25.3220   43.9590 H   0  0  0  0  0  0  0  0  0  0  0  0
   38.8490   29.7550   42.5890 C   0  0  0  0  0  0  0  0  0  0  0  0
   39.3470   30.8560   41.9710 C   0  0  0  0  0  0  0  0  0  0  0  0
   38.4250   30.0230   41.0830 C   0  0  0  0  0  0  0  0  0  0  0  0
   37.7630   29.7500   43.0560 H   0  0  0  0  0  0  0  0  0  0  0  0
   39.0140   31.9220   42.1480 H   0  0  0  0  0  0  0  0  0  0  0  0
   40.3930   30.8810   41.5580 H   0  0  0  0  0  0  0  0  0  0  0  0
   38.8340   29.3070   40.3690 H   0  0  0  0  0  0  0  0  0  0  0  0
   37.4510   30.4630   40.8830 H   0  0  0  0  0  0  0  0  0  0  0  0
   37.3530   27.1640   43.1830 C   0  0  0  0  0  0  0  0  0  0  0  0
   36.2440   27.4720   43.6790 O   0  0  0  0  0  0  0  0  0  0  0  0
   37.1230   26.1880   42.0640 C   0  0  0  0  0  0  0  0  0  0  0  0
   37.1510   26.6370   40.7400 C   0  0  0  0  0  0  0  0  0  0  0  0
   37.3310   27.6670   40.4650 H   0  0  0  0  0  0  0  0  0  0  0  0
   36.9540   25.8290   39.6160 C   0  0  0  0  0  0  0  0  0  0  0  0
   36.9820   26.2090   38.6110 H   0  0  0  0  0  0  0  0  0  0  0  0
   36.7170   24.5020   39.8210 C   0  0  0  0  0  3  0  0  0  0  0  0
   36.6920   24.0770   41.1240 C   0  0  0  0  0  3  0  0  0  0  0  0
   36.8870   24.8920   42.1640 N   0  0  0  0  0  0  0  0  0  0  0  0
  1  6  1  0  0  0  0
  2  3  1  0  0  0  0
  2  1  2  0  0  0  0
  3  4  2  0  0  0  0
  4  5  1  0  0  0  0
  5  8  1  0  0  0  0
  6  5  2  0  0  0  0
  7  3  1  0  0  0  0
  9  2  1  0  0  0  0
  9 12  1  0  0  0  0
 10 13  1  0  0  0  0
 10  9  1  0  0  0  0
 11 10  1  0  0  0  0
 11  9  1  0  0  0  0
 14 10  1  0  0  0  0
 15 11  1  0  0  0  0
 16 11  1  0  0  0  0
 17  1  1  0  0  0  0
 17 18  2  0  0  0  0
 19 26  1  0  0  0  0
 19 17  1  0  0  0  0
 20 19  2  0  0  0  0
 21 20  1  0  0  0  0
 22 24  2  0  0  0  0
 22 20  1  0  0  0  0
 23 22  1  0  0  0  0
 24 25  1  0  0  0  0
 25 26  2  0  0  0  0
M  END
>  <minimizedAffinity>
-4.47723675

$$$$

 OpenBabel03242523173D

 26 28  0  0  0  0  0  0  0  0999 V2000
   36.5900   30.6710   39.8280 C   0  0  0  0  0  0  0  0  0  0  0  0
   36.8490   30.7590   38.4980 C   0  0  0  0  0  0  0  0  0  0  0  0
   37.5270   31.8870   38.1010 C   0  0  0  0  0  0  0  0  0  0  0  0
   37.8890   32.8300   39.0580 N   0  0  0  0  0  0  0  0  0  0  0  0
   37.6040   32.6840   40.3470 C   0  0  0  0  0  0  0  0  0  0  0  0
   36.9310   31.5770   40.7750 N   0  0  0  0  0  0  0  0  0  0  0  0
   37.8060   32.0980   37.0690 H   0  0  0  0  0  0  0  0  0  0  0  0
   37.9410   33.4890   40.9880 H   0  0  0  0  0  0  0  0  0  0  0  0
   36.4380   29.8340   37.5110 C   0  0  0  0  0  0  0  0  0  0  0  0
   36.7910   29.7060   36.2070 C   0  0  0  0  0  0  0  0  0  0  0  0
   37.4100   28.6440   37.1130 C   0  0  0  0  0  0  0  0  0  0  0  0
   35.5750   29.1770   37.9820 H   0  0  0  0  0  0  0  0  0  0  0  0
   36.1310   29.3100   35.3780 H   0  0  0  0  0  0  0  0  0  0  0  0
   37.5850   30.3540   35.7420 H   0  0  0  0  0  0  0  0  0  0  0  0
   38.4280   28.7530   37.4880 H   0  0  0  0  0  0  0  0  0  0  0  0
   36.9970   27.6430   37.0050 H   0  0  0  0  0  0  0  0  0  0  0  0
   35.9910   29.5120   40.5120 C   0  0  0  0  0  0  0  0  0  0  0  0
   34.9230   28.8860   40.7120 O   0  0  0  0  0  0  0  0  0  0  0  0
   37.0980   28.8240   41.2570 C   0  0  0  0  0  0  0  0  0  0  0  0
   36.9220   28.4950   42.6060 C   0  0  0  0  0  0  0  0  0  0  0  0
   36.0180   28.7110   43.1580 H   0  0  0  0  0  0  0  0  0  0  0  0
   37.8740   27.8550   43.4040 C   0  0  0  0  0  0  0  0  0  0  0  0
   37.7050   27.6180   44.4390 H   0  0  0  0  0  0  0  0  0  0  0  0
   39.0660   27.5230   42.8310 C   0  0  0  0  0  3  0  0  0  0  0  0
   39.2240   27.8530   41.5090 C   0  0  0  0  0  3  0  0  0  0  0  0
   38.2800   28.4650   40.7890 N   0  0  0  0  0  0  0  0  0  0  0  0
  1 17  1  0  0  0  0
  1  6  1  0  0  0  0
  2  1  2  0  0  0  0
  3  2  1  0  0  0  0
  3  4  2  0  0  0  0
  4  5  1  0  0  0  0
  5  6  2  0  0  0  0
  5  8  1  0  0  0  0
  7  3  1  0  0  0  0
  9 12  1  0  0  0  0
  9  2  1  0  0  0  0
 10 11  1  0  0  0  0
 10  9  1  0  0  0  0
 11 15  1  0  0  0  0
 11  9  1  0  0  0  0
 13 10  1  0  0  0  0
 14 10  1  0  0  0  0
 16 11  1  0  0  0  0
 17 18  2  0  0  0  0
 17 19  1  0  0  0  0
 19 20  1  0  0  0  0
 20 21  1  0  0  0  0
 20 22  2  0  0  0  0
 22 23  1  0  0  0  0
 24 22  1  0  0  0  0
 25 24  2  0  0  0  0
 26 19  2  0  0  0  0
 26 25  1  0  0  0  0
M  END
>  <minimizedAffinity>
-4.44941044

$$$$

 OpenBabel03242523173D

 26 28  0  0  0  0  0  0  0  0999 V2000
   38.6730   30.9020   40.3140 C   0  0  0  0  0  0  0  0  0  0  0  0
   37.7420   31.0320   39.3340 C   0  0  0  0  0  0  0  0  0  0  0  0
   37.3280   32.3180   39.0810 C   0  0  0  0  0  0  0  0  0  0  0  0
   37.8730   33.3630   39.8210 N   0  0  0  0  0  0  0  0  0  0  0  0
   38.7820   33.1660   40.7680 C   0  0  0  0  0  0  0  0  0  0  0  0
   39.2150   31.9030   41.0470 N   0  0  0  0  0  0  0  0  0  0  0  0
   36.5880   32.5810   38.3250 H   0  0  0  0  0  0  0  0  0  0  0  0
   39.1260   34.0620   41.2700 H   0  0  0  0  0  0  0  0  0  0  0  0
   37.1420   29.9740   38.6150 C   0  0  0  0  0  0  0  0  0  0  0  0
   36.2430   29.9830   37.5990 C   0  0  0  0  0  0  0  0  0  0  0  0
   37.6630   29.6380   37.1540 C   0  0  0  0  0  0  0  0  0  0  0  0
   37.4750   28.9640   39.1330 H   0  0  0  0  0  0  0  0  0  0  0  0
   35.4650   29.1880   37.3940 H   0  0  0  0  0  0  0  0  0  0  0  0
   35.8930   30.9430   37.1260 H   0  0  0  0  0  0  0  0  0  0  0  0
   38.3150   30.3990   36.7250 H   0  0  0  0  0  0  0  0  0  0  0  0
   37.8240   28.5970   36.8810 H   0  0  0  0  0  0  0  0  0  0  0  0
   39.3600   29.6520   40.6850 C   0  0  0  0  0  0  0  0  0  0  0  0
   40.3950   28.9680   40.5110 O   0  0  0  0  0  0  0  0  0  0  0  0
   38.4590   28.9260   41.6430 C   0  0  0  0  0  0  0  0  0  0  0  0
   37.8520   27.7300   41.2470 C   0  0  0  0  0  0  0  0  0  0  0  0
   37.9930   27.2850   40.2720 H   0  0  0  0  0  0  0  0  0  0  0  0
   36.9970   26.9640   42.0450 C   0  0  0  0  0  0  0  0  0  0  0  0
   36.5470   26.0480   41.7080 H   0  0  0  0  0  0  0  0  0  0  0  0
   36.7320   27.4120   43.3060 C   0  0  0  0  0  3  0  0  0  0  0  0
   37.3340   28.5860   43.6790 C   0  0  0  0  0  3  0  0  0  0  0  0
   38.1450   29.2810   42.8760 N   0  0  0  0  0  0  0  0  0  0  0  0
  1 17  1  0  0  0  0
  1  6  1  0  0  0  0
  2  1  2  0  0  0  0
  3  2  1  0  0  0  0
  3  4  2  0  0  0  0
  4  5  1  0  0  0  0
  5  6  2  0  0  0  0
  5  8  1  0  0  0  0
  7  3  1  0  0  0  0
  9 12  1  0  0  0  0
  9  2  1  0  0  0  0
 10  9  1  0  0  0  0
 11 10  1  0  0  0  0
 11  9  1  0  0  0  0
 13 10  1  0  0  0  0
 14 10  1  0  0  0  0
 15 11  1  0  0  0  0
 16 11  1  0  0  0  0
 17 19  1  0  0  0  0
 18 17  2  0  0  0  0
 19 26  1  0  0  0  0
 20 19  2  0  0  0  0
 20 22  1  0  0  0  0
 21 20  1  0  0  0  0
 22 24  2  0  0  0  0
 23 22  1  0  0  0  0
 24 25  1  0  0  0  0
 26 25  2  0  0  0  0
M  END
>  <minimizedAffinity>
-4.44357252

$$$$

 OpenBabel03242523173D

 26 28  0  0  0  0  0  0  0  0999 V2000
   38.0130   29.3130   40.7790 C   0  0  0  0  0  0  0  0  0  0  0  0
   38.1150   28.0770   41.3310 C   0  0  0  0  0  0  0  0  0  0  0  0
   39.3870   27.5610   41.3930 C   0  0  0  0  0  0  0  0  0  0  0  0
   40.4480   28.3160   40.9030 N   0  0  0  0  0  0  0  0  0  0  0  0
   40.2800   29.5220   40.3730 C   0  0  0  0  0  0  0  0  0  0  0  0
   39.0310   30.0640   40.2940 N   0  0  0  0  0  0  0  0  0  0  0  0
   39.6280   26.5820   41.8080 H   0  0  0  0  0  0  0  0  0  0  0  0
   41.1860   30.0040   40.0280 H   0  0  0  0  0  0  0  0  0  0  0  0
   37.0380   27.2800   41.7810 C   0  0  0  0  0  0  0  0  0  0  0  0
   37.0190   26.1480   42.5300 C   0  0  0  0  0  0  0  0  0  0  0  0
   36.5720   27.3920   43.2940 C   0  0  0  0  0  0  0  0  0  0  0  0
   36.0530   27.7060   41.2850 H   0  0  0  0  0  0  0  0  0  0  0  0
   36.2500   25.3210   42.4600 H   0  0  0  0  0  0  0  0  0  0  0  0
   37.9580   25.7160   42.9740 H   0  0  0  0  0  0  0  0  0  0  0  0
   37.2670   27.9320   43.9380 H   0  0  0  0  0  0  0  0  0  0  0  0
   35.5080   27.4460   43.5120 H   0  0  0  0  0  0  0  0  0  0  0  0
   36.7860   30.1260   40.7100 C   0  0  0  0  0  0  0  0  0  0  0  0
   36.1160   31.0120   41.2910 O   0  0  0  0  0  0  0  0  0  0  0  0
   36.0660   29.7250   39.4550 C   0  0  0  0  0  0  0  0  0  0  0  0
   34.7760   29.1910   39.5390 C   0  0  0  0  0  0  0  0  0  0  0  0
   34.2530   29.0440   40.4740 H   0  0  0  0  0  0  0  0  0  0  0  0
   34.0050   28.7820   38.4460 C   0  0  0  0  0  0  0  0  0  0  0  0
   33.0160   28.3750   38.5490 H   0  0  0  0  0  0  0  0  0  0  0  0
   34.5470   28.9130   37.2020 C   0  0  0  0  0  3  0  0  0  0  0  0
   35.8120   29.4380   37.1350 C   0  0  0  0  0  3  0  0  0  0  0  0
   36.5070   29.8140   38.2120 N   0  0  0  0  0  0  0  0  0  0  0  0
  1  2  1  0  0  0  0
  2  3  2  0  0  0  0
  2  9  1  0  0  0  0
  3  7  1  0  0  0  0
  4  3  1  0  0  0  0
  5  4  2  0  0  0  0
  6  5  1  0  0  0  0
  6  1  2  0  0  0  0
  8  5  1  0  0  0  0
  9 10  1  0  0  0  0
  9 11  1  0  0  0  0
 10 14  1  0  0  0  0
 10 11  1  0  0  0  0
 11 16  1  0  0  0  0
 11 15  1  0  0  0  0
 12  9  1  0  0  0  0
 13 10  1  0  0  0  0
 17  1  1  0  0  0  0
 17 18  2  0  0  0  0
 19 20  1  0  0  0  0
 19 17  1  0  0  0  0
 20 21  1  0  0  0  0
 22 23  1  0  0  0  0
 22 20  2  0  0  0  0
 24 22  1  0  0  0  0
 25 24  2  0  0  0  0
 25 26  1  0  0  0  0
 26 19  2  0  0  0  0
M  END
>  <minimizedAffinity>
-4.41389608

$$$$

 OpenBabel03242523173D

 26 28  0  0  0  0  0  0  0  0999 V2000
   37.6440   29.9260   39.1760 C   0  0  0  0  0  0  0  0  0  0  0  0
   36.9760   29.4370   38.1000 C   0  0  0  0  0  0  0  0  0  0  0  0
   37.7480   28.7780   37.1740 C   0  0  0  0  0  0  0  0  0  0  0  0
   39.1170   28.6610   37.3960 N   0  0  0  0  0  0  0  0  0  0  0  0
   39.7100   29.1640   38.4720 C   0  0  0  0  0  0  0  0  0  0  0  0
   38.9740   29.8240   39.4110 N   0  0  0  0  0  0  0  0  0  0  0  0
   37.3560   28.3320   36.2600 H   0  0  0  0  0  0  0  0  0  0  0  0
   40.7800   29.0040   38.5250 H   0  0  0  0  0  0  0  0  0  0  0  0
   35.5960   29.5980   37.8380 C   0  0  0  0  0  0  0  0  0  0  0  0
   34.7760   28.9700   36.9590 C   0  0  0  0  0  0  0  0  0  0  0  0
   34.5700   28.5300   38.4070 C   0  0  0  0  0  0  0  0  0  0  0  0
   35.2230   30.5230   38.4750 H   0  0  0  0  0  0  0  0  0  0  0  0
   33.8680   29.4230   36.4590 H   0  0  0  0  0  0  0  0  0  0  0  0
   35.1340   28.1130   36.3230 H   0  0  0  0  0  0  0  0  0  0  0  0
   35.0360   27.6200   38.7860 H   0  0  0  0  0  0  0  0  0  0  0  0
   33.6520   28.8800   38.8740 H   0  0  0  0  0  0  0  0  0  0  0  0
   37.0280   30.5580   40.3560 C   0  0  0  0  0  0  0  0  0  0  0  0
   36.4250   31.5760   40.7690 O   0  0  0  0  0  0  0  0  0  0  0  0
   37.1970   29.6020   41.5020 C   0  0  0  0  0  0  0  0  0  0  0  0
   36.4090   28.4480   41.5610 C   0  0  0  0  0  0  0  0  0  0  0  0
   35.6680   28.1950   40.8150 H   0  0  0  0  0  0  0  0  0  0  0  0
   36.4730   27.4850   42.5720 C   0  0  0  0  0  0  0  0  0  0  0  0
   35.8510   26.6090   42.5850 H   0  0  0  0  0  0  0  0  0  0  0  0
   37.3710   27.6810   43.5800 C   0  0  0  0  0  3  0  0  0  0  0  0
   38.1360   28.8170   43.5090 C   0  0  0  0  0  3  0  0  0  0  0  0
   38.0350   29.7070   42.5180 N   0  0  0  0  0  0  0  0  0  0  0  0
  1  6  1  0  0  0  0
  1 17  1  0  0  0  0
  2  1  2  0  0  0  0
  3  4  2  0  0  0  0
  3  2  1  0  0  0  0
  4  5  1  0  0  0  0
  5  8  1  0  0  0  0
  5  6  2  0  0  0  0
  7  3  1  0  0  0  0
  9  2  1  0  0  0  0
  9 11  1  0  0  0  0
  9 12  1  0  0  0  0
 10  9  1  0  0  0  0
 10 11  1  0  0  0  0
 11 15  1  0  0  0  0
 11 16  1  0  0  0  0
 13 10  1  0  0  0  0
 14 10  1  0  0  0  0
 17 18  2  0  0  0  0
 17 19  1  0  0  0  0
 19 20  2  0  0  0  0
 19 26  1  0  0  0  0
 20 22  1  0  0  0  0
 21 20  1  0  0  0  0
 22 23  1  0  0  0  0
 22 24  2  0  0  0  0
 25 24  1  0  0  0  0
 26 25  2  0  0  0  0
M  END
>  <minimizedAffinity>
-4.3789134

$$$$
