
 OpenBabel03252503363D

 21 22  0  0  0  0  0  0  0  0999 V2000
   37.2560   28.3840   41.2370 C   0  0  0  0  0  0  0  0  0  0  0  0
   36.9360   29.0610   42.2520 O   0  0  0  0  0  0  0  0  0  0  0  0
   37.8380   29.1380   40.1850 N   0  0  0  0  0  0  0  0  0  0  0  0
   38.1670   28.6430   39.3270 H   0  0  0  0  0  0  0  0  0  0  0  0
   37.3260   32.8200   39.8650 C   0  0  0  0  0  0  0  0  0  0  0  0
   37.0650   31.4470   39.7060 C   0  0  0  0  0  0  0  0  0  0  0  0
   37.9830   30.5550   40.2720 C   0  0  0  0  0  0  0  0  0  0  0  0
   39.0700   31.0410   40.9380 N   0  0  0  0  0  0  0  0  0  0  0  0
   39.2810   32.3740   41.0650 C   0  0  0  0  0  0  0  0  0  0  0  0
   38.4110   33.2370   40.5290 N   0  0  0  0  0  0  0  0  0  0  0  0
   36.5760   33.4770   39.4020 H   0  0  0  0  0  0  0  0  0  0  0  0
   36.2280   31.0090   39.1940 H   0  0  0  0  0  0  0  0  0  0  0  0
   40.1330   32.7940   41.5870 H   0  0  0  0  0  0  0  0  0  0  0  0
   37.0500   26.9430   41.1390 C   0  0  0  0  0  0  0  0  0  0  0  0
   37.1950   26.1840   42.2830 C   0  0  0  0  0  0  0  0  0  0  0  0
   37.4520   26.6070   43.2390 H   0  0  0  0  0  0  0  0  0  0  0  0
   36.9970   24.8270   42.1660 C   0  0  0  0  0  0  0  0  0  0  0  0
   37.0820   24.1270   42.9920 H   0  0  0  0  0  0  0  0  0  0  0  0
   36.6680   24.3130   40.9270 C   0  0  0  0  0  3  0  0  0  0  0  0
   36.5220   25.0820   39.7740 C   0  0  0  0  0  3  0  0  0  0  0  0
   36.7290   26.3910   39.9550 N   0  0  0  0  0  0  0  0  0  0  0  0
  1  2  2  0  0  0  0
  3  7  1  0  0  0  0
  3  1  1  0  0  0  0
  4  3  1  0  0  0  0
  5 10  1  0  0  0  0
  6  5  2  0  0  0  0
  6  7  1  0  0  0  0
  7  8  2  0  0  0  0
  8  9  1  0  0  0  0
  9 13  1  0  0  0  0
 10  9  2  0  0  0  0
 11  5  1  0  0  0  0
 12  6  1  0  0  0  0
 14  1  1  0  0  0  0
 14 15  1  0  0  0  0
 15 16  1  0  0  0  0
 17 15  2  0  0  0  0
 17 18  1  0  0  0  0
 19 17  1  0  0  0  0
 20 21  1  0  0  0  0
 20 19  2  0  0  0  0
 21 14  2  0  0  0  0
M  END
>  <minimizedAffinity>
-4.25113678

$$$$

 OpenBabel03252503363D

 21 22  0  0  0  0  0  0  0  0999 V2000
   38.2720   28.8910   41.9800 C   0  0  0  0  0  0  0  0  0  0  0  0
   37.3590   29.5300   42.5680 O   0  0  0  0  0  0  0  0  0  0  0  0
   38.9070   29.6020   40.9290 N   0  0  0  0  0  0  0  0  0  0  0  0
   39.7010   29.1550   40.4210 H   0  0  0  0  0  0  0  0  0  0  0  0
   37.1760   32.4850   39.3140 C   0  0  0  0  0  0  0  0  0  0  0  0
   37.4960   31.1450   39.5920 C   0  0  0  0  0  0  0  0  0  0  0  0
   38.4880   30.9130   40.5520 C   0  0  0  0  0  0  0  0  0  0  0  0
   39.0900   31.9720   41.1650 N   0  0  0  0  0  0  0  0  0  0  0  0
   38.7490   33.2490   40.8640 C   0  0  0  0  0  0  0  0  0  0  0  0
   37.8030   33.4840   39.9480 N   0  0  0  0  0  0  0  0  0  0  0  0
   36.3930   32.6130   38.5530 H   0  0  0  0  0  0  0  0  0  0  0  0
   37.0560   30.2740   39.1420 H   0  0  0  0  0  0  0  0  0  0  0  0
   39.2070   34.1130   41.3310 H   0  0  0  0  0  0  0  0  0  0  0  0
   38.6530   27.5290   42.3380 C   0  0  0  0  0  0  0  0  0  0  0  0
   39.5680   27.3550   43.3560 C   0  0  0  0  0  0  0  0  0  0  0  0
   40.0100   28.1760   43.8960 H   0  0  0  0  0  0  0  0  0  0  0  0
   39.9140   26.0610   43.6770 C   0  0  0  0  0  0  0  0  0  0  0  0
   40.6210   25.7970   44.4580 H   0  0  0  0  0  0  0  0  0  0  0  0
   39.3310   25.0290   42.9700 C   0  0  0  0  0  3  0  0  0  0  0  0
   38.4070   25.2070   41.9410 C   0  0  0  0  0  3  0  0  0  0  0  0
   38.1160   26.4860   41.6790 N   0  0  0  0  0  0  0  0  0  0  0  0
  1 14  1  0  0  0  0
  1  2  2  0  0  0  0
  3  1  1  0  0  0  0
  4  3  1  0  0  0  0
  5  6  2  0  0  0  0
  5 10  1  0  0  0  0
  6  7  1  0  0  0  0
  7  3  1  0  0  0  0
  7  8  2  0  0  0  0
  9  8  1  0  0  0  0
  9 13  1  0  0  0  0
 10  9  2  0  0  0  0
 11  5  1  0  0  0  0
 12  6  1  0  0  0  0
 14 15  1  0  0  0  0
 15 17  2  0  0  0  0
 15 16  1  0  0  0  0
 17 18  1  0  0  0  0
 19 17  1  0  0  0  0
 20 19  2  0  0  0  0
 21 20  1  0  0  0  0
 21 14  2  0  0  0  0
M  END
>  <minimizedAffinity>
-4.20926857

$$$$

 OpenBabel03252503363D

 21 22  0  0  0  0  0  0  0  0999 V2000
   38.7050   30.2110   40.9400 C   0  0  0  0  0  0  0  0  0  0  0  0
   39.5360   29.4730   40.3450 O   0  0  0  0  0  0  0  0  0  0  0  0
   38.0060   29.5780   42.0000 N   0  0  0  0  0  0  0  0  0  0  0  0
   37.3310   30.1360   42.5680 H   0  0  0  0  0  0  0  0  0  0  0  0
   37.7250   25.8610   42.1420 C   0  0  0  0  0  0  0  0  0  0  0  0
   37.4240   27.1790   41.7550 C   0  0  0  0  0  0  0  0  0  0  0  0
   38.2050   28.1990   42.3090 C   0  0  0  0  0  0  0  0  0  0  0  0
   39.2020   27.8820   43.1840 N   0  0  0  0  0  0  0  0  0  0  0  0
   39.4560   26.5970   43.5290 C   0  0  0  0  0  0  0  0  0  0  0  0
   38.7170   25.6120   43.0060 N   0  0  0  0  0  0  0  0  0  0  0  0
   37.0830   25.0980   41.6790 H   0  0  0  0  0  0  0  0  0  0  0  0
   36.6530   27.4860   41.0720 H   0  0  0  0  0  0  0  0  0  0  0  0
   40.2390   26.3090   44.2200 H   0  0  0  0  0  0  0  0  0  0  0  0
   38.4710   31.6060   40.5780 C   0  0  0  0  0  0  0  0  0  0  0  0
   37.3290   31.9110   39.8670 C   0  0  0  0  0  0  0  0  0  0  0  0
   36.6060   31.1700   39.5700 H   0  0  0  0  0  0  0  0  0  0  0  0
   37.1290   33.2330   39.5370 C   0  0  0  0  0  0  0  0  0  0  0  0
   36.2700   33.5970   38.9810 H   0  0  0  0  0  0  0  0  0  0  0  0
   38.0720   34.1610   39.9310 C   0  0  0  0  0  3  0  0  0  0  0  0
   39.2250   33.8490   40.6490 C   0  0  0  0  0  3  0  0  0  0  0  0
   39.3590   32.5500   40.9380 N   0  0  0  0  0  0  0  0  0  0  0  0
  1  3  1  0  0  0  0
  2  1  2  0  0  0  0
  3  7  1  0  0  0  0
  3  4  1  0  0  0  0
  5 10  1  0  0  0  0
  6  5  2  0  0  0  0
  6  7  1  0  0  0  0
  7  8  2  0  0  0  0
  8  9  1  0  0  0  0
  9 13  1  0  0  0  0
 10  9  2  0  0  0  0
 11  5  1  0  0  0  0
 12  6  1  0  0  0  0
 14 21  1  0  0  0  0
 14  1  1  0  0  0  0
 15 14  2  0  0  0  0
 16 15  1  0  0  0  0
 17 15  1  0  0  0  0
 17 19  2  0  0  0  0
 18 17  1  0  0  0  0
 19 20  1  0  0  0  0
 20 21  2  0  0  0  0
M  END
>  <minimizedAffinity>
-4.10275316

$$$$

 OpenBabel03252503363D

 21 22  0  0  0  0  0  0  0  0999 V2000
   36.9610   29.1220   40.7540 C   0  0  0  0  0  0  0  0  0  0  0  0
   35.7760   28.8220   41.0650 O   0  0  0  0  0  0  0  0  0  0  0  0
   37.8220   28.0090   40.5710 N   0  0  0  0  0  0  0  0  0  0  0  0
   38.8080   28.1740   40.2720 H   0  0  0  0  0  0  0  0  0  0  0  0
   36.9860   24.7110   42.1010 C   0  0  0  0  0  0  0  0  0  0  0  0
   37.4670   26.0300   42.0250 C   0  0  0  0  0  0  0  0  0  0  0  0
   37.3730   26.6720   40.7850 C   0  0  0  0  0  0  0  0  0  0  0  0
   36.8320   26.0070   39.7240 N   0  0  0  0  0  0  0  0  0  0  0  0
   36.3820   24.7340   39.8430 C   0  0  0  0  0  0  0  0  0  0  0  0
   36.4660   24.1100   41.0230 N   0  0  0  0  0  0  0  0  0  0  0  0
   37.0830   24.2520   43.0950 H   0  0  0  0  0  0  0  0  0  0  0  0
   37.9000   26.6010   42.8260 H   0  0  0  0  0  0  0  0  0  0  0  0
   35.9480   24.1770   39.0220 H   0  0  0  0  0  0  0  0  0  0  0  0
   37.4220   30.4970   40.5930 C   0  0  0  0  0  0  0  0  0  0  0  0
   36.7440   31.3130   39.7110 C   0  0  0  0  0  0  0  0  0  0  0  0
   35.8930   30.9810   39.1390 H   0  0  0  0  0  0  0  0  0  0  0  0
   37.1970   32.6060   39.5750 C   0  0  0  0  0  0  0  0  0  0  0  0
   36.7480   33.3400   38.9140 H   0  0  0  0  0  0  0  0  0  0  0  0
   38.2880   33.0030   40.3210 C   0  0  0  0  0  3  0  0  0  0  0  0
   38.9710   32.1770   41.2120 C   0  0  0  0  0  3  0  0  0  0  0  0
   38.4820   30.9350   41.2970 N   0  0  0  0  0  0  0  0  0  0  0  0
  1  2  2  0  0  0  0
  3  1  1  0  0  0  0
  3  7  1  0  0  0  0
  4  3  1  0  0  0  0
  5 11  1  0  0  0  0
  6  5  1  0  0  0  0
  6 12  1  0  0  0  0
  7  6  2  0  0  0  0
  8  9  2  0  0  0  0
  8  7  1  0  0  0  0
  9 10  1  0  0  0  0
 10  5  2  0  0  0  0
 13  9  1  0  0  0  0
 14  1  1  0  0  0  0
 14 21  1  0  0  0  0
 15 14  2  0  0  0  0
 16 15  1  0  0  0  0
 17 15  1  0  0  0  0
 17 19  2  0  0  0  0
 18 17  1  0  0  0  0
 19 20  1  0  0  0  0
 20 21  2  0  0  0  0
M  END
>  <minimizedAffinity>
-4.05612421

$$$$

 OpenBabel03252503363D

 21 22  0  0  0  0  0  0  0  0999 V2000
   37.5700   28.0570   40.3460 C   0  0  0  0  0  0  0  0  0  0  0  0
   38.1980   28.4270   39.3180 O   0  0  0  0  0  0  0  0  0  0  0  0
   37.2490   29.1030   41.2500 N   0  0  0  0  0  0  0  0  0  0  0  0
   36.6940   28.8830   42.1050 H   0  0  0  0  0  0  0  0  0  0  0  0
   37.4130   32.6700   40.1680 C   0  0  0  0  0  0  0  0  0  0  0  0
   36.8820   31.3770   40.3280 C   0  0  0  0  0  0  0  0  0  0  0  0
   37.6680   30.4470   41.0170 C   0  0  0  0  0  0  0  0  0  0  0  0
   38.8890   30.8220   41.4960 N   0  0  0  0  0  0  0  0  0  0  0  0
   39.3610   32.0800   41.3170 C   0  0  0  0  0  0  0  0  0  0  0  0
   38.6190   32.9790   40.6600 N   0  0  0  0  0  0  0  0  0  0  0  0
   36.7570   33.3610   39.6200 H   0  0  0  0  0  0  0  0  0  0  0  0
   35.9300   31.0280   39.9740 H   0  0  0  0  0  0  0  0  0  0  0  0
   40.3250   32.4120   41.6830 H   0  0  0  0  0  0  0  0  0  0  0  0
   37.1960   26.6690   40.6000 C   0  0  0  0  0  0  0  0  0  0  0  0
   36.6770   25.9330   39.5550 C   0  0  0  0  0  0  0  0  0  0  0  0
   36.5370   26.3350   38.5650 H   0  0  0  0  0  0  0  0  0  0  0  0
   36.3320   24.6260   39.8170 C   0  0  0  0  0  0  0  0  0  0  0  0
   35.9150   23.9480   39.0790 H   0  0  0  0  0  0  0  0  0  0  0  0
   36.5240   24.1370   41.0940 C   0  0  0  0  0  3  0  0  0  0  0  0
   37.0480   24.8840   42.1480 C   0  0  0  0  0  3  0  0  0  0  0  0
   37.3620   26.1440   41.8270 N   0  0  0  0  0  0  0  0  0  0  0  0
  1 14  1  0  0  0  0
  1  3  1  0  0  0  0
  2  1  2  0  0  0  0
  3  4  1  0  0  0  0
  5  6  2  0  0  0  0
  5 10  1  0  0  0  0
  6  7  1  0  0  0  0
  7  3  1  0  0  0  0
  7  8  2  0  0  0  0
  9  8  1  0  0  0  0
  9 13  1  0  0  0  0
 10  9  2  0  0  0  0
 11  5  1  0  0  0  0
 12  6  1  0  0  0  0
 14 21  1  0  0  0  0
 15 17  1  0  0  0  0
 15 14  2  0  0  0  0
 16 15  1  0  0  0  0
 17 19  2  0  0  0  0
 18 17  1  0  0  0  0
 19 20  1  0  0  0  0
 21 20  2  0  0  0  0
M  END
>  <minimizedAffinity>
-3.97175241

$$$$

 OpenBabel03252503363D

 21 22  0  0  0  0  0  0  0  0999 V2000
   38.5240   30.4700   40.7030 C   0  0  0  0  0  0  0  0  0  0  0  0
   37.8190   31.1250   39.8880 O   0  0  0  0  0  0  0  0  0  0  0  0
   39.8910   30.8480   40.7370 N   0  0  0  0  0  0  0  0  0  0  0  0
   40.5310   30.3800   41.4160 H   0  0  0  0  0  0  0  0  0  0  0  0
   41.0920   34.0760   39.3030 C   0  0  0  0  0  0  0  0  0  0  0  0
   40.5670   33.1870   40.2580 C   0  0  0  0  0  0  0  0  0  0  0  0
   40.4110   31.8530   39.8670 C   0  0  0  0  0  0  0  0  0  0  0  0
   40.7670   31.4760   38.6050 N   0  0  0  0  0  0  0  0  0  0  0  0
   41.2690   32.3680   37.7180 C   0  0  0  0  0  0  0  0  0  0  0  0
   41.4230   33.6470   38.0790 N   0  0  0  0  0  0  0  0  0  0  0  0
   41.1940   35.1110   39.6590 H   0  0  0  0  0  0  0  0  0  0  0  0
   40.2710   33.4280   41.2620 H   0  0  0  0  0  0  0  0  0  0  0  0
   41.5610   32.1040   36.7080 H   0  0  0  0  0  0  0  0  0  0  0  0
   37.9910   29.4060   41.5470 C   0  0  0  0  0  0  0  0  0  0  0  0
   38.2410   29.4620   42.9030 C   0  0  0  0  0  0  0  0  0  0  0  0
   38.8090   30.2540   43.3630 H   0  0  0  0  0  0  0  0  0  0  0  0
   37.7280   28.4480   43.6800 C   0  0  0  0  0  0  0  0  0  0  0  0
   37.8570   28.3820   44.7560 H   0  0  0  0  0  0  0  0  0  0  0  0
   37.0030   27.4470   43.0630 C   0  0  0  0  0  3  0  0  0  0  0  0
   36.7520   27.3930   41.6930 C   0  0  0  0  0  3  0  0  0  0  0  0
   37.2780   28.4070   40.9960 N   0  0  0  0  0  0  0  0  0  0  0  0
  1  3  1  0  0  0  0
  1 14  1  0  0  0  0
  2  1  2  0  0  0  0
  3  4  1  0  0  0  0
  5 11  1  0  0  0  0
  5  6  1  0  0  0  0
  6 12  1  0  0  0  0
  7  6  2  0  0  0  0
  7  3  1  0  0  0  0
  8  7  1  0  0  0  0
  9 10  1  0  0  0  0
  9  8  2  0  0  0  0
 10  5  2  0  0  0  0
 13  9  1  0  0  0  0
 14 15  1  0  0  0  0
 15 16  1  0  0  0  0
 15 17  2  0  0  0  0
 17 18  1  0  0  0  0
 19 17  1  0  0  0  0
 20 19  2  0  0  0  0
 21 14  2  0  0  0  0
 21 20  1  0  0  0  0
M  END
>  <minimizedAffinity>
-3.91504359

$$$$

 OpenBabel03252503363D

 21 22  0  0  0  0  0  0  0  0999 V2000
   36.4610   27.5730   40.0840 C   0  0  0  0  0  0  0  0  0  0  0  0
   36.2330   26.5770   39.3450 O   0  0  0  0  0  0  0  0  0  0  0  0
   35.9390   28.8000   39.5990 N   0  0  0  0  0  0  0  0  0  0  0  0
   36.0500   29.6630   40.1750 H   0  0  0  0  0  0  0  0  0  0  0  0
   33.3380   28.8870   36.9260 C   0  0  0  0  0  0  0  0  0  0  0  0
   33.8740   28.7900   38.2210 C   0  0  0  0  0  0  0  0  0  0  0  0
   35.2650   28.8820   38.3430 C   0  0  0  0  0  0  0  0  0  0  0  0
   36.0270   29.0570   37.2250 N   0  0  0  0  0  0  0  0  0  0  0  0
   35.4660   29.1450   35.9950 C   0  0  0  0  0  0  0  0  0  0  0  0
   34.1370   29.0590   35.8650 N   0  0  0  0  0  0  0  0  0  0  0  0
   32.2410   28.8090   36.8850 H   0  0  0  0  0  0  0  0  0  0  0  0
   33.3240   28.6530   39.1340 H   0  0  0  0  0  0  0  0  0  0  0  0
   36.0400   29.2840   35.0870 H   0  0  0  0  0  0  0  0  0  0  0  0
   37.2000   27.4850   41.3390 C   0  0  0  0  0  0  0  0  0  0  0  0
   36.5440   27.8180   42.5070 C   0  0  0  0  0  0  0  0  0  0  0  0
   35.5150   28.1370   42.5320 H   0  0  0  0  0  0  0  0  0  0  0  0
   37.2620   27.7280   43.6780 C   0  0  0  0  0  0  0  0  0  0  0  0
   36.8560   27.9620   44.6580 H   0  0  0  0  0  0  0  0  0  0  0  0
   38.5780   27.3150   43.6160 C   0  0  0  0  0  3  0  0  0  0  0  0
   39.2380   26.9800   42.4350 C   0  0  0  0  0  3  0  0  0  0  0  0
   38.4860   27.0890   41.3340 N   0  0  0  0  0  0  0  0  0  0  0  0
  1 14  1  0  0  0  0
  2  1  2  0  0  0  0
  3  1  1  0  0  0  0
  3  4  1  0  0  0  0
  5  6  1  0  0  0  0
  6  7  2  0  0  0  0
  6 12  1  0  0  0  0
  7  3  1  0  0  0  0
  8  7  1  0  0  0  0
  9  8  2  0  0  0  0
 10  9  1  0  0  0  0
 10  5  2  0  0  0  0
 11  5  1  0  0  0  0
 13  9  1  0  0  0  0
 14 15  1  0  0  0  0
 15 16  1  0  0  0  0
 15 17  2  0  0  0  0
 17 18  1  0  0  0  0
 19 17  1  0  0  0  0
 20 19  2  0  0  0  0
 21 14  2  0  0  0  0
 21 20  1  0  0  0  0
M  END
>  <minimizedAffinity>
-3.91305876

$$$$

 OpenBabel03252503363D

 21 22  0  0  0  0  0  0  0  0999 V2000
   35.9670   28.6960   39.0270 C   0  0  0  0  0  0  0  0  0  0  0  0
   37.1300   28.2270   38.8960 O   0  0  0  0  0  0  0  0  0  0  0  0
   35.6300   29.0730   40.3530 N   0  0  0  0  0  0  0  0  0  0  0  0
   34.6990   29.5080   40.5350 H   0  0  0  0  0  0  0  0  0  0  0  0
   37.4260   27.6730   43.3070 C   0  0  0  0  0  0  0  0  0  0  0  0
   36.4780   27.7480   42.2720 C   0  0  0  0  0  0  0  0  0  0  0  0
   36.5310   28.8730   41.4410 C   0  0  0  0  0  0  0  0  0  0  0  0
   37.4790   29.8290   41.6630 N   0  0  0  0  0  0  0  0  0  0  0  0
   38.3720   29.7140   42.6760 C   0  0  0  0  0  0  0  0  0  0  0  0
   38.3320   28.6440   43.4770 N   0  0  0  0  0  0  0  0  0  0  0  0
   37.3410   26.7710   43.9310 H   0  0  0  0  0  0  0  0  0  0  0  0
   35.7130   27.0270   42.0500 H   0  0  0  0  0  0  0  0  0  0  0  0
   39.1370   30.4530   42.8810 H   0  0  0  0  0  0  0  0  0  0  0  0
   35.0340   28.8440   37.9150 C   0  0  0  0  0  0  0  0  0  0  0  0
   33.6860   28.9130   38.2010 C   0  0  0  0  0  0  0  0  0  0  0  0
   33.2940   28.8630   39.2030 H   0  0  0  0  0  0  0  0  0  0  0  0
   32.8240   29.0520   37.1360 C   0  0  0  0  0  0  0  0  0  0  0  0
   31.7440   29.1170   37.2330 H   0  0  0  0  0  0  0  0  0  0  0  0
   33.3540   29.1130   35.8630 C   0  0  0  0  0  3  0  0  0  0  0  0
   34.7160   29.0430   35.5770 C   0  0  0  0  0  3  0  0  0  0  0  0
   35.4980   28.9080   36.6540 N   0  0  0  0  0  0  0  0  0  0  0  0
  1  3  1  0  0  0  0
  2  1  2  0  0  0  0
  3  4  1  0  0  0  0
  3  7  1  0  0  0  0
  5 10  1  0  0  0  0
  5 11  1  0  0  0  0
  6  5  2  0  0  0  0
  7  8  2  0  0  0  0
  7  6  1  0  0  0  0
  8  9  1  0  0  0  0
  9 13  1  0  0  0  0
  9 10  2  0  0  0  0
 12  6  1  0  0  0  0
 14 15  1  0  0  0  0
 14  1  1  0  0  0  0
 15 16  1  0  0  0  0
 17 18  1  0  0  0  0
 17 15  2  0  0  0  0
 19 17  1  0  0  0  0
 20 19  2  0  0  0  0
 20 21  1  0  0  0  0
 21 14  2  0  0  0  0
M  END
>  <minimizedAffinity>
-3.89043784

$$$$

 OpenBabel03252503363D

 21 22  0  0  0  0  0  0  0  0999 V2000
   37.9620   29.1470   40.4080 C   0  0  0  0  0  0  0  0  0  0  0  0
   39.0210   28.4640   40.4080 O   0  0  0  0  0  0  0  0  0  0  0  0
   36.7740   28.3950   40.5980 N   0  0  0  0  0  0  0  0  0  0  0  0
   35.8600   28.8950   40.6520 H   0  0  0  0  0  0  0  0  0  0  0  0
   36.6400   24.7350   39.8890 C   0  0  0  0  0  0  0  0  0  0  0  0
   36.5880   26.1170   39.6330 C   0  0  0  0  0  0  0  0  0  0  0  0
   36.8000   26.9740   40.7190 C   0  0  0  0  0  0  0  0  0  0  0  0
   37.0430   26.4460   41.9530 N   0  0  0  0  0  0  0  0  0  0  0  0
   37.0850   25.1070   42.1520 C   0  0  0  0  0  0  0  0  0  0  0  0
   36.8830   24.2770   41.1230 N   0  0  0  0  0  0  0  0  0  0  0  0
   36.4670   24.1070   39.0030 H   0  0  0  0  0  0  0  0  0  0  0  0
   36.4010   26.5860   38.6850 H   0  0  0  0  0  0  0  0  0  0  0  0
   37.2750   24.6540   43.1180 H   0  0  0  0  0  0  0  0  0  0  0  0
   37.9450   30.5950   40.2270 C   0  0  0  0  0  0  0  0  0  0  0  0
   37.0810   31.1250   39.2900 C   0  0  0  0  0  0  0  0  0  0  0  0
   36.4220   30.5190   38.6910 H   0  0  0  0  0  0  0  0  0  0  0  0
   37.0820   32.4930   39.1370 C   0  0  0  0  0  0  0  0  0  0  0  0
   36.4480   33.0260   38.4340 H   0  0  0  0  0  0  0  0  0  0  0  0
   37.9360   33.2440   39.9200 C   0  0  0  0  0  3  0  0  0  0  0  0
   38.8080   32.7060   40.8650 C   0  0  0  0  0  3  0  0  0  0  0  0
   38.7580   31.3730   40.9640 N   0  0  0  0  0  0  0  0  0  0  0  0
  1  3  1  0  0  0  0
  2  1  2  0  0  0  0
  3  4  1  0  0  0  0
  3  7  1  0  0  0  0
  5 10  1  0  0  0  0
  6  5  2  0  0  0  0
  6  7  1  0  0  0  0
  7  8  2  0  0  0  0
  8  9  1  0  0  0  0
  9 13  1  0  0  0  0
 10  9  2  0  0  0  0
 11  5  1  0  0  0  0
 12  6  1  0  0  0  0
 14  1  1  0  0  0  0
 14 21  1  0  0  0  0
 15 14  2  0  0  0  0
 16 15  1  0  0  0  0
 17 15  1  0  0  0  0
 17 19  2  0  0  0  0
 18 17  1  0  0  0  0
 19 20  1  0  0  0  0
 20 21  2  0  0  0  0
M  END
>  <minimizedAffinity>
-3.87668109

$$$$
