
 OpenBabel03252507173D

 28 30  0  0  0  0  0  0  0  0999 V2000
   35.8930   28.9030   38.7080 C   0  0  0  0  0  0  0  0  0  0  0  0
   36.5810   29.9560   39.3610 C   0  0  0  0  0  0  0  0  0  0  0  0
   37.2890   30.8490   38.5740 C   0  0  0  0  0  0  0  0  0  0  0  0
   37.3110   30.7030   37.2440 N   0  0  0  0  0  0  0  0  0  0  0  0
   36.6390   29.6760   36.6240 C   0  0  0  0  0  0  0  0  0  0  0  0
   35.9560   28.8160   37.3660 N   0  0  0  0  0  0  0  0  0  0  0  0
   35.3470   28.2220   39.3520 H   0  0  0  0  0  0  0  0  0  0  0  0
   36.6690   29.5750   35.5380 H   0  0  0  0  0  0  0  0  0  0  0  0
   38.0030   31.9410   39.2510 C   0  0  0  0  0  0  0  0  0  0  0  0
   37.3970   33.1660   39.3850 C   0  0  0  0  0  0  0  0  0  0  0  0
   38.1040   34.1590   40.0260 C   0  0  0  0  0  0  0  0  0  0  0  0
   39.3790   34.0030   40.5420 C   0  0  0  0  0  0  0  0  0  0  0  0
   39.9180   32.7390   40.3650 C   0  0  0  0  0  0  0  0  0  0  0  0
   39.2360   31.7570   39.7390 N   0  0  0  0  0  0  0  0  0  0  0  0
   36.3980   33.3710   39.0070 H   0  0  0  0  0  0  0  0  0  0  0  0
   37.6480   35.1470   40.1480 H   0  0  0  0  0  0  0  0  0  0  0  0
   39.9210   34.7870   41.0410 H   0  0  0  0  0  0  0  0  0  0  0  0
   40.9050   32.4890   40.7230 H   0  0  0  0  0  0  0  0  0  0  0  0
   36.5230   30.0620   40.7790 C   0  0  0  0  0  0  0  0  0  0  0  0
   35.8450   30.9920   41.2810 O   0  0  0  0  0  0  0  0  0  0  0  0
   37.2150   29.1430   41.6760 C   0  0  0  0  0  0  0  0  0  0  0  0
   36.5760   28.0210   42.1630 C   0  0  0  0  0  0  0  0  0  0  0  0
   35.5540   27.8520   41.8600 H   0  0  0  0  0  0  0  0  0  0  0  0
   37.2140   27.1460   43.0090 C   0  0  0  0  0  0  0  0  0  0  0  0
   36.7160   26.2500   43.4040 H   0  0  0  0  0  0  0  0  0  0  0  0
   38.5280   27.3790   43.3900 C   0  0  0  0  0  3  0  0  0  0  0  0
   39.1220   28.5130   42.8760 C   0  0  0  0  0  3  0  0  0  0  0  0
   38.4890   29.3570   42.0540 N   0  0  0  0  0  0  0  0  0  0  0  0
  1  7  1  0  0  0  0
  1  2  1  0  0  0  0
  2 19  1  0  0  0  0
  3  9  1  0  0  0  0
  3  2  2  0  0  0  0
  4  3  1  0  0  0  0
  5  4  2  0  0  0  0
  5  6  1  0  0  0  0
  6  1  2  0  0  0  0
  8  5  1  0  0  0  0
  9 10  2  0  0  0  0
  9 14  1  0  0  0  0
 10 11  1  0  0  0  0
 11 16  1  0  0  0  0
 11 12  2  0  0  0  0
 12 17  1  0  0  0  0
 13 12  1  0  0  0  0
 13 18  1  0  0  0  0
 14 13  2  0  0  0  0
 15 10  1  0  0  0  0
 19 20  2  0  0  0  0
 19 21  1  0  0  0  0
 21 28  2  0  0  0  0
 21 22  1  0  0  0  0
 22 24  2  0  0  0  0
 23 22  1  0  0  0  0
 24 26  1  0  0  0  0
 24 25  1  0  0  0  0
 27 26  2  0  0  0  0
 28 27  1  0  0  0  0
M  END
>  <minimizedAffinity>
-5.41304636

$$$$

 OpenBabel03252507173D

 28 30  0  0  0  0  0  0  0  0999 V2000
   39.8000   31.9010   40.9660 C   0  0  0  0  0  0  0  0  0  0  0  0
   38.8230   30.9890   40.4960 C   0  0  0  0  0  0  0  0  0  0  0  0
   37.6710   31.5130   39.9310 C   0  0  0  0  0  0  0  0  0  0  0  0
   37.5080   32.8370   39.8440 N   0  0  0  0  0  0  0  0  0  0  0  0
   38.4640   33.7110   40.3050 C   0  0  0  0  0  0  0  0  0  0  0  0
   39.5710   33.2220   40.8460 N   0  0  0  0  0  0  0  0  0  0  0  0
   40.6900   31.4600   41.4010 H   0  0  0  0  0  0  0  0  0  0  0  0
   38.3110   34.7880   40.2240 H   0  0  0  0  0  0  0  0  0  0  0  0
   36.6560   30.5670   39.4440 C   0  0  0  0  0  0  0  0  0  0  0  0
   35.6380   30.1780   40.2780 C   0  0  0  0  0  0  0  0  0  0  0  0
   34.7110   29.2890   39.7790 C   0  0  0  0  0  0  0  0  0  0  0  0
   34.7390   28.7680   38.4970 C   0  0  0  0  0  0  0  0  0  0  0  0
   35.7980   29.2110   37.7210 C   0  0  0  0  0  0  0  0  0  0  0  0
   36.7130   30.0810   38.1980 N   0  0  0  0  0  0  0  0  0  0  0  0
   35.5440   30.5400   41.2990 H   0  0  0  0  0  0  0  0  0  0  0  0
   33.8870   28.9600   40.4190 H   0  0  0  0  0  0  0  0  0  0  0  0
   34.0090   28.0740   38.1180 H   0  0  0  0  0  0  0  0  0  0  0  0
   35.9330   28.8780   36.7030 H   0  0  0  0  0  0  0  0  0  0  0  0
   39.0500   29.5900   40.6150 C   0  0  0  0  0  0  0  0  0  0  0  0
   39.9090   29.0590   39.8690 O   0  0  0  0  0  0  0  0  0  0  0  0
   38.3320   28.7430   41.5610 C   0  0  0  0  0  0  0  0  0  0  0  0
   37.9050   27.4830   41.1930 C   0  0  0  0  0  0  0  0  0  0  0  0
   38.1180   27.1520   40.1890 H   0  0  0  0  0  0  0  0  0  0  0  0
   37.2270   26.6730   42.0730 C   0  0  0  0  0  0  0  0  0  0  0  0
   36.8810   25.6690   41.7920 H   0  0  0  0  0  0  0  0  0  0  0  0
   36.9600   27.1140   43.3610 C   0  0  0  0  0  3  0  0  0  0  0  0
   37.4080   28.3800   43.6800 C   0  0  0  0  0  3  0  0  0  0  0  0
   38.0660   29.1580   42.8140 N   0  0  0  0  0  0  0  0  0  0  0  0
  1  7  1  0  0  0  0
  2 19  1  0  0  0  0
  2  1  2  0  0  0  0
  3  2  1  0  0  0  0
  4  3  2  0  0  0  0
  4  5  1  0  0  0  0
  5  6  2  0  0  0  0
  6  1  1  0  0  0  0
  8  5  1  0  0  0  0
  9  3  1  0  0  0  0
  9 10  1  0  0  0  0
 10 15  1  0  0  0  0
 11 10  2  0  0  0  0
 11 16  1  0  0  0  0
 12 11  1  0  0  0  0
 13 14  1  0  0  0  0
 13 12  2  0  0  0  0
 14  9  2  0  0  0  0
 17 12  1  0  0  0  0
 18 13  1  0  0  0  0
 19 21  1  0  0  0  0
 20 19  2  0  0  0  0
 21 28  1  0  0  0  0
 22 21  2  0  0  0  0
 22 24  1  0  0  0  0
 23 22  1  0  0  0  0
 24 26  2  0  0  0  0
 25 24  1  0  0  0  0
 26 27  1  0  0  0  0
 28 27  2  0  0  0  0
M  END
>  <minimizedAffinity>
-5.24887753

$$$$

 OpenBabel03252507173D

 28 30  0  0  0  0  0  0  0  0999 V2000
   35.5100   27.2350   37.9390 C   0  0  0  0  0  0  0  0  0  0  0  0
   35.9380   27.7620   39.1830 C   0  0  0  0  0  0  0  0  0  0  0  0
   36.8020   26.9930   39.9460 C   0  0  0  0  0  0  0  0  0  0  0  0
   37.2040   25.7970   39.5050 N   0  0  0  0  0  0  0  0  0  0  0  0
   36.7810   25.2970   38.2960 C   0  0  0  0  0  0  0  0  0  0  0  0
   35.9560   26.0230   37.5560 N   0  0  0  0  0  0  0  0  0  0  0  0
   34.8350   27.8610   37.3650 H   0  0  0  0  0  0  0  0  0  0  0  0
   37.1220   24.3180   37.9550 H   0  0  0  0  0  0  0  0  0  0  0  0
   37.2460   27.5400   41.2370 C   0  0  0  0  0  0  0  0  0  0  0  0
   36.4940   27.3120   42.3620 C   0  0  0  0  0  0  0  0  0  0  0  0
   36.9480   27.8450   43.5490 C   0  0  0  0  0  0  0  0  0  0  0  0
   38.1080   28.5880   43.6790 C   0  0  0  0  0  0  0  0  0  0  0  0
   38.8070   28.7710   42.4970 C   0  0  0  0  0  0  0  0  0  0  0  0
   38.3730   28.2560   41.3280 N   0  0  0  0  0  0  0  0  0  0  0  0
   35.5700   26.7390   42.3460 H   0  0  0  0  0  0  0  0  0  0  0  0
   36.3700   27.6810   44.4640 H   0  0  0  0  0  0  0  0  0  0  0  0
   38.4530   28.9990   44.6130 H   0  0  0  0  0  0  0  0  0  0  0  0
   39.7280   29.3330   42.4650 H   0  0  0  0  0  0  0  0  0  0  0  0
   35.4770   29.0410   39.6020 C   0  0  0  0  0  0  0  0  0  0  0  0
   34.3390   29.1230   40.1270 O   0  0  0  0  0  0  0  0  0  0  0  0
   36.2620   30.2610   39.4490 C   0  0  0  0  0  0  0  0  0  0  0  0
   36.7920   30.6080   38.2220 C   0  0  0  0  0  0  0  0  0  0  0  0
   36.6070   29.9470   37.3890 H   0  0  0  0  0  0  0  0  0  0  0  0
   37.5340   31.7530   38.0620 C   0  0  0  0  0  0  0  0  0  0  0  0
   37.9620   32.0400   37.0920 H   0  0  0  0  0  0  0  0  0  0  0  0
   37.7630   32.5910   39.1440 C   0  0  0  0  0  3  0  0  0  0  0  0
   37.2120   32.2010   40.3480 C   0  0  0  0  0  3  0  0  0  0  0  0
   36.4930   31.0830   40.4900 N   0  0  0  0  0  0  0  0  0  0  0  0
  1  2  1  0  0  0  0
  2 19  1  0  0  0  0
  2  3  2  0  0  0  0
  3  9  1  0  0  0  0
  4  3  1  0  0  0  0
  5  4  2  0  0  0  0
  6  1  2  0  0  0  0
  6  5  1  0  0  0  0
  7  1  1  0  0  0  0
  8  5  1  0  0  0  0
  9 14  2  0  0  0  0
  9 10  1  0  0  0  0
 10 11  2  0  0  0  0
 11 12  1  0  0  0  0
 11 16  1  0  0  0  0
 12 17  1  0  0  0  0
 13 12  2  0  0  0  0
 14 13  1  0  0  0  0
 15 10  1  0  0  0  0
 18 13  1  0  0  0  0
 19 20  2  0  0  0  0
 21 19  1  0  0  0  0
 21 28  1  0  0  0  0
 22 21  2  0  0  0  0
 23 22  1  0  0  0  0
 24 22  1  0  0  0  0
 24 26  2  0  0  0  0
 25 24  1  0  0  0  0
 26 27  1  0  0  0  0
 27 28  2  0  0  0  0
M  END
>  <minimizedAffinity>
-5.08308363

$$$$

 OpenBabel03252507173D

 28 30  0  0  0  0  0  0  0  0999 V2000
   37.2510   24.9020   42.2270 C   0  0  0  0  0  0  0  0  0  0  0  0
   37.1650   26.2590   41.8280 C   0  0  0  0  0  0  0  0  0  0  0  0
   36.8020   26.5260   40.5180 C   0  0  0  0  0  0  0  0  0  0  0  0
   36.5470   25.5200   39.6740 N   0  0  0  0  0  0  0  0  0  0  0  0
   36.6340   24.2070   40.0740 C   0  0  0  0  0  0  0  0  0  0  0  0
   36.9790   23.9400   41.3250 N   0  0  0  0  0  0  0  0  0  0  0  0
   37.5360   24.7270   43.2580 H   0  0  0  0  0  0  0  0  0  0  0  0
   36.4210   23.4020   39.3690 H   0  0  0  0  0  0  0  0  0  0  0  0
   36.7130   27.9340   40.1050 C   0  0  0  0  0  0  0  0  0  0  0  0
   35.6220   28.6800   40.4750 C   0  0  0  0  0  0  0  0  0  0  0  0
   35.5810   29.9940   40.0650 C   0  0  0  0  0  0  0  0  0  0  0  0
   36.5660   30.6080   39.3090 C   0  0  0  0  0  0  0  0  0  0  0  0
   37.6310   29.7860   38.9790 C   0  0  0  0  0  0  0  0  0  0  0  0
   37.6820   28.4970   39.3740 N   0  0  0  0  0  0  0  0  0  0  0  0
   34.8060   28.2730   41.0680 H   0  0  0  0  0  0  0  0  0  0  0  0
   34.7250   30.6160   40.3430 H   0  0  0  0  0  0  0  0  0  0  0  0
   36.5230   31.6370   38.9950 H   0  0  0  0  0  0  0  0  0  0  0  0
   38.4630   30.1460   38.3920 H   0  0  0  0  0  0  0  0  0  0  0  0
   37.4480   27.2890   42.7690 C   0  0  0  0  0  0  0  0  0  0  0  0
   36.6120   27.5120   43.6790 O   0  0  0  0  0  0  0  0  0  0  0  0
   38.6620   28.0970   42.7260 C   0  0  0  0  0  0  0  0  0  0  0  0
   38.5920   29.4750   42.7640 C   0  0  0  0  0  0  0  0  0  0  0  0
   37.6140   29.9270   42.8230 H   0  0  0  0  0  0  0  0  0  0  0  0
   39.7260   30.2500   42.7240 C   0  0  0  0  0  0  0  0  0  0  0  0
   39.6830   31.3470   42.7520 H   0  0  0  0  0  0  0  0  0  0  0  0
   40.9760   29.6510   42.6470 C   0  0  0  0  0  3  0  0  0  0  0  0
   40.9920   28.2720   42.6120 C   0  0  0  0  0  3  0  0  0  0  0  0
   39.8810   27.5300   42.6510 N   0  0  0  0  0  0  0  0  0  0  0  0
  1  7  1  0  0  0  0
  2  1  1  0  0  0  0
  2 19  1  0  0  0  0
  3  2  2  0  0  0  0
  4  5  2  0  0  0  0
  4  3  1  0  0  0  0
  5  6  1  0  0  0  0
  6  1  2  0  0  0  0
  8  5  1  0  0  0  0
  9 10  1  0  0  0  0
  9  3  1  0  0  0  0
 10 15  1  0  0  0  0
 11 16  1  0  0  0  0
 11 10  2  0  0  0  0
 12 11  1  0  0  0  0
 13 12  2  0  0  0  0
 13 14  1  0  0  0  0
 14  9  2  0  0  0  0
 17 12  1  0  0  0  0
 18 13  1  0  0  0  0
 19 20  2  0  0  0  0
 21 22  1  0  0  0  0
 21 19  1  0  0  0  0
 22 23  1  0  0  0  0
 24 25  1  0  0  0  0
 24 22  2  0  0  0  0
 26 24  1  0  0  0  0
 27 26  2  0  0  0  0
 27 28  1  0  0  0  0
 28 21  2  0  0  0  0
M  END
>  <minimizedAffinity>
-5.04215765

$$$$

 OpenBabel03252507173D

 28 30  0  0  0  0  0  0  0  0999 V2000
   35.8240   29.2190   41.0570 C   0  0  0  0  0  0  0  0  0  0  0  0
   36.5270   28.0090   41.2810 C   0  0  0  0  0  0  0  0  0  0  0  0
   36.5980   27.1020   40.2360 C   0  0  0  0  0  0  0  0  0  0  0  0
   36.0130   27.3780   39.0660 N   0  0  0  0  0  0  0  0  0  0  0  0
   35.3340   28.5550   38.8620 C   0  0  0  0  0  0  0  0  0  0  0  0
   35.2600   29.4320   39.8530 N   0  0  0  0  0  0  0  0  0  0  0  0
   35.7870   29.9080   41.8940 H   0  0  0  0  0  0  0  0  0  0  0  0
   34.8640   28.7610   37.8990 H   0  0  0  0  0  0  0  0  0  0  0  0
   37.3280   25.8470   40.4680 C   0  0  0  0  0  0  0  0  0  0  0  0
   36.7220   24.8310   41.1670 C   0  0  0  0  0  0  0  0  0  0  0  0
   37.4440   23.6750   41.3610 C   0  0  0  0  0  0  0  0  0  0  0  0
   38.7330   23.4700   40.8980 C   0  0  0  0  0  0  0  0  0  0  0  0
   39.2690   24.5420   40.2040 C   0  0  0  0  0  0  0  0  0  0  0  0
   38.5730   25.6810   40.0070 N   0  0  0  0  0  0  0  0  0  0  0  0
   35.7130   24.9120   41.5640 H   0  0  0  0  0  0  0  0  0  0  0  0
   36.9900   22.8470   41.9140 H   0  0  0  0  0  0  0  0  0  0  0  0
   39.2870   22.5600   41.0560 H   0  0  0  0  0  0  0  0  0  0  0  0
   40.2670   24.5080   39.7920 H   0  0  0  0  0  0  0  0  0  0  0  0
   37.1290   27.7690   42.5470 C   0  0  0  0  0  0  0  0  0  0  0  0
   36.3880   27.4500   43.5100 O   0  0  0  0  0  0  0  0  0  0  0  0
   38.5660   27.8760   42.7810 C   0  0  0  0  0  0  0  0  0  0  0  0
   39.2460   26.8790   43.4500 C   0  0  0  0  0  0  0  0  0  0  0  0
   38.6800   26.0260   43.7930 H   0  0  0  0  0  0  0  0  0  0  0  0
   40.5980   26.9650   43.6780 C   0  0  0  0  0  0  0  0  0  0  0  0
   41.1510   26.1790   44.2100 H   0  0  0  0  0  0  0  0  0  0  0  0
   41.3100   28.0690   43.2310 C   0  0  0  0  0  3  0  0  0  0  0  0
   40.5850   29.0370   42.5680 C   0  0  0  0  0  3  0  0  0  0  0  0
   39.2690   28.9410   42.3540 N   0  0  0  0  0  0  0  0  0  0  0  0
  1  2  1  0  0  0  0
  1  7  1  0  0  0  0
  2 19  1  0  0  0  0
  3  9  1  0  0  0  0
  3  2  2  0  0  0  0
  4  3  1  0  0  0  0
  5  4  2  0  0  0  0
  5  6  1  0  0  0  0
  6  1  2  0  0  0  0
  8  5  1  0  0  0  0
  9 10  1  0  0  0  0
 10 11  2  0  0  0  0
 10 15  1  0  0  0  0
 11 16  1  0  0  0  0
 12 17  1  0  0  0  0
 12 11  1  0  0  0  0
 13 12  2  0  0  0  0
 14 13  1  0  0  0  0
 14  9  2  0  0  0  0
 18 13  1  0  0  0  0
 19 21  1  0  0  0  0
 19 20  2  0  0  0  0
 21 22  1  0  0  0  0
 22 24  2  0  0  0  0
 22 23  1  0  0  0  0
 24 25  1  0  0  0  0
 26 24  1  0  0  0  0
 27 26  2  0  0  0  0
 28 27  1  0  0  0  0
 28 21  2  0  0  0  0
M  END
>  <minimizedAffinity>
-5.01633787

$$$$

 OpenBabel03252507173D

 28 30  0  0  0  0  0  0  0  0999 V2000
   39.4300   27.0930   43.6650 C   0  0  0  0  0  0  0  0  0  0  0  0
   38.4490   26.6780   42.7310 C   0  0  0  0  0  0  0  0  0  0  0  0
   38.7720   25.6370   41.8750 C   0  0  0  0  0  0  0  0  0  0  0  0
   39.9770   25.0600   41.9440 N   0  0  0  0  0  0  0  0  0  0  0  0
   40.9200   25.4740   42.8550 C   0  0  0  0  0  0  0  0  0  0  0  0
   40.6220   26.4670   43.6800 N   0  0  0  0  0  0  0  0  0  0  0  0
   39.1460   27.9090   44.3210 H   0  0  0  0  0  0  0  0  0  0  0  0
   41.8970   24.9880   42.8940 H   0  0  0  0  0  0  0  0  0  0  0  0
   37.7540   25.2060   40.9060 C   0  0  0  0  0  0  0  0  0  0  0  0
   37.7010   25.8020   39.6700 C   0  0  0  0  0  0  0  0  0  0  0  0
   36.7300   25.3670   38.7950 C   0  0  0  0  0  0  0  0  0  0  0  0
   35.8100   24.3720   39.0800 C   0  0  0  0  0  0  0  0  0  0  0  0
   35.9320   23.8240   40.3460 C   0  0  0  0  0  0  0  0  0  0  0  0
   36.8790   24.2420   41.2130 N   0  0  0  0  0  0  0  0  0  0  0  0
   38.3860   26.5910   39.3680 H   0  0  0  0  0  0  0  0  0  0  0  0
   36.6620   25.8220   37.8020 H   0  0  0  0  0  0  0  0  0  0  0  0
   35.0560   24.0410   38.3870 H   0  0  0  0  0  0  0  0  0  0  0  0
   35.2750   23.0400   40.6900 H   0  0  0  0  0  0  0  0  0  0  0  0
   37.1840   27.3290   42.7020 C   0  0  0  0  0  0  0  0  0  0  0  0
   36.2500   26.8500   43.3920 O   0  0  0  0  0  0  0  0  0  0  0  0
   36.9210   28.5250   41.9090 C   0  0  0  0  0  0  0  0  0  0  0  0
   35.8350   28.5800   41.0590 C   0  0  0  0  0  0  0  0  0  0  0  0
   35.1960   27.7120   41.0010 H   0  0  0  0  0  0  0  0  0  0  0  0
   35.5730   29.6990   40.3050 C   0  0  0  0  0  0  0  0  0  0  0  0
   34.7130   29.7550   39.6240 H   0  0  0  0  0  0  0  0  0  0  0  0
   36.4060   30.8060   40.3910 C   0  0  0  0  0  3  0  0  0  0  0  0
   37.4760   30.7010   41.2550 C   0  0  0  0  0  3  0  0  0  0  0  0
   37.7200   29.6060   41.9820 N   0  0  0  0  0  0  0  0  0  0  0  0
  1  6  1  0  0  0  0
  1  7  1  0  0  0  0
  2  1  2  0  0  0  0
  3  4  2  0  0  0  0
  3  2  1  0  0  0  0
  4  5  1  0  0  0  0
  5  8  1  0  0  0  0
  5  6  2  0  0  0  0
  9 14  1  0  0  0  0
  9  3  1  0  0  0  0
 10  9  2  0  0  0  0
 11 12  2  0  0  0  0
 11 10  1  0  0  0  0
 12 13  1  0  0  0  0
 13 18  1  0  0  0  0
 13 14  2  0  0  0  0
 15 10  1  0  0  0  0
 16 11  1  0  0  0  0
 17 12  1  0  0  0  0
 19  2  1  0  0  0  0
 19 20  2  0  0  0  0
 21 28  1  0  0  0  0
 21 19  1  0  0  0  0
 22 21  2  0  0  0  0
 23 22  1  0  0  0  0
 24 26  2  0  0  0  0
 24 22  1  0  0  0  0
 25 24  1  0  0  0  0
 26 27  1  0  0  0  0
 27 28  2  0  0  0  0
M  END
>  <minimizedAffinity>
-5.00798988

$$$$

 OpenBabel03252507173D

 28 30  0  0  0  0  0  0  0  0999 V2000
   34.3890   29.1720   39.5580 C   0  0  0  0  0  0  0  0  0  0  0  0
   35.7240   29.6470   39.6060 C   0  0  0  0  0  0  0  0  0  0  0  0
   36.4400   29.6790   38.4200 C   0  0  0  0  0  0  0  0  0  0  0  0
   35.8710   29.2710   37.2810 N   0  0  0  0  0  0  0  0  0  0  0  0
   34.5760   28.8120   37.2490 C   0  0  0  0  0  0  0  0  0  0  0  0
   33.8800   28.7780   38.3760 N   0  0  0  0  0  0  0  0  0  0  0  0
   33.8560   29.1600   40.5020 H   0  0  0  0  0  0  0  0  0  0  0  0
   34.1310   28.4840   36.3080 H   0  0  0  0  0  0  0  0  0  0  0  0
   37.8240   30.1710   38.4700 C   0  0  0  0  0  0  0  0  0  0  0  0
   38.8540   29.2780   38.6370 C   0  0  0  0  0  0  0  0  0  0  0  0
   40.1340   29.7850   38.6790 C   0  0  0  0  0  0  0  0  0  0  0  0
   40.4480   31.1280   38.5620 C   0  0  0  0  0  0  0  0  0  0  0  0
   39.3530   31.9600   38.3970 C   0  0  0  0  0  0  0  0  0  0  0  0
   38.0940   31.4770   38.3550 N   0  0  0  0  0  0  0  0  0  0  0  0
   38.6930   28.2070   38.7360 H   0  0  0  0  0  0  0  0  0  0  0  0
   40.9770   29.0990   38.8100 H   0  0  0  0  0  0  0  0  0  0  0  0
   41.4530   31.5110   38.5960 H   0  0  0  0  0  0  0  0  0  0  0  0
   39.4640   33.0290   38.2950 H   0  0  0  0  0  0  0  0  0  0  0  0
   36.2770   30.0690   40.8470 C   0  0  0  0  0  0  0  0  0  0  0  0
   36.1360   31.2690   41.1870 O   0  0  0  0  0  0  0  0  0  0  0  0
   37.0010   29.1730   41.7430 C   0  0  0  0  0  0  0  0  0  0  0  0
   36.4600   27.9570   42.1100 C   0  0  0  0  0  0  0  0  0  0  0  0
   35.4890   27.6980   41.7160 H   0  0  0  0  0  0  0  0  0  0  0  0
   37.1290   27.1020   42.9530 C   0  0  0  0  0  0  0  0  0  0  0  0
   36.7080   26.1330   43.2540 H   0  0  0  0  0  0  0  0  0  0  0  0
   38.3760   27.4510   43.4520 C   0  0  0  0  0  3  0  0  0  0  0  0
   38.8730   28.6750   43.0540 C   0  0  0  0  0  3  0  0  0  0  0  0
   38.2110   29.4980   42.2340 N   0  0  0  0  0  0  0  0  0  0  0  0
  1  2  1  0  0  0  0
  1  7  1  0  0  0  0
  2 19  1  0  0  0  0
  3  9  1  0  0  0  0
  3  2  2  0  0  0  0
  4  3  1  0  0  0  0
  5  4  2  0  0  0  0
  5  6  1  0  0  0  0
  6  1  2  0  0  0  0
  8  5  1  0  0  0  0
  9 10  1  0  0  0  0
 10 11  2  0  0  0  0
 10 15  1  0  0  0  0
 11 16  1  0  0  0  0
 12 17  1  0  0  0  0
 12 11  1  0  0  0  0
 13 12  2  0  0  0  0
 14 13  1  0  0  0  0
 14  9  2  0  0  0  0
 18 13  1  0  0  0  0
 19 20  2  0  0  0  0
 19 21  1  0  0  0  0
 21 22  2  0  0  0  0
 21 28  1  0  0  0  0
 22 24  1  0  0  0  0
 23 22  1  0  0  0  0
 24 25  1  0  0  0  0
 24 26  2  0  0  0  0
 27 26  1  0  0  0  0
 28 27  2  0  0  0  0
M  END
>  <minimizedAffinity>
-4.96824455

$$$$

 OpenBabel03252507173D

 28 30  0  0  0  0  0  0  0  0999 V2000
   39.0260   31.8770   39.5250 C   0  0  0  0  0  0  0  0  0  0  0  0
   38.3210   30.8690   40.2290 C   0  0  0  0  0  0  0  0  0  0  0  0
   39.0590   29.9760   40.9880 C   0  0  0  0  0  0  0  0  0  0  0  0
   40.3910   30.0780   41.0390 N   0  0  0  0  0  0  0  0  0  0  0  0
   41.0630   31.0600   40.3500 C   0  0  0  0  0  0  0  0  0  0  0  0
   40.3680   31.9220   39.6220 N   0  0  0  0  0  0  0  0  0  0  0  0
   38.4200   32.5610   38.9410 H   0  0  0  0  0  0  0  0  0  0  0  0
   42.1510   31.1260   40.4060 H   0  0  0  0  0  0  0  0  0  0  0  0
   38.3270   28.9300   41.7180 C   0  0  0  0  0  0  0  0  0  0  0  0
   37.9950   29.1310   43.0350 C   0  0  0  0  0  0  0  0  0  0  0  0
   37.3100   28.1240   43.6790 C   0  0  0  0  0  0  0  0  0  0  0  0
   36.9360   26.9300   43.0860 C   0  0  0  0  0  0  0  0  0  0  0  0
   37.3090   26.8080   41.7570 C   0  0  0  0  0  0  0  0  0  0  0  0
   37.9800   27.7870   41.1150 N   0  0  0  0  0  0  0  0  0  0  0  0
   38.2520   30.0400   43.5740 H   0  0  0  0  0  0  0  0  0  0  0  0
   37.0310   28.2530   44.7290 H   0  0  0  0  0  0  0  0  0  0  0  0
   36.4000   26.1500   43.6000 H   0  0  0  0  0  0  0  0  0  0  0  0
   37.0760   25.9240   41.1830 H   0  0  0  0  0  0  0  0  0  0  0  0
   36.9020   30.8080   40.1370 C   0  0  0  0  0  0  0  0  0  0  0  0
   36.2210   31.4120   41.0030 O   0  0  0  0  0  0  0  0  0  0  0  0
   36.2010   30.0770   39.0870 C   0  0  0  0  0  0  0  0  0  0  0  0
   35.0960   29.3050   39.3850 C   0  0  0  0  0  0  0  0  0  0  0  0
   34.7740   29.2620   40.4140 H   0  0  0  0  0  0  0  0  0  0  0  0
   34.4250   28.6100   38.4070 C   0  0  0  0  0  0  0  0  0  0  0  0
   33.5450   27.9930   38.6310 H   0  0  0  0  0  0  0  0  0  0  0  0
   34.8530   28.6760   37.0880 C   0  0  0  0  0  3  0  0  0  0  0  0
   35.9610   29.4600   36.8430 C   0  0  0  0  0  3  0  0  0  0  0  0
   36.6050   30.1310   37.8040 N   0  0  0  0  0  0  0  0  0  0  0  0
  1  6  2  0  0  0  0
  1  2  1  0  0  0  0
  2  3  2  0  0  0  0
  3  4  1  0  0  0  0
  3  9  1  0  0  0  0
  5  8  1  0  0  0  0
  5  4  2  0  0  0  0
  6  5  1  0  0  0  0
  7  1  1  0  0  0  0
  9 10  1  0  0  0  0
 10 15  1  0  0  0  0
 10 11  2  0  0  0  0
 11 16  1  0  0  0  0
 12 17  1  0  0  0  0
 12 11  1  0  0  0  0
 13 12  2  0  0  0  0
 14  9  2  0  0  0  0
 14 13  1  0  0  0  0
 18 13  1  0  0  0  0
 19  2  1  0  0  0  0
 19 20  2  0  0  0  0
 21 22  1  0  0  0  0
 21 19  1  0  0  0  0
 22 23  1  0  0  0  0
 24 25  1  0  0  0  0
 24 22  2  0  0  0  0
 26 24  1  0  0  0  0
 27 26  2  0  0  0  0
 27 28  1  0  0  0  0
 28 21  2  0  0  0  0
M  END
>  <minimizedAffinity>
-4.96671009

$$$$

 OpenBabel03252507173D

 28 30  0  0  0  0  0  0  0  0999 V2000
   36.9440   30.0310   37.6750 C   0  0  0  0  0  0  0  0  0  0  0  0
   37.1420   29.8270   39.0630 C   0  0  0  0  0  0  0  0  0  0  0  0
   37.3350   28.5280   39.5040 C   0  0  0  0  0  0  0  0  0  0  0  0
   37.3290   27.5150   38.6310 N   0  0  0  0  0  0  0  0  0  0  0  0
   37.1350   27.7260   37.2860 C   0  0  0  0  0  0  0  0  0  0  0  0
   36.9510   28.9650   36.8520 N   0  0  0  0  0  0  0  0  0  0  0  0
   36.7960   31.0590   37.3620 H   0  0  0  0  0  0  0  0  0  0  0  0
   37.1340   26.8850   36.5910 H   0  0  0  0  0  0  0  0  0  0  0  0
   37.5410   28.3170   40.9440 C   0  0  0  0  0  0  0  0  0  0  0  0
   36.5060   27.8430   41.7130 C   0  0  0  0  0  0  0  0  0  0  0  0
   36.7440   27.6620   43.0570 C   0  0  0  0  0  0  0  0  0  0  0  0
   37.9530   27.9230   43.6800 C   0  0  0  0  0  0  0  0  0  0  0  0
   38.9420   28.3970   42.8330 C   0  0  0  0  0  0  0  0  0  0  0  0
   38.7220   28.5800   41.5150 N   0  0  0  0  0  0  0  0  0  0  0  0
   35.5260   27.6130   41.3020 H   0  0  0  0  0  0  0  0  0  0  0  0
   35.9400   27.2850   43.6970 H   0  0  0  0  0  0  0  0  0  0  0  0
   38.1270   27.7770   44.7320 H   0  0  0  0  0  0  0  0  0  0  0  0
   39.9300   28.6390   43.1970 H   0  0  0  0  0  0  0  0  0  0  0  0
   37.1380   30.9430   39.9460 C   0  0  0  0  0  0  0  0  0  0  0  0
   36.1460   31.1060   40.6990 O   0  0  0  0  0  0  0  0  0  0  0  0
   38.2310   31.9080   40.0170 C   0  0  0  0  0  0  0  0  0  0  0  0
   37.9770   33.2400   40.2730 C   0  0  0  0  0  0  0  0  0  0  0  0
   36.9500   33.5390   40.4140 H   0  0  0  0  0  0  0  0  0  0  0  0
   38.9960   34.1610   40.3430 C   0  0  0  0  0  0  0  0  0  0  0  0
   38.8070   35.2240   40.5450 H   0  0  0  0  0  0  0  0  0  0  0  0
   40.3110   33.7590   40.1580 C   0  0  0  0  0  3  0  0  0  0  0  0
   40.5110   32.4180   39.9060 C   0  0  0  0  0  3  0  0  0  0  0  0
   39.5110   31.5320   39.8390 N   0  0  0  0  0  0  0  0  0  0  0  0
  1  2  1  0  0  0  0
  2  3  2  0  0  0  0
  2 19  1  0  0  0  0
  3  9  1  0  0  0  0
  4  3  1  0  0  0  0
  5  4  2  0  0  0  0
  6  5  1  0  0  0  0
  6  1  2  0  0  0  0
  7  1  1  0  0  0  0
  8  5  1  0  0  0  0
  9 14  2  0  0  0  0
  9 10  1  0  0  0  0
 10 11  2  0  0  0  0
 11 12  1  0  0  0  0
 11 16  1  0  0  0  0
 12 17  1  0  0  0  0
 13 18  1  0  0  0  0
 13 12  2  0  0  0  0
 14 13  1  0  0  0  0
 15 10  1  0  0  0  0
 19 21  1  0  0  0  0
 19 20  2  0  0  0  0
 21 22  1  0  0  0  0
 22 24  2  0  0  0  0
 22 23  1  0  0  0  0
 24 25  1  0  0  0  0
 26 24  1  0  0  0  0
 27 26  2  0  0  0  0
 28 27  1  0  0  0  0
 28 21  2  0  0  0  0
M  END
>  <minimizedAffinity>
-4.93139172

$$$$
