
 OpenBabel03252503273D

 24 25  0  0  0  0  0  0  0  0999 V2000
   45.1830   34.7520   42.8790 C   0  0  0  0  0  0  0  0  0  0  0  0
   46.2200   35.1640   42.0180 C   0  0  0  0  0  0  0  0  0  0  0  0
   47.5190   34.7700   42.3800 C   0  0  0  0  0  0  0  0  0  0  0  0
   47.6820   34.0390   43.5040 N   0  0  0  0  0  0  0  0  0  0  0  0
   46.6530   33.6730   44.2900 C   0  0  0  0  0  0  0  0  0  0  0  0
   45.3930   34.0300   43.9810 N   0  0  0  0  0  0  0  0  0  0  0  0
   43.2960   34.3180   41.5380 C   0  0  0  0  0  0  0  0  0  0  0  0
   44.0570   33.4380   41.0060 O   0  0  0  0  0  0  0  0  0  0  0  0
   43.8270   35.1020   42.5990 N   0  0  0  0  0  0  0  0  0  0  0  0
   45.9030   35.7330   41.1790 H   0  0  0  0  0  0  0  0  0  0  0  0
   46.8120   33.0870   45.1870 H   0  0  0  0  0  0  0  0  0  0  0  0
   43.1920   35.8250   43.0460 H   0  0  0  0  0  0  0  0  0  0  0  0
   41.9150   34.5220   41.0720 C   0  0  0  0  0  0  0  0  0  0  0  0
   41.4410   35.8180   41.0210 C   0  0  0  0  0  0  0  0  0  0  0  0
   41.9970   36.7040   41.2920 H   0  0  0  0  0  0  0  0  0  0  0  0
   40.1350   35.8950   40.5710 C   0  0  0  0  0  0  0  0  0  0  0  0
   39.6690   36.8830   40.4950 H   0  0  0  0  0  0  0  0  0  0  0  0
   39.3400   34.8300   40.2000 C   0  0  0  0  0  0  0  0  0  0  0  0
   39.9020   33.5600   40.2860 C   0  0  0  0  0  0  0  0  0  0  0  0
   41.1820   33.4650   40.7240 N   0  0  0  0  0  0  0  0  0  0  0  0
   48.5720   35.2120   41.4650 C   0  0  0  0  0  0  0  0  0  0  0  0
   49.6920   34.3980   41.6570 F   0  0  0  0  0  0  0  0  0  0  0  0
   48.9660   36.4770   41.8700 F   0  0  0  0  0  0  0  0  0  0  0  0
   48.2200   35.1400   40.1530 F   0  0  0  0  0  0  0  0  0  0  0  0
  1  6  1  0  0  0  0
  2  3  1  0  0  0  0
  2  1  2  0  0  0  0
  3  4  2  0  0  0  0
  4  5  1  0  0  0  0
  5 11  1  0  0  0  0
  6  5  2  0  0  0  0
  7  9  1  0  0  0  0
  8  7  2  0  0  0  0
  9  1  1  0  0  0  0
  9 12  1  0  0  0  0
 10  2  1  0  0  0  0
 13  7  1  0  0  0  0
 14 13  1  0  0  0  0
 14 15  1  0  0  0  0
 16 14  2  0  0  0  0
 17 16  1  0  0  0  0
 18 19  2  0  0  0  0
 18 16  1  0  0  0  0
 19 20  1  0  0  0  0
 20 13  2  0  0  0  0
 21 22  1  0  0  0  0
 21 23  1  0  0  0  0
 21  3  1  0  0  0  0
 24 21  1  0  0  0  0
M  END
>  <minimizedAffinity>
-6.28287888

>  <minimizedRMSD>
1.1374532

$$$$
