
 OpenBabel03242520203D

 34 36  0  0  0  0  0  0  0  0999 V2000
   35.4520   28.9800   39.4590 C   0  0  0  0  0  0  0  0  0  0  0  0
   34.3740   29.1430   39.2550 H   0  0  0  0  0  0  0  0  0  0  0  0
   35.7360   28.0640   38.9300 H   0  0  0  0  0  0  0  0  0  0  0  0
   37.3820   32.2160   39.1590 C   0  0  0  0  0  0  0  0  0  0  0  0
   36.5800   31.1900   39.7020 C   0  0  0  0  0  0  0  0  0  0  0  0
   36.2810   30.0860   38.9210 C   0  0  0  0  0  0  0  0  0  0  0  0
   36.7960   30.0680   37.6450 N   0  0  0  0  0  0  0  0  0  0  0  0
   37.5620   31.0830   37.1720 C   0  0  0  0  0  0  0  0  0  0  0  0
   37.8530   32.1470   37.9210 N   0  0  0  0  0  0  0  0  0  0  0  0
   36.2320   31.3030   40.6980 H   0  0  0  0  0  0  0  0  0  0  0  0
   37.8970   30.9220   36.1370 H   0  0  0  0  0  0  0  0  0  0  0  0
   37.6990   33.4070   39.9940 C   0  0  0  0  0  0  0  0  0  0  0  0
   38.9030   33.1370   40.9700 C   0  0  0  0  0  0  0  0  0  0  0  0
   38.9010   34.1550   39.9150 C   0  0  0  0  0  0  0  0  0  0  0  0
   36.7830   33.6970   40.5950 H   0  0  0  0  0  0  0  0  0  0  0  0
   38.7900   33.4770   42.0010 H   0  0  0  0  0  0  0  0  0  0  0  0
   39.4690   32.2070   40.8140 H   0  0  0  0  0  0  0  0  0  0  0  0
   38.8610   35.2350   40.2450 H   0  0  0  0  0  0  0  0  0  0  0  0
   39.5210   34.0830   38.9880 H   0  0  0  0  0  0  0  0  0  0  0  0
   35.6340   28.8770   40.9670 C   0  0  0  0  0  0  0  0  0  0  0  0
   34.6320   28.8240   41.4780 H   0  0  0  0  0  0  0  0  0  0  0  0
   36.0830   29.8170   41.2970 H   0  0  0  0  0  0  0  0  0  0  0  0
   37.2480   27.8450   42.4770 C   0  0  0  0  0  0  0  0  0  0  0  0
   37.2720   28.8480   43.2500 O   0  0  0  0  0  0  0  0  0  0  0  0
   36.4020   27.7120   41.3480 N   0  0  0  0  0  0  0  0  0  0  0  0
   36.3100   26.8380   40.7910 H   0  0  0  0  0  0  0  0  0  0  0  0
   38.1590   26.7040   42.7440 C   0  0  0  0  0  0  0  0  0  0  0  0
   37.8700   25.4660   42.1870 C   0  0  0  0  0  0  0  0  0  0  0  0
   36.9770   25.3870   41.5730 H   0  0  0  0  0  0  0  0  0  0  0  0
   38.6290   24.3250   42.3520 C   0  0  0  0  0  0  0  0  0  0  0  0
   38.3480   23.3880   41.8890 H   0  0  0  0  0  0  0  0  0  0  0  0
   39.7660   24.4630   43.1450 C   0  0  0  0  0  3  0  0  0  0  0  0
   40.0180   25.7090   43.6800 C   0  0  0  0  0  3  0  0  0  0  0  0
   39.2610   26.8050   43.5020 N   0  0  0  0  0  0  0  0  0  0  0  0
  1 20  1  0  0  0  0
  2  1  1  0  0  0  0
  3  1  1  0  0  0  0
  4  5  1  0  0  0  0
  4 12  1  0  0  0  0
  5 10  1  0  0  0  0
  6  1  1  0  0  0  0
  6  5  2  0  0  0  0
  7  6  1  0  0  0  0
  8  7  2  0  0  0  0
  8  9  1  0  0  0  0
  9  4  2  0  0  0  0
 11  8  1  0  0  0  0
 12 15  1  0  0  0  0
 12 13  1  0  0  0  0
 13 16  1  0  0  0  0
 14 12  1  0  0  0  0
 14 18  1  0  0  0  0
 14 13  1  0  0  0  0
 17 13  1  0  0  0  0
 19 14  1  0  0  0  0
 20 22  1  0  0  0  0
 20 25  1  0  0  0  0
 20 21  1  0  0  0  0
 23 27  1  0  0  0  0
 23 24  2  0  0  0  0
 25 23  1  0  0  0  0
 26 25  1  0  0  0  0
 27 34  1  0  0  0  0
 28 30  1  0  0  0  0
 28 27  2  0  0  0  0
 29 28  1  0  0  0  0
 30 32  2  0  0  0  0
 31 30  1  0  0  0  0
 32 33  1  0  0  0  0
 34 33  2  0  0  0  0
M  END
>  <minimizedAffinity>
-5.26261425

$$$$

 OpenBabel03242520203D

 34 36  0  0  0  0  0  0  0  0999 V2000
   38.1350   27.5210   43.5670 C   0  0  0  0  0  0  0  0  0  0  0  0
   38.0610   27.3350   44.6570 H   0  0  0  0  0  0  0  0  0  0  0  0
   39.0410   28.1160   43.4110 H   0  0  0  0  0  0  0  0  0  0  0  0
   37.4130   24.5070   41.4030 C   0  0  0  0  0  0  0  0  0  0  0  0
   37.2210   25.7050   42.1240 C   0  0  0  0  0  0  0  0  0  0  0  0
   38.2910   26.2560   42.8080 C   0  0  0  0  0  0  0  0  0  0  0  0
   39.4890   25.5820   42.7370 N   0  0  0  0  0  0  0  0  0  0  0  0
   39.6180   24.4320   42.0300 C   0  0  0  0  0  0  0  0  0  0  0  0
   38.5910   23.8990   41.3680 N   0  0  0  0  0  0  0  0  0  0  0  0
   36.2550   26.1440   42.1140 H   0  0  0  0  0  0  0  0  0  0  0  0
   40.6350   24.0140   42.0690 H   0  0  0  0  0  0  0  0  0  0  0  0
   36.2610   23.9090   40.6720 C   0  0  0  0  0  0  0  0  0  0  0  0
   36.1400   24.4700   39.2070 C   0  0  0  0  0  0  0  0  0  0  0  0
   36.3730   23.0620   39.5410 C   0  0  0  0  0  0  0  0  0  0  0  0
   35.3050   24.1250   41.2410 H   0  0  0  0  0  0  0  0  0  0  0  0
   35.1420   24.7510   38.8660 H   0  0  0  0  0  0  0  0  0  0  0  0
   36.9790   25.0770   38.8380 H   0  0  0  0  0  0  0  0  0  0  0  0
   35.5230   22.3420   39.3480 H   0  0  0  0  0  0  0  0  0  0  0  0
   37.3410   22.5360   39.3540 H   0  0  0  0  0  0  0  0  0  0  0  0
   36.8680   28.2400   43.1270 C   0  0  0  0  0  0  0  0  0  0  0  0
   36.1290   28.2830   43.9740 H   0  0  0  0  0  0  0  0  0  0  0  0
   36.4000   27.6190   42.3600 H   0  0  0  0  0  0  0  0  0  0  0  0
   37.3330   29.7820   41.2940 C   0  0  0  0  0  0  0  0  0  0  0  0
   37.1620   28.8920   40.4090 O   0  0  0  0  0  0  0  0  0  0  0  0
   37.1310   29.5920   42.6840 N   0  0  0  0  0  0  0  0  0  0  0  0
   37.1620   30.3600   43.3860 H   0  0  0  0  0  0  0  0  0  0  0  0
   37.7780   31.1370   40.8820 C   0  0  0  0  0  0  0  0  0  0  0  0
   36.9650   31.8870   40.0430 C   0  0  0  0  0  0  0  0  0  0  0  0
   36.0280   31.4420   39.7210 H   0  0  0  0  0  0  0  0  0  0  0  0
   37.2550   33.1560   39.5850 C   0  0  0  0  0  0  0  0  0  0  0  0
   36.5770   33.6890   38.9310 H   0  0  0  0  0  0  0  0  0  0  0  0
   38.4650   33.6950   40.0170 C   0  0  0  0  0  3  0  0  0  0  0  0
   39.2430   32.9190   40.8490 C   0  0  0  0  0  3  0  0  0  0  0  0
   38.9360   31.6830   41.2810 N   0  0  0  0  0  0  0  0  0  0  0  0
  1  2  1  0  0  0  0
  3  1  1  0  0  0  0
  4  5  1  0  0  0  0
  5  6  2  0  0  0  0
  6  1  1  0  0  0  0
  7  6  1  0  0  0  0
  8 11  1  0  0  0  0
  8  7  2  0  0  0  0
  9  4  2  0  0  0  0
  9  8  1  0  0  0  0
 10  5  1  0  0  0  0
 12 15  1  0  0  0  0
 12  4  1  0  0  0  0
 13 14  1  0  0  0  0
 13 12  1  0  0  0  0
 14 12  1  0  0  0  0
 16 13  1  0  0  0  0
 17 13  1  0  0  0  0
 18 14  1  0  0  0  0
 19 14  1  0  0  0  0
 20  1  1  0  0  0  0
 20 21  1  0  0  0  0
 22 20  1  0  0  0  0
 23 25  1  0  0  0  0
 24 23  2  0  0  0  0
 25 20  1  0  0  0  0
 25 26  1  0  0  0  0
 27 34  1  0  0  0  0
 27 23  1  0  0  0  0
 28 27  2  0  0  0  0
 29 28  1  0  0  0  0
 30 32  2  0  0  0  0
 30 28  1  0  0  0  0
 31 30  1  0  0  0  0
 32 33  1  0  0  0  0
 33 34  2  0  0  0  0
M  END
>  <minimizedAffinity>
-5.2440486

$$$$

 OpenBabel03242520203D

 34 36  0  0  0  0  0  0  0  0999 V2000
   36.5850   27.3360   43.1580 C   0  0  0  0  0  0  0  0  0  0  0  0
   35.9310   27.6830   42.3330 H   0  0  0  0  0  0  0  0  0  0  0  0
   35.9230   26.9840   43.9570 H   0  0  0  0  0  0  0  0  0  0  0  0
   39.5600   25.0710   42.6130 C   0  0  0  0  0  0  0  0  0  0  0  0
   38.7890   26.1810   43.0180 C   0  0  0  0  0  0  0  0  0  0  0  0
   37.4330   26.1940   42.7390 C   0  0  0  0  0  0  0  0  0  0  0  0
   36.9230   25.1030   42.0730 N   0  0  0  0  0  0  0  0  0  0  0  0
   37.7110   24.0610   41.7060 C   0  0  0  0  0  0  0  0  0  0  0  0
   39.0160   24.0440   41.9730 N   0  0  0  0  0  0  0  0  0  0  0  0
   39.2820   26.9730   43.5250 H   0  0  0  0  0  0  0  0  0  0  0  0
   37.1570   23.2670   41.1840 H   0  0  0  0  0  0  0  0  0  0  0  0
   41.0210   25.0580   42.9050 C   0  0  0  0  0  0  0  0  0  0  0  0
   41.8720   25.5260   41.6670 C   0  0  0  0  0  0  0  0  0  0  0  0
   41.8450   26.2100   42.9630 C   0  0  0  0  0  0  0  0  0  0  0  0
   41.3320   24.0100   43.2030 H   0  0  0  0  0  0  0  0  0  0  0  0
   42.7570   24.9370   41.4230 H   0  0  0  0  0  0  0  0  0  0  0  0
   41.3190   25.9630   40.8220 H   0  0  0  0  0  0  0  0  0  0  0  0
   42.7800   26.1450   43.5960 H   0  0  0  0  0  0  0  0  0  0  0  0
   41.3680   27.2070   43.1250 H   0  0  0  0  0  0  0  0  0  0  0  0
   37.4600   28.5070   43.5860 C   0  0  0  0  0  0  0  0  0  0  0  0
   38.5450   28.2080   43.5720 H   0  0  0  0  0  0  0  0  0  0  0  0
   37.2250   28.7120   44.6330 H   0  0  0  0  0  0  0  0  0  0  0  0
   38.4030   30.0230   41.9240 C   0  0  0  0  0  0  0  0  0  0  0  0
   39.4620   29.3410   41.8000 O   0  0  0  0  0  0  0  0  0  0  0  0
   37.2940   29.6590   42.7270 N   0  0  0  0  0  0  0  0  0  0  0  0
   36.3860   30.1680   42.7300 H   0  0  0  0  0  0  0  0  0  0  0  0
   38.2780   31.3060   41.1880 C   0  0  0  0  0  0  0  0  0  0  0  0
   37.2690   31.4470   40.2450 C   0  0  0  0  0  0  0  0  0  0  0  0
   36.6090   30.5990   40.0840 H   0  0  0  0  0  0  0  0  0  0  0  0
   37.0400   32.5800   39.4910 C   0  0  0  0  0  0  0  0  0  0  0  0
   36.2340   32.6260   38.7700 H   0  0  0  0  0  0  0  0  0  0  0  0
   37.9060   33.6470   39.7220 C   0  0  0  0  0  3  0  0  0  0  0  0
   38.8940   33.4680   40.6670 C   0  0  0  0  0  3  0  0  0  0  0  0
   39.0950   32.3500   41.3870 N   0  0  0  0  0  0  0  0  0  0  0  0
  1 20  1  0  0  0  0
  1  3  1  0  0  0  0
  2  1  1  0  0  0  0
  4 12  1  0  0  0  0
  4  5  1  0  0  0  0
  5 10  1  0  0  0  0
  6  5  2  0  0  0  0
  6  1  1  0  0  0  0
  7  6  1  0  0  0  0
  8  9  1  0  0  0  0
  8  7  2  0  0  0  0
  9  4  2  0  0  0  0
 11  8  1  0  0  0  0
 12 14  1  0  0  0  0
 12 15  1  0  0  0  0
 13 12  1  0  0  0  0
 13 14  1  0  0  0  0
 14 19  1  0  0  0  0
 14 18  1  0  0  0  0
 16 13  1  0  0  0  0
 17 13  1  0  0  0  0
 20 22  1  0  0  0  0
 21 20  1  0  0  0  0
 23 25  1  0  0  0  0
 24 23  2  0  0  0  0
 25 26  1  0  0  0  0
 25 20  1  0  0  0  0
 27 34  1  0  0  0  0
 27 23  1  0  0  0  0
 28 27  2  0  0  0  0
 29 28  1  0  0  0  0
 30 32  2  0  0  0  0
 30 28  1  0  0  0  0
 31 30  1  0  0  0  0
 32 33  1  0  0  0  0
 33 34  2  0  0  0  0
M  END
>  <minimizedAffinity>
-5.17744732

$$$$

 OpenBabel03242520203D

 34 36  0  0  0  0  0  0  0  0999 V2000
   35.5710   29.2250   37.8340 C   0  0  0  0  0  0  0  0  0  0  0  0
   35.2220   30.1450   37.3220 H   0  0  0  0  0  0  0  0  0  0  0  0
   36.4290   28.8540   37.2630 H   0  0  0  0  0  0  0  0  0  0  0  0
   36.5440   28.8180   41.4630 C   0  0  0  0  0  0  0  0  0  0  0  0
   36.0830   28.5090   40.1660 C   0  0  0  0  0  0  0  0  0  0  0  0
   36.0370   29.5120   39.2120 C   0  0  0  0  0  0  0  0  0  0  0  0
   36.4510   30.7640   39.6050 N   0  0  0  0  0  0  0  0  0  0  0  0
   36.8850   31.0070   40.8670 C   0  0  0  0  0  0  0  0  0  0  0  0
   36.9320   30.0450   41.7880 N   0  0  0  0  0  0  0  0  0  0  0  0
   35.7860   27.5090   39.9670 H   0  0  0  0  0  0  0  0  0  0  0  0
   37.1810   32.0550   41.0260 H   0  0  0  0  0  0  0  0  0  0  0  0
   36.5880   27.7430   42.4930 C   0  0  0  0  0  0  0  0  0  0  0  0
   38.0070   27.0680   42.5780 C   0  0  0  0  0  0  0  0  0  0  0  0
   37.3630   27.7900   43.6790 C   0  0  0  0  0  0  0  0  0  0  0  0
   35.8100   26.9580   42.2460 H   0  0  0  0  0  0  0  0  0  0  0  0
   38.0340   25.9790   42.6340 H   0  0  0  0  0  0  0  0  0  0  0  0
   38.8220   27.5570   42.0250 H   0  0  0  0  0  0  0  0  0  0  0  0
   37.0030   27.1720   44.5560 H   0  0  0  0  0  0  0  0  0  0  0  0
   37.7140   28.7810   44.0550 H   0  0  0  0  0  0  0  0  0  0  0  0
   34.4110   28.2400   37.8700 C   0  0  0  0  0  0  0  0  0  0  0  0
   34.5580   27.4940   38.6990 H   0  0  0  0  0  0  0  0  0  0  0  0
   34.4560   27.6620   36.9430 H   0  0  0  0  0  0  0  0  0  0  0  0
   32.4420   29.3120   36.9070 C   0  0  0  0  0  0  0  0  0  0  0  0
   32.7780   29.0230   35.7210 O   0  0  0  0  0  0  0  0  0  0  0  0
   33.1380   28.8990   38.0700 N   0  0  0  0  0  0  0  0  0  0  0  0
   32.7880   29.0440   39.0390 H   0  0  0  0  0  0  0  0  0  0  0  0
   31.2320   30.1410   37.1350 C   0  0  0  0  0  0  0  0  0  0  0  0
   30.8940   31.1120   36.2020 C   0  0  0  0  0  0  0  0  0  0  0  0
   31.5400   31.2230   35.3360 H   0  0  0  0  0  0  0  0  0  0  0  0
   29.8010   31.9490   36.2890 C   0  0  0  0  0  0  0  0  0  0  0  0
   29.5920   32.6870   35.5260 H   0  0  0  0  0  0  0  0  0  0  0  0
   28.9950   31.7800   37.4140 C   0  0  0  0  0  3  0  0  0  0  0  0
   29.3640   30.8050   38.3160 C   0  0  0  0  0  3  0  0  0  0  0  0
   30.4370   30.0010   38.2060 N   0  0  0  0  0  0  0  0  0  0  0  0
  1 20  1  0  0  0  0
  1  6  1  0  0  0  0
  2  1  1  0  0  0  0
  3  1  1  0  0  0  0
  4  9  1  0  0  0  0
  4 12  1  0  0  0  0
  5  4  2  0  0  0  0
  6  7  2  0  0  0  0
  6  5  1  0  0  0  0
  7  8  1  0  0  0  0
  8 11  1  0  0  0  0
  8  9  2  0  0  0  0
 10  5  1  0  0  0  0
 12 13  1  0  0  0  0
 12 14  1  0  0  0  0
 13 16  1  0  0  0  0
 13 14  1  0  0  0  0
 14 19  1  0  0  0  0
 14 18  1  0  0  0  0
 15 12  1  0  0  0  0
 17 13  1  0  0  0  0
 20 25  1  0  0  0  0
 20 21  1  0  0  0  0
 22 20  1  0  0  0  0
 23 27  1  0  0  0  0
 23 25  1  0  0  0  0
 24 23  2  0  0  0  0
 25 26  1  0  0  0  0
 27 34  1  0  0  0  0
 28 30  1  0  0  0  0
 28 27  2  0  0  0  0
 29 28  1  0  0  0  0
 30 32  2  0  0  0  0
 31 30  1  0  0  0  0
 32 33  1  0  0  0  0
 34 33  2  0  0  0  0
M  END
>  <minimizedAffinity>
-5.14959764

$$$$

 OpenBabel03242520203D

 34 36  0  0  0  0  0  0  0  0999 V2000
   36.0010   29.9450   40.5670 C   0  0  0  0  0  0  0  0  0  0  0  0
   36.0870   29.6100   39.5130 H   0  0  0  0  0  0  0  0  0  0  0  0
   34.9370   29.8980   40.8250 H   0  0  0  0  0  0  0  0  0  0  0  0
   37.2980   26.8340   42.2760 C   0  0  0  0  0  0  0  0  0  0  0  0
   36.5810   27.6640   41.3900 C   0  0  0  0  0  0  0  0  0  0  0  0
   36.7270   29.0380   41.4880 C   0  0  0  0  0  0  0  0  0  0  0  0
   37.5780   29.5050   42.4640 N   0  0  0  0  0  0  0  0  0  0  0  0
   38.2440   28.6610   43.2910 C   0  0  0  0  0  0  0  0  0  0  0  0
   38.1060   27.3380   43.1990 N   0  0  0  0  0  0  0  0  0  0  0  0
   35.9490   27.2010   40.6730 H   0  0  0  0  0  0  0  0  0  0  0  0
   38.8840   29.1850   44.0160 H   0  0  0  0  0  0  0  0  0  0  0  0
   37.1370   25.3570   42.1770 C   0  0  0  0  0  0  0  0  0  0  0  0
   37.9600   24.7540   40.9790 C   0  0  0  0  0  0  0  0  0  0  0  0
   38.1730   24.4130   42.3890 C   0  0  0  0  0  0  0  0  0  0  0  0
   36.0390   25.1090   42.0440 H   0  0  0  0  0  0  0  0  0  0  0  0
   37.4540   24.0190   40.3510 H   0  0  0  0  0  0  0  0  0  0  0  0
   38.6720   25.4270   40.4800 H   0  0  0  0  0  0  0  0  0  0  0  0
   37.8680   23.3750   42.7160 H   0  0  0  0  0  0  0  0  0  0  0  0
   39.0760   24.7240   42.9690 H   0  0  0  0  0  0  0  0  0  0  0  0
   36.5730   31.3520   40.6610 C   0  0  0  0  0  0  0  0  0  0  0  0
   36.9510   31.5510   41.7020 H   0  0  0  0  0  0  0  0  0  0  0  0
   35.7410   32.0440   40.5120 H   0  0  0  0  0  0  0  0  0  0  0  0
   38.8300   32.1810   40.2470 C   0  0  0  0  0  0  0  0  0  0  0  0
   39.0400   32.4280   41.4720 O   0  0  0  0  0  0  0  0  0  0  0  0
   37.6630   31.5630   39.7330 N   0  0  0  0  0  0  0  0  0  0  0  0
   37.5530   31.2620   38.7430 H   0  0  0  0  0  0  0  0  0  0  0  0
   39.8630   32.5520   39.2480 C   0  0  0  0  0  0  0  0  0  0  0  0
   40.6230   33.6950   39.4550 C   0  0  0  0  0  0  0  0  0  0  0  0
   40.4240   34.2750   40.3510 H   0  0  0  0  0  0  0  0  0  0  0  0
   41.6130   34.1540   38.6100 C   0  0  0  0  0  0  0  0  0  0  0  0
   42.1710   35.0540   38.8290 H   0  0  0  0  0  0  0  0  0  0  0  0
   41.8400   33.3860   37.4690 C   0  0  0  0  0  3  0  0  0  0  0  0
   41.0650   32.2580   37.3000 C   0  0  0  0  0  3  0  0  0  0  0  0
   40.1060   31.8340   38.1410 N   0  0  0  0  0  0  0  0  0  0  0  0
  1 20  1  0  0  0  0
  1  3  1  0  0  0  0
  1  6  1  0  0  0  0
  2  1  1  0  0  0  0
  4  9  1  0  0  0  0
  5  6  1  0  0  0  0
  5  4  2  0  0  0  0
  6  7  2  0  0  0  0
  7  8  1  0  0  0  0
  8 11  1  0  0  0  0
  9  8  2  0  0  0  0
 10  5  1  0  0  0  0
 12  4  1  0  0  0  0
 12 14  1  0  0  0  0
 13 12  1  0  0  0  0
 13 14  1  0  0  0  0
 14 18  1  0  0  0  0
 14 19  1  0  0  0  0
 15 12  1  0  0  0  0
 16 13  1  0  0  0  0
 17 13  1  0  0  0  0
 20 21  1  0  0  0  0
 22 20  1  0  0  0  0
 23 24  2  0  0  0  0
 25 23  1  0  0  0  0
 25 20  1  0  0  0  0
 26 25  1  0  0  0  0
 27 28  1  0  0  0  0
 27 23  1  0  0  0  0
 28 29  1  0  0  0  0
 30 31  1  0  0  0  0
 30 28  2  0  0  0  0
 32 30  1  0  0  0  0
 33 32  2  0  0  0  0
 33 34  1  0  0  0  0
 34 27  2  0  0  0  0
M  END
>  <minimizedAffinity>
-4.97602558

$$$$

 OpenBabel03242520203D

 34 36  0  0  0  0  0  0  0  0999 V2000
   35.9570   28.3740   40.1320 C   0  0  0  0  0  0  0  0  0  0  0  0
   36.5840   28.4490   39.2210 H   0  0  0  0  0  0  0  0  0  0  0  0
   35.1990   27.6100   39.9290 H   0  0  0  0  0  0  0  0  0  0  0  0
   38.1050   26.2880   42.4390 C   0  0  0  0  0  0  0  0  0  0  0  0
   37.3500   26.6770   41.3110 C   0  0  0  0  0  0  0  0  0  0  0  0
   36.7480   27.9230   41.3030 C   0  0  0  0  0  0  0  0  0  0  0  0
   36.9300   28.7110   42.4160 N   0  0  0  0  0  0  0  0  0  0  0  0
   37.6660   28.2880   43.4750 C   0  0  0  0  0  0  0  0  0  0  0  0
   38.2490   27.0890   43.4870 N   0  0  0  0  0  0  0  0  0  0  0  0
   37.2710   25.9920   40.5040 H   0  0  0  0  0  0  0  0  0  0  0  0
   37.7190   29.0290   44.2860 H   0  0  0  0  0  0  0  0  0  0  0  0
   38.7470   24.9450   42.4540 C   0  0  0  0  0  0  0  0  0  0  0  0
   40.2180   24.9910   41.8960 C   0  0  0  0  0  0  0  0  0  0  0  0
   39.8590   24.5880   43.2590 C   0  0  0  0  0  0  0  0  0  0  0  0
   38.1290   24.2280   41.8310 H   0  0  0  0  0  0  0  0  0  0  0  0
   40.5060   24.2060   41.1960 H   0  0  0  0  0  0  0  0  0  0  0  0
   40.6550   25.9860   41.7320 H   0  0  0  0  0  0  0  0  0  0  0  0
   39.9780   23.4940   43.5190 H   0  0  0  0  0  0  0  0  0  0  0  0
   40.0880   25.2020   44.1640 H   0  0  0  0  0  0  0  0  0  0  0  0
   35.3580   29.7470   40.4040 C   0  0  0  0  0  0  0  0  0  0  0  0
   34.7950   29.7410   41.3780 H   0  0  0  0  0  0  0  0  0  0  0  0
   34.6070   29.9240   39.6310 H   0  0  0  0  0  0  0  0  0  0  0  0
   36.9670   31.1660   39.2420 C   0  0  0  0  0  0  0  0  0  0  0  0
   36.5890   30.7780   38.0970 O   0  0  0  0  0  0  0  0  0  0  0  0
   36.3670   30.7820   40.4670 N   0  0  0  0  0  0  0  0  0  0  0  0
   36.6120   31.1970   41.3890 H   0  0  0  0  0  0  0  0  0  0  0  0
   38.1200   32.0950   39.3470 C   0  0  0  0  0  0  0  0  0  0  0  0
   38.0170   33.2080   40.1690 C   0  0  0  0  0  0  0  0  0  0  0  0
   37.0830   33.3530   40.7050 H   0  0  0  0  0  0  0  0  0  0  0  0
   39.0080   34.1500   40.3590 C   0  0  0  0  0  0  0  0  0  0  0  0
   38.8640   34.9970   41.0150 H   0  0  0  0  0  0  0  0  0  0  0  0
   40.1910   33.9340   39.6550 C   0  0  0  0  0  3  0  0  0  0  0  0
   40.2550   32.8160   38.8500 C   0  0  0  0  0  3  0  0  0  0  0  0
   39.2710   31.9140   38.6830 N   0  0  0  0  0  0  0  0  0  0  0  0
  1 20  1  0  0  0  0
  1  6  1  0  0  0  0
  2  1  1  0  0  0  0
  3  1  1  0  0  0  0
  4 12  1  0  0  0  0
  4  9  1  0  0  0  0
  5  4  2  0  0  0  0
  6  5  1  0  0  0  0
  6  7  2  0  0  0  0
  7  8  1  0  0  0  0
  8  9  2  0  0  0  0
  8 11  1  0  0  0  0
 10  5  1  0  0  0  0
 12 14  1  0  0  0  0
 13 12  1  0  0  0  0
 13 14  1  0  0  0  0
 14 18  1  0  0  0  0
 14 19  1  0  0  0  0
 15 12  1  0  0  0  0
 16 13  1  0  0  0  0
 17 13  1  0  0  0  0
 20 25  1  0  0  0  0
 20 21  1  0  0  0  0
 22 20  1  0  0  0  0
 23 27  1  0  0  0  0
 23 25  1  0  0  0  0
 24 23  2  0  0  0  0
 25 26  1  0  0  0  0
 27 28  1  0  0  0  0
 28 30  2  0  0  0  0
 28 29  1  0  0  0  0
 30 31  1  0  0  0  0
 32 30  1  0  0  0  0
 33 32  2  0  0  0  0
 34 33  1  0  0  0  0
 34 27  2  0  0  0  0
M  END
>  <minimizedAffinity>
-4.96758604

$$$$

 OpenBabel03242520203D

 34 36  0  0  0  0  0  0  0  0999 V2000
   35.4810   29.1180   37.3920 C   0  0  0  0  0  0  0  0  0  0  0  0
   35.0930   29.8170   36.6240 H   0  0  0  0  0  0  0  0  0  0  0  0
   36.3420   28.6080   36.9450 H   0  0  0  0  0  0  0  0  0  0  0  0
   37.2790   31.5650   39.6430 C   0  0  0  0  0  0  0  0  0  0  0  0
   36.8550   30.8930   38.4770 C   0  0  0  0  0  0  0  0  0  0  0  0
   35.9610   29.8420   38.5940 C   0  0  0  0  0  0  0  0  0  0  0  0
   35.5410   29.5200   39.8640 N   0  0  0  0  0  0  0  0  0  0  0  0
   35.9820   30.1990   40.9530 C   0  0  0  0  0  0  0  0  0  0  0  0
   36.8410   31.2120   40.8440 N   0  0  0  0  0  0  0  0  0  0  0  0
   37.2410   31.2210   37.5440 H   0  0  0  0  0  0  0  0  0  0  0  0
   35.5560   29.8240   41.8950 H   0  0  0  0  0  0  0  0  0  0  0  0
   38.2460   32.6900   39.5200 C   0  0  0  0  0  0  0  0  0  0  0  0
   37.5320   34.0900   39.6080 C   0  0  0  0  0  0  0  0  0  0  0  0
   38.5480   33.6150   40.5520 C   0  0  0  0  0  0  0  0  0  0  0  0
   38.7940   32.6060   38.5320 H   0  0  0  0  0  0  0  0  0  0  0  0
   37.8330   34.8450   38.8800 H   0  0  0  0  0  0  0  0  0  0  0  0
   36.4770   34.0900   39.9150 H   0  0  0  0  0  0  0  0  0  0  0  0
   39.5590   34.1190   40.5150 H   0  0  0  0  0  0  0  0  0  0  0  0
   38.3220   33.3340   41.6100 H   0  0  0  0  0  0  0  0  0  0  0  0
   34.3570   28.1650   37.7700 C   0  0  0  0  0  0  0  0  0  0  0  0
   34.6430   27.5650   38.6780 H   0  0  0  0  0  0  0  0  0  0  0  0
   34.2660   27.4420   36.9570 H   0  0  0  0  0  0  0  0  0  0  0  0
   32.3190   29.2220   36.9440 C   0  0  0  0  0  0  0  0  0  0  0  0
   32.5310   28.8600   35.7500 O   0  0  0  0  0  0  0  0  0  0  0  0
   33.1210   28.8610   38.0560 N   0  0  0  0  0  0  0  0  0  0  0  0
   32.8710   29.0680   39.0440 H   0  0  0  0  0  0  0  0  0  0  0  0
   31.1510   30.0890   37.2410 C   0  0  0  0  0  0  0  0  0  0  0  0
   30.8390   31.1220   36.3680 C   0  0  0  0  0  0  0  0  0  0  0  0
   31.4730   31.2520   35.4960 H   0  0  0  0  0  0  0  0  0  0  0  0
   29.7850   31.9990   36.5220 C   0  0  0  0  0  0  0  0  0  0  0  0
   29.5950   32.7860   35.8040 H   0  0  0  0  0  0  0  0  0  0  0  0
   28.9930   31.8040   37.6520 C   0  0  0  0  0  3  0  0  0  0  0  0
   29.3360   30.7670   38.4930 C   0  0  0  0  0  3  0  0  0  0  0  0
   30.3700   29.9260   38.3190 N   0  0  0  0  0  0  0  0  0  0  0  0
  1 20  1  0  0  0  0
  1  6  1  0  0  0  0
  2  1  1  0  0  0  0
  3  1  1  0  0  0  0
  4  9  1  0  0  0  0
  5  6  1  0  0  0  0
  5  4  2  0  0  0  0
  6  7  2  0  0  0  0
  7  8  1  0  0  0  0
  8 11  1  0  0  0  0
  9  8  2  0  0  0  0
 10  5  1  0  0  0  0
 12 13  1  0  0  0  0
 12  4  1  0  0  0  0
 12 14  1  0  0  0  0
 13 17  1  0  0  0  0
 13 14  1  0  0  0  0
 14 19  1  0  0  0  0
 15 12  1  0  0  0  0
 16 13  1  0  0  0  0
 18 14  1  0  0  0  0
 20 25  1  0  0  0  0
 20 21  1  0  0  0  0
 22 20  1  0  0  0  0
 23 27  1  0  0  0  0
 23 25  1  0  0  0  0
 24 23  2  0  0  0  0
 25 26  1  0  0  0  0
 27 34  1  0  0  0  0
 28 30  1  0  0  0  0
 28 27  2  0  0  0  0
 29 28  1  0  0  0  0
 30 32  2  0  0  0  0
 31 30  1  0  0  0  0
 32 33  1  0  0  0  0
 34 33  2  0  0  0  0
M  END
>  <minimizedAffinity>
-4.87446594

$$$$

 OpenBabel03242520203D

 34 36  0  0  0  0  0  0  0  0999 V2000
   37.3440   30.7600   37.2840 C   0  0  0  0  0  0  0  0  0  0  0  0
   36.8380   31.2940   36.4550 H   0  0  0  0  0  0  0  0  0  0  0  0
   38.1660   30.1900   36.8360 H   0  0  0  0  0  0  0  0  0  0  0  0
   39.8250   32.8020   39.2730 C   0  0  0  0  0  0  0  0  0  0  0  0
   39.3040   31.8840   38.3370 C   0  0  0  0  0  0  0  0  0  0  0  0
   37.9330   31.7060   38.2620 C   0  0  0  0  0  0  0  0  0  0  0  0
   37.1600   32.4510   39.1240 N   0  0  0  0  0  0  0  0  0  0  0  0
   37.7140   33.3200   40.0060 C   0  0  0  0  0  0  0  0  0  0  0  0
   39.0340   33.4950   40.0800 N   0  0  0  0  0  0  0  0  0  0  0  0
   39.9890   31.3580   37.7190 H   0  0  0  0  0  0  0  0  0  0  0  0
   36.9680   33.8400   40.6240 H   0  0  0  0  0  0  0  0  0  0  0  0
   41.3000   32.9900   39.3600 C   0  0  0  0  0  0  0  0  0  0  0  0
   41.8070   34.1210   38.3910 C   0  0  0  0  0  0  0  0  0  0  0  0
   41.9400   34.1560   39.8500 C   0  0  0  0  0  0  0  0  0  0  0  0
   41.8170   32.0140   39.1050 H   0  0  0  0  0  0  0  0  0  0  0  0
   42.7020   33.9070   37.8060 H   0  0  0  0  0  0  0  0  0  0  0  0
   41.0380   34.7440   37.9100 H   0  0  0  0  0  0  0  0  0  0  0  0
   42.9820   34.0350   40.2730 H   0  0  0  0  0  0  0  0  0  0  0  0
   41.3630   34.8530   40.5050 H   0  0  0  0  0  0  0  0  0  0  0  0
   36.3130   29.8740   37.9700 C   0  0  0  0  0  0  0  0  0  0  0  0
   35.9070   29.1150   37.2450 H   0  0  0  0  0  0  0  0  0  0  0  0
   35.4670   30.5150   38.2300 H   0  0  0  0  0  0  0  0  0  0  0  0
   36.0940   29.1700   40.2960 C   0  0  0  0  0  0  0  0  0  0  0  0
   34.9120   29.6140   40.3920 O   0  0  0  0  0  0  0  0  0  0  0  0
   36.8650   29.1690   39.1060 N   0  0  0  0  0  0  0  0  0  0  0  0
   37.7880   28.6980   39.0130 H   0  0  0  0  0  0  0  0  0  0  0  0
   36.7530   28.6000   41.4970 C   0  0  0  0  0  0  0  0  0  0  0  0
   36.9840   27.2320   41.5540 C   0  0  0  0  0  0  0  0  0  0  0  0
   36.6660   26.6330   40.7060 H   0  0  0  0  0  0  0  0  0  0  0  0
   37.5860   26.5730   42.6060 C   0  0  0  0  0  0  0  0  0  0  0  0
   37.7370   25.5020   42.5900 H   0  0  0  0  0  0  0  0  0  0  0  0
   37.9800   27.3720   43.6780 C   0  0  0  0  0  3  0  0  0  0  0  0
   37.7340   28.7250   43.5820 C   0  0  0  0  0  3  0  0  0  0  0  0
   37.1440   29.3430   42.5430 N   0  0  0  0  0  0  0  0  0  0  0  0
  1 20  1  0  0  0  0
  1  6  1  0  0  0  0
  2  1  1  0  0  0  0
  3  1  1  0  0  0  0
  4 12  1  0  0  0  0
  4  9  1  0  0  0  0
  5  4  2  0  0  0  0
  6  5  1  0  0  0  0
  6  7  2  0  0  0  0
  7  8  1  0  0  0  0
  8  9  2  0  0  0  0
  8 11  1  0  0  0  0
 10  5  1  0  0  0  0
 12 14  1  0  0  0  0
 13 12  1  0  0  0  0
 13 14  1  0  0  0  0
 14 18  1  0  0  0  0
 14 19  1  0  0  0  0
 15 12  1  0  0  0  0
 16 13  1  0  0  0  0
 17 13  1  0  0  0  0
 20 22  1  0  0  0  0
 20 25  1  0  0  0  0
 21 20  1  0  0  0  0
 23 24  2  0  0  0  0
 23 27  1  0  0  0  0
 25 23  1  0  0  0  0
 26 25  1  0  0  0  0
 27 28  2  0  0  0  0
 27 34  1  0  0  0  0
 28 30  1  0  0  0  0
 29 28  1  0  0  0  0
 30 32  2  0  0  0  0
 31 30  1  0  0  0  0
 33 32  1  0  0  0  0
 34 33  2  0  0  0  0
M  END
>  <minimizedAffinity>
-4.83681822

$$$$

 OpenBabel03242520203D

 34 36  0  0  0  0  0  0  0  0999 V2000
   36.0400   29.3770   37.6540 C   0  0  0  0  0  0  0  0  0  0  0  0
   35.5890   28.3810   37.4710 H   0  0  0  0  0  0  0  0  0  0  0  0
   35.3160   30.1190   37.2990 H   0  0  0  0  0  0  0  0  0  0  0  0
   36.5380   28.8320   41.3600 C   0  0  0  0  0  0  0  0  0  0  0  0
   36.3140   28.5630   39.9930 C   0  0  0  0  0  0  0  0  0  0  0  0
   36.2610   29.6190   39.1000 C   0  0  0  0  0  0  0  0  0  0  0  0
   36.4330   30.8820   39.6180 N   0  0  0  0  0  0  0  0  0  0  0  0
   36.6450   31.0850   40.9430 C   0  0  0  0  0  0  0  0  0  0  0  0
   36.6980   30.0710   41.8060 N   0  0  0  0  0  0  0  0  0  0  0  0
   36.1930   27.5500   39.6980 H   0  0  0  0  0  0  0  0  0  0  0  0
   36.7630   32.1480   41.2010 H   0  0  0  0  0  0  0  0  0  0  0  0
   36.5890   27.6980   42.3240 C   0  0  0  0  0  0  0  0  0  0  0  0
   38.0610   27.3760   42.7750 C   0  0  0  0  0  0  0  0  0  0  0  0
   36.9900   27.8050   43.6800 C   0  0  0  0  0  0  0  0  0  0  0  0
   36.1300   26.7800   41.8440 H   0  0  0  0  0  0  0  0  0  0  0  0
   38.3520   26.3240   42.8000 H   0  0  0  0  0  0  0  0  0  0  0  0
   38.8380   28.0990   42.4870 H   0  0  0  0  0  0  0  0  0  0  0  0
   36.5880   27.0330   44.4010 H   0  0  0  0  0  0  0  0  0  0  0  0
   36.9650   28.8080   44.1720 H   0  0  0  0  0  0  0  0  0  0  0  0
   37.3650   29.4360   36.9060 C   0  0  0  0  0  0  0  0  0  0  0  0
   37.1910   29.3570   35.7970 H   0  0  0  0  0  0  0  0  0  0  0  0
   37.9250   28.5390   37.1810 H   0  0  0  0  0  0  0  0  0  0  0  0
   39.4080   30.5330   37.6660 C   0  0  0  0  0  0  0  0  0  0  0  0
   40.0410   29.4410   37.7630 O   0  0  0  0  0  0  0  0  0  0  0  0
   38.0870   30.6620   37.1670 N   0  0  0  0  0  0  0  0  0  0  0  0
   37.6220   31.5750   36.9840 H   0  0  0  0  0  0  0  0  0  0  0  0
   40.0650   31.7920   38.0960 C   0  0  0  0  0  0  0  0  0  0  0  0
   41.1210   32.2920   37.3470 C   0  0  0  0  0  0  0  0  0  0  0  0
   41.4230   31.7300   36.4670 H   0  0  0  0  0  0  0  0  0  0  0  0
   41.8190   33.4480   37.6310 C   0  0  0  0  0  0  0  0  0  0  0  0
   42.6340   33.7840   37.0050 H   0  0  0  0  0  0  0  0  0  0  0  0
   41.4050   34.1420   38.7660 C   0  0  0  0  0  3  0  0  0  0  0  0
   40.3530   33.6130   39.4830 C   0  0  0  0  0  3  0  0  0  0  0  0
   39.6900   32.4830   39.1830 N   0  0  0  0  0  0  0  0  0  0  0  0
  1  6  1  0  0  0  0
  2  1  1  0  0  0  0
  3  1  1  0  0  0  0
  4  9  1  0  0  0  0
  4 12  1  0  0  0  0
  5  4  2  0  0  0  0
  6  7  2  0  0  0  0
  6  5  1  0  0  0  0
  7  8  1  0  0  0  0
  8 11  1  0  0  0  0
  8  9  2  0  0  0  0
 10  5  1  0  0  0  0
 12 13  1  0  0  0  0
 12 14  1  0  0  0  0
 13 16  1  0  0  0  0
 13 14  1  0  0  0  0
 14 19  1  0  0  0  0
 14 18  1  0  0  0  0
 15 12  1  0  0  0  0
 17 13  1  0  0  0  0
 20 25  1  0  0  0  0
 20 22  1  0  0  0  0
 20  1  1  0  0  0  0
 21 20  1  0  0  0  0
 23 24  2  0  0  0  0
 23 27  1  0  0  0  0
 25 23  1  0  0  0  0
 26 25  1  0  0  0  0
 27 34  1  0  0  0  0
 28 30  1  0  0  0  0
 28 27  2  0  0  0  0
 29 28  1  0  0  0  0
 30 32  2  0  0  0  0
 31 30  1  0  0  0  0
 32 33  1  0  0  0  0
 34 33  2  0  0  0  0
M  END
>  <minimizedAffinity>
-4.81415892

$$$$
