
 OpenBabel03242518513D

 22 23  0  0  0  0  0  0  0  0999 V2000
   37.9920   28.4890   43.4160 C   0  0  0  0  0  0  0  0  0  0  0  0
   38.1530   27.0870   43.3140 C   0  0  0  0  0  0  0  0  0  0  0  0
   37.4840   26.4860   42.2480 C   0  0  0  0  0  0  0  0  0  0  0  0
   36.7410   27.2350   41.3940 N   0  0  0  0  0  0  0  0  0  0  0  0
   36.6280   28.5820   41.5470 C   0  0  0  0  0  0  0  0  0  0  0  0
   37.2520   29.2080   42.5570 N   0  0  0  0  0  0  0  0  0  0  0  0
   38.4730   29.0350   44.2100 H   0  0  0  0  0  0  0  0  0  0  0  0
   38.7640   26.5730   44.0420 H   0  0  0  0  0  0  0  0  0  0  0  0
   37.6710   25.0400   42.1430 C   0  0  0  0  0  0  0  0  0  0  0  0
   37.9200   24.6960   40.8060 F   0  0  0  0  0  0  0  0  0  0  0  0
   36.4650   24.4460   42.4510 F   0  0  0  0  0  0  0  0  0  0  0  0
   38.7140   24.5590   42.8860 F   0  0  0  0  0  0  0  0  0  0  0  0
   35.8510   29.3840   40.6210 C   0  0  0  0  0  0  0  0  0  0  0  0
   34.6480   29.1580   40.3840 O   0  0  0  0  0  0  0  0  0  0  0  0
   36.4770   30.5170   39.9160 C   0  0  0  0  0  0  0  0  0  0  0  0
   36.8130   30.3420   38.5830 C   0  0  0  0  0  0  0  0  0  0  0  0
   36.6250   29.4040   38.0600 H   0  0  0  0  0  0  0  0  0  0  0  0
   37.4020   31.4110   37.9280 C   0  0  0  0  0  0  0  0  0  0  0  0
   37.6510   31.2390   36.8830 H   0  0  0  0  0  0  0  0  0  0  0  0
   37.6410   32.5970   38.5810 C   0  0  0  0  0  3  0  0  0  0  0  0
   37.2770   32.6890   39.9130 C   0  0  0  0  0  3  0  0  0  0  0  0
   36.7120   31.6730   40.5520 N   0  0  0  0  0  0  0  0  0  0  0  0
  1  7  1  0  0  0  0
  2  1  1  0  0  0  0
  2  8  1  0  0  0  0
  3  2  2  0  0  0  0
  4  5  2  0  0  0  0
  4  3  1  0  0  0  0
  5  6  1  0  0  0  0
  6  1  2  0  0  0  0
  9  3  1  0  0  0  0
  9 11  1  0  0  0  0
  9 12  1  0  0  0  0
 10  9  1  0  0  0  0
 13  5  1  0  0  0  0
 14 13  2  0  0  0  0
 15 22  1  0  0  0  0
 15 13  1  0  0  0  0
 16 15  2  0  0  0  0
 17 16  1  0  0  0  0
 18 20  2  0  0  0  0
 18 16  1  0  0  0  0
 19 18  1  0  0  0  0
 20 21  1  0  0  0  0
 21 22  2  0  0  0  0
M  END
>  <minimizedAffinity>
-5.23439121

$$$$

 OpenBabel03242518513D

 22 23  0  0  0  0  0  0  0  0999 V2000
   38.5400   28.4470   43.3050 C   0  0  0  0  0  0  0  0  0  0  0  0
   38.4290   27.0490   43.1190 C   0  0  0  0  0  0  0  0  0  0  0  0
   37.5280   26.6490   42.1300 C   0  0  0  0  0  0  0  0  0  0  0  0
   36.8300   27.5740   41.4240 N   0  0  0  0  0  0  0  0  0  0  0  0
   36.9850   28.9060   41.6510 C   0  0  0  0  0  0  0  0  0  0  0  0
   37.8380   29.3420   42.5910 N   0  0  0  0  0  0  0  0  0  0  0  0
   39.2120   28.8450   44.0480 H   0  0  0  0  0  0  0  0  0  0  0  0
   39.0250   26.3870   43.7300 H   0  0  0  0  0  0  0  0  0  0  0  0
   37.4340   25.2030   41.9360 C   0  0  0  0  0  0  0  0  0  0  0  0
   36.3200   24.7100   42.6310 F   0  0  0  0  0  0  0  0  0  0  0  0
   38.5280   24.6340   42.5540 F   0  0  0  0  0  0  0  0  0  0  0  0
   37.2950   24.8260   40.6280 F   0  0  0  0  0  0  0  0  0  0  0  0
   36.2540   29.8930   40.8800 C   0  0  0  0  0  0  0  0  0  0  0  0
   36.0570   31.0540   41.2890 O   0  0  0  0  0  0  0  0  0  0  0  0
   35.7090   29.5420   39.5560 C   0  0  0  0  0  0  0  0  0  0  0  0
   34.3830   29.1450   39.4880 C   0  0  0  0  0  0  0  0  0  0  0  0
   33.7520   29.0900   40.3750 H   0  0  0  0  0  0  0  0  0  0  0  0
   33.8780   28.8170   38.2400 C   0  0  0  0  0  0  0  0  0  0  0  0
   32.8350   28.5110   38.2240 H   0  0  0  0  0  0  0  0  0  0  0  0
   34.6680   28.8860   37.1170 C   0  0  0  0  0  3  0  0  0  0  0  0
   35.9830   29.2910   37.2710 C   0  0  0  0  0  3  0  0  0  0  0  0
   36.4780   29.6080   38.4600 N   0  0  0  0  0  0  0  0  0  0  0  0
  1  7  1  0  0  0  0
  2  1  1  0  0  0  0
  2  8  1  0  0  0  0
  3  2  2  0  0  0  0
  4  5  2  0  0  0  0
  4  3  1  0  0  0  0
  5  6  1  0  0  0  0
  6  1  2  0  0  0  0
  9  3  1  0  0  0  0
  9 11  1  0  0  0  0
  9 10  1  0  0  0  0
 12  9  1  0  0  0  0
 13 14  2  0  0  0  0
 13  5  1  0  0  0  0
 15 13  1  0  0  0  0
 16 15  1  0  0  0  0
 16 17  1  0  0  0  0
 18 16  2  0  0  0  0
 19 18  1  0  0  0  0
 20 21  2  0  0  0  0
 20 18  1  0  0  0  0
 21 22  1  0  0  0  0
 22 15  2  0  0  0  0
M  END
>  <minimizedAffinity>
-5.06406498

$$$$

 OpenBabel03242518513D

 22 23  0  0  0  0  0  0  0  0999 V2000
   37.3190   28.4970   43.6780 C   0  0  0  0  0  0  0  0  0  0  0  0
   37.0100   27.1790   43.2630 C   0  0  0  0  0  0  0  0  0  0  0  0
   37.5030   26.8190   42.0080 C   0  0  0  0  0  0  0  0  0  0  0  0
   38.2230   27.7060   41.2740 N   0  0  0  0  0  0  0  0  0  0  0  0
   38.4860   28.9590   41.7330 C   0  0  0  0  0  0  0  0  0  0  0  0
   38.0340   29.3540   42.9330 N   0  0  0  0  0  0  0  0  0  0  0  0
   36.9770   28.8590   44.6340 H   0  0  0  0  0  0  0  0  0  0  0  0
   36.4290   26.5440   43.9150 H   0  0  0  0  0  0  0  0  0  0  0  0
   37.1930   25.4520   41.5960 C   0  0  0  0  0  0  0  0  0  0  0  0
   36.4410   24.8220   42.5980 F   0  0  0  0  0  0  0  0  0  0  0  0
   38.3840   24.7570   41.5470 F   0  0  0  0  0  0  0  0  0  0  0  0
   36.4720   25.3700   40.4360 F   0  0  0  0  0  0  0  0  0  0  0  0
   39.2730   29.8970   40.9560 C   0  0  0  0  0  0  0  0  0  0  0  0
   40.4510   29.6670   40.6190 O   0  0  0  0  0  0  0  0  0  0  0  0
   38.6880   31.1820   40.5320 C   0  0  0  0  0  0  0  0  0  0  0  0
   37.6450   31.1460   39.6200 C   0  0  0  0  0  0  0  0  0  0  0  0
   37.2590   30.2070   39.2230 H   0  0  0  0  0  0  0  0  0  0  0  0
   37.1000   32.3570   39.2260 C   0  0  0  0  0  0  0  0  0  0  0  0
   36.2830   32.2920   38.5110 H   0  0  0  0  0  0  0  0  0  0  0  0
   37.5810   33.5450   39.7240 C   0  0  0  0  0  3  0  0  0  0  0  0
   38.6260   33.4940   40.6300 C   0  0  0  0  0  3  0  0  0  0  0  0
   39.1560   32.3400   41.0160 N   0  0  0  0  0  0  0  0  0  0  0  0
  1  7  1  0  0  0  0
  2  1  1  0  0  0  0
  2  8  1  0  0  0  0
  3  2  2  0  0  0  0
  4  5  2  0  0  0  0
  4  3  1  0  0  0  0
  5  6  1  0  0  0  0
  6  1  2  0  0  0  0
  9  3  1  0  0  0  0
  9 10  1  0  0  0  0
 11  9  1  0  0  0  0
 12  9  1  0  0  0  0
 13  5  1  0  0  0  0
 14 13  2  0  0  0  0
 15 13  1  0  0  0  0
 15 22  1  0  0  0  0
 16 15  2  0  0  0  0
 17 16  1  0  0  0  0
 18 16  1  0  0  0  0
 18 20  2  0  0  0  0
 19 18  1  0  0  0  0
 20 21  1  0  0  0  0
 21 22  2  0  0  0  0
M  END
>  <minimizedAffinity>
-5.04125166

$$$$

 OpenBabel03242518513D

 22 23  0  0  0  0  0  0  0  0999 V2000
   36.7850   30.7110   41.0700 C   0  0  0  0  0  0  0  0  0  0  0  0
   36.2520   30.5290   39.7710 C   0  0  0  0  0  0  0  0  0  0  0  0
   35.8960   29.2180   39.4510 C   0  0  0  0  0  0  0  0  0  0  0  0
   36.0690   28.2210   40.3550 N   0  0  0  0  0  0  0  0  0  0  0  0
   36.5860   28.4630   41.5900 C   0  0  0  0  0  0  0  0  0  0  0  0
   36.9440   29.7060   41.9460 N   0  0  0  0  0  0  0  0  0  0  0  0
   37.0880   31.6910   41.4010 H   0  0  0  0  0  0  0  0  0  0  0  0
   36.1530   31.3850   39.1190 H   0  0  0  0  0  0  0  0  0  0  0  0
   35.3320   29.0460   38.1140 C   0  0  0  0  0  0  0  0  0  0  0  0
   33.9480   29.2740   38.1580 F   0  0  0  0  0  0  0  0  0  0  0  0
   35.4690   27.7150   37.7790 F   0  0  0  0  0  0  0  0  0  0  0  0
   35.8530   29.8940   37.1760 F   0  0  0  0  0  0  0  0  0  0  0  0
   36.7490   27.3990   42.5610 C   0  0  0  0  0  0  0  0  0  0  0  0
   36.1990   27.4210   43.6790 O   0  0  0  0  0  0  0  0  0  0  0  0
   37.5930   26.2320   42.2460 C   0  0  0  0  0  0  0  0  0  0  0  0
   36.9580   25.0250   42.0010 C   0  0  0  0  0  0  0  0  0  0  0  0
   35.8730   24.9270   42.0360 H   0  0  0  0  0  0  0  0  0  0  0  0
   37.7570   23.9320   41.7060 C   0  0  0  0  0  0  0  0  0  0  0  0
   37.2260   23.0010   41.5190 H   0  0  0  0  0  0  0  0  0  0  0  0
   39.1260   24.0480   41.6590 C   0  0  0  0  0  3  0  0  0  0  0  0
   39.6810   25.2900   41.9180 C   0  0  0  0  0  3  0  0  0  0  0  0
   38.9270   26.3440   42.2010 N   0  0  0  0  0  0  0  0  0  0  0  0
  1  7  1  0  0  0  0
  1  6  1  0  0  0  0
  2  1  2  0  0  0  0
  3  2  1  0  0  0  0
  3  4  2  0  0  0  0
  4  5  1  0  0  0  0
  5  6  2  0  0  0  0
  5 13  1  0  0  0  0
  8  2  1  0  0  0  0
  9 10  1  0  0  0  0
  9  3  1  0  0  0  0
 11  9  1  0  0  0  0
 12  9  1  0  0  0  0
 13 14  2  0  0  0  0
 15 13  1  0  0  0  0
 16 17  1  0  0  0  0
 16 15  2  0  0  0  0
 18 16  1  0  0  0  0
 19 18  1  0  0  0  0
 20 18  2  0  0  0  0
 20 21  1  0  0  0  0
 21 22  2  0  0  0  0
 22 15  1  0  0  0  0
M  END
>  <minimizedAffinity>
-4.7824955

$$$$

 OpenBabel03242518513D

 22 23  0  0  0  0  0  0  0  0999 V2000
   37.6270   30.5760   37.3970 C   0  0  0  0  0  0  0  0  0  0  0  0
   38.1310   31.7640   37.9770 C   0  0  0  0  0  0  0  0  0  0  0  0
   37.7430   31.9930   39.2980 C   0  0  0  0  0  0  0  0  0  0  0  0
   36.9370   31.1090   39.9390 N   0  0  0  0  0  0  0  0  0  0  0  0
   36.4870   29.9820   39.3230 C   0  0  0  0  0  0  0  0  0  0  0  0
   36.8310   29.7170   38.0530 N   0  0  0  0  0  0  0  0  0  0  0  0
   37.8750   30.3200   36.3800 H   0  0  0  0  0  0  0  0  0  0  0  0
   38.7670   32.4090   37.3880 H   0  0  0  0  0  0  0  0  0  0  0  0
   38.2830   33.2140   39.8930 C   0  0  0  0  0  0  0  0  0  0  0  0
   38.5490   32.9930   41.2520 F   0  0  0  0  0  0  0  0  0  0  0  0
   37.2800   34.1600   39.8700 F   0  0  0  0  0  0  0  0  0  0  0  0
   39.4460   33.6460   39.3170 F   0  0  0  0  0  0  0  0  0  0  0  0
   35.6430   29.0290   40.0170 C   0  0  0  0  0  0  0  0  0  0  0  0
   34.3980   29.0730   39.9660 O   0  0  0  0  0  0  0  0  0  0  0  0
   36.2480   27.9520   40.8210 C   0  0  0  0  0  0  0  0  0  0  0  0
   36.6300   26.7930   40.1650 C   0  0  0  0  0  0  0  0  0  0  0  0
   36.4940   26.6670   39.0910 H   0  0  0  0  0  0  0  0  0  0  0  0
   37.1990   25.7860   40.9280 C   0  0  0  0  0  0  0  0  0  0  0  0
   37.4860   24.8910   40.3820 H   0  0  0  0  0  0  0  0  0  0  0  0
   37.3740   25.9380   42.2840 C   0  0  0  0  0  3  0  0  0  0  0  0
   36.9650   27.1270   42.8620 C   0  0  0  0  0  3  0  0  0  0  0  0
   36.4190   28.0990   42.1420 N   0  0  0  0  0  0  0  0  0  0  0  0
  1  2  2  0  0  0  0
  1  6  1  0  0  0  0
  2  3  1  0  0  0  0
  3  9  1  0  0  0  0
  3  4  2  0  0  0  0
  5  4  1  0  0  0  0
  5 13  1  0  0  0  0
  6  5  2  0  0  0  0
  7  1  1  0  0  0  0
  8  2  1  0  0  0  0
  9 10  1  0  0  0  0
 11  9  1  0  0  0  0
 12  9  1  0  0  0  0
 13 15  1  0  0  0  0
 14 13  2  0  0  0  0
 15 22  1  0  0  0  0
 16 15  2  0  0  0  0
 16 18  1  0  0  0  0
 17 16  1  0  0  0  0
 18 20  2  0  0  0  0
 19 18  1  0  0  0  0
 20 21  1  0  0  0  0
 22 21  2  0  0  0  0
M  END
>  <minimizedAffinity>
-4.77695704

$$$$

 OpenBabel03242518513D

 22 23  0  0  0  0  0  0  0  0999 V2000
   33.9500   28.7690   38.4220 C   0  0  0  0  0  0  0  0  0  0  0  0
   34.6240   28.8710   37.1820 C   0  0  0  0  0  0  0  0  0  0  0  0
   35.8950   29.4440   37.2400 C   0  0  0  0  0  0  0  0  0  0  0  0
   36.4060   29.8600   38.4260 N   0  0  0  0  0  0  0  0  0  0  0  0
   35.7060   29.7310   39.5850 C   0  0  0  0  0  0  0  0  0  0  0  0
   34.4790   29.1870   39.5820 N   0  0  0  0  0  0  0  0  0  0  0  0
   32.9630   28.3390   38.4700 H   0  0  0  0  0  0  0  0  0  0  0  0
   34.1360   28.5130   36.2860 H   0  0  0  0  0  0  0  0  0  0  0  0
   36.5880   29.5300   35.9560 C   0  0  0  0  0  0  0  0  0  0  0  0
   37.0170   30.8480   35.7430 F   0  0  0  0  0  0  0  0  0  0  0  0
   35.6550   29.2880   34.9690 F   0  0  0  0  0  0  0  0  0  0  0  0
   37.6910   28.7250   35.8640 F   0  0  0  0  0  0  0  0  0  0  0  0
   36.2630   30.1570   40.8550 C   0  0  0  0  0  0  0  0  0  0  0  0
   36.1840   31.3320   41.2620 O   0  0  0  0  0  0  0  0  0  0  0  0
   36.9560   29.1860   41.7210 C   0  0  0  0  0  0  0  0  0  0  0  0
   36.3790   27.9360   41.8800 C   0  0  0  0  0  0  0  0  0  0  0  0
   35.4460   27.6650   41.3870 H   0  0  0  0  0  0  0  0  0  0  0  0
   37.0360   27.0290   42.6970 C   0  0  0  0  0  0  0  0  0  0  0  0
   36.5560   26.0590   42.7980 H   0  0  0  0  0  0  0  0  0  0  0  0
   38.2140   27.3640   43.3220 C   0  0  0  0  0  3  0  0  0  0  0  0
   38.7230   28.6340   43.1110 C   0  0  0  0  0  3  0  0  0  0  0  0
   38.1040   29.5110   42.3310 N   0  0  0  0  0  0  0  0  0  0  0  0
  1  7  1  0  0  0  0
  1  6  1  0  0  0  0
  2  3  1  0  0  0  0
  2  1  2  0  0  0  0
  3  4  2  0  0  0  0
  4  5  1  0  0  0  0
  5 13  1  0  0  0  0
  6  5  2  0  0  0  0
  8  2  1  0  0  0  0
  9  3  1  0  0  0  0
 10  9  1  0  0  0  0
 11  9  1  0  0  0  0
 12  9  1  0  0  0  0
 13 14  2  0  0  0  0
 13 15  1  0  0  0  0
 15 16  2  0  0  0  0
 15 22  1  0  0  0  0
 16 18  1  0  0  0  0
 17 16  1  0  0  0  0
 18 19  1  0  0  0  0
 18 20  2  0  0  0  0
 21 20  1  0  0  0  0
 22 21  2  0  0  0  0
M  END
>  <minimizedAffinity>
-4.70736313

$$$$

 OpenBabel03242518513D

 22 23  0  0  0  0  0  0  0  0999 V2000
   36.3110   30.7580   41.0520 C   0  0  0  0  0  0  0  0  0  0  0  0
   36.4880   30.8400   39.6500 C   0  0  0  0  0  0  0  0  0  0  0  0
   37.4910   30.0220   39.1280 C   0  0  0  0  0  0  0  0  0  0  0  0
   38.2190   29.2210   39.9470 N   0  0  0  0  0  0  0  0  0  0  0  0
   37.9970   29.1890   41.2890 C   0  0  0  0  0  0  0  0  0  0  0  0
   37.0450   29.9570   41.8400 N   0  0  0  0  0  0  0  0  0  0  0  0
   35.5590   31.3570   41.5400 H   0  0  0  0  0  0  0  0  0  0  0  0
   35.8610   31.5080   39.0780 H   0  0  0  0  0  0  0  0  0  0  0  0
   37.6540   30.1020   37.6770 C   0  0  0  0  0  0  0  0  0  0  0  0
   37.8480   31.4390   37.3020 F   0  0  0  0  0  0  0  0  0  0  0  0
   36.4510   29.7370   37.1080 F   0  0  0  0  0  0  0  0  0  0  0  0
   38.7170   29.3880   37.1960 F   0  0  0  0  0  0  0  0  0  0  0  0
   38.7620   28.3170   42.1590 C   0  0  0  0  0  0  0  0  0  0  0  0
   39.6510   28.7420   42.9220 O   0  0  0  0  0  0  0  0  0  0  0  0
   38.5030   26.8660   42.1660 C   0  0  0  0  0  0  0  0  0  0  0  0
   37.1830   26.4450   42.1610 C   0  0  0  0  0  0  0  0  0  0  0  0
   36.3530   27.1520   42.1510 H   0  0  0  0  0  0  0  0  0  0  0  0
   36.9470   25.0800   42.1670 C   0  0  0  0  0  0  0  0  0  0  0  0
   35.9000   24.7860   42.1620 H   0  0  0  0  0  0  0  0  0  0  0  0
   37.9890   24.1820   42.1790 C   0  0  0  0  0  3  0  0  0  0  0  0
   39.2790   24.6840   42.1840 C   0  0  0  0  0  3  0  0  0  0  0  0
   39.5180   25.9900   42.1780 N   0  0  0  0  0  0  0  0  0  0  0  0
  1  7  1  0  0  0  0
  1  6  1  0  0  0  0
  2  1  2  0  0  0  0
  3  2  1  0  0  0  0
  3  4  2  0  0  0  0
  4  5  1  0  0  0  0
  5  6  2  0  0  0  0
  5 13  1  0  0  0  0
  8  2  1  0  0  0  0
  9  3  1  0  0  0  0
 10  9  1  0  0  0  0
 11  9  1  0  0  0  0
 12  9  1  0  0  0  0
 13 15  1  0  0  0  0
 13 14  2  0  0  0  0
 15 22  1  0  0  0  0
 16 15  2  0  0  0  0
 16 18  1  0  0  0  0
 17 16  1  0  0  0  0
 18 20  2  0  0  0  0
 19 18  1  0  0  0  0
 20 21  1  0  0  0  0
 22 21  2  0  0  0  0
M  END
>  <minimizedAffinity>
-4.61889172

$$$$

 OpenBabel03242518513D

 22 23  0  0  0  0  0  0  0  0999 V2000
   36.1160   29.9900   40.8280 C   0  0  0  0  0  0  0  0  0  0  0  0
   36.0300   28.7410   41.4890 C   0  0  0  0  0  0  0  0  0  0  0  0
   37.1980   28.3270   42.1320 C   0  0  0  0  0  0  0  0  0  0  0  0
   38.3120   29.1010   42.0970 N   0  0  0  0  0  0  0  0  0  0  0  0
   38.3270   30.2940   41.4430 C   0  0  0  0  0  0  0  0  0  0  0  0
   37.2310   30.7370   40.8090 N   0  0  0  0  0  0  0  0  0  0  0  0
   35.2610   30.3870   40.3040 H   0  0  0  0  0  0  0  0  0  0  0  0
   35.0990   28.1940   41.4620 H   0  0  0  0  0  0  0  0  0  0  0  0
   37.0930   27.0440   42.8250 C   0  0  0  0  0  0  0  0  0  0  0  0
   36.7610   26.0410   41.9030 F   0  0  0  0  0  0  0  0  0  0  0  0
   36.0110   27.1250   43.6770 F   0  0  0  0  0  0  0  0  0  0  0  0
   38.2450   26.6540   43.4510 F   0  0  0  0  0  0  0  0  0  0  0  0
   39.5130   31.1290   41.4250 C   0  0  0  0  0  0  0  0  0  0  0  0
   40.1310   31.4390   42.4620 O   0  0  0  0  0  0  0  0  0  0  0  0
   40.0330   31.6480   40.1480 C   0  0  0  0  0  0  0  0  0  0  0  0
   40.3230   33.0010   40.0710 C   0  0  0  0  0  0  0  0  0  0  0  0
   40.1770   33.6710   40.9190 H   0  0  0  0  0  0  0  0  0  0  0  0
   40.8120   33.4820   38.8670 C   0  0  0  0  0  0  0  0  0  0  0  0
   41.0300   34.5470   38.8420 H   0  0  0  0  0  0  0  0  0  0  0  0
   41.0000   32.6430   37.7940 C   0  0  0  0  0  3  0  0  0  0  0  0
   40.6850   31.3040   37.9530 C   0  0  0  0  0  3  0  0  0  0  0  0
   40.2160   30.8310   39.1010 N   0  0  0  0  0  0  0  0  0  0  0  0
  1  2  1  0  0  0  0
  2  3  2  0  0  0  0
  3  9  1  0  0  0  0
  4  3  1  0  0  0  0
  5  4  2  0  0  0  0
  6  1  2  0  0  0  0
  6  5  1  0  0  0  0
  7  1  1  0  0  0  0
  8  2  1  0  0  0  0
  9 12  1  0  0  0  0
  9 11  1  0  0  0  0
 10  9  1  0  0  0  0
 13  5  1  0  0  0  0
 13 14  2  0  0  0  0
 15 13  1  0  0  0  0
 16 15  1  0  0  0  0
 16 17  1  0  0  0  0
 18 16  2  0  0  0  0
 19 18  1  0  0  0  0
 20 21  2  0  0  0  0
 20 18  1  0  0  0  0
 21 22  1  0  0  0  0
 22 15  2  0  0  0  0
M  END
>  <minimizedAffinity>
-4.61695147

$$$$

 OpenBabel03242518513D

 22 23  0  0  0  0  0  0  0  0999 V2000
   40.4390   26.5910   43.5820 C   0  0  0  0  0  0  0  0  0  0  0  0
   39.5610   25.5640   43.1590 C   0  0  0  0  0  0  0  0  0  0  0  0
   38.4690   25.9890   42.4000 C   0  0  0  0  0  0  0  0  0  0  0  0
   38.3030   27.3050   42.1140 N   0  0  0  0  0  0  0  0  0  0  0  0
   39.1860   28.2430   42.5510 C   0  0  0  0  0  0  0  0  0  0  0  0
   40.2510   27.8870   43.2850 N   0  0  0  0  0  0  0  0  0  0  0  0
   41.3080   26.3530   44.1740 H   0  0  0  0  0  0  0  0  0  0  0  0
   39.7750   24.5420   43.4360 H   0  0  0  0  0  0  0  0  0  0  0  0
   37.5800   24.9180   41.9550 C   0  0  0  0  0  0  0  0  0  0  0  0
   38.2580   23.6920   42.0140 F   0  0  0  0  0  0  0  0  0  0  0  0
   37.3250   25.1260   40.6150 F   0  0  0  0  0  0  0  0  0  0  0  0
   36.4440   24.7900   42.7060 F   0  0  0  0  0  0  0  0  0  0  0  0
   39.0170   29.6460   42.2270 C   0  0  0  0  0  0  0  0  0  0  0  0
   39.4790   30.5600   42.9380 O   0  0  0  0  0  0  0  0  0  0  0  0
   38.2760   30.0420   41.0150 C   0  0  0  0  0  0  0  0  0  0  0  0
   37.0150   30.5920   41.1810 C   0  0  0  0  0  0  0  0  0  0  0  0
   36.5740   30.7350   42.1670 H   0  0  0  0  0  0  0  0  0  0  0  0
   36.3250   30.9620   40.0380 C   0  0  0  0  0  0  0  0  0  0  0  0
   35.3390   31.3900   40.2050 H   0  0  0  0  0  0  0  0  0  0  0  0
   36.8760   30.7860   38.7900 C   0  0  0  0  0  3  0  0  0  0  0  0
   38.1400   30.2280   38.7120 C   0  0  0  0  0  3  0  0  0  0  0  0
   38.8120   29.8710   39.7990 N   0  0  0  0  0  0  0  0  0  0  0  0
  1  7  1  0  0  0  0
  2  8  1  0  0  0  0
  2  1  2  0  0  0  0
  3  2  1  0  0  0  0
  4  3  2  0  0  0  0
  4  5  1  0  0  0  0
  5  6  2  0  0  0  0
  6  1  1  0  0  0  0
  9 10  1  0  0  0  0
  9  3  1  0  0  0  0
  9 12  1  0  0  0  0
 11  9  1  0  0  0  0
 13  5  1  0  0  0  0
 13 14  2  0  0  0  0
 15 16  1  0  0  0  0
 15 13  1  0  0  0  0
 16 17  1  0  0  0  0
 18 19  1  0  0  0  0
 18 16  2  0  0  0  0
 20 18  1  0  0  0  0
 21 20  2  0  0  0  0
 21 22  1  0  0  0  0
 22 15  2  0  0  0  0
M  END
>  <minimizedAffinity>
-4.61452341

$$$$
