
 OpenBabel03252508493D

 27 29  0  0  0  0  0  0  0  0999 V2000
   45.9630   34.1840   41.0460 C   0  0  0  0  0  0  0  0  0  0  0  0
   46.5420   34.8050   42.1470 C   0  0  0  0  0  0  0  0  0  0  0  0
   47.8840   35.1750   42.0110 C   0  0  0  0  0  0  0  0  0  0  0  0
   48.5350   34.9210   40.8500 N   0  0  0  0  0  0  0  0  0  0  0  0
   47.9200   34.3150   39.8140 C   0  0  0  0  0  0  0  0  0  0  0  0
   46.6300   33.9450   39.9090 N   0  0  0  0  0  0  0  0  0  0  0  0
   48.3560   35.6580   42.8490 H   0  0  0  0  0  0  0  0  0  0  0  0
   48.5100   34.1490   38.9220 H   0  0  0  0  0  0  0  0  0  0  0  0
   45.7660   35.0380   43.3470 C   0  0  0  0  0  0  0  0  0  0  0  0
   45.0730   36.2280   43.5700 C   0  0  0  0  0  0  0  0  0  0  0  0
   44.4870   36.0300   44.7990 C   0  0  0  0  0  0  0  0  0  0  0  0
   44.8020   34.8010   45.2930 N   0  0  0  0  0  0  0  0  0  0  0  0
   45.5730   34.2390   44.3860 N   0  0  0  0  0  0  0  0  0  0  0  0
   44.9610   37.1360   42.9890 H   0  0  0  0  0  0  0  0  0  0  0  0
   43.8470   36.6920   45.3850 H   0  0  0  0  0  0  0  0  0  0  0  0
   44.5310   34.3340   46.1850 H   0  0  0  0  0  0  0  0  0  0  0  0
   44.6360   33.8000   41.1380 O   0  0  0  0  0  0  0  0  0  0  0  0
   43.5520   34.4220   40.5930 C   0  0  0  0  0  0  0  0  0  0  0  0
   43.2120   35.6510   40.7180 O   0  0  0  0  0  0  0  0  0  0  0  0
   42.5560   33.7190   39.7310 C   0  0  0  0  0  0  0  0  0  0  0  0
   42.9490   32.7910   38.7950 C   0  0  0  0  0  0  0  0  0  0  0  0
   43.9830   32.5260   38.6390 H   0  0  0  0  0  0  0  0  0  0  0  0
   42.0690   32.1070   37.9630 C   0  0  0  0  0  0  0  0  0  0  0  0
   42.4060   31.3840   37.2380 H   0  0  0  0  0  0  0  0  0  0  0  0
   40.7230   32.3710   38.0800 C   0  0  0  0  0  3  0  0  0  0  0  0
   40.3630   33.3020   39.0250 C   0  0  0  0  0  3  0  0  0  0  0  0
   41.2510   33.9240   39.7910 N   0  0  0  0  0  0  0  0  0  0  0  0
  1 17  1  0  0  0  0
  1  2  1  0  0  0  0
  2  9  1  0  0  0  0
  3  2  2  0  0  0  0
  3  7  1  0  0  0  0
  4  3  1  0  0  0  0
  5  6  1  0  0  0  0
  5  4  2  0  0  0  0
  6  1  2  0  0  0  0
  8  5  1  0  0  0  0
  9 10  1  0  0  0  0
  9 13  2  0  0  0  0
 10 11  2  0  0  0  0
 11 12  1  0  0  0  0
 11 15  1  0  0  0  0
 12 16  1  0  0  0  0
 13 12  1  0  0  0  0
 14 10  1  0  0  0  0
 18 19  2  0  0  0  0
 18 17  1  0  0  0  0
 20 27  1  0  0  0  0
 20 18  1  0  0  0  0
 21 20  2  0  0  0  0
 22 21  1  0  0  0  0
 23 25  2  0  0  0  0
 23 21  1  0  0  0  0
 24 23  1  0  0  0  0
 25 26  1  0  0  0  0
 26 27  2  0  0  0  0
M  END
>  <minimizedAffinity>
-5.2031579

>  <minimizedRMSD>
0.48286128

$$$$
