
 OpenBabel03252507153D

 28 30  0  0  0  0  0  0  0  0999 V2000
   45.3310   33.8610   43.4910 C   0  0  0  0  0  0  0  0  0  0  0  0
   45.7390   33.0960   44.6120 C   0  0  0  0  0  0  0  0  0  0  0  0
   45.5060   33.6230   45.8720 C   0  0  0  0  0  0  0  0  0  0  0  0
   44.9170   34.8160   46.0020 N   0  0  0  0  0  0  0  0  0  0  0  0
   44.5260   35.5480   44.9060 C   0  0  0  0  0  0  0  0  0  0  0  0
   44.7420   35.0540   43.6960 N   0  0  0  0  0  0  0  0  0  0  0  0
   45.5260   33.4200   42.5190 H   0  0  0  0  0  0  0  0  0  0  0  0
   44.0460   36.5200   45.0350 H   0  0  0  0  0  0  0  0  0  0  0  0
   45.9300   32.8290   47.0350 C   0  0  0  0  0  0  0  0  0  0  0  0
   44.9810   32.2630   47.8500 C   0  0  0  0  0  0  0  0  0  0  0  0
   45.4240   31.5290   48.9280 C   0  0  0  0  0  0  0  0  0  0  0  0
   46.7570   31.3250   49.2390 C   0  0  0  0  0  0  0  0  0  0  0  0
   47.6490   31.9290   48.3680 C   0  0  0  0  0  0  0  0  0  0  0  0
   47.2280   32.6510   47.3090 N   0  0  0  0  0  0  0  0  0  0  0  0
   43.9130   32.3760   47.6750 H   0  0  0  0  0  0  0  0  0  0  0  0
   44.6920   31.0650   49.5960 H   0  0  0  0  0  0  0  0  0  0  0  0
   47.0910   30.7480   50.0850 H   0  0  0  0  0  0  0  0  0  0  0  0
   48.7170   31.8450   48.5020 H   0  0  0  0  0  0  0  0  0  0  0  0
   46.3620   31.8320   44.4130 C   0  0  0  0  0  0  0  0  0  0  0  0
   47.5770   31.8090   44.0980 O   0  0  0  0  0  0  0  0  0  0  0  0
   45.6560   30.5630   44.5560 C   0  0  0  0  0  0  0  0  0  0  0  0
   46.0360   29.6520   45.5200 C   0  0  0  0  0  0  0  0  0  0  0  0
   46.8690   29.9090   46.1560 H   0  0  0  0  0  0  0  0  0  0  0  0
   45.3810   28.4520   45.6670 C   0  0  0  0  0  0  0  0  0  0  0  0
   45.6750   27.7180   46.4300 H   0  0  0  0  0  0  0  0  0  0  0  0
   44.3130   28.1360   44.8400 C   0  0  0  0  0  0  0  0  0  0  0  0
   43.9720   29.0810   43.8940 C   0  0  0  0  0  0  0  0  0  0  0  0
   44.6180   30.2440   43.7600 N   0  0  0  0  0  0  0  0  0  0  0  0
  1  6  2  0  0  0  0
  1  2  1  0  0  0  0
  2  3  2  0  0  0  0
  3  4  1  0  0  0  0
  3  9  1  0  0  0  0
  5  8  1  0  0  0  0
  5  4  2  0  0  0  0
  6  5  1  0  0  0  0
  7  1  1  0  0  0  0
  9 14  2  0  0  0  0
  9 10  1  0  0  0  0
 10 11  2  0  0  0  0
 11 12  1  0  0  0  0
 11 16  1  0  0  0  0
 12 17  1  0  0  0  0
 13 18  1  0  0  0  0
 13 12  2  0  0  0  0
 14 13  1  0  0  0  0
 15 10  1  0  0  0  0
 19 21  1  0  0  0  0
 19  2  1  0  0  0  0
 20 19  2  0  0  0  0
 21 22  1  0  0  0  0
 22 24  2  0  0  0  0
 22 23  1  0  0  0  0
 24 25  1  0  0  0  0
 26 24  1  0  0  0  0
 27 26  2  0  0  0  0
 28 27  1  0  0  0  0
 28 21  2  0  0  0  0
M  END
>  <minimizedAffinity>
-4.66050625

>  <minimizedRMSD>
4.87403059

$$$$
