
 OpenBabel03252508493D

 27 29  0  0  0  0  0  0  0  0999 V2000
   46.0950   34.1910   41.0280 C   0  0  0  0  0  0  0  0  0  0  0  0
   46.6290   34.8350   42.1390 C   0  0  0  0  0  0  0  0  0  0  0  0
   47.9580   35.2550   42.0270 C   0  0  0  0  0  0  0  0  0  0  0  0
   48.6410   35.0240   40.8800 N   0  0  0  0  0  0  0  0  0  0  0  0
   48.0690   34.3940   39.8340 C   0  0  0  0  0  0  0  0  0  0  0  0
   46.7930   33.9750   39.9050 N   0  0  0  0  0  0  0  0  0  0  0  0
   48.3960   35.7570   42.8740 H   0  0  0  0  0  0  0  0  0  0  0  0
   48.6820   34.2490   38.9530 H   0  0  0  0  0  0  0  0  0  0  0  0
   45.8210   35.0410   43.3230 C   0  0  0  0  0  0  0  0  0  0  0  0
   45.0730   36.2000   43.5260 C   0  0  0  0  0  0  0  0  0  0  0  0
   44.4740   35.9830   44.7450 C   0  0  0  0  0  0  0  0  0  0  0  0
   44.8330   34.7720   45.2530 N   0  0  0  0  0  0  0  0  0  0  0  0
   45.6450   34.2400   44.3630 N   0  0  0  0  0  0  0  0  0  0  0  0
   44.9320   37.0980   42.9370 H   0  0  0  0  0  0  0  0  0  0  0  0
   43.7950   36.6190   45.3150 H   0  0  0  0  0  0  0  0  0  0  0  0
   44.5670   34.2980   46.1430 H   0  0  0  0  0  0  0  0  0  0  0  0
   44.7820   33.7570   41.0960 O   0  0  0  0  0  0  0  0  0  0  0  0
   43.6930   34.3110   40.4920 C   0  0  0  0  0  0  0  0  0  0  0  0
   43.2910   35.5250   40.5670 O   0  0  0  0  0  0  0  0  0  0  0  0
   42.7650   33.5370   39.6150 C   0  0  0  0  0  0  0  0  0  0  0  0
   42.9320   32.1860   39.4130 C   0  0  0  0  0  0  0  0  0  0  0  0
   43.7310   31.6230   39.8730 H   0  0  0  0  0  0  0  0  0  0  0  0
   42.1040   31.4130   38.6050 C   0  0  0  0  0  0  0  0  0  0  0  0
   42.2580   30.3560   38.4660 H   0  0  0  0  0  0  0  0  0  0  0  0
   41.0510   32.0320   37.9690 C   0  0  0  0  0  3  0  0  0  0  0  0
   40.9110   33.3830   38.1920 C   0  0  0  0  0  3  0  0  0  0  0  0
   41.7370   34.0670   38.9750 N   0  0  0  0  0  0  0  0  0  0  0  0
  1 17  1  0  0  0  0
  1  2  1  0  0  0  0
  2  9  1  0  0  0  0
  3  2  2  0  0  0  0
  3  7  1  0  0  0  0
  4  3  1  0  0  0  0
  5  6  1  0  0  0  0
  5  4  2  0  0  0  0
  6  1  2  0  0  0  0
  8  5  1  0  0  0  0
  9 10  1  0  0  0  0
  9 13  2  0  0  0  0
 10 11  2  0  0  0  0
 11 12  1  0  0  0  0
 11 15  1  0  0  0  0
 12 16  1  0  0  0  0
 13 12  1  0  0  0  0
 14 10  1  0  0  0  0
 18 19  2  0  0  0  0
 18 17  1  0  0  0  0
 20 18  1  0  0  0  0
 21 20  1  0  0  0  0
 21 22  1  0  0  0  0
 23 21  2  0  0  0  0
 24 23  1  0  0  0  0
 25 26  2  0  0  0  0
 25 23  1  0  0  0  0
 26 27  1  0  0  0  0
 27 20  2  0  0  0  0
M  END
>  <minimizedAffinity>
-5.15033245

>  <minimizedRMSD>
0.184401467

$$$$
