
 OpenBabel03242523153D

 26 28  0  0  0  0  0  0  0  0999 V2000
   46.0610   34.5040   43.9150 C   0  0  0  0  0  0  0  0  0  0  0  0
   47.1430   33.8580   43.4100 C   0  0  0  0  0  0  0  0  0  0  0  0
   47.6070   32.8050   44.1610 C   0  0  0  0  0  0  0  0  0  0  0  0
   46.9550   32.4820   45.3480 N   0  0  0  0  0  0  0  0  0  0  0  0
   45.8990   33.1560   45.7870 C   0  0  0  0  0  0  0  0  0  0  0  0
   45.4130   34.2080   45.0670 N   0  0  0  0  0  0  0  0  0  0  0  0
   48.4650   32.1920   43.8860 H   0  0  0  0  0  0  0  0  0  0  0  0
   45.4850   32.8050   46.7240 H   0  0  0  0  0  0  0  0  0  0  0  0
   47.8450   34.2120   42.2350 C   0  0  0  0  0  0  0  0  0  0  0  0
   48.2020   35.4230   41.7390 C   0  0  0  0  0  0  0  0  0  0  0  0
   49.3680   34.6430   42.3430 C   0  0  0  0  0  0  0  0  0  0  0  0
   48.0100   33.2190   41.6120 H   0  0  0  0  0  0  0  0  0  0  0  0
   48.3110   35.6860   40.6440 H   0  0  0  0  0  0  0  0  0  0  0  0
   48.0130   36.3750   42.3090 H   0  0  0  0  0  0  0  0  0  0  0  0
   49.7060   34.8420   43.3600 H   0  0  0  0  0  0  0  0  0  0  0  0
   50.0790   34.2420   41.6250 H   0  0  0  0  0  0  0  0  0  0  0  0
   45.3090   35.5770   43.2420 C   0  0  0  0  0  0  0  0  0  0  0  0
   45.1740   36.8190   43.1420 O   0  0  0  0  0  0  0  0  0  0  0  0
   44.3240   34.9120   42.3240 C   0  0  0  0  0  0  0  0  0  0  0  0
   43.6110   35.6840   41.4000 C   0  0  0  0  0  0  0  0  0  0  0  0
   43.7270   36.7550   41.3040 H   0  0  0  0  0  0  0  0  0  0  0  0
   42.6710   35.1830   40.4950 C   0  0  0  0  0  0  0  0  0  0  0  0
   42.1400   35.8070   39.7990 H   0  0  0  0  0  0  0  0  0  0  0  0
   42.4260   33.8420   40.5090 C   0  0  0  0  0  0  0  0  0  0  0  0
   43.1320   33.0990   41.4200 C   0  0  0  0  0  0  0  0  0  0  0  0
   44.0210   33.6270   42.2650 N   0  0  0  0  0  0  0  0  0  0  0  0
  1  6  1  0  0  0  0
  2  1  2  0  0  0  0
  2  3  1  0  0  0  0
  3  4  2  0  0  0  0
  4  5  1  0  0  0  0
  5  8  1  0  0  0  0
  6  5  2  0  0  0  0
  7  3  1  0  0  0  0
  9 11  1  0  0  0  0
  9  2  1  0  0  0  0
 10  9  1  0  0  0  0
 10 14  1  0  0  0  0
 10 11  1  0  0  0  0
 11 15  1  0  0  0  0
 12  9  1  0  0  0  0
 13 10  1  0  0  0  0
 16 11  1  0  0  0  0
 17  1  1  0  0  0  0
 18 17  2  0  0  0  0
 19 17  1  0  0  0  0
 20 19  2  0  0  0  0
 21 20  1  0  0  0  0
 22 24  2  0  0  0  0
 22 20  1  0  0  0  0
 23 22  1  0  0  0  0
 24 25  1  0  0  0  0
 25 26  2  0  0  0  0
 26 19  1  0  0  0  0
M  END
>  <minimizedAffinity>
-4.97456312

>  <minimizedRMSD>
1.12820268

$$$$
