
 OpenBabel03242510523D

 21 22  0  0  0  0  0  0  0  0999 V2000
   37.0290   25.4540   40.2800 C   0  0  0  0  0  0  0  0  0  0  0  0
   36.9990   25.1330   41.6450 C   0  0  0  0  0  0  0  0  0  0  0  0
   37.1150   26.1850   42.5620 C   0  0  0  0  0  0  0  0  0  0  0  0
   37.2500   27.4610   42.0850 N   0  0  0  0  0  0  0  0  0  0  0  0
   37.2720   27.7170   40.7580 C   0  0  0  0  0  0  0  0  0  0  0  0
   37.1630   26.7190   39.8410 N   0  0  0  0  0  0  0  0  0  0  0  0
   37.8570   30.0110   41.2970 C   0  0  0  0  0  0  0  0  0  0  0  0
   38.1250   29.7410   42.4990 O   0  0  0  0  0  0  0  0  0  0  0  0
   37.4150   29.0600   40.3220 N   0  0  0  0  0  0  0  0  0  0  0  0
   36.9410   24.6610   39.5580 H   0  0  0  0  0  0  0  0  0  0  0  0
   36.8930   24.1250   42.0180 H   0  0  0  0  0  0  0  0  0  0  0  0
   37.0950   25.9610   43.6130 H   0  0  0  0  0  0  0  0  0  0  0  0
   37.1970   29.3140   39.3200 H   0  0  0  0  0  0  0  0  0  0  0  0
   38.0000   31.3900   40.8370 C   0  0  0  0  0  0  0  0  0  0  0  0
   37.1040   31.9250   39.9110 C   0  0  0  0  0  0  0  0  0  0  0  0
   36.3140   31.2500   39.5700 H   0  0  0  0  0  0  0  0  0  0  0  0
   37.1760   33.2170   39.4300 C   0  0  0  0  0  0  0  0  0  0  0  0
   36.4560   33.5700   38.7190 H   0  0  0  0  0  0  0  0  0  0  0  0
   38.1990   34.0070   39.9090 C   0  0  0  0  0  3  0  0  0  0  0  0
   39.1060   33.4860   40.8370 C   0  0  0  0  0  3  0  0  0  0  0  0
   38.9720   32.2160   41.2590 N   0  0  0  0  0  0  0  0  0  0  0  0
  1  2  1  0  0  0  0
  2 11  1  0  0  0  0
  2  3  2  0  0  0  0
  3 12  1  0  0  0  0
  4  3  1  0  0  0  0
  5  4  2  0  0  0  0
  6  1  2  0  0  0  0
  6  5  1  0  0  0  0
  7  8  2  0  0  0  0
  9  5  1  0  0  0  0
  9  7  1  0  0  0  0
 10  1  1  0  0  0  0
 13  9  1  0  0  0  0
 14 21  1  0  0  0  0
 14  7  1  0  0  0  0
 15 14  2  0  0  0  0
 16 15  1  0  0  0  0
 17 19  2  0  0  0  0
 17 15  1  0  0  0  0
 18 17  1  0  0  0  0
 19 20  1  0  0  0  0
 20 21  2  0  0  0  0
M  END
>  <minimizedAffinity>
-4.47448635

$$$$

 OpenBabel03242510523D

 21 22  0  0  0  0  0  0  0  0999 V2000
   37.2100   32.7670   39.4320 C   0  0  0  0  0  0  0  0  0  0  0  0
   38.2250   33.2100   40.2940 C   0  0  0  0  0  0  0  0  0  0  0  0
   38.8720   32.2510   41.0820 C   0  0  0  0  0  0  0  0  0  0  0  0
   38.4870   30.9420   40.9730 N   0  0  0  0  0  0  0  0  0  0  0  0
   37.5020   30.5660   40.1260 C   0  0  0  0  0  0  0  0  0  0  0  0
   36.8530   31.4730   39.3480 N   0  0  0  0  0  0  0  0  0  0  0  0
   37.6110   28.3520   41.1160 C   0  0  0  0  0  0  0  0  0  0  0  0
   38.3080   28.7390   42.0930 O   0  0  0  0  0  0  0  0  0  0  0  0
   37.1450   29.1950   40.0570 N   0  0  0  0  0  0  0  0  0  0  0  0
   36.7000   33.4870   38.8180 H   0  0  0  0  0  0  0  0  0  0  0  0
   38.5270   34.2440   40.3770 H   0  0  0  0  0  0  0  0  0  0  0  0
   39.6530   32.5690   41.7480 H   0  0  0  0  0  0  0  0  0  0  0  0
   36.5620   28.8440   39.2490 H   0  0  0  0  0  0  0  0  0  0  0  0
   37.2370   26.9430   41.0340 C   0  0  0  0  0  0  0  0  0  0  0  0
   37.2760   26.1310   42.1680 C   0  0  0  0  0  0  0  0  0  0  0  0
   37.5990   26.6200   43.0910 H   0  0  0  0  0  0  0  0  0  0  0  0
   36.9380   24.7920   42.1680 C   0  0  0  0  0  0  0  0  0  0  0  0
   36.9880   24.2220   43.0740 H   0  0  0  0  0  0  0  0  0  0  0  0
   36.5400   24.2480   40.9650 C   0  0  0  0  0  3  0  0  0  0  0  0
   36.4960   25.0470   39.8190 C   0  0  0  0  0  3  0  0  0  0  0  0
   36.8410   26.3450   39.8970 N   0  0  0  0  0  0  0  0  0  0  0  0
  1  2  1  0  0  0  0
  2 11  1  0  0  0  0
  2  3  2  0  0  0  0
  3 12  1  0  0  0  0
  4  3  1  0  0  0  0
  5  4  2  0  0  0  0
  6  1  2  0  0  0  0
  6  5  1  0  0  0  0
  7  8  2  0  0  0  0
  9  5  1  0  0  0  0
  9  7  1  0  0  0  0
 10  1  1  0  0  0  0
 13  9  1  0  0  0  0
 14  7  1  0  0  0  0
 14 15  1  0  0  0  0
 15 17  2  0  0  0  0
 15 16  1  0  0  0  0
 17 18  1  0  0  0  0
 19 17  1  0  0  0  0
 20 21  1  0  0  0  0
 20 19  2  0  0  0  0
 21 14  2  0  0  0  0
M  END
>  <minimizedAffinity>
-4.34905815

$$$$

 OpenBabel03242510523D

 21 22  0  0  0  0  0  0  0  0999 V2000
   39.4970   33.5560   40.6720 C   0  0  0  0  0  0  0  0  0  0  0  0
   38.4630   34.1610   39.9420 C   0  0  0  0  0  0  0  0  0  0  0  0
   37.3360   33.3840   39.6460 C   0  0  0  0  0  0  0  0  0  0  0  0
   37.3010   32.0860   40.0800 N   0  0  0  0  0  0  0  0  0  0  0  0
   38.3250   31.5500   40.7810 C   0  0  0  0  0  0  0  0  0  0  0  0
   39.4330   32.2770   41.0840 N   0  0  0  0  0  0  0  0  0  0  0  0
   37.2230   29.3960   40.5820 C   0  0  0  0  0  0  0  0  0  0  0  0
   36.4210   29.8020   39.6970 O   0  0  0  0  0  0  0  0  0  0  0  0
   38.2330   30.1990   41.2030 N   0  0  0  0  0  0  0  0  0  0  0  0
   40.3710   34.1350   40.9100 H   0  0  0  0  0  0  0  0  0  0  0  0
   38.4930   35.1860   39.6020 H   0  0  0  0  0  0  0  0  0  0  0  0
   36.5320   33.8280   39.0880 H   0  0  0  0  0  0  0  0  0  0  0  0
   38.8920   29.8330   41.9430 H   0  0  0  0  0  0  0  0  0  0  0  0
   37.1380   28.0070   41.0240 C   0  0  0  0  0  0  0  0  0  0  0  0
   37.1260   27.6950   42.3850 C   0  0  0  0  0  0  0  0  0  0  0  0
   37.1840   28.5480   43.0670 H   0  0  0  0  0  0  0  0  0  0  0  0
   37.0470   26.4080   42.8780 C   0  0  0  0  0  0  0  0  0  0  0  0
   37.0420   26.2340   43.9360 H   0  0  0  0  0  0  0  0  0  0  0  0
   36.9750   25.3880   41.9540 C   0  0  0  0  0  3  0  0  0  0  0  0
   36.9860   25.6820   40.5870 C   0  0  0  0  0  3  0  0  0  0  0  0
   37.0650   26.9620   40.1820 N   0  0  0  0  0  0  0  0  0  0  0  0
  1 10  1  0  0  0  0
  1  6  1  0  0  0  0
  2  1  2  0  0  0  0
  3  2  1  0  0  0  0
  3  4  2  0  0  0  0
  4  5  1  0  0  0  0
  5  6  2  0  0  0  0
  5  9  1  0  0  0  0
  7 14  1  0  0  0  0
  7  9  1  0  0  0  0
  8  7  2  0  0  0  0
  9 13  1  0  0  0  0
 11  2  1  0  0  0  0
 12  3  1  0  0  0  0
 14 15  1  0  0  0  0
 15 17  2  0  0  0  0
 15 16  1  0  0  0  0
 17 18  1  0  0  0  0
 19 17  1  0  0  0  0
 20 19  2  0  0  0  0
 21 20  1  0  0  0  0
 21 14  2  0  0  0  0
M  END
>  <minimizedAffinity>
-4.31118679

$$$$

 OpenBabel03242510523D

 21 22  0  0  0  0  0  0  0  0999 V2000
   37.0880   31.9180   38.7630 C   0  0  0  0  0  0  0  0  0  0  0  0
   37.5060   33.0280   39.5130 C   0  0  0  0  0  0  0  0  0  0  0  0
   38.2370   32.7840   40.6820 C   0  0  0  0  0  0  0  0  0  0  0  0
   38.5060   31.4880   41.0300 N   0  0  0  0  0  0  0  0  0  0  0  0
   38.0810   30.4530   40.2720 C   0  0  0  0  0  0  0  0  0  0  0  0
   37.3680   30.6550   39.1320 N   0  0  0  0  0  0  0  0  0  0  0  0
   38.8350   28.9630   42.0350 C   0  0  0  0  0  0  0  0  0  0  0  0
   38.9720   29.8970   42.8710 O   0  0  0  0  0  0  0  0  0  0  0  0
   38.3890   29.1310   40.6840 N   0  0  0  0  0  0  0  0  0  0  0  0
   36.5260   32.0830   37.8610 H   0  0  0  0  0  0  0  0  0  0  0  0
   37.2920   34.0500   39.2340 H   0  0  0  0  0  0  0  0  0  0  0  0
   38.5670   33.6210   41.2700 H   0  0  0  0  0  0  0  0  0  0  0  0
   38.2840   28.3300   40.0030 H   0  0  0  0  0  0  0  0  0  0  0  0
   39.1500   27.5980   42.4470 C   0  0  0  0  0  0  0  0  0  0  0  0
   40.2610   27.3380   43.2510 C   0  0  0  0  0  0  0  0  0  0  0  0
   40.8560   28.2100   43.5350 H   0  0  0  0  0  0  0  0  0  0  0  0
   40.6210   26.0760   43.6790 C   0  0  0  0  0  0  0  0  0  0  0  0
   41.4870   25.9410   44.2960 H   0  0  0  0  0  0  0  0  0  0  0  0
   39.8200   25.0270   43.2800 C   0  0  0  0  0  3  0  0  0  0  0  0
   38.7030   25.2700   42.4750 C   0  0  0  0  0  3  0  0  0  0  0  0
   38.4160   26.5290   42.0960 N   0  0  0  0  0  0  0  0  0  0  0  0
  1  6  2  0  0  0  0
  1  2  1  0  0  0  0
  2  3  2  0  0  0  0
  3  4  1  0  0  0  0
  3 12  1  0  0  0  0
  5  9  1  0  0  0  0
  5  4  2  0  0  0  0
  6  5  1  0  0  0  0
  7 14  1  0  0  0  0
  7  8  2  0  0  0  0
  9  7  1  0  0  0  0
 10  1  1  0  0  0  0
 11  2  1  0  0  0  0
 13  9  1  0  0  0  0
 14 15  1  0  0  0  0
 15 16  1  0  0  0  0
 15 17  2  0  0  0  0
 17 18  1  0  0  0  0
 19 17  1  0  0  0  0
 20 19  2  0  0  0  0
 21 14  2  0  0  0  0
 21 20  1  0  0  0  0
M  END
>  <minimizedAffinity>
-4.2645607

$$$$

 OpenBabel03242510523D

 21 22  0  0  0  0  0  0  0  0999 V2000
   41.6730   31.8460   37.3200 C   0  0  0  0  0  0  0  0  0  0  0  0
   41.6360   33.1950   37.7050 C   0  0  0  0  0  0  0  0  0  0  0  0
   40.9070   33.5220   38.8550 C   0  0  0  0  0  0  0  0  0  0  0  0
   40.2750   32.5190   39.5400 N   0  0  0  0  0  0  0  0  0  0  0  0
   40.3430   31.2330   39.1270 C   0  0  0  0  0  0  0  0  0  0  0  0
   41.0410   30.8830   38.0140 N   0  0  0  0  0  0  0  0  0  0  0  0
   38.6910   30.6900   40.8210 C   0  0  0  0  0  0  0  0  0  0  0  0
   38.3950   31.8980   41.0290 O   0  0  0  0  0  0  0  0  0  0  0  0
   39.6670   30.2360   39.8760 N   0  0  0  0  0  0  0  0  0  0  0  0
   42.2280   31.5740   36.4390 H   0  0  0  0  0  0  0  0  0  0  0  0
   42.1360   33.9840   37.1620 H   0  0  0  0  0  0  0  0  0  0  0  0
   40.8650   34.5490   39.1680 H   0  0  0  0  0  0  0  0  0  0  0  0
   39.8960   29.2170   39.7220 H   0  0  0  0  0  0  0  0  0  0  0  0
   38.0020   29.6550   41.5870 C   0  0  0  0  0  0  0  0  0  0  0  0
   38.3900   29.3640   42.8950 C   0  0  0  0  0  0  0  0  0  0  0  0
   39.2240   29.9550   43.2860 H   0  0  0  0  0  0  0  0  0  0  0  0
   37.7880   28.4010   43.6800 C   0  0  0  0  0  0  0  0  0  0  0  0
   38.1320   28.2250   44.6790 H   0  0  0  0  0  0  0  0  0  0  0  0
   36.7430   27.7000   43.1170 C   0  0  0  0  0  3  0  0  0  0  0  0
   36.3410   27.9780   41.8070 C   0  0  0  0  0  3  0  0  0  0  0  0
   36.9780   28.9320   41.1040 N   0  0  0  0  0  0  0  0  0  0  0  0
  1  2  2  0  0  0  0
  1  6  1  0  0  0  0
  2  3  1  0  0  0  0
  3 12  1  0  0  0  0
  3  4  2  0  0  0  0
  5  4  1  0  0  0  0
  5  9  1  0  0  0  0
  6  5  2  0  0  0  0
  7  8  2  0  0  0  0
  7 14  1  0  0  0  0
  9  7  1  0  0  0  0
 10  1  1  0  0  0  0
 11  2  1  0  0  0  0
 13  9  1  0  0  0  0
 14 15  1  0  0  0  0
 15 16  1  0  0  0  0
 15 17  2  0  0  0  0
 17 18  1  0  0  0  0
 19 17  1  0  0  0  0
 20 19  2  0  0  0  0
 21 14  2  0  0  0  0
 21 20  1  0  0  0  0
M  END
>  <minimizedAffinity>
-4.22678614

$$$$

 OpenBabel03242510523D

 21 22  0  0  0  0  0  0  0  0999 V2000
   44.4780   30.2200   35.1840 C   0  0  0  0  0  0  0  0  0  0  0  0
   45.4660   31.0360   35.7550 C   0  0  0  0  0  0  0  0  0  0  0  0
   45.0790   31.8980   36.7880 C   0  0  0  0  0  0  0  0  0  0  0  0
   43.7690   31.9000   37.1860 N   0  0  0  0  0  0  0  0  0  0  0  0
   42.8550   31.0920   36.6030 C   0  0  0  0  0  0  0  0  0  0  0  0
   43.1980   30.2450   35.5970 N   0  0  0  0  0  0  0  0  0  0  0  0
   41.1420   32.2610   37.8650 C   0  0  0  0  0  0  0  0  0  0  0  0
   41.9170   33.1990   38.1950 O   0  0  0  0  0  0  0  0  0  0  0  0
   41.5120   31.1380   37.0570 N   0  0  0  0  0  0  0  0  0  0  0  0
   44.7540   29.5500   34.3890 H   0  0  0  0  0  0  0  0  0  0  0  0
   46.4990   31.0320   35.4380 H   0  0  0  0  0  0  0  0  0  0  0  0
   45.8200   32.5310   37.2390 H   0  0  0  0  0  0  0  0  0  0  0  0
   40.8410   30.3650   36.7960 H   0  0  0  0  0  0  0  0  0  0  0  0
   39.7570   32.2980   38.3270 C   0  0  0  0  0  0  0  0  0  0  0  0
   38.7630   31.5950   37.6450 C   0  0  0  0  0  0  0  0  0  0  0  0
   39.0950   31.0340   36.7670 H   0  0  0  0  0  0  0  0  0  0  0  0
   37.4350   31.5820   38.0210 C   0  0  0  0  0  0  0  0  0  0  0  0
   36.7180   31.0210   37.4550 H   0  0  0  0  0  0  0  0  0  0  0  0
   37.0940   32.3130   39.1390 C   0  0  0  0  0  3  0  0  0  0  0  0
   38.0780   33.0240   39.8340 C   0  0  0  0  0  3  0  0  0  0  0  0
   39.3530   32.9880   39.4060 N   0  0  0  0  0  0  0  0  0  0  0  0
  1  6  2  0  0  0  0
  1  2  1  0  0  0  0
  2  3  2  0  0  0  0
  3  4  1  0  0  0  0
  3 12  1  0  0  0  0
  5  9  1  0  0  0  0
  5  4  2  0  0  0  0
  6  5  1  0  0  0  0
  7  8  2  0  0  0  0
  7 14  1  0  0  0  0
  9  7  1  0  0  0  0
 10  1  1  0  0  0  0
 11  2  1  0  0  0  0
 13  9  1  0  0  0  0
 14 21  1  0  0  0  0
 15 17  1  0  0  0  0
 15 14  2  0  0  0  0
 16 15  1  0  0  0  0
 17 19  2  0  0  0  0
 18 17  1  0  0  0  0
 19 20  1  0  0  0  0
 21 20  2  0  0  0  0
M  END
>  <minimizedAffinity>
-4.14076662

$$$$

 OpenBabel03242510523D

 21 22  0  0  0  0  0  0  0  0999 V2000
   43.0240   33.0970   41.6580 C   0  0  0  0  0  0  0  0  0  0  0  0
   42.5410   33.9270   40.6350 C   0  0  0  0  0  0  0  0  0  0  0  0
   41.2510   33.6800   40.1530 C   0  0  0  0  0  0  0  0  0  0  0  0
   40.5310   32.6520   40.6980 N   0  0  0  0  0  0  0  0  0  0  0  0
   41.0410   31.8800   41.6830 C   0  0  0  0  0  0  0  0  0  0  0  0
   42.2920   32.0920   42.1740 N   0  0  0  0  0  0  0  0  0  0  0  0
   39.1020   30.4390   41.4450 C   0  0  0  0  0  0  0  0  0  0  0  0
   38.7520   30.9620   40.3520 O   0  0  0  0  0  0  0  0  0  0  0  0
   40.2490   30.8270   42.2100 N   0  0  0  0  0  0  0  0  0  0  0  0
   44.0130   33.2690   42.0430 H   0  0  0  0  0  0  0  0  0  0  0  0
   43.1120   34.7390   40.2080 H   0  0  0  0  0  0  0  0  0  0  0  0
   40.8620   34.3050   39.3700 H   0  0  0  0  0  0  0  0  0  0  0  0
   40.5190   30.3720   43.1240 H   0  0  0  0  0  0  0  0  0  0  0  0
   38.2940   29.3550   41.9970 C   0  0  0  0  0  0  0  0  0  0  0  0
   38.7380   28.6310   43.1040 C   0  0  0  0  0  0  0  0  0  0  0  0
   39.7080   28.9330   43.5110 H   0  0  0  0  0  0  0  0  0  0  0  0
   38.0310   27.5950   43.6800 C   0  0  0  0  0  0  0  0  0  0  0  0
   38.4260   27.0780   44.5310 H   0  0  0  0  0  0  0  0  0  0  0  0
   36.8160   27.2750   43.1110 C   0  0  0  0  0  3  0  0  0  0  0  0
   36.3560   27.9900   42.0010 C   0  0  0  0  0  3  0  0  0  0  0  0
   37.1030   28.9880   41.4950 N   0  0  0  0  0  0  0  0  0  0  0  0
  1 10  1  0  0  0  0
  1  6  1  0  0  0  0
  2  1  2  0  0  0  0
  3  2  1  0  0  0  0
  3  4  2  0  0  0  0
  4  5  1  0  0  0  0
  5  6  2  0  0  0  0
  5  9  1  0  0  0  0
  7 14  1  0  0  0  0
  7  9  1  0  0  0  0
  8  7  2  0  0  0  0
  9 13  1  0  0  0  0
 11  2  1  0  0  0  0
 12  3  1  0  0  0  0
 14 15  1  0  0  0  0
 15 16  1  0  0  0  0
 15 17  2  0  0  0  0
 17 18  1  0  0  0  0
 19 17  1  0  0  0  0
 20 19  2  0  0  0  0
 21 14  2  0  0  0  0
 21 20  1  0  0  0  0
M  END
>  <minimizedAffinity>
-4.12702799

$$$$

 OpenBabel03242510523D

 21 22  0  0  0  0  0  0  0  0999 V2000
   39.1830   24.4820   41.3740 C   0  0  0  0  0  0  0  0  0  0  0  0
   38.0410   24.0250   42.0490 C   0  0  0  0  0  0  0  0  0  0  0  0
   36.9430   24.8900   42.1270 C   0  0  0  0  0  0  0  0  0  0  0  0
   37.0370   26.1260   41.5450 N   0  0  0  0  0  0  0  0  0  0  0  0
   38.1610   26.5180   40.9050 C   0  0  0  0  0  0  0  0  0  0  0  0
   39.2450   25.7030   40.8130 N   0  0  0  0  0  0  0  0  0  0  0  0
   37.1870   28.7350   40.7300 C   0  0  0  0  0  0  0  0  0  0  0  0
   36.2720   28.4820   41.5610 O   0  0  0  0  0  0  0  0  0  0  0  0
   38.2010   27.8110   40.3220 N   0  0  0  0  0  0  0  0  0  0  0  0
   40.0380   23.8330   41.3030 H   0  0  0  0  0  0  0  0  0  0  0  0
   37.9690   23.0490   42.5070 H   0  0  0  0  0  0  0  0  0  0  0  0
   36.0580   24.5590   42.6390 H   0  0  0  0  0  0  0  0  0  0  0  0
   38.9570   28.0490   39.6220 H   0  0  0  0  0  0  0  0  0  0  0  0
   37.2380   30.0620   40.1230 C   0  0  0  0  0  0  0  0  0  0  0  0
   37.2700   30.2060   38.7350 C   0  0  0  0  0  0  0  0  0  0  0  0
   37.2530   29.2760   38.1610 H   0  0  0  0  0  0  0  0  0  0  0  0
   37.3180   31.4260   38.0910 C   0  0  0  0  0  0  0  0  0  0  0  0
   37.3410   31.4710   37.0200 H   0  0  0  0  0  0  0  0  0  0  0  0
   37.3350   32.5530   38.8840 C   0  0  0  0  0  3  0  0  0  0  0  0
   37.3040   32.4260   40.2770 C   0  0  0  0  0  3  0  0  0  0  0  0
   37.2570   31.2030   40.8330 N   0  0  0  0  0  0  0  0  0  0  0  0
  1  2  1  0  0  0  0
  2  3  2  0  0  0  0
  2 11  1  0  0  0  0
  3 12  1  0  0  0  0
  4  3  1  0  0  0  0
  5  4  2  0  0  0  0
  6  5  1  0  0  0  0
  6  1  2  0  0  0  0
  7  8  2  0  0  0  0
  9  7  1  0  0  0  0
  9  5  1  0  0  0  0
 10  1  1  0  0  0  0
 13  9  1  0  0  0  0
 14  7  1  0  0  0  0
 14 21  1  0  0  0  0
 15 14  2  0  0  0  0
 16 15  1  0  0  0  0
 17 15  1  0  0  0  0
 17 19  2  0  0  0  0
 18 17  1  0  0  0  0
 19 20  1  0  0  0  0
 20 21  2  0  0  0  0
M  END
>  <minimizedAffinity>
-4.09486389

$$$$

 OpenBabel03242510523D

 21 22  0  0  0  0  0  0  0  0999 V2000
   39.1190   25.7270   42.8600 C   0  0  0  0  0  0  0  0  0  0  0  0
   40.2940   25.8890   43.6090 C   0  0  0  0  0  0  0  0  0  0  0  0
   40.8460   27.1730   43.6800 C   0  0  0  0  0  0  0  0  0  0  0  0
   40.2170   28.1970   43.0230 N   0  0  0  0  0  0  0  0  0  0  0  0
   39.0850   27.9880   42.3150 C   0  0  0  0  0  0  0  0  0  0  0  0
   38.5230   26.7520   42.2250 N   0  0  0  0  0  0  0  0  0  0  0  0
   39.2720   30.2670   41.5020 C   0  0  0  0  0  0  0  0  0  0  0  0
   40.4590   30.3960   41.9090 O   0  0  0  0  0  0  0  0  0  0  0  0
   38.4770   29.0860   41.6540 N   0  0  0  0  0  0  0  0  0  0  0  0
   38.6780   24.7480   42.7930 H   0  0  0  0  0  0  0  0  0  0  0  0
   40.7880   25.0790   44.1260 H   0  0  0  0  0  0  0  0  0  0  0  0
   41.7470   27.3200   44.2480 H   0  0  0  0  0  0  0  0  0  0  0  0
   37.4840   29.0050   41.3040 H   0  0  0  0  0  0  0  0  0  0  0  0
   38.6360   31.3910   40.8210 C   0  0  0  0  0  0  0  0  0  0  0  0
   39.0900   32.6950   41.0280 C   0  0  0  0  0  0  0  0  0  0  0  0
   39.9310   32.8010   41.7190 H   0  0  0  0  0  0  0  0  0  0  0  0
   38.5400   33.8060   40.4210 C   0  0  0  0  0  0  0  0  0  0  0  0
   38.9340   34.7820   40.6210 H   0  0  0  0  0  0  0  0  0  0  0  0
   37.4830   33.5910   39.5620 C   0  0  0  0  0  3  0  0  0  0  0  0
   37.0160   32.2910   39.3430 C   0  0  0  0  0  3  0  0  0  0  0  0
   37.6030   31.2570   39.9720 N   0  0  0  0  0  0  0  0  0  0  0  0
  1  2  1  0  0  0  0
  2  3  2  0  0  0  0
  2 11  1  0  0  0  0
  3 12  1  0  0  0  0
  4  3  1  0  0  0  0
  5  4  2  0  0  0  0
  6  5  1  0  0  0  0
  6  1  2  0  0  0  0
  7  9  1  0  0  0  0
  7  8  2  0  0  0  0
  9  5  1  0  0  0  0
 10  1  1  0  0  0  0
 13  9  1  0  0  0  0
 14 15  1  0  0  0  0
 14  7  1  0  0  0  0
 15 16  1  0  0  0  0
 17 18  1  0  0  0  0
 17 15  2  0  0  0  0
 19 17  1  0  0  0  0
 20 19  2  0  0  0  0
 20 21  1  0  0  0  0
 21 14  2  0  0  0  0
M  END
>  <minimizedAffinity>
-4.09423351

$$$$
