
 OpenBabel03242517013D

 31 33  0  0  0  0  0  0  0  0999 V2000
   37.3640   31.3080   39.9260 C   0  0  0  0  0  0  0  0  0  0  0  0
   37.2780   32.6450   39.5410 C   0  0  0  0  0  0  0  0  0  0  0  0
   38.2000   33.5390   40.0580 C   0  0  0  0  0  0  0  0  0  0  0  0
   39.1670   33.1040   40.9260 C   0  0  0  0  0  0  0  0  0  0  0  0
   39.2800   31.8070   41.3230 C   0  0  0  0  0  0  0  0  0  0  0  0
   38.3340   30.9170   40.7870 C   0  0  0  0  0  0  0  0  0  0  0  0
   36.5140   32.9820   38.8570 H   0  0  0  0  0  0  0  0  0  0  0  0
   38.1960   34.5810   39.8070 H   0  0  0  0  0  0  0  0  0  0  0  0
   39.9160   33.7680   41.3610 H   0  0  0  0  0  0  0  0  0  0  0  0
   40.0010   31.3600   41.9990 H   0  0  0  0  0  0  0  0  0  0  0  0
   35.3030   29.1890   37.5860 C   0  0  0  0  0  0  0  0  0  0  0  0
   36.3150   30.0680   38.0220 C   0  0  0  0  0  0  0  0  0  0  0  0
   36.3690   30.4110   39.3530 C   0  0  0  0  0  0  0  0  0  0  0  0
   35.4310   29.8780   40.1790 N   0  0  0  0  0  0  0  0  0  0  0  0
   34.4620   29.0370   39.7640 C   0  0  0  0  0  0  0  0  0  0  0  0
   34.4000   28.6890   38.4410 N   0  0  0  0  0  0  0  0  0  0  0  0
   35.3530   28.9850   36.5170 H   0  0  0  0  0  0  0  0  0  0  0  0
   37.0700   30.5030   37.3810 H   0  0  0  0  0  0  0  0  0  0  0  0
   33.7240   28.6180   40.4190 H   0  0  0  0  0  0  0  0  0  0  0  0
   38.1950   28.7760   42.3040 C   0  0  0  0  0  0  0  0  0  0  0  0
   38.0110   29.2480   43.4510 O   0  0  0  0  0  0  0  0  0  0  0  0
   38.3350   29.5400   41.1170 N   0  0  0  0  0  0  0  0  0  0  0  0
   38.4810   29.1090   40.1620 H   0  0  0  0  0  0  0  0  0  0  0  0
   38.2910   27.3180   42.0680 C   0  0  0  0  0  0  0  0  0  0  0  0
   37.1650   26.5680   42.3360 C   0  0  0  0  0  0  0  0  0  0  0  0
   36.2680   27.0610   42.7020 H   0  0  0  0  0  0  0  0  0  0  0  0
   37.0500   25.1890   42.1810 C   0  0  0  0  0  0  0  0  0  0  0  0
   36.1240   24.6830   42.4160 H   0  0  0  0  0  0  0  0  0  0  0  0
   38.1770   24.5430   41.7160 C   0  0  0  0  0  3  0  0  0  0  0  0
   39.3040   25.3200   41.4520 C   0  0  0  0  0  3  0  0  0  0  0  0
   39.3500   26.6500   41.6230 N   0  0  0  0  0  0  0  0  0  0  0  0
  1  6  1  0  0  0  0
  2  1  2  0  0  0  0
  2  3  1  0  0  0  0
  3  4  2  0  0  0  0
  4  5  1  0  0  0  0
  4  9  1  0  0  0  0
  5 10  1  0  0  0  0
  6 22  1  0  0  0  0
  6  5  2  0  0  0  0
  7  2  1  0  0  0  0
  8  3  1  0  0  0  0
 11 12  2  0  0  0  0
 11 16  1  0  0  0  0
 12 13  1  0  0  0  0
 13  1  1  0  0  0  0
 13 14  2  0  0  0  0
 15 14  1  0  0  0  0
 15 19  1  0  0  0  0
 16 15  2  0  0  0  0
 17 11  1  0  0  0  0
 18 12  1  0  0  0  0
 20 21  2  0  0  0  0
 22 20  1  0  0  0  0
 23 22  1  0  0  0  0
 24 20  1  0  0  0  0
 24 25  1  0  0  0  0
 25 26  1  0  0  0  0
 27 25  2  0  0  0  0
 27 28  1  0  0  0  0
 29 27  1  0  0  0  0
 30 31  1  0  0  0  0
 30 29  2  0  0  0  0
 31 24  2  0  0  0  0
M  END
>  <minimizedAffinity>
-5.59449959

$$$$

 OpenBabel03242517013D

 31 33  0  0  0  0  0  0  0  0999 V2000
   36.6270   26.2560   39.8650 C   0  0  0  0  0  0  0  0  0  0  0  0
   36.3130   24.9020   39.7560 C   0  0  0  0  0  0  0  0  0  0  0  0
   36.5300   24.0860   40.8530 C   0  0  0  0  0  0  0  0  0  0  0  0
   37.0410   24.6120   42.0100 C   0  0  0  0  0  0  0  0  0  0  0  0
   37.3590   25.9290   42.1520 C   0  0  0  0  0  0  0  0  0  0  0  0
   37.1300   26.7380   41.0260 C   0  0  0  0  0  0  0  0  0  0  0  0
   35.9110   24.4930   38.8410 H   0  0  0  0  0  0  0  0  0  0  0  0
   36.3130   23.0360   40.8420 H   0  0  0  0  0  0  0  0  0  0  0  0
   37.2310   24.0120   42.9010 H   0  0  0  0  0  0  0  0  0  0  0  0
   37.7650   26.4440   43.0150 H   0  0  0  0  0  0  0  0  0  0  0  0
   36.6220   27.6870   36.3770 C   0  0  0  0  0  0  0  0  0  0  0  0
   36.9390   26.8290   37.4480 C   0  0  0  0  0  0  0  0  0  0  0  0
   36.3780   27.0680   38.6810 C   0  0  0  0  0  0  0  0  0  0  0  0
   35.5410   28.1330   38.7960 N   0  0  0  0  0  0  0  0  0  0  0  0
   35.2360   28.9560   37.7720 C   0  0  0  0  0  0  0  0  0  0  0  0
   35.7900   28.7250   36.5400 N   0  0  0  0  0  0  0  0  0  0  0  0
   37.1190   27.4060   35.4490 H   0  0  0  0  0  0  0  0  0  0  0  0
   37.6030   25.9770   37.3790 H   0  0  0  0  0  0  0  0  0  0  0  0
   34.5750   29.7940   37.8660 H   0  0  0  0  0  0  0  0  0  0  0  0
   37.5270   29.1370   42.0230 C   0  0  0  0  0  0  0  0  0  0  0  0
   37.3760   28.9650   43.2560 O   0  0  0  0  0  0  0  0  0  0  0  0
   37.4170   28.1250   41.0350 N   0  0  0  0  0  0  0  0  0  0  0  0
   37.5590   28.3030   40.0020 H   0  0  0  0  0  0  0  0  0  0  0  0
   37.8470   30.4660   41.4560 C   0  0  0  0  0  0  0  0  0  0  0  0
   36.8980   31.0390   40.6370 C   0  0  0  0  0  0  0  0  0  0  0  0
   35.9690   30.5090   40.4410 H   0  0  0  0  0  0  0  0  0  0  0  0
   37.0060   32.2770   40.0080 C   0  0  0  0  0  0  0  0  0  0  0  0
   36.2070   32.6490   39.3810 H   0  0  0  0  0  0  0  0  0  0  0  0
   38.1760   32.9680   40.2440 C   0  0  0  0  0  3  0  0  0  0  0  0
   39.1220   32.3710   41.0750 C   0  0  0  0  0  3  0  0  0  0  0  0
   38.9570   31.1710   41.6520 N   0  0  0  0  0  0  0  0  0  0  0  0
  1  6  1  0  0  0  0
  2  1  2  0  0  0  0
  2  3  1  0  0  0  0
  3  4  2  0  0  0  0
  4  5  1  0  0  0  0
  4  9  1  0  0  0  0
  5 10  1  0  0  0  0
  6 22  1  0  0  0  0
  6  5  2  0  0  0  0
  7  2  1  0  0  0  0
  8  3  1  0  0  0  0
 11 16  2  0  0  0  0
 11 12  1  0  0  0  0
 12 13  2  0  0  0  0
 13 14  1  0  0  0  0
 13  1  1  0  0  0  0
 15 19  1  0  0  0  0
 15 14  2  0  0  0  0
 16 15  1  0  0  0  0
 17 11  1  0  0  0  0
 18 12  1  0  0  0  0
 20 21  2  0  0  0  0
 22 20  1  0  0  0  0
 23 22  1  0  0  0  0
 24 31  1  0  0  0  0
 24 20  1  0  0  0  0
 25 24  2  0  0  0  0
 26 25  1  0  0  0  0
 27 29  2  0  0  0  0
 27 25  1  0  0  0  0
 28 27  1  0  0  0  0
 29 30  1  0  0  0  0
 30 31  2  0  0  0  0
M  END
>  <minimizedAffinity>
-5.29554462

$$$$

 OpenBabel03242517013D

 31 33  0  0  0  0  0  0  0  0999 V2000
   36.8800   25.7370   40.6110 C   0  0  0  0  0  0  0  0  0  0  0  0
   36.7930   24.3760   40.9040 C   0  0  0  0  0  0  0  0  0  0  0  0
   36.2330   23.5340   39.9590 C   0  0  0  0  0  0  0  0  0  0  0  0
   35.7790   24.0410   38.7700 C   0  0  0  0  0  0  0  0  0  0  0  0
   35.8470   25.3630   38.4510 C   0  0  0  0  0  0  0  0  0  0  0  0
   36.4190   26.1990   39.4240 C   0  0  0  0  0  0  0  0  0  0  0  0
   37.1530   23.9820   41.8430 H   0  0  0  0  0  0  0  0  0  0  0  0
   36.1340   22.4780   40.1140 H   0  0  0  0  0  0  0  0  0  0  0  0
   35.3290   23.4210   37.9930 H   0  0  0  0  0  0  0  0  0  0  0  0
   35.5210   25.8650   37.5460 H   0  0  0  0  0  0  0  0  0  0  0  0
   39.2070   27.2670   43.1520 C   0  0  0  0  0  0  0  0  0  0  0  0
   38.7380   26.3860   42.1560 C   0  0  0  0  0  0  0  0  0  0  0  0
   37.4780   26.5760   41.6400 C   0  0  0  0  0  0  0  0  0  0  0  0
   36.7480   27.6150   42.1270 N   0  0  0  0  0  0  0  0  0  0  0  0
   37.1950   28.4580   43.0790 C   0  0  0  0  0  0  0  0  0  0  0  0
   38.4490   28.2780   43.5990 N   0  0  0  0  0  0  0  0  0  0  0  0
   40.2150   27.0260   43.4880 H   0  0  0  0  0  0  0  0  0  0  0  0
   39.3020   25.5540   41.7560 H   0  0  0  0  0  0  0  0  0  0  0  0
   36.6170   29.2770   43.4610 H   0  0  0  0  0  0  0  0  0  0  0  0
   35.6920   28.6540   38.8320 C   0  0  0  0  0  0  0  0  0  0  0  0
   34.4760   28.5350   38.5550 O   0  0  0  0  0  0  0  0  0  0  0  0
   36.5510   27.5950   39.2240 N   0  0  0  0  0  0  0  0  0  0  0  0
   37.5730   27.7320   39.4590 H   0  0  0  0  0  0  0  0  0  0  0  0
   36.3800   29.9630   38.7720 C   0  0  0  0  0  0  0  0  0  0  0  0
   36.4490   30.6850   39.9440 C   0  0  0  0  0  0  0  0  0  0  0  0
   36.0080   30.2780   40.8510 H   0  0  0  0  0  0  0  0  0  0  0  0
   37.0490   31.9320   40.0980 C   0  0  0  0  0  0  0  0  0  0  0  0
   37.0560   32.4270   41.0600 H   0  0  0  0  0  0  0  0  0  0  0  0
   37.6170   32.4680   38.9600 C   0  0  0  0  0  3  0  0  0  0  0  0
   37.5350   31.7220   37.7860 C   0  0  0  0  0  3  0  0  0  0  0  0
   36.9410   30.5210   37.7040 N   0  0  0  0  0  0  0  0  0  0  0  0
  1  2  1  0  0  0  0
  1 13  1  0  0  0  0
  2  7  1  0  0  0  0
  3  8  1  0  0  0  0
  3  2  2  0  0  0  0
  4  3  1  0  0  0  0
  5  4  2  0  0  0  0
  5  6  1  0  0  0  0
  6  1  2  0  0  0  0
  9  4  1  0  0  0  0
 10  5  1  0  0  0  0
 11 17  1  0  0  0  0
 11 16  1  0  0  0  0
 12 11  2  0  0  0  0
 13 14  2  0  0  0  0
 13 12  1  0  0  0  0
 14 15  1  0  0  0  0
 15 19  1  0  0  0  0
 15 16  2  0  0  0  0
 18 12  1  0  0  0  0
 20 22  1  0  0  0  0
 21 20  2  0  0  0  0
 22  6  1  0  0  0  0
 22 23  1  0  0  0  0
 24 20  1  0  0  0  0
 24 25  1  0  0  0  0
 25 27  2  0  0  0  0
 25 26  1  0  0  0  0
 27 28  1  0  0  0  0
 29 27  1  0  0  0  0
 30 29  2  0  0  0  0
 31 30  1  0  0  0  0
 31 24  2  0  0  0  0
M  END
>  <minimizedAffinity>
-5.295506

$$$$

 OpenBabel03242517013D

 31 33  0  0  0  0  0  0  0  0999 V2000
   37.8630   29.4760   41.6510 C   0  0  0  0  0  0  0  0  0  0  0  0
   38.4020   29.3450   42.9310 C   0  0  0  0  0  0  0  0  0  0  0  0
   38.0570   28.2340   43.6800 C   0  0  0  0  0  0  0  0  0  0  0  0
   37.2060   27.2940   43.1630 C   0  0  0  0  0  0  0  0  0  0  0  0
   36.6610   27.3880   41.9180 C   0  0  0  0  0  0  0  0  0  0  0  0
   37.0250   28.5240   41.1750 C   0  0  0  0  0  0  0  0  0  0  0  0
   39.0730   30.0900   43.3330 H   0  0  0  0  0  0  0  0  0  0  0  0
   38.4330   28.0670   44.6700 H   0  0  0  0  0  0  0  0  0  0  0  0
   36.9030   26.4010   43.7110 H   0  0  0  0  0  0  0  0  0  0  0  0
   35.9830   26.7070   41.4160 H   0  0  0  0  0  0  0  0  0  0  0  0
   39.7850   32.0680   39.7020 C   0  0  0  0  0  0  0  0  0  0  0  0
   39.5230   30.8760   40.4060 C   0  0  0  0  0  0  0  0  0  0  0  0
   38.2600   30.6640   40.9070 C   0  0  0  0  0  0  0  0  0  0  0  0
   37.3270   31.6290   40.6920 N   0  0  0  0  0  0  0  0  0  0  0  0
   37.5760   32.7700   40.0190 C   0  0  0  0  0  0  0  0  0  0  0  0
   38.8310   32.9900   39.5160 N   0  0  0  0  0  0  0  0  0  0  0  0
   40.8140   32.1330   39.3500 H   0  0  0  0  0  0  0  0  0  0  0  0
   40.2500   30.0960   40.5890 H   0  0  0  0  0  0  0  0  0  0  0  0
   36.8380   33.5290   39.8510 H   0  0  0  0  0  0  0  0  0  0  0  0
   35.2680   29.0450   39.2920 C   0  0  0  0  0  0  0  0  0  0  0  0
   34.1980   29.1900   39.9280 O   0  0  0  0  0  0  0  0  0  0  0  0
   36.5310   28.7500   39.8670 N   0  0  0  0  0  0  0  0  0  0  0  0
   37.4170   28.6420   39.3010 H   0  0  0  0  0  0  0  0  0  0  0  0
   35.3200   29.1720   37.8180 C   0  0  0  0  0  0  0  0  0  0  0  0
   36.4720   29.7020   37.2780 C   0  0  0  0  0  0  0  0  0  0  0  0
   37.2840   30.0020   37.9370 H   0  0  0  0  0  0  0  0  0  0  0  0
   36.7180   29.9040   35.9230 C   0  0  0  0  0  0  0  0  0  0  0  0
   37.6560   30.3270   35.5880 H   0  0  0  0  0  0  0  0  0  0  0  0
   35.7020   29.5290   35.0680 C   0  0  0  0  0  3  0  0  0  0  0  0
   34.5460   28.9960   35.6340 C   0  0  0  0  0  3  0  0  0  0  0  0
   34.3710   28.8270   36.9540 N   0  0  0  0  0  0  0  0  0  0  0  0
  1  2  1  0  0  0  0
  2  7  1  0  0  0  0
  2  3  2  0  0  0  0
  3  8  1  0  0  0  0
  4  3  1  0  0  0  0
  4  9  1  0  0  0  0
  5  4  2  0  0  0  0
  6  1  2  0  0  0  0
  6  5  1  0  0  0  0
 10  5  1  0  0  0  0
 11 12  1  0  0  0  0
 12 18  1  0  0  0  0
 12 13  2  0  0  0  0
 13  1  1  0  0  0  0
 14 13  1  0  0  0  0
 15 14  2  0  0  0  0
 16 11  2  0  0  0  0
 16 15  1  0  0  0  0
 17 11  1  0  0  0  0
 19 15  1  0  0  0  0
 20 22  1  0  0  0  0
 20 21  2  0  0  0  0
 22  6  1  0  0  0  0
 23 22  1  0  0  0  0
 24 20  1  0  0  0  0
 25 24  1  0  0  0  0
 25 26  1  0  0  0  0
 27 25  2  0  0  0  0
 28 27  1  0  0  0  0
 29 30  2  0  0  0  0
 29 27  1  0  0  0  0
 30 31  1  0  0  0  0
 31 24  2  0  0  0  0
M  END
>  <minimizedAffinity>
-5.28791285

$$$$

 OpenBabel03242517013D

 31 33  0  0  0  0  0  0  0  0999 V2000
   36.9390   30.1380   37.1760 C   0  0  0  0  0  0  0  0  0  0  0  0
   36.7610   30.4430   35.8260 C   0  0  0  0  0  0  0  0  0  0  0  0
   36.0820   29.5360   35.0310 C   0  0  0  0  0  0  0  0  0  0  0  0
   35.6030   28.3720   35.5710 C   0  0  0  0  0  0  0  0  0  0  0  0
   35.7580   28.0420   36.8830 C   0  0  0  0  0  0  0  0  0  0  0  0
   36.4500   28.9760   37.6720 C   0  0  0  0  0  0  0  0  0  0  0  0
   37.1410   31.3620   35.4070 H   0  0  0  0  0  0  0  0  0  0  0  0
   35.9070   29.7040   33.9860 H   0  0  0  0  0  0  0  0  0  0  0  0
   35.0620   27.6260   34.9880 H   0  0  0  0  0  0  0  0  0  0  0  0
   35.4210   27.1550   37.4090 H   0  0  0  0  0  0  0  0  0  0  0  0
   39.6050   32.3080   38.7240 C   0  0  0  0  0  0  0  0  0  0  0  0
   39.0210   31.3180   37.9080 C   0  0  0  0  0  0  0  0  0  0  0  0
   37.6600   31.1260   37.9660 C   0  0  0  0  0  0  0  0  0  0  0  0
   36.9500   31.9110   38.8190 N   0  0  0  0  0  0  0  0  0  0  0  0
   37.5060   32.8580   39.6000 C   0  0  0  0  0  0  0  0  0  0  0  0
   38.8600   33.0570   39.5490 N   0  0  0  0  0  0  0  0  0  0  0  0
   40.6850   32.3760   38.5990 H   0  0  0  0  0  0  0  0  0  0  0  0
   39.5680   30.6840   37.2240 H   0  0  0  0  0  0  0  0  0  0  0  0
   36.9420   33.4760   40.2710 H   0  0  0  0  0  0  0  0  0  0  0  0
   35.9150   28.8410   40.2410 C   0  0  0  0  0  0  0  0  0  0  0  0
   34.7040   29.1620   40.3000 O   0  0  0  0  0  0  0  0  0  0  0  0
   36.6840   28.7590   39.0520 N   0  0  0  0  0  0  0  0  0  0  0  0
   37.7030   28.4770   39.0370 H   0  0  0  0  0  0  0  0  0  0  0  0
   36.6910   28.5050   41.4560 C   0  0  0  0  0  0  0  0  0  0  0  0
   36.8700   27.1670   41.7310 C   0  0  0  0  0  0  0  0  0  0  0  0
   36.4450   26.4210   41.0630 H   0  0  0  0  0  0  0  0  0  0  0  0
   37.5650   26.6450   42.8190 C   0  0  0  0  0  0  0  0  0  0  0  0
   37.6550   25.5750   42.9550 H   0  0  0  0  0  0  0  0  0  0  0  0
   38.1140   27.5730   43.6800 C   0  0  0  0  0  3  0  0  0  0  0  0
   37.9210   28.9210   43.3830 C   0  0  0  0  0  3  0  0  0  0  0  0
   37.2390   29.3600   42.3140 N   0  0  0  0  0  0  0  0  0  0  0  0
  1  6  1  0  0  0  0
  1 13  1  0  0  0  0
  2  1  2  0  0  0  0
  3  4  2  0  0  0  0
  3  2  1  0  0  0  0
  4  5  1  0  0  0  0
  5 10  1  0  0  0  0
  5  6  2  0  0  0  0
  6 22  1  0  0  0  0
  7  2  1  0  0  0  0
  8  3  1  0  0  0  0
  9  4  1  0  0  0  0
 11 16  1  0  0  0  0
 12 13  1  0  0  0  0
 12 11  2  0  0  0  0
 13 14  2  0  0  0  0
 14 15  1  0  0  0  0
 15 19  1  0  0  0  0
 16 15  2  0  0  0  0
 17 11  1  0  0  0  0
 18 12  1  0  0  0  0
 20 21  2  0  0  0  0
 20 24  1  0  0  0  0
 22 20  1  0  0  0  0
 23 22  1  0  0  0  0
 24 25  2  0  0  0  0
 24 31  1  0  0  0  0
 25 27  1  0  0  0  0
 26 25  1  0  0  0  0
 27 28  1  0  0  0  0
 27 29  2  0  0  0  0
 30 29  1  0  0  0  0
 31 30  2  0  0  0  0
M  END
>  <minimizedAffinity>
-5.2147398

$$$$

 OpenBabel03242517013D

 31 33  0  0  0  0  0  0  0  0999 V2000
   36.1910   29.4730   37.0990 C   0  0  0  0  0  0  0  0  0  0  0  0
   35.7110   29.6160   35.7970 C   0  0  0  0  0  0  0  0  0  0  0  0
   34.4220   29.1970   35.5220 C   0  0  0  0  0  0  0  0  0  0  0  0
   33.6480   28.6560   36.5140 C   0  0  0  0  0  0  0  0  0  0  0  0
   34.0830   28.5010   37.7950 C   0  0  0  0  0  0  0  0  0  0  0  0
   35.3950   28.9330   38.0530 C   0  0  0  0  0  0  0  0  0  0  0  0
   36.3260   30.0430   35.0200 H   0  0  0  0  0  0  0  0  0  0  0  0
   33.9860   29.2760   34.5450 H   0  0  0  0  0  0  0  0  0  0  0  0
   32.6270   28.3100   36.3490 H   0  0  0  0  0  0  0  0  0  0  0  0
   33.5580   28.0890   38.6500 H   0  0  0  0  0  0  0  0  0  0  0  0
   39.2730   31.5720   37.6590 C   0  0  0  0  0  0  0  0  0  0  0  0
   37.9190   31.2540   37.4310 C   0  0  0  0  0  0  0  0  0  0  0  0
   37.5540   29.9310   37.3340 C   0  0  0  0  0  0  0  0  0  0  0  0
   38.5330   28.9970   37.4650 N   0  0  0  0  0  0  0  0  0  0  0  0
   39.8280   29.3000   37.6830 C   0  0  0  0  0  0  0  0  0  0  0  0
   40.2010   30.6140   37.7820 N   0  0  0  0  0  0  0  0  0  0  0  0
   39.4490   32.6450   37.7200 H   0  0  0  0  0  0  0  0  0  0  0  0
   37.1250   31.9810   37.3240 H   0  0  0  0  0  0  0  0  0  0  0  0
   40.5970   28.5600   37.7860 H   0  0  0  0  0  0  0  0  0  0  0  0
   36.2070   29.7120   40.4280 C   0  0  0  0  0  0  0  0  0  0  0  0
   35.8890   30.9240   40.4580 O   0  0  0  0  0  0  0  0  0  0  0  0
   35.9750   28.8300   39.3410 N   0  0  0  0  0  0  0  0  0  0  0  0
   36.2480   27.8090   39.3520 H   0  0  0  0  0  0  0  0  0  0  0  0
   36.8840   29.0560   41.5690 C   0  0  0  0  0  0  0  0  0  0  0  0
   36.4500   27.7930   41.9090 C   0  0  0  0  0  0  0  0  0  0  0  0
   35.6450   27.3320   41.3420 H   0  0  0  0  0  0  0  0  0  0  0  0
   36.9530   27.0110   42.9460 C   0  0  0  0  0  0  0  0  0  0  0  0
   36.5500   26.0270   43.1410 H   0  0  0  0  0  0  0  0  0  0  0  0
   37.9770   27.5760   43.6790 C   0  0  0  0  0  3  0  0  0  0  0  0
   38.4000   28.8540   43.3190 C   0  0  0  0  0  3  0  0  0  0  0  0
   37.8710   29.5570   42.3050 N   0  0  0  0  0  0  0  0  0  0  0  0
  1 13  1  0  0  0  0
  1  6  1  0  0  0  0
  2  1  2  0  0  0  0
  3  2  1  0  0  0  0
  3  4  2  0  0  0  0
  4  5  1  0  0  0  0
  5  6  2  0  0  0  0
  5 10  1  0  0  0  0
  6 22  1  0  0  0  0
  7  2  1  0  0  0  0
  8  3  1  0  0  0  0
  9  4  1  0  0  0  0
 11 17  1  0  0  0  0
 11 16  1  0  0  0  0
 12 11  2  0  0  0  0
 13 12  1  0  0  0  0
 13 14  2  0  0  0  0
 14 15  1  0  0  0  0
 15 16  2  0  0  0  0
 15 19  1  0  0  0  0
 18 12  1  0  0  0  0
 20 21  2  0  0  0  0
 20 24  1  0  0  0  0
 22 23  1  0  0  0  0
 22 20  1  0  0  0  0
 24 25  2  0  0  0  0
 24 31  1  0  0  0  0
 25 27  1  0  0  0  0
 26 25  1  0  0  0  0
 27 28  1  0  0  0  0
 27 29  2  0  0  0  0
 30 29  1  0  0  0  0
 31 30  2  0  0  0  0
M  END
>  <minimizedAffinity>
-5.19222403

$$$$

 OpenBabel03242517013D

 31 33  0  0  0  0  0  0  0  0999 V2000
   37.3670   29.4120   41.4830 C   0  0  0  0  0  0  0  0  0  0  0  0
   38.0700   29.6120   42.6710 C   0  0  0  0  0  0  0  0  0  0  0  0
   37.9390   28.6720   43.6780 C   0  0  0  0  0  0  0  0  0  0  0  0
   37.1350   27.5780   43.4980 C   0  0  0  0  0  0  0  0  0  0  0  0
   36.4350   27.3500   42.3520 C   0  0  0  0  0  0  0  0  0  0  0  0
   36.5820   28.3170   41.3420 C   0  0  0  0  0  0  0  0  0  0  0  0
   38.7010   30.4760   42.8070 H   0  0  0  0  0  0  0  0  0  0  0  0
   38.4480   28.7590   44.6180 H   0  0  0  0  0  0  0  0  0  0  0  0
   36.9980   26.8090   44.2600 H   0  0  0  0  0  0  0  0  0  0  0  0
   35.7760   26.5250   42.1060 H   0  0  0  0  0  0  0  0  0  0  0  0
   37.2700   32.6060   39.4810 C   0  0  0  0  0  0  0  0  0  0  0  0
   37.0350   31.7070   40.5420 C   0  0  0  0  0  0  0  0  0  0  0  0
   37.5410   30.4310   40.4560 C   0  0  0  0  0  0  0  0  0  0  0  0
   38.2450   30.1060   39.3400 N   0  0  0  0  0  0  0  0  0  0  0  0
   38.4700   30.9640   38.3250 C   0  0  0  0  0  0  0  0  0  0  0  0
   37.9720   32.2370   38.4010 N   0  0  0  0  0  0  0  0  0  0  0  0
   36.8270   33.5860   39.6530 H   0  0  0  0  0  0  0  0  0  0  0  0
   36.4780   31.9460   41.4380 H   0  0  0  0  0  0  0  0  0  0  0  0
   39.0260   30.7040   37.4460 H   0  0  0  0  0  0  0  0  0  0  0  0
   35.9760   27.3390   38.9800 C   0  0  0  0  0  0  0  0  0  0  0  0
   36.7520   26.3600   38.8660 O   0  0  0  0  0  0  0  0  0  0  0  0
   35.9100   28.2060   40.1010 N   0  0  0  0  0  0  0  0  0  0  0  0
   35.2370   29.0190   40.1680 H   0  0  0  0  0  0  0  0  0  0  0  0
   35.0170   27.7000   37.9120 C   0  0  0  0  0  0  0  0  0  0  0  0
   34.0340   28.6090   38.2390 C   0  0  0  0  0  0  0  0  0  0  0  0
   33.9980   29.0200   39.2450 H   0  0  0  0  0  0  0  0  0  0  0  0
   33.0410   29.0770   37.3830 C   0  0  0  0  0  0  0  0  0  0  0  0
   32.3070   29.7940   37.7270 H   0  0  0  0  0  0  0  0  0  0  0  0
   33.0680   28.5690   36.1000 C   0  0  0  0  0  3  0  0  0  0  0  0
   34.0700   27.6520   35.7910 C   0  0  0  0  0  3  0  0  0  0  0  0
   35.0010   27.2410   36.6650 N   0  0  0  0  0  0  0  0  0  0  0  0
  1  2  1  0  0  0  0
  2  7  1  0  0  0  0
  2  3  2  0  0  0  0
  3  8  1  0  0  0  0
  4  3  1  0  0  0  0
  4  9  1  0  0  0  0
  5  4  2  0  0  0  0
  6  1  2  0  0  0  0
  6  5  1  0  0  0  0
 10  5  1  0  0  0  0
 11 17  1  0  0  0  0
 11 12  1  0  0  0  0
 12 18  1  0  0  0  0
 13 12  2  0  0  0  0
 13  1  1  0  0  0  0
 14 13  1  0  0  0  0
 15 16  1  0  0  0  0
 15 14  2  0  0  0  0
 16 11  2  0  0  0  0
 19 15  1  0  0  0  0
 20 22  1  0  0  0  0
 21 20  2  0  0  0  0
 22 23  1  0  0  0  0
 22  6  1  0  0  0  0
 24 25  1  0  0  0  0
 24 20  1  0  0  0  0
 25 26  1  0  0  0  0
 27 28  1  0  0  0  0
 27 25  2  0  0  0  0
 29 27  1  0  0  0  0
 30 29  2  0  0  0  0
 30 31  1  0  0  0  0
 31 24  2  0  0  0  0
M  END
>  <minimizedAffinity>
-5.12333632

$$$$

 OpenBabel03242517013D

 31 33  0  0  0  0  0  0  0  0999 V2000
   37.3060   30.4590   38.5000 C   0  0  0  0  0  0  0  0  0  0  0  0
   37.3590   31.7670   38.0170 C   0  0  0  0  0  0  0  0  0  0  0  0
   37.3650   32.8050   38.9310 C   0  0  0  0  0  0  0  0  0  0  0  0
   37.3180   32.5400   40.2740 C   0  0  0  0  0  0  0  0  0  0  0  0
   37.2660   31.2770   40.7810 C   0  0  0  0  0  0  0  0  0  0  0  0
   37.2610   30.2370   39.8350 C   0  0  0  0  0  0  0  0  0  0  0  0
   37.3950   31.9690   36.9570 H   0  0  0  0  0  0  0  0  0  0  0  0
   37.4040   33.8350   38.6330 H   0  0  0  0  0  0  0  0  0  0  0  0
   37.3200   33.3220   41.0340 H   0  0  0  0  0  0  0  0  0  0  0  0
   37.2270   30.9580   41.8170 H   0  0  0  0  0  0  0  0  0  0  0  0
   36.3610   28.0890   35.7240 C   0  0  0  0  0  0  0  0  0  0  0  0
   36.2450   29.1390   36.6570 C   0  0  0  0  0  0  0  0  0  0  0  0
   37.3030   29.4050   37.4950 C   0  0  0  0  0  0  0  0  0  0  0  0
   38.4120   28.6290   37.3730 N   0  0  0  0  0  0  0  0  0  0  0  0
   38.5260   27.6250   36.4810 C   0  0  0  0  0  0  0  0  0  0  0  0
   37.4780   27.3530   35.6420 N   0  0  0  0  0  0  0  0  0  0  0  0
   35.4680   27.9670   35.1130 H   0  0  0  0  0  0  0  0  0  0  0  0
   35.3710   29.7670   36.7710 H   0  0  0  0  0  0  0  0  0  0  0  0
   39.4030   27.0150   36.3870 H   0  0  0  0  0  0  0  0  0  0  0  0
   37.9250   28.0440   41.1200 C   0  0  0  0  0  0  0  0  0  0  0  0
   38.8770   28.4130   41.8480 O   0  0  0  0  0  0  0  0  0  0  0  0
   37.2080   28.8770   40.2240 N   0  0  0  0  0  0  0  0  0  0  0  0
   36.4030   28.5340   39.6290 H   0  0  0  0  0  0  0  0  0  0  0  0
   37.4400   26.6450   41.1240 C   0  0  0  0  0  0  0  0  0  0  0  0
   36.9220   26.1620   39.9420 C   0  0  0  0  0  0  0  0  0  0  0  0
   36.8900   26.8080   39.0680 H   0  0  0  0  0  0  0  0  0  0  0  0
   36.4160   24.8810   39.7390 C   0  0  0  0  0  0  0  0  0  0  0  0
   36.0280   24.5870   38.7720 H   0  0  0  0  0  0  0  0  0  0  0  0
   36.4480   24.0430   40.8350 C   0  0  0  0  0  3  0  0  0  0  0  0
   36.9750   24.5520   42.0200 C   0  0  0  0  0  3  0  0  0  0  0  0
   37.4490   25.8010   42.1510 N   0  0  0  0  0  0  0  0  0  0  0  0
  1  6  1  0  0  0  0
  2  1  2  0  0  0  0
  2  3  1  0  0  0  0
  3  4  2  0  0  0  0
  4  5  1  0  0  0  0
  4  9  1  0  0  0  0
  5 10  1  0  0  0  0
  6 22  1  0  0  0  0
  6  5  2  0  0  0  0
  7  2  1  0  0  0  0
  8  3  1  0  0  0  0
 11 12  1  0  0  0  0
 12 18  1  0  0  0  0
 12 13  2  0  0  0  0
 13  1  1  0  0  0  0
 14 13  1  0  0  0  0
 15 14  2  0  0  0  0
 16 11  2  0  0  0  0
 16 15  1  0  0  0  0
 17 11  1  0  0  0  0
 19 15  1  0  0  0  0
 20 24  1  0  0  0  0
 20 21  2  0  0  0  0
 22 20  1  0  0  0  0
 23 22  1  0  0  0  0
 24 31  1  0  0  0  0
 25 24  2  0  0  0  0
 26 25  1  0  0  0  0
 27 25  1  0  0  0  0
 27 29  2  0  0  0  0
 28 27  1  0  0  0  0
 29 30  1  0  0  0  0
 30 31  2  0  0  0  0
M  END
>  <minimizedAffinity>
-4.95230627

$$$$

 OpenBabel03242517013D

 31 33  0  0  0  0  0  0  0  0999 V2000
   37.6810   30.0910   38.8010 C   0  0  0  0  0  0  0  0  0  0  0  0
   37.4200   31.2330   38.0430 C   0  0  0  0  0  0  0  0  0  0  0  0
   37.3210   32.4480   38.6970 C   0  0  0  0  0  0  0  0  0  0  0  0
   37.4790   32.5120   40.0560 C   0  0  0  0  0  0  0  0  0  0  0  0
   37.7350   31.4190   40.8270 C   0  0  0  0  0  0  0  0  0  0  0  0
   37.8310   30.1960   40.1430 C   0  0  0  0  0  0  0  0  0  0  0  0
   37.2970   31.1760   36.9720 H   0  0  0  0  0  0  0  0  0  0  0  0
   37.1220   33.3670   38.1800 H   0  0  0  0  0  0  0  0  0  0  0  0
   37.4100   33.4440   40.6180 H   0  0  0  0  0  0  0  0  0  0  0  0
   37.8760   31.3580   41.9010 H   0  0  0  0  0  0  0  0  0  0  0  0
   38.8060   27.2570   36.5820 C   0  0  0  0  0  0  0  0  0  0  0  0
   38.8300   28.5000   37.2470 C   0  0  0  0  0  0  0  0  0  0  0  0
   37.7750   28.8390   38.0620 C   0  0  0  0  0  0  0  0  0  0  0  0
   36.7580   27.9450   38.1790 N   0  0  0  0  0  0  0  0  0  0  0  0
   36.7330   26.7560   37.5450 C   0  0  0  0  0  0  0  0  0  0  0  0
   37.7790   26.4090   36.7320 N   0  0  0  0  0  0  0  0  0  0  0  0
   39.6880   27.0910   35.9660 H   0  0  0  0  0  0  0  0  0  0  0  0
   39.6290   29.2260   37.1660 H   0  0  0  0  0  0  0  0  0  0  0  0
   35.9290   26.0530   37.6400 H   0  0  0  0  0  0  0  0  0  0  0  0
   37.3320   28.0530   41.5810 C   0  0  0  0  0  0  0  0  0  0  0  0
   36.1050   28.1490   41.8230 O   0  0  0  0  0  0  0  0  0  0  0  0
   38.0920   28.9800   40.8210 N   0  0  0  0  0  0  0  0  0  0  0  0
   39.1250   28.8650   40.6290 H   0  0  0  0  0  0  0  0  0  0  0  0
   38.1390   26.9200   42.0850 C   0  0  0  0  0  0  0  0  0  0  0  0
   39.0570   27.2010   43.0750 C   0  0  0  0  0  0  0  0  0  0  0  0
   39.1530   28.2200   43.4420 H   0  0  0  0  0  0  0  0  0  0  0  0
   39.9090   26.2810   43.6800 C   0  0  0  0  0  0  0  0  0  0  0  0
   40.6000   26.5920   44.4520 H   0  0  0  0  0  0  0  0  0  0  0  0
   39.8020   24.9810   43.2290 C   0  0  0  0  0  3  0  0  0  0  0  0
   38.8690   24.7190   42.2280 C   0  0  0  0  0  3  0  0  0  0  0  0
   38.0750   25.6550   41.6850 N   0  0  0  0  0  0  0  0  0  0  0  0
  1  6  1  0  0  0  0
  2  3  1  0  0  0  0
  2  1  2  0  0  0  0
  3  4  2  0  0  0  0
  4  9  1  0  0  0  0
  4  5  1  0  0  0  0
  5 10  1  0  0  0  0
  6 22  1  0  0  0  0
  6  5  2  0  0  0  0
  7  2  1  0  0  0  0
  8  3  1  0  0  0  0
 11 16  2  0  0  0  0
 11 12  1  0  0  0  0
 12 13  2  0  0  0  0
 13 14  1  0  0  0  0
 13  1  1  0  0  0  0
 15 19  1  0  0  0  0
 15 14  2  0  0  0  0
 16 15  1  0  0  0  0
 17 11  1  0  0  0  0
 18 12  1  0  0  0  0
 20 21  2  0  0  0  0
 20 24  1  0  0  0  0
 22 20  1  0  0  0  0
 23 22  1  0  0  0  0
 24 25  1  0  0  0  0
 25 26  1  0  0  0  0
 25 27  2  0  0  0  0
 27 28  1  0  0  0  0
 29 27  1  0  0  0  0
 30 29  2  0  0  0  0
 31 24  2  0  0  0  0
 31 30  1  0  0  0  0
M  END
>  <minimizedAffinity>
-4.95184755

$$$$
