
 OpenBabel03252508023D

 41 44  0  0  1  0  0  0  0  0999 V2000
   42.1070   33.2530   41.1880 C   0  0  0  0  0  0  0  0  0  0  0  0
   42.8160   34.4070   41.3420 C   0  0  0  0  0  0  0  0  0  0  0  0
   42.1250   35.6270   41.2520 C   0  0  0  0  0  0  0  0  0  0  0  0
   40.7770   35.7140   41.0190 C   0  0  0  0  0  0  0  0  0  0  0  0
   40.0690   34.5530   40.8670 C   0  0  0  0  0  0  0  0  0  0  0  0
   40.7310   33.3650   40.9520 C   0  0  0  0  0  0  0  0  0  0  0  0
   42.6110   36.5890   41.3520 H   0  0  0  0  0  0  0  0  0  0  0  0
   40.2560   36.6330   40.9520 H   0  0  0  0  0  0  0  0  0  0  0  0
   39.0090   34.5290   40.6820 H   0  0  0  0  0  0  0  0  0  0  0  0
   40.1670   32.4470   40.8290 H   0  0  0  0  0  0  0  0  0  0  0  0
   42.8030   31.7220   41.3340 S   0  0  0  0  0  0  0  0  0  0  0  0
   42.0300   30.9250   40.2570 O   0  0  0  0  0  0  0  0  0  0  0  0
   42.5050   31.0860   42.6520 O   0  0  0  0  0  0  0  0  0  0  0  0
   44.2450   31.1270   40.6930 C   0  0  0  0  0  0  0  0  0  0  0  0
   44.2980   31.1220   39.2730 C   0  0  0  0  0  0  0  0  0  0  0  0
   43.4390   31.4240   38.6450 H   0  0  0  0  0  0  0  0  0  0  0  0
   45.4000   30.7470   38.5480 C   0  0  0  0  0  0  0  0  0  0  0  0
   45.4160   30.7520   37.4690 H   0  0  0  0  0  0  0  0  0  0  0  0
   46.4820   30.3640   39.2770 C   0  0  0  0  0  3  0  0  0  0  0  0
   46.5140   30.3400   40.6410 C   0  0  0  0  0  3  0  0  0  0  0  0
   45.4010   30.7220   41.2550 N   0  0  0  0  0  0  0  0  0  0  0  0
   44.2570   34.4150   41.5790 C   0  0  0  0  0  0  0  0  0  0  0  0
   45.1450   34.3670   40.6550 O   0  0  0  0  0  0  0  0  0  0  0  0
   44.5970   34.4850   42.9700 C   0  0  0  0  0  0  0  0  0  0  0  0
   44.3080   35.7250   43.6170 C   0  0  0  0  0  0  0  0  0  0  0  0
   44.6190   35.8110   44.9690 C   0  0  0  0  0  0  0  0  0  0  0  0
   45.1690   34.7280   45.5780 N   0  0  0  0  0  0  0  0  0  0  0  0
   45.4270   33.5570   44.9120 C   0  0  0  0  0  0  0  0  0  0  0  0
   45.1380   33.4830   43.6600 N   0  0  0  0  0  0  0  0  0  0  0  0
   43.8810   36.6240   43.2200 H   0  0  0  0  0  0  0  0  0  0  0  0
   44.4430   36.7120   45.5700 H   0  0  0  0  0  0  0  0  0  0  0  0
   46.0160   32.4360   45.6630 C   0  0  1  0  0  0  0  0  0  0  0  0
   46.9670   32.7320   46.8010 C   0  0  0  0  0  0  0  0  0  0  0  0
   45.5510   32.3210   47.0710 C   0  0  1  0  0  0  0  0  0  0  0  0
   46.2370   31.5140   45.1280 H   0  0  0  0  0  0  0  0  0  0  0  0
   47.2950   33.7780   46.9170 H   0  0  0  0  0  0  0  0  0  0  0  0
   47.7230   31.9690   47.0690 H   0  0  0  0  0  0  0  0  0  0  0  0
   45.3660   31.3220   47.5410 H   0  0  0  0  0  0  0  0  0  0  0  0
   44.7790   33.3880   47.6730 N   0  0  0  0  0  0  0  0  0  0  0  0
   43.7980   33.1520   47.8420 H   0  0  0  0  0  0  0  0  0  0  0  0
   45.2670   33.9070   48.4090 H   0  0  0  0  0  0  0  0  0  0  0  0
  1 11  1  0  0  0  0
  1  2  1  0  0  0  0
  2 22  1  0  0  0  0
  3  2  2  0  0  0  0
  3  7  1  0  0  0  0
  4  3  1  0  0  0  0
  5  6  1  0  0  0  0
  5  4  2  0  0  0  0
  6  1  2  0  0  0  0
  8  4  1  0  0  0  0
  9  5  1  0  0  0  0
 10  6  1  0  0  0  0
 11 13  2  0  0  0  0
 12 11  2  0  0  0  0
 14 21  1  0  0  0  0
 14 11  1  0  0  0  0
 15 14  2  0  0  0  0
 16 15  1  0  0  0  0
 17 15  1  0  0  0  0
 17 19  2  0  0  0  0
 18 17  1  0  0  0  0
 19 20  1  0  0  0  0
 20 21  2  0  0  0  0
 22 24  1  0  0  0  0
 23 22  2  0  0  0  0
 24 25  2  0  0  0  0
 24 29  1  0  0  0  0
 25 26  1  0  0  0  0
 26 31  1  0  0  0  0
 26 27  2  0  0  0  0
 28 27  1  0  0  0  0
 28 32  1  0  0  0  0
 29 28  2  0  0  0  0
 30 25  1  0  0  0  0
 32 35  1  6  0  0  0
 32 33  1  0  0  0  0
 32 34  1  0  0  0  0
 33 36  1  0  0  0  0
 33 37  1  0  0  0  0
 33 34  1  0  0  0  0
 34 38  1  1  0  0  0
 34 39  1  0  0  0  0
 39 40  1  0  0  0  0
 39 41  1  0  0  0  0
M  END
>  <minimizedAffinity>
-5.74208879

>  <minimizedRMSD>
0.909969926

$$$$
