
 OpenBabel03252508053D

 41 44  0  0  1  0  0  0  0  0999 V2000
   36.6750   29.6830   38.5120 C   0  0  0  0  0  0  0  0  0  0  0  0
   35.8620   29.4810   39.5870 C   0  0  0  0  0  0  0  0  0  0  0  0
   34.5920   28.9230   39.3640 C   0  0  0  0  0  0  0  0  0  0  0  0
   34.1330   28.5720   38.1210 C   0  0  0  0  0  0  0  0  0  0  0  0
   34.9530   28.7750   37.0450 C   0  0  0  0  0  0  0  0  0  0  0  0
   36.1860   29.3170   37.2530 C   0  0  0  0  0  0  0  0  0  0  0  0
   33.8810   28.7380   40.1570 H   0  0  0  0  0  0  0  0  0  0  0  0
   33.1770   28.1510   37.9520 H   0  0  0  0  0  0  0  0  0  0  0  0
   34.6730   28.5280   36.0350 H   0  0  0  0  0  0  0  0  0  0  0  0
   36.8330   29.4780   36.3970 H   0  0  0  0  0  0  0  0  0  0  0  0
   38.2450   30.2880   38.6500 S   0  0  0  0  0  0  0  0  0  0  0  0
   38.4540   30.9320   37.2600 O   0  0  0  0  0  0  0  0  0  0  0  0
   39.2620   29.2020   38.7900 O   0  0  0  0  0  0  0  0  0  0  0  0
   38.7930   31.7170   39.3590 C   0  0  0  0  0  0  0  0  0  0  0  0
   37.8440   32.7760   39.3510 C   0  0  0  0  0  0  0  0  0  0  0  0
   36.8550   32.6840   38.8660 H   0  0  0  0  0  0  0  0  0  0  0  0
   38.0550   33.9990   39.9360 C   0  0  0  0  0  0  0  0  0  0  0  0
   37.3190   34.7880   39.9180 H   0  0  0  0  0  0  0  0  0  0  0  0
   39.2600   34.1600   40.5450 C   0  0  0  0  0  3  0  0  0  0  0  0
   40.2240   33.1960   40.5970 C   0  0  0  0  0  3  0  0  0  0  0  0
   39.9280   32.0460   40.0050 N   0  0  0  0  0  0  0  0  0  0  0  0
   36.2600   29.8370   40.9480 C   0  0  0  0  0  0  0  0  0  0  0  0
   36.0040   30.9630   41.5070 O   0  0  0  0  0  0  0  0  0  0  0  0
   36.9740   28.7900   41.6160 C   0  0  0  0  0  0  0  0  0  0  0  0
   38.1400   29.1950   42.3360 C   0  0  0  0  0  0  0  0  0  0  0  0
   38.8420   28.1970   43.0010 C   0  0  0  0  0  0  0  0  0  0  0  0
   38.3830   26.9220   42.9250 N   0  0  0  0  0  0  0  0  0  0  0  0
   37.2560   26.5820   42.2210 C   0  0  0  0  0  0  0  0  0  0  0  0
   36.6100   27.5090   41.6060 N   0  0  0  0  0  0  0  0  0  0  0  0
   38.5740   30.1690   42.4480 H   0  0  0  0  0  0  0  0  0  0  0  0
   39.7510   28.3890   43.5850 H   0  0  0  0  0  0  0  0  0  0  0  0
   36.8330   25.1710   42.2070 C   0  0  1  0  0  0  0  0  0  0  0  0
   36.7120   24.4530   40.8810 C   0  0  0  0  0  0  0  0  0  0  0  0
   37.8880   24.2120   41.7800 C   0  0  1  0  0  0  0  0  0  0  0  0
   36.1230   24.8360   42.9600 H   0  0  0  0  0  0  0  0  0  0  0  0
   36.7990   25.0680   39.9720 H   0  0  0  0  0  0  0  0  0  0  0  0
   36.0120   23.5980   40.8060 H   0  0  0  0  0  0  0  0  0  0  0  0
   37.9920   23.2100   42.2660 H   0  0  0  0  0  0  0  0  0  0  0  0
   39.1230   24.6990   41.2020 N   0  0  0  0  0  0  0  0  0  0  0  0
   39.9430   24.5790   41.8020 H   0  0  0  0  0  0  0  0  0  0  0  0
   39.2410   24.4900   40.2060 H   0  0  0  0  0  0  0  0  0  0  0  0
  1 11  1  0  0  0  0
  1  2  1  0  0  0  0
  2 22  1  0  0  0  0
  3  2  2  0  0  0  0
  3  7  1  0  0  0  0
  4  3  1  0  0  0  0
  5  6  1  0  0  0  0
  5  4  2  0  0  0  0
  6  1  2  0  0  0  0
  8  4  1  0  0  0  0
  9  5  1  0  0  0  0
 10  6  1  0  0  0  0
 11 13  2  0  0  0  0
 11 14  1  0  0  0  0
 12 11  2  0  0  0  0
 14 21  1  0  0  0  0
 15 14  2  0  0  0  0
 15 17  1  0  0  0  0
 16 15  1  0  0  0  0
 17 19  2  0  0  0  0
 18 17  1  0  0  0  0
 19 20  1  0  0  0  0
 21 20  2  0  0  0  0
 22 23  2  0  0  0  0
 22 24  1  0  0  0  0
 24 25  1  0  0  0  0
 25 30  1  0  0  0  0
 25 26  2  0  0  0  0
 26 31  1  0  0  0  0
 27 26  1  0  0  0  0
 28 27  2  0  0  0  0
 29 24  2  0  0  0  0
 29 28  1  0  0  0  0
 32 28  1  0  0  0  0
 32 35  1  1  0  0  0
 33 34  1  0  0  0  0
 33 32  1  0  0  0  0
 34 32  1  0  0  0  0
 34 38  1  1  0  0  0
 36 33  1  0  0  0  0
 37 33  1  0  0  0  0
 39 34  1  0  0  0  0
 39 40  1  0  0  0  0
 41 39  1  0  0  0  0
M  END
>  <minimizedAffinity>
-6.35547543

$$$$

 OpenBabel03252508053D

 41 44  0  0  1  0  0  0  0  0999 V2000
   36.4310   27.1190   39.7970 C   0  0  0  0  0  0  0  0  0  0  0  0
   36.0810   28.2440   40.4820 C   0  0  0  0  0  0  0  0  0  0  0  0
   35.1410   29.1110   39.8990 C   0  0  0  0  0  0  0  0  0  0  0  0
   34.5600   28.8800   38.6800 C   0  0  0  0  0  0  0  0  0  0  0  0
   34.9130   27.7480   37.9960 C   0  0  0  0  0  0  0  0  0  0  0  0
   35.8240   26.9030   38.5540 C   0  0  0  0  0  0  0  0  0  0  0  0
   34.8150   30.0290   40.3680 H   0  0  0  0  0  0  0  0  0  0  0  0
   33.8510   29.5310   38.2400 H   0  0  0  0  0  0  0  0  0  0  0  0
   34.5050   27.4890   37.0340 H   0  0  0  0  0  0  0  0  0  0  0  0
   36.1030   26.0070   38.0090 H   0  0  0  0  0  0  0  0  0  0  0  0
   37.5010   25.9660   40.4120 S   0  0  0  0  0  0  0  0  0  0  0  0
   38.3520   25.6360   39.1640 O   0  0  0  0  0  0  0  0  0  0  0  0
   36.8070   24.7070   40.8170 O   0  0  0  0  0  0  0  0  0  0  0  0
   38.9260   26.1760   41.2890 C   0  0  0  0  0  0  0  0  0  0  0  0
   38.9460   25.5060   42.5420 C   0  0  0  0  0  0  0  0  0  0  0  0
   38.0760   24.9460   42.9320 H   0  0  0  0  0  0  0  0  0  0  0  0
   40.0310   25.4840   43.3820 C   0  0  0  0  0  0  0  0  0  0  0  0
   40.0230   24.9670   44.3290 H   0  0  0  0  0  0  0  0  0  0  0  0
   41.1270   26.1600   42.9460 C   0  0  0  0  0  3  0  0  0  0  0  0
   41.1890   26.8280   41.7580 C   0  0  0  0  0  3  0  0  0  0  0  0
   40.0920   26.7920   41.0130 N   0  0  0  0  0  0  0  0  0  0  0  0
   36.6580   28.5820   41.7810 C   0  0  0  0  0  0  0  0  0  0  0  0
   36.3230   28.0310   42.8900 O   0  0  0  0  0  0  0  0  0  0  0  0
   37.6580   29.6060   41.7020 C   0  0  0  0  0  0  0  0  0  0  0  0
   38.6490   29.5860   42.7310 C   0  0  0  0  0  0  0  0  0  0  0  0
   39.6360   30.5630   42.6670 C   0  0  0  0  0  0  0  0  0  0  0  0
   39.5940   31.4600   41.6480 N   0  0  0  0  0  0  0  0  0  0  0  0
   38.6200   31.4370   40.6820 C   0  0  0  0  0  0  0  0  0  0  0  0
   37.7090   30.5310   40.7450 N   0  0  0  0  0  0  0  0  0  0  0  0
   38.7580   28.9240   43.5670 H   0  0  0  0  0  0  0  0  0  0  0  0
   40.4470   30.6470   43.4010 H   0  0  0  0  0  0  0  0  0  0  0  0
   38.6670   32.4480   39.6120 C   0  0  1  0  0  0  0  0  0  0  0  0
   37.5250   33.4300   39.4770 C   0  0  0  0  0  0  0  0  0  0  0  0
   38.8290   33.8480   40.0880 C   0  0  1  0  0  0  0  0  0  0  0  0
   39.1360   32.1790   38.6670 H   0  0  0  0  0  0  0  0  0  0  0  0
   36.6330   33.2440   40.0960 H   0  0  0  0  0  0  0  0  0  0  0  0
   37.3240   33.8730   38.4820 H   0  0  0  0  0  0  0  0  0  0  0  0
   39.4680   34.5790   39.5320 H   0  0  0  0  0  0  0  0  0  0  0  0
   38.6960   34.1580   41.4960 N   0  0  0  0  0  0  0  0  0  0  0  0
   39.5750   34.4170   41.9530 H   0  0  0  0  0  0  0  0  0  0  0  0
   37.8660   34.7080   41.7370 H   0  0  0  0  0  0  0  0  0  0  0  0
  1 11  1  0  0  0  0
  1  2  1  0  0  0  0
  2 22  1  0  0  0  0
  3  7  1  0  0  0  0
  3  2  2  0  0  0  0
  4  3  1  0  0  0  0
  5  6  1  0  0  0  0
  5  4  2  0  0  0  0
  6  1  2  0  0  0  0
  8  4  1  0  0  0  0
  9  5  1  0  0  0  0
 10  6  1  0  0  0  0
 11 13  2  0  0  0  0
 11 14  1  0  0  0  0
 12 11  2  0  0  0  0
 14 15  1  0  0  0  0
 15 16  1  0  0  0  0
 15 17  2  0  0  0  0
 17 18  1  0  0  0  0
 19 17  1  0  0  0  0
 20 19  2  0  0  0  0
 21 14  2  0  0  0  0
 21 20  1  0  0  0  0
 22 23  2  0  0  0  0
 24 22  1  0  0  0  0
 24 25  1  0  0  0  0
 25 30  1  0  0  0  0
 26 25  2  0  0  0  0
 26 31  1  0  0  0  0
 27 26  1  0  0  0  0
 28 29  1  0  0  0  0
 28 27  2  0  0  0  0
 29 24  2  0  0  0  0
 32 35  1  6  0  0  0
 32 34  1  0  0  0  0
 32 28  1  0  0  0  0
 33 32  1  0  0  0  0
 33 34  1  0  0  0  0
 33 36  1  0  0  0  0
 34 38  1  6  0  0  0
 34 39  1  0  0  0  0
 37 33  1  0  0  0  0
 39 41  1  0  0  0  0
 39 40  1  0  0  0  0
M  END
>  <minimizedAffinity>
-6.30804825

$$$$

 OpenBabel03252508053D

 41 44  0  0  1  0  0  0  0  0999 V2000
   36.9940   28.8210   40.9520 C   0  0  0  0  0  0  0  0  0  0  0  0
   37.7060   29.3510   39.9180 C   0  0  0  0  0  0  0  0  0  0  0  0
   37.0070   29.7500   38.7660 C   0  0  0  0  0  0  0  0  0  0  0  0
   35.6480   29.6340   38.6330 C   0  0  0  0  0  0  0  0  0  0  0  0
   34.9370   29.1020   39.6740 C   0  0  0  0  0  0  0  0  0  0  0  0
   35.6070   28.7120   40.7950 C   0  0  0  0  0  0  0  0  0  0  0  0
   37.4940   30.1710   37.8960 H   0  0  0  0  0  0  0  0  0  0  0  0
   35.1200   29.9350   37.7670 H   0  0  0  0  0  0  0  0  0  0  0  0
   33.8680   28.9760   39.6550 H   0  0  0  0  0  0  0  0  0  0  0  0
   35.0410   28.2900   41.6180 H   0  0  0  0  0  0  0  0  0  0  0  0
   37.7040   28.3590   42.4120 S   0  0  0  0  0  0  0  0  0  0  0  0
   36.4860   27.8060   43.1880 O   0  0  0  0  0  0  0  0  0  0  0  0
   38.2250   29.5270   43.1850 O   0  0  0  0  0  0  0  0  0  0  0  0
   38.5510   26.9550   42.8040 C   0  0  0  0  0  0  0  0  0  0  0  0
   38.0070   25.7670   42.2450 C   0  0  0  0  0  0  0  0  0  0  0  0
   37.0720   25.7610   41.6540 H   0  0  0  0  0  0  0  0  0  0  0  0
   38.5770   24.5250   42.3770 C   0  0  0  0  0  0  0  0  0  0  0  0
   38.1460   23.6370   41.9420 H   0  0  0  0  0  0  0  0  0  0  0  0
   39.7300   24.4810   43.0970 C   0  0  0  0  0  3  0  0  0  0  0  0
   40.3170   25.5730   43.6660 C   0  0  0  0  0  3  0  0  0  0  0  0
   39.6930   26.7300   43.4830 N   0  0  0  0  0  0  0  0  0  0  0  0
   39.1590   29.5010   39.9620 C   0  0  0  0  0  0  0  0  0  0  0  0
   39.9840   28.5340   40.1350 O   0  0  0  0  0  0  0  0  0  0  0  0
   39.5890   30.8570   39.7890 C   0  0  0  0  0  0  0  0  0  0  0  0
   39.2500   31.7550   40.8470 C   0  0  0  0  0  0  0  0  0  0  0  0
   39.6670   33.0740   40.7060 C   0  0  0  0  0  0  0  0  0  0  0  0
   40.3580   33.4180   39.5880 N   0  0  0  0  0  0  0  0  0  0  0  0
   40.6600   32.5170   38.5990 C   0  0  0  0  0  0  0  0  0  0  0  0
   40.2720   31.2980   38.7340 N   0  0  0  0  0  0  0  0  0  0  0  0
   38.7110   31.5740   41.7560 H   0  0  0  0  0  0  0  0  0  0  0  0
   39.4650   33.8510   41.4530 H   0  0  0  0  0  0  0  0  0  0  0  0
   41.4230   32.9870   37.4300 C   0  0  1  0  0  0  0  0  0  0  0  0
   42.8010   33.5760   37.6390 C   0  0  0  0  0  0  0  0  0  0  0  0
   42.6330   32.1810   37.1150 C   0  0  1  0  0  0  0  0  0  0  0  0
   40.8760   33.4210   36.5950 H   0  0  0  0  0  0  0  0  0  0  0  0
   43.1070   33.7670   38.6790 H   0  0  0  0  0  0  0  0  0  0  0  0
   43.1830   34.3000   36.8930 H   0  0  0  0  0  0  0  0  0  0  0  0
   42.9300   31.9680   36.0580 H   0  0  0  0  0  0  0  0  0  0  0  0
   43.1100   31.1860   38.0540 N   0  0  0  0  0  0  0  0  0  0  0  0
   42.9820   30.2200   37.7420 H   0  0  0  0  0  0  0  0  0  0  0  0
   44.0000   31.4160   38.5060 H   0  0  0  0  0  0  0  0  0  0  0  0
  1 11  1  0  0  0  0
  2 22  1  0  0  0  0
  2  1  2  0  0  0  0
  3  2  1  0  0  0  0
  4  3  2  0  0  0  0
  4  5  1  0  0  0  0
  5  6  2  0  0  0  0
  6  1  1  0  0  0  0
  6 10  1  0  0  0  0
  7  3  1  0  0  0  0
  8  4  1  0  0  0  0
  9  5  1  0  0  0  0
 11 14  1  0  0  0  0
 11 13  2  0  0  0  0
 11 12  2  0  0  0  0
 14 21  1  0  0  0  0
 15 17  1  0  0  0  0
 15 14  2  0  0  0  0
 16 15  1  0  0  0  0
 17 19  2  0  0  0  0
 18 17  1  0  0  0  0
 19 20  1  0  0  0  0
 21 20  2  0  0  0  0
 22 23  2  0  0  0  0
 24 22  1  0  0  0  0
 24 25  1  0  0  0  0
 25 30  1  0  0  0  0
 26 25  2  0  0  0  0
 26 31  1  0  0  0  0
 27 26  1  0  0  0  0
 28 29  1  0  0  0  0
 28 27  2  0  0  0  0
 29 24  2  0  0  0  0
 32 35  1  6  0  0  0
 32 33  1  0  0  0  0
 32 28  1  0  0  0  0
 33 36  1  0  0  0  0
 34 38  1  6  0  0  0
 34 32  1  0  0  0  0
 34 33  1  0  0  0  0
 34 39  1  0  0  0  0
 37 33  1  0  0  0  0
 39 41  1  0  0  0  0
 40 39  1  0  0  0  0
M  END
>  <minimizedAffinity>
-5.97613239

$$$$

 OpenBabel03252508053D

 41 44  0  0  1  0  0  0  0  0999 V2000
   37.3210   27.9430   40.8960 C   0  0  0  0  0  0  0  0  0  0  0  0
   37.3100   29.0450   41.6970 C   0  0  0  0  0  0  0  0  0  0  0  0
   37.3130   28.8550   43.0890 C   0  0  0  0  0  0  0  0  0  0  0  0
   37.3270   27.6180   43.6790 C   0  0  0  0  0  0  0  0  0  0  0  0
   37.3380   26.5130   42.8710 C   0  0  0  0  0  0  0  0  0  0  0  0
   37.3350   26.6890   41.5200 C   0  0  0  0  0  0  0  0  0  0  0  0
   37.2960   29.6730   43.7970 H   0  0  0  0  0  0  0  0  0  0  0  0
   37.3300   27.4730   44.7270 H   0  0  0  0  0  0  0  0  0  0  0  0
   37.3510   25.5060   43.2500 H   0  0  0  0  0  0  0  0  0  0  0  0
   37.3430   25.8120   40.8820 H   0  0  0  0  0  0  0  0  0  0  0  0
   37.3800   28.0330   39.2110 S   0  0  0  0  0  0  0  0  0  0  0  0
   37.2580   26.5430   38.8160 O   0  0  0  0  0  0  0  0  0  0  0  0
   38.7040   28.5140   38.7150 O   0  0  0  0  0  0  0  0  0  0  0  0
   36.1580   28.3930   38.1060 C   0  0  0  0  0  0  0  0  0  0  0  0
   34.8620   28.4950   38.6790 C   0  0  0  0  0  0  0  0  0  0  0  0
   34.6660   28.2940   39.7490 H   0  0  0  0  0  0  0  0  0  0  0  0
   33.7370   28.8490   37.9750 C   0  0  0  0  0  0  0  0  0  0  0  0
   32.7630   28.9210   38.4320 H   0  0  0  0  0  0  0  0  0  0  0  0
   33.9280   29.1050   36.6530 C   0  0  0  0  0  3  0  0  0  0  0  0
   35.1380   29.0300   36.0270 C   0  0  0  0  0  3  0  0  0  0  0  0
   36.1660   28.6820   36.7900 N   0  0  0  0  0  0  0  0  0  0  0  0
   37.2810   30.4040   41.1600 C   0  0  0  0  0  0  0  0  0  0  0  0
   36.2110   31.0330   40.8350 O   0  0  0  0  0  0  0  0  0  0  0  0
   38.5850   30.9830   41.0270 C   0  0  0  0  0  0  0  0  0  0  0  0
   39.4670   30.7840   42.1330 C   0  0  0  0  0  0  0  0  0  0  0  0
   40.7410   31.3290   42.0220 C   0  0  0  0  0  0  0  0  0  0  0  0
   41.0600   32.0030   40.8870 N   0  0  0  0  0  0  0  0  0  0  0  0
   40.1770   32.1660   39.8510 C   0  0  0  0  0  0  0  0  0  0  0  0
   38.9990   31.6620   39.9590 N   0  0  0  0  0  0  0  0  0  0  0  0
   39.3020   30.2730   43.0600 H   0  0  0  0  0  0  0  0  0  0  0  0
   41.5030   31.2400   42.8060 H   0  0  0  0  0  0  0  0  0  0  0  0
   40.6220   32.9070   38.6570 C   0  0  1  0  0  0  0  0  0  0  0  0
   41.8390   32.4210   37.9020 C   0  0  0  0  0  0  0  0  0  0  0  0
   40.4580   32.1700   37.3750 C   0  0  1  0  0  0  0  0  0  0  0  0
   40.4900   33.9870   38.6390 H   0  0  0  0  0  0  0  0  0  0  0  0
   42.4300   31.6190   38.3730 H   0  0  0  0  0  0  0  0  0  0  0  0
   42.4250   33.1560   37.3170 H   0  0  0  0  0  0  0  0  0  0  0  0
   40.1400   32.6970   36.4400 H   0  0  0  0  0  0  0  0  0  0  0  0
   40.1200   30.7620   37.3820 N   0  0  0  0  0  0  0  0  0  0  0  0
   39.1710   30.5570   37.0570 H   0  0  0  0  0  0  0  0  0  0  0  0
   40.8670   30.1410   37.0580 H   0  0  0  0  0  0  0  0  0  0  0  0
  1  6  2  0  0  0  0
  1  2  1  0  0  0  0
  2  3  2  0  0  0  0
  3  4  1  0  0  0  0
  3  7  1  0  0  0  0
  4  8  1  0  0  0  0
  5  9  1  0  0  0  0
  5  4  2  0  0  0  0
  6  5  1  0  0  0  0
 10  6  1  0  0  0  0
 11  1  1  0  0  0  0
 12 11  2  0  0  0  0
 13 11  2  0  0  0  0
 14 15  1  0  0  0  0
 14 11  1  0  0  0  0
 15 16  1  0  0  0  0
 17 18  1  0  0  0  0
 17 15  2  0  0  0  0
 19 17  1  0  0  0  0
 20 19  2  0  0  0  0
 20 21  1  0  0  0  0
 21 14  2  0  0  0  0
 22  2  1  0  0  0  0
 23 22  2  0  0  0  0
 24 22  1  0  0  0  0
 24 25  1  0  0  0  0
 25 30  1  0  0  0  0
 26 25  2  0  0  0  0
 26 31  1  0  0  0  0
 27 26  1  0  0  0  0
 28 29  1  0  0  0  0
 28 27  2  0  0  0  0
 29 24  2  0  0  0  0
 32 35  1  6  0  0  0
 32 28  1  0  0  0  0
 33 36  1  0  0  0  0
 33 32  1  0  0  0  0
 34 38  1  6  0  0  0
 34 39  1  0  0  0  0
 34 33  1  0  0  0  0
 34 32  1  0  0  0  0
 37 33  1  0  0  0  0
 40 39  1  0  0  0  0
 41 39  1  0  0  0  0
M  END
>  <minimizedAffinity>
-5.84652233

$$$$

 OpenBabel03252508053D

 41 44  0  0  1  0  0  0  0  0999 V2000
   37.3760   26.4750   41.4370 C   0  0  0  0  0  0  0  0  0  0  0  0
   36.8480   26.8670   40.2430 C   0  0  0  0  0  0  0  0  0  0  0  0
   36.3180   25.8800   39.3950 C   0  0  0  0  0  0  0  0  0  0  0  0
   36.3060   24.5460   39.7090 C   0  0  0  0  0  0  0  0  0  0  0  0
   36.8360   24.1570   40.9090 C   0  0  0  0  0  0  0  0  0  0  0  0
   37.3520   25.1080   41.7380 C   0  0  0  0  0  0  0  0  0  0  0  0
   35.8890   26.1010   38.4270 H   0  0  0  0  0  0  0  0  0  0  0  0
   35.9070   23.8020   39.0720 H   0  0  0  0  0  0  0  0  0  0  0  0
   36.8670   23.1320   41.2360 H   0  0  0  0  0  0  0  0  0  0  0  0
   37.7730   24.7960   42.6880 H   0  0  0  0  0  0  0  0  0  0  0  0
   37.9870   27.5660   42.5720 S   0  0  0  0  0  0  0  0  0  0  0  0
   38.8310   26.6350   43.4740 O   0  0  0  0  0  0  0  0  0  0  0  0
   36.9140   28.1550   43.4280 O   0  0  0  0  0  0  0  0  0  0  0  0
   39.3090   28.6070   42.4640 C   0  0  0  0  0  0  0  0  0  0  0  0
   38.9900   29.9790   42.6490 C   0  0  0  0  0  0  0  0  0  0  0  0
   37.9530   30.3360   42.7890 H   0  0  0  0  0  0  0  0  0  0  0  0
   39.9220   30.9870   42.6720 C   0  0  0  0  0  0  0  0  0  0  0  0
   39.6550   32.0230   42.8150 H   0  0  0  0  0  0  0  0  0  0  0  0
   41.2130   30.5980   42.5020 C   0  0  0  0  0  3  0  0  0  0  0  0
   41.6030   29.3030   42.3190 C   0  0  0  0  0  3  0  0  0  0  0  0
   40.6320   28.4000   42.3130 N   0  0  0  0  0  0  0  0  0  0  0  0
   36.8290   28.2640   39.8160 C   0  0  0  0  0  0  0  0  0  0  0  0
   35.9190   29.1090   40.1350 O   0  0  0  0  0  0  0  0  0  0  0  0
   37.9480   28.6130   38.9900 C   0  0  0  0  0  0  0  0  0  0  0  0
   38.1270   27.8160   37.8180 C   0  0  0  0  0  0  0  0  0  0  0  0
   39.1990   28.1440   36.9970 C   0  0  0  0  0  0  0  0  0  0  0  0
   39.9950   29.1840   37.3560 N   0  0  0  0  0  0  0  0  0  0  0  0
   39.7810   29.9220   38.4920 C   0  0  0  0  0  0  0  0  0  0  0  0
   38.7880   29.6140   39.2500 N   0  0  0  0  0  0  0  0  0  0  0  0
   37.5550   26.9830   37.4610 H   0  0  0  0  0  0  0  0  0  0  0  0
   39.4350   27.6030   36.0720 H   0  0  0  0  0  0  0  0  0  0  0  0
   40.6950   31.0380   38.7890 C   0  0  1  0  0  0  0  0  0  0  0  0
   41.7210   31.4430   37.7540 C   0  0  0  0  0  0  0  0  0  0  0  0
   40.4770   32.2550   37.9610 C   0  0  1  0  0  0  0  0  0  0  0  0
   41.0210   31.1790   39.8180 H   0  0  0  0  0  0  0  0  0  0  0  0
   41.8380   30.7800   36.8830 H   0  0  0  0  0  0  0  0  0  0  0  0
   42.6510   31.9370   38.0990 H   0  0  0  0  0  0  0  0  0  0  0  0
   40.5750   33.2790   38.3990 H   0  0  0  0  0  0  0  0  0  0  0  0
   39.5980   32.2050   36.8120 N   0  0  0  0  0  0  0  0  0  0  0  0
   38.7230   32.7230   36.9300 H   0  0  0  0  0  0  0  0  0  0  0  0
   40.0710   32.2900   35.9070 H   0  0  0  0  0  0  0  0  0  0  0  0
  1  6  1  0  0  0  0
  1 11  1  0  0  0  0
  2  1  2  0  0  0  0
  3  4  2  0  0  0  0
  3  2  1  0  0  0  0
  4  5  1  0  0  0  0
  5  9  1  0  0  0  0
  5  6  2  0  0  0  0
  6 10  1  0  0  0  0
  7  3  1  0  0  0  0
  8  4  1  0  0  0  0
 11 13  2  0  0  0  0
 11 12  2  0  0  0  0
 14 11  1  0  0  0  0
 14 15  1  0  0  0  0
 15 17  2  0  0  0  0
 15 16  1  0  0  0  0
 17 18  1  0  0  0  0
 19 17  1  0  0  0  0
 20 19  2  0  0  0  0
 21 20  1  0  0  0  0
 21 14  2  0  0  0  0
 22 23  2  0  0  0  0
 22  2  1  0  0  0  0
 24 29  1  0  0  0  0
 24 22  1  0  0  0  0
 25 24  2  0  0  0  0
 26 27  2  0  0  0  0
 26 25  1  0  0  0  0
 27 28  1  0  0  0  0
 28 32  1  0  0  0  0
 28 29  2  0  0  0  0
 30 25  1  0  0  0  0
 31 26  1  0  0  0  0
 32 35  1  1  0  0  0
 33 34  1  0  0  0  0
 33 37  1  0  0  0  0
 33 32  1  0  0  0  0
 34 38  1  1  0  0  0
 34 32  1  0  0  0  0
 36 33  1  0  0  0  0
 39 40  1  0  0  0  0
 39 34  1  0  0  0  0
 41 39  1  0  0  0  0
M  END
>  <minimizedAffinity>
-5.7881937

$$$$

 OpenBabel03252508053D

 41 44  0  0  1  0  0  0  0  0999 V2000
   36.4670   29.8060   38.3050 C   0  0  0  0  0  0  0  0  0  0  0  0
   35.7500   29.5290   39.4310 C   0  0  0  0  0  0  0  0  0  0  0  0
   34.4810   28.9430   39.2820 C   0  0  0  0  0  0  0  0  0  0  0  0
   33.9320   28.6370   38.0640 C   0  0  0  0  0  0  0  0  0  0  0  0
   34.6560   28.9150   36.9370 C   0  0  0  0  0  0  0  0  0  0  0  0
   35.8870   29.4840   37.0720 C   0  0  0  0  0  0  0  0  0  0  0  0
   33.8420   28.6990   40.1200 H   0  0  0  0  0  0  0  0  0  0  0  0
   32.9770   28.1950   37.9510 H   0  0  0  0  0  0  0  0  0  0  0  0
   34.3020   28.7080   35.9420 H   0  0  0  0  0  0  0  0  0  0  0  0
   36.4580   29.7050   36.1760 H   0  0  0  0  0  0  0  0  0  0  0  0
   38.0260   30.4510   38.3470 S   0  0  0  0  0  0  0  0  0  0  0  0
   38.0680   31.2490   37.0220 O   0  0  0  0  0  0  0  0  0  0  0  0
   39.0800   29.3960   38.2590 O   0  0  0  0  0  0  0  0  0  0  0  0
   38.6080   31.8160   39.1490 C   0  0  0  0  0  0  0  0  0  0  0  0
   37.6850   32.8940   39.2150 C   0  0  0  0  0  0  0  0  0  0  0  0
   36.6940   32.8600   38.7270 H   0  0  0  0  0  0  0  0  0  0  0  0
   37.9260   34.0700   39.8820 C   0  0  0  0  0  0  0  0  0  0  0  0
   37.2090   34.8750   39.9190 H   0  0  0  0  0  0  0  0  0  0  0  0
   39.1350   34.1600   40.4970 C   0  0  0  0  0  3  0  0  0  0  0  0
   40.0760   33.1720   40.4820 C   0  0  0  0  0  3  0  0  0  0  0  0
   39.7520   32.0730   39.8130 N   0  0  0  0  0  0  0  0  0  0  0  0
   36.2470   29.8320   40.7710 C   0  0  0  0  0  0  0  0  0  0  0  0
   35.9580   30.8940   41.4290 O   0  0  0  0  0  0  0  0  0  0  0  0
   37.1040   28.8110   41.2960 C   0  0  0  0  0  0  0  0  0  0  0  0
   36.6070   27.4750   41.2030 C   0  0  0  0  0  0  0  0  0  0  0  0
   37.4280   26.4670   41.6960 C   0  0  0  0  0  0  0  0  0  0  0  0
   38.6290   26.8120   42.2260 N   0  0  0  0  0  0  0  0  0  0  0  0
   39.0630   28.1110   42.2920 C   0  0  0  0  0  0  0  0  0  0  0  0
   38.3000   29.0410   41.8350 N   0  0  0  0  0  0  0  0  0  0  0  0
   35.6790   27.1140   40.8060 H   0  0  0  0  0  0  0  0  0  0  0  0
   37.1520   25.4050   41.6790 H   0  0  0  0  0  0  0  0  0  0  0  0
   40.3880   28.3820   42.8770 C   0  0  1  0  0  0  0  0  0  0  0  0
   41.6070   27.7220   42.2730 C   0  0  0  0  0  0  0  0  0  0  0  0
   41.3030   29.1650   42.0040 C   0  0  1  0  0  0  0  0  0  0  0  0
   40.4560   28.5420   43.9510 H   0  0  0  0  0  0  0  0  0  0  0  0
   41.4280   26.9440   41.5130 H   0  0  0  0  0  0  0  0  0  0  0  0
   42.4910   27.5550   42.9180 H   0  0  0  0  0  0  0  0  0  0  0  0
   41.9860   29.9430   42.4290 H   0  0  0  0  0  0  0  0  0  0  0  0
   40.9610   29.4000   40.6160 N   0  0  0  0  0  0  0  0  0  0  0  0
   40.7160   30.3710   40.4030 H   0  0  0  0  0  0  0  0  0  0  0  0
   41.5550   28.9100   39.9400 H   0  0  0  0  0  0  0  0  0  0  0  0
  1 11  1  0  0  0  0
  1  2  1  0  0  0  0
  2 22  1  0  0  0  0
  3  2  2  0  0  0  0
  3  7  1  0  0  0  0
  4  3  1  0  0  0  0
  5  6  1  0  0  0  0
  5  4  2  0  0  0  0
  6  1  2  0  0  0  0
  8  4  1  0  0  0  0
  9  5  1  0  0  0  0
 10  6  1  0  0  0  0
 11 14  1  0  0  0  0
 12 11  2  0  0  0  0
 13 11  2  0  0  0  0
 14 15  2  0  0  0  0
 14 21  1  0  0  0  0
 15 17  1  0  0  0  0
 16 15  1  0  0  0  0
 17 18  1  0  0  0  0
 17 19  2  0  0  0  0
 20 19  1  0  0  0  0
 21 20  2  0  0  0  0
 22 24  1  0  0  0  0
 22 23  2  0  0  0  0
 24 29  1  0  0  0  0
 25 24  2  0  0  0  0
 25 26  1  0  0  0  0
 26 27  2  0  0  0  0
 27 28  1  0  0  0  0
 28 32  1  0  0  0  0
 29 28  2  0  0  0  0
 30 25  1  0  0  0  0
 31 26  1  0  0  0  0
 32 35  1  1  0  0  0
 33 32  1  0  0  0  0
 33 37  1  0  0  0  0
 34 33  1  0  0  0  0
 34 38  1  1  0  0  0
 34 32  1  0  0  0  0
 36 33  1  0  0  0  0
 39 34  1  0  0  0  0
 40 39  1  0  0  0  0
 41 39  1  0  0  0  0
M  END
>  <minimizedAffinity>
-5.77074385

$$$$

 OpenBabel03252508053D

 41 44  0  0  1  0  0  0  0  0999 V2000
   40.3000   28.4440   42.5100 C   0  0  0  0  0  0  0  0  0  0  0  0
   39.3020   29.3630   42.6340 C   0  0  0  0  0  0  0  0  0  0  0  0
   39.6580   30.7140   42.7850 C   0  0  0  0  0  0  0  0  0  0  0  0
   40.9570   31.1510   42.8120 C   0  0  0  0  0  0  0  0  0  0  0  0
   41.9560   30.2250   42.6850 C   0  0  0  0  0  0  0  0  0  0  0  0
   41.6190   28.9120   42.5390 C   0  0  0  0  0  0  0  0  0  0  0  0
   38.9310   31.5060   42.9000 H   0  0  0  0  0  0  0  0  0  0  0  0
   41.2260   32.1680   42.9250 H   0  0  0  0  0  0  0  0  0  0  0  0
   43.0020   30.4800   42.6950 H   0  0  0  0  0  0  0  0  0  0  0  0
   42.4140   28.1810   42.4400 H   0  0  0  0  0  0  0  0  0  0  0  0
   40.0080   26.8000   42.2610 S   0  0  0  0  0  0  0  0  0  0  0  0
   39.5870   26.3410   43.6770 O   0  0  0  0  0  0  0  0  0  0  0  0
   41.2500   26.0500   41.9070 O   0  0  0  0  0  0  0  0  0  0  0  0
   38.6430   26.0280   41.6410 C   0  0  0  0  0  0  0  0  0  0  0  0
   38.5450   26.0620   40.2230 C   0  0  0  0  0  0  0  0  0  0  0  0
   39.2720   26.6020   39.5890 H   0  0  0  0  0  0  0  0  0  0  0  0
   37.5540   25.4360   39.5080 C   0  0  0  0  0  0  0  0  0  0  0  0
   37.5010   25.4750   38.4310 H   0  0  0  0  0  0  0  0  0  0  0  0
   36.6350   24.7580   40.2450 C   0  0  0  0  0  3  0  0  0  0  0  0
   36.6570   24.6770   41.6070 C   0  0  0  0  0  3  0  0  0  0  0  0
   37.6530   25.3130   42.2100 N   0  0  0  0  0  0  0  0  0  0  0  0
   37.8890   28.9900   42.6320 C   0  0  0  0  0  0  0  0  0  0  0  0
   37.2850   28.4290   43.6140 O   0  0  0  0  0  0  0  0  0  0  0  0
   37.2250   29.3180   41.4050 C   0  0  0  0  0  0  0  0  0  0  0  0
   36.0780   28.5260   41.0890 C   0  0  0  0  0  0  0  0  0  0  0  0
   35.4110   28.8350   39.9090 C   0  0  0  0  0  0  0  0  0  0  0  0
   35.8850   29.8520   39.1450 N   0  0  0  0  0  0  0  0  0  0  0  0
   36.9910   30.5850   39.4920 C   0  0  0  0  0  0  0  0  0  0  0  0
   37.6050   30.2960   40.5850 N   0  0  0  0  0  0  0  0  0  0  0  0
   35.6380   27.7100   41.6270 H   0  0  0  0  0  0  0  0  0  0  0  0
   34.5200   28.2960   39.5640 H   0  0  0  0  0  0  0  0  0  0  0  0
   37.4200   31.6760   38.6000 C   0  0  1  0  0  0  0  0  0  0  0  0
   38.8580   31.7210   38.1330 C   0  0  0  0  0  0  0  0  0  0  0  0
   37.7680   31.2470   37.2190 C   0  0  1  0  0  0  0  0  0  0  0  0
   36.9620   32.6560   38.7240 H   0  0  0  0  0  0  0  0  0  0  0  0
   39.5580   31.0160   38.6080 H   0  0  0  0  0  0  0  0  0  0  0  0
   39.2920   32.7010   37.8550 H   0  0  0  0  0  0  0  0  0  0  0  0
   37.5040   31.8760   36.3320 H   0  0  0  0  0  0  0  0  0  0  0  0
   37.8960   29.8390   36.9040 N   0  0  0  0  0  0  0  0  0  0  0  0
   37.1490   29.4740   36.3070 H   0  0  0  0  0  0  0  0  0  0  0  0
   38.8510   29.5310   36.6980 H   0  0  0  0  0  0  0  0  0  0  0  0
  1  6  2  0  0  0  0
  1  2  1  0  0  0  0
  2  3  2  0  0  0  0
  3  4  1  0  0  0  0
  3  7  1  0  0  0  0
  4  8  1  0  0  0  0
  5  9  1  0  0  0  0
  5  4  2  0  0  0  0
  6  5  1  0  0  0  0
 10  6  1  0  0  0  0
 11  1  1  0  0  0  0
 11 12  2  0  0  0  0
 13 11  2  0  0  0  0
 14 21  1  0  0  0  0
 14 11  1  0  0  0  0
 15 14  2  0  0  0  0
 16 15  1  0  0  0  0
 17 15  1  0  0  0  0
 17 19  2  0  0  0  0
 18 17  1  0  0  0  0
 19 20  1  0  0  0  0
 20 21  2  0  0  0  0
 22  2  1  0  0  0  0
 22 23  2  0  0  0  0
 24 22  1  0  0  0  0
 25 24  1  0  0  0  0
 25 30  1  0  0  0  0
 26 25  2  0  0  0  0
 27 28  2  0  0  0  0
 27 26  1  0  0  0  0
 28 29  1  0  0  0  0
 29 24  2  0  0  0  0
 31 26  1  0  0  0  0
 32 35  1  1  0  0  0
 32 28  1  0  0  0  0
 33 32  1  0  0  0  0
 33 36  1  0  0  0  0
 34 38  1  6  0  0  0
 34 33  1  0  0  0  0
 34 32  1  0  0  0  0
 37 33  1  0  0  0  0
 39 34  1  0  0  0  0
 40 39  1  0  0  0  0
 41 39  1  0  0  0  0
M  END
>  <minimizedAffinity>
-5.74139881

$$$$

 OpenBabel03252508053D

 41 44  0  0  1  0  0  0  0  0999 V2000
   38.2390   26.4740   40.3980 C   0  0  0  0  0  0  0  0  0  0  0  0
   37.9650   27.0810   41.5870 C   0  0  0  0  0  0  0  0  0  0  0  0
   38.3950   26.4540   42.7680 C   0  0  0  0  0  0  0  0  0  0  0  0
   39.0750   25.2640   42.7830 C   0  0  0  0  0  0  0  0  0  0  0  0
   39.3490   24.6580   41.5870 C   0  0  0  0  0  0  0  0  0  0  0  0
   38.9350   25.2600   40.4370 C   0  0  0  0  0  0  0  0  0  0  0  0
   38.2110   26.8600   43.7540 H   0  0  0  0  0  0  0  0  0  0  0  0
   39.4000   24.7900   43.6720 H   0  0  0  0  0  0  0  0  0  0  0  0
   39.8790   23.7240   41.5070 H   0  0  0  0  0  0  0  0  0  0  0  0
   39.1530   24.7760   39.4910 H   0  0  0  0  0  0  0  0  0  0  0  0
   37.8320   27.1520   38.9070 S   0  0  0  0  0  0  0  0  0  0  0  0
   37.7820   25.9000   38.0000 O   0  0  0  0  0  0  0  0  0  0  0  0
   38.9100   28.0390   38.3740 O   0  0  0  0  0  0  0  0  0  0  0  0
   36.3250   27.6100   38.3040 C   0  0  0  0  0  0  0  0  0  0  0  0
   35.5980   26.5580   37.6850 C   0  0  0  0  0  0  0  0  0  0  0  0
   36.0140   25.5410   37.5560 H   0  0  0  0  0  0  0  0  0  0  0  0
   34.3240   26.6930   37.1910 C   0  0  0  0  0  0  0  0  0  0  0  0
   33.7910   25.8780   36.7250 H   0  0  0  0  0  0  0  0  0  0  0  0
   33.7690   27.9270   37.3250 C   0  0  0  0  0  3  0  0  0  0  0  0
   34.3990   28.9880   37.9060 C   0  0  0  0  0  3  0  0  0  0  0  0
   35.6270   28.7610   38.3540 N   0  0  0  0  0  0  0  0  0  0  0  0
   37.2320   28.3430   41.6720 C   0  0  0  0  0  0  0  0  0  0  0  0
   35.9600   28.4360   41.8010 O   0  0  0  0  0  0  0  0  0  0  0  0
   38.0850   29.4930   41.5980 C   0  0  0  0  0  0  0  0  0  0  0  0
   39.0860   29.5890   42.6130 C   0  0  0  0  0  0  0  0  0  0  0  0
   39.9320   30.6900   42.5540 C   0  0  0  0  0  0  0  0  0  0  0  0
   39.7550   31.5900   41.5520 N   0  0  0  0  0  0  0  0  0  0  0  0
   38.7780   31.4530   40.5990 C   0  0  0  0  0  0  0  0  0  0  0  0
   37.9970   30.4320   40.6580 N   0  0  0  0  0  0  0  0  0  0  0  0
   39.2960   28.9340   43.4350 H   0  0  0  0  0  0  0  0  0  0  0  0
   40.7360   30.8700   43.2780 H   0  0  0  0  0  0  0  0  0  0  0  0
   38.6730   32.4780   39.5470 C   0  0  1  0  0  0  0  0  0  0  0  0
   37.4430   33.3580   39.4980 C   0  0  0  0  0  0  0  0  0  0  0  0
   38.7400   33.8800   40.0390 C   0  0  1  0  0  0  0  0  0  0  0  0
   39.1050   32.2640   38.5710 H   0  0  0  0  0  0  0  0  0  0  0  0
   36.6100   33.0860   40.1640 H   0  0  0  0  0  0  0  0  0  0  0  0
   37.1460   33.7950   38.5250 H   0  0  0  0  0  0  0  0  0  0  0  0
   39.2790   34.6720   39.4610 H   0  0  0  0  0  0  0  0  0  0  0  0
   38.6660   34.1590   41.4580 N   0  0  0  0  0  0  0  0  0  0  0  0
   39.5440   34.4880   41.8680 H   0  0  0  0  0  0  0  0  0  0  0  0
   37.8070   34.6300   41.7570 H   0  0  0  0  0  0  0  0  0  0  0  0
  1  6  2  0  0  0  0
  1  2  1  0  0  0  0
  2 22  1  0  0  0  0
  2  3  2  0  0  0  0
  3  4  1  0  0  0  0
  3  7  1  0  0  0  0
  4  8  1  0  0  0  0
  5  4  2  0  0  0  0
  6  5  1  0  0  0  0
  9  5  1  0  0  0  0
 10  6  1  0  0  0  0
 11  1  1  0  0  0  0
 12 11  2  0  0  0  0
 13 11  2  0  0  0  0
 14 21  1  0  0  0  0
 14 11  1  0  0  0  0
 15 14  2  0  0  0  0
 16 15  1  0  0  0  0
 17 19  2  0  0  0  0
 17 15  1  0  0  0  0
 18 17  1  0  0  0  0
 19 20  1  0  0  0  0
 20 21  2  0  0  0  0
 22 23  2  0  0  0  0
 24 22  1  0  0  0  0
 24 25  1  0  0  0  0
 25 30  1  0  0  0  0
 26 25  2  0  0  0  0
 26 31  1  0  0  0  0
 27 26  1  0  0  0  0
 28 29  1  0  0  0  0
 28 27  2  0  0  0  0
 29 24  2  0  0  0  0
 32 35  1  6  0  0  0
 32 34  1  0  0  0  0
 32 28  1  0  0  0  0
 33 32  1  0  0  0  0
 33 34  1  0  0  0  0
 33 36  1  0  0  0  0
 34 38  1  6  0  0  0
 34 39  1  0  0  0  0
 37 33  1  0  0  0  0
 39 41  1  0  0  0  0
 39 40  1  0  0  0  0
M  END
>  <minimizedAffinity>
-5.71712208

$$$$

 OpenBabel03252508053D

 41 44  0  0  1  0  0  0  0  0999 V2000
   36.7820   29.4400   38.6650 C   0  0  0  0  0  0  0  0  0  0  0  0
   37.1670   30.7470   38.6880 C   0  0  0  0  0  0  0  0  0  0  0  0
   37.3640   31.4030   37.4620 C   0  0  0  0  0  0  0  0  0  0  0  0
   37.1870   30.7950   36.2460 C   0  0  0  0  0  0  0  0  0  0  0  0
   36.8000   29.4820   36.2270 C   0  0  0  0  0  0  0  0  0  0  0  0
   36.6070   28.8380   37.4130 C   0  0  0  0  0  0  0  0  0  0  0  0
   37.6790   32.4350   37.3880 H   0  0  0  0  0  0  0  0  0  0  0  0
   37.3350   31.2880   35.3220 H   0  0  0  0  0  0  0  0  0  0  0  0
   36.6380   28.9280   35.3190 H   0  0  0  0  0  0  0  0  0  0  0  0
   36.3010   27.7980   37.3940 H   0  0  0  0  0  0  0  0  0  0  0  0
   36.4530   28.5550   40.0650 S   0  0  0  0  0  0  0  0  0  0  0  0
   36.3710   27.1140   39.5100 O   0  0  0  0  0  0  0  0  0  0  0  0
   35.1140   28.8820   40.6410 O   0  0  0  0  0  0  0  0  0  0  0  0
   37.5020   28.0000   41.2630 C   0  0  0  0  0  0  0  0  0  0  0  0
   36.9460   27.9910   42.5700 C   0  0  0  0  0  0  0  0  0  0  0  0
   35.9320   28.3750   42.7890 H   0  0  0  0  0  0  0  0  0  0  0  0
   37.6000   27.5140   43.6790 C   0  0  0  0  0  0  0  0  0  0  0  0
   37.1570   27.5160   44.6620 H   0  0  0  0  0  0  0  0  0  0  0  0
   38.8530   27.0320   43.4600 C   0  0  0  0  0  3  0  0  0  0  0  0
   39.4580   27.0050   42.2380 C   0  0  0  0  0  3  0  0  0  0  0  0
   38.7480   27.4870   41.2270 N   0  0  0  0  0  0  0  0  0  0  0  0
   37.3940   31.4750   39.9350 C   0  0  0  0  0  0  0  0  0  0  0  0
   36.4630   31.8710   40.7240 O   0  0  0  0  0  0  0  0  0  0  0  0
   38.7820   31.7090   40.2030 C   0  0  0  0  0  0  0  0  0  0  0  0
   39.3140   31.0400   41.3490 C   0  0  0  0  0  0  0  0  0  0  0  0
   40.6620   31.2440   41.6210 C   0  0  0  0  0  0  0  0  0  0  0  0
   41.3740   32.0530   40.7950 N   0  0  0  0  0  0  0  0  0  0  0  0
   40.8180   32.6720   39.7060 C   0  0  0  0  0  0  0  0  0  0  0  0
   39.5700   32.4810   39.4570 N   0  0  0  0  0  0  0  0  0  0  0  0
   38.8300   30.3920   42.0520 H   0  0  0  0  0  0  0  0  0  0  0  0
   41.1790   30.7840   42.4730 H   0  0  0  0  0  0  0  0  0  0  0  0
   41.6770   33.5230   38.8640 C   0  0  1  0  0  0  0  0  0  0  0  0
   42.8590   32.9000   38.1540 C   0  0  0  0  0  0  0  0  0  0  0  0
   41.6020   33.2310   37.4070 C   0  0  1  0  0  0  0  0  0  0  0  0
   41.8340   34.5570   39.1650 H   0  0  0  0  0  0  0  0  0  0  0  0
   43.1110   31.8620   38.4240 H   0  0  0  0  0  0  0  0  0  0  0  0
   43.7230   33.5450   37.9030 H   0  0  0  0  0  0  0  0  0  0  0  0
   41.6330   34.0530   36.6490 H   0  0  0  0  0  0  0  0  0  0  0  0
   40.9190   32.0440   36.9370 N   0  0  0  0  0  0  0  0  0  0  0  0
   40.0390   32.2320   36.4490 H   0  0  0  0  0  0  0  0  0  0  0  0
   41.5320   31.3290   36.5330 H   0  0  0  0  0  0  0  0  0  0  0  0
  1  2  1  0  0  0  0
  1 11  1  0  0  0  0
  2 22  1  0  0  0  0
  3  2  2  0  0  0  0
  4  3  1  0  0  0  0
  5  4  2  0  0  0  0
  5  6  1  0  0  0  0
  6  1  2  0  0  0  0
  7  3  1  0  0  0  0
  8  4  1  0  0  0  0
  9  5  1  0  0  0  0
 10  6  1  0  0  0  0
 11 13  2  0  0  0  0
 11 14  1  0  0  0  0
 12 11  2  0  0  0  0
 14 15  1  0  0  0  0
 15 16  1  0  0  0  0
 15 17  2  0  0  0  0
 17 18  1  0  0  0  0
 19 17  1  0  0  0  0
 20 19  2  0  0  0  0
 21 14  2  0  0  0  0
 21 20  1  0  0  0  0
 22 24  1  0  0  0  0
 22 23  2  0  0  0  0
 24 25  1  0  0  0  0
 25 26  2  0  0  0  0
 25 30  1  0  0  0  0
 26 31  1  0  0  0  0
 27 26  1  0  0  0  0
 28 27  2  0  0  0  0
 29 28  1  0  0  0  0
 29 24  2  0  0  0  0
 32 35  1  1  0  0  0
 32 28  1  0  0  0  0
 33 36  1  0  0  0  0
 33 32  1  0  0  0  0
 34 38  1  6  0  0  0
 34 33  1  0  0  0  0
 34 32  1  0  0  0  0
 37 33  1  0  0  0  0
 39 34  1  0  0  0  0
 40 39  1  0  0  0  0
 41 39  1  0  0  0  0
M  END
>  <minimizedAffinity>
-5.71393013

$$$$
