
 OpenBabel03252508023D

 41 44  0  0  1  0  0  0  0  0999 V2000
   42.0740   33.2620   41.1580 C   0  0  0  0  0  0  0  0  0  0  0  0
   42.7990   34.4030   41.3290 C   0  0  0  0  0  0  0  0  0  0  0  0
   42.1250   35.6350   41.2650 C   0  0  0  0  0  0  0  0  0  0  0  0
   40.7770   35.7430   41.0410 C   0  0  0  0  0  0  0  0  0  0  0  0
   40.0520   34.5950   40.8710 C   0  0  0  0  0  0  0  0  0  0  0  0
   40.6990   33.3970   40.9310 C   0  0  0  0  0  0  0  0  0  0  0  0
   42.6230   36.5870   41.3800 H   0  0  0  0  0  0  0  0  0  0  0  0
   40.2680   36.6700   40.9930 H   0  0  0  0  0  0  0  0  0  0  0  0
   38.9910   34.5880   40.6920 H   0  0  0  0  0  0  0  0  0  0  0  0
   40.1210   32.4880   40.7950 H   0  0  0  0  0  0  0  0  0  0  0  0
   42.7500   31.7200   41.2730 S   0  0  0  0  0  0  0  0  0  0  0  0
   41.7290   30.8730   40.4770 O   0  0  0  0  0  0  0  0  0  0  0  0
   42.7530   31.2040   42.6740 O   0  0  0  0  0  0  0  0  0  0  0  0
   43.9880   31.0150   40.3700 C   0  0  0  0  0  0  0  0  0  0  0  0
   45.1790   30.7640   41.1040 C   0  0  0  0  0  0  0  0  0  0  0  0
   45.3000   31.0640   42.1620 H   0  0  0  0  0  0  0  0  0  0  0  0
   46.2820   30.1350   40.5840 C   0  0  0  0  0  0  0  0  0  0  0  0
   47.1750   29.9550   41.1620 H   0  0  0  0  0  0  0  0  0  0  0  0
   46.1810   29.7490   39.2850 C   0  0  0  0  0  3  0  0  0  0  0  0
   45.0760   29.9520   38.5110 C   0  0  0  0  0  3  0  0  0  0  0  0
   44.0590   30.5680   39.1010 N   0  0  0  0  0  0  0  0  0  0  0  0
   44.2420   34.3880   41.5590 C   0  0  0  0  0  0  0  0  0  0  0  0
   45.1240   34.3130   40.6300 O   0  0  0  0  0  0  0  0  0  0  0  0
   44.5900   34.4680   42.9470 C   0  0  0  0  0  0  0  0  0  0  0  0
   44.3080   35.7140   43.5860 C   0  0  0  0  0  0  0  0  0  0  0  0
   44.6270   35.8100   44.9360 C   0  0  0  0  0  0  0  0  0  0  0  0
   45.1780   34.7310   45.5490 N   0  0  0  0  0  0  0  0  0  0  0  0
   45.4290   33.5540   44.8910 C   0  0  0  0  0  0  0  0  0  0  0  0
   45.1330   33.4700   43.6420 N   0  0  0  0  0  0  0  0  0  0  0  0
   43.8810   36.6110   43.1840 H   0  0  0  0  0  0  0  0  0  0  0  0
   44.4570   36.7160   45.5300 H   0  0  0  0  0  0  0  0  0  0  0  0
   46.0210   32.4370   45.6480 C   0  0  1  0  0  0  0  0  0  0  0  0
   46.9670   32.7420   46.7890 C   0  0  0  0  0  0  0  0  0  0  0  0
   45.5510   32.3240   47.0550 C   0  0  1  0  0  0  0  0  0  0  0  0
   46.2480   31.5150   45.1160 H   0  0  0  0  0  0  0  0  0  0  0  0
   47.2890   33.7880   46.9020 H   0  0  0  0  0  0  0  0  0  0  0  0
   47.7250   31.9820   47.0610 H   0  0  0  0  0  0  0  0  0  0  0  0
   45.3690   31.3270   47.5270 H   0  0  0  0  0  0  0  0  0  0  0  0
   44.7730   33.3900   47.6500 N   0  0  0  0  0  0  0  0  0  0  0  0
   43.7920   33.1510   47.8170 H   0  0  0  0  0  0  0  0  0  0  0  0
   45.2560   33.9140   48.3860 H   0  0  0  0  0  0  0  0  0  0  0  0
  1 11  1  0  0  0  0
  1  2  1  0  0  0  0
  2 22  1  0  0  0  0
  3  2  2  0  0  0  0
  3  7  1  0  0  0  0
  4  3  1  0  0  0  0
  5  6  1  0  0  0  0
  5  4  2  0  0  0  0
  6  1  2  0  0  0  0
  8  4  1  0  0  0  0
  9  5  1  0  0  0  0
 10  6  1  0  0  0  0
 11 13  2  0  0  0  0
 12 11  2  0  0  0  0
 14 15  1  0  0  0  0
 14 11  1  0  0  0  0
 15 16  1  0  0  0  0
 17 15  2  0  0  0  0
 17 18  1  0  0  0  0
 19 17  1  0  0  0  0
 20 21  1  0  0  0  0
 20 19  2  0  0  0  0
 21 14  2  0  0  0  0
 22 24  1  0  0  0  0
 23 22  2  0  0  0  0
 24 25  2  0  0  0  0
 24 29  1  0  0  0  0
 25 26  1  0  0  0  0
 26 31  1  0  0  0  0
 26 27  2  0  0  0  0
 28 27  1  0  0  0  0
 28 32  1  0  0  0  0
 29 28  2  0  0  0  0
 30 25  1  0  0  0  0
 32 35  1  6  0  0  0
 32 33  1  0  0  0  0
 32 34  1  0  0  0  0
 33 36  1  0  0  0  0
 33 34  1  0  0  0  0
 33 37  1  0  0  0  0
 34 38  1  1  0  0  0
 34 39  1  0  0  0  0
 39 40  1  0  0  0  0
 39 41  1  0  0  0  0
M  END
>  <minimizedAffinity>
-5.68600655

>  <minimizedRMSD>
1.19037116

$$$$
