
 OpenBabel03252508023D

 41 44  0  0  1  0  0  0  0  0999 V2000
   42.0720   33.2600   41.1270 C   0  0  0  0  0  0  0  0  0  0  0  0
   42.7970   34.3970   41.3240 C   0  0  0  0  0  0  0  0  0  0  0  0
   42.1220   35.6290   41.2890 C   0  0  0  0  0  0  0  0  0  0  0  0
   40.7740   35.7430   41.0660 C   0  0  0  0  0  0  0  0  0  0  0  0
   40.0500   34.5980   40.8700 C   0  0  0  0  0  0  0  0  0  0  0  0
   40.6970   33.3990   40.9020 C   0  0  0  0  0  0  0  0  0  0  0  0
   42.6210   36.5790   41.4250 H   0  0  0  0  0  0  0  0  0  0  0  0
   40.2650   36.6700   41.0400 H   0  0  0  0  0  0  0  0  0  0  0  0
   38.9890   34.5960   40.6900 H   0  0  0  0  0  0  0  0  0  0  0  0
   40.1200   32.4940   40.7450 H   0  0  0  0  0  0  0  0  0  0  0  0
   42.7490   31.7160   41.2060 S   0  0  0  0  0  0  0  0  0  0  0  0
   41.6800   30.8700   40.4740 O   0  0  0  0  0  0  0  0  0  0  0  0
   42.8330   31.2040   42.6070 O   0  0  0  0  0  0  0  0  0  0  0  0
   43.9300   31.0040   40.2350 C   0  0  0  0  0  0  0  0  0  0  0  0
   43.9210   31.4430   38.8840 C   0  0  0  0  0  0  0  0  0  0  0  0
   43.1610   32.1450   38.4910 H   0  0  0  0  0  0  0  0  0  0  0  0
   44.8370   31.0480   37.9430 C   0  0  0  0  0  0  0  0  0  0  0  0
   44.8100   31.3950   36.9210 H   0  0  0  0  0  0  0  0  0  0  0  0
   45.7910   30.1820   38.3770 C   0  0  0  0  0  3  0  0  0  0  0  0
   45.8710   29.7130   39.6560 C   0  0  0  0  0  3  0  0  0  0  0  0
   44.9410   30.1520   40.4950 N   0  0  0  0  0  0  0  0  0  0  0  0
   44.2400   34.3770   41.5540 C   0  0  0  0  0  0  0  0  0  0  0  0
   45.1210   34.2930   40.6260 O   0  0  0  0  0  0  0  0  0  0  0  0
   44.5880   34.4630   42.9420 C   0  0  0  0  0  0  0  0  0  0  0  0
   44.3080   35.7120   43.5750 C   0  0  0  0  0  0  0  0  0  0  0  0
   44.6280   35.8140   44.9240 C   0  0  0  0  0  0  0  0  0  0  0  0
   45.1770   34.7380   45.5430 N   0  0  0  0  0  0  0  0  0  0  0  0
   45.4260   33.5570   44.8900 C   0  0  0  0  0  0  0  0  0  0  0  0
   45.1290   33.4680   43.6420 N   0  0  0  0  0  0  0  0  0  0  0  0
   43.8830   36.6080   43.1690 H   0  0  0  0  0  0  0  0  0  0  0  0
   44.4590   36.7240   45.5150 H   0  0  0  0  0  0  0  0  0  0  0  0
   46.0160   32.4430   45.6520 C   0  0  1  0  0  0  0  0  0  0  0  0
   46.9620   32.7510   46.7920 C   0  0  0  0  0  0  0  0  0  0  0  0
   45.5460   32.3380   47.0600 C   0  0  1  0  0  0  0  0  0  0  0  0
   46.2410   31.5180   45.1250 H   0  0  0  0  0  0  0  0  0  0  0  0
   47.2870   33.7980   46.9000 H   0  0  0  0  0  0  0  0  0  0  0  0
   47.7190   31.9920   47.0680 H   0  0  0  0  0  0  0  0  0  0  0  0
   45.3620   31.3430   47.5370 H   0  0  0  0  0  0  0  0  0  0  0  0
   44.7700   33.4080   47.6500 N   0  0  0  0  0  0  0  0  0  0  0  0
   43.7880   33.1710   47.8190 H   0  0  0  0  0  0  0  0  0  0  0  0
   45.2540   33.9340   48.3840 H   0  0  0  0  0  0  0  0  0  0  0  0
  1 11  1  0  0  0  0
  1  2  1  0  0  0  0
  2 22  1  0  0  0  0
  3  2  2  0  0  0  0
  3  7  1  0  0  0  0
  4  3  1  0  0  0  0
  5  6  1  0  0  0  0
  5  4  2  0  0  0  0
  6  1  2  0  0  0  0
  8  4  1  0  0  0  0
  9  5  1  0  0  0  0
 10  6  1  0  0  0  0
 11 13  2  0  0  0  0
 12 11  2  0  0  0  0
 14 21  1  0  0  0  0
 14 11  1  0  0  0  0
 15 14  2  0  0  0  0
 16 15  1  0  0  0  0
 17 19  2  0  0  0  0
 17 15  1  0  0  0  0
 18 17  1  0  0  0  0
 19 20  1  0  0  0  0
 20 21  2  0  0  0  0
 22 24  1  0  0  0  0
 23 22  2  0  0  0  0
 24 25  2  0  0  0  0
 24 29  1  0  0  0  0
 25 26  1  0  0  0  0
 26 31  1  0  0  0  0
 26 27  2  0  0  0  0
 28 27  1  0  0  0  0
 28 32  1  0  0  0  0
 29 28  2  0  0  0  0
 30 25  1  0  0  0  0
 32 35  1  6  0  0  0
 32 33  1  0  0  0  0
 32 34  1  0  0  0  0
 33 36  1  0  0  0  0
 33 34  1  0  0  0  0
 33 37  1  0  0  0  0
 34 38  1  1  0  0  0
 34 39  1  0  0  0  0
 39 40  1  0  0  0  0
 39 41  1  0  0  0  0
M  END
>  <minimizedAffinity>
-5.74810171

>  <minimizedRMSD>
1.49333286

$$$$
