
 OpenBabel03252508023D

 41 44  0  0  1  0  0  0  0  0999 V2000
   42.0710   33.2630   41.1270 C   0  0  0  0  0  0  0  0  0  0  0  0
   42.7970   34.3990   41.3250 C   0  0  0  0  0  0  0  0  0  0  0  0
   42.1240   35.6320   41.2890 C   0  0  0  0  0  0  0  0  0  0  0  0
   40.7760   35.7470   41.0660 C   0  0  0  0  0  0  0  0  0  0  0  0
   40.0500   34.6040   40.8700 C   0  0  0  0  0  0  0  0  0  0  0  0
   40.6960   33.4040   40.9030 C   0  0  0  0  0  0  0  0  0  0  0  0
   42.6230   36.5820   41.4250 H   0  0  0  0  0  0  0  0  0  0  0  0
   40.2680   36.6750   41.0400 H   0  0  0  0  0  0  0  0  0  0  0  0
   38.9890   34.6020   40.6900 H   0  0  0  0  0  0  0  0  0  0  0  0
   40.1180   32.4990   40.7460 H   0  0  0  0  0  0  0  0  0  0  0  0
   42.7460   31.7180   41.2070 S   0  0  0  0  0  0  0  0  0  0  0  0
   41.6750   30.8730   40.4780 O   0  0  0  0  0  0  0  0  0  0  0  0
   42.8320   31.2070   42.6080 O   0  0  0  0  0  0  0  0  0  0  0  0
   43.9250   31.0040   40.2340 C   0  0  0  0  0  0  0  0  0  0  0  0
   43.9190   31.4490   38.8850 C   0  0  0  0  0  0  0  0  0  0  0  0
   43.1640   32.1560   38.4940 H   0  0  0  0  0  0  0  0  0  0  0  0
   44.8340   31.0520   37.9430 C   0  0  0  0  0  0  0  0  0  0  0  0
   44.8100   31.4040   36.9240 H   0  0  0  0  0  0  0  0  0  0  0  0
   45.7840   30.1800   38.3760 C   0  0  0  0  0  3  0  0  0  0  0  0
   45.8590   29.7050   39.6530 C   0  0  0  0  0  3  0  0  0  0  0  0
   44.9310   30.1460   40.4910 N   0  0  0  0  0  0  0  0  0  0  0  0
   44.2400   34.3770   41.5540 C   0  0  0  0  0  0  0  0  0  0  0  0
   45.1210   34.2930   40.6270 O   0  0  0  0  0  0  0  0  0  0  0  0
   44.5880   34.4630   42.9420 C   0  0  0  0  0  0  0  0  0  0  0  0
   44.3080   35.7120   43.5760 C   0  0  0  0  0  0  0  0  0  0  0  0
   44.6270   35.8140   44.9250 C   0  0  0  0  0  0  0  0  0  0  0  0
   45.1770   34.7370   45.5430 N   0  0  0  0  0  0  0  0  0  0  0  0
   45.4270   33.5580   44.8900 C   0  0  0  0  0  0  0  0  0  0  0  0
   45.1300   33.4680   43.6420 N   0  0  0  0  0  0  0  0  0  0  0  0
   43.8810   36.6080   43.1700 H   0  0  0  0  0  0  0  0  0  0  0  0
   44.4580   36.7230   45.5160 H   0  0  0  0  0  0  0  0  0  0  0  0
   46.0170   32.4430   45.6520 C   0  0  1  0  0  0  0  0  0  0  0  0
   46.9630   32.7510   46.7920 C   0  0  0  0  0  0  0  0  0  0  0  0
   45.5470   32.3360   47.0590 C   0  0  1  0  0  0  0  0  0  0  0  0
   46.2440   31.5190   45.1240 H   0  0  0  0  0  0  0  0  0  0  0  0
   47.2860   33.7990   46.9010 H   0  0  0  0  0  0  0  0  0  0  0  0
   47.7210   31.9930   47.0680 H   0  0  0  0  0  0  0  0  0  0  0  0
   45.3640   31.3410   47.5350 H   0  0  0  0  0  0  0  0  0  0  0  0
   44.7690   33.4050   47.6500 N   0  0  0  0  0  0  0  0  0  0  0  0
   43.7880   33.1670   47.8170 H   0  0  0  0  0  0  0  0  0  0  0  0
   45.2520   33.9310   48.3840 H   0  0  0  0  0  0  0  0  0  0  0  0
  1 11  1  0  0  0  0
  1  2  1  0  0  0  0
  2 22  1  0  0  0  0
  3  2  2  0  0  0  0
  3  7  1  0  0  0  0
  4  3  1  0  0  0  0
  5  6  1  0  0  0  0
  5  4  2  0  0  0  0
  6  1  2  0  0  0  0
  8  4  1  0  0  0  0
  9  5  1  0  0  0  0
 10  6  1  0  0  0  0
 11 13  2  0  0  0  0
 12 11  2  0  0  0  0
 14 21  1  0  0  0  0
 14 11  1  0  0  0  0
 15 14  2  0  0  0  0
 16 15  1  0  0  0  0
 17 19  2  0  0  0  0
 17 15  1  0  0  0  0
 18 17  1  0  0  0  0
 19 20  1  0  0  0  0
 20 21  2  0  0  0  0
 22 24  1  0  0  0  0
 23 22  2  0  0  0  0
 24 25  2  0  0  0  0
 24 29  1  0  0  0  0
 25 26  1  0  0  0  0
 26 31  1  0  0  0  0
 26 27  2  0  0  0  0
 28 27  1  0  0  0  0
 28 32  1  0  0  0  0
 29 28  2  0  0  0  0
 30 25  1  0  0  0  0
 32 35  1  6  0  0  0
 32 33  1  0  0  0  0
 32 34  1  0  0  0  0
 33 36  1  0  0  0  0
 33 34  1  0  0  0  0
 33 37  1  0  0  0  0
 34 38  1  1  0  0  0
 34 39  1  0  0  0  0
 39 40  1  0  0  0  0
 39 41  1  0  0  0  0
M  END
>  <minimizedAffinity>
-5.75260353

>  <minimizedRMSD>
1.39339721

$$$$
