
 OpenBabel03252507453D

 36 38  0  0  0  0  0  0  0  0999 V2000
   47.6180   34.5720   40.8760 C   0  0  0  0  0  0  0  0  0  0  0  0
   47.9650   35.4370   40.2460 H   0  0  0  0  0  0  0  0  0  0  0  0
   46.9270   33.9630   40.2860 H   0  0  0  0  0  0  0  0  0  0  0  0
   48.8040   33.8300   41.3150 C   0  0  0  0  0  0  0  0  0  0  0  0
   48.8750   32.5050   40.9230 C   0  0  0  0  0  0  0  0  0  0  0  0
   49.9370   31.6740   41.2620 C   0  0  0  0  0  0  0  0  0  0  0  0
   50.9290   32.2600   42.0230 N   0  0  0  0  0  0  0  0  0  0  0  0
   50.8340   33.5540   42.3900 C   0  0  0  0  0  0  0  0  0  0  0  0
   49.7970   34.3030   42.0390 N   0  0  0  0  0  0  0  0  0  0  0  0
   49.9990   30.6490   40.9630 H   0  0  0  0  0  0  0  0  0  0  0  0
   51.6190   34.0260   42.9950 H   0  0  0  0  0  0  0  0  0  0  0  0
   47.5580   31.7760   39.9040 S   0  0  0  0  0  0  0  0  0  0  0  0
   46.1590   31.3340   40.8940 C   0  0  0  0  0  0  0  0  0  0  0  0
   44.9360   30.8340   40.4560 C   0  0  0  0  0  0  0  0  0  0  0  0
   44.8740   30.7210   39.3990 H   0  0  0  0  0  0  0  0  0  0  0  0
   43.9600   30.5460   41.3830 C   0  0  0  0  0  0  0  0  0  0  0  0
   43.0350   30.1650   41.0040 H   0  0  0  0  0  0  0  0  0  0  0  0
   44.1410   30.7310   42.7410 C   0  0  0  0  0  3  0  0  0  0  0  0
   45.3720   31.2270   43.1180 C   0  0  0  0  0  3  0  0  0  0  0  0
   46.3580   31.5220   42.2230 N   0  0  0  0  0  0  0  0  0  0  0  0
   46.8410   35.1380   42.0240 C   0  0  0  0  0  0  0  0  0  0  0  0
   47.1230   34.7130   43.0090 H   0  0  0  0  0  0  0  0  0  0  0  0
   47.0910   36.2280   42.1010 H   0  0  0  0  0  0  0  0  0  0  0  0
   45.3650   35.0290   41.8460 C   0  0  0  0  0  0  0  0  0  0  0  0
   44.4920   35.6350   42.8100 C   0  0  0  0  0  0  0  0  0  0  0  0
   42.8240   35.2310   42.1630 S   0  0  0  0  0  0  0  0  0  0  0  0
   43.5950   34.3050   40.6890 C   0  0  0  0  0  0  0  0  0  0  0  0
   44.7110   34.4290   40.8890 N   0  0  0  0  0  0  0  0  0  0  0  0
   44.7830   36.1860   43.6910 H   0  0  0  0  0  0  0  0  0  0  0  0
   42.8340   33.6780   39.6880 O   0  0  0  0  0  0  0  0  0  0  0  0
   40.9160   33.8710   37.8680 O   0  0  0  0  0  0  0  0  0  0  0  0
   41.9130   34.6910   38.6780 P   0  0  0  0  0  0  0  0  0  0  0  0
   41.0800   35.7930   39.6490 O   0  0  0  0  0  0  0  0  0  0  0  0
   40.3570   35.3390   40.1510 H   0  0  0  0  0  0  0  0  0  0  0  0
   42.9510   35.5520   37.6470 O   0  0  0  0  0  0  0  0  0  0  0  0
   43.1760   36.4470   38.0290 H   0  0  0  0  0  0  0  0  0  0  0  0
  1  4  1  0  0  0  0
  1 21  1  0  0  0  0
  2  1  1  0  0  0  0
  3  1  1  0  0  0  0
  4  9  1  0  0  0  0
  5  6  1  0  0  0  0
  5  4  2  0  0  0  0
  6  7  2  0  0  0  0
  7  8  1  0  0  0  0
  8 11  1  0  0  0  0
  9  8  2  0  0  0  0
 10  6  1  0  0  0  0
 12 13  1  0  0  0  0
 12  5  1  0  0  0  0
 13 20  1  0  0  0  0
 14 13  2  0  0  0  0
 14 16  1  0  0  0  0
 15 14  1  0  0  0  0
 16 18  2  0  0  0  0
 17 16  1  0  0  0  0
 18 19  1  0  0  0  0
 20 19  2  0  0  0  0
 21 23  1  0  0  0  0
 21 22  1  0  0  0  0
 24 21  1  0  0  0  0
 24 25  2  0  0  0  0
 25 29  1  0  0  0  0
 26 25  1  0  0  0  0
 27 28  2  0  0  0  0
 27 26  1  0  0  0  0
 28 24  1  0  0  0  0
 30 27  1  0  0  0  0
 31 32  2  0  0  0  0
 32 33  1  0  0  0  0
 32 30  1  0  0  0  0
 33 34  1  0  0  0  0
 35 36  1  0  0  0  0
 35 32  1  0  0  0  0
M  END
>  <minimizedAffinity>
-4.31859207

>  <minimizedRMSD>
1.01097214

$$$$
