
 OpenBabel03252507453D

 36 38  0  0  0  0  0  0  0  0999 V2000
   47.6670   34.6860   40.9020 C   0  0  0  0  0  0  0  0  0  0  0  0
   48.0040   35.6250   40.3830 H   0  0  0  0  0  0  0  0  0  0  0  0
   46.9940   34.1390   40.2370 H   0  0  0  0  0  0  0  0  0  0  0  0
   48.8630   33.9200   41.2680 C   0  0  0  0  0  0  0  0  0  0  0  0
   49.0150   32.6940   40.6440 C   0  0  0  0  0  0  0  0  0  0  0  0
   50.0970   31.8550   40.8860 C   0  0  0  0  0  0  0  0  0  0  0  0
   51.0200   32.3250   41.7990 N   0  0  0  0  0  0  0  0  0  0  0  0
   50.8450   33.5240   42.3910 C   0  0  0  0  0  0  0  0  0  0  0  0
   49.7940   34.2860   42.1230 N   0  0  0  0  0  0  0  0  0  0  0  0
   50.2220   30.9060   40.4090 H   0  0  0  0  0  0  0  0  0  0  0  0
   51.5750   33.9040   43.1180 H   0  0  0  0  0  0  0  0  0  0  0  0
   47.7890   32.1190   39.4320 S   0  0  0  0  0  0  0  0  0  0  0  0
   46.3700   31.4340   40.2400 C   0  0  0  0  0  0  0  0  0  0  0  0
   45.2090   30.9500   39.6440 C   0  0  0  0  0  0  0  0  0  0  0  0
   45.2130   31.0160   38.5830 H   0  0  0  0  0  0  0  0  0  0  0  0
   44.2060   30.4510   40.4450 C   0  0  0  0  0  0  0  0  0  0  0  0
   43.3310   30.0880   39.9470 H   0  0  0  0  0  0  0  0  0  0  0  0
   44.2990   30.4080   41.8220 C   0  0  0  0  0  3  0  0  0  0  0  0
   45.4710   30.9010   42.3580 C   0  0  0  0  0  3  0  0  0  0  0  0
   46.4820   31.4020   41.5920 N   0  0  0  0  0  0  0  0  0  0  0  0
   46.8660   35.0990   42.0990 C   0  0  0  0  0  0  0  0  0  0  0  0
   47.1340   34.5540   43.0270 H   0  0  0  0  0  0  0  0  0  0  0  0
   47.1090   36.1720   42.3180 H   0  0  0  0  0  0  0  0  0  0  0  0
   45.3940   35.0080   41.8820 C   0  0  0  0  0  0  0  0  0  0  0  0
   44.5040   35.6360   42.8150 C   0  0  0  0  0  0  0  0  0  0  0  0
   42.8490   35.2470   42.1270 S   0  0  0  0  0  0  0  0  0  0  0  0
   43.6470   34.2950   40.6840 C   0  0  0  0  0  0  0  0  0  0  0  0
   44.7580   34.4070   40.9130 N   0  0  0  0  0  0  0  0  0  0  0  0
   44.7780   36.1920   43.6980 H   0  0  0  0  0  0  0  0  0  0  0  0
   42.9050   33.6680   39.6690 O   0  0  0  0  0  0  0  0  0  0  0  0
   40.9570   33.8470   37.8810 O   0  0  0  0  0  0  0  0  0  0  0  0
   41.9550   34.6750   38.6810 P   0  0  0  0  0  0  0  0  0  0  0  0
   41.1230   35.7600   39.6720 O   0  0  0  0  0  0  0  0  0  0  0  0
   40.4130   35.2920   40.1830 H   0  0  0  0  0  0  0  0  0  0  0  0
   42.9650   35.5570   37.6400 O   0  0  0  0  0  0  0  0  0  0  0  0
   43.1840   36.4520   38.0240 H   0  0  0  0  0  0  0  0  0  0  0  0
  1  4  1  0  0  0  0
  1 21  1  0  0  0  0
  2  1  1  0  0  0  0
  3  1  1  0  0  0  0
  4  9  1  0  0  0  0
  5  6  1  0  0  0  0
  5  4  2  0  0  0  0
  6  7  2  0  0  0  0
  7  8  1  0  0  0  0
  8 11  1  0  0  0  0
  9  8  2  0  0  0  0
 10  6  1  0  0  0  0
 12 13  1  0  0  0  0
 12  5  1  0  0  0  0
 13 20  1  0  0  0  0
 14 13  2  0  0  0  0
 14 16  1  0  0  0  0
 15 14  1  0  0  0  0
 16 18  2  0  0  0  0
 17 16  1  0  0  0  0
 18 19  1  0  0  0  0
 20 19  2  0  0  0  0
 21 23  1  0  0  0  0
 21 22  1  0  0  0  0
 24 21  1  0  0  0  0
 24 25  2  0  0  0  0
 25 29  1  0  0  0  0
 26 25  1  0  0  0  0
 27 28  2  0  0  0  0
 27 26  1  0  0  0  0
 28 24  1  0  0  0  0
 30 27  1  0  0  0  0
 31 32  2  0  0  0  0
 32 30  1  0  0  0  0
 32 33  1  0  0  0  0
 33 34  1  0  0  0  0
 35 36  1  0  0  0  0
 35 32  1  0  0  0  0
M  END
>  <minimizedAffinity>
-4.3690114

>  <minimizedRMSD>
0.965502918

$$$$
