
 OpenBabel03252507473D

 36 38  0  0  0  0  0  0  0  0999 V2000
   36.3330   29.2610   40.3710 C   0  0  0  0  0  0  0  0  0  0  0  0
   35.2290   29.4490   40.2570 H   0  0  0  0  0  0  0  0  0  0  0  0
   36.6890   29.7880   41.2600 H   0  0  0  0  0  0  0  0  0  0  0  0
   36.5370   27.8110   40.4420 C   0  0  0  0  0  0  0  0  0  0  0  0
   37.0540   27.3260   41.6310 C   0  0  0  0  0  0  0  0  0  0  0  0
   37.3020   25.9760   41.8500 C   0  0  0  0  0  0  0  0  0  0  0  0
   36.9990   25.1380   40.7950 N   0  0  0  0  0  0  0  0  0  0  0  0
   36.4960   25.6390   39.6480 C   0  0  0  0  0  0  0  0  0  0  0  0
   36.2770   26.9380   39.4920 N   0  0  0  0  0  0  0  0  0  0  0  0
   37.7020   25.5920   42.7650 H   0  0  0  0  0  0  0  0  0  0  0  0
   36.2520   24.9790   38.8050 H   0  0  0  0  0  0  0  0  0  0  0  0
   37.4210   28.4580   43.0040 S   0  0  0  0  0  0  0  0  0  0  0  0
   39.0750   29.0800   42.8900 C   0  0  0  0  0  0  0  0  0  0  0  0
   39.4730   30.3980   42.6880 C   0  0  0  0  0  0  0  0  0  0  0  0
   38.6600   31.0800   42.5970 H   0  0  0  0  0  0  0  0  0  0  0  0
   40.8160   30.6890   42.6280 C   0  0  0  0  0  0  0  0  0  0  0  0
   41.0780   31.7150   42.4710 H   0  0  0  0  0  0  0  0  0  0  0  0
   41.7980   29.7260   42.7590 C   0  0  0  0  0  3  0  0  0  0  0  0
   41.3480   28.4370   42.9570 C   0  0  0  0  0  3  0  0  0  0  0  0
   40.0230   28.1170   43.0220 N   0  0  0  0  0  0  0  0  0  0  0  0
   37.0160   29.8770   39.1880 C   0  0  0  0  0  0  0  0  0  0  0  0
   37.6710   29.1740   38.6340 H   0  0  0  0  0  0  0  0  0  0  0  0
   36.2240   30.1690   38.4510 H   0  0  0  0  0  0  0  0  0  0  0  0
   37.7880   31.1050   39.5280 C   0  0  0  0  0  0  0  0  0  0  0  0
   37.1890   32.1070   40.3620 C   0  0  0  0  0  0  0  0  0  0  0  0
   38.5030   33.3800   40.4810 S   0  0  0  0  0  0  0  0  0  0  0  0
   39.6480   32.3360   39.3750 C   0  0  0  0  0  0  0  0  0  0  0  0
   38.9990   31.4230   39.1590 N   0  0  0  0  0  0  0  0  0  0  0  0
   36.2010   32.0830   40.7950 H   0  0  0  0  0  0  0  0  0  0  0  0
   40.9460   32.7350   39.0120 O   0  0  0  0  0  0  0  0  0  0  0  0
   42.2760   31.3140   37.2140 O   0  0  0  0  0  0  0  0  0  0  0  0
   41.3800   32.5340   37.3800 P   0  0  0  0  0  0  0  0  0  0  0  0
   39.9690   32.3260   36.4770 O   0  0  0  0  0  0  0  0  0  0  0  0
   39.5630   31.4400   36.6620 H   0  0  0  0  0  0  0  0  0  0  0  0
   42.1720   33.9320   36.8330 O   0  0  0  0  0  0  0  0  0  0  0  0
   41.5320   34.5600   36.3930 H   0  0  0  0  0  0  0  0  0  0  0  0
  1  4  1  0  0  0  0
  1  3  1  0  0  0  0
  2  1  1  0  0  0  0
  4  5  1  0  0  0  0
  5  6  2  0  0  0  0
  5 12  1  0  0  0  0
  6 10  1  0  0  0  0
  7  6  1  0  0  0  0
  8  7  2  0  0  0  0
  9  8  1  0  0  0  0
  9  4  2  0  0  0  0
 11  8  1  0  0  0  0
 13 12  1  0  0  0  0
 13 20  1  0  0  0  0
 14 13  2  0  0  0  0
 15 14  1  0  0  0  0
 16 14  1  0  0  0  0
 16 18  2  0  0  0  0
 17 16  1  0  0  0  0
 18 19  1  0  0  0  0
 19 20  2  0  0  0  0
 21 24  1  0  0  0  0
 21  1  1  0  0  0  0
 22 21  1  0  0  0  0
 23 21  1  0  0  0  0
 24 25  2  0  0  0  0
 25 26  1  0  0  0  0
 25 29  1  0  0  0  0
 27 26  1  0  0  0  0
 28 27  2  0  0  0  0
 28 24  1  0  0  0  0
 30 27  1  0  0  0  0
 31 32  2  0  0  0  0
 32 30  1  0  0  0  0
 33 34  1  0  0  0  0
 33 32  1  0  0  0  0
 35 32  1  0  0  0  0
 36 35  1  0  0  0  0
M  END
>  <minimizedAffinity>
-5.67201471

$$$$

 OpenBabel03252507473D

 36 38  0  0  0  0  0  0  0  0999 V2000
   37.1060   29.8750   37.6980 C   0  0  0  0  0  0  0  0  0  0  0  0
   38.1050   29.5170   38.0730 H   0  0  0  0  0  0  0  0  0  0  0  0
   37.2560   30.4030   36.7530 H   0  0  0  0  0  0  0  0  0  0  0  0
   36.2280   28.7070   37.5710 C   0  0  0  0  0  0  0  0  0  0  0  0
   36.6190   27.5730   38.2600 C   0  0  0  0  0  0  0  0  0  0  0  0
   35.8900   26.3890   38.2380 C   0  0  0  0  0  0  0  0  0  0  0  0
   34.7390   26.4150   37.4760 N   0  0  0  0  0  0  0  0  0  0  0  0
   34.3830   27.5350   36.8160 C   0  0  0  0  0  0  0  0  0  0  0  0
   35.1150   28.6400   36.8720 N   0  0  0  0  0  0  0  0  0  0  0  0
   36.1850   25.5070   38.7660 H   0  0  0  0  0  0  0  0  0  0  0  0
   33.4680   27.5640   36.2080 H   0  0  0  0  0  0  0  0  0  0  0  0
   38.1310   27.5840   39.2690 S   0  0  0  0  0  0  0  0  0  0  0  0
   37.7490   27.7870   40.9850 C   0  0  0  0  0  0  0  0  0  0  0  0
   37.0820   26.8920   41.8160 C   0  0  0  0  0  0  0  0  0  0  0  0
   36.7860   25.9940   41.3260 H   0  0  0  0  0  0  0  0  0  0  0  0
   36.8770   27.2300   43.1340 C   0  0  0  0  0  0  0  0  0  0  0  0
   36.3610   26.5130   43.7380 H   0  0  0  0  0  0  0  0  0  0  0  0
   37.3050   28.4270   43.6760 C   0  0  0  0  0  3  0  0  0  0  0  0
   37.9590   29.2760   42.8080 C   0  0  0  0  0  3  0  0  0  0  0  0
   38.1780   28.9700   41.4960 N   0  0  0  0  0  0  0  0  0  0  0  0
   36.5890   30.8740   38.6870 C   0  0  0  0  0  0  0  0  0  0  0  0
   35.8070   31.5460   38.2770 H   0  0  0  0  0  0  0  0  0  0  0  0
   36.0760   30.3080   39.5080 H   0  0  0  0  0  0  0  0  0  0  0  0
   37.6640   31.6950   39.3120 C   0  0  0  0  0  0  0  0  0  0  0  0
   37.3750   32.4560   40.4930 C   0  0  0  0  0  0  0  0  0  0  0  0
   38.9770   33.2690   40.8600 S   0  0  0  0  0  0  0  0  0  0  0  0
   39.7730   32.4360   39.3450 C   0  0  0  0  0  0  0  0  0  0  0  0
   38.9030   31.8320   38.9230 N   0  0  0  0  0  0  0  0  0  0  0  0
   36.4290   32.5130   41.0100 H   0  0  0  0  0  0  0  0  0  0  0  0
   41.1160   32.6240   38.9770 O   0  0  0  0  0  0  0  0  0  0  0  0
   42.3610   31.3020   37.0460 O   0  0  0  0  0  0  0  0  0  0  0  0
   41.4800   32.5140   37.3190 P   0  0  0  0  0  0  0  0  0  0  0  0
   40.0300   32.3610   36.4670 O   0  0  0  0  0  0  0  0  0  0  0  0
   39.6280   31.4680   36.6190 H   0  0  0  0  0  0  0  0  0  0  0  0
   42.2550   33.9390   36.8180 O   0  0  0  0  0  0  0  0  0  0  0  0
   41.6010   34.5920   36.4410 H   0  0  0  0  0  0  0  0  0  0  0  0
  1  2  1  0  0  0  0
  1 21  1  0  0  0  0
  3  1  1  0  0  0  0
  4  1  1  0  0  0  0
  4  5  1  0  0  0  0
  5 12  1  0  0  0  0
  6  5  2  0  0  0  0
  6 10  1  0  0  0  0
  7  6  1  0  0  0  0
  8  9  1  0  0  0  0
  8  7  2  0  0  0  0
  9  4  2  0  0  0  0
 11  8  1  0  0  0  0
 12 13  1  0  0  0  0
 13 20  2  0  0  0  0
 13 14  1  0  0  0  0
 14 16  2  0  0  0  0
 15 14  1  0  0  0  0
 16 18  1  0  0  0  0
 16 17  1  0  0  0  0
 19 18  2  0  0  0  0
 20 19  1  0  0  0  0
 21 24  1  0  0  0  0
 21 23  1  0  0  0  0
 22 21  1  0  0  0  0
 24 25  2  0  0  0  0
 25 26  1  0  0  0  0
 25 29  1  0  0  0  0
 27 26  1  0  0  0  0
 28 24  1  0  0  0  0
 28 27  2  0  0  0  0
 30 27  1  0  0  0  0
 31 32  2  0  0  0  0
 32 30  1  0  0  0  0
 33 34  1  0  0  0  0
 33 32  1  0  0  0  0
 35 32  1  0  0  0  0
 36 35  1  0  0  0  0
M  END
>  <minimizedAffinity>
-5.66268063

$$$$

 OpenBabel03252507473D

 36 38  0  0  0  0  0  0  0  0999 V2000
   38.8510   29.9580   42.8230 C   0  0  0  0  0  0  0  0  0  0  0  0
   38.4450   30.2180   43.8400 H   0  0  0  0  0  0  0  0  0  0  0  0
   39.3620   28.9930   42.8860 H   0  0  0  0  0  0  0  0  0  0  0  0
   37.7300   29.9550   41.8780 C   0  0  0  0  0  0  0  0  0  0  0  0
   36.8940   28.8530   41.9280 C   0  0  0  0  0  0  0  0  0  0  0  0
   35.7900   28.7070   41.0950 C   0  0  0  0  0  0  0  0  0  0  0  0
   35.5770   29.7410   40.2050 N   0  0  0  0  0  0  0  0  0  0  0  0
   36.4080   30.8030   40.1810 C   0  0  0  0  0  0  0  0  0  0  0  0
   37.4480   30.8920   40.9980 N   0  0  0  0  0  0  0  0  0  0  0  0
   35.1390   27.8590   41.1260 H   0  0  0  0  0  0  0  0  0  0  0  0
   36.2440   31.6290   39.4760 H   0  0  0  0  0  0  0  0  0  0  0  0
   37.1970   27.5220   43.1270 S   0  0  0  0  0  0  0  0  0  0  0  0
   38.7020   26.6660   42.7610 C   0  0  0  0  0  0  0  0  0  0  0  0
   39.7370   26.3580   43.6390 C   0  0  0  0  0  0  0  0  0  0  0  0
   39.5650   26.6920   44.6350 H   0  0  0  0  0  0  0  0  0  0  0  0
   40.8370   25.6810   43.1640 C   0  0  0  0  0  0  0  0  0  0  0  0
   41.6100   25.4640   43.8730 H   0  0  0  0  0  0  0  0  0  0  0  0
   40.9650   25.2890   41.8450 C   0  0  0  0  0  3  0  0  0  0  0  0
   39.9100   25.6210   41.0200 C   0  0  0  0  0  3  0  0  0  0  0  0
   38.8060   26.2910   41.4600 N   0  0  0  0  0  0  0  0  0  0  0  0
   39.8860   30.9850   42.4790 C   0  0  0  0  0  0  0  0  0  0  0  0
   39.4690   31.9980   42.3030 H   0  0  0  0  0  0  0  0  0  0  0  0
   40.5580   31.1040   43.3690 H   0  0  0  0  0  0  0  0  0  0  0  0
   40.7400   30.5960   41.3220 C   0  0  0  0  0  0  0  0  0  0  0  0
   41.0790   29.2160   41.1280 C   0  0  0  0  0  0  0  0  0  0  0  0
   42.1140   29.2570   39.6140 S   0  0  0  0  0  0  0  0  0  0  0  0
   41.9110   31.1460   39.4990 C   0  0  0  0  0  0  0  0  0  0  0  0
   41.2540   31.3690   40.4040 N   0  0  0  0  0  0  0  0  0  0  0  0
   40.7800   28.3820   41.7450 H   0  0  0  0  0  0  0  0  0  0  0  0
   42.4920   31.9250   38.4830 O   0  0  0  0  0  0  0  0  0  0  0  0
   40.9450   34.0430   38.8600 O   0  0  0  0  0  0  0  0  0  0  0  0
   41.5130   33.1260   37.7840 P   0  0  0  0  0  0  0  0  0  0  0  0
   42.4610   34.0290   36.7170 O   0  0  0  0  0  0  0  0  0  0  0  0
   43.1060   34.5940   37.2150 H   0  0  0  0  0  0  0  0  0  0  0  0
   40.2600   32.3910   36.9060 O   0  0  0  0  0  0  0  0  0  0  0  0
   40.5050   32.2910   35.9430 H   0  0  0  0  0  0  0  0  0  0  0  0
  1  3  1  0  0  0  0
  1  2  1  0  0  0  0
  4  5  1  0  0  0  0
  4  1  1  0  0  0  0
  5 12  1  0  0  0  0
  6 10  1  0  0  0  0
  6  5  2  0  0  0  0
  7  6  1  0  0  0  0
  8  7  2  0  0  0  0
  8  9  1  0  0  0  0
  9  4  2  0  0  0  0
 11  8  1  0  0  0  0
 13 12  1  0  0  0  0
 13 14  1  0  0  0  0
 14 15  1  0  0  0  0
 16 14  2  0  0  0  0
 16 17  1  0  0  0  0
 18 16  1  0  0  0  0
 19 20  1  0  0  0  0
 19 18  2  0  0  0  0
 20 13  2  0  0  0  0
 21  1  1  0  0  0  0
 21 23  1  0  0  0  0
 22 21  1  0  0  0  0
 24 21  1  0  0  0  0
 25 24  2  0  0  0  0
 25 29  1  0  0  0  0
 26 25  1  0  0  0  0
 27 26  1  0  0  0  0
 27 28  2  0  0  0  0
 28 24  1  0  0  0  0
 30 27  1  0  0  0  0
 32 30  1  0  0  0  0
 32 31  2  0  0  0  0
 33 34  1  0  0  0  0
 33 32  1  0  0  0  0
 35 32  1  0  0  0  0
 36 35  1  0  0  0  0
M  END
>  <minimizedAffinity>
-5.64945793

$$$$

 OpenBabel03252507473D

 36 38  0  0  0  0  0  0  0  0999 V2000
   36.6870   27.2190   42.2870 C   0  0  0  0  0  0  0  0  0  0  0  0
   36.6000   28.0140   41.4950 H   0  0  0  0  0  0  0  0  0  0  0  0
   35.7180   27.1100   42.7820 H   0  0  0  0  0  0  0  0  0  0  0  0
   37.1440   25.9860   41.6390 C   0  0  0  0  0  0  0  0  0  0  0  0
   37.4980   26.0930   40.3060 C   0  0  0  0  0  0  0  0  0  0  0  0
   37.9500   25.0120   39.5570 C   0  0  0  0  0  0  0  0  0  0  0  0
   38.0250   23.8100   40.2340 N   0  0  0  0  0  0  0  0  0  0  0  0
   37.6730   23.7370   41.5340 C   0  0  0  0  0  0  0  0  0  0  0  0
   37.2480   24.8010   42.2020 N   0  0  0  0  0  0  0  0  0  0  0  0
   38.2250   25.0850   38.5260 H   0  0  0  0  0  0  0  0  0  0  0  0
   37.7300   22.7850   42.0790 H   0  0  0  0  0  0  0  0  0  0  0  0
   37.4050   27.6960   39.4550 S   0  0  0  0  0  0  0  0  0  0  0  0
   35.8580   27.8810   38.6140 C   0  0  0  0  0  0  0  0  0  0  0  0
   34.8790   28.8420   38.8450 C   0  0  0  0  0  0  0  0  0  0  0  0
   35.1260   29.5260   39.6230 H   0  0  0  0  0  0  0  0  0  0  0  0
   33.7330   28.8250   38.0820 C   0  0  0  0  0  0  0  0  0  0  0  0
   33.0060   29.5810   38.2920 H   0  0  0  0  0  0  0  0  0  0  0  0
   33.5070   27.8900   37.0900 C   0  0  0  0  0  3  0  0  0  0  0  0
   34.5110   26.9620   36.9050 C   0  0  0  0  0  3  0  0  0  0  0  0
   35.6580   26.9530   37.6440 N   0  0  0  0  0  0  0  0  0  0  0  0
   37.6550   27.7170   43.3150 C   0  0  0  0  0  0  0  0  0  0  0  0
   37.1720   28.0840   44.2450 H   0  0  0  0  0  0  0  0  0  0  0  0
   38.2810   26.8480   43.6440 H   0  0  0  0  0  0  0  0  0  0  0  0
   38.5800   28.7640   42.7950 C   0  0  0  0  0  0  0  0  0  0  0  0
   39.9970   28.5770   42.9160 C   0  0  0  0  0  0  0  0  0  0  0  0
   40.6780   30.0970   42.1500 S   0  0  0  0  0  0  0  0  0  0  0  0
   38.9190   30.7330   41.7920 C   0  0  0  0  0  0  0  0  0  0  0  0
   38.2740   29.8910   42.2120 N   0  0  0  0  0  0  0  0  0  0  0  0
   40.5030   27.7330   43.3590 H   0  0  0  0  0  0  0  0  0  0  0  0
   38.6550   31.9590   41.1590 O   0  0  0  0  0  0  0  0  0  0  0  0
   37.4720   31.2680   38.8910 O   0  0  0  0  0  0  0  0  0  0  0  0
   37.2600   32.0360   40.1890 P   0  0  0  0  0  0  0  0  0  0  0  0
   35.9780   31.3500   41.0480 O   0  0  0  0  0  0  0  0  0  0  0  0
   36.0910   30.3670   41.1180 H   0  0  0  0  0  0  0  0  0  0  0  0
   36.8880   33.6600   39.8660 O   0  0  0  0  0  0  0  0  0  0  0  0
   36.2260   34.0160   40.5230 H   0  0  0  0  0  0  0  0  0  0  0  0
  1  3  1  0  0  0  0
  1 21  1  0  0  0  0
  2  1  1  0  0  0  0
  4  9  1  0  0  0  0
  4  1  1  0  0  0  0
  5  4  2  0  0  0  0
  6  7  2  0  0  0  0
  6  5  1  0  0  0  0
  7  8  1  0  0  0  0
  8 11  1  0  0  0  0
  8  9  2  0  0  0  0
 10  6  1  0  0  0  0
 12  5  1  0  0  0  0
 13 14  1  0  0  0  0
 13 12  1  0  0  0  0
 14 15  1  0  0  0  0
 16 17  1  0  0  0  0
 16 14  2  0  0  0  0
 18 16  1  0  0  0  0
 19 18  2  0  0  0  0
 19 20  1  0  0  0  0
 20 13  2  0  0  0  0
 21 23  1  0  0  0  0
 21 22  1  0  0  0  0
 24 25  2  0  0  0  0
 24 21  1  0  0  0  0
 25 29  1  0  0  0  0
 26 25  1  0  0  0  0
 27 26  1  0  0  0  0
 27 28  2  0  0  0  0
 28 24  1  0  0  0  0
 30 27  1  0  0  0  0
 31 32  2  0  0  0  0
 32 33  1  0  0  0  0
 32 30  1  0  0  0  0
 33 34  1  0  0  0  0
 35 32  1  0  0  0  0
 35 36  1  0  0  0  0
M  END
>  <minimizedAffinity>
-5.62186575

$$$$

 OpenBabel03252507473D

 36 38  0  0  0  0  0  0  0  0999 V2000
   34.6910   28.2660   38.4090 C   0  0  0  0  0  0  0  0  0  0  0  0
   33.6770   27.8300   38.1920 H   0  0  0  0  0  0  0  0  0  0  0  0
   35.3200   27.4890   38.8510 H   0  0  0  0  0  0  0  0  0  0  0  0
   35.2300   28.7980   37.1530 C   0  0  0  0  0  0  0  0  0  0  0  0
   34.3370   28.9020   36.1020 C   0  0  0  0  0  0  0  0  0  0  0  0
   34.6990   29.3880   34.8500 C   0  0  0  0  0  0  0  0  0  0  0  0
   36.0220   29.7640   34.7200 N   0  0  0  0  0  0  0  0  0  0  0  0
   36.8690   29.6510   35.7620 C   0  0  0  0  0  0  0  0  0  0  0  0
   36.4710   29.1810   36.9370 N   0  0  0  0  0  0  0  0  0  0  0  0
   34.0160   29.4710   34.0320 H   0  0  0  0  0  0  0  0  0  0  0  0
   37.9220   29.9490   35.6660 H   0  0  0  0  0  0  0  0  0  0  0  0
   32.5990   28.4160   36.3190 S   0  0  0  0  0  0  0  0  0  0  0  0
   31.5710   29.8320   36.5840 C   0  0  0  0  0  0  0  0  0  0  0  0
   31.3380   30.8860   35.7060 C   0  0  0  0  0  0  0  0  0  0  0  0
   31.8540   30.7920   34.7800 H   0  0  0  0  0  0  0  0  0  0  0  0
   30.5000   31.9060   36.0940 C   0  0  0  0  0  0  0  0  0  0  0  0
   30.3480   32.6970   35.3880 H   0  0  0  0  0  0  0  0  0  0  0  0
   29.8740   31.9340   37.3250 C   0  0  0  0  0  3  0  0  0  0  0  0
   30.1410   30.8650   38.1550 C   0  0  0  0  0  3  0  0  0  0  0  0
   30.9670   29.8390   37.8000 N   0  0  0  0  0  0  0  0  0  0  0  0
   34.5070   29.3300   39.4470 C   0  0  0  0  0  0  0  0  0  0  0  0
   34.1860   30.3090   39.0340 H   0  0  0  0  0  0  0  0  0  0  0  0
   33.6650   29.0130   40.1150 H   0  0  0  0  0  0  0  0  0  0  0  0
   35.7090   29.5300   40.3050 C   0  0  0  0  0  0  0  0  0  0  0  0
   36.0590   28.5290   41.2720 C   0  0  0  0  0  0  0  0  0  0  0  0
   37.5680   29.2220   42.0500 S   0  0  0  0  0  0  0  0  0  0  0  0
   37.4700   30.7580   40.9290 C   0  0  0  0  0  0  0  0  0  0  0  0
   36.5390   30.5370   40.3080 N   0  0  0  0  0  0  0  0  0  0  0  0
   35.5360   27.6060   41.4670 H   0  0  0  0  0  0  0  0  0  0  0  0
   38.3970   31.8120   40.9800 O   0  0  0  0  0  0  0  0  0  0  0  0
   39.3330   34.0770   39.9720 O   0  0  0  0  0  0  0  0  0  0  0  0
   38.2670   33.0060   39.7760 P   0  0  0  0  0  0  0  0  0  0  0  0
   38.4770   32.2680   38.2720 O   0  0  0  0  0  0  0  0  0  0  0  0
   39.4210   31.9930   38.1470 H   0  0  0  0  0  0  0  0  0  0  0  0
   36.7160   33.6940   39.8320 O   0  0  0  0  0  0  0  0  0  0  0  0
   36.0990   33.2420   39.1890 H   0  0  0  0  0  0  0  0  0  0  0  0
  1  3  1  0  0  0  0
  1 21  1  0  0  0  0
  2  1  1  0  0  0  0
  4  1  1  0  0  0  0
  5 12  1  0  0  0  0
  5  4  2  0  0  0  0
  6  5  1  0  0  0  0
  7  6  2  0  0  0  0
  7  8  1  0  0  0  0
  8  9  2  0  0  0  0
  9  4  1  0  0  0  0
 10  6  1  0  0  0  0
 11  8  1  0  0  0  0
 12 13  1  0  0  0  0
 13 20  1  0  0  0  0
 14 16  1  0  0  0  0
 14 13  2  0  0  0  0
 15 14  1  0  0  0  0
 16 18  2  0  0  0  0
 17 16  1  0  0  0  0
 18 19  1  0  0  0  0
 20 19  2  0  0  0  0
 21 23  1  0  0  0  0
 21 24  1  0  0  0  0
 22 21  1  0  0  0  0
 24 28  1  0  0  0  0
 24 25  2  0  0  0  0
 25 29  1  0  0  0  0
 25 26  1  0  0  0  0
 27 30  1  0  0  0  0
 27 26  1  0  0  0  0
 28 27  2  0  0  0  0
 32 35  1  0  0  0  0
 32 31  2  0  0  0  0
 32 30  1  0  0  0  0
 33 32  1  0  0  0  0
 34 33  1  0  0  0  0
 36 35  1  0  0  0  0
M  END
>  <minimizedAffinity>
-5.41936016

$$$$

 OpenBabel03252507473D

 36 38  0  0  0  0  0  0  0  0999 V2000
   40.0930   29.9440   41.9220 C   0  0  0  0  0  0  0  0  0  0  0  0
   39.8510   29.1130   42.6410 H   0  0  0  0  0  0  0  0  0  0  0  0
   40.8990   29.6140   41.2620 H   0  0  0  0  0  0  0  0  0  0  0  0
   38.8630   30.2870   41.2010 C   0  0  0  0  0  0  0  0  0  0  0  0
   37.6840   29.8040   41.7420 C   0  0  0  0  0  0  0  0  0  0  0  0
   36.4390   30.0460   41.1730 C   0  0  0  0  0  0  0  0  0  0  0  0
   36.4510   30.8070   40.0200 N   0  0  0  0  0  0  0  0  0  0  0  0
   37.6150   31.2640   39.5170 C   0  0  0  0  0  0  0  0  0  0  0  0
   38.7770   31.0040   40.1010 N   0  0  0  0  0  0  0  0  0  0  0  0
   35.5240   29.6760   41.5840 H   0  0  0  0  0  0  0  0  0  0  0  0
   37.6320   31.8700   38.6010 H   0  0  0  0  0  0  0  0  0  0  0  0
   37.7080   28.8230   43.2720 S   0  0  0  0  0  0  0  0  0  0  0  0
   38.0720   27.1250   42.9330 C   0  0  0  0  0  0  0  0  0  0  0  0
   39.2710   26.4540   43.1550 C   0  0  0  0  0  0  0  0  0  0  0  0
   40.0310   27.0680   43.5790 H   0  0  0  0  0  0  0  0  0  0  0  0
   39.3630   25.1220   42.8240 C   0  0  0  0  0  0  0  0  0  0  0  0
   40.3030   24.6450   43.0110 H   0  0  0  0  0  0  0  0  0  0  0  0
   38.3120   24.4120   42.2750 C   0  0  0  0  0  3  0  0  0  0  0  0
   37.1490   25.1250   42.0770 C   0  0  0  0  0  3  0  0  0  0  0  0
   37.0260   26.4470   42.3950 N   0  0  0  0  0  0  0  0  0  0  0  0
   40.6220   31.0920   42.7260 C   0  0  0  0  0  0  0  0  0  0  0  0
   39.8710   31.8850   42.9240 H   0  0  0  0  0  0  0  0  0  0  0  0
   40.8960   30.7000   43.7410 H   0  0  0  0  0  0  0  0  0  0  0  0
   41.8450   31.7080   42.1390 C   0  0  0  0  0  0  0  0  0  0  0  0
   43.0790   31.6620   42.8690 C   0  0  0  0  0  0  0  0  0  0  0  0
   44.2470   32.5310   41.7540 S   0  0  0  0  0  0  0  0  0  0  0  0
   42.8610   32.8110   40.4800 C   0  0  0  0  0  0  0  0  0  0  0  0
   41.9680   32.3190   40.9910 N   0  0  0  0  0  0  0  0  0  0  0  0
   43.2420   31.2160   43.8380 H   0  0  0  0  0  0  0  0  0  0  0  0
   43.0570   33.4790   39.2590 O   0  0  0  0  0  0  0  0  0  0  0  0
   42.1140   31.6370   37.6030 O   0  0  0  0  0  0  0  0  0  0  0  0
   41.9790   33.1020   37.9980 P   0  0  0  0  0  0  0  0  0  0  0  0
   40.4060   33.3990   38.5380 O   0  0  0  0  0  0  0  0  0  0  0  0
   40.1350   32.7230   39.2100 H   0  0  0  0  0  0  0  0  0  0  0  0
   42.2950   34.1080   36.6690 O   0  0  0  0  0  0  0  0  0  0  0  0
   41.7080   34.9160   36.6800 H   0  0  0  0  0  0  0  0  0  0  0  0
  1  2  1  0  0  0  0
  1 21  1  0  0  0  0
  3  1  1  0  0  0  0
  4  5  1  0  0  0  0
  4  1  1  0  0  0  0
  5 12  1  0  0  0  0
  6 10  1  0  0  0  0
  6  5  2  0  0  0  0
  7  6  1  0  0  0  0
  8  7  2  0  0  0  0
  8  9  1  0  0  0  0
  9  4  2  0  0  0  0
 11  8  1  0  0  0  0
 13 14  1  0  0  0  0
 13 12  1  0  0  0  0
 14 15  1  0  0  0  0
 16 17  1  0  0  0  0
 16 14  2  0  0  0  0
 18 16  1  0  0  0  0
 19 18  2  0  0  0  0
 19 20  1  0  0  0  0
 20 13  2  0  0  0  0
 21 22  1  0  0  0  0
 21 23  1  0  0  0  0
 24 21  1  0  0  0  0
 24 25  2  0  0  0  0
 25 29  1  0  0  0  0
 26 25  1  0  0  0  0
 27 28  2  0  0  0  0
 27 26  1  0  0  0  0
 28 24  1  0  0  0  0
 30 27  1  0  0  0  0
 31 32  2  0  0  0  0
 32 33  1  0  0  0  0
 32 30  1  0  0  0  0
 33 34  1  0  0  0  0
 35 36  1  0  0  0  0
 35 32  1  0  0  0  0
M  END
>  <minimizedAffinity>
-5.36691618

$$$$

 OpenBabel03252507473D

 36 38  0  0  0  0  0  0  0  0999 V2000
   38.6220   27.6470   43.3950 C   0  0  0  0  0  0  0  0  0  0  0  0
   38.0870   26.9780   42.6670 H   0  0  0  0  0  0  0  0  0  0  0  0
   38.4910   27.2460   44.4040 H   0  0  0  0  0  0  0  0  0  0  0  0
   40.0280   27.7240   42.9860 C   0  0  0  0  0  0  0  0  0  0  0  0
   40.6930   26.5180   42.8610 C   0  0  0  0  0  0  0  0  0  0  0  0
   42.0280   26.4290   42.4810 C   0  0  0  0  0  0  0  0  0  0  0  0
   42.6560   27.6330   42.2340 N   0  0  0  0  0  0  0  0  0  0  0  0
   41.9820   28.7940   42.3640 C   0  0  0  0  0  0  0  0  0  0  0  0
   40.7070   28.8220   42.7290 N   0  0  0  0  0  0  0  0  0  0  0  0
   42.5500   25.5000   42.3820 H   0  0  0  0  0  0  0  0  0  0  0  0
   42.4750   29.7550   42.1690 H   0  0  0  0  0  0  0  0  0  0  0  0
   39.8260   24.9520   43.1750 S   0  0  0  0  0  0  0  0  0  0  0  0
   38.6450   24.6120   41.9010 C   0  0  0  0  0  0  0  0  0  0  0  0
   37.2660   24.4850   42.0350 C   0  0  0  0  0  0  0  0  0  0  0  0
   36.9210   24.6150   43.0340 H   0  0  0  0  0  0  0  0  0  0  0  0
   36.5070   24.2180   40.9190 C   0  0  0  0  0  0  0  0  0  0  0  0
   35.4510   24.1280   41.0670 H   0  0  0  0  0  0  0  0  0  0  0  0
   37.0550   24.0660   39.6590 C   0  0  0  0  0  3  0  0  0  0  0  0
   38.4260   24.2020   39.5840 C   0  0  0  0  0  3  0  0  0  0  0  0
   39.2060   24.4680   40.6720 N   0  0  0  0  0  0  0  0  0  0  0  0
   37.9430   28.9820   43.3580 C   0  0  0  0  0  0  0  0  0  0  0  0
   37.3170   29.1900   44.2510 H   0  0  0  0  0  0  0  0  0  0  0  0
   38.7380   29.7710   43.3780 H   0  0  0  0  0  0  0  0  0  0  0  0
   37.1300   29.1950   42.1270 C   0  0  0  0  0  0  0  0  0  0  0  0
   36.1800   28.1970   41.7280 C   0  0  0  0  0  0  0  0  0  0  0  0
   35.4590   28.9080   40.1990 S   0  0  0  0  0  0  0  0  0  0  0  0
   36.5710   30.4440   40.3590 C   0  0  0  0  0  0  0  0  0  0  0  0
   37.1560   30.2140   41.3110 N   0  0  0  0  0  0  0  0  0  0  0  0
   35.9690   27.2660   42.2300 H   0  0  0  0  0  0  0  0  0  0  0  0
   36.5520   31.5110   39.4450 O   0  0  0  0  0  0  0  0  0  0  0  0
   38.9830   32.2770   38.7200 O   0  0  0  0  0  0  0  0  0  0  0  0
   37.7930   32.6650   39.5880 P   0  0  0  0  0  0  0  0  0  0  0  0
   37.1890   34.1590   39.0820 O   0  0  0  0  0  0  0  0  0  0  0  0
   37.0530   34.1660   38.1000 H   0  0  0  0  0  0  0  0  0  0  0  0
   38.2590   32.7920   41.2150 O   0  0  0  0  0  0  0  0  0  0  0  0
   37.7700   33.5330   41.6730 H   0  0  0  0  0  0  0  0  0  0  0  0
  1  3  1  0  0  0  0
  2  1  1  0  0  0  0
  4  1  1  0  0  0  0
  5  4  1  0  0  0  0
  5 12  1  0  0  0  0
  6  5  2  0  0  0  0
  7  8  2  0  0  0  0
  7  6  1  0  0  0  0
  8  9  1  0  0  0  0
  9  4  2  0  0  0  0
 10  6  1  0  0  0  0
 11  8  1  0  0  0  0
 13 14  1  0  0  0  0
 13 12  1  0  0  0  0
 14 15  1  0  0  0  0
 16 17  1  0  0  0  0
 16 14  2  0  0  0  0
 18 16  1  0  0  0  0
 19 18  2  0  0  0  0
 19 20  1  0  0  0  0
 20 13  2  0  0  0  0
 21 23  1  0  0  0  0
 21  1  1  0  0  0  0
 21 22  1  0  0  0  0
 24 21  1  0  0  0  0
 25 24  2  0  0  0  0
 25 29  1  0  0  0  0
 26 27  1  0  0  0  0
 26 25  1  0  0  0  0
 27 28  2  0  0  0  0
 28 24  1  0  0  0  0
 30 32  1  0  0  0  0
 30 27  1  0  0  0  0
 31 32  2  0  0  0  0
 32 35  1  0  0  0  0
 33 32  1  0  0  0  0
 34 33  1  0  0  0  0
 35 36  1  0  0  0  0
M  END
>  <minimizedAffinity>
-5.36291552

$$$$

 OpenBabel03252507473D

 36 38  0  0  0  0  0  0  0  0999 V2000
   36.9080   29.8820   38.3870 C   0  0  0  0  0  0  0  0  0  0  0  0
   36.8320   30.1170   37.2890 H   0  0  0  0  0  0  0  0  0  0  0  0
   37.5790   29.0290   38.5180 H   0  0  0  0  0  0  0  0  0  0  0  0
   37.3720   31.0900   39.0760 C   0  0  0  0  0  0  0  0  0  0  0  0
   38.3790   30.9100   40.0090 C   0  0  0  0  0  0  0  0  0  0  0  0
   38.9230   31.9590   40.7420 C   0  0  0  0  0  0  0  0  0  0  0  0
   38.3900   33.2060   40.4790 N   0  0  0  0  0  0  0  0  0  0  0  0
   37.4100   33.3500   39.5640 C   0  0  0  0  0  0  0  0  0  0  0  0
   36.9270   32.3140   38.8910 N   0  0  0  0  0  0  0  0  0  0  0  0
   39.7000   31.8300   41.4650 H   0  0  0  0  0  0  0  0  0  0  0  0
   36.9820   34.3380   39.3500 H   0  0  0  0  0  0  0  0  0  0  0  0
   39.0680   29.2560   40.3120 S   0  0  0  0  0  0  0  0  0  0  0  0
   38.1630   28.4120   41.5780 C   0  0  0  0  0  0  0  0  0  0  0  0
   37.7860   28.9070   42.8220 C   0  0  0  0  0  0  0  0  0  0  0  0
   38.0950   29.9120   42.9940 H   0  0  0  0  0  0  0  0  0  0  0  0
   37.0800   28.0940   43.6790 C   0  0  0  0  0  0  0  0  0  0  0  0
   36.8100   28.5130   44.6260 H   0  0  0  0  0  0  0  0  0  0  0  0
   36.7250   26.7970   43.3590 C   0  0  0  0  0  3  0  0  0  0  0  0
   37.1250   26.3590   42.1140 C   0  0  0  0  0  3  0  0  0  0  0  0
   37.8260   27.1410   41.2420 N   0  0  0  0  0  0  0  0  0  0  0  0
   35.5490   29.4490   38.8450 C   0  0  0  0  0  0  0  0  0  0  0  0
   35.5600   28.5450   39.4890 H   0  0  0  0  0  0  0  0  0  0  0  0
   35.1360   30.2600   39.5010 H   0  0  0  0  0  0  0  0  0  0  0  0
   34.5870   29.2440   37.7250 C   0  0  0  0  0  0  0  0  0  0  0  0
   35.0860   28.9860   36.4060 C   0  0  0  0  0  0  0  0  0  0  0  0
   33.5520   28.8120   35.4150 S   0  0  0  0  0  0  0  0  0  0  0  0
   32.4890   29.1210   36.9630 C   0  0  0  0  0  0  0  0  0  0  0  0
   33.2820   29.2660   37.7700 N   0  0  0  0  0  0  0  0  0  0  0  0
   36.1200   28.9180   36.1060 H   0  0  0  0  0  0  0  0  0  0  0  0
   31.0840   29.1320   36.9460 O   0  0  0  0  0  0  0  0  0  0  0  0
   30.3100   31.5150   37.8080 O   0  0  0  0  0  0  0  0  0  0  0  0
   30.3090   30.0340   38.1620 P   0  0  0  0  0  0  0  0  0  0  0  0
   28.7170   29.4860   38.2970 O   0  0  0  0  0  0  0  0  0  0  0  0
   28.1860   29.7610   37.5070 H   0  0  0  0  0  0  0  0  0  0  0  0
   31.0990   29.7760   39.6420 O   0  0  0  0  0  0  0  0  0  0  0  0
   30.6590   29.0460   40.1630 H   0  0  0  0  0  0  0  0  0  0  0  0
  1  3  1  0  0  0  0
  1 21  1  0  0  0  0
  1  4  1  0  0  0  0
  2  1  1  0  0  0  0
  4  5  1  0  0  0  0
  5 12  1  0  0  0  0
  5  6  2  0  0  0  0
  6 10  1  0  0  0  0
  7  6  1  0  0  0  0
  8  7  2  0  0  0  0
  9  4  2  0  0  0  0
  9  8  1  0  0  0  0
 11  8  1  0  0  0  0
 12 13  1  0  0  0  0
 13 14  1  0  0  0  0
 14 15  1  0  0  0  0
 14 16  2  0  0  0  0
 16 17  1  0  0  0  0
 18 16  1  0  0  0  0
 19 18  2  0  0  0  0
 20 13  2  0  0  0  0
 20 19  1  0  0  0  0
 21 22  1  0  0  0  0
 21 23  1  0  0  0  0
 24 28  1  0  0  0  0
 24 21  1  0  0  0  0
 25 24  2  0  0  0  0
 26 25  1  0  0  0  0
 26 27  1  0  0  0  0
 27 28  2  0  0  0  0
 29 25  1  0  0  0  0
 30 27  1  0  0  0  0
 30 32  1  0  0  0  0
 31 32  2  0  0  0  0
 32 33  1  0  0  0  0
 32 35  1  0  0  0  0
 34 33  1  0  0  0  0
 35 36  1  0  0  0  0
M  END
>  <minimizedAffinity>
-5.33501482

$$$$

 OpenBabel03252507473D

 36 38  0  0  0  0  0  0  0  0999 V2000
   36.1970   30.6100   40.4800 C   0  0  0  0  0  0  0  0  0  0  0  0
   37.1170   30.8200   41.0930 H   0  0  0  0  0  0  0  0  0  0  0  0
   35.4420   31.3660   40.7110 H   0  0  0  0  0  0  0  0  0  0  0  0
   36.5890   30.6010   39.0670 C   0  0  0  0  0  0  0  0  0  0  0  0
   37.2370   31.7340   38.6070 C   0  0  0  0  0  0  0  0  0  0  0  0
   37.6700   31.8740   37.2930 C   0  0  0  0  0  0  0  0  0  0  0  0
   37.4100   30.8000   36.4650 N   0  0  0  0  0  0  0  0  0  0  0  0
   36.7770   29.7080   36.9420 C   0  0  0  0  0  0  0  0  0  0  0  0
   36.3850   29.6270   38.2060 N   0  0  0  0  0  0  0  0  0  0  0  0
   38.1700   32.7460   36.9290 H   0  0  0  0  0  0  0  0  0  0  0  0
   36.5670   28.8500   36.2890 H   0  0  0  0  0  0  0  0  0  0  0  0
   37.5790   33.1190   39.7330 S   0  0  0  0  0  0  0  0  0  0  0  0
   39.2840   33.1460   40.2080 C   0  0  0  0  0  0  0  0  0  0  0  0
   40.2110   34.1580   39.9790 C   0  0  0  0  0  0  0  0  0  0  0  0
   39.8100   34.9950   39.4570 H   0  0  0  0  0  0  0  0  0  0  0  0
   41.5020   33.9960   40.4280 C   0  0  0  0  0  0  0  0  0  0  0  0
   42.1830   34.7980   40.2320 H   0  0  0  0  0  0  0  0  0  0  0  0
   41.9250   32.8650   41.1010 C   0  0  0  0  0  3  0  0  0  0  0  0
   40.9650   31.8950   41.2990 C   0  0  0  0  0  3  0  0  0  0  0  0
   39.6780   32.0260   40.8670 N   0  0  0  0  0  0  0  0  0  0  0  0
   35.6520   29.2890   40.9300 C   0  0  0  0  0  0  0  0  0  0  0  0
   34.7040   29.3670   41.5010 H   0  0  0  0  0  0  0  0  0  0  0  0
   35.3850   28.7000   40.0140 H   0  0  0  0  0  0  0  0  0  0  0  0
   36.6320   28.4830   41.7120 C   0  0  0  0  0  0  0  0  0  0  0  0
   37.6160   29.1520   42.5130 C   0  0  0  0  0  0  0  0  0  0  0  0
   38.5540   27.7620   43.2540 S   0  0  0  0  0  0  0  0  0  0  0  0
   37.4510   26.5030   42.3490 C   0  0  0  0  0  0  0  0  0  0  0  0
   36.7340   27.1830   41.7790 N   0  0  0  0  0  0  0  0  0  0  0  0
   37.7430   30.2180   42.6270 H   0  0  0  0  0  0  0  0  0  0  0  0
   37.6120   25.1120   42.4630 O   0  0  0  0  0  0  0  0  0  0  0  0
   36.0340   23.8500   40.7480 O   0  0  0  0  0  0  0  0  0  0  0  0
   37.4890   24.2050   41.0290 P   0  0  0  0  0  0  0  0  0  0  0  0
   38.0980   25.1360   39.7590 O   0  0  0  0  0  0  0  0  0  0  0  0
   37.4830   25.8850   39.5490 H   0  0  0  0  0  0  0  0  0  0  0  0
   38.4290   22.7990   41.1700 O   0  0  0  0  0  0  0  0  0  0  0  0
   39.3400   22.9350   40.7870 H   0  0  0  0  0  0  0  0  0  0  0  0
  1  3  1  0  0  0  0
  1 21  1  0  0  0  0
  1  2  1  0  0  0  0
  4  1  1  0  0  0  0
  5  4  1  0  0  0  0
  5 12  1  0  0  0  0
  6  5  2  0  0  0  0
  7  8  2  0  0  0  0
  7  6  1  0  0  0  0
  8  9  1  0  0  0  0
  9  4  2  0  0  0  0
 10  6  1  0  0  0  0
 11  8  1  0  0  0  0
 12 13  1  0  0  0  0
 13 20  1  0  0  0  0
 14 13  2  0  0  0  0
 14 16  1  0  0  0  0
 15 14  1  0  0  0  0
 16 18  2  0  0  0  0
 17 16  1  0  0  0  0
 18 19  1  0  0  0  0
 20 19  2  0  0  0  0
 21 22  1  0  0  0  0
 21 24  1  0  0  0  0
 23 21  1  0  0  0  0
 24 28  1  0  0  0  0
 24 25  2  0  0  0  0
 25 29  1  0  0  0  0
 25 26  1  0  0  0  0
 27 30  1  0  0  0  0
 27 26  1  0  0  0  0
 28 27  2  0  0  0  0
 31 32  2  0  0  0  0
 32 35  1  0  0  0  0
 32 30  1  0  0  0  0
 33 32  1  0  0  0  0
 34 33  1  0  0  0  0
 36 35  1  0  0  0  0
M  END
>  <minimizedAffinity>
-5.22843361

$$$$
