
 OpenBabel03242519403D

 26 27  0  0  0  0  0  0  0  0999 V2000
   37.6510   28.9450   38.6470 O   0  0  0  0  0  0  0  0  0  0  0  0
   36.5620   30.0010   38.8480 P   0  0  2  0  0  0  0  0  0  0  0  0
   37.1570   31.5140   38.2710 O   0  0  0  0  0  0  0  0  0  0  0  0
   38.4710   34.1590   40.4460 C   0  0  0  0  0  0  0  0  0  0  0  0
   37.5700   33.4150   39.6480 C   0  0  0  0  0  0  0  0  0  0  0  0
   38.0480   32.2400   39.0550 C   0  0  0  0  0  0  0  0  0  0  0  0
   39.3300   31.8650   39.2620 N   0  0  0  0  0  0  0  0  0  0  0  0
   40.1640   32.6030   40.0340 C   0  0  0  0  0  0  0  0  0  0  0  0
   39.7500   33.7330   40.6210 N   0  0  0  0  0  0  0  0  0  0  0  0
   38.0800   35.0490   40.8860 H   0  0  0  0  0  0  0  0  0  0  0  0
   36.5560   33.7170   39.4870 H   0  0  0  0  0  0  0  0  0  0  0  0
   41.1970   32.3100   40.2080 H   0  0  0  0  0  0  0  0  0  0  0  0
   36.0970   30.1600   40.4320 O   0  0  0  0  0  0  0  0  0  0  0  0
   36.6930   29.3780   41.4130 C   0  0  0  0  0  0  0  0  0  0  0  0
   36.3100   28.1280   41.8550 C   0  0  0  0  0  0  0  0  0  0  0  0
   35.4400   27.7280   41.3670 H   0  0  0  0  0  0  0  0  0  0  0  0
   37.0240   27.4910   42.8480 C   0  0  0  0  0  0  0  0  0  0  0  0
   36.7060   26.5160   43.1780 H   0  0  0  0  0  0  0  0  0  0  0  0
   38.1310   28.1530   43.3780 C   0  0  0  0  0  3  0  0  0  0  0  0
   38.5120   29.4190   42.9230 C   0  0  0  0  0  3  0  0  0  0  0  0
   37.7790   29.9940   41.9520 N   0  0  0  0  0  0  0  0  0  0  0  0
   35.2520   29.5720   37.8630 O   0  0  0  0  0  0  0  0  0  0  0  0
   34.4540   28.6030   38.4340 C   0  0  0  0  0  0  0  0  0  0  0  0
   35.1450   27.4780   38.8330 F   0  0  0  0  0  0  0  0  0  0  0  0
   33.6940   29.1510   39.4520 F   0  0  0  0  0  0  0  0  0  0  0  0
   33.5600   28.1940   37.4460 F   0  0  0  0  0  0  0  0  0  0  0  0
  2  1  2  6  0  0  0
  2 13  1  0  0  0  0
  3  2  1  0  0  0  0
  3  6  1  0  0  0  0
  4  9  1  0  0  0  0
  4 10  1  0  0  0  0
  5  4  2  0  0  0  0
  6  7  2  0  0  0  0
  6  5  1  0  0  0  0
  7  8  1  0  0  0  0
  8 12  1  0  0  0  0
  8  9  2  0  0  0  0
 11  5  1  0  0  0  0
 13 14  1  0  0  0  0
 14 15  2  0  0  0  0
 14 21  1  0  0  0  0
 15 17  1  0  0  0  0
 16 15  1  0  0  0  0
 17 18  1  0  0  0  0
 17 19  2  0  0  0  0
 20 19  1  0  0  0  0
 21 20  2  0  0  0  0
 22 23  1  0  0  0  0
 22  2  1  0  0  0  0
 23 24  1  0  0  0  0
 23 25  1  0  0  0  0
 26 23  1  0  0  0  0
M  END
>  <minimizedAffinity>
-4.98645878

$$$$

 OpenBabel03242519403D

 26 27  0  0  0  0  0  0  0  0999 V2000
   37.5110   28.9110   39.9560 O   0  0  0  0  0  0  0  0  0  0  0  0
   36.5340   29.4140   41.0220 P   0  0  2  0  0  0  0  0  0  0  0  0
   36.5350   31.1380   40.9920 O   0  0  0  0  0  0  0  0  0  0  0  0
   38.9370   33.6410   39.7980 C   0  0  0  0  0  0  0  0  0  0  0  0
   37.7180   32.9480   39.9860 C   0  0  0  0  0  0  0  0  0  0  0  0
   37.7370   31.8160   40.8110 C   0  0  0  0  0  0  0  0  0  0  0  0
   38.8980   31.4330   41.3880 N   0  0  0  0  0  0  0  0  0  0  0  0
   40.0470   32.1230   41.1840 C   0  0  0  0  0  0  0  0  0  0  0  0
   40.0750   33.2110   40.4030 N   0  0  0  0  0  0  0  0  0  0  0  0
   38.8930   34.4990   39.1650 H   0  0  0  0  0  0  0  0  0  0  0  0
   36.8010   33.2550   39.5270 H   0  0  0  0  0  0  0  0  0  0  0  0
   40.9860   31.8250   41.6430 H   0  0  0  0  0  0  0  0  0  0  0  0
   36.9150   28.8890   42.5490 O   0  0  0  0  0  0  0  0  0  0  0  0
   37.8150   27.8450   42.7220 C   0  0  0  0  0  0  0  0  0  0  0  0
   39.0890   27.8990   43.2480 C   0  0  0  0  0  0  0  0  0  0  0  0
   39.4060   28.8790   43.5560 H   0  0  0  0  0  0  0  0  0  0  0  0
   39.8520   26.7540   43.3460 C   0  0  0  0  0  0  0  0  0  0  0  0
   40.8440   26.8190   43.7590 H   0  0  0  0  0  0  0  0  0  0  0  0
   39.2880   25.5590   42.8980 C   0  0  0  0  0  3  0  0  0  0  0  0
   37.9950   25.5140   42.3670 C   0  0  0  0  0  3  0  0  0  0  0  0
   37.2970   26.6630   42.2950 N   0  0  0  0  0  0  0  0  0  0  0  0
   34.9830   28.9080   40.5670 O   0  0  0  0  0  0  0  0  0  0  0  0
   34.7980   28.9270   39.2000 C   0  0  0  0  0  0  0  0  0  0  0  0
   35.4240   29.9830   38.5700 F   0  0  0  0  0  0  0  0  0  0  0  0
   35.1400   27.7030   38.6560 F   0  0  0  0  0  0  0  0  0  0  0  0
   33.4300   29.0890   38.9890 F   0  0  0  0  0  0  0  0  0  0  0  0
  2  1  2  6  0  0  0
  2 13  1  0  0  0  0
  3  2  1  0  0  0  0
  4  5  2  0  0  0  0
  4  9  1  0  0  0  0
  5  6  1  0  0  0  0
  6  3  1  0  0  0  0
  6  7  2  0  0  0  0
  8  7  1  0  0  0  0
  8 12  1  0  0  0  0
  9  8  2  0  0  0  0
 10  4  1  0  0  0  0
 11  5  1  0  0  0  0
 13 14  1  0  0  0  0
 14 15  1  0  0  0  0
 15 17  2  0  0  0  0
 15 16  1  0  0  0  0
 17 18  1  0  0  0  0
 19 17  1  0  0  0  0
 20 19  2  0  0  0  0
 21 20  1  0  0  0  0
 21 14  2  0  0  0  0
 22  2  1  0  0  0  0
 23 22  1  0  0  0  0
 24 23  1  0  0  0  0
 25 23  1  0  0  0  0
 26 23  1  0  0  0  0
M  END
>  <minimizedAffinity>
-4.8403821

$$$$

 OpenBabel03242519403D

 26 27  0  0  0  0  0  0  0  0999 V2000
   37.6000   28.9170   38.5700 O   0  0  0  0  0  0  0  0  0  0  0  0
   36.5390   30.0080   38.7360 P   0  0  2  0  0  0  0  0  0  0  0  0
   37.1580   31.4740   38.0690 O   0  0  0  0  0  0  0  0  0  0  0  0
   40.1390   32.8190   39.7300 C   0  0  0  0  0  0  0  0  0  0  0  0
   39.3210   31.9860   38.9310 C   0  0  0  0  0  0  0  0  0  0  0  0
   37.9570   32.2970   38.8560 C   0  0  0  0  0  0  0  0  0  0  0  0
   37.4800   33.3620   39.5380 N   0  0  0  0  0  0  0  0  0  0  0  0
   38.2950   34.1380   40.2930 C   0  0  0  0  0  0  0  0  0  0  0  0
   39.6060   33.8780   40.3930 N   0  0  0  0  0  0  0  0  0  0  0  0
   41.1730   32.5590   39.7680 H   0  0  0  0  0  0  0  0  0  0  0  0
   39.7040   31.1440   38.3930 H   0  0  0  0  0  0  0  0  0  0  0  0
   37.9220   34.9980   40.8450 H   0  0  0  0  0  0  0  0  0  0  0  0
   36.1100   30.2600   40.3190 O   0  0  0  0  0  0  0  0  0  0  0  0
   36.8300   29.6540   41.3400 C   0  0  0  0  0  0  0  0  0  0  0  0
   38.0020   30.0850   41.9270 C   0  0  0  0  0  0  0  0  0  0  0  0
   38.3890   31.0060   41.5310 H   0  0  0  0  0  0  0  0  0  0  0  0
   38.5850   29.3500   42.9380 C   0  0  0  0  0  0  0  0  0  0  0  0
   39.5000   29.7050   43.3820 H   0  0  0  0  0  0  0  0  0  0  0  0
   37.9500   28.1730   43.3350 C   0  0  0  0  0  3  0  0  0  0  0  0
   36.7620   27.7450   42.7340 C   0  0  0  0  0  3  0  0  0  0  0  0
   36.2380   28.5010   41.7520 N   0  0  0  0  0  0  0  0  0  0  0  0
   35.2010   29.5600   37.8000 O   0  0  0  0  0  0  0  0  0  0  0  0
   34.3730   28.6680   38.4500 C   0  0  0  0  0  0  0  0  0  0  0  0
   33.7550   29.1940   39.5650 F   0  0  0  0  0  0  0  0  0  0  0  0
   33.4770   28.1120   37.5550 F   0  0  0  0  0  0  0  0  0  0  0  0
   35.1860   27.6280   38.8970 F   0  0  0  0  0  0  0  0  0  0  0  0
  2  1  2  6  0  0  0
  2 13  1  0  0  0  0
  3  2  1  0  0  0  0
  3  6  1  0  0  0  0
  4 10  1  0  0  0  0
  4  9  1  0  0  0  0
  5  4  2  0  0  0  0
  6  5  1  0  0  0  0
  6  7  2  0  0  0  0
  7  8  1  0  0  0  0
  8  9  2  0  0  0  0
  8 12  1  0  0  0  0
 11  5  1  0  0  0  0
 13 14  1  0  0  0  0
 14 21  2  0  0  0  0
 14 15  1  0  0  0  0
 15 17  2  0  0  0  0
 16 15  1  0  0  0  0
 17 19  1  0  0  0  0
 17 18  1  0  0  0  0
 20 19  2  0  0  0  0
 21 20  1  0  0  0  0
 22 23  1  0  0  0  0
 22  2  1  0  0  0  0
 23 26  1  0  0  0  0
 23 24  1  0  0  0  0
 25 23  1  0  0  0  0
M  END
>  <minimizedAffinity>
-4.78402138

$$$$

 OpenBabel03242519403D

 26 27  0  0  0  0  0  0  0  0999 V2000
   38.8850   30.0650   39.7630 O   0  0  0  0  0  0  0  0  0  0  0  0
   39.4510   31.1780   40.6500 P   0  0  2  0  0  0  0  0  0  0  0  0
   41.1520   31.2770   40.3790 O   0  0  0  0  0  0  0  0  0  0  0  0
   42.7520   34.1600   38.7710 C   0  0  0  0  0  0  0  0  0  0  0  0
   42.2590   33.3020   39.7830 C   0  0  0  0  0  0  0  0  0  0  0  0
   41.6350   32.1150   39.3800 C   0  0  0  0  0  0  0  0  0  0  0  0
   41.5280   31.8360   38.0610 N   0  0  0  0  0  0  0  0  0  0  0  0
   42.0140   32.6810   37.1200 C   0  0  0  0  0  0  0  0  0  0  0  0
   42.6180   33.8280   37.4600 N   0  0  0  0  0  0  0  0  0  0  0  0
   43.2220   35.0570   39.1080 H   0  0  0  0  0  0  0  0  0  0  0  0
   42.3460   33.5290   40.8260 H   0  0  0  0  0  0  0  0  0  0  0  0
   41.9340   32.4660   36.0570 H   0  0  0  0  0  0  0  0  0  0  0  0
   39.1630   30.9300   42.2640 O   0  0  0  0  0  0  0  0  0  0  0  0
   38.9480   29.6440   42.7430 C   0  0  0  0  0  0  0  0  0  0  0  0
   37.7540   29.0680   43.1270 C   0  0  0  0  0  0  0  0  0  0  0  0
   36.8970   29.7100   43.0370 H   0  0  0  0  0  0  0  0  0  0  0  0
   37.7250   27.7660   43.5830 C   0  0  0  0  0  0  0  0  0  0  0  0
   36.7810   27.3370   43.8780 H   0  0  0  0  0  0  0  0  0  0  0  0
   38.9320   27.0700   43.6390 C   0  0  0  0  0  3  0  0  0  0  0  0
   40.1360   27.6630   43.2470 C   0  0  0  0  0  3  0  0  0  0  0  0
   40.1070   28.9350   42.8100 N   0  0  0  0  0  0  0  0  0  0  0  0
   38.7760   32.6390   40.1220 O   0  0  0  0  0  0  0  0  0  0  0  0
   37.4340   32.5270   39.8240 C   0  0  0  0  0  0  0  0  0  0  0  0
   37.1820   31.9170   38.6130 F   0  0  0  0  0  0  0  0  0  0  0  0
   36.7620   31.9260   40.8740 F   0  0  0  0  0  0  0  0  0  0  0  0
   36.9400   33.8270   39.7280 F   0  0  0  0  0  0  0  0  0  0  0  0
  2  1  2  6  0  0  0
  2 13  1  0  0  0  0
  3  2  1  0  0  0  0
  4 10  1  0  0  0  0
  4  5  1  0  0  0  0
  5 11  1  0  0  0  0
  6  5  2  0  0  0  0
  6  3  1  0  0  0  0
  7  6  1  0  0  0  0
  8  9  1  0  0  0  0
  8  7  2  0  0  0  0
  9  4  2  0  0  0  0
 12  8  1  0  0  0  0
 13 14  1  0  0  0  0
 14 21  2  0  0  0  0
 14 15  1  0  0  0  0
 15 17  2  0  0  0  0
 16 15  1  0  0  0  0
 17 19  1  0  0  0  0
 17 18  1  0  0  0  0
 20 19  2  0  0  0  0
 21 20  1  0  0  0  0
 22  2  1  0  0  0  0
 23 22  1  0  0  0  0
 23 25  1  0  0  0  0
 24 23  1  0  0  0  0
 26 23  1  0  0  0  0
M  END
>  <minimizedAffinity>
-4.74806261

$$$$

 OpenBabel03242519403D

 26 27  0  0  0  0  0  0  0  0999 V2000
   39.3040   28.9810   41.0630 O   0  0  0  0  0  0  0  0  0  0  0  0
   38.5840   29.6030   42.2620 P   0  0  2  0  0  0  0  0  0  0  0  0
   38.4820   28.4170   43.5110 O   0  0  0  0  0  0  0  0  0  0  0  0
   39.6950   24.9640   43.2490 C   0  0  0  0  0  0  0  0  0  0  0  0
   39.6450   26.3370   43.5890 C   0  0  0  0  0  0  0  0  0  0  0  0
   38.5240   27.0680   43.1740 C   0  0  0  0  0  0  0  0  0  0  0  0
   37.5480   26.4460   42.4760 N   0  0  0  0  0  0  0  0  0  0  0  0
   37.6300   25.1290   42.1690 C   0  0  0  0  0  0  0  0  0  0  0  0
   38.6830   24.3910   42.5450 N   0  0  0  0  0  0  0  0  0  0  0  0
   40.5600   24.4330   43.5780 H   0  0  0  0  0  0  0  0  0  0  0  0
   40.4220   26.8240   44.1420 H   0  0  0  0  0  0  0  0  0  0  0  0
   36.8500   24.6190   41.6080 H   0  0  0  0  0  0  0  0  0  0  0  0
   37.0620   30.1480   41.8940 O   0  0  0  0  0  0  0  0  0  0  0  0
   36.4870   29.8340   40.6690 C   0  0  0  0  0  0  0  0  0  0  0  0
   35.5390   28.8680   40.3970 C   0  0  0  0  0  0  0  0  0  0  0  0
   35.2190   28.3010   41.2510 H   0  0  0  0  0  0  0  0  0  0  0  0
   35.0770   28.6910   39.1090 C   0  0  0  0  0  0  0  0  0  0  0  0
   34.3370   27.9310   38.9200 H   0  0  0  0  0  0  0  0  0  0  0  0
   35.5990   29.5150   38.1120 C   0  0  0  0  0  3  0  0  0  0  0  0
   36.5580   30.4910   38.3990 C   0  0  0  0  0  3  0  0  0  0  0  0
   36.9740   30.6200   39.6720 N   0  0  0  0  0  0  0  0  0  0  0  0
   39.5620   30.8570   42.8450 O   0  0  0  0  0  0  0  0  0  0  0  0
   40.9080   30.5830   42.7180 C   0  0  0  0  0  0  0  0  0  0  0  0
   41.7180   31.4300   43.4460 F   0  0  0  0  0  0  0  0  0  0  0  0
   41.1500   29.2490   42.9910 F   0  0  0  0  0  0  0  0  0  0  0  0
   41.2270   30.7800   41.3760 F   0  0  0  0  0  0  0  0  0  0  0  0
  2  1  2  6  0  0  0
  2 22  1  0  0  0  0
  2  3  1  0  0  0  0
  4 10  1  0  0  0  0
  4  5  1  0  0  0  0
  5 11  1  0  0  0  0
  6  3  1  0  0  0  0
  6  5  2  0  0  0  0
  7  6  1  0  0  0  0
  8  7  2  0  0  0  0
  8  9  1  0  0  0  0
  9  4  2  0  0  0  0
 12  8  1  0  0  0  0
 13  2  1  0  0  0  0
 14 13  1  0  0  0  0
 15 14  1  0  0  0  0
 15 16  1  0  0  0  0
 17 15  2  0  0  0  0
 18 17  1  0  0  0  0
 19 20  2  0  0  0  0
 19 17  1  0  0  0  0
 20 21  1  0  0  0  0
 21 14  2  0  0  0  0
 23 22  1  0  0  0  0
 23 25  1  0  0  0  0
 23 24  1  0  0  0  0
 26 23  1  0  0  0  0
M  END
>  <minimizedAffinity>
-4.66569662

$$$$

 OpenBabel03242519403D

 26 27  0  0  0  0  0  0  0  0999 V2000
   36.2230   30.7540   41.5200 O   0  0  0  0  0  0  0  0  0  0  0  0
   36.2950   30.2630   40.0710 P   0  0  2  0  0  0  0  0  0  0  0  0
   37.4820   29.0150   39.9780 O   0  0  0  0  0  0  0  0  0  0  0  0
   37.3750   26.6070   42.7440 C   0  0  0  0  0  0  0  0  0  0  0  0
   37.0080   27.3010   41.5680 C   0  0  0  0  0  0  0  0  0  0  0  0
   37.8480   28.3360   41.1350 C   0  0  0  0  0  0  0  0  0  0  0  0
   38.9610   28.6280   41.8460 N   0  0  0  0  0  0  0  0  0  0  0  0
   39.2810   27.9400   42.9690 C   0  0  0  0  0  0  0  0  0  0  0  0
   38.5060   26.9440   43.4190 N   0  0  0  0  0  0  0  0  0  0  0  0
   36.7170   25.8250   43.0500 H   0  0  0  0  0  0  0  0  0  0  0  0
   36.1250   27.0660   41.0090 H   0  0  0  0  0  0  0  0  0  0  0  0
   40.1730   28.1660   43.5480 H   0  0  0  0  0  0  0  0  0  0  0  0
   36.6760   31.4680   38.9970 O   0  0  0  0  0  0  0  0  0  0  0  0
   37.7690   32.2910   39.2340 C   0  0  0  0  0  0  0  0  0  0  0  0
   37.8120   33.4560   39.9730 C   0  0  0  0  0  0  0  0  0  0  0  0
   36.8740   33.7440   40.4110 H   0  0  0  0  0  0  0  0  0  0  0  0
   38.9950   34.1540   40.1040 C   0  0  0  0  0  0  0  0  0  0  0  0
   39.0050   35.0610   40.6860 H   0  0  0  0  0  0  0  0  0  0  0  0
   40.1260   33.6410   39.4690 C   0  0  0  0  0  3  0  0  0  0  0  0
   40.0720   32.4600   38.7230 C   0  0  0  0  0  3  0  0  0  0  0  0
   38.8910   31.8200   38.6280 N   0  0  0  0  0  0  0  0  0  0  0  0
   34.8000   29.5590   39.7010 O   0  0  0  0  0  0  0  0  0  0  0  0
   34.8220   28.8620   38.5110 C   0  0  0  0  0  0  0  0  0  0  0  0
   35.5540   29.4800   37.5180 F   0  0  0  0  0  0  0  0  0  0  0  0
   35.2200   27.5550   38.7320 F   0  0  0  0  0  0  0  0  0  0  0  0
   33.5040   28.8050   38.0600 F   0  0  0  0  0  0  0  0  0  0  0  0
  2  1  2  1  0  0  0
  3  2  1  0  0  0  0
  3  6  1  0  0  0  0
  4 10  1  0  0  0  0
  4  9  1  0  0  0  0
  5  4  2  0  0  0  0
  6  5  1  0  0  0  0
  6  7  2  0  0  0  0
  7  8  1  0  0  0  0
  8  9  2  0  0  0  0
  8 12  1  0  0  0  0
 11  5  1  0  0  0  0
 13 14  1  0  0  0  0
 13  2  1  0  0  0  0
 14 15  1  0  0  0  0
 15 17  2  0  0  0  0
 15 16  1  0  0  0  0
 17 18  1  0  0  0  0
 19 17  1  0  0  0  0
 20 19  2  0  0  0  0
 21 20  1  0  0  0  0
 21 14  2  0  0  0  0
 22  2  1  0  0  0  0
 23 25  1  0  0  0  0
 23 22  1  0  0  0  0
 24 23  1  0  0  0  0
 26 23  1  0  0  0  0
M  END
>  <minimizedAffinity>
-4.59248018

$$$$

 OpenBabel03242519403D

 26 27  0  0  0  0  0  0  0  0999 V2000
   39.1220   29.6880   38.0180 O   0  0  0  0  0  0  0  0  0  0  0  0
   37.9360   28.9370   38.6290 P   0  0  2  0  0  0  0  0  0  0  0  0
   37.0270   30.0450   39.5900 O   0  0  0  0  0  0  0  0  0  0  0  0
   37.6480   33.6580   39.7270 C   0  0  0  0  0  0  0  0  0  0  0  0
   37.0710   32.4180   39.3640 C   0  0  0  0  0  0  0  0  0  0  0  0
   37.5980   31.2610   39.9510 C   0  0  0  0  0  0  0  0  0  0  0  0
   38.6220   31.3680   40.8280 N   0  0  0  0  0  0  0  0  0  0  0  0
   39.1490   32.5740   41.1520 C   0  0  0  0  0  0  0  0  0  0  0  0
   38.6760   33.7070   40.6150 N   0  0  0  0  0  0  0  0  0  0  0  0
   37.2260   34.5220   39.2650 H   0  0  0  0  0  0  0  0  0  0  0  0
   36.2600   32.3390   38.6690 H   0  0  0  0  0  0  0  0  0  0  0  0
   39.9720   32.6720   41.8560 H   0  0  0  0  0  0  0  0  0  0  0  0
   38.3960   27.6460   39.5630 O   0  0  0  0  0  0  0  0  0  0  0  0
   38.0990   27.6270   40.9190 C   0  0  0  0  0  0  0  0  0  0  0  0
   36.9340   27.2100   41.5290 C   0  0  0  0  0  0  0  0  0  0  0  0
   36.1750   26.8600   40.8530 H   0  0  0  0  0  0  0  0  0  0  0  0
   36.8090   27.2610   42.9020 C   0  0  0  0  0  0  0  0  0  0  0  0
   35.8900   26.9310   43.3570 H   0  0  0  0  0  0  0  0  0  0  0  0
   37.8940   27.7450   43.6340 C   0  0  0  0  0  3  0  0  0  0  0  0
   39.0700   28.1650   43.0070 C   0  0  0  0  0  3  0  0  0  0  0  0
   39.1370   28.0930   41.6640 N   0  0  0  0  0  0  0  0  0  0  0  0
   36.9350   28.4470   37.3530 O   0  0  0  0  0  0  0  0  0  0  0  0
   36.2010   29.4880   36.8240 C   0  0  0  0  0  0  0  0  0  0  0  0
   36.9230   30.6520   36.6620 F   0  0  0  0  0  0  0  0  0  0  0  0
   35.5720   29.0840   35.6600 F   0  0  0  0  0  0  0  0  0  0  0  0
   35.1920   29.7680   37.7450 F   0  0  0  0  0  0  0  0  0  0  0  0
  2  1  2  6  0  0  0
  2 13  1  0  0  0  0
  2  3  1  0  0  0  0
  3  6  1  0  0  0  0
  4  9  1  0  0  0  0
  5  4  2  0  0  0  0
  5  6  1  0  0  0  0
  6  7  2  0  0  0  0
  7  8  1  0  0  0  0
  8 12  1  0  0  0  0
  9  8  2  0  0  0  0
 10  4  1  0  0  0  0
 11  5  1  0  0  0  0
 13 14  1  0  0  0  0
 14 15  2  0  0  0  0
 14 21  1  0  0  0  0
 15 17  1  0  0  0  0
 16 15  1  0  0  0  0
 17 18  1  0  0  0  0
 17 19  2  0  0  0  0
 20 19  1  0  0  0  0
 21 20  2  0  0  0  0
 22  2  1  0  0  0  0
 23 22  1  0  0  0  0
 23 26  1  0  0  0  0
 24 23  1  0  0  0  0
 25 23  1  0  0  0  0
M  END
>  <minimizedAffinity>
-4.56820869

$$$$

 OpenBabel03242519403D

 26 27  0  0  0  0  0  0  0  0999 V2000
   38.2620   28.4880   39.2090 O   0  0  0  0  0  0  0  0  0  0  0  0
   37.3790   28.4680   40.4600 P   0  0  2  0  0  0  0  0  0  0  0  0
   35.7300   28.3970   39.9610 O   0  0  0  0  0  0  0  0  0  0  0  0
   34.7840   28.9310   36.4570 C   0  0  0  0  0  0  0  0  0  0  0  0
   35.0890   29.2050   37.8110 C   0  0  0  0  0  0  0  0  0  0  0  0
   35.4310   28.1210   38.6310 C   0  0  0  0  0  0  0  0  0  0  0  0
   35.4570   26.8750   38.1080 N   0  0  0  0  0  0  0  0  0  0  0  0
   35.1590   26.6510   36.8050 C   0  0  0  0  0  0  0  0  0  0  0  0
   34.8260   27.6570   35.9850 N   0  0  0  0  0  0  0  0  0  0  0  0
   34.5260   29.7740   35.8570 H   0  0  0  0  0  0  0  0  0  0  0  0
   35.0660   30.1940   38.2200 H   0  0  0  0  0  0  0  0  0  0  0  0
   35.1770   25.6530   36.3740 H   0  0  0  0  0  0  0  0  0  0  0  0
   37.6040   29.7920   41.4340 O   0  0  0  0  0  0  0  0  0  0  0  0
   37.7390   31.0550   40.8710 C   0  0  0  0  0  0  0  0  0  0  0  0
   36.8860   31.6890   39.9900 C   0  0  0  0  0  0  0  0  0  0  0  0
   36.0170   31.1180   39.7170 H   0  0  0  0  0  0  0  0  0  0  0  0
   37.1790   32.9550   39.5270 C   0  0  0  0  0  0  0  0  0  0  0  0
   36.4990   33.4300   38.8390 H   0  0  0  0  0  0  0  0  0  0  0  0
   38.3530   33.5570   39.9810 C   0  0  0  0  0  3  0  0  0  0  0  0
   39.2090   32.9070   40.8750 C   0  0  0  0  0  3  0  0  0  0  0  0
   38.8750   31.6720   41.2930 N   0  0  0  0  0  0  0  0  0  0  0  0
   37.7110   27.0300   41.2920 O   0  0  0  0  0  0  0  0  0  0  0  0
   37.0640   26.9590   42.5070 C   0  0  0  0  0  0  0  0  0  0  0  0
   36.0180   27.8490   42.6330 F   0  0  0  0  0  0  0  0  0  0  0  0
   36.6870   25.6540   42.7700 F   0  0  0  0  0  0  0  0  0  0  0  0
   38.0030   27.3040   43.4770 F   0  0  0  0  0  0  0  0  0  0  0  0
  2  1  2  6  0  0  0
  2 22  1  0  0  0  0
  2 13  1  0  0  0  0
  3  2  1  0  0  0  0
  4  5  1  0  0  0  0
  5 11  1  0  0  0  0
  5  6  2  0  0  0  0
  6  3  1  0  0  0  0
  7  6  1  0  0  0  0
  8  7  2  0  0  0  0
  9  4  2  0  0  0  0
  9  8  1  0  0  0  0
 10  4  1  0  0  0  0
 12  8  1  0  0  0  0
 14 21  1  0  0  0  0
 14 13  1  0  0  0  0
 15 14  2  0  0  0  0
 16 15  1  0  0  0  0
 17 19  2  0  0  0  0
 17 15  1  0  0  0  0
 18 17  1  0  0  0  0
 19 20  1  0  0  0  0
 20 21  2  0  0  0  0
 22 23  1  0  0  0  0
 23 24  1  0  0  0  0
 23 25  1  0  0  0  0
 23 26  1  0  0  0  0
M  END
>  <minimizedAffinity>
-4.55656767

$$$$

 OpenBabel03242519403D

 26 27  0  0  0  0  0  0  0  0999 V2000
   36.4590   30.8030   41.3680 O   0  0  0  0  0  0  0  0  0  0  0  0
   37.7170   29.9620   41.6040 P   0  0  2  0  0  0  0  0  0  0  0  0
   38.9910   31.0150   42.0980 O   0  0  0  0  0  0  0  0  0  0  0  0
   39.6010   33.9340   39.9610 C   0  0  0  0  0  0  0  0  0  0  0  0
   38.9940   33.0870   40.9180 C   0  0  0  0  0  0  0  0  0  0  0  0
   39.5930   31.8440   41.1570 C   0  0  0  0  0  0  0  0  0  0  0  0
   40.7110   31.5040   40.4770 N   0  0  0  0  0  0  0  0  0  0  0  0
   41.2650   32.3420   39.5680 C   0  0  0  0  0  0  0  0  0  0  0  0
   40.7260   33.5410   39.3080 N   0  0  0  0  0  0  0  0  0  0  0  0
   39.1230   34.8740   39.8000 H   0  0  0  0  0  0  0  0  0  0  0  0
   38.1080   33.3610   41.4530 H   0  0  0  0  0  0  0  0  0  0  0  0
   42.1650   32.0790   39.0160 H   0  0  0  0  0  0  0  0  0  0  0  0
   38.1910   29.1140   40.2600 O   0  0  0  0  0  0  0  0  0  0  0  0
   37.5430   29.3120   39.0480 C   0  0  0  0  0  0  0  0  0  0  0  0
   36.4760   28.6070   38.5290 C   0  0  0  0  0  0  0  0  0  0  0  0
   36.1170   27.8100   39.1560 H   0  0  0  0  0  0  0  0  0  0  0  0
   35.9520   28.9420   37.2980 C   0  0  0  0  0  0  0  0  0  0  0  0
   35.1190   28.3780   36.9120 H   0  0  0  0  0  0  0  0  0  0  0  0
   36.5370   30.0070   36.6120 C   0  0  0  0  0  3  0  0  0  0  0  0
   37.6170   30.7150   37.1470 C   0  0  0  0  0  3  0  0  0  0  0  0
   38.0880   30.3440   38.3520 N   0  0  0  0  0  0  0  0  0  0  0  0
   37.3950   28.9250   42.9040 O   0  0  0  0  0  0  0  0  0  0  0  0
   36.6980   27.7970   42.5240 C   0  0  0  0  0  0  0  0  0  0  0  0
   35.6730   28.0510   41.6360 F   0  0  0  0  0  0  0  0  0  0  0  0
   37.5730   26.8290   42.0650 F   0  0  0  0  0  0  0  0  0  0  0  0
   36.1090   27.2870   43.6790 F   0  0  0  0  0  0  0  0  0  0  0  0
  2  1  2  6  0  0  0
  2  3  1  0  0  0  0
  2 22  1  0  0  0  0
  4  5  1  0  0  0  0
  5  6  2  0  0  0  0
  5 11  1  0  0  0  0
  6  3  1  0  0  0  0
  7  6  1  0  0  0  0
  8  7  2  0  0  0  0
  9  8  1  0  0  0  0
  9  4  2  0  0  0  0
 10  4  1  0  0  0  0
 12  8  1  0  0  0  0
 13  2  1  0  0  0  0
 14 13  1  0  0  0  0
 15 14  1  0  0  0  0
 15 16  1  0  0  0  0
 17 15  2  0  0  0  0
 18 17  1  0  0  0  0
 19 20  2  0  0  0  0
 19 17  1  0  0  0  0
 20 21  1  0  0  0  0
 21 14  2  0  0  0  0
 23 22  1  0  0  0  0
 23 26  1  0  0  0  0
 24 23  1  0  0  0  0
 25 23  1  0  0  0  0
M  END
>  <minimizedAffinity>
-4.54694128

$$$$
