
 OpenBabel03252507453D

 36 38  0  0  0  0  0  0  0  0999 V2000
   47.1850   34.4570   40.9140 C   0  0  0  0  0  0  0  0  0  0  0  0
   47.3290   35.2900   40.1710 H   0  0  0  0  0  0  0  0  0  0  0  0
   46.6050   33.6610   40.4400 H   0  0  0  0  0  0  0  0  0  0  0  0
   48.5110   34.0150   41.3580 C   0  0  0  0  0  0  0  0  0  0  0  0
   48.9250   32.7760   40.9000 C   0  0  0  0  0  0  0  0  0  0  0  0
   50.1560   32.2230   41.2340 C   0  0  0  0  0  0  0  0  0  0  0  0
   50.9490   32.9940   42.0610 N   0  0  0  0  0  0  0  0  0  0  0  0
   50.5190   34.1970   42.4910 C   0  0  0  0  0  0  0  0  0  0  0  0
   49.3340   34.6790   42.1410 N   0  0  0  0  0  0  0  0  0  0  0  0
   50.4840   31.2660   40.8860 H   0  0  0  0  0  0  0  0  0  0  0  0
   51.1440   34.8160   43.1480 H   0  0  0  0  0  0  0  0  0  0  0  0
   47.8610   31.8000   39.7960 S   0  0  0  0  0  0  0  0  0  0  0  0
   46.7340   30.7970   40.7230 C   0  0  0  0  0  0  0  0  0  0  0  0
   45.4210   31.1000   41.0700 C   0  0  0  0  0  0  0  0  0  0  0  0
   45.0940   32.0490   40.7210 H   0  0  0  0  0  0  0  0  0  0  0  0
   44.6960   30.1850   41.8000 C   0  0  0  0  0  0  0  0  0  0  0  0
   43.6900   30.4560   42.0460 H   0  0  0  0  0  0  0  0  0  0  0  0
   45.2150   28.9710   42.2070 C   0  0  0  0  0  3  0  0  0  0  0  0
   46.5200   28.7240   41.8360 C   0  0  0  0  0  3  0  0  0  0  0  0
   47.2650   29.6100   41.1120 N   0  0  0  0  0  0  0  0  0  0  0  0
   46.3570   34.9990   42.0380 C   0  0  0  0  0  0  0  0  0  0  0  0
   46.5650   34.5210   43.0180 H   0  0  0  0  0  0  0  0  0  0  0  0
   46.6380   36.0750   42.1810 H   0  0  0  0  0  0  0  0  0  0  0  0
   44.8930   34.9490   41.7680 C   0  0  0  0  0  0  0  0  0  0  0  0
   43.9770   35.4610   42.7470 C   0  0  0  0  0  0  0  0  0  0  0  0
   42.3430   35.1780   41.9660 S   0  0  0  0  0  0  0  0  0  0  0  0
   43.1790   34.4100   40.4380 C   0  0  0  0  0  0  0  0  0  0  0  0
   44.2830   34.4820   40.7130 N   0  0  0  0  0  0  0  0  0  0  0  0
   44.2270   35.8990   43.7010 H   0  0  0  0  0  0  0  0  0  0  0  0
   42.4650   33.9230   39.3300 O   0  0  0  0  0  0  0  0  0  0  0  0
   40.4760   34.3510   37.6310 O   0  0  0  0  0  0  0  0  0  0  0  0
   41.5500   35.0560   38.4500 P   0  0  0  0  0  0  0  0  0  0  0  0
   40.8200   36.1140   39.5460 O   0  0  0  0  0  0  0  0  0  0  0  0
   40.0990   35.6540   40.0470 H   0  0  0  0  0  0  0  0  0  0  0  0
   42.5800   35.9480   37.4390 O   0  0  0  0  0  0  0  0  0  0  0  0
   42.8670   36.7980   37.8770 H   0  0  0  0  0  0  0  0  0  0  0  0
  1  4  1  0  0  0  0
  1 21  1  0  0  0  0
  2  1  1  0  0  0  0
  3  1  1  0  0  0  0
  4  9  1  0  0  0  0
  5  6  1  0  0  0  0
  5  4  2  0  0  0  0
  6  7  2  0  0  0  0
  7  8  1  0  0  0  0
  8 11  1  0  0  0  0
  9  8  2  0  0  0  0
 10  6  1  0  0  0  0
 12 13  1  0  0  0  0
 12  5  1  0  0  0  0
 13 14  2  0  0  0  0
 13 20  1  0  0  0  0
 14 16  1  0  0  0  0
 15 14  1  0  0  0  0
 16 17  1  0  0  0  0
 16 18  2  0  0  0  0
 19 18  1  0  0  0  0
 20 19  2  0  0  0  0
 21 23  1  0  0  0  0
 21 22  1  0  0  0  0
 24 21  1  0  0  0  0
 24 25  2  0  0  0  0
 25 29  1  0  0  0  0
 26 25  1  0  0  0  0
 27 28  2  0  0  0  0
 27 26  1  0  0  0  0
 28 24  1  0  0  0  0
 30 27  1  0  0  0  0
 31 32  2  0  0  0  0
 32 30  1  0  0  0  0
 32 33  1  0  0  0  0
 33 34  1  0  0  0  0
 35 36  1  0  0  0  0
 35 32  1  0  0  0  0
M  END
>  <minimizedAffinity>
-4.33749914

>  <minimizedRMSD>
0.259741187

$$$$
