
 OpenBabel03252507453D

 36 38  0  0  0  0  0  0  0  0999 V2000
   47.2910   34.5450   40.8840 C   0  0  0  0  0  0  0  0  0  0  0  0
   47.5630   35.3880   40.1900 H   0  0  0  0  0  0  0  0  0  0  0  0
   46.6510   33.8400   40.3460 H   0  0  0  0  0  0  0  0  0  0  0  0
   48.5360   33.9380   41.3650 C   0  0  0  0  0  0  0  0  0  0  0  0
   48.7030   32.5920   41.0930 C   0  0  0  0  0  0  0  0  0  0  0  0
   49.8300   31.8780   41.4840 C   0  0  0  0  0  0  0  0  0  0  0  0
   50.7840   32.6040   42.1690 N   0  0  0  0  0  0  0  0  0  0  0  0
   50.5940   33.9150   42.4200 C   0  0  0  0  0  0  0  0  0  0  0  0
   49.4990   34.5480   42.0230 N   0  0  0  0  0  0  0  0  0  0  0  0
   49.9670   30.8370   41.2780 H   0  0  0  0  0  0  0  0  0  0  0  0
   51.3490   34.4990   42.9640 H   0  0  0  0  0  0  0  0  0  0  0  0
   47.4340   31.6750   40.1700 S   0  0  0  0  0  0  0  0  0  0  0  0
   45.9980   31.3980   41.1680 C   0  0  0  0  0  0  0  0  0  0  0  0
   45.8990   31.4930   42.5530 C   0  0  0  0  0  0  0  0  0  0  0  0
   46.8110   31.7680   43.0290 H   0  0  0  0  0  0  0  0  0  0  0  0
   44.6880   31.2390   43.1560 C   0  0  0  0  0  0  0  0  0  0  0  0
   44.6550   31.3240   44.2210 H   0  0  0  0  0  0  0  0  0  0  0  0
   43.5570   30.8880   42.4440 C   0  0  0  0  0  3  0  0  0  0  0  0
   43.7130   30.8080   41.0750 C   0  0  0  0  0  3  0  0  0  0  0  0
   44.8990   31.0560   40.4490 N   0  0  0  0  0  0  0  0  0  0  0  0
   46.4720   35.1260   41.9950 C   0  0  0  0  0  0  0  0  0  0  0  0
   46.7310   34.7270   42.9980 H   0  0  0  0  0  0  0  0  0  0  0  0
   46.7070   36.2210   42.0550 H   0  0  0  0  0  0  0  0  0  0  0  0
   45.0040   34.9940   41.7770 C   0  0  0  0  0  0  0  0  0  0  0  0
   44.0970   35.4190   42.8030 C   0  0  0  0  0  0  0  0  0  0  0  0
   42.4540   35.0590   42.0730 S   0  0  0  0  0  0  0  0  0  0  0  0
   43.2770   34.3900   40.4920 C   0  0  0  0  0  0  0  0  0  0  0  0
   44.3850   34.5220   40.7290 N   0  0  0  0  0  0  0  0  0  0  0  0
   44.3560   35.8430   43.7610 H   0  0  0  0  0  0  0  0  0  0  0  0
   42.5530   33.8940   39.3950 O   0  0  0  0  0  0  0  0  0  0  0  0
   40.5640   34.3070   37.6930 O   0  0  0  0  0  0  0  0  0  0  0  0
   41.6340   35.0190   38.5110 P   0  0  0  0  0  0  0  0  0  0  0  0
   40.9000   36.0800   39.6010 O   0  0  0  0  0  0  0  0  0  0  0  0
   40.1800   35.6200   40.1040 H   0  0  0  0  0  0  0  0  0  0  0  0
   42.6630   35.9110   37.4960 O   0  0  0  0  0  0  0  0  0  0  0  0
   42.9470   36.7640   37.9310 H   0  0  0  0  0  0  0  0  0  0  0  0
  1  4  1  0  0  0  0
  1 21  1  0  0  0  0
  2  1  1  0  0  0  0
  3  1  1  0  0  0  0
  4  9  1  0  0  0  0
  5  4  2  0  0  0  0
  5  6  1  0  0  0  0
  6  7  2  0  0  0  0
  7  8  1  0  0  0  0
  8 11  1  0  0  0  0
  9  8  2  0  0  0  0
 10  6  1  0  0  0  0
 12  5  1  0  0  0  0
 12 13  1  0  0  0  0
 13 14  1  0  0  0  0
 14 15  1  0  0  0  0
 14 16  2  0  0  0  0
 16 17  1  0  0  0  0
 18 16  1  0  0  0  0
 19 18  2  0  0  0  0
 20 19  1  0  0  0  0
 20 13  2  0  0  0  0
 21 23  1  0  0  0  0
 21 22  1  0  0  0  0
 24 21  1  0  0  0  0
 24 25  2  0  0  0  0
 25 29  1  0  0  0  0
 26 25  1  0  0  0  0
 27 28  2  0  0  0  0
 27 26  1  0  0  0  0
 28 24  1  0  0  0  0
 30 27  1  0  0  0  0
 31 32  2  0  0  0  0
 32 30  1  0  0  0  0
 32 33  1  0  0  0  0
 33 34  1  0  0  0  0
 35 36  1  0  0  0  0
 35 32  1  0  0  0  0
M  END
>  <minimizedAffinity>
-4.36346769

>  <minimizedRMSD>
1.06006217

$$$$
