
 OpenBabel03242516223D

 28 30  0  0  0  0  0  0  0  0999 V2000
   46.0270   32.7610   47.0530 C   0  0  0  0  0  0  0  0  0  0  0  0
   47.2730   32.4680   47.5490 C   0  0  0  0  0  0  0  0  0  0  0  0
   47.4480   31.6780   48.6710 C   0  0  0  0  0  0  0  0  0  0  0  0
   46.3450   31.1530   49.3360 C   0  0  0  0  0  0  0  0  0  0  0  0
   45.1050   31.4300   48.8620 C   0  0  0  0  0  0  0  0  0  0  0  0
   44.9520   32.2250   47.7350 C   0  0  0  0  0  0  0  0  0  0  0  0
   48.1460   32.8660   47.0490 H   0  0  0  0  0  0  0  0  0  0  0  0
   46.4930   30.5340   50.2140 H   0  0  0  0  0  0  0  0  0  0  0  0
   44.1960   31.0610   49.3200 H   0  0  0  0  0  0  0  0  0  0  0  0
   43.9620   32.4450   47.3580 H   0  0  0  0  0  0  0  0  0  0  0  0
   44.7080   35.3630   44.8510 C   0  0  0  0  0  0  0  0  0  0  0  0
   45.4570   35.2210   43.6770 C   0  0  0  0  0  0  0  0  0  0  0  0
   46.4310   34.2100   43.6480 C   0  0  0  0  0  0  0  0  0  0  0  0
   46.6060   33.4210   44.7470 N   0  0  0  0  0  0  0  0  0  0  0  0
   45.8540   33.6000   45.8620 C   0  0  0  0  0  0  0  0  0  0  0  0
   44.9090   34.5680   45.9100 N   0  0  0  0  0  0  0  0  0  0  0  0
   43.9720   36.1550   44.8210 H   0  0  0  0  0  0  0  0  0  0  0  0
   45.3870   35.7910   42.7760 H   0  0  0  0  0  0  0  0  0  0  0  0
   47.0980   33.9430   42.8580 H   0  0  0  0  0  0  0  0  0  0  0  0
   49.1160   31.3570   49.2350 S   0  0  0  0  0  0  0  0  0  0  0  0
   49.4040   29.5820   49.0930 C   0  0  0  0  0  0  0  0  0  0  0  0
   48.9540   28.7610   48.0870 C   0  0  0  0  0  0  0  0  0  0  0  0
   48.3710   29.2740   47.3240 H   0  0  0  0  0  0  0  0  0  0  0  0
   49.2770   27.4190   48.1460 C   0  0  0  0  0  0  0  0  0  0  0  0
   48.9120   26.8130   47.3510 H   0  0  0  0  0  0  0  0  0  0  0  0
   50.0390   26.9640   49.2180 C   0  0  0  0  0  0  0  0  0  0  0  0
   50.4720   27.8120   50.2020 C   0  0  0  0  0  0  0  0  0  0  0  0
   50.1490   29.1250   50.1330 N   0  0  0  0  0  0  0  0  0  0  0  0
  1  2  2  0  0  0  0
  1  6  1  0  0  0  0
  2  3  1  0  0  0  0
  3 20  1  0  0  0  0
  3  4  2  0  0  0  0
  4  8  1  0  0  0  0
  5  9  1  0  0  0  0
  5  4  1  0  0  0  0
  6  5  2  0  0  0  0
  7  2  1  0  0  0  0
 10  6  1  0  0  0  0
 11 16  1  0  0  0  0
 12 11  2  0  0  0  0
 13 12  1  0  0  0  0
 13 14  2  0  0  0  0
 14 15  1  0  0  0  0
 15 16  2  0  0  0  0
 15  1  1  0  0  0  0
 17 11  1  0  0  0  0
 18 12  1  0  0  0  0
 19 13  1  0  0  0  0
 21 20  1  0  0  0  0
 21 28  1  0  0  0  0
 22 24  1  0  0  0  0
 22 21  2  0  0  0  0
 23 22  1  0  0  0  0
 24 26  2  0  0  0  0
 25 24  1  0  0  0  0
 26 27  1  0  0  0  0
 28 27  2  0  0  0  0
M  END
>  <minimizedAffinity>
-5.39200783

>  <minimizedRMSD>
0.801288843

$$$$
