
 OpenBabel03252507443D

 36 38  0  0  0  0  0  0  0  0999 V2000
   47.6440   34.6710   40.8810 C   0  0  0  0  0  0  0  0  0  0  0  0
   47.9720   35.6370   40.4060 H   0  0  0  0  0  0  0  0  0  0  0  0
   46.9720   34.1520   40.1920 H   0  0  0  0  0  0  0  0  0  0  0  0
   48.8470   33.8970   41.2030 C   0  0  0  0  0  0  0  0  0  0  0  0
   49.0620   32.7600   40.4440 C   0  0  0  0  0  0  0  0  0  0  0  0
   50.1570   31.9250   40.6300 C   0  0  0  0  0  0  0  0  0  0  0  0
   51.0290   32.3040   41.6320 N   0  0  0  0  0  0  0  0  0  0  0  0
   50.7940   33.4180   42.3560 C   0  0  0  0  0  0  0  0  0  0  0  0
   49.7320   34.1800   42.1350 N   0  0  0  0  0  0  0  0  0  0  0  0
   50.3310   31.0440   40.0490 H   0  0  0  0  0  0  0  0  0  0  0  0
   51.4830   33.7260   43.1540 H   0  0  0  0  0  0  0  0  0  0  0  0
   47.9020   32.3050   39.1200 S   0  0  0  0  0  0  0  0  0  0  0  0
   46.4640   31.5120   39.7800 C   0  0  0  0  0  0  0  0  0  0  0  0
   46.2230   31.1620   41.1050 C   0  0  0  0  0  0  0  0  0  0  0  0
   47.0180   31.4170   41.7650 H   0  0  0  0  0  0  0  0  0  0  0  0
   45.0360   30.5460   41.4290 C   0  0  0  0  0  0  0  0  0  0  0  0
   44.8910   30.2940   42.4580 H   0  0  0  0  0  0  0  0  0  0  0  0
   44.0630   30.2570   40.4910 C   0  0  0  0  0  3  0  0  0  0  0  0
   44.3540   30.6250   39.1940 C   0  0  0  0  0  3  0  0  0  0  0  0
   45.5210   31.2370   38.8420 N   0  0  0  0  0  0  0  0  0  0  0  0
   46.8460   35.0200   42.0990 C   0  0  0  0  0  0  0  0  0  0  0  0
   47.1030   34.4130   42.9920 H   0  0  0  0  0  0  0  0  0  0  0  0
   47.1050   36.0720   42.3870 H   0  0  0  0  0  0  0  0  0  0  0  0
   45.3740   34.9670   41.8750 C   0  0  0  0  0  0  0  0  0  0  0  0
   44.4950   35.6250   42.7970 C   0  0  0  0  0  0  0  0  0  0  0  0
   42.8350   35.2760   42.1020 S   0  0  0  0  0  0  0  0  0  0  0  0
   43.6150   34.2910   40.6720 C   0  0  0  0  0  0  0  0  0  0  0  0
   44.7280   34.3750   40.9070 N   0  0  0  0  0  0  0  0  0  0  0  0
   44.7790   36.1820   43.6770 H   0  0  0  0  0  0  0  0  0  0  0  0
   42.8630   33.6760   39.6570 O   0  0  0  0  0  0  0  0  0  0  0  0
   40.9250   33.8830   37.8610 O   0  0  0  0  0  0  0  0  0  0  0  0
   41.9250   34.6970   38.6710 P   0  0  0  0  0  0  0  0  0  0  0  0
   41.0970   35.7810   39.6660 O   0  0  0  0  0  0  0  0  0  0  0  0
   40.3810   35.3160   40.1700 H   0  0  0  0  0  0  0  0  0  0  0  0
   42.9470   35.5780   37.6420 O   0  0  0  0  0  0  0  0  0  0  0  0
   43.1720   36.4690   38.0330 H   0  0  0  0  0  0  0  0  0  0  0  0
  1  4  1  0  0  0  0
  1 21  1  0  0  0  0
  2  1  1  0  0  0  0
  3  1  1  0  0  0  0
  4  9  1  0  0  0  0
  5  6  1  0  0  0  0
  5  4  2  0  0  0  0
  6  7  2  0  0  0  0
  7  8  1  0  0  0  0
  8 11  1  0  0  0  0
  9  8  2  0  0  0  0
 10  6  1  0  0  0  0
 12 13  1  0  0  0  0
 12  5  1  0  0  0  0
 13 14  1  0  0  0  0
 14 16  2  0  0  0  0
 14 15  1  0  0  0  0
 16 17  1  0  0  0  0
 18 16  1  0  0  0  0
 19 18  2  0  0  0  0
 20 19  1  0  0  0  0
 20 13  2  0  0  0  0
 21 23  1  0  0  0  0
 21 22  1  0  0  0  0
 24 21  1  0  0  0  0
 24 25  2  0  0  0  0
 25 29  1  0  0  0  0
 26 25  1  0  0  0  0
 27 28  2  0  0  0  0
 27 26  1  0  0  0  0
 28 24  1  0  0  0  0
 30 27  1  0  0  0  0
 31 32  2  0  0  0  0
 32 30  1  0  0  0  0
 32 33  1  0  0  0  0
 33 34  1  0  0  0  0
 35 36  1  0  0  0  0
 35 32  1  0  0  0  0
M  END
>  <minimizedAffinity>
-4.40205956

>  <minimizedRMSD>
1.05569398

$$$$
