
 OpenBabel03252507443D

 36 38  0  0  0  0  0  0  0  0999 V2000
   47.6340   34.6270   40.9000 C   0  0  0  0  0  0  0  0  0  0  0  0
   47.9770   35.5180   40.3060 H   0  0  0  0  0  0  0  0  0  0  0  0
   46.9520   34.0350   40.2830 H   0  0  0  0  0  0  0  0  0  0  0  0
   48.8240   33.8790   41.3190 C   0  0  0  0  0  0  0  0  0  0  0  0
   48.9160   32.5750   40.8650 C   0  0  0  0  0  0  0  0  0  0  0  0
   49.9850   31.7420   41.1770 C   0  0  0  0  0  0  0  0  0  0  0  0
   50.9600   32.3030   41.9770 N   0  0  0  0  0  0  0  0  0  0  0  0
   50.8440   33.5770   42.4040 C   0  0  0  0  0  0  0  0  0  0  0  0
   49.8020   34.3290   42.0760 N   0  0  0  0  0  0  0  0  0  0  0  0
   50.0630   30.7330   40.8310 H   0  0  0  0  0  0  0  0  0  0  0  0
   51.6160   34.0290   43.0410 H   0  0  0  0  0  0  0  0  0  0  0  0
   47.6210   31.8800   39.7960 S   0  0  0  0  0  0  0  0  0  0  0  0
   46.2210   31.3620   40.7470 C   0  0  0  0  0  0  0  0  0  0  0  0
   45.0150   30.8580   40.2710 C   0  0  0  0  0  0  0  0  0  0  0  0
   44.9670   30.7920   39.2110 H   0  0  0  0  0  0  0  0  0  0  0  0
   44.0350   30.5060   41.1720 C   0  0  0  0  0  0  0  0  0  0  0  0
   43.1240   30.1220   40.7650 H   0  0  0  0  0  0  0  0  0  0  0  0
   44.1960   30.6300   42.5390 C   0  0  0  0  0  3  0  0  0  0  0  0
   45.4110   31.1360   42.9540 C   0  0  0  0  0  3  0  0  0  0  0  0
   46.4000   31.4940   42.0860 N   0  0  0  0  0  0  0  0  0  0  0  0
   46.8440   35.1420   42.0640 C   0  0  0  0  0  0  0  0  0  0  0  0
   47.1220   34.6780   43.0340 H   0  0  0  0  0  0  0  0  0  0  0  0
   47.0890   36.2290   42.1880 H   0  0  0  0  0  0  0  0  0  0  0  0
   45.3710   35.0330   41.8700 C   0  0  0  0  0  0  0  0  0  0  0  0
   44.4870   35.6440   42.8210 C   0  0  0  0  0  0  0  0  0  0  0  0
   42.8270   35.2380   42.1570 S   0  0  0  0  0  0  0  0  0  0  0  0
   43.6130   34.3040   40.6960 C   0  0  0  0  0  0  0  0  0  0  0  0
   44.7270   34.4290   40.9080 N   0  0  0  0  0  0  0  0  0  0  0  0
   44.7680   36.1990   43.7020 H   0  0  0  0  0  0  0  0  0  0  0  0
   42.8630   33.6740   39.6890 O   0  0  0  0  0  0  0  0  0  0  0  0
   40.9380   33.8540   37.8770 O   0  0  0  0  0  0  0  0  0  0  0  0
   41.9330   34.6800   38.6820 P   0  0  0  0  0  0  0  0  0  0  0  0
   41.0980   35.7790   39.6560 O   0  0  0  0  0  0  0  0  0  0  0  0
   40.3790   35.3210   40.1610 H   0  0  0  0  0  0  0  0  0  0  0  0
   42.9620   35.5460   37.6470 O   0  0  0  0  0  0  0  0  0  0  0  0
   43.1830   36.4430   38.0260 H   0  0  0  0  0  0  0  0  0  0  0  0
  1  4  1  0  0  0  0
  1 21  1  0  0  0  0
  2  1  1  0  0  0  0
  3  1  1  0  0  0  0
  4  9  1  0  0  0  0
  5  6  1  0  0  0  0
  5  4  2  0  0  0  0
  6  7  2  0  0  0  0
  7  8  1  0  0  0  0
  8 11  1  0  0  0  0
  9  8  2  0  0  0  0
 10  6  1  0  0  0  0
 12 13  1  0  0  0  0
 12  5  1  0  0  0  0
 13 20  1  0  0  0  0
 14 13  2  0  0  0  0
 14 16  1  0  0  0  0
 15 14  1  0  0  0  0
 16 18  2  0  0  0  0
 17 16  1  0  0  0  0
 18 19  1  0  0  0  0
 20 19  2  0  0  0  0
 21 23  1  0  0  0  0
 21 22  1  0  0  0  0
 24 21  1  0  0  0  0
 24 25  2  0  0  0  0
 25 29  1  0  0  0  0
 26 25  1  0  0  0  0
 27 28  2  0  0  0  0
 27 26  1  0  0  0  0
 28 24  1  0  0  0  0
 30 27  1  0  0  0  0
 31 32  2  0  0  0  0
 32 33  1  0  0  0  0
 32 30  1  0  0  0  0
 33 34  1  0  0  0  0
 35 36  1  0  0  0  0
 35 32  1  0  0  0  0
M  END
>  <minimizedAffinity>
-4.32791042

>  <minimizedRMSD>
1.04505241

$$$$
