
 OpenBabel03252507453D

 36 38  0  0  0  0  0  0  0  0999 V2000
   47.2900   34.5410   40.8830 C   0  0  0  0  0  0  0  0  0  0  0  0
   47.5610   35.3830   40.1870 H   0  0  0  0  0  0  0  0  0  0  0  0
   46.6510   33.8350   40.3460 H   0  0  0  0  0  0  0  0  0  0  0  0
   48.5360   33.9360   41.3650 C   0  0  0  0  0  0  0  0  0  0  0  0
   48.7050   32.5900   41.0940 C   0  0  0  0  0  0  0  0  0  0  0  0
   49.8330   31.8780   41.4860 C   0  0  0  0  0  0  0  0  0  0  0  0
   50.7850   32.6050   42.1710 N   0  0  0  0  0  0  0  0  0  0  0  0
   50.5940   33.9170   42.4200 C   0  0  0  0  0  0  0  0  0  0  0  0
   49.4980   34.5490   42.0230 N   0  0  0  0  0  0  0  0  0  0  0  0
   49.9710   30.8370   41.2820 H   0  0  0  0  0  0  0  0  0  0  0  0
   51.3470   34.5020   42.9640 H   0  0  0  0  0  0  0  0  0  0  0  0
   47.4360   31.6710   40.1710 S   0  0  0  0  0  0  0  0  0  0  0  0
   45.9990   31.3970   41.1680 C   0  0  0  0  0  0  0  0  0  0  0  0
   45.9000   31.4930   42.5530 C   0  0  0  0  0  0  0  0  0  0  0  0
   46.8100   31.7640   43.0300 H   0  0  0  0  0  0  0  0  0  0  0  0
   44.6880   31.2400   43.1540 C   0  0  0  0  0  0  0  0  0  0  0  0
   44.6540   31.3250   44.2200 H   0  0  0  0  0  0  0  0  0  0  0  0
   43.5560   30.8910   42.4420 C   0  0  0  0  0  3  0  0  0  0  0  0
   43.7130   30.8110   41.0730 C   0  0  0  0  0  3  0  0  0  0  0  0
   44.9000   31.0550   40.4470 N   0  0  0  0  0  0  0  0  0  0  0  0
   46.4720   35.1250   41.9930 C   0  0  0  0  0  0  0  0  0  0  0  0
   46.7300   34.7270   42.9970 H   0  0  0  0  0  0  0  0  0  0  0  0
   46.7070   36.2190   42.0520 H   0  0  0  0  0  0  0  0  0  0  0  0
   45.0030   34.9920   41.7740 C   0  0  0  0  0  0  0  0  0  0  0  0
   44.0960   35.4160   42.8020 C   0  0  0  0  0  0  0  0  0  0  0  0
   42.4530   35.0560   42.0710 S   0  0  0  0  0  0  0  0  0  0  0  0
   43.2760   34.3900   40.4890 C   0  0  0  0  0  0  0  0  0  0  0  0
   44.3840   34.5220   40.7260 N   0  0  0  0  0  0  0  0  0  0  0  0
   44.3550   35.8380   43.7600 H   0  0  0  0  0  0  0  0  0  0  0  0
   42.5520   33.8950   39.3910 O   0  0  0  0  0  0  0  0  0  0  0  0
   40.5600   34.3100   37.6940 O   0  0  0  0  0  0  0  0  0  0  0  0
   41.6330   35.0210   38.5090 P   0  0  0  0  0  0  0  0  0  0  0  0
   40.9010   36.0820   39.6020 O   0  0  0  0  0  0  0  0  0  0  0  0
   40.1820   35.6220   40.1060 H   0  0  0  0  0  0  0  0  0  0  0  0
   42.6590   35.9130   37.4930 O   0  0  0  0  0  0  0  0  0  0  0  0
   42.9450   36.7650   37.9280 H   0  0  0  0  0  0  0  0  0  0  0  0
  1  4  1  0  0  0  0
  1 21  1  0  0  0  0
  2  1  1  0  0  0  0
  3  1  1  0  0  0  0
  4  9  1  0  0  0  0
  5  4  2  0  0  0  0
  5  6  1  0  0  0  0
  6  7  2  0  0  0  0
  7  8  1  0  0  0  0
  8 11  1  0  0  0  0
  9  8  2  0  0  0  0
 10  6  1  0  0  0  0
 12  5  1  0  0  0  0
 12 13  1  0  0  0  0
 13 14  1  0  0  0  0
 14 15  1  0  0  0  0
 14 16  2  0  0  0  0
 16 17  1  0  0  0  0
 18 16  1  0  0  0  0
 19 18  2  0  0  0  0
 20 19  1  0  0  0  0
 20 13  2  0  0  0  0
 21 23  1  0  0  0  0
 21 22  1  0  0  0  0
 24 21  1  0  0  0  0
 24 25  2  0  0  0  0
 25 29  1  0  0  0  0
 26 25  1  0  0  0  0
 27 28  2  0  0  0  0
 27 26  1  0  0  0  0
 28 24  1  0  0  0  0
 30 27  1  0  0  0  0
 31 32  2  0  0  0  0
 32 30  1  0  0  0  0
 32 33  1  0  0  0  0
 33 34  1  0  0  0  0
 35 36  1  0  0  0  0
 35 32  1  0  0  0  0
M  END
>  <minimizedAffinity>
-4.37120485

>  <minimizedRMSD>
1.06452048

$$$$
