
 OpenBabel03242514243D

 33 36  0  0  0  0  0  0  0  0999 V2000
   40.7930   30.5200   40.6700 Cl  0  0  0  0  0  0  0  0  0  0  0  0
   39.2860   31.3510   40.3800 C   0  0  0  0  0  0  0  0  0  0  0  0
   39.2940   32.5050   39.6440 C   0  0  0  0  0  0  0  0  0  0  0  0
   38.0990   33.1910   39.3970 C   0  0  0  0  0  0  0  0  0  0  0  0
   36.9490   32.6580   39.9190 C   0  0  0  0  0  0  0  0  0  0  0  0
   36.9630   31.4930   40.6580 C   0  0  0  0  0  0  0  0  0  0  0  0
   38.1250   30.8410   40.8880 C   0  0  0  0  0  0  0  0  0  0  0  0
   38.0680   34.1070   38.8200 H   0  0  0  0  0  0  0  0  0  0  0  0
   35.9920   33.1470   39.7600 H   0  0  0  0  0  0  0  0  0  0  0  0
   36.0320   31.1000   41.0550 H   0  0  0  0  0  0  0  0  0  0  0  0
   42.4640   34.3490   39.3800 C   0  0  0  0  0  0  0  0  0  0  0  0
   42.8890   34.0310   38.0860 C   0  0  0  0  0  0  0  0  0  0  0  0
   42.0860   33.1880   37.3170 C   0  0  0  0  0  0  0  0  0  0  0  0
   40.9480   32.7300   37.8620 N   0  0  0  0  0  0  0  0  0  0  0  0
   40.5450   33.0390   39.1070 C   0  0  0  0  0  0  0  0  0  0  0  0
   41.3050   33.8500   39.8670 N   0  0  0  0  0  0  0  0  0  0  0  0
   43.0300   34.9900   40.0280 H   0  0  0  0  0  0  0  0  0  0  0  0
   43.8210   34.4410   37.7140 H   0  0  0  0  0  0  0  0  0  0  0  0
   42.3960   32.9250   36.3030 H   0  0  0  0  0  0  0  0  0  0  0  0
   38.1740   29.5990   41.6700 C   0  0  0  0  0  0  0  0  0  0  0  0
   38.3020   29.4730   42.9970 N   0  0  0  0  0  0  0  0  0  0  0  0
   38.3030   28.1630   43.3040 C   0  0  0  0  0  0  0  0  0  0  0  0
   38.1760   27.4510   42.1700 N   0  0  0  0  0  0  0  0  0  0  0  0
   38.0970   28.3420   41.1740 N   0  0  0  0  0  0  0  0  0  0  0  0
   38.3810   27.6100   44.2300 H   0  0  0  0  0  0  0  0  0  0  0  0
   38.1080   26.0800   41.7930 C   0  0  0  0  0  0  0  0  0  0  0  0
   36.9730   25.3120   42.0790 C   0  0  0  0  0  0  0  0  0  0  0  0
   36.1420   25.7890   42.5970 H   0  0  0  0  0  0  0  0  0  0  0  0
   36.9680   23.9700   41.6830 C   0  0  0  0  0  0  0  0  0  0  0  0
   36.1020   23.3670   41.8960 H   0  0  0  0  0  0  0  0  0  0  0  0
   38.0920   23.4690   41.0250 C   0  0  0  0  0  3  0  0  0  0  0  0
   39.1970   24.2780   40.7650 C   0  0  0  0  0  3  0  0  0  0  0  0
   39.2060   25.5840   41.1490 N   0  0  0  0  0  0  0  0  0  0  0  0
  2  1  1  0  0  0  0
  2  7  1  0  0  0  0
  3  2  2  0  0  0  0
  4  3  1  0  0  0  0
  4  5  2  0  0  0  0
  5  6  1  0  0  0  0
  6  7  2  0  0  0  0
  6 10  1  0  0  0  0
  7 20  1  0  0  0  0
  8  4  1  0  0  0  0
  9  5  1  0  0  0  0
 11 16  1  0  0  0  0
 11 17  1  0  0  0  0
 12 11  2  0  0  0  0
 13 14  2  0  0  0  0
 13 12  1  0  0  0  0
 14 15  1  0  0  0  0
 15  3  1  0  0  0  0
 15 16  2  0  0  0  0
 18 12  1  0  0  0  0
 19 13  1  0  0  0  0
 20 21  1  0  0  0  0
 21 22  2  0  0  0  0
 22 25  1  0  0  0  0
 23 22  1  0  0  0  0
 24 20  2  0  0  0  0
 24 23  1  0  0  0  0
 26 27  1  0  0  0  0
 26 23  1  0  0  0  0
 27 28  1  0  0  0  0
 29 30  1  0  0  0  0
 29 27  2  0  0  0  0
 31 29  1  0  0  0  0
 32 31  2  0  0  0  0
 32 33  1  0  0  0  0
 33 26  2  0  0  0  0
M  END
>  <minimizedAffinity>
-5.82615185

$$$$

 OpenBabel03242514243D

 33 36  0  0  0  0  0  0  0  0999 V2000
   37.8200   27.6160   39.2400 Cl  0  0  0  0  0  0  0  0  0  0  0  0
   37.5870   27.7720   40.9630 C   0  0  0  0  0  0  0  0  0  0  0  0
   37.4780   26.6400   41.7240 C   0  0  0  0  0  0  0  0  0  0  0  0
   37.2900   26.7380   43.1080 C   0  0  0  0  0  0  0  0  0  0  0  0
   37.2240   27.9960   43.6460 C   0  0  0  0  0  0  0  0  0  0  0  0
   37.3370   29.1250   42.8600 C   0  0  0  0  0  0  0  0  0  0  0  0
   37.5180   29.0150   41.5240 C   0  0  0  0  0  0  0  0  0  0  0  0
   37.1990   25.8630   43.7410 H   0  0  0  0  0  0  0  0  0  0  0  0
   37.0780   28.1340   44.7140 H   0  0  0  0  0  0  0  0  0  0  0  0
   37.2800   30.1060   43.3220 H   0  0  0  0  0  0  0  0  0  0  0  0
   38.8230   23.4680   40.4430 C   0  0  0  0  0  0  0  0  0  0  0  0
   37.6780   22.8320   39.9520 C   0  0  0  0  0  0  0  0  0  0  0  0
   36.4560   23.4960   40.0650 C   0  0  0  0  0  0  0  0  0  0  0  0
   36.4480   24.7100   40.6380 N   0  0  0  0  0  0  0  0  0  0  0  0
   37.5530   25.3150   41.1080 C   0  0  0  0  0  0  0  0  0  0  0  0
   38.7420   24.6930   41.0100 N   0  0  0  0  0  0  0  0  0  0  0  0
   39.7960   23.0170   40.3900 H   0  0  0  0  0  0  0  0  0  0  0  0
   37.7640   21.8510   39.5000 H   0  0  0  0  0  0  0  0  0  0  0  0
   35.5480   23.0210   39.6890 H   0  0  0  0  0  0  0  0  0  0  0  0
   37.6420   30.1960   40.6600 C   0  0  0  0  0  0  0  0  0  0  0  0
   36.6550   30.9270   40.1290 N   0  0  0  0  0  0  0  0  0  0  0  0
   37.2010   31.9190   39.4010 C   0  0  0  0  0  0  0  0  0  0  0  0
   38.5410   31.8200   39.4690 N   0  0  0  0  0  0  0  0  0  0  0  0
   38.8000   30.7600   40.2440 N   0  0  0  0  0  0  0  0  0  0  0  0
   36.7940   32.7280   38.8120 H   0  0  0  0  0  0  0  0  0  0  0  0
   39.6720   32.5160   38.9560 C   0  0  0  0  0  0  0  0  0  0  0  0
   40.3480   32.0510   37.8220 C   0  0  0  0  0  0  0  0  0  0  0  0
   39.9870   31.1430   37.3400 H   0  0  0  0  0  0  0  0  0  0  0  0
   41.4530   32.7800   37.3680 C   0  0  0  0  0  0  0  0  0  0  0  0
   41.9820   32.4350   36.4970 H   0  0  0  0  0  0  0  0  0  0  0  0
   41.8210   33.9300   38.0680 C   0  0  0  0  0  3  0  0  0  0  0  0
   41.1130   34.3480   39.1930 C   0  0  0  0  0  3  0  0  0  0  0  0
   40.0380   33.6420   39.6380 N   0  0  0  0  0  0  0  0  0  0  0  0
  1  2  1  0  0  0  0
  2  7  2  0  0  0  0
  2  3  1  0  0  0  0
  3  4  2  0  0  0  0
  4  5  1  0  0  0  0
  4  8  1  0  0  0  0
  5  9  1  0  0  0  0
  6 10  1  0  0  0  0
  6  5  2  0  0  0  0
  7  6  1  0  0  0  0
 11 16  1  0  0  0  0
 12 13  1  0  0  0  0
 12 11  2  0  0  0  0
 13 14  2  0  0  0  0
 14 15  1  0  0  0  0
 15  3  1  0  0  0  0
 16 15  2  0  0  0  0
 17 11  1  0  0  0  0
 18 12  1  0  0  0  0
 19 13  1  0  0  0  0
 20  7  1  0  0  0  0
 21 20  1  0  0  0  0
 22 23  1  0  0  0  0
 22 21  2  0  0  0  0
 23 24  1  0  0  0  0
 24 20  2  0  0  0  0
 25 22  1  0  0  0  0
 26 23  1  0  0  0  0
 26 33  1  0  0  0  0
 27 26  2  0  0  0  0
 28 27  1  0  0  0  0
 29 27  1  0  0  0  0
 29 31  2  0  0  0  0
 30 29  1  0  0  0  0
 31 32  1  0  0  0  0
 32 33  2  0  0  0  0
M  END
>  <minimizedAffinity>
-5.69293118

$$$$

 OpenBabel03242514243D

 33 36  0  0  0  0  0  0  0  0999 V2000
   40.4930   30.6760   38.6220 Cl  0  0  0  0  0  0  0  0  0  0  0  0
   39.4360   31.9540   39.1650 C   0  0  0  0  0  0  0  0  0  0  0  0
   39.9530   33.2060   39.3600 C   0  0  0  0  0  0  0  0  0  0  0  0
   39.1260   34.2480   39.7950 C   0  0  0  0  0  0  0  0  0  0  0  0
   37.8050   33.9550   40.0100 C   0  0  0  0  0  0  0  0  0  0  0  0
   37.3050   32.6850   39.8070 C   0  0  0  0  0  0  0  0  0  0  0  0
   38.1150   31.6880   39.3860 C   0  0  0  0  0  0  0  0  0  0  0  0
   39.5010   35.2510   39.9600 H   0  0  0  0  0  0  0  0  0  0  0  0
   37.1160   34.7240   40.3490 H   0  0  0  0  0  0  0  0  0  0  0  0
   36.2510   32.4910   39.9870 H   0  0  0  0  0  0  0  0  0  0  0  0
   43.5680   33.5860   39.9130 C   0  0  0  0  0  0  0  0  0  0  0  0
   44.0240   33.9800   38.6510 C   0  0  0  0  0  0  0  0  0  0  0  0
   43.0900   34.1110   37.6230 C   0  0  0  0  0  0  0  0  0  0  0  0
   41.8030   33.8530   37.9030 N   0  0  0  0  0  0  0  0  0  0  0  0
   41.3710   33.4740   39.1190 C   0  0  0  0  0  0  0  0  0  0  0  0
   42.2540   33.3400   40.1250 N   0  0  0  0  0  0  0  0  0  0  0  0
   44.2280   33.4640   40.7490 H   0  0  0  0  0  0  0  0  0  0  0  0
   45.0810   34.1720   38.5020 H   0  0  0  0  0  0  0  0  0  0  0  0
   43.4220   34.4180   36.6290 H   0  0  0  0  0  0  0  0  0  0  0  0
   37.6130   30.3270   39.1610 C   0  0  0  0  0  0  0  0  0  0  0  0
   37.0540   29.8350   38.0490 N   0  0  0  0  0  0  0  0  0  0  0  0
   36.7350   28.5450   38.2640 C   0  0  0  0  0  0  0  0  0  0  0  0
   37.0930   28.2130   39.5180 N   0  0  0  0  0  0  0  0  0  0  0  0
   37.6300   29.3140   40.0580 N   0  0  0  0  0  0  0  0  0  0  0  0
   36.2770   27.7750   37.6600 H   0  0  0  0  0  0  0  0  0  0  0  0
   37.0440   27.0610   40.3530 C   0  0  0  0  0  0  0  0  0  0  0  0
   37.1210   27.1800   41.7460 C   0  0  0  0  0  0  0  0  0  0  0  0
   37.2200   28.1760   42.1760 H   0  0  0  0  0  0  0  0  0  0  0  0
   37.0680   26.0100   42.5120 C   0  0  0  0  0  0  0  0  0  0  0  0
   37.1270   26.0860   43.5830 H   0  0  0  0  0  0  0  0  0  0  0  0
   36.9410   24.7890   41.8480 C   0  0  0  0  0  3  0  0  0  0  0  0
   36.8680   24.7280   40.4580 C   0  0  0  0  0  3  0  0  0  0  0  0
   36.9200   25.8630   39.7090 N   0  0  0  0  0  0  0  0  0  0  0  0
  1  2  1  0  0  0  0
  2  3  2  0  0  0  0
  2  7  1  0  0  0  0
  3  4  1  0  0  0  0
  4  8  1  0  0  0  0
  4  5  2  0  0  0  0
  5  9  1  0  0  0  0
  6 10  1  0  0  0  0
  6  5  1  0  0  0  0
  7  6  2  0  0  0  0
 11 16  1  0  0  0  0
 11 17  1  0  0  0  0
 12 11  2  0  0  0  0
 13 14  2  0  0  0  0
 13 12  1  0  0  0  0
 14 15  1  0  0  0  0
 15  3  1  0  0  0  0
 15 16  2  0  0  0  0
 18 12  1  0  0  0  0
 19 13  1  0  0  0  0
 20  7  1  0  0  0  0
 20 24  2  0  0  0  0
 21 22  2  0  0  0  0
 21 20  1  0  0  0  0
 22 23  1  0  0  0  0
 23 24  1  0  0  0  0
 23 26  1  0  0  0  0
 25 22  1  0  0  0  0
 26 27  1  0  0  0  0
 27 28  1  0  0  0  0
 27 29  2  0  0  0  0
 29 30  1  0  0  0  0
 31 29  1  0  0  0  0
 32 31  2  0  0  0  0
 33 26  2  0  0  0  0
 33 32  1  0  0  0  0
M  END
>  <minimizedAffinity>
-5.60203218

$$$$

 OpenBabel03242514243D

 33 36  0  0  0  0  0  0  0  0999 V2000
   35.5320   29.5620   39.4030 Cl  0  0  0  0  0  0  0  0  0  0  0  0
   35.7410   27.8600   39.0830 C   0  0  0  0  0  0  0  0  0  0  0  0
   36.5460   27.1220   39.9070 C   0  0  0  0  0  0  0  0  0  0  0  0
   36.7310   25.7550   39.6720 C   0  0  0  0  0  0  0  0  0  0  0  0
   36.0780   25.2070   38.5980 C   0  0  0  0  0  0  0  0  0  0  0  0
   35.2700   25.9700   37.7800 C   0  0  0  0  0  0  0  0  0  0  0  0
   35.1000   27.2890   38.0200 C   0  0  0  0  0  0  0  0  0  0  0  0
   37.3620   25.1400   40.3030 H   0  0  0  0  0  0  0  0  0  0  0  0
   36.1840   24.1510   38.3660 H   0  0  0  0  0  0  0  0  0  0  0  0
   34.7670   25.5010   36.9380 H   0  0  0  0  0  0  0  0  0  0  0  0
   37.2440   28.3530   43.3010 C   0  0  0  0  0  0  0  0  0  0  0  0
   38.5140   28.9210   43.1590 C   0  0  0  0  0  0  0  0  0  0  0  0
   39.1190   28.8760   41.9020 C   0  0  0  0  0  0  0  0  0  0  0  0
   38.4470   28.2910   40.8980 N   0  0  0  0  0  0  0  0  0  0  0  0
   37.2260   27.7470   41.0420 C   0  0  0  0  0  0  0  0  0  0  0  0
   36.6240   27.7780   42.2450 N   0  0  0  0  0  0  0  0  0  0  0  0
   36.7180   28.3500   44.2360 H   0  0  0  0  0  0  0  0  0  0  0  0
   38.9930   29.3770   44.0170 H   0  0  0  0  0  0  0  0  0  0  0  0
   40.1110   29.3130   41.7660 H   0  0  0  0  0  0  0  0  0  0  0  0
   34.2470   28.1280   37.1670 C   0  0  0  0  0  0  0  0  0  0  0  0
   34.3910   28.3770   35.8600 N   0  0  0  0  0  0  0  0  0  0  0  0
   33.3950   29.1940   35.4680 C   0  0  0  0  0  0  0  0  0  0  0  0
   32.6140   29.4660   36.5290 N   0  0  0  0  0  0  0  0  0  0  0  0
   33.1460   28.8070   37.5660 N   0  0  0  0  0  0  0  0  0  0  0  0
   33.1220   29.6430   34.5240 H   0  0  0  0  0  0  0  0  0  0  0  0
   31.4430   30.2280   36.8030 C   0  0  0  0  0  0  0  0  0  0  0  0
   30.9560   31.1540   35.8730 C   0  0  0  0  0  0  0  0  0  0  0  0
   31.4940   31.2780   34.9340 H   0  0  0  0  0  0  0  0  0  0  0  0
   29.8000   31.8720   36.2010 C   0  0  0  0  0  0  0  0  0  0  0  0
   29.4140   32.5880   35.4960 H   0  0  0  0  0  0  0  0  0  0  0  0
   29.1960   31.6280   37.4350 C   0  0  0  0  0  3  0  0  0  0  0  0
   29.7240   30.6940   38.3240 C   0  0  0  0  0  3  0  0  0  0  0  0
   30.8480   29.9940   38.0100 N   0  0  0  0  0  0  0  0  0  0  0  0
  2  1  1  0  0  0  0
  2  3  1  0  0  0  0
  3 15  1  0  0  0  0
  4  3  2  0  0  0  0
  4  8  1  0  0  0  0
  5  4  1  0  0  0  0
  6  7  1  0  0  0  0
  6  5  2  0  0  0  0
  7  2  2  0  0  0  0
  9  5  1  0  0  0  0
 10  6  1  0  0  0  0
 11 17  1  0  0  0  0
 12 11  1  0  0  0  0
 12 18  1  0  0  0  0
 13 12  2  0  0  0  0
 14 15  2  0  0  0  0
 14 13  1  0  0  0  0
 15 16  1  0  0  0  0
 16 11  2  0  0  0  0
 19 13  1  0  0  0  0
 20 24  2  0  0  0  0
 20  7  1  0  0  0  0
 21 20  1  0  0  0  0
 22 21  2  0  0  0  0
 22 23  1  0  0  0  0
 23 26  1  0  0  0  0
 23 24  1  0  0  0  0
 25 22  1  0  0  0  0
 26 33  1  0  0  0  0
 27 29  1  0  0  0  0
 27 26  2  0  0  0  0
 28 27  1  0  0  0  0
 29 31  2  0  0  0  0
 30 29  1  0  0  0  0
 31 32  1  0  0  0  0
 33 32  2  0  0  0  0
M  END
>  <minimizedAffinity>
-5.55530167

$$$$

 OpenBabel03242514243D

 33 36  0  0  0  0  0  0  0  0999 V2000
   36.4830   27.3640   38.5120 Cl  0  0  0  0  0  0  0  0  0  0  0  0
   36.7210   26.5990   40.0610 C   0  0  0  0  0  0  0  0  0  0  0  0
   36.7360   25.2320   40.1330 C   0  0  0  0  0  0  0  0  0  0  0  0
   36.9240   24.5940   41.3640 C   0  0  0  0  0  0  0  0  0  0  0  0
   37.0890   25.3900   42.4670 C   0  0  0  0  0  0  0  0  0  0  0  0
   37.0700   26.7670   42.3730 C   0  0  0  0  0  0  0  0  0  0  0  0
   36.8880   27.3700   41.1760 C   0  0  0  0  0  0  0  0  0  0  0  0
   36.9410   23.5140   41.4580 H   0  0  0  0  0  0  0  0  0  0  0  0
   37.2380   24.9510   43.4500 H   0  0  0  0  0  0  0  0  0  0  0  0
   37.2050   27.3660   43.2680 H   0  0  0  0  0  0  0  0  0  0  0  0
   35.1380   23.2950   37.4480 C   0  0  0  0  0  0  0  0  0  0  0  0
   36.2320   22.8980   36.6720 C   0  0  0  0  0  0  0  0  0  0  0  0
   37.5060   23.2990   37.0760 C   0  0  0  0  0  0  0  0  0  0  0  0
   37.6110   24.0420   38.1890 N   0  0  0  0  0  0  0  0  0  0  0  0
   36.5550   24.4200   38.9300 C   0  0  0  0  0  0  0  0  0  0  0  0
   35.3160   24.0450   38.5590 N   0  0  0  0  0  0  0  0  0  0  0  0
   34.1300   23.0240   37.1980 H   0  0  0  0  0  0  0  0  0  0  0  0
   36.0680   22.2960   35.7860 H   0  0  0  0  0  0  0  0  0  0  0  0
   38.3760   23.0020   36.4870 H   0  0  0  0  0  0  0  0  0  0  0  0
   36.8630   28.8320   41.0430 C   0  0  0  0  0  0  0  0  0  0  0  0
   35.7910   29.6330   41.0220 N   0  0  0  0  0  0  0  0  0  0  0  0
   36.2100   30.9050   40.8830 C   0  0  0  0  0  0  0  0  0  0  0  0
   37.5540   30.9150   40.8150 N   0  0  0  0  0  0  0  0  0  0  0  0
   37.9430   29.6380   40.9140 N   0  0  0  0  0  0  0  0  0  0  0  0
   35.7040   31.8580   40.8200 H   0  0  0  0  0  0  0  0  0  0  0  0
   38.5900   31.8800   40.6750 C   0  0  0  0  0  0  0  0  0  0  0  0
   38.2940   33.2110   40.3570 C   0  0  0  0  0  0  0  0  0  0  0  0
   37.2510   33.4910   40.2200 H   0  0  0  0  0  0  0  0  0  0  0  0
   39.3580   34.1120   40.2330 C   0  0  0  0  0  0  0  0  0  0  0  0
   39.1460   35.1380   39.9890 H   0  0  0  0  0  0  0  0  0  0  0  0
   40.6550   33.6370   40.4320 C   0  0  0  0  0  3  0  0  0  0  0  0
   40.8940   32.3000   40.7460 C   0  0  0  0  0  3  0  0  0  0  0  0
   39.8620   31.4200   40.8680 N   0  0  0  0  0  0  0  0  0  0  0  0
  1  2  1  0  0  0  0
  2  3  2  0  0  0  0
  2  7  1  0  0  0  0
  3  4  1  0  0  0  0
  4  8  1  0  0  0  0
  4  5  2  0  0  0  0
  5  9  1  0  0  0  0
  6  5  1  0  0  0  0
  6 10  1  0  0  0  0
  7  6  2  0  0  0  0
 11 16  1  0  0  0  0
 12 13  1  0  0  0  0
 12 11  2  0  0  0  0
 13 14  2  0  0  0  0
 14 15  1  0  0  0  0
 15  3  1  0  0  0  0
 16 15  2  0  0  0  0
 17 11  1  0  0  0  0
 18 12  1  0  0  0  0
 19 13  1  0  0  0  0
 20  7  1  0  0  0  0
 21 20  1  0  0  0  0
 22 21  2  0  0  0  0
 23 22  1  0  0  0  0
 23 24  1  0  0  0  0
 24 20  2  0  0  0  0
 25 22  1  0  0  0  0
 26 23  1  0  0  0  0
 26 33  1  0  0  0  0
 27 26  2  0  0  0  0
 28 27  1  0  0  0  0
 29 27  1  0  0  0  0
 29 31  2  0  0  0  0
 30 29  1  0  0  0  0
 31 32  1  0  0  0  0
 32 33  2  0  0  0  0
M  END
>  <minimizedAffinity>
-5.41704607

$$$$

 OpenBabel03242514243D

 33 36  0  0  0  0  0  0  0  0999 V2000
   37.4980   31.0510   37.0130 Cl  0  0  0  0  0  0  0  0  0  0  0  0
   36.6120   30.4170   38.3760 C   0  0  0  0  0  0  0  0  0  0  0  0
   35.7540   29.3690   38.1820 C   0  0  0  0  0  0  0  0  0  0  0  0
   35.0310   28.8420   39.2580 C   0  0  0  0  0  0  0  0  0  0  0  0
   35.2230   29.4180   40.4870 C   0  0  0  0  0  0  0  0  0  0  0  0
   36.0940   30.4740   40.6610 C   0  0  0  0  0  0  0  0  0  0  0  0
   36.7860   30.9720   39.6120 C   0  0  0  0  0  0  0  0  0  0  0  0
   34.3430   28.0130   39.1410 H   0  0  0  0  0  0  0  0  0  0  0  0
   34.6890   29.0510   41.3590 H   0  0  0  0  0  0  0  0  0  0  0  0
   36.2210   30.9050   41.6500 H   0  0  0  0  0  0  0  0  0  0  0  0
   36.2440   27.2520   35.2160 C   0  0  0  0  0  0  0  0  0  0  0  0
   35.2340   27.6980   34.3580 C   0  0  0  0  0  0  0  0  0  0  0  0
   34.3940   28.7200   34.8040 C   0  0  0  0  0  0  0  0  0  0  0  0
   34.6040   29.2180   36.0330 N   0  0  0  0  0  0  0  0  0  0  0  0
   35.5780   28.7840   36.8520 C   0  0  0  0  0  0  0  0  0  0  0  0
   36.3990   27.7990   36.4430 N   0  0  0  0  0  0  0  0  0  0  0  0
   36.9260   26.4700   34.9410 H   0  0  0  0  0  0  0  0  0  0  0  0
   35.1270   27.2470   33.3790 H   0  0  0  0  0  0  0  0  0  0  0  0
   33.5980   29.0860   34.1530 H   0  0  0  0  0  0  0  0  0  0  0  0
   37.7190   32.0960   39.7640 C   0  0  0  0  0  0  0  0  0  0  0  0
   37.4240   33.3990   39.8470 N   0  0  0  0  0  0  0  0  0  0  0  0
   38.5710   34.0900   39.9790 C   0  0  0  0  0  0  0  0  0  0  0  0
   39.6020   33.2250   39.9790 N   0  0  0  0  0  0  0  0  0  0  0  0
   39.0670   32.0050   39.8460 N   0  0  0  0  0  0  0  0  0  0  0  0
   38.8070   35.1400   40.0790 H   0  0  0  0  0  0  0  0  0  0  0  0
   41.0210   33.2830   40.0780 C   0  0  0  0  0  0  0  0  0  0  0  0
   41.6520   34.3480   40.7310 C   0  0  0  0  0  0  0  0  0  0  0  0
   41.0310   35.1330   41.1620 H   0  0  0  0  0  0  0  0  0  0  0  0
   43.0500   34.3470   40.7960 C   0  0  0  0  0  0  0  0  0  0  0  0
   43.5490   35.1600   41.2940 H   0  0  0  0  0  0  0  0  0  0  0  0
   43.7390   33.2860   40.2070 C   0  0  0  0  0  3  0  0  0  0  0  0
   43.0600   32.2500   39.5690 C   0  0  0  0  0  3  0  0  0  0  0  0
   41.7010   32.2470   39.5030 N   0  0  0  0  0  0  0  0  0  0  0  0
  1  2  1  0  0  0  0
  2  7  1  0  0  0  0
  3  2  2  0  0  0  0
  3  4  1  0  0  0  0
  4  5  2  0  0  0  0
  5  6  1  0  0  0  0
  5  9  1  0  0  0  0
  6 10  1  0  0  0  0
  7 20  1  0  0  0  0
  7  6  2  0  0  0  0
  8  4  1  0  0  0  0
 11 16  1  0  0  0  0
 12 13  1  0  0  0  0
 12 11  2  0  0  0  0
 13 14  2  0  0  0  0
 14 15  1  0  0  0  0
 15  3  1  0  0  0  0
 16 15  2  0  0  0  0
 17 11  1  0  0  0  0
 18 12  1  0  0  0  0
 19 13  1  0  0  0  0
 20 24  2  0  0  0  0
 20 21  1  0  0  0  0
 21 22  2  0  0  0  0
 22 25  1  0  0  0  0
 23 22  1  0  0  0  0
 23 26  1  0  0  0  0
 24 23  1  0  0  0  0
 26 27  1  0  0  0  0
 27 29  2  0  0  0  0
 27 28  1  0  0  0  0
 29 30  1  0  0  0  0
 31 29  1  0  0  0  0
 32 31  2  0  0  0  0
 33 32  1  0  0  0  0
 33 26  2  0  0  0  0
M  END
>  <minimizedAffinity>
-5.3692956

$$$$

 OpenBabel03242514243D

 33 36  0  0  0  0  0  0  0  0999 V2000
   39.7690   26.9030   40.5330 Cl  0  0  0  0  0  0  0  0  0  0  0  0
   38.5630   27.1800   41.7640 C   0  0  0  0  0  0  0  0  0  0  0  0
   37.5490   26.2750   41.9160 C   0  0  0  0  0  0  0  0  0  0  0  0
   36.5690   26.4740   42.8960 C   0  0  0  0  0  0  0  0  0  0  0  0
   36.6770   27.5960   43.6750 C   0  0  0  0  0  0  0  0  0  0  0  0
   37.7090   28.4960   43.5040 C   0  0  0  0  0  0  0  0  0  0  0  0
   38.6490   28.2910   42.5540 C   0  0  0  0  0  0  0  0  0  0  0  0
   35.7510   25.7780   43.0440 H   0  0  0  0  0  0  0  0  0  0  0  0
   35.9460   27.8040   44.4510 H   0  0  0  0  0  0  0  0  0  0  0  0
   37.7630   29.3750   44.1410 H   0  0  0  0  0  0  0  0  0  0  0  0
   36.6750   24.0460   39.1260 C   0  0  0  0  0  0  0  0  0  0  0  0
   37.3350   22.8620   39.4700 C   0  0  0  0  0  0  0  0  0  0  0  0
   38.0730   22.8380   40.6540 C   0  0  0  0  0  0  0  0  0  0  0  0
   38.1070   23.9550   41.3990 N   0  0  0  0  0  0  0  0  0  0  0  0
   37.4700   25.0900   41.0610 C   0  0  0  0  0  0  0  0  0  0  0  0
   36.7540   25.1360   39.9230 N   0  0  0  0  0  0  0  0  0  0  0  0
   36.0910   24.1370   38.2310 H   0  0  0  0  0  0  0  0  0  0  0  0
   37.2590   21.9990   38.8170 H   0  0  0  0  0  0  0  0  0  0  0  0
   38.5960   21.9250   40.9440 H   0  0  0  0  0  0  0  0  0  0  0  0
   39.7590   29.2300   42.3470 C   0  0  0  0  0  0  0  0  0  0  0  0
   40.9690   29.2040   42.9190 N   0  0  0  0  0  0  0  0  0  0  0  0
   41.6840   30.2460   42.4550 C   0  0  0  0  0  0  0  0  0  0  0  0
   40.9270   30.9390   41.5840 N   0  0  0  0  0  0  0  0  0  0  0  0
   39.7490   30.3060   41.5270 N   0  0  0  0  0  0  0  0  0  0  0  0
   42.6860   30.6070   42.6370 H   0  0  0  0  0  0  0  0  0  0  0  0
   41.0610   32.0960   40.7670 C   0  0  0  0  0  0  0  0  0  0  0  0
   42.2870   32.4170   40.1720 C   0  0  0  0  0  0  0  0  0  0  0  0
   43.1370   31.7600   40.3510 H   0  0  0  0  0  0  0  0  0  0  0  0
   42.3540   33.5690   39.3800 C   0  0  0  0  0  0  0  0  0  0  0  0
   43.2890   33.8280   38.9170 H   0  0  0  0  0  0  0  0  0  0  0  0
   41.1970   34.3340   39.2240 C   0  0  0  0  0  3  0  0  0  0  0  0
   40.0010   33.9680   39.8400 C   0  0  0  0  0  3  0  0  0  0  0  0
   39.9320   32.8490   40.6120 N   0  0  0  0  0  0  0  0  0  0  0  0
  1  2  1  0  0  0  0
  2  3  2  0  0  0  0
  2  7  1  0  0  0  0
  3  4  1  0  0  0  0
  4  8  1  0  0  0  0
  4  5  2  0  0  0  0
  5  9  1  0  0  0  0
  6  5  1  0  0  0  0
  6 10  1  0  0  0  0
  7  6  2  0  0  0  0
 11 12  2  0  0  0  0
 11 16  1  0  0  0  0
 12 13  1  0  0  0  0
 13 19  1  0  0  0  0
 13 14  2  0  0  0  0
 15 14  1  0  0  0  0
 15  3  1  0  0  0  0
 16 15  2  0  0  0  0
 17 11  1  0  0  0  0
 18 12  1  0  0  0  0
 20  7  1  0  0  0  0
 20 21  1  0  0  0  0
 22 25  1  0  0  0  0
 22 21  2  0  0  0  0
 23 22  1  0  0  0  0
 24 23  1  0  0  0  0
 24 20  2  0  0  0  0
 26 23  1  0  0  0  0
 27 28  1  0  0  0  0
 27 26  2  0  0  0  0
 29 27  1  0  0  0  0
 30 29  1  0  0  0  0
 31 29  2  0  0  0  0
 31 32  1  0  0  0  0
 32 33  2  0  0  0  0
 33 26  1  0  0  0  0
M  END
>  <minimizedAffinity>
-5.33020782

$$$$

 OpenBabel03242514243D

 33 36  0  0  0  0  0  0  0  0999 V2000
   40.1580   30.0540   38.1310 Cl  0  0  0  0  0  0  0  0  0  0  0  0
   39.1610   31.3030   38.8310 C   0  0  0  0  0  0  0  0  0  0  0  0
   39.7110   32.5290   39.0860 C   0  0  0  0  0  0  0  0  0  0  0  0
   38.9330   33.5480   39.6480 C   0  0  0  0  0  0  0  0  0  0  0  0
   37.6210   33.2590   39.9210 C   0  0  0  0  0  0  0  0  0  0  0  0
   37.0860   32.0150   39.6550 C   0  0  0  0  0  0  0  0  0  0  0  0
   37.8500   31.0410   39.1120 C   0  0  0  0  0  0  0  0  0  0  0  0
   39.3360   34.5300   39.8640 H   0  0  0  0  0  0  0  0  0  0  0  0
   36.9690   34.0100   40.3580 H   0  0  0  0  0  0  0  0  0  0  0  0
   36.0420   31.8230   39.8850 H   0  0  0  0  0  0  0  0  0  0  0  0
   42.7470   33.5830   37.2990 C   0  0  0  0  0  0  0  0  0  0  0  0
   43.7560   33.2880   38.2210 C   0  0  0  0  0  0  0  0  0  0  0  0
   43.3870   32.7320   39.4470 C   0  0  0  0  0  0  0  0  0  0  0  0
   42.0820   32.5090   39.6710 N   0  0  0  0  0  0  0  0  0  0  0  0
   41.1170   32.7950   38.7800 C   0  0  0  0  0  0  0  0  0  0  0  0
   41.4500   33.3330   37.5920 N   0  0  0  0  0  0  0  0  0  0  0  0
   42.9560   34.0120   36.3380 H   0  0  0  0  0  0  0  0  0  0  0  0
   44.7890   33.4950   37.9670 H   0  0  0  0  0  0  0  0  0  0  0  0
   44.1570   32.4930   40.1830 H   0  0  0  0  0  0  0  0  0  0  0  0
   37.3100   29.7080   38.8180 C   0  0  0  0  0  0  0  0  0  0  0  0
   36.6890   29.3050   37.7020 N   0  0  0  0  0  0  0  0  0  0  0  0
   36.3530   28.0090   37.8430 C   0  0  0  0  0  0  0  0  0  0  0  0
   36.7620   27.5830   39.0520 N   0  0  0  0  0  0  0  0  0  0  0  0
   37.3470   28.6340   39.6410 N   0  0  0  0  0  0  0  0  0  0  0  0
   35.8510   27.2920   37.2100 H   0  0  0  0  0  0  0  0  0  0  0  0
   36.7290   26.3770   39.8070 C   0  0  0  0  0  0  0  0  0  0  0  0
   36.3080   25.1760   39.2230 C   0  0  0  0  0  0  0  0  0  0  0  0
   36.0060   25.1870   38.1770 H   0  0  0  0  0  0  0  0  0  0  0  0
   36.2980   24.0240   40.0180 C   0  0  0  0  0  0  0  0  0  0  0  0
   35.9760   23.0950   39.5830 H   0  0  0  0  0  0  0  0  0  0  0  0
   36.7080   24.1330   41.3470 C   0  0  0  0  0  3  0  0  0  0  0  0
   37.1180   25.3550   41.8780 C   0  0  0  0  0  3  0  0  0  0  0  0
   37.1290   26.4780   41.1090 N   0  0  0  0  0  0  0  0  0  0  0  0
  1  2  1  0  0  0  0
  2  3  2  0  0  0  0
  2  7  1  0  0  0  0
  3  4  1  0  0  0  0
  4  8  1  0  0  0  0
  4  5  2  0  0  0  0
  5  9  1  0  0  0  0
  6 10  1  0  0  0  0
  6  5  1  0  0  0  0
  7  6  2  0  0  0  0
 11 16  2  0  0  0  0
 11 12  1  0  0  0  0
 12 13  2  0  0  0  0
 13 14  1  0  0  0  0
 13 19  1  0  0  0  0
 15  3  1  0  0  0  0
 15 14  2  0  0  0  0
 16 15  1  0  0  0  0
 17 11  1  0  0  0  0
 18 12  1  0  0  0  0
 20  7  1  0  0  0  0
 20 24  2  0  0  0  0
 21 22  2  0  0  0  0
 21 20  1  0  0  0  0
 22 23  1  0  0  0  0
 23 24  1  0  0  0  0
 23 26  1  0  0  0  0
 25 22  1  0  0  0  0
 26 33  1  0  0  0  0
 27 26  2  0  0  0  0
 27 29  1  0  0  0  0
 28 27  1  0  0  0  0
 29 31  2  0  0  0  0
 30 29  1  0  0  0  0
 31 32  1  0  0  0  0
 33 32  2  0  0  0  0
M  END
>  <minimizedAffinity>
-5.22497845

$$$$

 OpenBabel03242514243D

 33 36  0  0  0  0  0  0  0  0999 V2000
   36.9290   30.8510   38.0270 Cl  0  0  0  0  0  0  0  0  0  0  0  0
   36.9680   30.0960   39.6000 C   0  0  0  0  0  0  0  0  0  0  0  0
   36.2500   28.9500   39.8060 C   0  0  0  0  0  0  0  0  0  0  0  0
   36.2640   28.3250   41.0590 C   0  0  0  0  0  0  0  0  0  0  0  0
   37.0180   28.9080   42.0430 C   0  0  0  0  0  0  0  0  0  0  0  0
   37.7350   30.0650   41.8140 C   0  0  0  0  0  0  0  0  0  0  0  0
   37.7120   30.6570   40.5990 C   0  0  0  0  0  0  0  0  0  0  0  0
   35.7070   27.4170   41.2570 H   0  0  0  0  0  0  0  0  0  0  0  0
   37.0670   28.4690   43.0360 H   0  0  0  0  0  0  0  0  0  0  0  0
   38.3220   30.4980   42.6190 H   0  0  0  0  0  0  0  0  0  0  0  0
   35.2080   26.7450   37.0550 C   0  0  0  0  0  0  0  0  0  0  0  0
   33.9590   27.2690   36.7060 C   0  0  0  0  0  0  0  0  0  0  0  0
   33.4850   28.3720   37.4180 C   0  0  0  0  0  0  0  0  0  0  0  0
   34.2570   28.8700   38.3970 N   0  0  0  0  0  0  0  0  0  0  0  0
   35.4570   28.3610   38.7260 C   0  0  0  0  0  0  0  0  0  0  0  0
   35.9330   27.2970   38.0540 N   0  0  0  0  0  0  0  0  0  0  0  0
   35.6350   25.8980   36.5520 H   0  0  0  0  0  0  0  0  0  0  0  0
   33.3940   26.8120   35.9020 H   0  0  0  0  0  0  0  0  0  0  0  0
   32.5130   28.7990   37.1640 H   0  0  0  0  0  0  0  0  0  0  0  0
   38.4640   31.8880   40.3240 C   0  0  0  0  0  0  0  0  0  0  0  0
   38.0370   33.1510   40.4410 N   0  0  0  0  0  0  0  0  0  0  0  0
   39.0400   33.9770   40.0890 C   0  0  0  0  0  0  0  0  0  0  0  0
   40.1100   33.2380   39.7460 N   0  0  0  0  0  0  0  0  0  0  0  0
   39.7450   31.9580   39.8930 N   0  0  0  0  0  0  0  0  0  0  0  0
   39.1420   35.0510   40.0350 H   0  0  0  0  0  0  0  0  0  0  0  0
   41.4420   33.4650   39.2960 C   0  0  0  0  0  0  0  0  0  0  0  0
   41.7000   33.8230   37.9680 C   0  0  0  0  0  0  0  0  0  0  0  0
   40.8570   33.9240   37.2860 H   0  0  0  0  0  0  0  0  0  0  0  0
   43.0300   34.0320   37.5880 C   0  0  0  0  0  0  0  0  0  0  0  0
   43.2440   34.3080   36.5700 H   0  0  0  0  0  0  0  0  0  0  0  0
   44.0270   33.8740   38.5520 C   0  0  0  0  0  3  0  0  0  0  0  0
   43.7140   33.5150   39.8610 C   0  0  0  0  0  3  0  0  0  0  0  0
   42.4220   33.3100   40.2350 N   0  0  0  0  0  0  0  0  0  0  0  0
  1  2  1  0  0  0  0
  2  3  2  0  0  0  0
  2  7  1  0  0  0  0
  3  4  1  0  0  0  0
  4  8  1  0  0  0  0
  4  5  2  0  0  0  0
  5  9  1  0  0  0  0
  6  5  1  0  0  0  0
  6 10  1  0  0  0  0
  7  6  2  0  0  0  0
 11 16  1  0  0  0  0
 12 11  2  0  0  0  0
 12 13  1  0  0  0  0
 13 14  2  0  0  0  0
 14 15  1  0  0  0  0
 15  3  1  0  0  0  0
 16 15  2  0  0  0  0
 17 11  1  0  0  0  0
 18 12  1  0  0  0  0
 19 13  1  0  0  0  0
 20 21  1  0  0  0  0
 20  7  1  0  0  0  0
 22 21  2  0  0  0  0
 23 24  1  0  0  0  0
 23 22  1  0  0  0  0
 24 20  2  0  0  0  0
 25 22  1  0  0  0  0
 26 23  1  0  0  0  0
 26 33  1  0  0  0  0
 27 26  2  0  0  0  0
 28 27  1  0  0  0  0
 29 27  1  0  0  0  0
 29 31  2  0  0  0  0
 30 29  1  0  0  0  0
 31 32  1  0  0  0  0
 32 33  2  0  0  0  0
M  END
>  <minimizedAffinity>
-5.21698523

$$$$
