
 OpenBabel03252508593D

 44 46  0  0  1  0  0  0  0  0999 V2000
   46.6900   34.4730   43.6380 N   0  0  0  0  0  0  0  0  0  0  0  0
   46.2090   35.4170   42.7000 C   0  0  0  0  0  0  0  0  0  0  0  0
   44.7030   35.5810   42.6560 C   0  0  0  0  0  0  0  0  0  0  0  0
   44.0330   35.4030   43.9910 C   0  0  0  0  0  0  0  0  0  0  0  0
   45.0220   35.1590   45.1000 C   0  0  0  0  0  0  0  0  0  0  0  0
   45.8440   33.9250   44.5870 C   0  0  2  0  0  0  0  0  0  0  0  0
   46.6090   36.4200   43.0120 H   0  0  0  0  0  0  0  0  0  0  0  0
   46.5320   35.2880   41.6670 H   0  0  0  0  0  0  0  0  0  0  0  0
   44.3290   34.7890   41.9610 H   0  0  0  0  0  0  0  0  0  0  0  0
   44.5140   36.5640   42.1840 H   0  0  0  0  0  0  0  0  0  0  0  0
   43.2880   34.6030   43.9970 H   0  0  0  0  0  0  0  0  0  0  0  0
   43.5620   36.3940   44.2270 H   0  0  0  0  0  0  0  0  0  0  0  0
   44.4560   34.7850   45.9880 H   0  0  0  0  0  0  0  0  0  0  0  0
   45.6940   35.9970   45.3110 H   0  0  0  0  0  0  0  0  0  0  0  0
   45.0650   33.2140   44.2710 H   0  0  0  0  0  0  0  0  0  0  0  0
   47.7900   33.6720   43.1650 C   0  0  0  0  0  0  0  0  0  0  0  0
   48.5070   34.3500   42.6580 H   0  0  0  0  0  0  0  0  0  0  0  0
   48.3170   33.2480   44.0660 H   0  0  0  0  0  0  0  0  0  0  0  0
   47.2690   32.5680   42.3170 C   0  0  0  0  0  0  0  0  0  0  0  0
   47.4750   31.5670   42.7350 H   0  0  0  0  0  0  0  0  0  0  0  0
   46.1520   32.6310   42.2320 H   0  0  0  0  0  0  0  0  0  0  0  0
   49.4440   31.9780   39.3080 C   0  0  0  0  0  0  0  0  0  0  0  0
   48.9080   31.8720   40.6120 C   0  0  0  0  0  0  0  0  0  0  0  0
   47.8400   32.6700   40.9510 C   0  0  0  0  0  0  0  0  0  0  0  0
   47.3570   33.5130   40.0250 N   0  0  0  0  0  0  0  0  0  0  0  0
   47.8810   33.6000   38.7850 C   0  0  0  0  0  0  0  0  0  0  0  0
   48.9180   32.8420   38.4200 N   0  0  0  0  0  0  0  0  0  0  0  0
   50.2770   31.3160   39.1350 H   0  0  0  0  0  0  0  0  0  0  0  0
   49.3060   31.1890   41.3510 H   0  0  0  0  0  0  0  0  0  0  0  0
   47.5100   34.2730   38.0220 H   0  0  0  0  0  0  0  0  0  0  0  0
   46.5310   33.5460   45.7350 O   0  0  0  0  0  0  0  0  0  0  0  0
   45.6290   31.1470   45.0440 O   0  0  0  0  0  0  0  0  0  0  0  0
   46.1870   31.9570   46.2100 P   0  0  2  0  0  0  0  0  0  0  0  0
   44.9410   32.0570   47.3630 O   0  0  0  0  0  0  0  0  0  0  0  0
   45.1520   32.8050   47.9650 H   0  0  0  0  0  0  0  0  0  0  0  0
   47.5090   31.2360   46.9270 O   0  0  0  0  0  0  0  0  0  0  0  0
   47.8050   29.9070   47.0260 C   0  0  0  0  0  0  0  0  0  0  0  0
   46.9360   28.8900   47.3420 C   0  0  0  0  0  0  0  0  0  0  0  0
   45.9080   29.1640   47.5320 H   0  0  0  0  0  0  0  0  0  0  0  0
   47.3060   27.5640   47.4240 C   0  0  0  0  0  0  0  0  0  0  0  0
   46.6080   26.7770   47.6730 H   0  0  0  0  0  0  0  0  0  0  0  0
   48.6340   27.2010   47.1790 C   0  0  0  0  0  3  0  0  0  0  0  0
   49.4470   28.2760   46.8700 C   0  0  0  0  0  3  0  0  0  0  0  0
   49.1030   29.5660   46.7850 N   0  0  0  0  0  0  0  0  0  0  0  0
  1  6  1  0  0  0  0
  2  7  1  0  0  0  0
  2  1  1  0  0  0  0
  3  2  1  0  0  0  0
  3  4  1  0  0  0  0
  4 11  1  0  0  0  0
  4 12  1  0  0  0  0
  4  5  1  0  0  0  0
  5 14  1  0  0  0  0
  5 13  1  0  0  0  0
  6 15  1  6  0  0  0
  6  5  1  0  0  0  0
  6 31  1  0  0  0  0
  8  2  1  0  0  0  0
  9  3  1  0  0  0  0
 10  3  1  0  0  0  0
 16  1  1  0  0  0  0
 16 18  1  0  0  0  0
 17 16  1  0  0  0  0
 19 20  1  0  0  0  0
 19 16  1  0  0  0  0
 21 19  1  0  0  0  0
 22 23  1  0  0  0  0
 23 24  2  0  0  0  0
 23 29  1  0  0  0  0
 24 19  1  0  0  0  0
 25 24  1  0  0  0  0
 26 25  2  0  0  0  0
 27 26  1  0  0  0  0
 27 22  2  0  0  0  0
 28 22  1  0  0  0  0
 30 26  1  0  0  0  0
 31 33  1  0  0  0  0
 33 32  2  6  0  0  0
 33 36  1  0  0  0  0
 33 34  1  0  0  0  0
 34 35  1  0  0  0  0
 36 37  1  0  0  0  0
 37 38  1  0  0  0  0
 38 40  2  0  0  0  0
 38 39  1  0  0  0  0
 40 41  1  0  0  0  0
 42 40  1  0  0  0  0
 43 42  2  0  0  0  0
 44 43  1  0  0  0  0
 44 37  2  0  0  0  0
M  END
>  <minimizedAffinity>
-4.26974297

>  <minimizedRMSD>
1.40775442

$$$$
