
 OpenBabel03252503173D

 35 38  0  0  0  0  0  0  0  0999 V2000
   35.0910   28.9860   39.3290 C   0  0  0  0  0  0  0  0  0  0  0  0
   33.8700   29.2890   39.4410 O   0  0  0  0  0  0  0  0  0  0  0  0
   35.9690   28.5280   40.4680 C   0  0  0  0  0  0  0  0  0  0  0  0
   36.7340   27.3900   40.5080 C   0  0  0  0  0  0  0  0  0  0  0  0
   37.3410   27.3960   41.7080 N   0  0  0  0  0  0  0  0  0  0  0  0
   36.9600   28.4970   42.3780 C   0  0  0  0  0  0  0  0  0  0  0  0
   36.1060   29.2100   41.6150 N   0  0  0  0  0  0  0  0  0  0  0  0
   37.3050   28.9810   43.6800 N   0  0  0  0  0  0  0  0  0  0  0  0
   36.8210   26.6590   39.7370 H   0  0  0  0  0  0  0  0  0  0  0  0
   38.1690   29.5500   43.8660 H   0  0  0  0  0  0  0  0  0  0  0  0
   36.6450   28.7360   44.4370 H   0  0  0  0  0  0  0  0  0  0  0  0
   38.2410   26.4300   42.2370 C   0  0  0  0  0  0  0  0  0  0  0  0
   38.2040   25.1060   41.8600 C   0  0  0  0  0  0  0  0  0  0  0  0
   37.4370   24.8680   41.1350 H   0  0  0  0  0  0  0  0  0  0  0  0
   39.0980   24.1750   42.3910 C   0  0  0  0  0  0  0  0  0  0  0  0
   39.0200   23.1420   42.0560 H   0  0  0  0  0  0  0  0  0  0  0  0
   40.0370   24.6280   43.3230 C   0  0  0  0  0  3  0  0  0  0  0  0
   40.0490   25.9610   43.6790 C   0  0  0  0  0  3  0  0  0  0  0  0
   39.1600   26.8180   43.1340 N   0  0  0  0  0  0  0  0  0  0  0  0
   35.1390   28.2790   36.9870 C   0  0  0  0  0  0  0  0  0  0  0  0
   35.6400   29.0960   38.0110 C   0  0  0  0  0  0  0  0  0  0  0  0
   36.6520   29.9620   37.6380 C   0  0  0  0  0  0  0  0  0  0  0  0
   37.1240   30.0220   36.3960 N   0  0  0  0  0  0  0  0  0  0  0  0
   36.6100   29.2110   35.4290 C   0  0  0  0  0  0  0  0  0  0  0  0
   35.6240   28.3490   35.7350 N   0  0  0  0  0  0  0  0  0  0  0  0
   34.3440   27.5810   37.2260 H   0  0  0  0  0  0  0  0  0  0  0  0
   37.0340   29.3060   34.4390 H   0  0  0  0  0  0  0  0  0  0  0  0
   37.2040   30.8110   38.6290 C   0  0  0  0  0  0  0  0  0  0  0  0
   36.8160   31.9570   39.2490 C   0  0  0  0  0  0  0  0  0  0  0  0
   37.5390   32.5660   40.1660 C   0  0  0  0  0  0  0  0  0  0  0  0
   38.7190   31.9870   40.4740 C   0  0  0  0  0  0  0  0  0  0  0  0
   38.7810   30.5100   39.3970 S   0  0  0  0  0  0  0  0  0  0  0  0
   35.8270   32.3280   38.9050 H   0  0  0  0  0  0  0  0  0  0  0  0
   37.2730   33.4770   40.6860 H   0  0  0  0  0  0  0  0  0  0  0  0
   39.5170   32.3350   41.2420 H   0  0  0  0  0  0  0  0  0  0  0  0
  1  2  2  0  0  0  0
  1  3  1  0  0  0  0
  3  4  2  0  0  0  0
  3  7  1  0  0  0  0
  4  5  1  0  0  0  0
  5 12  1  0  0  0  0
  5  6  1  0  0  0  0
  6  8  1  0  0  0  0
  7  6  2  0  0  0  0
  8 10  1  0  0  0  0
  8 11  1  0  0  0  0
  9  4  1  0  0  0  0
 12 19  1  0  0  0  0
 13 12  2  0  0  0  0
 13 15  1  0  0  0  0
 14 13  1  0  0  0  0
 15 17  2  0  0  0  0
 16 15  1  0  0  0  0
 17 18  1  0  0  0  0
 19 18  2  0  0  0  0
 20 26  1  0  0  0  0
 20 21  1  0  0  0  0
 21  1  1  0  0  0  0
 22 21  2  0  0  0  0
 22 28  1  0  0  0  0
 23 22  1  0  0  0  0
 24 25  1  0  0  0  0
 24 23  2  0  0  0  0
 25 20  2  0  0  0  0
 27 24  1  0  0  0  0
 28 29  2  0  0  0  0
 28 32  1  0  0  0  0
 29 30  1  0  0  0  0
 30 31  2  0  0  0  0
 30 34  1  0  0  0  0
 31 35  1  0  0  0  0
 32 31  1  0  0  0  0
 33 29  1  0  0  0  0
M  END
>  <minimizedAffinity>
-5.98531055

$$$$

 OpenBabel03252503173D

 35 38  0  0  0  0  0  0  0  0999 V2000
   35.9300   29.3670   39.5170 C   0  0  0  0  0  0  0  0  0  0  0  0
   34.9890   29.6970   40.2920 O   0  0  0  0  0  0  0  0  0  0  0  0
   36.9150   30.3320   38.9050 C   0  0  0  0  0  0  0  0  0  0  0  0
   37.9660   30.9450   39.5390 C   0  0  0  0  0  0  0  0  0  0  0  0
   38.5630   31.7100   38.6080 N   0  0  0  0  0  0  0  0  0  0  0  0
   37.9010   31.5710   37.4460 C   0  0  0  0  0  0  0  0  0  0  0  0
   36.8730   30.7140   37.6200 N   0  0  0  0  0  0  0  0  0  0  0  0
   38.1150   32.1540   36.1580 N   0  0  0  0  0  0  0  0  0  0  0  0
   38.2420   30.8290   40.5620 H   0  0  0  0  0  0  0  0  0  0  0  0
   38.7910   31.7560   35.4570 H   0  0  0  0  0  0  0  0  0  0  0  0
   37.5590   33.0010   35.9530 H   0  0  0  0  0  0  0  0  0  0  0  0
   39.7020   32.5470   38.7640 C   0  0  0  0  0  0  0  0  0  0  0  0
   39.8810   33.3480   39.8700 C   0  0  0  0  0  0  0  0  0  0  0  0
   39.0840   33.2860   40.6010 H   0  0  0  0  0  0  0  0  0  0  0  0
   41.0060   34.1610   40.0030 C   0  0  0  0  0  0  0  0  0  0  0  0
   41.0920   34.7740   40.8980 H   0  0  0  0  0  0  0  0  0  0  0  0
   41.9540   34.1390   38.9750 C   0  0  0  0  0  3  0  0  0  0  0  0
   41.7470   33.3250   37.8800 C   0  0  0  0  0  3  0  0  0  0  0  0
   40.6380   32.5580   37.8040 N   0  0  0  0  0  0  0  0  0  0  0  0
   35.4920   27.4710   38.0330 C   0  0  0  0  0  0  0  0  0  0  0  0
   36.0340   27.9680   39.2270 C   0  0  0  0  0  0  0  0  0  0  0  0
   36.6390   27.0270   40.0400 C   0  0  0  0  0  0  0  0  0  0  0  0
   36.7060   25.7380   39.7200 N   0  0  0  0  0  0  0  0  0  0  0  0
   36.1670   25.2960   38.5500 C   0  0  0  0  0  0  0  0  0  0  0  0
   35.5660   26.1670   37.7200 N   0  0  0  0  0  0  0  0  0  0  0  0
   35.0040   28.1680   37.3580 H   0  0  0  0  0  0  0  0  0  0  0  0
   36.2530   24.2380   38.3450 H   0  0  0  0  0  0  0  0  0  0  0  0
   37.2020   27.4660   41.2640 C   0  0  0  0  0  0  0  0  0  0  0  0
   36.7350   27.6880   42.5220 C   0  0  0  0  0  0  0  0  0  0  0  0
   37.4930   28.1090   43.5120 C   0  0  0  0  0  0  0  0  0  0  0  0
   38.7940   28.3170   43.2200 C   0  0  0  0  0  0  0  0  0  0  0  0
   38.9220   27.8870   41.4470 S   0  0  0  0  0  0  0  0  0  0  0  0
   35.6500   27.4800   42.6280 H   0  0  0  0  0  0  0  0  0  0  0  0
   37.1670   28.3010   44.5280 H   0  0  0  0  0  0  0  0  0  0  0  0
   39.6450   28.6820   43.9210 H   0  0  0  0  0  0  0  0  0  0  0  0
  1  2  2  0  0  0  0
  3  1  1  0  0  0  0
  3  4  2  0  0  0  0
  4  9  1  0  0  0  0
  5 12  1  0  0  0  0
  5  4  1  0  0  0  0
  6  7  2  0  0  0  0
  6  5  1  0  0  0  0
  7  3  1  0  0  0  0
  8  6  1  0  0  0  0
 10  8  1  0  0  0  0
 11  8  1  0  0  0  0
 12 13  1  0  0  0  0
 13 15  2  0  0  0  0
 13 14  1  0  0  0  0
 15 16  1  0  0  0  0
 17 15  1  0  0  0  0
 18 17  2  0  0  0  0
 19 18  1  0  0  0  0
 19 12  2  0  0  0  0
 20 21  1  0  0  0  0
 21  1  1  0  0  0  0
 21 22  2  0  0  0  0
 22 28  1  0  0  0  0
 23 22  1  0  0  0  0
 24 23  2  0  0  0  0
 25 20  2  0  0  0  0
 25 24  1  0  0  0  0
 26 20  1  0  0  0  0
 27 24  1  0  0  0  0
 28 32  1  0  0  0  0
 28 29  2  0  0  0  0
 29 33  1  0  0  0  0
 29 30  1  0  0  0  0
 30 34  1  0  0  0  0
 31 30  2  0  0  0  0
 31 35  1  0  0  0  0
 32 31  1  0  0  0  0
M  END
>  <minimizedAffinity>
-5.83004713

$$$$

 OpenBabel03252503173D

 35 38  0  0  0  0  0  0  0  0999 V2000
   36.4850   29.0670   41.0410 C   0  0  0  0  0  0  0  0  0  0  0  0
   35.2550   28.7950   40.9480 O   0  0  0  0  0  0  0  0  0  0  0  0
   37.1270   30.3250   40.5120 C   0  0  0  0  0  0  0  0  0  0  0  0
   38.3700   30.4350   39.9390 C   0  0  0  0  0  0  0  0  0  0  0  0
   38.5150   31.7330   39.6210 N   0  0  0  0  0  0  0  0  0  0  0  0
   37.4040   32.3950   39.9860 C   0  0  0  0  0  0  0  0  0  0  0  0
   36.5320   31.5270   40.5410 N   0  0  0  0  0  0  0  0  0  0  0  0
   37.0430   33.7750   39.8780 N   0  0  0  0  0  0  0  0  0  0  0  0
   39.0660   29.6430   39.7830 H   0  0  0  0  0  0  0  0  0  0  0  0
   36.6220   34.1870   39.0070 H   0  0  0  0  0  0  0  0  0  0  0  0
   37.2220   34.3510   40.7170 H   0  0  0  0  0  0  0  0  0  0  0  0
   39.6320   32.3610   39.0040 C   0  0  0  0  0  0  0  0  0  0  0  0
   40.1970   31.8820   37.8420 C   0  0  0  0  0  0  0  0  0  0  0  0
   39.7210   30.9930   37.4470 H   0  0  0  0  0  0  0  0  0  0  0  0
   41.2920   32.5140   37.2530 C   0  0  0  0  0  0  0  0  0  0  0  0
   41.6960   32.0880   36.3360 H   0  0  0  0  0  0  0  0  0  0  0  0
   41.8020   33.6560   37.8780 C   0  0  0  0  0  3  0  0  0  0  0  0
   41.2150   34.1110   39.0400 C   0  0  0  0  0  3  0  0  0  0  0  0
   40.1560   33.4590   39.5670 N   0  0  0  0  0  0  0  0  0  0  0  0
   37.7150   28.3180   43.0200 C   0  0  0  0  0  0  0  0  0  0  0  0
   37.2910   28.0850   41.7030 C   0  0  0  0  0  0  0  0  0  0  0  0
   37.7030   26.8860   41.1510 C   0  0  0  0  0  0  0  0  0  0  0  0
   38.4520   26.0100   41.8140 N   0  0  0  0  0  0  0  0  0  0  0  0
   38.8440   26.2740   43.0920 C   0  0  0  0  0  0  0  0  0  0  0  0
   38.4710   27.4250   43.6800 N   0  0  0  0  0  0  0  0  0  0  0  0
   37.4190   29.2440   43.5010 H   0  0  0  0  0  0  0  0  0  0  0  0
   39.4510   25.5230   43.5780 H   0  0  0  0  0  0  0  0  0  0  0  0
   37.3110   26.5940   39.8210 C   0  0  0  0  0  0  0  0  0  0  0  0
   36.2490   25.9760   39.2370 C   0  0  0  0  0  0  0  0  0  0  0  0
   36.1220   25.8300   37.9350 C   0  0  0  0  0  0  0  0  0  0  0  0
   37.1200   26.3350   37.1790 C   0  0  0  0  0  0  0  0  0  0  0  0
   38.2820   27.0440   38.3990 S   0  0  0  0  0  0  0  0  0  0  0  0
   35.5000   25.6080   39.9700 H   0  0  0  0  0  0  0  0  0  0  0  0
   35.2970   25.3470   37.4250 H   0  0  0  0  0  0  0  0  0  0  0  0
   37.2280   26.3270   36.0230 H   0  0  0  0  0  0  0  0  0  0  0  0
  1 21  1  0  0  0  0
  2  1  2  0  0  0  0
  3  7  1  0  0  0  0
  3  1  1  0  0  0  0
  4  3  2  0  0  0  0
  5  4  1  0  0  0  0
  5  6  1  0  0  0  0
  6  7  2  0  0  0  0
  8  6  1  0  0  0  0
  8 11  1  0  0  0  0
  9  4  1  0  0  0  0
 10  8  1  0  0  0  0
 12 19  1  0  0  0  0
 12  5  1  0  0  0  0
 13 12  2  0  0  0  0
 14 13  1  0  0  0  0
 15 13  1  0  0  0  0
 15 17  2  0  0  0  0
 16 15  1  0  0  0  0
 17 18  1  0  0  0  0
 18 19  2  0  0  0  0
 20 26  1  0  0  0  0
 20 25  1  0  0  0  0
 21 20  2  0  0  0  0
 22 21  1  0  0  0  0
 22 23  2  0  0  0  0
 23 24  1  0  0  0  0
 24 27  1  0  0  0  0
 24 25  2  0  0  0  0
 28 22  1  0  0  0  0
 29 28  2  0  0  0  0
 29 33  1  0  0  0  0
 30 29  1  0  0  0  0
 31 30  2  0  0  0  0
 31 32  1  0  0  0  0
 32 28  1  0  0  0  0
 34 30  1  0  0  0  0
 35 31  1  0  0  0  0
M  END
>  <minimizedAffinity>
-5.73239279

$$$$

 OpenBabel03252503173D

 35 38  0  0  0  0  0  0  0  0999 V2000
   38.6730   32.5600   40.2260 C   0  0  0  0  0  0  0  0  0  0  0  0
   37.8280   33.4950   40.3060 O   0  0  0  0  0  0  0  0  0  0  0  0
   38.5970   31.2680   41.0010 C   0  0  0  0  0  0  0  0  0  0  0  0
   39.6470   30.4510   41.3400 C   0  0  0  0  0  0  0  0  0  0  0  0
   39.1090   29.4240   42.0220 N   0  0  0  0  0  0  0  0  0  0  0  0
   37.7790   29.6050   42.0970 C   0  0  0  0  0  0  0  0  0  0  0  0
   37.4490   30.7500   41.4640 N   0  0  0  0  0  0  0  0  0  0  0  0
   36.7480   28.8200   42.7020 N   0  0  0  0  0  0  0  0  0  0  0  0
   40.6740   30.6120   41.1050 H   0  0  0  0  0  0  0  0  0  0  0  0
   36.4980   28.8950   43.7210 H   0  0  0  0  0  0  0  0  0  0  0  0
   36.2570   28.1640   42.0710 H   0  0  0  0  0  0  0  0  0  0  0  0
   39.7800   28.3070   42.5910 C   0  0  0  0  0  0  0  0  0  0  0  0
   41.0580   28.3960   43.0980 C   0  0  0  0  0  0  0  0  0  0  0  0
   41.5010   29.3810   43.0240 H   0  0  0  0  0  0  0  0  0  0  0  0
   41.6970   27.2870   43.6520 C   0  0  0  0  0  0  0  0  0  0  0  0
   42.7080   27.4180   44.0360 H   0  0  0  0  0  0  0  0  0  0  0  0
   40.9990   26.0750   43.6790 C   0  0  0  0  0  3  0  0  0  0  0  0
   39.7210   26.0180   43.1650 C   0  0  0  0  0  3  0  0  0  0  0  0
   39.1500   27.1240   42.6390 N   0  0  0  0  0  0  0  0  0  0  0  0
   40.7700   33.6940   39.6760 C   0  0  0  0  0  0  0  0  0  0  0  0
   39.7630   32.7840   39.3240 C   0  0  0  0  0  0  0  0  0  0  0  0
   39.9240   32.1650   38.0980 C   0  0  0  0  0  0  0  0  0  0  0  0
   40.9590   32.4120   37.3000 N   0  0  0  0  0  0  0  0  0  0  0  0
   41.9170   33.3040   37.6780 C   0  0  0  0  0  0  0  0  0  0  0  0
   41.8120   33.9350   38.8610 N   0  0  0  0  0  0  0  0  0  0  0  0
   40.6930   34.2080   40.6290 H   0  0  0  0  0  0  0  0  0  0  0  0
   42.7330   33.4620   36.9870 H   0  0  0  0  0  0  0  0  0  0  0  0
   38.9370   31.2370   37.6830 C   0  0  0  0  0  0  0  0  0  0  0  0
   37.6770   31.3230   37.1780 C   0  0  0  0  0  0  0  0  0  0  0  0
   36.9490   30.2720   36.8660 C   0  0  0  0  0  0  0  0  0  0  0  0
   37.5220   29.0680   37.0740 C   0  0  0  0  0  0  0  0  0  0  0  0
   39.1730   29.4740   37.7460 S   0  0  0  0  0  0  0  0  0  0  0  0
   37.3250   32.3690   37.0560 H   0  0  0  0  0  0  0  0  0  0  0  0
   35.9440   30.2900   36.4610 H   0  0  0  0  0  0  0  0  0  0  0  0
   37.0800   28.0120   36.8760 H   0  0  0  0  0  0  0  0  0  0  0  0
  1  2  2  0  0  0  0
  1  3  1  0  0  0  0
  3  4  2  0  0  0  0
  3  7  1  0  0  0  0
  4  5  1  0  0  0  0
  5  6  1  0  0  0  0
  5 12  1  0  0  0  0
  6  8  1  0  0  0  0
  7  6  2  0  0  0  0
  8 10  1  0  0  0  0
  9  4  1  0  0  0  0
 11  8  1  0  0  0  0
 12 19  2  0  0  0  0
 12 13  1  0  0  0  0
 13 15  2  0  0  0  0
 14 13  1  0  0  0  0
 15 17  1  0  0  0  0
 15 16  1  0  0  0  0
 18 17  2  0  0  0  0
 19 18  1  0  0  0  0
 20 26  1  0  0  0  0
 21 20  1  0  0  0  0
 21  1  1  0  0  0  0
 22 21  2  0  0  0  0
 23 24  2  0  0  0  0
 23 22  1  0  0  0  0
 24 25  1  0  0  0  0
 25 20  2  0  0  0  0
 27 24  1  0  0  0  0
 28 32  1  0  0  0  0
 28 22  1  0  0  0  0
 29 28  2  0  0  0  0
 30 31  2  0  0  0  0
 30 29  1  0  0  0  0
 31 32  1  0  0  0  0
 33 29  1  0  0  0  0
 34 30  1  0  0  0  0
 35 31  1  0  0  0  0
M  END
>  <minimizedAffinity>
-5.63900471

$$$$

 OpenBabel03252503173D

 35 38  0  0  0  0  0  0  0  0999 V2000
   37.2050   30.7360   40.7710 C   0  0  0  0  0  0  0  0  0  0  0  0
   36.1500   31.3700   41.0580 O   0  0  0  0  0  0  0  0  0  0  0  0
   38.3500   31.2960   39.9650 C   0  0  0  0  0  0  0  0  0  0  0  0
   39.5710   31.6990   40.4450 C   0  0  0  0  0  0  0  0  0  0  0  0
   40.2650   32.1230   39.3740 N   0  0  0  0  0  0  0  0  0  0  0  0
   39.4980   31.9860   38.2790 C   0  0  0  0  0  0  0  0  0  0  0  0
   38.3030   31.4710   38.6360 N   0  0  0  0  0  0  0  0  0  0  0  0
   39.7470   32.2830   36.9030 N   0  0  0  0  0  0  0  0  0  0  0  0
   39.8910   31.6740   41.4610 H   0  0  0  0  0  0  0  0  0  0  0  0
   40.2390   31.6160   36.2550 H   0  0  0  0  0  0  0  0  0  0  0  0
   39.4120   33.2050   36.5770 H   0  0  0  0  0  0  0  0  0  0  0  0
   41.5900   32.6410   39.3400 C   0  0  0  0  0  0  0  0  0  0  0  0
   42.0440   33.5590   40.2610 C   0  0  0  0  0  0  0  0  0  0  0  0
   41.3110   33.8500   41.0030 H   0  0  0  0  0  0  0  0  0  0  0  0
   43.3480   34.0530   40.2090 C   0  0  0  0  0  0  0  0  0  0  0  0
   43.6500   34.7790   40.9630 H   0  0  0  0  0  0  0  0  0  0  0  0
   44.1850   33.5860   39.1910 C   0  0  0  0  0  3  0  0  0  0  0  0
   43.7010   32.6660   38.2850 C   0  0  0  0  0  3  0  0  0  0  0  0
   42.4290   32.2220   38.3820 N   0  0  0  0  0  0  0  0  0  0  0  0
   37.9300   29.1450   42.4840 C   0  0  0  0  0  0  0  0  0  0  0  0
   37.2770   29.3940   41.2680 C   0  0  0  0  0  0  0  0  0  0  0  0
   36.7450   28.2820   40.6420 C   0  0  0  0  0  0  0  0  0  0  0  0
   36.8420   27.0570   41.1510 N   0  0  0  0  0  0  0  0  0  0  0  0
   37.4850   26.8570   42.3350 C   0  0  0  0  0  0  0  0  0  0  0  0
   38.0220   27.9030   42.9880 N   0  0  0  0  0  0  0  0  0  0  0  0
   38.3670   29.9840   43.0170 H   0  0  0  0  0  0  0  0  0  0  0  0
   37.5310   25.8390   42.6970 H   0  0  0  0  0  0  0  0  0  0  0  0
   36.0760   28.4660   39.4070 C   0  0  0  0  0  0  0  0  0  0  0  0
   34.8240   28.8390   39.0280 C   0  0  0  0  0  0  0  0  0  0  0  0
   34.4450   28.9340   37.7710 C   0  0  0  0  0  0  0  0  0  0  0  0
   35.3800   28.6390   36.8440 C   0  0  0  0  0  0  0  0  0  0  0  0
   36.8580   28.2070   37.8290 S   0  0  0  0  0  0  0  0  0  0  0  0
   34.1530   29.0530   39.8870 H   0  0  0  0  0  0  0  0  0  0  0  0
   33.4620   29.2260   37.4220 H   0  0  0  0  0  0  0  0  0  0  0  0
   35.2820   28.6530   35.6870 H   0  0  0  0  0  0  0  0  0  0  0  0
  1  2  2  0  0  0  0
  1 21  1  0  0  0  0
  3  4  2  0  0  0  0
  3  1  1  0  0  0  0
  4  9  1  0  0  0  0
  5  4  1  0  0  0  0
  6  7  2  0  0  0  0
  6  5  1  0  0  0  0
  7  3  1  0  0  0  0
  8  6  1  0  0  0  0
 10  8  1  0  0  0  0
 11  8  1  0  0  0  0
 12  5  1  0  0  0  0
 12 13  1  0  0  0  0
 13 14  1  0  0  0  0
 15 13  2  0  0  0  0
 15 16  1  0  0  0  0
 17 15  1  0  0  0  0
 18 19  1  0  0  0  0
 18 17  2  0  0  0  0
 19 12  2  0  0  0  0
 20 25  1  0  0  0  0
 20 26  1  0  0  0  0
 21 20  2  0  0  0  0
 22 23  2  0  0  0  0
 22 21  1  0  0  0  0
 23 24  1  0  0  0  0
 24 27  1  0  0  0  0
 24 25  2  0  0  0  0
 28 22  1  0  0  0  0
 29 28  2  0  0  0  0
 29 33  1  0  0  0  0
 30 29  1  0  0  0  0
 31 30  2  0  0  0  0
 31 32  1  0  0  0  0
 32 28  1  0  0  0  0
 34 30  1  0  0  0  0
 35 31  1  0  0  0  0
M  END
>  <minimizedAffinity>
-5.58978319

$$$$

 OpenBabel03252503173D

 35 38  0  0  0  0  0  0  0  0999 V2000
   40.9230   30.7340   40.9880 C   0  0  0  0  0  0  0  0  0  0  0  0
   41.5490   31.4790   41.7940 O   0  0  0  0  0  0  0  0  0  0  0  0
   39.8160   29.7880   41.3780 C   0  0  0  0  0  0  0  0  0  0  0  0
   39.5650   28.5510   40.8390 C   0  0  0  0  0  0  0  0  0  0  0  0
   38.4890   28.0760   41.4920 N   0  0  0  0  0  0  0  0  0  0  0  0
   38.0950   28.9880   42.3970 C   0  0  0  0  0  0  0  0  0  0  0  0
   38.9150   30.0580   42.3350 N   0  0  0  0  0  0  0  0  0  0  0  0
   37.0190   28.9860   43.3390 N   0  0  0  0  0  0  0  0  0  0  0  0
   40.1180   28.0750   40.0630 H   0  0  0  0  0  0  0  0  0  0  0  0
   37.0940   28.5410   44.2890 H   0  0  0  0  0  0  0  0  0  0  0  0
   36.1520   29.4550   43.0280 H   0  0  0  0  0  0  0  0  0  0  0  0
   37.8330   26.8290   41.3030 C   0  0  0  0  0  0  0  0  0  0  0  0
   37.2520   26.4770   40.1040 C   0  0  0  0  0  0  0  0  0  0  0  0
   37.3390   27.2270   39.3280 H   0  0  0  0  0  0  0  0  0  0  0  0
   36.6140   25.2480   39.9400 C   0  0  0  0  0  0  0  0  0  0  0  0
   36.1730   25.0260   38.9700 H   0  0  0  0  0  0  0  0  0  0  0  0
   36.5800   24.3770   41.0340 C   0  0  0  0  0  3  0  0  0  0  0  0
   37.1700   24.7580   42.2210 C   0  0  0  0  0  3  0  0  0  0  0  0
   37.7740   25.9610   42.3240 N   0  0  0  0  0  0  0  0  0  0  0  0
   42.4550   30.1200   39.1810 C   0  0  0  0  0  0  0  0  0  0  0  0
   41.3250   30.8280   39.6160 C   0  0  0  0  0  0  0  0  0  0  0  0
   40.6830   31.5750   38.6460 C   0  0  0  0  0  0  0  0  0  0  0  0
   41.1020   31.6260   37.3850 N   0  0  0  0  0  0  0  0  0  0  0  0
   42.2050   30.9230   37.0020 C   0  0  0  0  0  0  0  0  0  0  0  0
   42.8680   30.1780   37.9040 N   0  0  0  0  0  0  0  0  0  0  0  0
   42.9970   29.5180   39.9030 H   0  0  0  0  0  0  0  0  0  0  0  0
   42.4960   31.0030   35.9640 H   0  0  0  0  0  0  0  0  0  0  0  0
   39.5370   32.3170   39.0240 C   0  0  0  0  0  0  0  0  0  0  0  0
   38.1920   32.1420   38.9240 C   0  0  0  0  0  0  0  0  0  0  0  0
   37.3130   33.0140   39.3700 C   0  0  0  0  0  0  0  0  0  0  0  0
   37.8170   34.1250   39.9490 C   0  0  0  0  0  0  0  0  0  0  0  0
   39.6270   33.8950   39.8420 S   0  0  0  0  0  0  0  0  0  0  0  0
   37.9110   31.1890   38.4280 H   0  0  0  0  0  0  0  0  0  0  0  0
   36.2350   32.9190   39.3130 H   0  0  0  0  0  0  0  0  0  0  0  0
   37.2450   35.0230   40.4120 H   0  0  0  0  0  0  0  0  0  0  0  0
  1  3  1  0  0  0  0
  1  2  2  0  0  0  0
  3  7  1  0  0  0  0
  4  3  2  0  0  0  0
  4  5  1  0  0  0  0
  5  6  1  0  0  0  0
  6  8  1  0  0  0  0
  7  6  2  0  0  0  0
  8 10  1  0  0  0  0
  9  4  1  0  0  0  0
 11  8  1  0  0  0  0
 12  5  1  0  0  0  0
 12 19  1  0  0  0  0
 13 12  2  0  0  0  0
 14 13  1  0  0  0  0
 15 13  1  0  0  0  0
 15 17  2  0  0  0  0
 16 15  1  0  0  0  0
 17 18  1  0  0  0  0
 18 19  2  0  0  0  0
 20 21  1  0  0  0  0
 20 26  1  0  0  0  0
 21  1  1  0  0  0  0
 22 28  1  0  0  0  0
 22 21  2  0  0  0  0
 23 22  1  0  0  0  0
 24 23  2  0  0  0  0
 24 25  1  0  0  0  0
 25 20  2  0  0  0  0
 27 24  1  0  0  0  0
 28 32  1  0  0  0  0
 29 28  2  0  0  0  0
 29 30  1  0  0  0  0
 30 31  2  0  0  0  0
 31 35  1  0  0  0  0
 32 31  1  0  0  0  0
 33 29  1  0  0  0  0
 34 30  1  0  0  0  0
M  END
>  <minimizedAffinity>
-5.49550104

$$$$

 OpenBabel03252503173D

 35 38  0  0  0  0  0  0  0  0999 V2000
   37.0030   28.3820   41.4020 C   0  0  0  0  0  0  0  0  0  0  0  0
   36.4060   28.0670   42.4700 O   0  0  0  0  0  0  0  0  0  0  0  0
   37.5160   29.7630   41.0830 C   0  0  0  0  0  0  0  0  0  0  0  0
   38.8300   30.1540   41.0080 C   0  0  0  0  0  0  0  0  0  0  0  0
   38.8080   31.4630   40.6980 N   0  0  0  0  0  0  0  0  0  0  0  0
   37.5280   31.8590   40.5880 C   0  0  0  0  0  0  0  0  0  0  0  0
   36.7150   30.8080   40.8250 N   0  0  0  0  0  0  0  0  0  0  0  0
   36.9530   33.1320   40.2800 N   0  0  0  0  0  0  0  0  0  0  0  0
   39.6830   29.5360   41.1660 H   0  0  0  0  0  0  0  0  0  0  0  0
   36.8120   33.4700   39.2940 H   0  0  0  0  0  0  0  0  0  0  0  0
   36.6800   33.7080   41.0940 H   0  0  0  0  0  0  0  0  0  0  0  0
   39.9150   32.3340   40.5080 C   0  0  0  0  0  0  0  0  0  0  0  0
   41.0730   32.2250   41.2470 C   0  0  0  0  0  0  0  0  0  0  0  0
   41.0640   31.4270   41.9780 H   0  0  0  0  0  0  0  0  0  0  0  0
   42.1480   33.0910   41.0420 C   0  0  0  0  0  0  0  0  0  0  0  0
   43.0360   32.9570   41.6580 H   0  0  0  0  0  0  0  0  0  0  0  0
   42.0160   34.0770   40.0600 C   0  0  0  0  0  3  0  0  0  0  0  0
   40.8450   34.1600   39.3360 C   0  0  0  0  0  3  0  0  0  0  0  0
   39.8350   33.2960   39.5760 N   0  0  0  0  0  0  0  0  0  0  0  0
   36.2880   27.1940   39.3850 C   0  0  0  0  0  0  0  0  0  0  0  0
   37.1840   27.3210   40.4560 C   0  0  0  0  0  0  0  0  0  0  0  0
   38.1950   26.3790   40.4990 C   0  0  0  0  0  0  0  0  0  0  0  0
   38.3150   25.4140   39.5920 N   0  0  0  0  0  0  0  0  0  0  0  0
   37.4230   25.3240   38.5660 C   0  0  0  0  0  0  0  0  0  0  0  0
   36.4200   26.2160   38.4750 N   0  0  0  0  0  0  0  0  0  0  0  0
   35.4750   27.9090   39.3050 H   0  0  0  0  0  0  0  0  0  0  0  0
   37.5730   24.5190   37.8600 H   0  0  0  0  0  0  0  0  0  0  0  0
   39.1310   26.4500   41.5600 C   0  0  0  0  0  0  0  0  0  0  0  0
   39.1160   26.1560   42.8880 C   0  0  0  0  0  0  0  0  0  0  0  0
   40.1550   26.3210   43.6790 C   0  0  0  0  0  0  0  0  0  0  0  0
   41.2730   26.8080   43.0980 C   0  0  0  0  0  0  0  0  0  0  0  0
   40.7990   27.0350   41.3480 S   0  0  0  0  0  0  0  0  0  0  0  0
   38.1380   25.7640   43.2380 H   0  0  0  0  0  0  0  0  0  0  0  0
   40.1910   26.1020   44.7390 H   0  0  0  0  0  0  0  0  0  0  0  0
   42.3020   27.0330   43.5860 H   0  0  0  0  0  0  0  0  0  0  0  0
  1  2  2  0  0  0  0
  3  1  1  0  0  0  0
  4  3  2  0  0  0  0
  4  9  1  0  0  0  0
  5  4  1  0  0  0  0
  6  5  1  0  0  0  0
  6  7  2  0  0  0  0
  7  3  1  0  0  0  0
  8  6  1  0  0  0  0
  8 11  1  0  0  0  0
 10  8  1  0  0  0  0
 12  5  1  0  0  0  0
 12 13  1  0  0  0  0
 13 14  1  0  0  0  0
 15 13  2  0  0  0  0
 15 16  1  0  0  0  0
 17 15  1  0  0  0  0
 18 19  1  0  0  0  0
 18 17  2  0  0  0  0
 19 12  2  0  0  0  0
 20 21  1  0  0  0  0
 21 22  2  0  0  0  0
 21  1  1  0  0  0  0
 22 28  1  0  0  0  0
 23 22  1  0  0  0  0
 24 23  2  0  0  0  0
 25 24  1  0  0  0  0
 25 20  2  0  0  0  0
 26 20  1  0  0  0  0
 27 24  1  0  0  0  0
 28 29  2  0  0  0  0
 29 33  1  0  0  0  0
 29 30  1  0  0  0  0
 30 34  1  0  0  0  0
 31 35  1  0  0  0  0
 31 30  2  0  0  0  0
 32 28  1  0  0  0  0
 32 31  1  0  0  0  0
M  END
>  <minimizedAffinity>
-5.4893527

$$$$

 OpenBabel03252503173D

 35 38  0  0  0  0  0  0  0  0999 V2000
   37.4020   27.0770   42.7850 C   0  0  0  0  0  0  0  0  0  0  0  0
   36.5550   26.6270   43.6070 O   0  0  0  0  0  0  0  0  0  0  0  0
   37.1500   28.2190   41.8330 C   0  0  0  0  0  0  0  0  0  0  0  0
   37.4120   28.2380   40.4860 C   0  0  0  0  0  0  0  0  0  0  0  0
   37.0280   29.4520   40.0520 N   0  0  0  0  0  0  0  0  0  0  0  0
   36.5480   30.1500   41.0960 C   0  0  0  0  0  0  0  0  0  0  0  0
   36.6190   29.3920   42.2090 N   0  0  0  0  0  0  0  0  0  0  0  0
   36.0160   31.4750   41.1850 N   0  0  0  0  0  0  0  0  0  0  0  0
   37.8340   27.4450   39.9120 H   0  0  0  0  0  0  0  0  0  0  0  0
   35.0110   31.7010   40.9770 H   0  0  0  0  0  0  0  0  0  0  0  0
   36.6880   32.2080   41.4700 H   0  0  0  0  0  0  0  0  0  0  0  0
   37.0920   29.9680   38.7290 C   0  0  0  0  0  0  0  0  0  0  0  0
   36.6300   29.2610   37.6400 C   0  0  0  0  0  0  0  0  0  0  0  0
   36.2190   28.2890   37.8790 H   0  0  0  0  0  0  0  0  0  0  0  0
   36.7030   29.7870   36.3500 C   0  0  0  0  0  0  0  0  0  0  0  0
   36.3230   29.1810   35.5290 H   0  0  0  0  0  0  0  0  0  0  0  0
   37.2620   31.0590   36.1920 C   0  0  0  0  0  3  0  0  0  0  0  0
   37.7150   31.7410   37.3020 C   0  0  0  0  0  3  0  0  0  0  0  0
   37.6200   31.1840   38.5290 N   0  0  0  0  0  0  0  0  0  0  0  0
   39.6920   26.9140   43.6320 C   0  0  0  0  0  0  0  0  0  0  0  0
   38.6800   26.4290   42.7920 C   0  0  0  0  0  0  0  0  0  0  0  0
   39.0220   25.3310   42.0250 C   0  0  0  0  0  0  0  0  0  0  0  0
   40.2260   24.7690   42.0720 N   0  0  0  0  0  0  0  0  0  0  0  0
   41.1830   25.2710   42.9020 C   0  0  0  0  0  0  0  0  0  0  0  0
   40.9050   26.3380   43.6720 N   0  0  0  0  0  0  0  0  0  0  0  0
   39.4760   27.7760   44.2570 H   0  0  0  0  0  0  0  0  0  0  0  0
   42.1410   24.7710   42.8970 H   0  0  0  0  0  0  0  0  0  0  0  0
   38.0430   24.7950   41.1510 C   0  0  0  0  0  0  0  0  0  0  0  0
   36.8390   24.1810   41.3040 C   0  0  0  0  0  0  0  0  0  0  0  0
   36.1040   23.7650   40.2940 C   0  0  0  0  0  0  0  0  0  0  0  0
   36.6110   23.9800   39.0610 C   0  0  0  0  0  0  0  0  0  0  0  0
   38.2070   24.8130   39.3790 S   0  0  0  0  0  0  0  0  0  0  0  0
   36.5380   24.0660   42.3660 H   0  0  0  0  0  0  0  0  0  0  0  0
   35.1420   23.2730   40.3650 H   0  0  0  0  0  0  0  0  0  0  0  0
   36.1510   23.7060   38.0310 H   0  0  0  0  0  0  0  0  0  0  0  0
  1 21  1  0  0  0  0
  1  2  2  0  0  0  0
  3  7  1  0  0  0  0
  3  1  1  0  0  0  0
  4  3  2  0  0  0  0
  5  4  1  0  0  0  0
  5  6  1  0  0  0  0
  6  8  1  0  0  0  0
  6  7  2  0  0  0  0
  8 11  1  0  0  0  0
  9  4  1  0  0  0  0
 10  8  1  0  0  0  0
 12  5  1  0  0  0  0
 13 14  1  0  0  0  0
 13 12  2  0  0  0  0
 15 13  1  0  0  0  0
 16 15  1  0  0  0  0
 17 15  2  0  0  0  0
 17 18  1  0  0  0  0
 18 19  2  0  0  0  0
 19 12  1  0  0  0  0
 20 25  1  0  0  0  0
 20 26  1  0  0  0  0
 21 20  2  0  0  0  0
 22 23  2  0  0  0  0
 22 21  1  0  0  0  0
 23 24  1  0  0  0  0
 24 25  2  0  0  0  0
 27 24  1  0  0  0  0
 28 29  2  0  0  0  0
 28 22  1  0  0  0  0
 29 33  1  0  0  0  0
 30 34  1  0  0  0  0
 30 29  1  0  0  0  0
 31 32  1  0  0  0  0
 31 30  2  0  0  0  0
 32 28  1  0  0  0  0
 35 31  1  0  0  0  0
M  END
>  <minimizedAffinity>
-5.44417238

$$$$

 OpenBabel03252503173D

 35 38  0  0  0  0  0  0  0  0999 V2000
   37.4900   30.8880   40.8650 C   0  0  0  0  0  0  0  0  0  0  0  0
   36.3390   31.4030   40.9300 O   0  0  0  0  0  0  0  0  0  0  0  0
   37.8340   29.4960   41.3330 C   0  0  0  0  0  0  0  0  0  0  0  0
   37.4640   28.3160   40.7390 C   0  0  0  0  0  0  0  0  0  0  0  0
   37.9930   27.3400   41.4980 N   0  0  0  0  0  0  0  0  0  0  0  0
   38.6620   27.9020   42.5190 C   0  0  0  0  0  0  0  0  0  0  0  0
   38.5700   29.2450   42.4260 N   0  0  0  0  0  0  0  0  0  0  0  0
   39.3980   27.3260   43.6020 N   0  0  0  0  0  0  0  0  0  0  0  0
   36.8770   28.2090   39.8550 H   0  0  0  0  0  0  0  0  0  0  0  0
   40.4050   27.0350   43.5160 H   0  0  0  0  0  0  0  0  0  0  0  0
   38.8750   27.2090   44.4860 H   0  0  0  0  0  0  0  0  0  0  0  0
   37.8970   25.9340   41.3050 C   0  0  0  0  0  0  0  0  0  0  0  0
   36.7170   25.3200   40.9460 C   0  0  0  0  0  0  0  0  0  0  0  0
   35.8790   25.9950   40.8260 H   0  0  0  0  0  0  0  0  0  0  0  0
   36.6450   23.9390   40.7620 C   0  0  0  0  0  0  0  0  0  0  0  0
   35.6850   23.5100   40.4790 H   0  0  0  0  0  0  0  0  0  0  0  0
   37.8120   23.1920   40.9530 C   0  0  0  0  0  3  0  0  0  0  0  0
   38.9770   23.8360   41.3120 C   0  0  0  0  0  3  0  0  0  0  0  0
   38.9900   25.1760   41.4770 N   0  0  0  0  0  0  0  0  0  0  0  0
   39.1520   32.6690   41.1070 C   0  0  0  0  0  0  0  0  0  0  0  0
   38.5110   31.7190   40.2980 C   0  0  0  0  0  0  0  0  0  0  0  0
   38.9400   31.6710   38.9850 C   0  0  0  0  0  0  0  0  0  0  0  0
   39.8940   32.4680   38.5120 N   0  0  0  0  0  0  0  0  0  0  0  0
   40.4920   33.3790   39.3300 C   0  0  0  0  0  0  0  0  0  0  0  0
   40.1140   33.4680   40.6180 N   0  0  0  0  0  0  0  0  0  0  0  0
   38.8520   32.7480   42.1470 H   0  0  0  0  0  0  0  0  0  0  0  0
   41.2610   33.9970   38.8890 H   0  0  0  0  0  0  0  0  0  0  0  0
   38.3280   30.7340   38.1150 C   0  0  0  0  0  0  0  0  0  0  0  0
   37.1320   30.6440   37.4750 C   0  0  0  0  0  0  0  0  0  0  0  0
   36.8000   29.6340   36.6990 C   0  0  0  0  0  0  0  0  0  0  0  0
   37.7250   28.6620   36.5590 C   0  0  0  0  0  0  0  0  0  0  0  0
   39.1240   29.2320   37.5890 S   0  0  0  0  0  0  0  0  0  0  0  0
   36.4630   31.5080   37.6740 H   0  0  0  0  0  0  0  0  0  0  0  0
   35.8620   29.5180   36.1700 H   0  0  0  0  0  0  0  0  0  0  0  0
   37.6610   27.6860   35.9330 H   0  0  0  0  0  0  0  0  0  0  0  0
  1  2  2  0  0  0  0
  1  3  1  0  0  0  0
  3  7  1  0  0  0  0
  4  3  2  0  0  0  0
  4  5  1  0  0  0  0
  5  6  1  0  0  0  0
  6  8  1  0  0  0  0
  7  6  2  0  0  0  0
  8 11  1  0  0  0  0
  9  4  1  0  0  0  0
 10  8  1  0  0  0  0
 12 19  1  0  0  0  0
 12  5  1  0  0  0  0
 13 12  2  0  0  0  0
 14 13  1  0  0  0  0
 15 13  1  0  0  0  0
 15 17  2  0  0  0  0
 16 15  1  0  0  0  0
 17 18  1  0  0  0  0
 18 19  2  0  0  0  0
 20 26  1  0  0  0  0
 21  1  1  0  0  0  0
 21 20  2  0  0  0  0
 22 21  1  0  0  0  0
 23 22  2  0  0  0  0
 23 24  1  0  0  0  0
 24 25  2  0  0  0  0
 25 20  1  0  0  0  0
 27 24  1  0  0  0  0
 28 22  1  0  0  0  0
 29 33  1  0  0  0  0
 29 28  2  0  0  0  0
 30 29  1  0  0  0  0
 31 30  2  0  0  0  0
 31 32  1  0  0  0  0
 32 28  1  0  0  0  0
 34 30  1  0  0  0  0
 35 31  1  0  0  0  0
M  END
>  <minimizedAffinity>
-5.40498972

$$$$
