
 OpenBabel03252508583D

 44 46  0  0  1  0  0  0  0  0999 V2000
   46.7310   34.4400   43.6600 N   0  0  0  0  0  0  0  0  0  0  0  0
   46.2710   35.3600   42.6870 C   0  0  0  0  0  0  0  0  0  0  0  0
   44.7660   35.5140   42.5980 C   0  0  0  0  0  0  0  0  0  0  0  0
   44.0600   35.3620   43.9180 C   0  0  0  0  0  0  0  0  0  0  0  0
   45.0190   35.1470   45.0600 C   0  0  0  0  0  0  0  0  0  0  0  0
   45.8610   33.9070   44.5970 C   0  0  2  0  0  0  0  0  0  0  0  0
   46.6570   36.3720   42.9880 H   0  0  0  0  0  0  0  0  0  0  0  0
   46.6240   35.2100   41.6670 H   0  0  0  0  0  0  0  0  0  0  0  0
   44.4160   34.7050   41.9120 H   0  0  0  0  0  0  0  0  0  0  0  0
   44.5850   36.4850   42.1000 H   0  0  0  0  0  0  0  0  0  0  0  0
   43.3200   34.5570   43.9210 H   0  0  0  0  0  0  0  0  0  0  0  0
   43.5770   36.3550   44.1190 H   0  0  0  0  0  0  0  0  0  0  0  0
   44.4300   34.7900   45.9390 H   0  0  0  0  0  0  0  0  0  0  0  0
   45.6810   35.9940   45.2700 H   0  0  0  0  0  0  0  0  0  0  0  0
   45.0950   33.1840   44.2750 H   0  0  0  0  0  0  0  0  0  0  0  0
   47.8480   33.6350   43.2350 C   0  0  0  0  0  0  0  0  0  0  0  0
   48.5630   34.3000   42.7110 H   0  0  0  0  0  0  0  0  0  0  0  0
   48.3670   33.2550   44.1590 H   0  0  0  0  0  0  0  0  0  0  0  0
   47.3520   32.4890   42.4260 C   0  0  0  0  0  0  0  0  0  0  0  0
   47.5840   31.5080   42.8770 H   0  0  0  0  0  0  0  0  0  0  0  0
   46.2350   32.5230   42.3410 H   0  0  0  0  0  0  0  0  0  0  0  0
   49.5760   31.9000   39.4520 C   0  0  0  0  0  0  0  0  0  0  0  0
   49.0450   31.8260   40.7600 C   0  0  0  0  0  0  0  0  0  0  0  0
   47.9200   32.5590   41.0560 C   0  0  0  0  0  0  0  0  0  0  0  0
   47.3780   33.3120   40.0850 N   0  0  0  0  0  0  0  0  0  0  0  0
   47.8990   33.3710   38.8430 C   0  0  0  0  0  0  0  0  0  0  0  0
   48.9900   32.6730   38.5190 N   0  0  0  0  0  0  0  0  0  0  0  0
   50.4560   31.2920   39.3150 H   0  0  0  0  0  0  0  0  0  0  0  0
   49.4900   31.2150   41.5350 H   0  0  0  0  0  0  0  0  0  0  0  0
   47.4810   33.9710   38.0440 H   0  0  0  0  0  0  0  0  0  0  0  0
   46.5180   33.5580   45.7710 O   0  0  0  0  0  0  0  0  0  0  0  0
   45.6690   31.1370   45.0870 O   0  0  0  0  0  0  0  0  0  0  0  0
   46.1940   31.9670   46.2550 P   0  0  2  0  0  0  0  0  0  0  0  0
   44.9270   32.0560   47.3870 O   0  0  0  0  0  0  0  0  0  0  0  0
   45.1160   32.8130   47.9850 H   0  0  0  0  0  0  0  0  0  0  0  0
   47.5150   31.2750   47.0000 O   0  0  0  0  0  0  0  0  0  0  0  0
   47.7640   29.9540   47.2370 C   0  0  0  0  0  0  0  0  0  0  0  0
   46.8600   28.9210   47.1800 C   0  0  0  0  0  0  0  0  0  0  0  0
   45.8420   29.1740   46.9190 H   0  0  0  0  0  0  0  0  0  0  0  0
   47.1830   27.6040   47.4320 C   0  0  0  0  0  0  0  0  0  0  0  0
   46.4580   26.8040   47.3820 H   0  0  0  0  0  0  0  0  0  0  0  0
   48.4980   27.2680   47.7680 C   0  0  0  0  0  3  0  0  0  0  0  0
   49.3490   28.3580   47.8070 C   0  0  0  0  0  3  0  0  0  0  0  0
   49.0510   29.6400   47.5640 N   0  0  0  0  0  0  0  0  0  0  0  0
  1  6  1  0  0  0  0
  2  7  1  0  0  0  0
  2  1  1  0  0  0  0
  3  2  1  0  0  0  0
  3  4  1  0  0  0  0
  4 11  1  0  0  0  0
  4 12  1  0  0  0  0
  4  5  1  0  0  0  0
  5 14  1  0  0  0  0
  5 13  1  0  0  0  0
  6 15  1  6  0  0  0
  6  5  1  0  0  0  0
  6 31  1  0  0  0  0
  8  2  1  0  0  0  0
  9  3  1  0  0  0  0
 10  3  1  0  0  0  0
 16  1  1  0  0  0  0
 16 18  1  0  0  0  0
 17 16  1  0  0  0  0
 19 20  1  0  0  0  0
 19 16  1  0  0  0  0
 21 19  1  0  0  0  0
 22 23  1  0  0  0  0
 23 24  2  0  0  0  0
 23 29  1  0  0  0  0
 24 19  1  0  0  0  0
 25 24  1  0  0  0  0
 26 25  2  0  0  0  0
 27 26  1  0  0  0  0
 27 22  2  0  0  0  0
 28 22  1  0  0  0  0
 30 26  1  0  0  0  0
 31 33  1  0  0  0  0
 33 32  2  6  0  0  0
 33 36  1  0  0  0  0
 33 34  1  0  0  0  0
 34 35  1  0  0  0  0
 36 37  1  0  0  0  0
 37 44  1  0  0  0  0
 38 37  2  0  0  0  0
 38 40  1  0  0  0  0
 39 38  1  0  0  0  0
 40 42  2  0  0  0  0
 41 40  1  0  0  0  0
 42 43  1  0  0  0  0
 44 43  2  0  0  0  0
M  END
>  <minimizedAffinity>
-4.37671661

>  <minimizedRMSD>
1.5411272

$$$$
