
 OpenBabel03252508593D

 44 46  0  0  1  0  0  0  0  0999 V2000
   46.6260   34.5330   43.6260 N   0  0  0  0  0  0  0  0  0  0  0  0
   46.1190   35.4920   42.7180 C   0  0  0  0  0  0  0  0  0  0  0  0
   44.6120   35.6510   42.7130 C   0  0  0  0  0  0  0  0  0  0  0  0
   43.9750   35.4470   44.0610 C   0  0  0  0  0  0  0  0  0  0  0  0
   44.9920   35.1860   45.1410 C   0  0  0  0  0  0  0  0  0  0  0  0
   45.8050   33.9640   44.5850 C   0  0  2  0  0  0  0  0  0  0  0  0
   46.5230   36.4910   43.0380 H   0  0  0  0  0  0  0  0  0  0  0  0
   46.4170   35.3840   41.6750 H   0  0  0  0  0  0  0  0  0  0  0  0
   44.2240   34.8710   42.0140 H   0  0  0  0  0  0  0  0  0  0  0  0
   44.4080   36.6430   42.2640 H   0  0  0  0  0  0  0  0  0  0  0  0
   43.2330   34.6430   44.0700 H   0  0  0  0  0  0  0  0  0  0  0  0
   43.5060   36.4310   44.3270 H   0  0  0  0  0  0  0  0  0  0  0  0
   44.4480   34.7930   46.0360 H   0  0  0  0  0  0  0  0  0  0  0  0
   45.6660   36.0220   45.3510 H   0  0  0  0  0  0  0  0  0  0  0  0
   45.0200   33.2560   44.2750 H   0  0  0  0  0  0  0  0  0  0  0  0
   47.7170   33.7450   43.1120 C   0  0  0  0  0  0  0  0  0  0  0  0
   48.4250   34.4360   42.6120 H   0  0  0  0  0  0  0  0  0  0  0  0
   48.2590   33.2960   43.9910 H   0  0  0  0  0  0  0  0  0  0  0  0
   47.1790   32.6650   42.2420 C   0  0  0  0  0  0  0  0  0  0  0  0
   47.3820   31.6530   42.6340 H   0  0  0  0  0  0  0  0  0  0  0  0
   46.0630   32.7390   42.1690 H   0  0  0  0  0  0  0  0  0  0  0  0
   49.3110   32.1210   39.1930 C   0  0  0  0  0  0  0  0  0  0  0  0
   48.7860   31.9870   40.5000 C   0  0  0  0  0  0  0  0  0  0  0  0
   47.7390   32.7960   40.8740 C   0  0  0  0  0  0  0  0  0  0  0  0
   47.2640   33.6770   39.9780 N   0  0  0  0  0  0  0  0  0  0  0  0
   47.7780   33.7900   38.7370 C   0  0  0  0  0  0  0  0  0  0  0  0
   48.7940   33.0220   38.3380 N   0  0  0  0  0  0  0  0  0  0  0  0
   50.1270   31.4460   38.9920 H   0  0  0  0  0  0  0  0  0  0  0  0
   49.1770   31.2730   41.2130 H   0  0  0  0  0  0  0  0  0  0  0  0
   47.4130   34.4930   37.9980 H   0  0  0  0  0  0  0  0  0  0  0  0
   46.5210   33.5670   45.7090 O   0  0  0  0  0  0  0  0  0  0  0  0
   45.5920   31.1780   45.0180 O   0  0  0  0  0  0  0  0  0  0  0  0
   46.1710   31.9790   46.1810 P   0  0  2  0  0  0  0  0  0  0  0  0
   44.9400   32.0830   47.3500 O   0  0  0  0  0  0  0  0  0  0  0  0
   45.1650   32.8270   47.9530 H   0  0  0  0  0  0  0  0  0  0  0  0
   47.4950   31.2440   46.8780 O   0  0  0  0  0  0  0  0  0  0  0  0
   47.8370   29.9220   46.8740 C   0  0  0  0  0  0  0  0  0  0  0  0
   49.0150   29.3770   46.4250 C   0  0  0  0  0  0  0  0  0  0  0  0
   49.7540   30.0610   46.0320 H   0  0  0  0  0  0  0  0  0  0  0  0
   49.2950   28.0260   46.4520 C   0  0  0  0  0  0  0  0  0  0  0  0
   50.2270   27.6150   46.0940 H   0  0  0  0  0  0  0  0  0  0  0  0
   48.3440   27.1350   46.9580 C   0  0  0  0  0  3  0  0  0  0  0  0
   47.1850   27.7560   47.3910 C   0  0  0  0  0  3  0  0  0  0  0  0
   46.9010   29.0630   47.3710 N   0  0  0  0  0  0  0  0  0  0  0  0
  1  6  1  0  0  0  0
  2  7  1  0  0  0  0
  2  1  1  0  0  0  0
  3  2  1  0  0  0  0
  3  4  1  0  0  0  0
  4 11  1  0  0  0  0
  4 12  1  0  0  0  0
  4  5  1  0  0  0  0
  5 14  1  0  0  0  0
  5 13  1  0  0  0  0
  6 15  1  6  0  0  0
  6  5  1  0  0  0  0
  6 31  1  0  0  0  0
  8  2  1  0  0  0  0
  9  3  1  0  0  0  0
 10  3  1  0  0  0  0
 16  1  1  0  0  0  0
 16 18  1  0  0  0  0
 17 16  1  0  0  0  0
 19 20  1  0  0  0  0
 19 16  1  0  0  0  0
 21 19  1  0  0  0  0
 22 23  1  0  0  0  0
 23 24  2  0  0  0  0
 23 29  1  0  0  0  0
 24 19  1  0  0  0  0
 25 24  1  0  0  0  0
 26 25  2  0  0  0  0
 27 26  1  0  0  0  0
 27 22  2  0  0  0  0
 28 22  1  0  0  0  0
 30 26  1  0  0  0  0
 31 33  1  0  0  0  0
 33 32  2  6  0  0  0
 33 36  1  0  0  0  0
 33 34  1  0  0  0  0
 34 35  1  0  0  0  0
 37 36  1  0  0  0  0
 37 44  1  0  0  0  0
 38 40  1  0  0  0  0
 38 37  2  0  0  0  0
 39 38  1  0  0  0  0
 40 42  2  0  0  0  0
 41 40  1  0  0  0  0
 42 43  1  0  0  0  0
 44 43  2  0  0  0  0
M  END
>  <minimizedAffinity>
-4.30234671

>  <minimizedRMSD>
1.31247044

$$$$
