
 OpenBabel03252508583D

 44 46  0  0  1  0  0  0  0  0999 V2000
   46.6050   34.5600   43.6160 N   0  0  0  0  0  0  0  0  0  0  0  0
   46.0800   35.5270   42.7260 C   0  0  0  0  0  0  0  0  0  0  0  0
   44.5720   35.6780   42.7430 C   0  0  0  0  0  0  0  0  0  0  0  0
   43.9540   35.4530   44.0970 C   0  0  0  0  0  0  0  0  0  0  0  0
   44.9870   35.1840   45.1600 C   0  0  0  0  0  0  0  0  0  0  0  0
   45.7990   33.9740   44.5780 C   0  0  2  0  0  0  0  0  0  0  0  0
   46.4830   36.5240   43.0540 H   0  0  0  0  0  0  0  0  0  0  0  0
   46.3660   35.4340   41.6780 H   0  0  0  0  0  0  0  0  0  0  0  0
   44.1800   34.9050   42.0390 H   0  0  0  0  0  0  0  0  0  0  0  0
   44.3570   36.6740   42.3100 H   0  0  0  0  0  0  0  0  0  0  0  0
   43.2180   34.6460   44.1050 H   0  0  0  0  0  0  0  0  0  0  0  0
   43.4840   36.4320   44.3810 H   0  0  0  0  0  0  0  0  0  0  0  0
   44.4580   34.7780   46.0560 H   0  0  0  0  0  0  0  0  0  0  0  0
   45.6600   36.0220   45.3710 H   0  0  0  0  0  0  0  0  0  0  0  0
   45.0150   33.2660   44.2690 H   0  0  0  0  0  0  0  0  0  0  0  0
   47.6930   33.7850   43.0770 C   0  0  0  0  0  0  0  0  0  0  0  0
   48.3950   34.4860   42.5840 H   0  0  0  0  0  0  0  0  0  0  0  0
   48.2440   33.3200   43.9430 H   0  0  0  0  0  0  0  0  0  0  0  0
   47.1500   32.7190   42.1920 C   0  0  0  0  0  0  0  0  0  0  0  0
   47.3360   31.7010   42.5770 H   0  0  0  0  0  0  0  0  0  0  0  0
   46.0350   32.8080   42.1080 H   0  0  0  0  0  0  0  0  0  0  0  0
   49.0550   31.9830   39.0350 C   0  0  0  0  0  0  0  0  0  0  0  0
   48.5120   31.8430   40.3340 C   0  0  0  0  0  0  0  0  0  0  0  0
   47.7260   32.8550   40.8310 C   0  0  0  0  0  0  0  0  0  0  0  0
   47.5110   33.9320   40.0580 N   0  0  0  0  0  0  0  0  0  0  0  0
   48.0370   34.0480   38.8210 C   0  0  0  0  0  0  0  0  0  0  0  0
   48.8050   33.0860   38.3050 N   0  0  0  0  0  0  0  0  0  0  0  0
   49.6560   31.1420   38.7320 H   0  0  0  0  0  0  0  0  0  0  0  0
   48.6920   30.9700   40.9480 H   0  0  0  0  0  0  0  0  0  0  0  0
   47.8780   34.9070   38.1800 H   0  0  0  0  0  0  0  0  0  0  0  0
   46.5320   33.5670   45.6870 O   0  0  0  0  0  0  0  0  0  0  0  0
   45.6450   31.1650   44.9860 O   0  0  0  0  0  0  0  0  0  0  0  0
   46.1750   31.9810   46.1610 P   0  0  2  0  0  0  0  0  0  0  0  0
   44.9010   32.0870   47.2830 O   0  0  0  0  0  0  0  0  0  0  0  0
   45.0980   32.8380   47.8860 H   0  0  0  0  0  0  0  0  0  0  0  0
   47.4780   31.2620   46.9140 O   0  0  0  0  0  0  0  0  0  0  0  0
   47.8250   29.9420   46.9400 C   0  0  0  0  0  0  0  0  0  0  0  0
   49.0470   29.4040   46.6130 C   0  0  0  0  0  0  0  0  0  0  0  0
   49.8190   30.0930   46.3000 H   0  0  0  0  0  0  0  0  0  0  0  0
   49.3290   28.0550   46.6630 C   0  0  0  0  0  0  0  0  0  0  0  0
   50.2960   27.6510   46.4010 H   0  0  0  0  0  0  0  0  0  0  0  0
   48.3360   27.1570   47.0650 C   0  0  0  0  0  3  0  0  0  0  0  0
   47.1370   27.7690   47.3780 C   0  0  0  0  0  3  0  0  0  0  0  0
   46.8490   29.0750   47.3350 N   0  0  0  0  0  0  0  0  0  0  0  0
  1  6  1  0  0  0  0
  2  3  1  0  0  0  0
  2  7  1  0  0  0  0
  2  1  1  0  0  0  0
  3  4  1  0  0  0  0
  4 11  1  0  0  0  0
  4 12  1  0  0  0  0
  4  5  1  0  0  0  0
  5 14  1  0  0  0  0
  5 13  1  0  0  0  0
  6 15  1  6  0  0  0
  6  5  1  0  0  0  0
  6 31  1  0  0  0  0
  8  2  1  0  0  0  0
  9  3  1  0  0  0  0
 10  3  1  0  0  0  0
 16  1  1  0  0  0  0
 16 18  1  0  0  0  0
 17 16  1  0  0  0  0
 19 20  1  0  0  0  0
 19 16  1  0  0  0  0
 21 19  1  0  0  0  0
 22 23  1  0  0  0  0
 23 24  2  0  0  0  0
 23 29  1  0  0  0  0
 24 19  1  0  0  0  0
 25 24  1  0  0  0  0
 26 25  2  0  0  0  0
 27 26  1  0  0  0  0
 27 22  2  0  0  0  0
 28 22  1  0  0  0  0
 30 26  1  0  0  0  0
 31 33  1  0  0  0  0
 33 32  2  6  0  0  0
 33 36  1  0  0  0  0
 33 34  1  0  0  0  0
 34 35  1  0  0  0  0
 36 37  1  0  0  0  0
 37 44  1  0  0  0  0
 38 40  1  0  0  0  0
 38 37  2  0  0  0  0
 39 38  1  0  0  0  0
 40 42  2  0  0  0  0
 41 40  1  0  0  0  0
 42 43  1  0  0  0  0
 44 43  2  0  0  0  0
M  END
>  <minimizedAffinity>
-4.29938793

>  <minimizedRMSD>
1.3922739

$$$$
