
 OpenBabel03252508593D

 44 46  0  0  1  0  0  0  0  0999 V2000
   46.6800   34.5860   43.4670 N   0  0  0  0  0  0  0  0  0  0  0  0
   46.1420   35.5810   42.6160 C   0  0  0  0  0  0  0  0  0  0  0  0
   44.6320   35.7050   42.6330 C   0  0  0  0  0  0  0  0  0  0  0  0
   44.0130   35.4120   43.9730 C   0  0  0  0  0  0  0  0  0  0  0  0
   45.0460   35.1170   45.0290 C   0  0  0  0  0  0  0  0  0  0  0  0
   45.8810   33.9470   44.4000 C   0  0  2  0  0  0  0  0  0  0  0  0
   46.5260   36.5700   42.9880 H   0  0  0  0  0  0  0  0  0  0  0  0
   46.4330   35.5370   41.5670 H   0  0  0  0  0  0  0  0  0  0  0  0
   44.2550   34.9550   41.8950 H   0  0  0  0  0  0  0  0  0  0  0  0
   44.4010   36.7140   42.2410 H   0  0  0  0  0  0  0  0  0  0  0  0
   43.2900   34.5920   43.9440 H   0  0  0  0  0  0  0  0  0  0  0  0
   43.5240   36.3700   44.2960 H   0  0  0  0  0  0  0  0  0  0  0  0
   44.5200   34.6640   45.9050 H   0  0  0  0  0  0  0  0  0  0  0  0
   45.7030   35.9560   45.2780 H   0  0  0  0  0  0  0  0  0  0  0  0
   45.1100   33.2380   44.0580 H   0  0  0  0  0  0  0  0  0  0  0  0
   47.7830   33.8530   42.9010 C   0  0  0  0  0  0  0  0  0  0  0  0
   48.4470   34.5820   42.3930 H   0  0  0  0  0  0  0  0  0  0  0  0
   48.3720   33.4090   43.7530 H   0  0  0  0  0  0  0  0  0  0  0  0
   47.2610   32.7700   42.0270 C   0  0  0  0  0  0  0  0  0  0  0  0
   47.4810   31.7580   42.4120 H   0  0  0  0  0  0  0  0  0  0  0  0
   46.1430   32.8260   41.9570 H   0  0  0  0  0  0  0  0  0  0  0  0
   49.1190   32.0640   38.8360 C   0  0  0  0  0  0  0  0  0  0  0  0
   48.5980   31.9120   40.1410 C   0  0  0  0  0  0  0  0  0  0  0  0
   47.8140   32.9180   40.6580 C   0  0  0  0  0  0  0  0  0  0  0  0
   47.5820   33.9980   39.8950 N   0  0  0  0  0  0  0  0  0  0  0  0
   48.0880   34.1260   38.6520 C   0  0  0  0  0  0  0  0  0  0  0  0
   48.8530   33.1710   38.1170 N   0  0  0  0  0  0  0  0  0  0  0  0
   49.7200   31.2280   38.5170 H   0  0  0  0  0  0  0  0  0  0  0  0
   48.7920   31.0370   40.7460 H   0  0  0  0  0  0  0  0  0  0  0  0
   47.9150   34.9870   38.0190 H   0  0  0  0  0  0  0  0  0  0  0  0
   46.6160   33.5060   45.4940 O   0  0  0  0  0  0  0  0  0  0  0  0
   45.6560   31.1420   44.7610 O   0  0  0  0  0  0  0  0  0  0  0  0
   46.2390   31.9160   45.9390 P   0  0  2  0  0  0  0  0  0  0  0  0
   45.0020   32.0210   47.1020 O   0  0  0  0  0  0  0  0  0  0  0  0
   45.2330   32.7520   47.7180 H   0  0  0  0  0  0  0  0  0  0  0  0
   47.5470   31.1500   46.6350 O   0  0  0  0  0  0  0  0  0  0  0  0
   47.6840   29.8350   46.9720 C   0  0  0  0  0  0  0  0  0  0  0  0
   46.6830   28.8980   47.0590 C   0  0  0  0  0  0  0  0  0  0  0  0
   45.6790   29.2300   46.8390 H   0  0  0  0  0  0  0  0  0  0  0  0
   46.8930   27.5800   47.4080 C   0  0  0  0  0  0  0  0  0  0  0  0
   46.0930   26.8570   47.4710 H   0  0  0  0  0  0  0  0  0  0  0  0
   48.1900   27.1410   47.6950 C   0  0  0  0  0  3  0  0  0  0  0  0
   49.1420   28.1380   47.5860 C   0  0  0  0  0  3  0  0  0  0  0  0
   48.9530   29.4180   47.2500 N   0  0  0  0  0  0  0  0  0  0  0  0
  1  6  1  0  0  0  0
  2  3  1  0  0  0  0
  2  7  1  0  0  0  0
  2  1  1  0  0  0  0
  3  4  1  0  0  0  0
  4 12  1  0  0  0  0
  4  5  1  0  0  0  0
  5 14  1  0  0  0  0
  5 13  1  0  0  0  0
  6 15  1  6  0  0  0
  6  5  1  0  0  0  0
  6 31  1  0  0  0  0
  8  2  1  0  0  0  0
  9  3  1  0  0  0  0
 10  3  1  0  0  0  0
 11  4  1  0  0  0  0
 16  1  1  0  0  0  0
 16 18  1  0  0  0  0
 17 16  1  0  0  0  0
 19 20  1  0  0  0  0
 19 16  1  0  0  0  0
 21 19  1  0  0  0  0
 22 23  1  0  0  0  0
 23 24  2  0  0  0  0
 23 29  1  0  0  0  0
 24 19  1  0  0  0  0
 25 24  1  0  0  0  0
 26 25  2  0  0  0  0
 27 26  1  0  0  0  0
 27 22  2  0  0  0  0
 28 22  1  0  0  0  0
 30 26  1  0  0  0  0
 31 33  1  0  0  0  0
 33 32  2  6  0  0  0
 33 36  1  0  0  0  0
 33 34  1  0  0  0  0
 34 35  1  0  0  0  0
 36 37  1  0  0  0  0
 37 38  2  0  0  0  0
 37 44  1  0  0  0  0
 38 40  1  0  0  0  0
 39 38  1  0  0  0  0
 40 41  1  0  0  0  0
 40 42  2  0  0  0  0
 43 42  1  0  0  0  0
 44 43  2  0  0  0  0
M  END
>  <minimizedAffinity>
-4.31071472

>  <minimizedRMSD>
1.33482206

$$$$
