
 OpenBabel03252508593D

 44 46  0  0  1  0  0  0  0  0999 V2000
   46.5990   34.5840   43.5980 N   0  0  0  0  0  0  0  0  0  0  0  0
   46.0780   35.5550   42.7090 C   0  0  0  0  0  0  0  0  0  0  0  0
   44.5700   35.7030   42.7190 C   0  0  0  0  0  0  0  0  0  0  0  0
   43.9450   35.4720   44.0670 C   0  0  0  0  0  0  0  0  0  0  0  0
   44.9720   35.2000   45.1360 C   0  0  0  0  0  0  0  0  0  0  0  0
   45.7890   33.9930   44.5530 C   0  0  2  0  0  0  0  0  0  0  0  0
   46.4780   36.5510   43.0440 H   0  0  0  0  0  0  0  0  0  0  0  0
   46.3700   35.4660   41.6620 H   0  0  0  0  0  0  0  0  0  0  0  0
   44.1820   34.9320   42.0090 H   0  0  0  0  0  0  0  0  0  0  0  0
   44.3560   36.7010   42.2880 H   0  0  0  0  0  0  0  0  0  0  0  0
   43.2090   34.6630   44.0680 H   0  0  0  0  0  0  0  0  0  0  0  0
   43.4720   36.4480   44.3540 H   0  0  0  0  0  0  0  0  0  0  0  0
   44.4380   34.7880   46.0270 H   0  0  0  0  0  0  0  0  0  0  0  0
   45.6420   36.0370   45.3540 H   0  0  0  0  0  0  0  0  0  0  0  0
   45.0070   33.2850   44.2370 H   0  0  0  0  0  0  0  0  0  0  0  0
   47.6910   33.8130   43.0620 C   0  0  0  0  0  0  0  0  0  0  0  0
   48.3880   34.5160   42.5630 H   0  0  0  0  0  0  0  0  0  0  0  0
   48.2470   33.3570   43.9290 H   0  0  0  0  0  0  0  0  0  0  0  0
   47.1540   32.7390   42.1840 C   0  0  0  0  0  0  0  0  0  0  0  0
   47.3390   31.7240   42.5790 H   0  0  0  0  0  0  0  0  0  0  0  0
   46.0390   32.8250   42.0950 H   0  0  0  0  0  0  0  0  0  0  0  0
   49.0830   31.9810   39.0480 C   0  0  0  0  0  0  0  0  0  0  0  0
   48.5350   31.8520   40.3450 C   0  0  0  0  0  0  0  0  0  0  0  0
   47.7350   32.8620   40.8250 C   0  0  0  0  0  0  0  0  0  0  0  0
   47.5130   33.9260   40.0360 N   0  0  0  0  0  0  0  0  0  0  0  0
   48.0440   34.0320   38.8010 C   0  0  0  0  0  0  0  0  0  0  0  0
   48.8250   33.0710   38.3020 N   0  0  0  0  0  0  0  0  0  0  0  0
   49.6950   31.1420   38.7590 H   0  0  0  0  0  0  0  0  0  0  0  0
   48.7210   30.9900   40.9710 H   0  0  0  0  0  0  0  0  0  0  0  0
   47.8800   34.8800   38.1470 H   0  0  0  0  0  0  0  0  0  0  0  0
   46.5160   33.5820   45.6640 O   0  0  0  0  0  0  0  0  0  0  0  0
   45.5650   31.2070   44.9560 O   0  0  0  0  0  0  0  0  0  0  0  0
   46.1730   31.9870   46.1180 P   0  0  2  0  0  0  0  0  0  0  0  0
   44.9700   32.0740   47.3170 O   0  0  0  0  0  0  0  0  0  0  0  0
   45.2110   32.8070   47.9270 H   0  0  0  0  0  0  0  0  0  0  0  0
   47.5120   31.2380   46.7720 O   0  0  0  0  0  0  0  0  0  0  0  0
   47.8250   29.9090   46.7810 C   0  0  0  0  0  0  0  0  0  0  0  0
   47.1280   28.9020   47.4050 C   0  0  0  0  0  0  0  0  0  0  0  0
   46.2370   29.1850   47.9460 H   0  0  0  0  0  0  0  0  0  0  0  0
   47.5040   27.5760   47.3730 C   0  0  0  0  0  0  0  0  0  0  0  0
   46.9430   26.7970   47.8700 H   0  0  0  0  0  0  0  0  0  0  0  0
   48.6570   27.2010   46.6740 C   0  0  0  0  0  3  0  0  0  0  0  0
   49.3030   28.2660   46.0740 C   0  0  0  0  0  3  0  0  0  0  0  0
   48.9510   29.5560   46.0960 N   0  0  0  0  0  0  0  0  0  0  0  0
  1  6  1  0  0  0  0
  2  3  1  0  0  0  0
  2  7  1  0  0  0  0
  2  1  1  0  0  0  0
  3  4  1  0  0  0  0
  4 11  1  0  0  0  0
  4 12  1  0  0  0  0
  4  5  1  0  0  0  0
  5 14  1  0  0  0  0
  5 13  1  0  0  0  0
  6 15  1  6  0  0  0
  6  5  1  0  0  0  0
  6 31  1  0  0  0  0
  8  2  1  0  0  0  0
  9  3  1  0  0  0  0
 10  3  1  0  0  0  0
 16  1  1  0  0  0  0
 16 18  1  0  0  0  0
 17 16  1  0  0  0  0
 19 20  1  0  0  0  0
 19 16  1  0  0  0  0
 21 19  1  0  0  0  0
 22 23  1  0  0  0  0
 23 24  2  0  0  0  0
 23 29  1  0  0  0  0
 24 19  1  0  0  0  0
 25 24  1  0  0  0  0
 26 25  2  0  0  0  0
 27 26  1  0  0  0  0
 27 22  2  0  0  0  0
 28 22  1  0  0  0  0
 30 26  1  0  0  0  0
 31 33  1  0  0  0  0
 33 32  2  6  0  0  0
 33 36  1  0  0  0  0
 33 34  1  0  0  0  0
 34 35  1  0  0  0  0
 36 37  1  0  0  0  0
 37 38  1  0  0  0  0
 38 39  1  0  0  0  0
 40 38  2  0  0  0  0
 40 41  1  0  0  0  0
 42 40  1  0  0  0  0
 43 44  1  0  0  0  0
 43 42  2  0  0  0  0
 44 37  2  0  0  0  0
M  END
>  <minimizedAffinity>
-4.21911144

>  <minimizedRMSD>
1.27281797

$$$$
