
 OpenBabel03252508583D

 44 46  0  0  1  0  0  0  0  0999 V2000
   46.7310   34.4400   43.6590 N   0  0  0  0  0  0  0  0  0  0  0  0
   46.2710   35.3600   42.6870 C   0  0  0  0  0  0  0  0  0  0  0  0
   44.7660   35.5140   42.5980 C   0  0  0  0  0  0  0  0  0  0  0  0
   44.0600   35.3610   43.9170 C   0  0  0  0  0  0  0  0  0  0  0  0
   45.0190   35.1470   45.0590 C   0  0  0  0  0  0  0  0  0  0  0  0
   45.8620   33.9070   44.5960 C   0  0  2  0  0  0  0  0  0  0  0  0
   46.6560   36.3720   42.9880 H   0  0  0  0  0  0  0  0  0  0  0  0
   46.6240   35.2110   41.6660 H   0  0  0  0  0  0  0  0  0  0  0  0
   44.4160   34.7050   41.9110 H   0  0  0  0  0  0  0  0  0  0  0  0
   44.5850   36.4860   42.0990 H   0  0  0  0  0  0  0  0  0  0  0  0
   43.3200   34.5570   43.9200 H   0  0  0  0  0  0  0  0  0  0  0  0
   43.5770   36.3540   44.1190 H   0  0  0  0  0  0  0  0  0  0  0  0
   44.4300   34.7900   45.9390 H   0  0  0  0  0  0  0  0  0  0  0  0
   45.6810   35.9940   45.2700 H   0  0  0  0  0  0  0  0  0  0  0  0
   45.0950   33.1850   44.2740 H   0  0  0  0  0  0  0  0  0  0  0  0
   47.8480   33.6360   43.2340 C   0  0  0  0  0  0  0  0  0  0  0  0
   48.5630   34.3010   42.7100 H   0  0  0  0  0  0  0  0  0  0  0  0
   48.3680   33.2570   44.1590 H   0  0  0  0  0  0  0  0  0  0  0  0
   47.3530   32.4900   42.4260 C   0  0  0  0  0  0  0  0  0  0  0  0
   47.5850   31.5090   42.8780 H   0  0  0  0  0  0  0  0  0  0  0  0
   46.2360   32.5230   42.3410 H   0  0  0  0  0  0  0  0  0  0  0  0
   49.5770   31.8990   39.4530 C   0  0  0  0  0  0  0  0  0  0  0  0
   49.0460   31.8250   40.7610 C   0  0  0  0  0  0  0  0  0  0  0  0
   47.9210   32.5590   41.0560 C   0  0  0  0  0  0  0  0  0  0  0  0
   47.3790   33.3110   40.0850 N   0  0  0  0  0  0  0  0  0  0  0  0
   47.9000   33.3690   38.8420 C   0  0  0  0  0  0  0  0  0  0  0  0
   48.9920   32.6710   38.5190 N   0  0  0  0  0  0  0  0  0  0  0  0
   50.4580   31.2920   39.3160 H   0  0  0  0  0  0  0  0  0  0  0  0
   49.4910   31.2150   41.5360 H   0  0  0  0  0  0  0  0  0  0  0  0
   47.4820   33.9690   38.0430 H   0  0  0  0  0  0  0  0  0  0  0  0
   46.5180   33.5580   45.7700 O   0  0  0  0  0  0  0  0  0  0  0  0
   45.6690   31.1370   45.0870 O   0  0  0  0  0  0  0  0  0  0  0  0
   46.1940   31.9680   46.2540 P   0  0  2  0  0  0  0  0  0  0  0  0
   44.9270   32.0560   47.3860 O   0  0  0  0  0  0  0  0  0  0  0  0
   45.1160   32.8140   47.9850 H   0  0  0  0  0  0  0  0  0  0  0  0
   47.5150   31.2750   47.0000 O   0  0  0  0  0  0  0  0  0  0  0  0
   47.7640   29.9540   47.2370 C   0  0  0  0  0  0  0  0  0  0  0  0
   46.8600   28.9210   47.1790 C   0  0  0  0  0  0  0  0  0  0  0  0
   45.8410   29.1750   46.9200 H   0  0  0  0  0  0  0  0  0  0  0  0
   47.1820   27.6040   47.4320 C   0  0  0  0  0  0  0  0  0  0  0  0
   46.4580   26.8050   47.3820 H   0  0  0  0  0  0  0  0  0  0  0  0
   48.4970   27.2690   47.7690 C   0  0  0  0  0  3  0  0  0  0  0  0
   49.3490   28.3580   47.8070 C   0  0  0  0  0  3  0  0  0  0  0  0
   49.0500   29.6390   47.5650 N   0  0  0  0  0  0  0  0  0  0  0  0
  1  6  1  0  0  0  0
  2  7  1  0  0  0  0
  2  1  1  0  0  0  0
  3  2  1  0  0  0  0
  3  4  1  0  0  0  0
  4 11  1  0  0  0  0
  4 12  1  0  0  0  0
  4  5  1  0  0  0  0
  5 14  1  0  0  0  0
  5 13  1  0  0  0  0
  6 15  1  6  0  0  0
  6  5  1  0  0  0  0
  6 31  1  0  0  0  0
  8  2  1  0  0  0  0
  9  3  1  0  0  0  0
 10  3  1  0  0  0  0
 16  1  1  0  0  0  0
 16 18  1  0  0  0  0
 17 16  1  0  0  0  0
 19 20  1  0  0  0  0
 19 16  1  0  0  0  0
 21 19  1  0  0  0  0
 22 23  1  0  0  0  0
 23 24  2  0  0  0  0
 23 29  1  0  0  0  0
 24 19  1  0  0  0  0
 25 24  1  0  0  0  0
 26 25  2  0  0  0  0
 27 26  1  0  0  0  0
 27 22  2  0  0  0  0
 28 22  1  0  0  0  0
 30 26  1  0  0  0  0
 31 33  1  0  0  0  0
 33 32  2  6  0  0  0
 33 36  1  0  0  0  0
 33 34  1  0  0  0  0
 34 35  1  0  0  0  0
 36 37  1  0  0  0  0
 37 44  1  0  0  0  0
 38 37  2  0  0  0  0
 38 40  1  0  0  0  0
 39 38  1  0  0  0  0
 40 42  2  0  0  0  0
 41 40  1  0  0  0  0
 42 43  1  0  0  0  0
 44 43  2  0  0  0  0
M  END
>  <minimizedAffinity>
-4.37630796

>  <minimizedRMSD>
1.52974772

$$$$
