
 OpenBabel03242523403D

 36 40  0  0  1  0  0  0  0  0999 V2000
   37.2540   26.6510   40.1700 C   0  0  2  0  0  0  0  0  0  0  0  0
   37.5240   26.4860   38.9290 N   0  0  1  0  0  4  0  0  0  0  0  0
   37.4170   25.5120   38.1260 C   0  0  0  0  0  0  0  0  0  0  0  0
   36.3370   26.0850   37.5840 N   0  0  0  0  0  0  0  0  0  0  0  0
   35.7180   27.0930   38.2510 C   0  0  2  0  0  3  0  0  0  0  0  0
   34.6620   27.7510   37.5690 C   0  0  0  0  0  0  0  0  0  0  0  0
   34.0550   28.7720   38.2100 C   0  0  0  0  0  0  0  0  0  0  0  0
   34.3830   29.2240   39.4720 C   0  0  0  0  0  0  0  0  0  0  0  0
   35.4280   28.5030   40.0320 C   0  0  0  0  0  0  0  0  0  0  0  0
   36.1850   27.4300   39.5630 C   0  0  1  0  0  0  0  0  0  0  0  0
   36.7000   25.6420   40.4230 H   0  0  0  0  0  0  0  0  0  0  0  0
   38.4190   27.0220   38.6990 H   0  0  0  0  0  0  0  0  0  0  0  0
   38.2280   25.2760   37.4040 H   0  0  0  0  0  0  0  0  0  0  0  0
   37.1680   24.5050   38.5760 H   0  0  0  0  0  0  0  0  0  0  0  0
   36.0450   25.6880   36.6440 H   0  0  0  0  0  0  0  0  0  0  0  0
   34.3460   27.4660   36.5920 H   0  0  0  0  0  0  0  0  0  0  0  0
   33.2340   29.2770   37.6730 H   0  0  0  0  0  0  0  0  0  0  0  0
   33.8840   30.0200   39.9300 H   0  0  0  0  0  0  0  0  0  0  0  0
   35.6490   28.9320   40.9990 H   0  0  0  0  0  0  0  0  0  0  0  0
   37.1040   27.8310   43.6800 C   0  0  0  0  0  0  0  0  0  0  0  0
   38.0000   28.9070   43.4990 C   0  0  0  0  0  0  0  0  0  0  0  0
   38.5250   29.1040   42.2210 C   0  0  0  0  0  0  0  0  0  0  0  0
   38.1230   28.2390   41.2730 N   0  0  0  0  0  0  0  0  0  0  0  0
   37.2500   27.2000   41.4780 C   0  0  0  0  0  0  0  0  0  0  0  0
   36.8130   27.0790   42.6550 N   0  0  0  0  0  0  0  0  0  0  0  0
   36.6580   27.6220   44.6510 H   0  0  0  0  0  0  0  0  0  0  0  0
   38.2150   29.5080   44.3760 H   0  0  0  0  0  0  0  0  0  0  0  0
   39.6420   30.4520   42.0040 S   0  0  0  0  0  0  0  0  0  0  0  0
   38.7850   31.7100   41.0460 C   0  0  0  0  0  0  0  0  0  0  0  0
   37.6820   31.3900   40.2690 C   0  0  0  0  0  0  0  0  0  0  0  0
   37.3300   30.3560   40.2410 H   0  0  0  0  0  0  0  0  0  0  0  0
   37.0000   32.3340   39.5200 C   0  0  0  0  0  0  0  0  0  0  0  0
   36.1390   32.1160   38.9060 H   0  0  0  0  0  0  0  0  0  0  0  0
   37.4410   33.6280   39.5570 C   0  0  0  0  0  3  0  0  0  0  0  0
   38.5400   33.9570   40.3290 C   0  0  0  0  0  3  0  0  0  0  0  0
   39.1630   32.9960   41.0360 N   0  0  0  0  0  0  0  0  0  0  0  0
  1 11  1  1  0  0  0
  1 24  1  0  0  0  0
  2 12  1  6  0  0  0
  2 10  1  0  0  0  0
  2  1  1  0  0  0  0
  3 14  1  0  0  0  0
  3  2  1  0  0  0  0
  4  3  1  0  0  0  0
  4  5  1  0  0  0  0
  5  6  1  6  0  0  0
  5 10  1  0  0  0  0
  6  7  2  0  0  0  0
  7  8  1  0  0  0  0
  8 18  1  0  0  0  0
  8  9  2  0  0  0  0
  9 19  1  0  0  0  0
 10  9  1  1  0  0  0
 10  1  1  0  0  0  0
 13  3  1  0  0  0  0
 15  4  1  0  0  0  0
 16  6  1  0  0  0  0
 17  7  1  0  0  0  0
 20 26  1  0  0  0  0
 21 20  1  0  0  0  0
 21 27  1  0  0  0  0
 22 21  2  0  0  0  0
 23 24  2  0  0  0  0
 23 22  1  0  0  0  0
 24 25  1  0  0  0  0
 25 20  2  0  0  0  0
 28 22  1  0  0  0  0
 29 28  1  0  0  0  0
 30 29  2  0  0  0  0
 31 30  1  0  0  0  0
 32 34  2  0  0  0  0
 32 30  1  0  0  0  0
 33 32  1  0  0  0  0
 34 35  1  0  0  0  0
 35 36  2  0  0  0  0
 36 29  1  0  0  0  0
M  END
>  <minimizedAffinity>
-5.83846521

$$$$

 OpenBabel03242523403D

 36 40  0  0  1  0  0  0  0  0999 V2000
   41.3500   31.8810   39.4020 C   0  0  2  0  0  0  0  0  0  0  0  0
   41.0780   32.5450   38.3420 N   0  0  1  0  0  4  0  0  0  0  0  0
   41.0860   32.2720   37.1040 C   0  0  0  0  0  0  0  0  0  0  0  0
   39.7520   32.1850   37.1210 N   0  0  0  0  0  0  0  0  0  0  0  0
   39.1110   32.0790   38.3150 C   0  0  2  0  0  3  0  0  0  0  0  0
   37.6930   32.1250   38.2800 C   0  0  0  0  0  0  0  0  0  0  0  0
   37.0440   32.0470   39.4610 C   0  0  0  0  0  0  0  0  0  0  0  0
   37.6520   31.9270   40.6940 C   0  0  0  0  0  0  0  0  0  0  0  0
   39.0350   31.8940   40.5960 C   0  0  0  0  0  0  0  0  0  0  0  0
   39.9000   31.9550   39.5040 C   0  0  1  0  0  0  0  0  0  0  0  0
   41.5030   30.7970   38.9640 H   0  0  0  0  0  0  0  0  0  0  0  0
   41.4160   33.5500   38.4730 H   0  0  0  0  0  0  0  0  0  0  0  0
   41.4940   32.9930   36.3640 H   0  0  0  0  0  0  0  0  0  0  0  0
   41.5600   31.2910   36.8020 H   0  0  0  0  0  0  0  0  0  0  0  0
   39.2910   32.2080   36.1660 H   0  0  0  0  0  0  0  0  0  0  0  0
   37.1450   32.2170   37.3700 H   0  0  0  0  0  0  0  0  0  0  0  0
   35.9420   32.0820   39.4240 H   0  0  0  0  0  0  0  0  0  0  0  0
   37.1070   31.8700   41.5840 H   0  0  0  0  0  0  0  0  0  0  0  0
   39.4400   31.8330   41.5960 H   0  0  0  0  0  0  0  0  0  0  0  0
   42.2210   31.4080   42.9730 C   0  0  0  0  0  0  0  0  0  0  0  0
   41.9160   30.0300   43.0050 C   0  0  0  0  0  0  0  0  0  0  0  0
   41.4730   29.4380   41.8220 C   0  0  0  0  0  0  0  0  0  0  0  0
   41.3760   30.2470   40.7520 N   0  0  0  0  0  0  0  0  0  0  0  0
   41.6790   31.5850   40.7500 C   0  0  0  0  0  0  0  0  0  0  0  0
   42.0750   32.0560   41.8520 N   0  0  0  0  0  0  0  0  0  0  0  0
   42.5720   31.9310   43.8620 H   0  0  0  0  0  0  0  0  0  0  0  0
   42.0520   29.5280   43.9580 H   0  0  0  0  0  0  0  0  0  0  0  0
   41.0950   27.7150   41.8720 S   0  0  0  0  0  0  0  0  0  0  0  0
   39.3730   27.5580   42.3680 C   0  0  0  0  0  0  0  0  0  0  0  0
   38.7200   28.5900   43.0240 C   0  0  0  0  0  0  0  0  0  0  0  0
   39.2630   29.5130   43.2420 H   0  0  0  0  0  0  0  0  0  0  0  0
   37.3960   28.5010   43.4190 C   0  0  0  0  0  0  0  0  0  0  0  0
   36.8610   29.2860   43.9310 H   0  0  0  0  0  0  0  0  0  0  0  0
   36.7180   27.3450   43.1450 C   0  0  0  0  0  3  0  0  0  0  0  0
   37.3610   26.3110   42.4910 C   0  0  0  0  0  3  0  0  0  0  0  0
   38.6490   26.4550   42.1320 N   0  0  0  0  0  0  0  0  0  0  0  0
  1 11  1  6  0  0  0
  1 10  1  0  0  0  0
  1 24  1  0  0  0  0
  2 12  1  1  0  0  0
  2  1  1  0  0  0  0
  2 10  1  0  0  0  0
  3  4  1  0  0  0  0
  3  2  1  0  0  0  0
  4  5  1  0  0  0  0
  5  6  1  1  0  0  0
  5 10  1  0  0  0  0
  6  7  2  0  0  0  0
  7  8  1  0  0  0  0
  8 18  1  0  0  0  0
  9  8  2  0  0  0  0
  9 19  1  0  0  0  0
 10  9  1  1  0  0  0
 13  3  1  0  0  0  0
 14  3  1  0  0  0  0
 15  4  1  0  0  0  0
 16  6  1  0  0  0  0
 17  7  1  0  0  0  0
 20 21  1  0  0  0  0
 20 26  1  0  0  0  0
 21 27  1  0  0  0  0
 22 28  1  0  0  0  0
 22 21  2  0  0  0  0
 23 22  1  0  0  0  0
 24 23  2  0  0  0  0
 24 25  1  0  0  0  0
 25 20  2  0  0  0  0
 28 29  1  0  0  0  0
 29 30  1  0  0  0  0
 30 31  1  0  0  0  0
 30 32  2  0  0  0  0
 32 33  1  0  0  0  0
 34 32  1  0  0  0  0
 35 34  2  0  0  0  0
 36 29  2  0  0  0  0
 36 35  1  0  0  0  0
M  END
>  <minimizedAffinity>
-5.83439684

$$$$

 OpenBabel03242523403D

 36 40  0  0  1  0  0  0  0  0999 V2000
   37.0400   29.4650   41.9380 C   0  0  2  0  0  0  0  0  0  0  0  0
   36.9530   28.8160   43.0390 N   0  0  1  0  0  4  0  0  0  0  0  0
   36.6020   27.6370   43.3420 C   0  0  0  0  0  0  0  0  0  0  0  0
   37.8850   27.3030   43.5080 N   0  0  0  0  0  0  0  0  0  0  0  0
   38.8500   28.1190   43.0090 C   0  0  2  0  0  3  0  0  0  0  0  0
   40.1920   27.7850   43.3310 C   0  0  0  0  0  0  0  0  0  0  0  0
   41.1600   28.6020   42.8640 C   0  0  0  0  0  0  0  0  0  0  0  0
   40.9450   29.7330   42.1030 C   0  0  0  0  0  0  0  0  0  0  0  0
   39.5980   29.9520   41.8590 C   0  0  0  0  0  0  0  0  0  0  0  0
   38.4500   29.2530   42.2300 C   0  0  1  0  0  0  0  0  0  0  0  0
   36.8300   28.6140   41.1500 H   0  0  0  0  0  0  0  0  0  0  0  0
   36.6110   29.4820   43.8010 H   0  0  0  0  0  0  0  0  0  0  0  0
   35.9550   27.4440   44.2240 H   0  0  0  0  0  0  0  0  0  0  0  0
   36.1170   27.0240   42.5240 H   0  0  0  0  0  0  0  0  0  0  0  0
   38.0460   26.3960   44.0330 H   0  0  0  0  0  0  0  0  0  0  0  0
   40.4450   26.9290   43.9140 H   0  0  0  0  0  0  0  0  0  0  0  0
   42.1990   28.3330   43.1180 H   0  0  0  0  0  0  0  0  0  0  0  0
   41.7280   30.3360   41.7640 H   0  0  0  0  0  0  0  0  0  0  0  0
   39.5060   30.8670   41.2900 H   0  0  0  0  0  0  0  0  0  0  0  0
   37.3690   32.4640   39.7860 C   0  0  0  0  0  0  0  0  0  0  0  0
   37.3240   31.7590   38.5640 C   0  0  0  0  0  0  0  0  0  0  0  0
   37.1750   30.3730   38.6220 C   0  0  0  0  0  0  0  0  0  0  0  0
   37.0890   29.8340   39.8520 N   0  0  0  0  0  0  0  0  0  0  0  0
   37.1360   30.5460   41.0240 C   0  0  0  0  0  0  0  0  0  0  0  0
   37.2710   31.7940   40.9000 N   0  0  0  0  0  0  0  0  0  0  0  0
   37.4820   33.5470   39.8110 H   0  0  0  0  0  0  0  0  0  0  0  0
   37.4080   32.3540   37.6610 H   0  0  0  0  0  0  0  0  0  0  0  0
   37.1190   29.5000   37.0900 S   0  0  0  0  0  0  0  0  0  0  0  0
   35.3860   29.2760   36.6640 C   0  0  0  0  0  0  0  0  0  0  0  0
   34.4260   29.0850   37.6460 C   0  0  0  0  0  0  0  0  0  0  0  0
   34.7310   29.0720   38.6950 H   0  0  0  0  0  0  0  0  0  0  0  0
   33.0850   28.9100   37.3520 C   0  0  0  0  0  0  0  0  0  0  0  0
   32.3150   28.7600   38.0930 H   0  0  0  0  0  0  0  0  0  0  0  0
   32.7050   28.9280   36.0370 C   0  0  0  0  0  3  0  0  0  0  0  0
   33.6550   29.1170   35.0510 C   0  0  0  0  0  3  0  0  0  0  0  0
   34.9440   29.2820   35.3980 N   0  0  0  0  0  0  0  0  0  0  0  0
  1 11  1  6  0  0  0
  1 10  1  0  0  0  0
  1  2  1  0  0  0  0
  2  3  1  0  0  0  0
  2 12  1  1  0  0  0
  3  4  1  0  0  0  0
  3 13  1  0  0  0  0
  4 15  1  0  0  0  0
  5  6  1  1  0  0  0
  5  4  1  0  0  0  0
  6 16  1  0  0  0  0
  7 17  1  0  0  0  0
  7  6  2  0  0  0  0
  8  7  1  0  0  0  0
  9  8  2  0  0  0  0
 10  9  1  1  0  0  0
 10  5  1  0  0  0  0
 10  2  1  0  0  0  0
 14  3  1  0  0  0  0
 18  8  1  0  0  0  0
 19  9  1  0  0  0  0
 20 26  1  0  0  0  0
 20 25  1  0  0  0  0
 21 22  1  0  0  0  0
 21 20  2  0  0  0  0
 22 23  2  0  0  0  0
 23 24  1  0  0  0  0
 24  1  1  0  0  0  0
 25 24  2  0  0  0  0
 27 21  1  0  0  0  0
 28 22  1  0  0  0  0
 29 28  1  0  0  0  0
 29 30  1  0  0  0  0
 30 31  1  0  0  0  0
 32 30  2  0  0  0  0
 32 33  1  0  0  0  0
 34 32  1  0  0  0  0
 35 36  1  0  0  0  0
 35 34  2  0  0  0  0
 36 29  2  0  0  0  0
M  END
>  <minimizedAffinity>
-5.82747841

$$$$

 OpenBabel03242523403D

 36 40  0  0  1  0  0  0  0  0999 V2000
   37.1050   26.5000   41.6740 C   0  0  2  0  0  0  0  0  0  0  0  0
   37.0000   25.3270   42.1760 N   0  0  1  0  0  4  0  0  0  0  0  0
   37.0540   24.1550   41.6970 C   0  0  0  0  0  0  0  0  0  0  0  0
   38.2860   24.0140   42.1960 N   0  0  0  0  0  0  0  0  0  0  0  0
   38.9650   25.1180   42.6030 C   0  0  2  0  0  3  0  0  0  0  0  0
   40.2110   24.8950   43.2460 C   0  0  0  0  0  0  0  0  0  0  0  0
   40.8840   25.9820   43.6790 C   0  0  0  0  0  0  0  0  0  0  0  0
   40.4540   27.2870   43.5470 C   0  0  0  0  0  0  0  0  0  0  0  0
   39.2270   27.3720   42.9050 C   0  0  0  0  0  0  0  0  0  0  0  0
   38.3730   26.4030   42.3810 C   0  0  1  0  0  0  0  0  0  0  0  0
   37.4280   26.2510   40.5680 H   0  0  0  0  0  0  0  0  0  0  0  0
   36.2580   25.3490   42.9440 H   0  0  0  0  0  0  0  0  0  0  0  0
   36.3320   23.3740   42.0180 H   0  0  0  0  0  0  0  0  0  0  0  0
   37.0510   24.0640   40.5700 H   0  0  0  0  0  0  0  0  0  0  0  0
   38.6420   23.0150   42.2320 H   0  0  0  0  0  0  0  0  0  0  0  0
   40.6150   23.9200   43.3890 H   0  0  0  0  0  0  0  0  0  0  0  0
   41.8520   25.8000   44.1750 H   0  0  0  0  0  0  0  0  0  0  0  0
   41.0110   28.0980   43.8980 H   0  0  0  0  0  0  0  0  0  0  0  0
   38.9420   28.4140   42.8680 H   0  0  0  0  0  0  0  0  0  0  0  0
   36.8890   30.1990   41.5930 C   0  0  0  0  0  0  0  0  0  0  0  0
   37.0180   30.3110   40.1910 C   0  0  0  0  0  0  0  0  0  0  0  0
   37.1450   29.1310   39.4570 C   0  0  0  0  0  0  0  0  0  0  0  0
   37.1340   27.9860   40.1640 N   0  0  0  0  0  0  0  0  0  0  0  0
   37.0080   27.9080   41.5280 C   0  0  0  0  0  0  0  0  0  0  0  0
   36.8970   29.0110   42.1300 N   0  0  0  0  0  0  0  0  0  0  0  0
   36.7860   31.0800   42.2240 H   0  0  0  0  0  0  0  0  0  0  0  0
   37.0070   31.3160   39.7840 H   0  0  0  0  0  0  0  0  0  0  0  0
   37.3040   29.2810   37.7060 S   0  0  0  0  0  0  0  0  0  0  0  0
   35.6510   29.1750   37.0070 C   0  0  0  0  0  0  0  0  0  0  0  0
   34.5370   29.0250   37.8210 C   0  0  0  0  0  0  0  0  0  0  0  0
   34.6710   28.9700   38.9030 H   0  0  0  0  0  0  0  0  0  0  0  0
   33.2520   28.9410   37.3140 C   0  0  0  0  0  0  0  0  0  0  0  0
   32.3660   28.8240   37.9210 H   0  0  0  0  0  0  0  0  0  0  0  0
   33.0860   29.0110   35.9580 C   0  0  0  0  0  3  0  0  0  0  0  0
   34.1900   29.1610   35.1390 C   0  0  0  0  0  3  0  0  0  0  0  0
   35.4160   29.2370   35.6890 N   0  0  0  0  0  0  0  0  0  0  0  0
  1 11  1  6  0  0  0
  1  2  1  0  0  0  0
  1 10  1  0  0  0  0
  2 10  1  0  0  0  0
  2 12  1  1  0  0  0
  3 13  1  0  0  0  0
  3  2  1  0  0  0  0
  3  4  1  0  0  0  0
  4 15  1  0  0  0  0
  4  5  1  0  0  0  0
  5  6  1  1  0  0  0
  6 16  1  0  0  0  0
  6  7  2  0  0  0  0
  7 17  1  0  0  0  0
  8  7  1  0  0  0  0
  8 18  1  0  0  0  0
  9  8  2  0  0  0  0
 10  5  1  0  0  0  0
 10  9  1  1  0  0  0
 14  3  1  0  0  0  0
 19  9  1  0  0  0  0
 20 25  1  0  0  0  0
 20 26  1  0  0  0  0
 21 20  2  0  0  0  0
 22 23  2  0  0  0  0
 22 21  1  0  0  0  0
 23 24  1  0  0  0  0
 24  1  1  0  0  0  0
 24 25  2  0  0  0  0
 27 21  1  0  0  0  0
 28 22  1  0  0  0  0
 29 28  1  0  0  0  0
 29 30  1  0  0  0  0
 30 31  1  0  0  0  0
 32 30  2  0  0  0  0
 32 33  1  0  0  0  0
 34 32  1  0  0  0  0
 35 36  1  0  0  0  0
 35 34  2  0  0  0  0
 36 29  2  0  0  0  0
M  END
>  <minimizedAffinity>
-5.82455349

$$$$

 OpenBabel03242523403D

 36 40  0  0  1  0  0  0  0  0999 V2000
   39.5640   30.1080   42.6780 C   0  0  2  0  0  0  0  0  0  0  0  0
   40.2290   31.1980   42.7720 N   0  0  1  0  0  4  0  0  0  0  0  0
   41.3770   31.5680   42.3830 C   0  0  0  0  0  0  0  0  0  0  0  0
   40.8110   32.2610   41.3900 N   0  0  0  0  0  0  0  0  0  0  0  0
   39.5150   32.0130   41.0640 C   0  0  2  0  0  3  0  0  0  0  0  0
   38.9290   32.8690   40.0960 C   0  0  0  0  0  0  0  0  0  0  0  0
   37.6350   32.6500   39.7820 C   0  0  0  0  0  0  0  0  0  0  0  0
   36.8410   31.6630   40.3300 C   0  0  0  0  0  0  0  0  0  0  0  0
   37.5260   30.8960   41.2610 C   0  0  0  0  0  0  0  0  0  0  0  0
   38.8390   30.9390   41.7300 C   0  0  1  0  0  0  0  0  0  0  0  0
   40.2560   29.4770   41.9610 H   0  0  0  0  0  0  0  0  0  0  0  0
   40.0340   31.6360   43.7270 H   0  0  0  0  0  0  0  0  0  0  0  0
   42.0390   32.1650   43.0460 H   0  0  0  0  0  0  0  0  0  0  0  0
   42.0640   30.7630   41.9850 H   0  0  0  0  0  0  0  0  0  0  0  0
   41.4450   32.9720   40.9230 H   0  0  0  0  0  0  0  0  0  0  0  0
   39.4710   33.6560   39.6240 H   0  0  0  0  0  0  0  0  0  0  0  0
   37.1880   33.3190   39.0270 H   0  0  0  0  0  0  0  0  0  0  0  0
   35.8420   31.5310   40.0560 H   0  0  0  0  0  0  0  0  0  0  0  0
   36.8360   30.1700   41.6690 H   0  0  0  0  0  0  0  0  0  0  0  0
   36.8600   27.7040   43.4790 C   0  0  0  0  0  0  0  0  0  0  0  0
   37.2980   26.7040   42.5830 C   0  0  0  0  0  0  0  0  0  0  0  0
   38.4500   26.9620   41.8390 C   0  0  0  0  0  0  0  0  0  0  0  0
   39.0400   28.1540   42.0490 N   0  0  0  0  0  0  0  0  0  0  0  0
   38.5900   29.1070   42.9270 C   0  0  0  0  0  0  0  0  0  0  0  0
   37.5450   28.8100   43.5680 N   0  0  0  0  0  0  0  0  0  0  0  0
   35.9690   27.5660   44.0900 H   0  0  0  0  0  0  0  0  0  0  0  0
   36.7010   25.8000   42.5400 H   0  0  0  0  0  0  0  0  0  0  0  0
   38.9900   25.7080   40.7230 S   0  0  0  0  0  0  0  0  0  0  0  0
   37.5280   25.0510   39.9070 C   0  0  0  0  0  0  0  0  0  0  0  0
   36.9520   23.8590   40.3200 C   0  0  0  0  0  0  0  0  0  0  0  0
   37.3960   23.3120   41.1550 H   0  0  0  0  0  0  0  0  0  0  0  0
   35.8270   23.3260   39.7140 C   0  0  0  0  0  0  0  0  0  0  0  0
   35.3560   22.4020   40.0130 H   0  0  0  0  0  0  0  0  0  0  0  0
   35.2710   24.0120   38.6690 C   0  0  0  0  0  3  0  0  0  0  0  0
   35.8380   25.2010   38.2500 C   0  0  0  0  0  3  0  0  0  0  0  0
   36.9320   25.6700   38.8780 N   0  0  0  0  0  0  0  0  0  0  0  0
  1 11  1  6  0  0  0
  1  2  1  0  0  0  0
  1 24  1  0  0  0  0
  2 12  1  1  0  0  0
  3  2  1  0  0  0  0
  3 13  1  0  0  0  0
  4  3  1  0  0  0  0
  5  6  1  1  0  0  0
  5  4  1  0  0  0  0
  5 10  1  0  0  0  0
  7  6  2  0  0  0  0
  7  8  1  0  0  0  0
  8  9  2  0  0  0  0
  9 19  1  0  0  0  0
 10  9  1  1  0  0  0
 10  1  1  0  0  0  0
 10  2  1  0  0  0  0
 14  3  1  0  0  0  0
 15  4  1  0  0  0  0
 16  6  1  0  0  0  0
 17  7  1  0  0  0  0
 18  8  1  0  0  0  0
 20 25  1  0  0  0  0
 20 26  1  0  0  0  0
 21 20  2  0  0  0  0
 22 23  2  0  0  0  0
 22 21  1  0  0  0  0
 23 24  1  0  0  0  0
 24 25  2  0  0  0  0
 27 21  1  0  0  0  0
 28 22  1  0  0  0  0
 29 30  1  0  0  0  0
 29 28  1  0  0  0  0
 30 31  1  0  0  0  0
 32 33  1  0  0  0  0
 32 30  2  0  0  0  0
 34 32  1  0  0  0  0
 35 34  2  0  0  0  0
 35 36  1  0  0  0  0
 36 29  2  0  0  0  0
M  END
>  <minimizedAffinity>
-5.7191782

$$$$

 OpenBabel03242523403D

 36 40  0  0  1  0  0  0  0  0999 V2000
   38.5320   32.4820   38.9690 C   0  0  2  0  0  0  0  0  0  0  0  0
   39.2290   33.5170   39.2550 N   0  0  1  0  0  4  0  0  0  0  0  0
   39.5170   34.1150   40.3340 C   0  0  0  0  0  0  0  0  0  0  0  0
   40.7400   33.5780   40.2990 N   0  0  0  0  0  0  0  0  0  0  0  0
   40.9760   32.5230   39.4750 C   0  0  2  0  0  3  0  0  0  0  0  0
   42.3220   32.0810   39.3800 C   0  0  0  0  0  0  0  0  0  0  0  0
   42.5740   31.0510   38.5450 C   0  0  0  0  0  0  0  0  0  0  0  0
   41.6290   30.4000   37.7780 C   0  0  0  0  0  0  0  0  0  0  0  0
   40.3580   30.9240   37.9580 C   0  0  0  0  0  0  0  0  0  0  0  0
   39.8740   31.9610   38.7540 C   0  0  1  0  0  0  0  0  0  0  0  0
   38.2830   32.0660   40.0440 H   0  0  0  0  0  0  0  0  0  0  0  0
   39.0900   34.2450   38.4860 H   0  0  0  0  0  0  0  0  0  0  0  0
   39.5000   35.2250   40.3930 H   0  0  0  0  0  0  0  0  0  0  0  0
   38.9520   33.7970   41.2600 H   0  0  0  0  0  0  0  0  0  0  0  0
   41.4490   34.0360   40.9420 H   0  0  0  0  0  0  0  0  0  0  0  0
   43.1130   32.5280   39.9370 H   0  0  0  0  0  0  0  0  0  0  0  0
   43.6220   30.7130   38.4790 H   0  0  0  0  0  0  0  0  0  0  0  0
   41.8720   29.6060   37.1450 H   0  0  0  0  0  0  0  0  0  0  0  0
   39.6820   30.3900   37.3060 H   0  0  0  0  0  0  0  0  0  0  0  0
   36.7380   30.0840   36.7860 C   0  0  0  0  0  0  0  0  0  0  0  0
   36.0370   29.4460   37.8330 C   0  0  0  0  0  0  0  0  0  0  0  0
   36.2480   29.9130   39.1310 C   0  0  0  0  0  0  0  0  0  0  0  0
   37.1090   30.9390   39.2620 N   0  0  0  0  0  0  0  0  0  0  0  0
   37.7770   31.5390   38.2240 C   0  0  0  0  0  0  0  0  0  0  0  0
   37.5410   31.0680   37.0780 N   0  0  0  0  0  0  0  0  0  0  0  0
   36.6190   29.7680   35.7500 H   0  0  0  0  0  0  0  0  0  0  0  0
   35.3800   28.6320   37.5480 H   0  0  0  0  0  0  0  0  0  0  0  0
   35.3680   29.1110   40.4320 S   0  0  0  0  0  0  0  0  0  0  0  0
   36.5880   28.4560   41.5800 C   0  0  0  0  0  0  0  0  0  0  0  0
   37.2770   29.2910   42.4460 C   0  0  0  0  0  0  0  0  0  0  0  0
   37.0740   30.3640   42.4290 H   0  0  0  0  0  0  0  0  0  0  0  0
   38.2220   28.8190   43.3410 C   0  0  0  0  0  0  0  0  0  0  0  0
   38.7740   29.4430   44.0280 H   0  0  0  0  0  0  0  0  0  0  0  0
   38.4750   27.4740   43.3630 C   0  0  0  0  0  3  0  0  0  0  0  0
   37.7920   26.6340   42.5030 C   0  0  0  0  0  3  0  0  0  0  0  0
   36.8850   27.1510   41.6550 N   0  0  0  0  0  0  0  0  0  0  0  0
  1  2  1  0  0  0  0
  1 11  1  1  0  0  0
  2 12  1  6  0  0  0
  2  3  1  0  0  0  0
  3 13  1  0  0  0  0
  3 14  1  0  0  0  0
  4  3  1  0  0  0  0
  4 15  1  0  0  0  0
  5  6  1  6  0  0  0
  5  4  1  0  0  0  0
  6 16  1  0  0  0  0
  7  6  2  0  0  0  0
  8  9  2  0  0  0  0
  8  7  1  0  0  0  0
 10  9  1  6  0  0  0
 10  1  1  0  0  0  0
 10  2  1  0  0  0  0
 10  5  1  0  0  0  0
 17  7  1  0  0  0  0
 18  8  1  0  0  0  0
 19  9  1  0  0  0  0
 20 25  2  0  0  0  0
 20 21  1  0  0  0  0
 21 22  2  0  0  0  0
 22 23  1  0  0  0  0
 22 28  1  0  0  0  0
 24  1  1  0  0  0  0
 24 23  2  0  0  0  0
 25 24  1  0  0  0  0
 26 20  1  0  0  0  0
 27 21  1  0  0  0  0
 28 29  1  0  0  0  0
 29 36  2  0  0  0  0
 29 30  1  0  0  0  0
 30 32  2  0  0  0  0
 31 30  1  0  0  0  0
 32 34  1  0  0  0  0
 32 33  1  0  0  0  0
 35 34  2  0  0  0  0
 36 35  1  0  0  0  0
M  END
>  <minimizedAffinity>
-5.60973597

$$$$

 OpenBabel03242523403D

 36 40  0  0  1  0  0  0  0  0999 V2000
   38.6920   30.2950   37.7980 C   0  0  2  0  0  0  0  0  0  0  0  0
   37.9760   29.6890   36.9260 N   0  0  1  0  0  4  0  0  0  0  0  0
   38.0090   28.5330   36.4070 C   0  0  0  0  0  0  0  0  0  0  0  0
   36.9820   28.1630   37.1780 N   0  0  0  0  0  0  0  0  0  0  0  0
   36.6510   28.9290   38.2500 C   0  0  2  0  0  3  0  0  0  0  0  0
   35.4720   28.5630   38.9520 C   0  0  0  0  0  0  0  0  0  0  0  0
   35.1170   29.3300   40.0040 C   0  0  0  0  0  0  0  0  0  0  0  0
   35.8080   30.4410   40.4460 C   0  0  0  0  0  0  0  0  0  0  0  0
   36.9360   30.6950   39.6790 C   0  0  0  0  0  0  0  0  0  0  0  0
   37.4860   30.0470   38.5740 C   0  0  1  0  0  0  0  0  0  0  0  0
   39.3960   29.4230   38.1660 H   0  0  0  0  0  0  0  0  0  0  0  0
   37.6820   30.3910   36.1770 H   0  0  0  0  0  0  0  0  0  0  0  0
   37.8450   28.3920   35.3170 H   0  0  0  0  0  0  0  0  0  0  0  0
   38.9280   27.9070   36.6150 H   0  0  0  0  0  0  0  0  0  0  0  0
   36.4950   27.2700   36.8760 H   0  0  0  0  0  0  0  0  0  0  0  0
   34.8800   27.7210   38.6770 H   0  0  0  0  0  0  0  0  0  0  0  0
   34.2020   29.0370   40.5440 H   0  0  0  0  0  0  0  0  0  0  0  0
   35.4950   31.0060   41.2670 H   0  0  0  0  0  0  0  0  0  0  0  0
   37.4040   31.5910   40.0620 H   0  0  0  0  0  0  0  0  0  0  0  0
   40.0420   33.2180   39.6310 C   0  0  0  0  0  0  0  0  0  0  0  0
   40.6130   32.4670   40.6820 C   0  0  0  0  0  0  0  0  0  0  0  0
   40.4830   31.0780   40.6290 C   0  0  0  0  0  0  0  0  0  0  0  0
   39.8170   30.5830   39.5700 N   0  0  0  0  0  0  0  0  0  0  0  0
   39.2710   31.3390   38.5640 C   0  0  0  0  0  0  0  0  0  0  0  0
   39.4250   32.5860   38.6720 N   0  0  0  0  0  0  0  0  0  0  0  0
   40.1090   34.3050   39.6120 H   0  0  0  0  0  0  0  0  0  0  0  0
   41.1180   33.0300   41.4590 H   0  0  0  0  0  0  0  0  0  0  0  0
   41.2010   30.1480   41.9450 S   0  0  0  0  0  0  0  0  0  0  0  0
   39.9080   29.1010   42.6280 C   0  0  0  0  0  0  0  0  0  0  0  0
   38.6130   29.5730   42.7860 C   0  0  0  0  0  0  0  0  0  0  0  0
   38.3790   30.5970   42.4900 H   0  0  0  0  0  0  0  0  0  0  0  0
   37.5960   28.7930   43.3090 C   0  0  0  0  0  0  0  0  0  0  0  0
   36.5800   29.1310   43.4440 H   0  0  0  0  0  0  0  0  0  0  0  0
   37.8920   27.5090   43.6790 C   0  0  0  0  0  3  0  0  0  0  0  0
   39.1790   27.0300   43.5250 C   0  0  0  0  0  3  0  0  0  0  0  0
   40.1270   27.8350   43.0120 N   0  0  0  0  0  0  0  0  0  0  0  0
  1 11  1  1  0  0  0
  1 24  1  0  0  0  0
  1 10  1  0  0  0  0
  2 12  1  6  0  0  0
  2  1  1  0  0  0  0
  2 10  1  0  0  0  0
  3 14  1  0  0  0  0
  3  2  1  0  0  0  0
  3  4  1  0  0  0  0
  4  5  1  0  0  0  0
  5 10  1  0  0  0  0
  5  6  1  6  0  0  0
  6  7  2  0  0  0  0
  7  8  1  0  0  0  0
  7 17  1  0  0  0  0
  8 18  1  0  0  0  0
  9 19  1  0  0  0  0
  9  8  2  0  0  0  0
 10  9  1  6  0  0  0
 13  3  1  0  0  0  0
 15  4  1  0  0  0  0
 16  6  1  0  0  0  0
 20 21  1  0  0  0  0
 21 27  1  0  0  0  0
 22 21  2  0  0  0  0
 22 28  1  0  0  0  0
 23 22  1  0  0  0  0
 24 25  1  0  0  0  0
 24 23  2  0  0  0  0
 25 20  2  0  0  0  0
 26 20  1  0  0  0  0
 28 29  1  0  0  0  0
 29 30  2  0  0  0  0
 29 36  1  0  0  0  0
 30 32  1  0  0  0  0
 31 30  1  0  0  0  0
 32 33  1  0  0  0  0
 32 34  2  0  0  0  0
 35 34  1  0  0  0  0
 36 35  2  0  0  0  0
M  END
>  <minimizedAffinity>
-5.57533503

$$$$

 OpenBabel03242523403D

 36 40  0  0  1  0  0  0  0  0999 V2000
   38.7870   29.5720   40.1270 C   0  0  2  0  0  0  0  0  0  0  0  0
   39.0120   30.2990   39.0970 N   0  0  1  0  0  4  0  0  0  0  0  0
   39.7030   30.1480   38.0450 C   0  0  0  0  0  0  0  0  0  0  0  0
   38.5850   29.9080   37.3520 N   0  0  0  0  0  0  0  0  0  0  0  0
   37.4410   29.6160   38.0240 C   0  0  2  0  0  3  0  0  0  0  0  0
   36.2600   29.5030   37.2450 C   0  0  0  0  0  0  0  0  0  0  0  0
   35.1110   29.2380   37.9020 C   0  0  0  0  0  0  0  0  0  0  0  0
   34.9970   29.0730   39.2680 C   0  0  0  0  0  0  0  0  0  0  0  0
   36.2160   29.2080   39.9150 C   0  0  0  0  0  0  0  0  0  0  0  0
   37.5030   29.4710   39.4480 C   0  0  1  0  0  0  0  0  0  0  0  0
   39.3030   28.5600   39.8140 H   0  0  0  0  0  0  0  0  0  0  0  0
   39.0800   31.3190   39.4070 H   0  0  0  0  0  0  0  0  0  0  0  0
   40.3250   30.9780   37.6480 H   0  0  0  0  0  0  0  0  0  0  0  0
   40.4040   29.2610   38.0190 H   0  0  0  0  0  0  0  0  0  0  0  0
   38.6920   29.9680   36.2980 H   0  0  0  0  0  0  0  0  0  0  0  0
   36.2590   29.6170   36.1850 H   0  0  0  0  0  0  0  0  0  0  0  0
   34.1980   29.1500   37.2890 H   0  0  0  0  0  0  0  0  0  0  0  0
   34.0840   28.8690   39.7330 H   0  0  0  0  0  0  0  0  0  0  0  0
   36.0450   29.0980   40.9760 H   0  0  0  0  0  0  0  0  0  0  0  0
   37.6170   28.8230   43.5620 C   0  0  0  0  0  0  0  0  0  0  0  0
   38.0980   27.4950   43.5820 C   0  0  0  0  0  0  0  0  0  0  0  0
   38.7640   27.0320   42.4470 C   0  0  0  0  0  0  0  0  0  0  0  0
   38.8840   27.9040   41.4290 N   0  0  0  0  0  0  0  0  0  0  0  0
   38.4050   29.1900   41.4390 C   0  0  0  0  0  0  0  0  0  0  0  0
   37.8140   29.5450   42.4950 N   0  0  0  0  0  0  0  0  0  0  0  0
   37.0890   29.2460   44.4160 H   0  0  0  0  0  0  0  0  0  0  0  0
   37.9140   26.9290   44.4890 H   0  0  0  0  0  0  0  0  0  0  0  0
   39.3630   25.3730   42.4810 S   0  0  0  0  0  0  0  0  0  0  0  0
   38.3220   24.4040   41.3790 C   0  0  0  0  0  0  0  0  0  0  0  0
   36.9460   24.5760   41.3590 C   0  0  0  0  0  0  0  0  0  0  0  0
   36.4900   25.3130   42.0240 H   0  0  0  0  0  0  0  0  0  0  0  0
   36.1180   23.8480   40.5230 C   0  0  0  0  0  0  0  0  0  0  0  0
   35.0450   23.9590   40.4830 H   0  0  0  0  0  0  0  0  0  0  0  0
   36.6910   22.9260   39.6900 C   0  0  0  0  0  3  0  0  0  0  0  0
   38.0610   22.7470   39.7040 C   0  0  0  0  0  3  0  0  0  0  0  0
   38.8160   23.4850   40.5380 N   0  0  0  0  0  0  0  0  0  0  0  0
  1 11  1  6  0  0  0
  1 24  1  0  0  0  0
  2 12  1  1  0  0  0
  2 10  1  0  0  0  0
  2  1  1  0  0  0  0
  3  2  1  0  0  0  0
  4  5  1  0  0  0  0
  4  3  1  0  0  0  0
  5  6  1  1  0  0  0
  5 10  1  0  0  0  0
  6  7  2  0  0  0  0
  7  8  1  0  0  0  0
  8 18  1  0  0  0  0
  8  9  2  0  0  0  0
  9 19  1  0  0  0  0
 10  9  1  1  0  0  0
 10  1  1  0  0  0  0
 13  3  1  0  0  0  0
 14  3  1  0  0  0  0
 15  4  1  0  0  0  0
 16  6  1  0  0  0  0
 17  7  1  0  0  0  0
 20 21  1  0  0  0  0
 20 26  1  0  0  0  0
 21 27  1  0  0  0  0
 22 28  1  0  0  0  0
 22 21  2  0  0  0  0
 23 24  2  0  0  0  0
 23 22  1  0  0  0  0
 24 25  1  0  0  0  0
 25 20  2  0  0  0  0
 29 28  1  0  0  0  0
 30 29  1  0  0  0  0
 30 31  1  0  0  0  0
 32 30  2  0  0  0  0
 33 32  1  0  0  0  0
 34 35  2  0  0  0  0
 34 32  1  0  0  0  0
 35 36  1  0  0  0  0
 36 29  2  0  0  0  0
M  END
>  <minimizedAffinity>
-5.53966141

$$$$

 OpenBabel03242523403D

 36 40  0  0  1  0  0  0  0  0999 V2000
   39.4760   30.1080   42.6490 C   0  0  2  0  0  0  0  0  0  0  0  0
   40.1270   31.2050   42.7700 N   0  0  1  0  0  4  0  0  0  0  0  0
   41.2720   31.5960   42.3950 C   0  0  0  0  0  0  0  0  0  0  0  0
   40.7030   32.3040   41.4150 N   0  0  0  0  0  0  0  0  0  0  0  0
   39.4120   32.0470   41.0770 C   0  0  2  0  0  3  0  0  0  0  0  0
   38.8200   32.9180   40.1250 C   0  0  0  0  0  0  0  0  0  0  0  0
   37.5300   32.6900   39.8000 C   0  0  0  0  0  0  0  0  0  0  0  0
   36.7450   31.6810   40.3220 C   0  0  0  0  0  0  0  0  0  0  0  0
   37.4360   30.9030   41.2390 C   0  0  0  0  0  0  0  0  0  0  0  0
   38.7450   30.9520   41.7150 C   0  0  1  0  0  0  0  0  0  0  0  0
   40.1790   29.5010   41.9220 H   0  0  0  0  0  0  0  0  0  0  0  0
   39.9220   31.6180   43.7340 H   0  0  0  0  0  0  0  0  0  0  0  0
   41.9230   32.1870   43.0750 H   0  0  0  0  0  0  0  0  0  0  0  0
   41.9710   30.8080   41.9840 H   0  0  0  0  0  0  0  0  0  0  0  0
   41.3310   33.0330   40.9670 H   0  0  0  0  0  0  0  0  0  0  0  0
   39.3540   33.7210   39.6730 H   0  0  0  0  0  0  0  0  0  0  0  0
   37.0790   33.3690   39.0570 H   0  0  0  0  0  0  0  0  0  0  0  0
   35.7490   31.5430   40.0390 H   0  0  0  0  0  0  0  0  0  0  0  0
   36.7530   30.1600   41.6270 H   0  0  0  0  0  0  0  0  0  0  0  0
   36.8470   27.6230   43.4510 C   0  0  0  0  0  0  0  0  0  0  0  0
   37.0390   26.8430   42.2900 C   0  0  0  0  0  0  0  0  0  0  0  0
   38.0350   27.2450   41.3990 C   0  0  0  0  0  0  0  0  0  0  0  0
   38.7240   28.3510   41.7350 N   0  0  0  0  0  0  0  0  0  0  0  0
   38.5130   29.0900   42.8710 C   0  0  0  0  0  0  0  0  0  0  0  0
   37.6000   28.6720   43.6340 N   0  0  0  0  0  0  0  0  0  0  0  0
   36.0870   27.3650   44.1880 H   0  0  0  0  0  0  0  0  0  0  0  0
   36.3930   25.9790   42.1770 H   0  0  0  0  0  0  0  0  0  0  0  0
   38.2690   26.2630   39.9520 S   0  0  0  0  0  0  0  0  0  0  0  0
   37.9220   27.3110   38.5320 C   0  0  0  0  0  0  0  0  0  0  0  0
   36.9670   28.3140   38.5990 C   0  0  0  0  0  0  0  0  0  0  0  0
   36.4190   28.4690   39.5310 H   0  0  0  0  0  0  0  0  0  0  0  0
   36.6770   29.1370   37.5240 C   0  0  0  0  0  0  0  0  0  0  0  0
   35.9400   29.9270   37.5450 H   0  0  0  0  0  0  0  0  0  0  0  0
   37.3650   28.9430   36.3580 C   0  0  0  0  0  3  0  0  0  0  0  0
   38.3180   27.9450   36.2820 C   0  0  0  0  0  3  0  0  0  0  0  0
   38.5580   27.1760   37.3590 N   0  0  0  0  0  0  0  0  0  0  0  0
  1 11  1  6  0  0  0
  1  2  1  0  0  0  0
  1 24  1  0  0  0  0
  2 12  1  1  0  0  0
  3  2  1  0  0  0  0
  3 13  1  0  0  0  0
  4  3  1  0  0  0  0
  5  6  1  1  0  0  0
  5  4  1  0  0  0  0
  5 10  1  0  0  0  0
  7  6  2  0  0  0  0
  7  8  1  0  0  0  0
  8  9  2  0  0  0  0
  9 19  1  0  0  0  0
 10  9  1  1  0  0  0
 10  1  1  0  0  0  0
 10  2  1  0  0  0  0
 14  3  1  0  0  0  0
 15  4  1  0  0  0  0
 16  6  1  0  0  0  0
 17  7  1  0  0  0  0
 18  8  1  0  0  0  0
 20 25  1  0  0  0  0
 20 26  1  0  0  0  0
 21 20  2  0  0  0  0
 22 23  2  0  0  0  0
 22 21  1  0  0  0  0
 23 24  1  0  0  0  0
 24 25  2  0  0  0  0
 27 21  1  0  0  0  0
 28 22  1  0  0  0  0
 29 30  1  0  0  0  0
 29 28  1  0  0  0  0
 30 31  1  0  0  0  0
 32 33  1  0  0  0  0
 32 30  2  0  0  0  0
 34 32  1  0  0  0  0
 35 34  2  0  0  0  0
 35 36  1  0  0  0  0
 36 29  2  0  0  0  0
M  END
>  <minimizedAffinity>
-5.53198528

$$$$
