
 OpenBabel03252508593D

 44 46  0  0  1  0  0  0  0  0999 V2000
   46.6260   34.5350   43.6270 N   0  0  0  0  0  0  0  0  0  0  0  0
   46.1180   35.4940   42.7180 C   0  0  0  0  0  0  0  0  0  0  0  0
   44.6110   35.6520   42.7140 C   0  0  0  0  0  0  0  0  0  0  0  0
   43.9740   35.4460   44.0610 C   0  0  0  0  0  0  0  0  0  0  0  0
   44.9920   35.1850   45.1420 C   0  0  0  0  0  0  0  0  0  0  0  0
   45.8050   33.9650   44.5850 C   0  0  2  0  0  0  0  0  0  0  0  0
   46.5220   36.4920   43.0390 H   0  0  0  0  0  0  0  0  0  0  0  0
   46.4170   35.3860   41.6750 H   0  0  0  0  0  0  0  0  0  0  0  0
   44.2240   34.8720   42.0140 H   0  0  0  0  0  0  0  0  0  0  0  0
   44.4070   36.6430   42.2660 H   0  0  0  0  0  0  0  0  0  0  0  0
   43.2330   34.6430   44.0700 H   0  0  0  0  0  0  0  0  0  0  0  0
   43.5050   36.4300   44.3280 H   0  0  0  0  0  0  0  0  0  0  0  0
   44.4480   34.7920   46.0360 H   0  0  0  0  0  0  0  0  0  0  0  0
   45.6650   36.0220   45.3520 H   0  0  0  0  0  0  0  0  0  0  0  0
   45.0210   33.2560   44.2740 H   0  0  0  0  0  0  0  0  0  0  0  0
   47.7170   33.7470   43.1120 C   0  0  0  0  0  0  0  0  0  0  0  0
   48.4250   34.4380   42.6110 H   0  0  0  0  0  0  0  0  0  0  0  0
   48.2600   33.2990   43.9910 H   0  0  0  0  0  0  0  0  0  0  0  0
   47.1800   32.6660   42.2420 C   0  0  0  0  0  0  0  0  0  0  0  0
   47.3840   31.6540   42.6350 H   0  0  0  0  0  0  0  0  0  0  0  0
   46.0630   32.7390   42.1700 H   0  0  0  0  0  0  0  0  0  0  0  0
   49.3100   32.1210   39.1930 C   0  0  0  0  0  0  0  0  0  0  0  0
   48.7850   31.9870   40.4990 C   0  0  0  0  0  0  0  0  0  0  0  0
   47.7390   32.7970   40.8740 C   0  0  0  0  0  0  0  0  0  0  0  0
   47.2650   33.6780   39.9790 N   0  0  0  0  0  0  0  0  0  0  0  0
   47.7780   33.7910   38.7370 C   0  0  0  0  0  0  0  0  0  0  0  0
   48.7940   33.0220   38.3370 N   0  0  0  0  0  0  0  0  0  0  0  0
   50.1260   31.4460   38.9910 H   0  0  0  0  0  0  0  0  0  0  0  0
   49.1760   31.2740   41.2130 H   0  0  0  0  0  0  0  0  0  0  0  0
   47.4130   34.4940   37.9980 H   0  0  0  0  0  0  0  0  0  0  0  0
   46.5210   33.5670   45.7080 O   0  0  0  0  0  0  0  0  0  0  0  0
   45.5930   31.1780   45.0170 O   0  0  0  0  0  0  0  0  0  0  0  0
   46.1710   31.9790   46.1800 P   0  0  2  0  0  0  0  0  0  0  0  0
   44.9400   32.0830   47.3490 O   0  0  0  0  0  0  0  0  0  0  0  0
   45.1640   32.8270   47.9520 H   0  0  0  0  0  0  0  0  0  0  0  0
   47.4950   31.2440   46.8780 O   0  0  0  0  0  0  0  0  0  0  0  0
   47.8370   29.9220   46.8740 C   0  0  0  0  0  0  0  0  0  0  0  0
   49.0150   29.3760   46.4270 C   0  0  0  0  0  0  0  0  0  0  0  0
   49.7560   30.0600   46.0350 H   0  0  0  0  0  0  0  0  0  0  0  0
   49.2950   28.0260   46.4530 C   0  0  0  0  0  0  0  0  0  0  0  0
   50.2280   27.6150   46.0960 H   0  0  0  0  0  0  0  0  0  0  0  0
   48.3430   27.1350   46.9590 C   0  0  0  0  0  3  0  0  0  0  0  0
   47.1850   27.7560   47.3900 C   0  0  0  0  0  3  0  0  0  0  0  0
   46.9010   29.0620   47.3700 N   0  0  0  0  0  0  0  0  0  0  0  0
  1  6  1  0  0  0  0
  2  7  1  0  0  0  0
  2  1  1  0  0  0  0
  3  2  1  0  0  0  0
  3  4  1  0  0  0  0
  4 11  1  0  0  0  0
  4 12  1  0  0  0  0
  4  5  1  0  0  0  0
  5 14  1  0  0  0  0
  5 13  1  0  0  0  0
  6 15  1  6  0  0  0
  6  5  1  0  0  0  0
  6 31  1  0  0  0  0
  8  2  1  0  0  0  0
  9  3  1  0  0  0  0
 10  3  1  0  0  0  0
 16  1  1  0  0  0  0
 16 18  1  0  0  0  0
 17 16  1  0  0  0  0
 19 20  1  0  0  0  0
 19 16  1  0  0  0  0
 21 19  1  0  0  0  0
 22 23  1  0  0  0  0
 23 24  2  0  0  0  0
 23 29  1  0  0  0  0
 24 19  1  0  0  0  0
 25 24  1  0  0  0  0
 26 25  2  0  0  0  0
 27 26  1  0  0  0  0
 27 22  2  0  0  0  0
 28 22  1  0  0  0  0
 30 26  1  0  0  0  0
 31 33  1  0  0  0  0
 33 32  2  6  0  0  0
 33 36  1  0  0  0  0
 33 34  1  0  0  0  0
 34 35  1  0  0  0  0
 37 36  1  0  0  0  0
 37 44  1  0  0  0  0
 38 40  1  0  0  0  0
 38 37  2  0  0  0  0
 39 38  1  0  0  0  0
 40 42  2  0  0  0  0
 41 40  1  0  0  0  0
 42 43  1  0  0  0  0
 44 43  2  0  0  0  0
M  END
>  <minimizedAffinity>
-4.30419874

>  <minimizedRMSD>
1.29696429

$$$$
