
 OpenBabel03252508593D

 44 46  0  0  1  0  0  0  0  0999 V2000
   46.5890   34.5500   43.6020 N   0  0  0  0  0  0  0  0  0  0  0  0
   46.0780   35.4910   42.6760 C   0  0  0  0  0  0  0  0  0  0  0  0
   44.5700   35.6430   42.6680 C   0  0  0  0  0  0  0  0  0  0  0  0
   43.9330   35.4600   44.0180 C   0  0  0  0  0  0  0  0  0  0  0  0
   44.9510   35.2220   45.1040 C   0  0  0  0  0  0  0  0  0  0  0  0
   45.7690   33.9950   44.5700 C   0  0  2  0  0  0  0  0  0  0  0  0
   46.4770   36.4970   42.9790 H   0  0  0  0  0  0  0  0  0  0  0  0
   46.3780   35.3660   41.6350 H   0  0  0  0  0  0  0  0  0  0  0  0
   44.1860   34.8490   41.9820 H   0  0  0  0  0  0  0  0  0  0  0  0
   44.3630   36.6260   42.2010 H   0  0  0  0  0  0  0  0  0  0  0  0
   43.1950   34.6530   44.0410 H   0  0  0  0  0  0  0  0  0  0  0  0
   43.4600   36.4470   44.2670 H   0  0  0  0  0  0  0  0  0  0  0  0
   44.4080   34.8430   46.0050 H   0  0  0  0  0  0  0  0  0  0  0  0
   45.6210   36.0650   45.2990 H   0  0  0  0  0  0  0  0  0  0  0  0
   44.9880   33.2780   44.2720 H   0  0  0  0  0  0  0  0  0  0  0  0
   47.6830   33.7580   43.1020 C   0  0  0  0  0  0  0  0  0  0  0  0
   48.4010   34.4460   42.6110 H   0  0  0  0  0  0  0  0  0  0  0  0
   48.2130   33.3080   43.9880 H   0  0  0  0  0  0  0  0  0  0  0  0
   47.1530   32.6790   42.2260 C   0  0  0  0  0  0  0  0  0  0  0  0
   47.3510   31.6660   42.6190 H   0  0  0  0  0  0  0  0  0  0  0  0
   46.0380   32.7540   42.1420 H   0  0  0  0  0  0  0  0  0  0  0  0
   49.3100   32.1300   39.1960 C   0  0  0  0  0  0  0  0  0  0  0  0
   48.7720   31.9950   40.4970 C   0  0  0  0  0  0  0  0  0  0  0  0
   47.7270   32.8100   40.8640 C   0  0  0  0  0  0  0  0  0  0  0  0
   47.2660   33.6960   39.9660 N   0  0  0  0  0  0  0  0  0  0  0  0
   47.7920   33.8100   38.7300 C   0  0  0  0  0  0  0  0  0  0  0  0
   48.8080   33.0360   38.3380 N   0  0  0  0  0  0  0  0  0  0  0  0
   50.1240   31.4510   39.0010 H   0  0  0  0  0  0  0  0  0  0  0  0
   49.1520   31.2770   41.2120 H   0  0  0  0  0  0  0  0  0  0  0  0
   47.4390   34.5170   37.9890 H   0  0  0  0  0  0  0  0  0  0  0  0
   46.4860   33.6200   45.7010 O   0  0  0  0  0  0  0  0  0  0  0  0
   45.6780   31.1920   44.9950 O   0  0  0  0  0  0  0  0  0  0  0  0
   46.1780   32.0230   46.1730 P   0  0  2  0  0  0  0  0  0  0  0  0
   44.8970   32.0890   47.2910 O   0  0  0  0  0  0  0  0  0  0  0  0
   45.0690   32.8460   47.8950 H   0  0  0  0  0  0  0  0  0  0  0  0
   47.5000   31.3450   46.9300 O   0  0  0  0  0  0  0  0  0  0  0  0
   47.7570   30.0280   47.1770 C   0  0  0  0  0  0  0  0  0  0  0  0
   46.8560   28.9900   47.1420 C   0  0  0  0  0  0  0  0  0  0  0  0
   45.8340   29.2370   46.8910 H   0  0  0  0  0  0  0  0  0  0  0  0
   47.1870   27.6780   47.4030 C   0  0  0  0  0  0  0  0  0  0  0  0
   46.4650   26.8750   47.3700 H   0  0  0  0  0  0  0  0  0  0  0  0
   48.5080   27.3500   47.7270 C   0  0  0  0  0  3  0  0  0  0  0  0
   49.3550   28.4440   47.7440 C   0  0  0  0  0  3  0  0  0  0  0  0
   49.0480   29.7210   47.4930 N   0  0  0  0  0  0  0  0  0  0  0  0
  1  6  1  0  0  0  0
  2  7  1  0  0  0  0
  2  1  1  0  0  0  0
  3  2  1  0  0  0  0
  3  4  1  0  0  0  0
  4 11  1  0  0  0  0
  4 12  1  0  0  0  0
  4  5  1  0  0  0  0
  5 14  1  0  0  0  0
  5 13  1  0  0  0  0
  6 15  1  6  0  0  0
  6  5  1  0  0  0  0
  6 31  1  0  0  0  0
  8  2  1  0  0  0  0
  9  3  1  0  0  0  0
 10  3  1  0  0  0  0
 16  1  1  0  0  0  0
 16 18  1  0  0  0  0
 17 16  1  0  0  0  0
 19 20  1  0  0  0  0
 19 16  1  0  0  0  0
 21 19  1  0  0  0  0
 22 23  1  0  0  0  0
 23 24  2  0  0  0  0
 23 29  1  0  0  0  0
 24 19  1  0  0  0  0
 25 24  1  0  0  0  0
 26 25  2  0  0  0  0
 27 26  1  0  0  0  0
 27 22  2  0  0  0  0
 28 22  1  0  0  0  0
 30 26  1  0  0  0  0
 31 33  1  0  0  0  0
 33 32  2  6  0  0  0
 33 36  1  0  0  0  0
 33 34  1  0  0  0  0
 34 35  1  0  0  0  0
 36 37  1  0  0  0  0
 37 44  1  0  0  0  0
 38 37  2  0  0  0  0
 38 40  1  0  0  0  0
 39 38  1  0  0  0  0
 40 42  2  0  0  0  0
 41 40  1  0  0  0  0
 42 43  1  0  0  0  0
 44 43  2  0  0  0  0
M  END
>  <minimizedAffinity>
-4.38526106

>  <minimizedRMSD>
1.48858273

$$$$
