
 OpenBabel03252508593D

 44 46  0  0  1  0  0  0  0  0999 V2000
   46.6560   34.5420   43.5900 N   0  0  0  0  0  0  0  0  0  0  0  0
   46.1690   35.5620   42.7380 C   0  0  0  0  0  0  0  0  0  0  0  0
   44.6640   35.7420   42.7330 C   0  0  0  0  0  0  0  0  0  0  0  0
   44.0140   35.4660   44.0620 C   0  0  0  0  0  0  0  0  0  0  0  0
   45.0200   35.1250   45.1310 C   0  0  0  0  0  0  0  0  0  0  0  0
   45.8200   33.9280   44.5080 C   0  0  2  0  0  0  0  0  0  0  0  0
   46.5840   36.5330   43.1210 H   0  0  0  0  0  0  0  0  0  0  0  0
   46.4740   35.5120   41.6930 H   0  0  0  0  0  0  0  0  0  0  0  0
   44.2710   35.0110   41.9850 H   0  0  0  0  0  0  0  0  0  0  0  0
   44.4780   36.7620   42.3440 H   0  0  0  0  0  0  0  0  0  0  0  0
   43.2620   34.6740   44.0170 H   0  0  0  0  0  0  0  0  0  0  0  0
   43.5580   36.4390   44.3840 H   0  0  0  0  0  0  0  0  0  0  0  0
   44.4640   34.6880   45.9960 H   0  0  0  0  0  0  0  0  0  0  0  0
   45.7040   35.9380   45.3950 H   0  0  0  0  0  0  0  0  0  0  0  0
   45.0280   33.2510   44.1500 H   0  0  0  0  0  0  0  0  0  0  0  0
   47.7390   33.7710   43.0370 C   0  0  0  0  0  0  0  0  0  0  0  0
   48.4490   34.4790   42.5620 H   0  0  0  0  0  0  0  0  0  0  0  0
   48.2840   33.2820   43.8930 H   0  0  0  0  0  0  0  0  0  0  0  0
   47.1910   32.7310   42.1260 C   0  0  0  0  0  0  0  0  0  0  0  0
   47.3550   31.7030   42.4940 H   0  0  0  0  0  0  0  0  0  0  0  0
   46.0790   32.8400   42.0300 H   0  0  0  0  0  0  0  0  0  0  0  0
   49.2540   32.1000   39.0460 C   0  0  0  0  0  0  0  0  0  0  0  0
   48.6930   31.9460   40.3360 C   0  0  0  0  0  0  0  0  0  0  0  0
   47.7860   32.8820   40.7750 C   0  0  0  0  0  0  0  0  0  0  0  0
   47.4750   33.8990   39.9550 N   0  0  0  0  0  0  0  0  0  0  0  0
   48.0200   34.0290   38.7290 C   0  0  0  0  0  0  0  0  0  0  0  0
   48.9040   33.1410   38.2690 N   0  0  0  0  0  0  0  0  0  0  0  0
   49.9530   31.3210   38.7910 H   0  0  0  0  0  0  0  0  0  0  0  0
   48.9520   31.1220   40.9870 H   0  0  0  0  0  0  0  0  0  0  0  0
   47.7850   34.8410   38.0500 H   0  0  0  0  0  0  0  0  0  0  0  0
   46.5210   33.4530   45.6100 O   0  0  0  0  0  0  0  0  0  0  0  0
   45.6050   31.1260   44.7190 O   0  0  0  0  0  0  0  0  0  0  0  0
   46.1990   31.8240   45.9390 P   0  0  2  0  0  0  0  0  0  0  0  0
   44.9920   31.8020   47.1370 O   0  0  0  0  0  0  0  0  0  0  0  0
   45.2210   32.4900   47.8020 H   0  0  0  0  0  0  0  0  0  0  0  0
   47.5460   31.0450   46.5390 O   0  0  0  0  0  0  0  0  0  0  0  0
   47.6920   29.7290   46.8700 C   0  0  0  0  0  0  0  0  0  0  0  0
   48.8730   29.0410   47.0110 C   0  0  0  0  0  0  0  0  0  0  0  0
   49.7870   29.5940   46.8430 H   0  0  0  0  0  0  0  0  0  0  0  0
   48.9480   27.7060   47.3490 C   0  0  0  0  0  0  0  0  0  0  0  0
   49.8870   27.1810   47.4550 H   0  0  0  0  0  0  0  0  0  0  0  0
   47.7720   26.9830   47.5670 C   0  0  0  0  0  3  0  0  0  0  0  0
   46.6250   27.7400   47.4080 C   0  0  0  0  0  3  0  0  0  0  0  0
   46.5380   29.0340   47.0810 N   0  0  0  0  0  0  0  0  0  0  0  0
  1  6  1  0  0  0  0
  2  7  1  0  0  0  0
  2  1  1  0  0  0  0
  3  2  1  0  0  0  0
  3  4  1  0  0  0  0
  4 12  1  0  0  0  0
  4  5  1  0  0  0  0
  5 14  1  0  0  0  0
  5 13  1  0  0  0  0
  6 15  1  6  0  0  0
  6  5  1  0  0  0  0
  6 31  1  0  0  0  0
  8  2  1  0  0  0  0
  9  3  1  0  0  0  0
 10  3  1  0  0  0  0
 11  4  1  0  0  0  0
 16  1  1  0  0  0  0
 16 18  1  0  0  0  0
 17 16  1  0  0  0  0
 19 20  1  0  0  0  0
 19 16  1  0  0  0  0
 21 19  1  0  0  0  0
 22 23  1  0  0  0  0
 23 24  2  0  0  0  0
 23 29  1  0  0  0  0
 24 19  1  0  0  0  0
 25 24  1  0  0  0  0
 26 25  2  0  0  0  0
 27 26  1  0  0  0  0
 27 22  2  0  0  0  0
 28 22  1  0  0  0  0
 30 26  1  0  0  0  0
 31 33  1  0  0  0  0
 33 32  2  6  0  0  0
 33 36  1  0  0  0  0
 33 34  1  0  0  0  0
 34 35  1  0  0  0  0
 36 37  1  0  0  0  0
 37 38  2  0  0  0  0
 37 44  1  0  0  0  0
 38 40  1  0  0  0  0
 39 38  1  0  0  0  0
 40 41  1  0  0  0  0
 40 42  2  0  0  0  0
 43 42  1  0  0  0  0
 44 43  2  0  0  0  0
M  END
>  <minimizedAffinity>
-4.32385063

>  <minimizedRMSD>
1.2535013

$$$$
