
 OpenBabel03252509073D

 40 43  0  0  0  0  0  0  0  0999 V2000
   47.5790   31.7790   38.9750 C   0  0  0  0  0  0  0  0  0  0  0  0
   47.1570   33.0760   38.9730 C   0  0  0  0  0  0  0  0  0  0  0  0
   47.8070   34.0160   38.1910 C   0  0  0  0  0  0  0  0  0  0  0  0
   48.8770   33.6440   37.4130 C   0  0  0  0  0  0  0  0  0  0  0  0
   49.3420   32.3290   37.3840 C   0  0  0  0  0  0  0  0  0  0  0  0
   48.6650   31.4010   38.1850 C   0  0  0  0  0  0  0  0  0  0  0  0
   47.5060   35.0530   38.1600 H   0  0  0  0  0  0  0  0  0  0  0  0
   49.4580   34.2820   36.7670 H   0  0  0  0  0  0  0  0  0  0  0  0
   50.1620   31.9480   36.8130 H   0  0  0  0  0  0  0  0  0  0  0  0
   48.9980   30.3630   38.1910 H   0  0  0  0  0  0  0  0  0  0  0  0
   45.3860   35.4460   43.2040 Cl  0  0  0  0  0  0  0  0  0  0  0  0
   45.1990   34.6490   41.6600 C   0  0  0  0  0  0  0  0  0  0  0  0
   46.2780   34.2110   40.9620 C   0  0  0  0  0  0  0  0  0  0  0  0
   46.0260   33.5760   39.7550 C   0  0  0  0  0  0  0  0  0  0  0  0
   44.7510   33.3990   39.2790 C   0  0  0  0  0  0  0  0  0  0  0  0
   43.6860   33.8440   39.9910 C   0  0  0  0  0  0  0  0  0  0  0  0
   43.9210   34.4730   41.1880 C   0  0  0  0  0  0  0  0  0  0  0  0
   44.6130   32.8940   38.3220 H   0  0  0  0  0  0  0  0  0  0  0  0
   42.7040   33.6810   39.5760 H   0  0  0  0  0  0  0  0  0  0  0  0
   43.0490   34.8200   41.7410 H   0  0  0  0  0  0  0  0  0  0  0  0
   49.5820   35.7750   41.9010 C   0  0  0  0  0  0  0  0  0  0  0  0
   48.3030   35.5910   41.3690 C   0  0  0  0  0  0  0  0  0  0  0  0
   47.6040   34.4120   41.5110 C   0  0  0  0  0  0  0  0  0  0  0  0
   48.2680   33.4540   42.2090 N   0  0  0  0  0  0  0  0  0  0  0  0
   49.4870   33.6150   42.7210 C   0  0  0  0  0  0  0  0  0  0  0  0
   50.1350   34.7720   42.5650 N   0  0  0  0  0  0  0  0  0  0  0  0
   50.0660   36.7270   41.7490 H   0  0  0  0  0  0  0  0  0  0  0  0
   47.8110   36.3860   40.8190 H   0  0  0  0  0  0  0  0  0  0  0  0
   49.8510   32.7360   43.2460 H   0  0  0  0  0  0  0  0  0  0  0  0
   46.7810   30.6040   39.8760 S   0  0  0  0  0  0  0  0  0  0  0  0
   45.4920   30.1640   39.2130 O   0  0  0  0  0  0  0  0  0  0  0  0
   47.6930   29.3330   39.7300 O   0  0  0  0  0  0  0  0  0  0  0  0
   46.4070   30.6990   41.5480 C   0  0  0  0  0  0  0  0  0  0  0  0
   47.4170   30.2660   42.4520 C   0  0  0  0  0  0  0  0  0  0  0  0
   48.3750   29.8930   42.0310 H   0  0  0  0  0  0  0  0  0  0  0  0
   47.4310   30.2140   43.8520 C   0  0  0  0  0  0  0  0  0  0  0  0
   48.2760   29.8590   44.4000 H   0  0  0  0  0  0  0  0  0  0  0  0
   46.2550   30.6690   44.3890 C   0  0  0  0  0  3  0  0  0  0  0  0
   45.2490   31.0980   43.5760 C   0  0  0  0  0  3  0  0  0  0  0  0
   45.3470   31.1010   42.2590 N   0  0  0  0  0  0  0  0  0  0  0  0
  1 30  1  0  0  0  0
  2  1  1  0  0  0  0
  2 14  1  0  0  0  0
  3  2  2  0  0  0  0
  4  3  1  0  0  0  0
  5  4  2  0  0  0  0
  5  6  1  0  0  0  0
  6 10  1  0  0  0  0
  6  1  2  0  0  0  0
  7  3  1  0  0  0  0
  8  4  1  0  0  0  0
  9  5  1  0  0  0  0
 12 11  1  0  0  0  0
 13 23  1  0  0  0  0
 13 12  2  0  0  0  0
 14 13  1  0  0  0  0
 15 14  2  0  0  0  0
 15 16  1  0  0  0  0
 16 17  2  0  0  0  0
 17 12  1  0  0  0  0
 17 20  1  0  0  0  0
 18 15  1  0  0  0  0
 19 16  1  0  0  0  0
 21 26  1  0  0  0  0
 22 23  1  0  0  0  0
 22 21  2  0  0  0  0
 23 24  2  0  0  0  0
 24 25  1  0  0  0  0
 25 29  1  0  0  0  0
 26 25  2  0  0  0  0
 27 21  1  0  0  0  0
 28 22  1  0  0  0  0
 30 33  1  0  0  0  0
 31 30  2  0  0  0  0
 32 30  2  0  0  0  0
 33 40  2  0  0  0  0
 33 34  1  0  0  0  0
 34 36  2  0  0  0  0
 35 34  1  0  0  0  0
 36 38  1  0  0  0  0
 36 37  1  0  0  0  0
 39 38  2  0  0  0  0
 40 39  1  0  0  0  0
M  END
>  <minimizedAffinity>
-4.80559206

>  <minimizedRMSD>
1.02906477

$$$$
