
 OpenBabel03242512163D

 32 34  0  0  0  0  0  0  0  0999 V2000
   48.4990   33.1530   41.3400 C   0  0  0  0  0  0  0  0  0  0  0  0
   48.0410   34.3470   41.8580 C   0  0  0  0  0  0  0  0  0  0  0  0
   48.9190   35.1700   42.5380 C   0  0  0  0  0  0  0  0  0  0  0  0
   50.2380   34.7540   42.6720 C   0  0  0  0  0  0  0  0  0  0  0  0
   50.6390   33.5680   42.1420 C   0  0  0  0  0  0  0  0  0  0  0  0
   49.7940   32.7110   41.4510 C   0  0  0  0  0  0  0  0  0  0  0  0
   48.5210   36.0890   42.9250 H   0  0  0  0  0  0  0  0  0  0  0  0
   50.8430   35.4630   43.2170 H   0  0  0  0  0  0  0  0  0  0  0  0
   51.6850   33.4100   42.3410 H   0  0  0  0  0  0  0  0  0  0  0  0
   46.6020   34.6390   41.6220 C   0  0  0  0  0  0  0  0  0  0  0  0
   46.5950   35.6160   41.0560 H   0  0  0  0  0  0  0  0  0  0  0  0
   46.1210   33.9100   40.9970 H   0  0  0  0  0  0  0  0  0  0  0  0
   45.9160   34.8910   42.9360 C   0  0  0  0  0  0  0  0  0  0  0  0
   45.9840   33.8750   43.8980 C   0  0  0  0  0  0  0  0  0  0  0  0
   45.3620   34.0900   45.1210 C   0  0  0  0  0  0  0  0  0  0  0  0
   44.7240   35.2710   45.3110 N   0  0  0  0  0  0  0  0  0  0  0  0
   44.6750   36.2470   44.3470 C   0  0  0  0  0  0  0  0  0  0  0  0
   45.2730   36.0520   43.1590 N   0  0  0  0  0  0  0  0  0  0  0  0
   46.4930   32.9360   43.7440 H   0  0  0  0  0  0  0  0  0  0  0  0
   45.3820   33.3440   45.9000 H   0  0  0  0  0  0  0  0  0  0  0  0
   44.1340   37.1530   44.6150 H   0  0  0  0  0  0  0  0  0  0  0  0
   47.6620   32.2590   40.6310 O   0  0  0  0  0  0  0  0  0  0  0  0
   47.5400   32.4420   39.6360 H   0  0  0  0  0  0  0  0  0  0  0  0
   50.2670   31.5290   40.9390 O   0  0  0  0  0  0  0  0  0  0  0  0
   51.3150   31.4290   40.0820 C   0  0  0  0  0  0  0  0  0  0  0  0
   50.7730   31.5350   38.7910 C   0  0  0  0  0  0  0  0  0  0  0  0
   49.7480   31.6690   38.4560 H   0  0  0  0  0  0  0  0  0  0  0  0
   51.5670   31.4760   37.6360 C   0  0  0  0  0  0  0  0  0  0  0  0
   51.2680   31.5440   36.6150 H   0  0  0  0  0  0  0  0  0  0  0  0
   52.9410   31.3050   37.7910 C   0  0  0  0  0  0  0  0  0  0  0  0
   53.4540   31.2040   39.0640 C   0  0  0  0  0  0  0  0  0  0  0  0
   52.6390   31.2690   40.1210 N   0  0  0  0  0  0  0  0  0  0  0  0
  1  6  2  0  0  0  0
  1  2  1  0  0  0  0
  2  3  2  0  0  0  0
  3  4  1  0  0  0  0
  3  7  1  0  0  0  0
  4  8  1  0  0  0  0
  5  9  1  0  0  0  0
  5  4  2  0  0  0  0
  6  5  1  0  0  0  0
 10  2  1  0  0  0  0
 10 13  1  0  0  0  0
 11 10  1  0  0  0  0
 12 10  1  0  0  0  0
 13 18  2  0  0  0  0
 13 14  1  0  0  0  0
 14 15  2  0  0  0  0
 15 16  1  0  0  0  0
 15 20  1  0  0  0  0
 17 21  1  0  0  0  0
 17 16  2  0  0  0  0
 18 17  1  0  0  0  0
 19 14  1  0  0  0  0
 22  1  1  0  0  0  0
 23 22  1  0  0  0  0
 24  6  1  0  0  0  0
 25 32  1  0  0  0  0
 25 24  1  0  0  0  0
 26 25  2  0  0  0  0
 27 26  1  0  0  0  0
 28 30  2  0  0  0  0
 28 26  1  0  0  0  0
 29 28  1  0  0  0  0
 30 31  1  0  0  0  0
 31 32  2  0  0  0  0
M  END
>  <minimizedAffinity>
-5.41867971

>  <minimizedRMSD>
1.61120987

$$$$
