
 OpenBabel03252509083D

 40 43  0  0  0  0  0  0  0  0999 V2000
   47.6960   31.8740   39.0570 C   0  0  0  0  0  0  0  0  0  0  0  0
   47.1840   33.1340   38.9590 C   0  0  0  0  0  0  0  0  0  0  0  0
   47.7500   34.0460   38.0850 C   0  0  0  0  0  0  0  0  0  0  0  0
   48.8280   33.6850   37.3130 C   0  0  0  0  0  0  0  0  0  0  0  0
   49.3840   32.4070   37.3810 C   0  0  0  0  0  0  0  0  0  0  0  0
   48.7910   31.5060   38.2740 C   0  0  0  0  0  0  0  0  0  0  0  0
   47.3760   35.0540   37.9760 H   0  0  0  0  0  0  0  0  0  0  0  0
   49.3500   34.3040   36.6020 H   0  0  0  0  0  0  0  0  0  0  0  0
   50.2170   32.0360   36.8230 H   0  0  0  0  0  0  0  0  0  0  0  0
   49.1960   30.4970   38.3570 H   0  0  0  0  0  0  0  0  0  0  0  0
   45.3230   35.4310   43.1910 Cl  0  0  0  0  0  0  0  0  0  0  0  0
   45.1690   34.6590   41.6310 C   0  0  0  0  0  0  0  0  0  0  0  0
   46.2620   34.2340   40.9480 C   0  0  0  0  0  0  0  0  0  0  0  0
   46.0360   33.6200   39.7260 C   0  0  0  0  0  0  0  0  0  0  0  0
   44.7720   33.4490   39.2210 C   0  0  0  0  0  0  0  0  0  0  0  0
   43.6920   33.8810   39.9180 C   0  0  0  0  0  0  0  0  0  0  0  0
   43.9010   34.4900   41.1300 C   0  0  0  0  0  0  0  0  0  0  0  0
   44.6540   32.9600   38.2530 H   0  0  0  0  0  0  0  0  0  0  0  0
   42.7190   33.7240   39.4810 H   0  0  0  0  0  0  0  0  0  0  0  0
   43.0180   34.8270   41.6700 H   0  0  0  0  0  0  0  0  0  0  0  0
   49.5920   35.7440   41.8870 C   0  0  0  0  0  0  0  0  0  0  0  0
   48.3250   35.5680   41.3250 C   0  0  0  0  0  0  0  0  0  0  0  0
   47.5770   34.4280   41.5280 C   0  0  0  0  0  0  0  0  0  0  0  0
   48.1810   33.5010   42.3170 N   0  0  0  0  0  0  0  0  0  0  0  0
   49.3870   33.6560   42.8590 C   0  0  0  0  0  0  0  0  0  0  0  0
   50.0840   34.7740   42.6420 N   0  0  0  0  0  0  0  0  0  0  0  0
   50.1170   36.6640   41.6830 H   0  0  0  0  0  0  0  0  0  0  0  0
   47.8820   36.3370   40.7010 H   0  0  0  0  0  0  0  0  0  0  0  0
   49.7000   32.8050   43.4580 H   0  0  0  0  0  0  0  0  0  0  0  0
   47.0010   30.7270   40.0740 S   0  0  0  0  0  0  0  0  0  0  0  0
   47.3860   29.3170   39.6780 O   0  0  0  0  0  0  0  0  0  0  0  0
   47.7610   30.9200   41.4350 O   0  0  0  0  0  0  0  0  0  0  0  0
   45.3410   30.6300   40.4950 C   0  0  0  0  0  0  0  0  0  0  0  0
   45.0040   30.9550   41.8380 C   0  0  0  0  0  0  0  0  0  0  0  0
   45.8240   31.2480   42.5300 H   0  0  0  0  0  0  0  0  0  0  0  0
   43.7670   30.9770   42.4930 C   0  0  0  0  0  0  0  0  0  0  0  0
   43.6700   31.2460   43.5220 H   0  0  0  0  0  0  0  0  0  0  0  0
   42.7420   30.6160   41.6550 C   0  0  0  0  0  3  0  0  0  0  0  0
   43.0000   30.2930   40.3570 C   0  0  0  0  0  3  0  0  0  0  0  0
   44.2170   30.3080   39.8440 N   0  0  0  0  0  0  0  0  0  0  0  0
  1 30  1  0  0  0  0
  2  1  1  0  0  0  0
  2 14  1  0  0  0  0
  3  2  2  0  0  0  0
  4  5  2  0  0  0  0
  4  3  1  0  0  0  0
  5  6  1  0  0  0  0
  6 10  1  0  0  0  0
  6  1  2  0  0  0  0
  7  3  1  0  0  0  0
  8  4  1  0  0  0  0
  9  5  1  0  0  0  0
 12 11  1  0  0  0  0
 13 23  1  0  0  0  0
 13 12  2  0  0  0  0
 14 13  1  0  0  0  0
 15 14  2  0  0  0  0
 15 16  1  0  0  0  0
 16 17  2  0  0  0  0
 17 12  1  0  0  0  0
 17 20  1  0  0  0  0
 18 15  1  0  0  0  0
 19 16  1  0  0  0  0
 21 26  1  0  0  0  0
 22 23  1  0  0  0  0
 22 21  2  0  0  0  0
 23 24  2  0  0  0  0
 24 25  1  0  0  0  0
 25 29  1  0  0  0  0
 26 25  2  0  0  0  0
 27 21  1  0  0  0  0
 28 22  1  0  0  0  0
 30 33  1  0  0  0  0
 30 32  2  0  0  0  0
 31 30  2  0  0  0  0
 33 34  1  0  0  0  0
 34 36  2  0  0  0  0
 34 35  1  0  0  0  0
 36 37  1  0  0  0  0
 38 36  1  0  0  0  0
 39 38  2  0  0  0  0
 40 39  1  0  0  0  0
 40 33  2  0  0  0  0
M  END
>  <minimizedAffinity>
-4.70804548

>  <minimizedRMSD>
0.872325003

$$$$
