
 OpenBabel03252509083D

 40 43  0  0  0  0  0  0  0  0999 V2000
   47.5780   31.7780   38.9750 C   0  0  0  0  0  0  0  0  0  0  0  0
   47.1570   33.0760   38.9740 C   0  0  0  0  0  0  0  0  0  0  0  0
   47.8080   34.0150   38.1910 C   0  0  0  0  0  0  0  0  0  0  0  0
   48.8780   33.6430   37.4130 C   0  0  0  0  0  0  0  0  0  0  0  0
   49.3420   32.3280   37.3840 C   0  0  0  0  0  0  0  0  0  0  0  0
   48.6650   31.4000   38.1860 C   0  0  0  0  0  0  0  0  0  0  0  0
   47.5070   35.0520   38.1600 H   0  0  0  0  0  0  0  0  0  0  0  0
   49.4590   34.2800   36.7680 H   0  0  0  0  0  0  0  0  0  0  0  0
   50.1620   31.9460   36.8140 H   0  0  0  0  0  0  0  0  0  0  0  0
   48.9970   30.3610   38.1920 H   0  0  0  0  0  0  0  0  0  0  0  0
   45.3870   35.4470   43.2040 Cl  0  0  0  0  0  0  0  0  0  0  0  0
   45.1990   34.6490   41.6600 C   0  0  0  0  0  0  0  0  0  0  0  0
   46.2780   34.2110   40.9620 C   0  0  0  0  0  0  0  0  0  0  0  0
   46.0260   33.5760   39.7560 C   0  0  0  0  0  0  0  0  0  0  0  0
   44.7510   33.3990   39.2790 C   0  0  0  0  0  0  0  0  0  0  0  0
   43.6860   33.8450   39.9910 C   0  0  0  0  0  0  0  0  0  0  0  0
   43.9210   34.4730   41.1880 C   0  0  0  0  0  0  0  0  0  0  0  0
   44.6130   32.8940   38.3220 H   0  0  0  0  0  0  0  0  0  0  0  0
   42.7040   33.6820   39.5770 H   0  0  0  0  0  0  0  0  0  0  0  0
   43.0490   34.8210   41.7410 H   0  0  0  0  0  0  0  0  0  0  0  0
   49.5820   35.7750   41.9020 C   0  0  0  0  0  0  0  0  0  0  0  0
   48.3030   35.5920   41.3700 C   0  0  0  0  0  0  0  0  0  0  0  0
   47.6050   34.4120   41.5120 C   0  0  0  0  0  0  0  0  0  0  0  0
   48.2690   33.4530   42.2090 N   0  0  0  0  0  0  0  0  0  0  0  0
   49.4870   33.6150   42.7210 C   0  0  0  0  0  0  0  0  0  0  0  0
   50.1360   34.7720   42.5650 N   0  0  0  0  0  0  0  0  0  0  0  0
   50.0660   36.7270   41.7500 H   0  0  0  0  0  0  0  0  0  0  0  0
   47.8110   36.3870   40.8210 H   0  0  0  0  0  0  0  0  0  0  0  0
   49.8520   32.7350   43.2450 H   0  0  0  0  0  0  0  0  0  0  0  0
   46.7790   30.6030   39.8770 S   0  0  0  0  0  0  0  0  0  0  0  0
   45.4910   30.1640   39.2140 O   0  0  0  0  0  0  0  0  0  0  0  0
   47.6910   29.3320   39.7310 O   0  0  0  0  0  0  0  0  0  0  0  0
   46.4070   30.6990   41.5480 C   0  0  0  0  0  0  0  0  0  0  0  0
   47.4170   30.2660   42.4520 C   0  0  0  0  0  0  0  0  0  0  0  0
   48.3750   29.8920   42.0310 H   0  0  0  0  0  0  0  0  0  0  0  0
   47.4320   30.2150   43.8520 C   0  0  0  0  0  0  0  0  0  0  0  0
   48.2770   29.8590   44.4010 H   0  0  0  0  0  0  0  0  0  0  0  0
   46.2560   30.6690   44.3900 C   0  0  0  0  0  3  0  0  0  0  0  0
   45.2500   31.0980   43.5770 C   0  0  0  0  0  3  0  0  0  0  0  0
   45.3470   31.1010   42.2600 N   0  0  0  0  0  0  0  0  0  0  0  0
  1 30  1  0  0  0  0
  2  1  1  0  0  0  0
  2 14  1  0  0  0  0
  3  2  2  0  0  0  0
  4  3  1  0  0  0  0
  5  4  2  0  0  0  0
  5  6  1  0  0  0  0
  6 10  1  0  0  0  0
  6  1  2  0  0  0  0
  7  3  1  0  0  0  0
  8  4  1  0  0  0  0
  9  5  1  0  0  0  0
 12 11  1  0  0  0  0
 13 23  1  0  0  0  0
 13 12  2  0  0  0  0
 14 13  1  0  0  0  0
 15 14  2  0  0  0  0
 15 16  1  0  0  0  0
 16 17  2  0  0  0  0
 17 12  1  0  0  0  0
 17 20  1  0  0  0  0
 18 15  1  0  0  0  0
 19 16  1  0  0  0  0
 21 26  1  0  0  0  0
 22 23  1  0  0  0  0
 22 21  2  0  0  0  0
 23 24  2  0  0  0  0
 24 25  1  0  0  0  0
 25 29  1  0  0  0  0
 26 25  2  0  0  0  0
 27 21  1  0  0  0  0
 28 22  1  0  0  0  0
 30 33  1  0  0  0  0
 31 30  2  0  0  0  0
 32 30  2  0  0  0  0
 33 40  2  0  0  0  0
 33 34  1  0  0  0  0
 34 36  2  0  0  0  0
 35 34  1  0  0  0  0
 36 38  1  0  0  0  0
 36 37  1  0  0  0  0
 39 38  2  0  0  0  0
 40 39  1  0  0  0  0
M  END
>  <minimizedAffinity>
-4.80334282

>  <minimizedRMSD>
1.14338279

$$$$
