
 OpenBabel03252507543D

 43 46  0  0  1  0  0  0  0  0999 V2000
   47.1150   34.7950   42.0890 C   0  0  2  0  0  0  0  0  0  0  0  0
   46.3480   34.3210   40.8570 C   0  0  0  0  0  0  0  0  0  0  0  0
   47.5540   34.1660   39.9040 C   0  0  0  0  0  0  0  0  0  0  0  0
   48.6670   33.6660   40.7720 C   0  0  1  0  0  0  0  0  0  0  0  0
   48.1470   33.7070   42.1770 C   0  0  0  0  0  0  0  0  0  0  0  0
   47.5990   35.7560   41.8300 H   0  0  0  0  0  0  0  0  0  0  0  0
   45.8670   33.3620   41.0410 H   0  0  0  0  0  0  0  0  0  0  0  0
   45.6670   35.1100   40.4750 H   0  0  0  0  0  0  0  0  0  0  0  0
   47.2980   33.5140   39.0500 H   0  0  0  0  0  0  0  0  0  0  0  0
   47.7820   35.2090   39.5890 H   0  0  0  0  0  0  0  0  0  0  0  0
   49.5770   34.2970   40.6530 H   0  0  0  0  0  0  0  0  0  0  0  0
   48.9770   34.0780   42.8170 H   0  0  0  0  0  0  0  0  0  0  0  0
   47.7360   32.7580   42.5190 H   0  0  0  0  0  0  0  0  0  0  0  0
   44.5420   35.8040   44.6450 C   0  0  0  0  0  0  0  0  0  0  0  0
   45.2730   35.8400   43.4470 C   0  0  0  0  0  0  0  0  0  0  0  0
   46.2450   34.8620   43.2870 C   0  0  0  0  0  0  0  0  0  0  0  0
   46.4660   33.9000   44.2820 N   0  0  0  0  0  0  0  0  0  0  0  0
   45.7230   33.9220   45.4180 C   0  0  0  0  0  0  0  0  0  0  0  0
   44.7710   34.8650   45.5960 N   0  0  0  0  0  0  0  0  0  0  0  0
   43.7740   36.5510   44.8050 H   0  0  0  0  0  0  0  0  0  0  0  0
   45.1120   36.5740   42.6750 H   0  0  0  0  0  0  0  0  0  0  0  0
   45.9890   33.1310   46.1040 H   0  0  0  0  0  0  0  0  0  0  0  0
   49.0870   32.2430   40.4870 C   0  0  2  0  0  0  0  0  0  0  0  0
   49.8640   31.5860   41.5320 C   0  0  0  0  0  0  0  0  0  0  0  0
   50.4800   31.8910   40.2070 C   0  0  1  0  0  0  0  0  0  0  0  0
   48.3060   31.6570   39.9730 H   0  0  0  0  0  0  0  0  0  0  0  0
   49.6200   30.5260   41.7730 H   0  0  0  0  0  0  0  0  0  0  0  0
   50.2490   32.1270   42.4180 H   0  0  0  0  0  0  0  0  0  0  0  0
   51.1920   32.7160   40.0740 H   0  0  0  0  0  0  0  0  0  0  0  0
   50.7100   30.8060   39.3260 O   0  0  0  0  0  0  0  0  0  0  0  0
   51.4030   30.3400   36.8560 O   0  0  0  0  0  0  0  0  0  0  0  0
   51.4030   31.4120   37.9180 P   0  0  1  0  0  0  0  0  0  0  0  0
   50.4740   32.7230   37.3230 O   0  0  0  0  0  0  0  0  0  0  0  0
   51.0270   33.4650   37.0090 H   0  0  0  0  0  0  0  0  0  0  0  0
   52.9590   31.9610   38.1030 O   0  0  0  0  0  0  0  0  0  0  0  0
   54.0320   31.0830   38.1440 C   0  0  0  0  0  0  0  0  0  0  0  0
   55.0310   30.8650   37.2200 C   0  0  0  0  0  0  0  0  0  0  0  0
   54.9390   31.4820   36.3500 H   0  0  0  0  0  0  0  0  0  0  0  0
   56.0000   29.9240   37.4940 C   0  0  0  0  0  0  0  0  0  0  0  0
   56.7670   29.7900   36.7320 H   0  0  0  0  0  0  0  0  0  0  0  0
   55.9870   29.1990   38.6710 C   0  0  0  0  0  0  0  0  0  0  0  0
   54.9710   29.4450   39.5720 C   0  0  0  0  0  0  0  0  0  0  0  0
   54.0180   30.3760   39.2950 N   0  0  0  0  0  0  0  0  0  0  0  0
  1  6  1  6  0  0  0
  1  5  1  0  0  0  0
  1 16  1  0  0  0  0
  2  7  1  0  0  0  0
  2  1  1  0  0  0  0
  3  4  1  0  0  0  0
  3  2  1  0  0  0  0
  4 11  1  6  0  0  0
  4  5  1  0  0  0  0
  5 13  1  0  0  0  0
  5 12  1  0  0  0  0
  8  2  1  0  0  0  0
  9  3  1  0  0  0  0
 10  3  1  0  0  0  0
 14 20  1  0  0  0  0
 14 19  1  0  0  0  0
 15 14  2  0  0  0  0
 16 15  1  0  0  0  0
 16 17  2  0  0  0  0
 17 18  1  0  0  0  0
 18 19  2  0  0  0  0
 18 22  1  0  0  0  0
 21 15  1  0  0  0  0
 23 26  1  6  0  0  0
 23  4  1  0  0  0  0
 23 24  1  0  0  0  0
 24 27  1  0  0  0  0
 24 28  1  0  0  0  0
 25 29  1  6  0  0  0
 25 23  1  0  0  0  0
 25 24  1  0  0  0  0
 30 25  1  0  0  0  0
 32 31  2  6  0  0  0
 32 35  1  0  0  0  0
 32 30  1  0  0  0  0
 33 32  1  0  0  0  0
 34 33  1  0  0  0  0
 35 36  1  0  0  0  0
 36 43  1  0  0  0  0
 37 39  1  0  0  0  0
 37 36  2  0  0  0  0
 38 37  1  0  0  0  0
 39 41  2  0  0  0  0
 40 39  1  0  0  0  0
 41 42  1  0  0  0  0
 43 42  2  0  0  0  0
M  END
>  <minimizedAffinity>
-5.59716558

>  <minimizedRMSD>
1.39585125

$$$$
