
 OpenBabel03252504473D

 26 27  0  0  0  0  0  0  0  0999 V2000
   36.9230   28.4990   42.5980 O   0  0  0  0  0  0  0  0  0  0  0  0
   38.0700   25.0970   42.1130 C   0  0  0  0  0  0  0  0  0  0  0  0
   39.2210   25.0870   42.8870 C   0  0  0  0  0  0  0  0  0  0  0  0
   39.5590   26.2740   43.5560 C   0  0  0  0  0  0  0  0  0  0  0  0
   38.7520   27.3600   43.4120 N   0  0  0  0  0  0  0  0  0  0  0  0
   37.6460   27.3080   42.6450 C   0  0  0  0  0  0  0  0  0  0  0  0
   37.2880   26.1730   41.9830 N   0  0  0  0  0  0  0  0  0  0  0  0
   39.8700   24.2320   43.0090 H   0  0  0  0  0  0  0  0  0  0  0  0
   40.4260   26.3610   44.1740 H   0  0  0  0  0  0  0  0  0  0  0  0
   37.6990   23.8420   41.3990 C   0  0  0  0  0  0  0  0  0  0  0  0
   36.8280   23.9640   40.7590 H   0  0  0  0  0  0  0  0  0  0  0  0
   38.6000   23.4990   40.8140 H   0  0  0  0  0  0  0  0  0  0  0  0
   37.5770   23.0590   42.1790 H   0  0  0  0  0  0  0  0  0  0  0  0
   36.5070   28.7910   40.0690 O   0  0  0  0  0  0  0  0  0  0  0  0
   36.9280   29.5920   41.3100 P   0  0  1  0  0  0  0  0  0  0  0  0
   35.7850   30.8270   41.5010 O   0  0  0  0  0  0  0  0  0  0  0  0
   35.2300   30.9600   40.6840 H   0  0  0  0  0  0  0  0  0  0  0  0
   38.4400   30.2860   41.1110 O   0  0  0  0  0  0  0  0  0  0  0  0
   38.7190   31.5880   40.7520 C   0  0  0  0  0  0  0  0  0  0  0  0
   40.0500   31.9560   40.7630 C   0  0  0  0  0  0  0  0  0  0  0  0
   40.8210   31.2440   41.0420 H   0  0  0  0  0  0  0  0  0  0  0  0
   40.4820   33.2220   40.4290 C   0  0  0  0  0  0  0  0  0  0  0  0
   41.5300   33.4880   40.4440 H   0  0  0  0  0  0  0  0  0  0  0  0
   39.5090   34.1610   40.0650 C   0  0  0  0  0  3  0  0  0  0  0  0
   38.1840   33.7790   40.0580 C   0  0  0  0  0  3  0  0  0  0  0  0
   37.7960   32.5270   40.3930 N   0  0  0  0  0  0  0  0  0  0  0  0
  1  6  1  0  0  0  0
  2  3  1  0  0  0  0
  3  8  1  0  0  0  0
  3  4  2  0  0  0  0
  4  9  1  0  0  0  0
  5  4  1  0  0  0  0
  6  5  2  0  0  0  0
  7  2  2  0  0  0  0
  7  6  1  0  0  0  0
 10  2  1  0  0  0  0
 10 13  1  0  0  0  0
 11 10  1  0  0  0  0
 12 10  1  0  0  0  0
 15 14  2  6  0  0  0
 15 16  1  0  0  0  0
 15  1  1  0  0  0  0
 17 16  1  0  0  0  0
 18 15  1  0  0  0  0
 19 20  1  0  0  0  0
 19 18  1  0  0  0  0
 20 21  1  0  0  0  0
 22 23  1  0  0  0  0
 22 20  2  0  0  0  0
 24 22  1  0  0  0  0
 25 24  2  0  0  0  0
 25 26  1  0  0  0  0
 26 19  2  0  0  0  0
M  END
>  <minimizedAffinity>
-4.96943188

$$$$

 OpenBabel03252504473D

 26 27  0  0  0  0  0  0  0  0999 V2000
   37.6380   30.6130   39.1330 O   0  0  0  0  0  0  0  0  0  0  0  0
   35.5840   29.2750   36.4650 C   0  0  0  0  0  0  0  0  0  0  0  0
   34.6430   28.5550   37.1850 C   0  0  0  0  0  0  0  0  0  0  0  0
   34.7570   28.5600   38.5840 C   0  0  0  0  0  0  0  0  0  0  0  0
   35.7720   29.2620   39.1550 N   0  0  0  0  0  0  0  0  0  0  0  0
   36.6570   29.9440   38.4020 C   0  0  0  0  0  0  0  0  0  0  0  0
   36.5760   29.9600   37.0430 N   0  0  0  0  0  0  0  0  0  0  0  0
   33.8320   27.9920   36.7430 H   0  0  0  0  0  0  0  0  0  0  0  0
   34.0790   28.0340   39.2200 H   0  0  0  0  0  0  0  0  0  0  0  0
   35.4730   29.2790   34.9780 C   0  0  0  0  0  0  0  0  0  0  0  0
   36.2930   29.8050   34.4960 H   0  0  0  0  0  0  0  0  0  0  0  0
   35.4080   28.2070   34.6350 H   0  0  0  0  0  0  0  0  0  0  0  0
   34.4700   29.6940   34.7380 H   0  0  0  0  0  0  0  0  0  0  0  0
   37.5730   32.8730   40.3750 O   0  0  0  0  0  0  0  0  0  0  0  0
   37.3980   31.3660   40.6250 P   0  0  1  0  0  0  0  0  0  0  0  0
   35.8260   31.1530   41.2170 O   0  0  0  0  0  0  0  0  0  0  0  0
   35.4150   32.0090   41.5190 H   0  0  0  0  0  0  0  0  0  0  0  0
   38.4840   30.8030   41.7700 O   0  0  0  0  0  0  0  0  0  0  0  0
   38.4580   29.5840   42.4140 C   0  0  0  0  0  0  0  0  0  0  0  0
   39.6680   28.9310   42.5430 C   0  0  0  0  0  0  0  0  0  0  0  0
   40.5810   29.3700   42.1500 H   0  0  0  0  0  0  0  0  0  0  0  0
   39.7990   27.7070   43.1640 C   0  0  0  0  0  0  0  0  0  0  0  0
   40.7570   27.2140   43.2540 H   0  0  0  0  0  0  0  0  0  0  0  0
   38.6380   27.1180   43.6790 C   0  0  0  0  0  3  0  0  0  0  0  0
   37.4370   27.7810   43.5440 C   0  0  0  0  0  3  0  0  0  0  0  0
   37.3460   28.9820   42.9280 N   0  0  0  0  0  0  0  0  0  0  0  0
  1 15  1  0  0  0  0
  2  7  2  0  0  0  0
  2  3  1  0  0  0  0
  3  4  2  0  0  0  0
  4  5  1  0  0  0  0
  4  9  1  0  0  0  0
  6  1  1  0  0  0  0
  6  5  2  0  0  0  0
  7  6  1  0  0  0  0
  8  3  1  0  0  0  0
 10  2  1  0  0  0  0
 11 10  1  0  0  0  0
 12 10  1  0  0  0  0
 13 10  1  0  0  0  0
 15 14  2  6  0  0  0
 15 16  1  0  0  0  0
 15 18  1  0  0  0  0
 16 17  1  0  0  0  0
 18 19  1  0  0  0  0
 19 20  2  0  0  0  0
 19 26  1  0  0  0  0
 20 22  1  0  0  0  0
 21 20  1  0  0  0  0
 22 23  1  0  0  0  0
 22 24  2  0  0  0  0
 25 24  1  0  0  0  0
 26 25  2  0  0  0  0
M  END
>  <minimizedAffinity>
-4.87108898

$$$$

 OpenBabel03252504473D

 26 27  0  0  0  0  0  0  0  0999 V2000
   38.8650   31.5670   39.0920 O   0  0  0  0  0  0  0  0  0  0  0  0
   38.4600   28.5690   37.0990 C   0  0  0  0  0  0  0  0  0  0  0  0
   37.0970   28.5950   36.8460 C   0  0  0  0  0  0  0  0  0  0  0  0
   36.3610   29.6640   37.3820 C   0  0  0  0  0  0  0  0  0  0  0  0
   37.0140   30.6070   38.1130 N   0  0  0  0  0  0  0  0  0  0  0  0
   38.3410   30.5270   38.3250 C   0  0  0  0  0  0  0  0  0  0  0  0
   39.0860   29.5040   37.8200 N   0  0  0  0  0  0  0  0  0  0  0  0
   36.5660   27.8520   36.2670 H   0  0  0  0  0  0  0  0  0  0  0  0
   35.3070   29.7670   37.2400 H   0  0  0  0  0  0  0  0  0  0  0  0
   39.2530   27.4390   36.5340 C   0  0  0  0  0  0  0  0  0  0  0  0
   40.2950   27.4610   36.8450 H   0  0  0  0  0  0  0  0  0  0  0  0
   38.7470   26.4790   36.8370 H   0  0  0  0  0  0  0  0  0  0  0  0
   39.1120   27.4760   35.4310 H   0  0  0  0  0  0  0  0  0  0  0  0
   39.0010   33.3570   40.9440 O   0  0  0  0  0  0  0  0  0  0  0  0
   38.3200   32.0170   40.6260 P   0  0  1  0  0  0  0  0  0  0  0  0
   36.6500   32.3010   40.6660 O   0  0  0  0  0  0  0  0  0  0  0  0
   36.4230   33.1640   41.1110 H   0  0  0  0  0  0  0  0  0  0  0  0
   38.6940   30.8500   41.7680 O   0  0  0  0  0  0  0  0  0  0  0  0
   37.9620   29.7240   42.0790 C   0  0  0  0  0  0  0  0  0  0  0  0
   38.3190   29.0600   43.2360 C   0  0  0  0  0  0  0  0  0  0  0  0
   39.1360   29.4210   43.8550 H   0  0  0  0  0  0  0  0  0  0  0  0
   37.6790   27.9210   43.6770 C   0  0  0  0  0  0  0  0  0  0  0  0
   37.9760   27.4170   44.5880 H   0  0  0  0  0  0  0  0  0  0  0  0
   36.6220   27.4330   42.8990 C   0  0  0  0  0  3  0  0  0  0  0  0
   36.2760   28.1060   41.7470 C   0  0  0  0  0  3  0  0  0  0  0  0
   36.9270   29.2220   41.3450 N   0  0  0  0  0  0  0  0  0  0  0  0
  1 15  1  0  0  0  0
  2  7  1  0  0  0  0
  3  2  2  0  0  0  0
  3  4  1  0  0  0  0
  4  5  2  0  0  0  0
  5  6  1  0  0  0  0
  6  1  1  0  0  0  0
  7  6  2  0  0  0  0
  8  3  1  0  0  0  0
  9  4  1  0  0  0  0
 10 12  1  0  0  0  0
 10 11  1  0  0  0  0
 10  2  1  0  0  0  0
 13 10  1  0  0  0  0
 15 16  1  0  0  0  0
 15 14  2  1  0  0  0
 15 18  1  0  0  0  0
 16 17  1  0  0  0  0
 18 19  1  0  0  0  0
 19 20  1  0  0  0  0
 20 22  2  0  0  0  0
 20 21  1  0  0  0  0
 22 23  1  0  0  0  0
 24 22  1  0  0  0  0
 25 24  2  0  0  0  0
 26 25  1  0  0  0  0
 26 19  2  0  0  0  0
M  END
>  <minimizedAffinity>
-4.78109503

$$$$

 OpenBabel03252504473D

 26 27  0  0  0  0  0  0  0  0999 V2000
   36.2660   28.1050   40.8240 O   0  0  0  0  0  0  0  0  0  0  0  0
   38.9520   26.6260   42.7530 C   0  0  0  0  0  0  0  0  0  0  0  0
   39.5350   27.7530   43.3120 C   0  0  0  0  0  0  0  0  0  0  0  0
   38.9690   28.9970   42.9950 C   0  0  0  0  0  0  0  0  0  0  0  0
   37.8900   29.0340   42.1670 N   0  0  0  0  0  0  0  0  0  0  0  0
   37.3680   27.9040   41.6540 C   0  0  0  0  0  0  0  0  0  0  0  0
   37.8920   26.6800   41.9410 N   0  0  0  0  0  0  0  0  0  0  0  0
   40.3920   27.7370   43.9710 H   0  0  0  0  0  0  0  0  0  0  0  0
   39.3500   29.9190   43.3780 H   0  0  0  0  0  0  0  0  0  0  0  0
   39.5430   25.2970   43.0830 C   0  0  0  0  0  0  0  0  0  0  0  0
   39.0700   24.4800   42.5430 H   0  0  0  0  0  0  0  0  0  0  0  0
   40.6490   25.3500   42.8710 H   0  0  0  0  0  0  0  0  0  0  0  0
   39.4910   25.1950   44.1890 H   0  0  0  0  0  0  0  0  0  0  0  0
   34.3650   29.3550   39.6090 O   0  0  0  0  0  0  0  0  0  0  0  0
   35.7430   29.6020   40.2430 P   0  0  1  0  0  0  0  0  0  0  0  0
   35.5110   30.7350   41.4810 O   0  0  0  0  0  0  0  0  0  0  0  0
   34.6310   31.1980   41.4110 H   0  0  0  0  0  0  0  0  0  0  0  0
   36.8270   30.2340   39.1330 O   0  0  0  0  0  0  0  0  0  0  0  0
   37.6610   31.3180   39.3070 C   0  0  0  0  0  0  0  0  0  0  0  0
   38.9700   31.1580   38.8970 C   0  0  0  0  0  0  0  0  0  0  0  0
   39.3060   30.2190   38.4640 H   0  0  0  0  0  0  0  0  0  0  0  0
   39.9190   32.1520   39.0060 C   0  0  0  0  0  0  0  0  0  0  0  0
   40.9390   32.0040   38.6780 H   0  0  0  0  0  0  0  0  0  0  0  0
   39.5130   33.3710   39.5610 C   0  0  0  0  0  3  0  0  0  0  0  0
   38.2030   33.5180   39.9650 C   0  0  0  0  0  3  0  0  0  0  0  0
   37.2990   32.5190   39.8430 N   0  0  0  0  0  0  0  0  0  0  0  0
  1  6  1  0  0  0  0
  2 10  1  0  0  0  0
  2  3  1  0  0  0  0
  3  8  1  0  0  0  0
  4  3  2  0  0  0  0
  4  9  1  0  0  0  0
  5  4  1  0  0  0  0
  6  7  1  0  0  0  0
  6  5  2  0  0  0  0
  7  2  2  0  0  0  0
 10 13  1  0  0  0  0
 11 10  1  0  0  0  0
 12 10  1  0  0  0  0
 15 14  2  6  0  0  0
 15  1  1  0  0  0  0
 15 16  1  0  0  0  0
 17 16  1  0  0  0  0
 18 19  1  0  0  0  0
 18 15  1  0  0  0  0
 19 26  1  0  0  0  0
 20 22  1  0  0  0  0
 20 19  2  0  0  0  0
 21 20  1  0  0  0  0
 22 24  2  0  0  0  0
 23 22  1  0  0  0  0
 24 25  1  0  0  0  0
 26 25  2  0  0  0  0
M  END
>  <minimizedAffinity>
-4.75919771

$$$$

 OpenBabel03252504473D

 26 27  0  0  0  0  0  0  0  0999 V2000
   38.7770   28.9810   40.8130 O   0  0  0  0  0  0  0  0  0  0  0  0
   36.3430   29.5520   38.1910 C   0  0  0  0  0  0  0  0  0  0  0  0
   37.0520   30.3900   37.3430 C   0  0  0  0  0  0  0  0  0  0  0  0
   38.3610   30.7300   37.7170 C   0  0  0  0  0  0  0  0  0  0  0  0
   38.8630   30.2260   38.8770 N   0  0  0  0  0  0  0  0  0  0  0  0
   38.1250   29.4160   39.6590 C   0  0  0  0  0  0  0  0  0  0  0  0
   36.8510   29.0660   39.3270 N   0  0  0  0  0  0  0  0  0  0  0  0
   36.6650   30.7970   36.4190 H   0  0  0  0  0  0  0  0  0  0  0  0
   38.9820   31.3690   37.1270 H   0  0  0  0  0  0  0  0  0  0  0  0
   34.9510   29.1820   37.8040 C   0  0  0  0  0  0  0  0  0  0  0  0
   34.4490   28.5860   38.5620 H   0  0  0  0  0  0  0  0  0  0  0  0
   34.3910   30.1360   37.5850 H   0  0  0  0  0  0  0  0  0  0  0  0
   35.0220   28.6840   36.8130 H   0  0  0  0  0  0  0  0  0  0  0  0
   39.2040   30.3530   42.9550 O   0  0  0  0  0  0  0  0  0  0  0  0
   38.2610   29.2770   42.3940 P   0  0  1  0  0  0  0  0  0  0  0  0
   36.6960   29.9220   42.4590 O   0  0  0  0  0  0  0  0  0  0  0  0
   36.6410   30.7250   43.0460 H   0  0  0  0  0  0  0  0  0  0  0  0
   38.3050   27.8790   43.3170 O   0  0  0  0  0  0  0  0  0  0  0  0
   38.3120   26.5790   42.8590 C   0  0  0  0  0  0  0  0  0  0  0  0
   37.1060   26.0790   42.4110 C   0  0  0  0  0  0  0  0  0  0  0  0
   36.2090   26.6930   42.4260 H   0  0  0  0  0  0  0  0  0  0  0  0
   36.9570   24.7970   41.9240 C   0  0  0  0  0  0  0  0  0  0  0  0
   36.0010   24.4270   41.5770 H   0  0  0  0  0  0  0  0  0  0  0  0
   38.0960   23.9840   41.8920 C   0  0  0  0  0  3  0  0  0  0  0  0
   39.2950   24.4960   42.3420 C   0  0  0  0  0  3  0  0  0  0  0  0
   39.4020   25.7600   42.8140 N   0  0  0  0  0  0  0  0  0  0  0  0
  1 15  1  0  0  0  0
  2  7  1  0  0  0  0
  3  4  1  0  0  0  0
  3  2  2  0  0  0  0
  4  5  2  0  0  0  0
  5  6  1  0  0  0  0
  6  1  1  0  0  0  0
  7  6  2  0  0  0  0
  8  3  1  0  0  0  0
  9  4  1  0  0  0  0
 10  2  1  0  0  0  0
 10 11  1  0  0  0  0
 12 10  1  0  0  0  0
 13 10  1  0  0  0  0
 15 16  1  0  0  0  0
 15 14  2  1  0  0  0
 15 18  1  0  0  0  0
 16 17  1  0  0  0  0
 19 18  1  0  0  0  0
 20 21  1  0  0  0  0
 20 19  2  0  0  0  0
 22 20  1  0  0  0  0
 23 22  1  0  0  0  0
 24 22  2  0  0  0  0
 24 25  1  0  0  0  0
 25 26  2  0  0  0  0
 26 19  1  0  0  0  0
M  END
>  <minimizedAffinity>
-4.71914339

$$$$

 OpenBabel03252504473D

 26 27  0  0  0  0  0  0  0  0999 V2000
   38.3580   30.1010   40.5010 O   0  0  0  0  0  0  0  0  0  0  0  0
   39.9860   33.3340   40.3710 C   0  0  0  0  0  0  0  0  0  0  0  0
   38.9180   34.1610   40.0590 C   0  0  0  0  0  0  0  0  0  0  0  0
   37.6590   33.5600   39.9030 C   0  0  0  0  0  0  0  0  0  0  0  0
   37.5520   32.2140   40.0650 N   0  0  0  0  0  0  0  0  0  0  0  0
   38.6270   31.4620   40.3680 C   0  0  0  0  0  0  0  0  0  0  0  0
   39.8630   32.0120   40.5270 N   0  0  0  0  0  0  0  0  0  0  0  0
   38.9890   35.2320   39.9280 H   0  0  0  0  0  0  0  0  0  0  0  0
   36.7790   34.1170   39.6620 H   0  0  0  0  0  0  0  0  0  0  0  0
   41.3280   33.9610   40.5410 C   0  0  0  0  0  0  0  0  0  0  0  0
   42.1150   33.2300   40.7100 H   0  0  0  0  0  0  0  0  0  0  0  0
   41.5320   34.5890   39.6280 H   0  0  0  0  0  0  0  0  0  0  0  0
   41.2260   34.7080   41.3580 H   0  0  0  0  0  0  0  0  0  0  0  0
   37.7780   29.5190   42.9470 O   0  0  0  0  0  0  0  0  0  0  0  0
   37.1940   29.4320   41.5280 P   0  0  1  0  0  0  0  0  0  0  0  0
   35.7520   30.3210   41.5420 O   0  0  0  0  0  0  0  0  0  0  0  0
   35.4320   30.5100   42.4670 H   0  0  0  0  0  0  0  0  0  0  0  0
   36.8470   27.8500   41.1000 O   0  0  0  0  0  0  0  0  0  0  0  0
   37.6210   26.7340   41.3370 C   0  0  0  0  0  0  0  0  0  0  0  0
   36.9710   25.6390   41.8720 C   0  0  0  0  0  0  0  0  0  0  0  0
   35.9070   25.6750   42.0890 H   0  0  0  0  0  0  0  0  0  0  0  0
   37.6110   24.4530   42.1620 C   0  0  0  0  0  0  0  0  0  0  0  0
   37.0820   23.6070   42.5810 H   0  0  0  0  0  0  0  0  0  0  0  0
   38.9830   24.3790   41.8930 C   0  0  0  0  0  3  0  0  0  0  0  0
   39.6190   25.4790   41.3580 C   0  0  0  0  0  3  0  0  0  0  0  0
   38.9570   26.6280   41.0860 N   0  0  0  0  0  0  0  0  0  0  0  0
  1 15  1  0  0  0  0
  2  7  1  0  0  0  0
  2 10  1  0  0  0  0
  3  2  2  0  0  0  0
  4  3  1  0  0  0  0
  4  5  2  0  0  0  0
  5  6  1  0  0  0  0
  6  1  1  0  0  0  0
  6  7  2  0  0  0  0
  8  3  1  0  0  0  0
  9  4  1  0  0  0  0
 10 11  1  0  0  0  0
 10 13  1  0  0  0  0
 12 10  1  0  0  0  0
 15 16  1  0  0  0  0
 15 14  2  1  0  0  0
 16 17  1  0  0  0  0
 18 19  1  0  0  0  0
 18 15  1  0  0  0  0
 19 20  1  0  0  0  0
 20 21  1  0  0  0  0
 20 22  2  0  0  0  0
 22 23  1  0  0  0  0
 24 22  1  0  0  0  0
 25 24  2  0  0  0  0
 26 19  2  0  0  0  0
 26 25  1  0  0  0  0
M  END
>  <minimizedAffinity>
-4.65501976

$$$$

 OpenBabel03252504473D

 26 27  0  0  0  0  0  0  0  0999 V2000
   37.0680   31.3560   38.2840 O   0  0  0  0  0  0  0  0  0  0  0  0
   35.3020   28.2950   37.4860 C   0  0  0  0  0  0  0  0  0  0  0  0
   36.3580   27.4330   37.2300 C   0  0  0  0  0  0  0  0  0  0  0  0
   37.6570   27.9510   37.3460 C   0  0  0  0  0  0  0  0  0  0  0  0
   37.8130   29.2560   37.6980 N   0  0  0  0  0  0  0  0  0  0  0  0
   36.7470   30.0450   37.9340 C   0  0  0  0  0  0  0  0  0  0  0  0
   35.4730   29.5750   37.8310 N   0  0  0  0  0  0  0  0  0  0  0  0
   36.2480   26.3950   36.9500 H   0  0  0  0  0  0  0  0  0  0  0  0
   38.5310   27.3630   37.1680 H   0  0  0  0  0  0  0  0  0  0  0  0
   33.9170   27.7560   37.3680 C   0  0  0  0  0  0  0  0  0  0  0  0
   33.1550   28.5190   37.5120 H   0  0  0  0  0  0  0  0  0  0  0  0
   33.8250   27.2610   36.3590 H   0  0  0  0  0  0  0  0  0  0  0  0
   33.8460   26.9090   38.0850 H   0  0  0  0  0  0  0  0  0  0  0  0
   38.8650   31.8260   40.0750 O   0  0  0  0  0  0  0  0  0  0  0  0
   37.3450   31.9040   39.8570 P   0  0  1  0  0  0  0  0  0  0  0  0
   36.9100   33.5280   40.0660 O   0  0  0  0  0  0  0  0  0  0  0  0
   37.6250   34.0580   40.5150 H   0  0  0  0  0  0  0  0  0  0  0  0
   36.5140   30.9770   40.9780 O   0  0  0  0  0  0  0  0  0  0  0  0
   36.9760   29.8600   41.6410 C   0  0  0  0  0  0  0  0  0  0  0  0
   36.3560   28.6640   41.3350 C   0  0  0  0  0  0  0  0  0  0  0  0
   35.5490   28.6270   40.6070 H   0  0  0  0  0  0  0  0  0  0  0  0
   36.7080   27.4640   41.9150 C   0  0  0  0  0  0  0  0  0  0  0  0
   36.2090   26.5390   41.6590 H   0  0  0  0  0  0  0  0  0  0  0  0
   37.7450   27.4830   42.8560 C   0  0  0  0  0  3  0  0  0  0  0  0
   38.3550   28.6840   43.1520 C   0  0  0  0  0  3  0  0  0  0  0  0
   37.9820   29.8430   42.5620 N   0  0  0  0  0  0  0  0  0  0  0  0
  1 15  1  0  0  0  0
  2  7  1  0  0  0  0
  3  4  1  0  0  0  0
  3  2  2  0  0  0  0
  4  5  2  0  0  0  0
  5  6  1  0  0  0  0
  6  1  1  0  0  0  0
  7  6  2  0  0  0  0
  8  3  1  0  0  0  0
  9  4  1  0  0  0  0
 10  2  1  0  0  0  0
 10 11  1  0  0  0  0
 10 13  1  0  0  0  0
 12 10  1  0  0  0  0
 15 16  1  0  0  0  0
 15 14  2  1  0  0  0
 15 18  1  0  0  0  0
 16 17  1  0  0  0  0
 18 19  1  0  0  0  0
 19 26  1  0  0  0  0
 20 19  2  0  0  0  0
 20 22  1  0  0  0  0
 21 20  1  0  0  0  0
 22 24  2  0  0  0  0
 23 22  1  0  0  0  0
 24 25  1  0  0  0  0
 26 25  2  0  0  0  0
M  END
>  <minimizedAffinity>
-4.63179827

$$$$

 OpenBabel03252504473D

 26 27  0  0  0  0  0  0  0  0999 V2000
   37.1800   29.5800   39.7430 O   0  0  0  0  0  0  0  0  0  0  0  0
   37.2110   26.8410   42.1140 C   0  0  0  0  0  0  0  0  0  0  0  0
   37.4220   27.5170   43.3050 C   0  0  0  0  0  0  0  0  0  0  0  0
   37.5470   28.9140   43.2420 C   0  0  0  0  0  0  0  0  0  0  0  0
   37.4560   29.5250   42.0290 N   0  0  0  0  0  0  0  0  0  0  0  0
   37.2500   28.8120   40.9050 C   0  0  0  0  0  0  0  0  0  0  0  0
   37.1240   27.4560   40.9310 N   0  0  0  0  0  0  0  0  0  0  0  0
   37.4960   27.0440   44.2750 H   0  0  0  0  0  0  0  0  0  0  0  0
   37.7110   29.5190   44.1070 H   0  0  0  0  0  0  0  0  0  0  0  0
   37.0750   25.3560   42.1680 C   0  0  0  0  0  0  0  0  0  0  0  0
   36.9870   24.9060   41.1830 H   0  0  0  0  0  0  0  0  0  0  0  0
   37.9610   24.9510   42.7350 H   0  0  0  0  0  0  0  0  0  0  0  0
   36.2130   25.1440   42.8380 H   0  0  0  0  0  0  0  0  0  0  0  0
   37.0690   31.6710   38.2370 O   0  0  0  0  0  0  0  0  0  0  0  0
   37.4940   31.2370   39.6480 P   0  0  1  0  0  0  0  0  0  0  0  0
   36.5590   32.1390   40.7350 O   0  0  0  0  0  0  0  0  0  0  0  0
   36.1170   32.9190   40.2980 H   0  0  0  0  0  0  0  0  0  0  0  0
   39.1120   31.5640   39.9320 O   0  0  0  0  0  0  0  0  0  0  0  0
   40.0920   31.8010   38.9910 C   0  0  0  0  0  0  0  0  0  0  0  0
   40.5720   30.6980   38.3140 C   0  0  0  0  0  0  0  0  0  0  0  0
   40.1870   29.7040   38.5250 H   0  0  0  0  0  0  0  0  0  0  0  0
   41.5500   30.7780   37.3450 C   0  0  0  0  0  0  0  0  0  0  0  0
   41.9120   29.9000   36.8270 H   0  0  0  0  0  0  0  0  0  0  0  0
   42.0650   32.0460   37.0520 C   0  0  0  0  0  3  0  0  0  0  0  0
   41.5760   33.1390   37.7360 C   0  0  0  0  0  3  0  0  0  0  0  0
   40.6150   33.0230   38.6810 N   0  0  0  0  0  0  0  0  0  0  0  0
  1  6  1  0  0  0  0
  2 10  1  0  0  0  0
  2  3  1  0  0  0  0
  3  8  1  0  0  0  0
  4  3  2  0  0  0  0
  4  9  1  0  0  0  0
  5  4  1  0  0  0  0
  6  7  1  0  0  0  0
  6  5  2  0  0  0  0
  7  2  2  0  0  0  0
 10 12  1  0  0  0  0
 10 13  1  0  0  0  0
 11 10  1  0  0  0  0
 15 14  2  6  0  0  0
 15  1  1  0  0  0  0
 15 18  1  0  0  0  0
 15 16  1  0  0  0  0
 17 16  1  0  0  0  0
 19 18  1  0  0  0  0
 20 21  1  0  0  0  0
 20 19  2  0  0  0  0
 22 20  1  0  0  0  0
 23 22  1  0  0  0  0
 24 22  2  0  0  0  0
 24 25  1  0  0  0  0
 25 26  2  0  0  0  0
 26 19  1  0  0  0  0
M  END
>  <minimizedAffinity>
-4.60207081

$$$$

 OpenBabel03252504473D

 26 27  0  0  0  0  0  0  0  0999 V2000
   39.4460   30.3350   43.2130 O   0  0  0  0  0  0  0  0  0  0  0  0
   36.5820   28.7980   41.6140 C   0  0  0  0  0  0  0  0  0  0  0  0
   36.6380   27.5140   42.1360 C   0  0  0  0  0  0  0  0  0  0  0  0
   37.6790   27.2270   43.0330 C   0  0  0  0  0  0  0  0  0  0  0  0
   38.5680   28.2090   43.3410 N   0  0  0  0  0  0  0  0  0  0  0  0
   38.4610   29.4380   42.8010 C   0  0  0  0  0  0  0  0  0  0  0  0
   37.4640   29.7510   41.9280 N   0  0  0  0  0  0  0  0  0  0  0  0
   35.9380   26.7250   41.9000 H   0  0  0  0  0  0  0  0  0  0  0  0
   37.8020   26.2660   43.4850 H   0  0  0  0  0  0  0  0  0  0  0  0
   35.4800   29.1160   40.6610 C   0  0  0  0  0  0  0  0  0  0  0  0
   35.5580   30.1190   40.2480 H   0  0  0  0  0  0  0  0  0  0  0  0
   35.4860   28.3300   39.8530 H   0  0  0  0  0  0  0  0  0  0  0  0
   34.5280   28.9280   41.2060 H   0  0  0  0  0  0  0  0  0  0  0  0
   41.8180   31.3500   43.2170 O   0  0  0  0  0  0  0  0  0  0  0  0
   40.7080   30.9090   42.2490 P   0  0  1  0  0  0  0  0  0  0  0  0
   41.3760   29.7020   41.2650 O   0  0  0  0  0  0  0  0  0  0  0  0
   42.3710   29.6790   41.3150 H   0  0  0  0  0  0  0  0  0  0  0  0
   40.2000   32.1750   41.2770 O   0  0  0  0  0  0  0  0  0  0  0  0
   39.2800   32.1210   40.2520 C   0  0  0  0  0  0  0  0  0  0  0  0
   38.2530   33.0430   40.2990 C   0  0  0  0  0  0  0  0  0  0  0  0
   38.1920   33.7650   41.1100 H   0  0  0  0  0  0  0  0  0  0  0  0
   37.2600   33.1120   39.3460 C   0  0  0  0  0  0  0  0  0  0  0  0
   36.4650   33.8440   39.4030 H   0  0  0  0  0  0  0  0  0  0  0  0
   37.3140   32.1940   38.2910 C   0  0  0  0  0  3  0  0  0  0  0  0
   38.3450   31.2790   38.2550 C   0  0  0  0  0  3  0  0  0  0  0  0
   39.3030   31.2410   39.2100 N   0  0  0  0  0  0  0  0  0  0  0  0
  2  7  2  0  0  0  0
  2  3  1  0  0  0  0
  3  4  2  0  0  0  0
  4  5  1  0  0  0  0
  4  9  1  0  0  0  0
  6  1  1  0  0  0  0
  6  5  2  0  0  0  0
  7  6  1  0  0  0  0
  8  3  1  0  0  0  0
 10 13  1  0  0  0  0
 10  2  1  0  0  0  0
 11 10  1  0  0  0  0
 12 10  1  0  0  0  0
 15  1  1  0  0  0  0
 15 14  2  1  0  0  0
 16 17  1  0  0  0  0
 16 15  1  0  0  0  0
 18 15  1  0  0  0  0
 19 20  1  0  0  0  0
 19 18  1  0  0  0  0
 20 21  1  0  0  0  0
 22 23  1  0  0  0  0
 22 20  2  0  0  0  0
 24 22  1  0  0  0  0
 25 24  2  0  0  0  0
 25 26  1  0  0  0  0
 26 19  2  0  0  0  0
M  END
>  <minimizedAffinity>
-4.52009773

$$$$
