
 OpenBabel03252509073D

 40 43  0  0  0  0  0  0  0  0999 V2000
   47.5960   31.7600   39.1860 C   0  0  0  0  0  0  0  0  0  0  0  0
   47.1220   33.0290   39.0260 C   0  0  0  0  0  0  0  0  0  0  0  0
   47.7310   33.8890   38.1270 C   0  0  0  0  0  0  0  0  0  0  0  0
   48.8130   33.4660   37.3930 C   0  0  0  0  0  0  0  0  0  0  0  0
   49.3310   32.1770   37.5250 C   0  0  0  0  0  0  0  0  0  0  0  0
   48.6950   31.3300   38.4410 C   0  0  0  0  0  0  0  0  0  0  0  0
   47.3880   34.9010   37.9690 H   0  0  0  0  0  0  0  0  0  0  0  0
   49.3660   34.0400   36.6690 H   0  0  0  0  0  0  0  0  0  0  0  0
   50.1640   31.7600   37.0000 H   0  0  0  0  0  0  0  0  0  0  0  0
   49.0690   30.3150   38.5740 H   0  0  0  0  0  0  0  0  0  0  0  0
   45.2460   35.5620   43.1140 Cl  0  0  0  0  0  0  0  0  0  0  0  0
   45.0990   34.7240   41.5870 C   0  0  0  0  0  0  0  0  0  0  0  0
   46.1930   34.2410   40.9450 C   0  0  0  0  0  0  0  0  0  0  0  0
   45.9740   33.5780   39.7480 C   0  0  0  0  0  0  0  0  0  0  0  0
   44.7140   33.4160   39.2270 C   0  0  0  0  0  0  0  0  0  0  0  0
   43.6330   33.9060   39.8830 C   0  0  0  0  0  0  0  0  0  0  0  0
   43.8370   34.5640   41.0710 C   0  0  0  0  0  0  0  0  0  0  0  0
   44.6010   32.8860   38.2800 H   0  0  0  0  0  0  0  0  0  0  0  0
   42.6650   33.7530   39.4350 H   0  0  0  0  0  0  0  0  0  0  0  0
   42.9520   34.9470   41.5780 H   0  0  0  0  0  0  0  0  0  0  0  0
   49.5470   35.7050   41.8710 C   0  0  0  0  0  0  0  0  0  0  0  0
   48.2860   35.5350   41.2940 C   0  0  0  0  0  0  0  0  0  0  0  0
   47.5020   34.4280   41.5410 C   0  0  0  0  0  0  0  0  0  0  0  0
   48.0640   33.5270   42.3880 N   0  0  0  0  0  0  0  0  0  0  0  0
   49.2640   33.6770   42.9450 C   0  0  0  0  0  0  0  0  0  0  0  0
   49.9970   34.7620   42.6850 N   0  0  0  0  0  0  0  0  0  0  0  0
   50.1020   36.5980   41.6310 H   0  0  0  0  0  0  0  0  0  0  0  0
   47.8770   36.2820   40.6220 H   0  0  0  0  0  0  0  0  0  0  0  0
   49.5410   32.8500   43.5950 H   0  0  0  0  0  0  0  0  0  0  0  0
   46.8480   30.6760   40.2340 S   0  0  0  0  0  0  0  0  0  0  0  0
   47.2250   29.2430   39.9230 O   0  0  0  0  0  0  0  0  0  0  0  0
   47.5640   30.9280   41.6100 O   0  0  0  0  0  0  0  0  0  0  0  0
   45.1740   30.6240   40.6000 C   0  0  0  0  0  0  0  0  0  0  0  0
   44.7980   31.0090   41.9170 C   0  0  0  0  0  0  0  0  0  0  0  0
   45.6000   31.3150   42.6250 H   0  0  0  0  0  0  0  0  0  0  0  0
   43.5400   31.0770   42.5290 C   0  0  0  0  0  0  0  0  0  0  0  0
   43.4130   31.3900   43.5420 H   0  0  0  0  0  0  0  0  0  0  0  0
   42.5380   30.7010   41.6700 C   0  0  0  0  0  3  0  0  0  0  0  0
   42.8330   30.3220   40.3960 C   0  0  0  0  0  3  0  0  0  0  0  0
   44.0660   30.2940   39.9240 N   0  0  0  0  0  0  0  0  0  0  0  0
  1 30  1  0  0  0  0
  2  1  1  0  0  0  0
  2 14  1  0  0  0  0
  3  2  2  0  0  0  0
  4  5  2  0  0  0  0
  4  3  1  0  0  0  0
  5  6  1  0  0  0  0
  6 10  1  0  0  0  0
  6  1  2  0  0  0  0
  7  3  1  0  0  0  0
  8  4  1  0  0  0  0
  9  5  1  0  0  0  0
 12 11  1  0  0  0  0
 13 23  1  0  0  0  0
 13 12  2  0  0  0  0
 14 13  1  0  0  0  0
 15 14  2  0  0  0  0
 15 16  1  0  0  0  0
 16 17  2  0  0  0  0
 17 20  1  0  0  0  0
 17 12  1  0  0  0  0
 18 15  1  0  0  0  0
 19 16  1  0  0  0  0
 21 26  1  0  0  0  0
 22 23  1  0  0  0  0
 22 21  2  0  0  0  0
 23 24  2  0  0  0  0
 24 25  1  0  0  0  0
 25 29  1  0  0  0  0
 26 25  2  0  0  0  0
 27 21  1  0  0  0  0
 28 22  1  0  0  0  0
 30 33  1  0  0  0  0
 30 32  2  0  0  0  0
 31 30  2  0  0  0  0
 33 34  1  0  0  0  0
 34 36  2  0  0  0  0
 34 35  1  0  0  0  0
 36 37  1  0  0  0  0
 38 36  1  0  0  0  0
 39 38  2  0  0  0  0
 40 39  1  0  0  0  0
 40 33  2  0  0  0  0
M  END
>  <minimizedAffinity>
-4.68237638

>  <minimizedRMSD>
1.04405689

$$$$
