
 OpenBabel03242512193D

 32 34  0  0  0  0  0  0  0  0999 V2000
   36.7740   28.9490   41.7280 C   0  0  0  0  0  0  0  0  0  0  0  0
   36.7590   27.5770   41.5780 C   0  0  0  0  0  0  0  0  0  0  0  0
   36.5890   27.0370   40.3180 C   0  0  0  0  0  0  0  0  0  0  0  0
   36.4380   27.9080   39.2450 C   0  0  0  0  0  0  0  0  0  0  0  0
   36.4610   29.2520   39.4460 C   0  0  0  0  0  0  0  0  0  0  0  0
   36.6310   29.8390   40.6920 C   0  0  0  0  0  0  0  0  0  0  0  0
   36.5830   25.9660   40.2460 H   0  0  0  0  0  0  0  0  0  0  0  0
   36.3120   27.3910   38.3060 H   0  0  0  0  0  0  0  0  0  0  0  0
   36.3310   29.7680   38.5100 H   0  0  0  0  0  0  0  0  0  0  0  0
   36.9350   26.7940   42.8290 C   0  0  0  0  0  0  0  0  0  0  0  0
   36.6880   27.5180   43.6600 H   0  0  0  0  0  0  0  0  0  0  0  0
   36.2480   25.9730   42.9140 H   0  0  0  0  0  0  0  0  0  0  0  0
   38.3820   26.4210   42.9930 C   0  0  0  0  0  0  0  0  0  0  0  0
   38.7720   25.1560   42.5330 C   0  0  0  0  0  0  0  0  0  0  0  0
   40.1060   24.7940   42.6690 C   0  0  0  0  0  0  0  0  0  0  0  0
   40.9530   25.6860   43.2390 N   0  0  0  0  0  0  0  0  0  0  0  0
   40.5390   26.9180   43.6790 C   0  0  0  0  0  0  0  0  0  0  0  0
   39.2510   27.2820   43.5550 N   0  0  0  0  0  0  0  0  0  0  0  0
   38.0950   24.4480   42.0800 H   0  0  0  0  0  0  0  0  0  0  0  0
   40.4630   23.8330   42.3320 H   0  0  0  0  0  0  0  0  0  0  0  0
   41.3100   27.5490   44.1190 H   0  0  0  0  0  0  0  0  0  0  0  0
   36.9450   29.5770   42.9850 O   0  0  0  0  0  0  0  0  0  0  0  0
   37.9050   29.7070   43.3010 H   0  0  0  0  0  0  0  0  0  0  0  0
   36.6470   31.2050   40.8230 O   0  0  0  0  0  0  0  0  0  0  0  0
   37.7580   31.9750   40.6920 C   0  0  0  0  0  0  0  0  0  0  0  0
   37.3530   33.1250   39.9970 C   0  0  0  0  0  0  0  0  0  0  0  0
   36.3830   33.4210   39.6090 H   0  0  0  0  0  0  0  0  0  0  0  0
   38.2440   34.1610   39.6760 C   0  0  0  0  0  0  0  0  0  0  0  0
   38.0520   35.0710   39.1570 H   0  0  0  0  0  0  0  0  0  0  0  0
   39.5750   34.0270   40.0660 C   0  0  0  0  0  3  0  0  0  0  0  0
   39.9530   32.8920   40.7470 C   0  0  0  0  0  3  0  0  0  0  0  0
   39.0510   31.9450   41.0200 N   0  0  0  0  0  0  0  0  0  0  0  0
  1 22  1  0  0  0  0
  2  1  1  0  0  0  0
  2 10  1  0  0  0  0
  3  2  2  0  0  0  0
  4  5  2  0  0  0  0
  4  3  1  0  0  0  0
  5  6  1  0  0  0  0
  6 24  1  0  0  0  0
  6  1  2  0  0  0  0
  7  3  1  0  0  0  0
  8  4  1  0  0  0  0
  9  5  1  0  0  0  0
 10 12  1  0  0  0  0
 10 13  1  0  0  0  0
 10 11  1  0  0  0  0
 13 18  1  0  0  0  0
 14 15  1  0  0  0  0
 14 13  2  0  0  0  0
 15 16  2  0  0  0  0
 16 17  1  0  0  0  0
 17 21  1  0  0  0  0
 18 17  2  0  0  0  0
 19 14  1  0  0  0  0
 20 15  1  0  0  0  0
 22 23  1  0  0  0  0
 25 24  1  0  0  0  0
 25 32  1  0  0  0  0
 26 25  2  0  0  0  0
 27 26  1  0  0  0  0
 28 26  1  0  0  0  0
 28 30  2  0  0  0  0
 29 28  1  0  0  0  0
 30 31  1  0  0  0  0
 31 32  2  0  0  0  0
M  END
>  <minimizedAffinity>
-5.67027903

$$$$

 OpenBabel03242512193D

 32 34  0  0  0  0  0  0  0  0999 V2000
   36.6130   29.4620   41.2160 C   0  0  0  0  0  0  0  0  0  0  0  0
   36.6220   30.3390   40.1500 C   0  0  0  0  0  0  0  0  0  0  0  0
   36.6310   29.8350   38.8630 C   0  0  0  0  0  0  0  0  0  0  0  0
   36.6310   28.4560   38.6970 C   0  0  0  0  0  0  0  0  0  0  0  0
   36.6210   27.6360   39.7810 C   0  0  0  0  0  0  0  0  0  0  0  0
   36.6110   28.0950   41.0910 C   0  0  0  0  0  0  0  0  0  0  0  0
   36.6380   30.5520   38.0630 H   0  0  0  0  0  0  0  0  0  0  0  0
   36.6380   28.1630   37.6580 H   0  0  0  0  0  0  0  0  0  0  0  0
   36.6220   26.6070   39.4660 H   0  0  0  0  0  0  0  0  0  0  0  0
   36.6190   31.7820   40.5060 C   0  0  0  0  0  0  0  0  0  0  0  0
   36.1060   32.2920   39.6370 H   0  0  0  0  0  0  0  0  0  0  0  0
   36.0390   31.9990   41.3830 H   0  0  0  0  0  0  0  0  0  0  0  0
   38.0310   32.2970   40.5420 C   0  0  0  0  0  0  0  0  0  0  0  0
   38.2630   33.5620   39.9880 C   0  0  0  0  0  0  0  0  0  0  0  0
   39.5600   34.0600   40.0170 C   0  0  0  0  0  0  0  0  0  0  0  0
   40.5240   33.2910   40.5800 N   0  0  0  0  0  0  0  0  0  0  0  0
   40.2630   32.0550   41.1150 C   0  0  0  0  0  0  0  0  0  0  0  0
   39.0130   31.5600   41.0930 N   0  0  0  0  0  0  0  0  0  0  0  0
   37.4940   34.1720   39.5400 H   0  0  0  0  0  0  0  0  0  0  0  0
   39.7980   35.0280   39.6060 H   0  0  0  0  0  0  0  0  0  0  0  0
   41.1180   31.5310   41.5400 H   0  0  0  0  0  0  0  0  0  0  0  0
   36.6020   29.9010   42.5620 O   0  0  0  0  0  0  0  0  0  0  0  0
   35.6910   30.1220   42.9610 H   0  0  0  0  0  0  0  0  0  0  0  0
   36.5980   27.2110   42.1400 O   0  0  0  0  0  0  0  0  0  0  0  0
   37.5850   26.3150   42.3990 C   0  0  0  0  0  0  0  0  0  0  0  0
   38.5160   26.9870   43.2080 C   0  0  0  0  0  0  0  0  0  0  0  0
   38.5280   28.0030   43.5910 H   0  0  0  0  0  0  0  0  0  0  0  0
   39.6840   26.3690   43.6800 C   0  0  0  0  0  0  0  0  0  0  0  0
   40.4550   26.7760   44.2930 H   0  0  0  0  0  0  0  0  0  0  0  0
   39.9140   25.0410   43.3250 C   0  0  0  0  0  3  0  0  0  0  0  0
   38.9900   24.3990   42.5330 C   0  0  0  0  0  3  0  0  0  0  0  0
   37.8980   25.0500   42.1180 N   0  0  0  0  0  0  0  0  0  0  0  0
  1 22  1  0  0  0  0
  2 10  1  0  0  0  0
  2  1  2  0  0  0  0
  3  2  1  0  0  0  0
  4  3  2  0  0  0  0
  4  5  1  0  0  0  0
  5  6  2  0  0  0  0
  6  1  1  0  0  0  0
  6 24  1  0  0  0  0
  7  3  1  0  0  0  0
  8  4  1  0  0  0  0
  9  5  1  0  0  0  0
 10 13  1  0  0  0  0
 10 12  1  0  0  0  0
 11 10  1  0  0  0  0
 13 18  1  0  0  0  0
 14 15  1  0  0  0  0
 14 13  2  0  0  0  0
 15 16  2  0  0  0  0
 16 17  1  0  0  0  0
 17 21  1  0  0  0  0
 18 17  2  0  0  0  0
 19 14  1  0  0  0  0
 20 15  1  0  0  0  0
 22 23  1  0  0  0  0
 24 25  1  0  0  0  0
 25 26  1  0  0  0  0
 26 27  1  0  0  0  0
 26 28  2  0  0  0  0
 28 29  1  0  0  0  0
 30 28  1  0  0  0  0
 31 30  2  0  0  0  0
 32 25  2  0  0  0  0
 32 31  1  0  0  0  0
M  END
>  <minimizedAffinity>
-5.67010546

$$$$

 OpenBabel03242512193D

 32 34  0  0  0  0  0  0  0  0999 V2000
   37.5310   29.8700   41.9280 C   0  0  0  0  0  0  0  0  0  0  0  0
   37.9550   31.0100   41.2760 C   0  0  0  0  0  0  0  0  0  0  0  0
   39.2730   31.4060   41.3950 C   0  0  0  0  0  0  0  0  0  0  0  0
   40.1230   30.6310   42.1750 C   0  0  0  0  0  0  0  0  0  0  0  0
   39.6560   29.5160   42.7960 C   0  0  0  0  0  0  0  0  0  0  0  0
   38.3410   29.0790   42.7050 C   0  0  0  0  0  0  0  0  0  0  0  0
   39.5610   32.2980   40.8720 H   0  0  0  0  0  0  0  0  0  0  0  0
   41.1290   31.0210   42.2060 H   0  0  0  0  0  0  0  0  0  0  0  0
   40.4470   29.0430   43.3520 H   0  0  0  0  0  0  0  0  0  0  0  0
   36.9160   31.7190   40.4830 C   0  0  0  0  0  0  0  0  0  0  0  0
   35.9340   31.3950   40.9390 H   0  0  0  0  0  0  0  0  0  0  0  0
   36.9680   32.7880   40.5790 H   0  0  0  0  0  0  0  0  0  0  0  0
   36.9270   31.2140   39.0670 C   0  0  0  0  0  0  0  0  0  0  0  0
   37.6690   31.9470   38.1330 C   0  0  0  0  0  0  0  0  0  0  0  0
   37.6980   31.4940   36.8200 C   0  0  0  0  0  0  0  0  0  0  0  0
   37.0060   30.3680   36.5210 N   0  0  0  0  0  0  0  0  0  0  0  0
   36.2880   29.6710   37.4600 C   0  0  0  0  0  0  0  0  0  0  0  0
   36.2510   30.0990   38.7340 N   0  0  0  0  0  0  0  0  0  0  0  0
   38.2190   32.8440   38.3740 H   0  0  0  0  0  0  0  0  0  0  0  0
   38.2530   32.0180   36.0580 H   0  0  0  0  0  0  0  0  0  0  0  0
   35.7730   28.7810   37.1010 H   0  0  0  0  0  0  0  0  0  0  0  0
   36.1970   29.4010   41.8530 O   0  0  0  0  0  0  0  0  0  0  0  0
   35.9660   28.8170   41.0510 H   0  0  0  0  0  0  0  0  0  0  0  0
   37.9370   27.9420   43.3560 O   0  0  0  0  0  0  0  0  0  0  0  0
   38.2550   26.6810   42.9660 C   0  0  0  0  0  0  0  0  0  0  0  0
   37.0630   26.1080   42.4940 C   0  0  0  0  0  0  0  0  0  0  0  0
   36.0580   26.5120   42.4200 H   0  0  0  0  0  0  0  0  0  0  0  0
   37.0040   24.7960   42.0020 C   0  0  0  0  0  0  0  0  0  0  0  0
   36.1640   24.2610   41.6220 H   0  0  0  0  0  0  0  0  0  0  0  0
   38.1780   24.0460   41.9870 C   0  0  0  0  0  3  0  0  0  0  0  0
   39.3370   24.6240   42.4530 C   0  0  0  0  0  3  0  0  0  0  0  0
   39.3210   25.8810   42.9090 N   0  0  0  0  0  0  0  0  0  0  0  0
  1  6  1  0  0  0  0
  2  3  1  0  0  0  0
  2  1  2  0  0  0  0
  3  4  2  0  0  0  0
  4  8  1  0  0  0  0
  4  5  1  0  0  0  0
  5  9  1  0  0  0  0
  6  5  2  0  0  0  0
  6 24  1  0  0  0  0
  7  3  1  0  0  0  0
 10 12  1  0  0  0  0
 10 11  1  0  0  0  0
 10  2  1  0  0  0  0
 13 10  1  0  0  0  0
 14 19  1  0  0  0  0
 14 13  2  0  0  0  0
 15 14  1  0  0  0  0
 16 15  2  0  0  0  0
 16 17  1  0  0  0  0
 17 18  2  0  0  0  0
 18 13  1  0  0  0  0
 20 15  1  0  0  0  0
 21 17  1  0  0  0  0
 22  1  1  0  0  0  0
 23 22  1  0  0  0  0
 25 24  1  0  0  0  0
 26 25  2  0  0  0  0
 27 26  1  0  0  0  0
 28 26  1  0  0  0  0
 29 28  1  0  0  0  0
 30 28  2  0  0  0  0
 30 31  1  0  0  0  0
 31 32  2  0  0  0  0
 32 25  1  0  0  0  0
M  END
>  <minimizedAffinity>
-5.59511232

$$$$

 OpenBabel03242512193D

 32 34  0  0  0  0  0  0  0  0999 V2000
   37.4230   29.5750   42.1190 C   0  0  0  0  0  0  0  0  0  0  0  0
   36.5670   28.5110   41.9160 C   0  0  0  0  0  0  0  0  0  0  0  0
   35.7860   28.4810   40.7770 C   0  0  0  0  0  0  0  0  0  0  0  0
   35.8970   29.5320   39.8760 C   0  0  0  0  0  0  0  0  0  0  0  0
   36.7570   30.5560   40.1220 C   0  0  0  0  0  0  0  0  0  0  0  0
   37.5610   30.6300   41.2510 C   0  0  0  0  0  0  0  0  0  0  0  0
   35.1340   27.6350   40.6590 H   0  0  0  0  0  0  0  0  0  0  0  0
   35.2480   29.4170   39.0210 H   0  0  0  0  0  0  0  0  0  0  0  0
   36.7120   31.2770   39.3230 H   0  0  0  0  0  0  0  0  0  0  0  0
   36.5740   27.4720   42.9790 C   0  0  0  0  0  0  0  0  0  0  0  0
   37.0300   27.9810   43.8780 H   0  0  0  0  0  0  0  0  0  0  0  0
   35.5890   27.1540   43.2650 H   0  0  0  0  0  0  0  0  0  0  0  0
   37.5060   26.3580   42.5900 C   0  0  0  0  0  0  0  0  0  0  0  0
   36.9230   25.1560   42.1670 C   0  0  0  0  0  0  0  0  0  0  0  0
   37.7660   24.1160   41.7970 C   0  0  0  0  0  0  0  0  0  0  0  0
   39.1040   24.3250   41.8680 N   0  0  0  0  0  0  0  0  0  0  0  0
   39.6430   25.5140   42.2880 C   0  0  0  0  0  0  0  0  0  0  0  0
   38.8400   26.5300   42.6490 N   0  0  0  0  0  0  0  0  0  0  0  0
   35.8580   24.9920   42.1120 H   0  0  0  0  0  0  0  0  0  0  0  0
   37.3740   23.1680   41.4630 H   0  0  0  0  0  0  0  0  0  0  0  0
   40.7310   25.5640   42.3020 H   0  0  0  0  0  0  0  0  0  0  0  0
   38.2550   29.6770   43.2600 O   0  0  0  0  0  0  0  0  0  0  0  0
   39.1500   29.1920   43.2140 H   0  0  0  0  0  0  0  0  0  0  0  0
   38.4090   31.6920   41.4350 O   0  0  0  0  0  0  0  0  0  0  0  0
   39.4000   32.0410   40.5740 C   0  0  0  0  0  0  0  0  0  0  0  0
   39.3240   33.4370   40.4400 C   0  0  0  0  0  0  0  0  0  0  0  0
   38.6510   34.1620   40.8890 H   0  0  0  0  0  0  0  0  0  0  0  0
   40.2020   34.1610   39.6200 C   0  0  0  0  0  0  0  0  0  0  0  0
   40.2380   35.2110   39.4420 H   0  0  0  0  0  0  0  0  0  0  0  0
   41.1780   33.4560   38.9180 C   0  0  0  0  0  3  0  0  0  0  0  0
   41.2370   32.0890   39.0630 C   0  0  0  0  0  3  0  0  0  0  0  0
   40.3680   31.4630   39.8620 N   0  0  0  0  0  0  0  0  0  0  0  0
  1 22  1  0  0  0  0
  2  1  1  0  0  0  0
  2 10  1  0  0  0  0
  3  2  2  0  0  0  0
  4  5  2  0  0  0  0
  4  3  1  0  0  0  0
  5  6  1  0  0  0  0
  6 24  1  0  0  0  0
  6  1  2  0  0  0  0
  7  3  1  0  0  0  0
  8  4  1  0  0  0  0
  9  5  1  0  0  0  0
 10 12  1  0  0  0  0
 10 11  1  0  0  0  0
 13 18  1  0  0  0  0
 13 10  1  0  0  0  0
 14 13  2  0  0  0  0
 15 16  2  0  0  0  0
 15 14  1  0  0  0  0
 16 17  1  0  0  0  0
 17 21  1  0  0  0  0
 17 18  2  0  0  0  0
 19 14  1  0  0  0  0
 20 15  1  0  0  0  0
 23 22  1  0  0  0  0
 25 24  1  0  0  0  0
 26 25  1  0  0  0  0
 26 27  1  0  0  0  0
 28 26  2  0  0  0  0
 29 28  1  0  0  0  0
 30 31  2  0  0  0  0
 30 28  1  0  0  0  0
 31 32  1  0  0  0  0
 32 25  2  0  0  0  0
M  END
>  <minimizedAffinity>
-5.42470503

$$$$

 OpenBabel03242512193D

 32 34  0  0  0  0  0  0  0  0999 V2000
   37.3120   29.6210   41.8830 C   0  0  0  0  0  0  0  0  0  0  0  0
   38.2270   29.2120   42.8320 C   0  0  0  0  0  0  0  0  0  0  0  0
   39.4360   29.8740   42.9340 C   0  0  0  0  0  0  0  0  0  0  0  0
   39.6800   30.9330   42.0680 C   0  0  0  0  0  0  0  0  0  0  0  0
   38.7430   31.2970   41.1510 C   0  0  0  0  0  0  0  0  0  0  0  0
   37.5170   30.6630   41.0130 C   0  0  0  0  0  0  0  0  0  0  0  0
   40.1190   29.5230   43.6850 H   0  0  0  0  0  0  0  0  0  0  0  0
   40.6480   31.3840   42.2250 H   0  0  0  0  0  0  0  0  0  0  0  0
   39.1000   32.1300   40.5700 H   0  0  0  0  0  0  0  0  0  0  0  0
   37.8060   28.0640   43.6770 C   0  0  0  0  0  0  0  0  0  0  0  0
   38.3140   28.2360   44.6720 H   0  0  0  0  0  0  0  0  0  0  0  0
   36.7480   28.0440   43.8650 H   0  0  0  0  0  0  0  0  0  0  0  0
   38.3680   26.7880   43.1150 C   0  0  0  0  0  0  0  0  0  0  0  0
   39.5590   26.3120   43.6800 C   0  0  0  0  0  0  0  0  0  0  0  0
   40.0930   25.1310   43.1800 C   0  0  0  0  0  0  0  0  0  0  0  0
   39.4300   24.5090   42.1740 N   0  0  0  0  0  0  0  0  0  0  0  0
   38.2650   25.0020   41.6430 C   0  0  0  0  0  0  0  0  0  0  0  0
   37.7370   26.1440   42.1170 N   0  0  0  0  0  0  0  0  0  0  0  0
   40.0850   26.8100   44.4800 H   0  0  0  0  0  0  0  0  0  0  0  0
   41.0070   24.7170   43.5760 H   0  0  0  0  0  0  0  0  0  0  0  0
   37.8230   24.4150   40.8390 H   0  0  0  0  0  0  0  0  0  0  0  0
   36.0540   28.9940   41.7200 O   0  0  0  0  0  0  0  0  0  0  0  0
   35.3030   29.3150   42.3290 H   0  0  0  0  0  0  0  0  0  0  0  0
   36.6160   31.0840   40.0680 O   0  0  0  0  0  0  0  0  0  0  0  0
   36.3150   30.3960   38.9360 C   0  0  0  0  0  0  0  0  0  0  0  0
   37.1300   30.9330   37.9270 C   0  0  0  0  0  0  0  0  0  0  0  0
   37.8700   31.7280   37.9540 H   0  0  0  0  0  0  0  0  0  0  0  0
   37.0940   30.4650   36.6050 C   0  0  0  0  0  0  0  0  0  0  0  0
   37.6600   30.7940   35.7640 H   0  0  0  0  0  0  0  0  0  0  0  0
   36.2130   29.4300   36.2970 C   0  0  0  0  0  3  0  0  0  0  0  0
   35.4230   28.9170   37.3000 C   0  0  0  0  0  3  0  0  0  0  0  0
   35.5090   29.4110   38.5390 N   0  0  0  0  0  0  0  0  0  0  0  0
  1  2  1  0  0  0  0
  2  3  2  0  0  0  0
  2 10  1  0  0  0  0
  3  7  1  0  0  0  0
  4  8  1  0  0  0  0
  4  3  1  0  0  0  0
  5  4  2  0  0  0  0
  6  5  1  0  0  0  0
  6  1  2  0  0  0  0
  9  5  1  0  0  0  0
 10 12  1  0  0  0  0
 10 11  1  0  0  0  0
 13 10  1  0  0  0  0
 13 14  1  0  0  0  0
 14 19  1  0  0  0  0
 15 20  1  0  0  0  0
 15 14  2  0  0  0  0
 16 15  1  0  0  0  0
 17 18  1  0  0  0  0
 17 16  2  0  0  0  0
 18 13  2  0  0  0  0
 21 17  1  0  0  0  0
 22  1  1  0  0  0  0
 22 23  1  0  0  0  0
 24  6  1  0  0  0  0
 25 24  1  0  0  0  0
 26 27  1  0  0  0  0
 26 25  2  0  0  0  0
 28 26  1  0  0  0  0
 29 28  1  0  0  0  0
 30 28  2  0  0  0  0
 30 31  1  0  0  0  0
 31 32  2  0  0  0  0
 32 25  1  0  0  0  0
M  END
>  <minimizedAffinity>
-5.38225031

$$$$

 OpenBabel03242512193D

 32 34  0  0  0  0  0  0  0  0999 V2000
   34.0910   29.1420   38.5770 C   0  0  0  0  0  0  0  0  0  0  0  0
   35.4380   29.2300   38.8670 C   0  0  0  0  0  0  0  0  0  0  0  0
   36.3570   29.1590   37.8380 C   0  0  0  0  0  0  0  0  0  0  0  0
   35.8800   29.0010   36.5420 C   0  0  0  0  0  0  0  0  0  0  0  0
   34.5430   28.9200   36.3100 C   0  0  0  0  0  0  0  0  0  0  0  0
   33.5840   28.9880   37.3110 C   0  0  0  0  0  0  0  0  0  0  0  0
   37.3930   29.2310   38.1080 H   0  0  0  0  0  0  0  0  0  0  0  0
   36.6730   28.9560   35.8110 H   0  0  0  0  0  0  0  0  0  0  0  0
   34.3580   28.8000   35.2560 H   0  0  0  0  0  0  0  0  0  0  0  0
   35.7740   29.4000   40.3050 C   0  0  0  0  0  0  0  0  0  0  0  0
   36.6370   30.1290   40.3150 H   0  0  0  0  0  0  0  0  0  0  0  0
   34.9800   29.8460   40.8750 H   0  0  0  0  0  0  0  0  0  0  0  0
   36.2920   28.1030   40.8600 C   0  0  0  0  0  0  0  0  0  0  0  0
   36.5680   28.0600   42.2330 C   0  0  0  0  0  0  0  0  0  0  0  0
   37.0420   26.8690   42.7680 C   0  0  0  0  0  0  0  0  0  0  0  0
   37.2100   25.8170   41.9290 N   0  0  0  0  0  0  0  0  0  0  0  0
   36.9300   25.8920   40.5870 C   0  0  0  0  0  0  0  0  0  0  0  0
   36.4710   27.0380   40.0560 N   0  0  0  0  0  0  0  0  0  0  0  0
   36.4340   28.8990   42.8980 H   0  0  0  0  0  0  0  0  0  0  0  0
   37.2710   26.7770   43.8180 H   0  0  0  0  0  0  0  0  0  0  0  0
   37.1040   24.9820   40.0150 H   0  0  0  0  0  0  0  0  0  0  0  0
   33.0910   29.2080   39.5760 O   0  0  0  0  0  0  0  0  0  0  0  0
   32.7910   30.1400   39.8580 H   0  0  0  0  0  0  0  0  0  0  0  0
   32.2490   28.9030   37.0050 O   0  0  0  0  0  0  0  0  0  0  0  0
   31.3680   29.9290   37.1260 C   0  0  0  0  0  0  0  0  0  0  0  0
   31.3660   30.5880   35.8870 C   0  0  0  0  0  0  0  0  0  0  0  0
   31.9190   30.3920   34.9730 H   0  0  0  0  0  0  0  0  0  0  0  0
   30.5650   31.7120   35.6360 C   0  0  0  0  0  0  0  0  0  0  0  0
   30.4830   32.2890   34.7430 H   0  0  0  0  0  0  0  0  0  0  0  0
   29.7470   32.1790   36.6620 C   0  0  0  0  0  3  0  0  0  0  0  0
   29.7620   31.5190   37.8700 C   0  0  0  0  0  3  0  0  0  0  0  0
   30.5500   30.4540   38.0400 N   0  0  0  0  0  0  0  0  0  0  0  0
  1  2  1  0  0  0  0
  1 22  1  0  0  0  0
  2 10  1  0  0  0  0
  3  7  1  0  0  0  0
  3  2  2  0  0  0  0
  4  3  1  0  0  0  0
  5  4  2  0  0  0  0
  5  6  1  0  0  0  0
  6  1  2  0  0  0  0
  8  4  1  0  0  0  0
  9  5  1  0  0  0  0
 10 11  1  0  0  0  0
 10 13  1  0  0  0  0
 10 12  1  0  0  0  0
 13 14  1  0  0  0  0
 14 15  2  0  0  0  0
 14 19  1  0  0  0  0
 15 20  1  0  0  0  0
 16 15  1  0  0  0  0
 17 16  2  0  0  0  0
 18 17  1  0  0  0  0
 18 13  2  0  0  0  0
 21 17  1  0  0  0  0
 22 23  1  0  0  0  0
 24 25  1  0  0  0  0
 24  6  1  0  0  0  0
 25 32  1  0  0  0  0
 26 25  2  0  0  0  0
 27 26  1  0  0  0  0
 28 26  1  0  0  0  0
 28 30  2  0  0  0  0
 29 28  1  0  0  0  0
 30 31  1  0  0  0  0
 31 32  2  0  0  0  0
M  END
>  <minimizedAffinity>
-5.34438181

$$$$

 OpenBabel03242512193D

 32 34  0  0  0  0  0  0  0  0999 V2000
   38.4270   29.2250   42.7430 C   0  0  0  0  0  0  0  0  0  0  0  0
   38.5890   27.9040   43.1070 C   0  0  0  0  0  0  0  0  0  0  0  0
   39.8660   27.3990   43.2640 C   0  0  0  0  0  0  0  0  0  0  0  0
   40.9410   28.2520   43.0460 C   0  0  0  0  0  0  0  0  0  0  0  0
   40.7260   29.5460   42.6890 C   0  0  0  0  0  0  0  0  0  0  0  0
   39.4640   30.0970   42.5220 C   0  0  0  0  0  0  0  0  0  0  0  0
   39.9470   26.3660   43.5480 H   0  0  0  0  0  0  0  0  0  0  0  0
   41.8930   27.7650   43.1930 H   0  0  0  0  0  0  0  0  0  0  0  0
   41.6660   30.0550   42.5640 H   0  0  0  0  0  0  0  0  0  0  0  0
   37.3330   27.1330   43.3020 C   0  0  0  0  0  0  0  0  0  0  0  0
   37.5670   26.4070   44.1360 H   0  0  0  0  0  0  0  0  0  0  0  0
   36.5120   27.7400   43.6360 H   0  0  0  0  0  0  0  0  0  0  0  0
   37.0490   26.3110   42.0760 C   0  0  0  0  0  0  0  0  0  0  0  0
   36.9890   24.9210   42.2390 C   0  0  0  0  0  0  0  0  0  0  0  0
   36.7210   24.1430   41.1200 C   0  0  0  0  0  0  0  0  0  0  0  0
   36.5330   24.7750   39.9360 N   0  0  0  0  0  0  0  0  0  0  0  0
   36.5970   26.1400   39.8100 C   0  0  0  0  0  0  0  0  0  0  0  0
   36.8560   26.9050   40.8840 N   0  0  0  0  0  0  0  0  0  0  0  0
   37.1400   24.4200   43.1830 H   0  0  0  0  0  0  0  0  0  0  0  0
   36.6630   23.0680   41.1860 H   0  0  0  0  0  0  0  0  0  0  0  0
   36.4280   26.5330   38.8080 H   0  0  0  0  0  0  0  0  0  0  0  0
   37.1520   29.8140   42.5650 O   0  0  0  0  0  0  0  0  0  0  0  0
   36.6950   30.1710   43.4030 H   0  0  0  0  0  0  0  0  0  0  0  0
   39.3190   31.4130   42.1630 O   0  0  0  0  0  0  0  0  0  0  0  0
   39.9630   31.9990   41.1210 C   0  0  0  0  0  0  0  0  0  0  0  0
   39.2150   31.6820   39.9750 C   0  0  0  0  0  0  0  0  0  0  0  0
   38.3070   31.1000   39.8540 H   0  0  0  0  0  0  0  0  0  0  0  0
   39.5810   32.1220   38.6940 C   0  0  0  0  0  0  0  0  0  0  0  0
   39.0960   31.9440   37.7620 H   0  0  0  0  0  0  0  0  0  0  0  0
   40.7300   32.9010   38.5700 C   0  0  0  0  0  3  0  0  0  0  0  0
   41.4490   33.2020   39.7050 C   0  0  0  0  0  3  0  0  0  0  0  0
   41.0430   32.7490   40.8940 N   0  0  0  0  0  0  0  0  0  0  0  0
  1  2  1  0  0  0  0
  2  3  2  0  0  0  0
  2 10  1  0  0  0  0
  3  7  1  0  0  0  0
  4  8  1  0  0  0  0
  4  3  1  0  0  0  0
  5  4  2  0  0  0  0
  6  5  1  0  0  0  0
  6  1  2  0  0  0  0
  9  5  1  0  0  0  0
 10 12  1  0  0  0  0
 10 11  1  0  0  0  0
 13 14  1  0  0  0  0
 13 10  1  0  0  0  0
 14 19  1  0  0  0  0
 15 20  1  0  0  0  0
 15 14  2  0  0  0  0
 16 15  1  0  0  0  0
 17 16  2  0  0  0  0
 17 18  1  0  0  0  0
 18 13  2  0  0  0  0
 21 17  1  0  0  0  0
 22  1  1  0  0  0  0
 22 23  1  0  0  0  0
 24  6  1  0  0  0  0
 25 24  1  0  0  0  0
 26 25  2  0  0  0  0
 27 26  1  0  0  0  0
 28 26  1  0  0  0  0
 29 28  1  0  0  0  0
 30 28  2  0  0  0  0
 30 31  1  0  0  0  0
 31 32  2  0  0  0  0
 32 25  1  0  0  0  0
M  END
>  <minimizedAffinity>
-5.29199696

$$$$

 OpenBabel03242512193D

 32 34  0  0  0  0  0  0  0  0999 V2000
   39.2120   29.1940   42.9090 C   0  0  0  0  0  0  0  0  0  0  0  0
   39.7030   27.9230   43.1270 C   0  0  0  0  0  0  0  0  0  0  0  0
   41.0270   27.6510   42.8370 C   0  0  0  0  0  0  0  0  0  0  0  0
   41.8130   28.6800   42.3340 C   0  0  0  0  0  0  0  0  0  0  0  0
   41.2800   29.9160   42.1390 C   0  0  0  0  0  0  0  0  0  0  0  0
   39.9580   30.2350   42.4160 C   0  0  0  0  0  0  0  0  0  0  0  0
   41.3680   26.6500   43.0210 H   0  0  0  0  0  0  0  0  0  0  0  0
   42.8290   28.3700   42.1400 H   0  0  0  0  0  0  0  0  0  0  0  0
   42.0290   30.5830   41.7470 H   0  0  0  0  0  0  0  0  0  0  0  0
   38.7270   26.9420   43.6710 C   0  0  0  0  0  0  0  0  0  0  0  0
   39.3060   26.3580   44.4460 H   0  0  0  0  0  0  0  0  0  0  0  0
   37.9020   27.4050   44.1790 H   0  0  0  0  0  0  0  0  0  0  0  0
   38.3350   25.9680   42.5950 C   0  0  0  0  0  0  0  0  0  0  0  0
   37.3540   26.3830   41.6850 C   0  0  0  0  0  0  0  0  0  0  0  0
   36.9810   25.5010   40.6780 C   0  0  0  0  0  0  0  0  0  0  0  0
   37.5890   24.2900   40.6360 N   0  0  0  0  0  0  0  0  0  0  0  0
   38.5470   23.9140   41.5440 C   0  0  0  0  0  0  0  0  0  0  0  0
   38.9170   24.7570   42.5230 N   0  0  0  0  0  0  0  0  0  0  0  0
   36.8710   27.3480   41.7210 H   0  0  0  0  0  0  0  0  0  0  0  0
   36.2320   25.7670   39.9490 H   0  0  0  0  0  0  0  0  0  0  0  0
   38.9640   22.9170   41.4080 H   0  0  0  0  0  0  0  0  0  0  0  0
   37.8690   29.5480   43.1830 O   0  0  0  0  0  0  0  0  0  0  0  0
   37.6570   29.8200   44.1420 H   0  0  0  0  0  0  0  0  0  0  0  0
   39.4870   31.5050   42.1980 O   0  0  0  0  0  0  0  0  0  0  0  0
   38.6430   31.8460   41.1900 C   0  0  0  0  0  0  0  0  0  0  0  0
   38.8750   33.2070   40.9340 C   0  0  0  0  0  0  0  0  0  0  0  0
   39.5600   33.9130   41.3930 H   0  0  0  0  0  0  0  0  0  0  0  0
   38.1760   33.9140   39.9440 C   0  0  0  0  0  0  0  0  0  0  0  0
   38.2670   34.9390   39.6650 H   0  0  0  0  0  0  0  0  0  0  0  0
   37.2210   33.2290   39.1970 C   0  0  0  0  0  3  0  0  0  0  0  0
   37.0080   31.8950   39.4620 C   0  0  0  0  0  3  0  0  0  0  0  0
   37.7100   31.2830   40.4210 N   0  0  0  0  0  0  0  0  0  0  0  0
  1  2  1  0  0  0  0
  1 22  1  0  0  0  0
  2 10  1  0  0  0  0
  3  7  1  0  0  0  0
  3  2  2  0  0  0  0
  4  3  1  0  0  0  0
  5  4  2  0  0  0  0
  5  6  1  0  0  0  0
  6  1  2  0  0  0  0
  8  4  1  0  0  0  0
  9  5  1  0  0  0  0
 10 12  1  0  0  0  0
 10 11  1  0  0  0  0
 13 10  1  0  0  0  0
 14 19  1  0  0  0  0
 14 13  2  0  0  0  0
 15 14  1  0  0  0  0
 16 15  2  0  0  0  0
 16 17  1  0  0  0  0
 17 18  2  0  0  0  0
 18 13  1  0  0  0  0
 20 15  1  0  0  0  0
 21 17  1  0  0  0  0
 22 23  1  0  0  0  0
 24  6  1  0  0  0  0
 25 24  1  0  0  0  0
 26 25  1  0  0  0  0
 26 27  1  0  0  0  0
 28 26  2  0  0  0  0
 29 28  1  0  0  0  0
 30 31  2  0  0  0  0
 30 28  1  0  0  0  0
 31 32  1  0  0  0  0
 32 25  2  0  0  0  0
M  END
>  <minimizedAffinity>
-5.2642107

$$$$

 OpenBabel03242512193D

 32 34  0  0  0  0  0  0  0  0999 V2000
   35.0010   29.4720   39.2230 C   0  0  0  0  0  0  0  0  0  0  0  0
   36.1900   29.9860   39.6990 C   0  0  0  0  0  0  0  0  0  0  0  0
   37.2530   30.1460   38.8310 C   0  0  0  0  0  0  0  0  0  0  0  0
   37.0760   29.7790   37.5020 C   0  0  0  0  0  0  0  0  0  0  0  0
   35.8840   29.2790   37.0840 C   0  0  0  0  0  0  0  0  0  0  0  0
   34.7890   29.1010   37.9180 C   0  0  0  0  0  0  0  0  0  0  0  0
   38.1600   30.5480   39.2430 H   0  0  0  0  0  0  0  0  0  0  0  0
   37.9610   29.9410   36.9050 H   0  0  0  0  0  0  0  0  0  0  0  0
   35.9270   29.0510   36.0320 H   0  0  0  0  0  0  0  0  0  0  0  0
   36.2080   30.3280   41.1460 C   0  0  0  0  0  0  0  0  0  0  0  0
   36.7230   31.3310   41.1990 H   0  0  0  0  0  0  0  0  0  0  0  0
   35.2250   30.4580   41.5610 H   0  0  0  0  0  0  0  0  0  0  0  0
   37.0780   29.3510   41.8870 C   0  0  0  0  0  0  0  0  0  0  0  0
   36.5550   28.0710   42.1100 C   0  0  0  0  0  0  0  0  0  0  0  0
   37.3450   27.1510   42.7860 C   0  0  0  0  0  0  0  0  0  0  0  0
   38.5770   27.5460   43.1910 N   0  0  0  0  0  0  0  0  0  0  0  0
   39.0600   28.8080   42.9570 C   0  0  0  0  0  0  0  0  0  0  0  0
   38.3060   29.7090   42.3030 N   0  0  0  0  0  0  0  0  0  0  0  0
   35.5730   27.7590   41.7870 H   0  0  0  0  0  0  0  0  0  0  0  0
   36.9940   26.1500   42.9860 H   0  0  0  0  0  0  0  0  0  0  0  0
   40.0640   29.0100   43.3290 H   0  0  0  0  0  0  0  0  0  0  0  0
   33.8690   29.2800   40.0500 O   0  0  0  0  0  0  0  0  0  0  0  0
   33.2630   30.0890   40.1870 H   0  0  0  0  0  0  0  0  0  0  0  0
   33.6130   28.5930   37.4280 O   0  0  0  0  0  0  0  0  0  0  0  0
   32.8190   29.2290   36.5290 C   0  0  0  0  0  0  0  0  0  0  0  0
   31.7220   29.7180   37.2560 C   0  0  0  0  0  0  0  0  0  0  0  0
   31.4780   29.6490   38.3120 H   0  0  0  0  0  0  0  0  0  0  0  0
   30.6810   30.4380   36.6520 C   0  0  0  0  0  0  0  0  0  0  0  0
   29.8070   30.8530   37.0990 H   0  0  0  0  0  0  0  0  0  0  0  0
   30.7520   30.6690   35.2800 C   0  0  0  0  0  3  0  0  0  0  0  0
   31.8350   30.1830   34.5830 C   0  0  0  0  0  3  0  0  0  0  0  0
   32.7910   29.5040   35.2240 N   0  0  0  0  0  0  0  0  0  0  0  0
  1  2  1  0  0  0  0
  1 22  1  0  0  0  0
  2 10  1  0  0  0  0
  3  7  1  0  0  0  0
  3  2  2  0  0  0  0
  4  3  1  0  0  0  0
  5  4  2  0  0  0  0
  5  6  1  0  0  0  0
  6  1  2  0  0  0  0
  8  4  1  0  0  0  0
  9  5  1  0  0  0  0
 10 11  1  0  0  0  0
 10 12  1  0  0  0  0
 10 13  1  0  0  0  0
 13 14  2  0  0  0  0
 13 18  1  0  0  0  0
 14 15  1  0  0  0  0
 15 20  1  0  0  0  0
 15 16  2  0  0  0  0
 17 16  1  0  0  0  0
 17 21  1  0  0  0  0
 18 17  2  0  0  0  0
 19 14  1  0  0  0  0
 22 23  1  0  0  0  0
 24  6  1  0  0  0  0
 25 26  1  0  0  0  0
 25 24  1  0  0  0  0
 26 27  1  0  0  0  0
 28 29  1  0  0  0  0
 28 26  2  0  0  0  0
 30 28  1  0  0  0  0
 31 32  1  0  0  0  0
 31 30  2  0  0  0  0
 32 25  2  0  0  0  0
M  END
>  <minimizedAffinity>
-5.2129302

$$$$
