
 OpenBabel03252509073D

 40 43  0  0  0  0  0  0  0  0999 V2000
   47.5950   31.7620   39.1860 C   0  0  0  0  0  0  0  0  0  0  0  0
   47.1210   33.0310   39.0260 C   0  0  0  0  0  0  0  0  0  0  0  0
   47.7300   33.8900   38.1270 C   0  0  0  0  0  0  0  0  0  0  0  0
   48.8120   33.4680   37.3930 C   0  0  0  0  0  0  0  0  0  0  0  0
   49.3290   32.1790   37.5240 C   0  0  0  0  0  0  0  0  0  0  0  0
   48.6940   31.3320   38.4410 C   0  0  0  0  0  0  0  0  0  0  0  0
   47.3860   34.9030   37.9700 H   0  0  0  0  0  0  0  0  0  0  0  0
   49.3640   34.0430   36.6690 H   0  0  0  0  0  0  0  0  0  0  0  0
   50.1620   31.7630   36.9990 H   0  0  0  0  0  0  0  0  0  0  0  0
   49.0680   30.3170   38.5730 H   0  0  0  0  0  0  0  0  0  0  0  0
   45.2460   35.5620   43.1160 Cl  0  0  0  0  0  0  0  0  0  0  0  0
   45.0990   34.7250   41.5890 C   0  0  0  0  0  0  0  0  0  0  0  0
   46.1930   34.2420   40.9470 C   0  0  0  0  0  0  0  0  0  0  0  0
   45.9730   33.5790   39.7490 C   0  0  0  0  0  0  0  0  0  0  0  0
   44.7130   33.4170   39.2280 C   0  0  0  0  0  0  0  0  0  0  0  0
   43.6320   33.9070   39.8850 C   0  0  0  0  0  0  0  0  0  0  0  0
   43.8360   34.5640   41.0730 C   0  0  0  0  0  0  0  0  0  0  0  0
   44.6000   32.8880   38.2810 H   0  0  0  0  0  0  0  0  0  0  0  0
   42.6640   33.7540   39.4370 H   0  0  0  0  0  0  0  0  0  0  0  0
   42.9520   34.9470   41.5810 H   0  0  0  0  0  0  0  0  0  0  0  0
   49.5470   35.7060   41.8720 C   0  0  0  0  0  0  0  0  0  0  0  0
   48.2850   35.5360   41.2950 C   0  0  0  0  0  0  0  0  0  0  0  0
   47.5020   34.4290   41.5410 C   0  0  0  0  0  0  0  0  0  0  0  0
   48.0640   33.5280   42.3890 N   0  0  0  0  0  0  0  0  0  0  0  0
   49.2640   33.6770   42.9450 C   0  0  0  0  0  0  0  0  0  0  0  0
   49.9970   34.7620   42.6850 N   0  0  0  0  0  0  0  0  0  0  0  0
   50.1020   36.5990   41.6320 H   0  0  0  0  0  0  0  0  0  0  0  0
   47.8770   36.2830   40.6240 H   0  0  0  0  0  0  0  0  0  0  0  0
   49.5420   32.8500   43.5940 H   0  0  0  0  0  0  0  0  0  0  0  0
   46.8480   30.6770   40.2330 S   0  0  0  0  0  0  0  0  0  0  0  0
   47.2250   29.2440   39.9220 O   0  0  0  0  0  0  0  0  0  0  0  0
   47.5640   30.9280   41.6090 O   0  0  0  0  0  0  0  0  0  0  0  0
   45.1740   30.6250   40.6010 C   0  0  0  0  0  0  0  0  0  0  0  0
   44.7980   31.0080   41.9180 C   0  0  0  0  0  0  0  0  0  0  0  0
   45.5990   31.3140   42.6260 H   0  0  0  0  0  0  0  0  0  0  0  0
   43.5390   31.0760   42.5290 C   0  0  0  0  0  0  0  0  0  0  0  0
   43.4130   31.3880   43.5430 H   0  0  0  0  0  0  0  0  0  0  0  0
   42.5370   30.7000   41.6710 C   0  0  0  0  0  3  0  0  0  0  0  0
   42.8320   30.3220   40.3960 C   0  0  0  0  0  3  0  0  0  0  0  0
   44.0660   30.2960   39.9250 N   0  0  0  0  0  0  0  0  0  0  0  0
  1 30  1  0  0  0  0
  2  1  1  0  0  0  0
  2 14  1  0  0  0  0
  3  2  2  0  0  0  0
  4  5  2  0  0  0  0
  4  3  1  0  0  0  0
  5  6  1  0  0  0  0
  6 10  1  0  0  0  0
  6  1  2  0  0  0  0
  7  3  1  0  0  0  0
  8  4  1  0  0  0  0
  9  5  1  0  0  0  0
 12 11  1  0  0  0  0
 13 23  1  0  0  0  0
 13 12  2  0  0  0  0
 14 13  1  0  0  0  0
 15 14  2  0  0  0  0
 15 16  1  0  0  0  0
 16 17  2  0  0  0  0
 17 20  1  0  0  0  0
 17 12  1  0  0  0  0
 18 15  1  0  0  0  0
 19 16  1  0  0  0  0
 21 26  1  0  0  0  0
 22 23  1  0  0  0  0
 22 21  2  0  0  0  0
 23 24  2  0  0  0  0
 24 25  1  0  0  0  0
 25 29  1  0  0  0  0
 26 25  2  0  0  0  0
 27 21  1  0  0  0  0
 28 22  1  0  0  0  0
 30 33  1  0  0  0  0
 30 32  2  0  0  0  0
 31 30  2  0  0  0  0
 33 34  1  0  0  0  0
 34 36  2  0  0  0  0
 34 35  1  0  0  0  0
 36 37  1  0  0  0  0
 38 36  1  0  0  0  0
 39 38  2  0  0  0  0
 40 39  1  0  0  0  0
 40 33  2  0  0  0  0
M  END
>  <minimizedAffinity>
-4.68451929

>  <minimizedRMSD>
0.932639122

$$$$
