
 OpenBabel03252506123D

 35 37  0  0  0  0  0  0  0  0999 V2000
   45.1100   33.5380   41.1520 F   0  0  0  0  0  0  0  0  0  0  0  0
   46.3020   34.1090   41.0400 C   0  0  0  0  0  0  0  0  0  0  0  0
   46.8130   34.7940   42.1170 C   0  0  0  0  0  0  0  0  0  0  0  0
   48.0660   35.4200   42.0900 C   0  0  0  0  0  0  0  0  0  0  0  0
   48.8390   35.3530   40.9320 C   0  0  0  0  0  0  0  0  0  0  0  0
   48.2910   34.6580   39.8810 C   0  0  0  0  0  0  0  0  0  0  0  0
   47.0780   34.0460   39.8880 C   0  0  0  0  0  0  0  0  0  0  0  0
   48.4020   35.9450   42.9830 H   0  0  0  0  0  0  0  0  0  0  0  0
   49.7970   35.8510   40.9610 H   0  0  0  0  0  0  0  0  0  0  0  0
   48.9900   34.6720   39.0500 H   0  0  0  0  0  0  0  0  0  0  0  0
   45.4640   33.9940   45.4360 C   0  0  0  0  0  0  0  0  0  0  0  0
   44.6150   35.1140   45.6700 C   0  0  0  0  0  0  0  0  0  0  0  0
   44.5150   36.1360   44.6820 C   0  0  0  0  0  0  0  0  0  0  0  0
   45.2600   35.9620   43.5530 N   0  0  0  0  0  0  0  0  0  0  0  0
   46.0460   34.8990   43.3640 C   0  0  0  0  0  0  0  0  0  0  0  0
   46.1450   33.9310   44.2930 N   0  0  0  0  0  0  0  0  0  0  0  0
   44.0530   35.1820   46.5940 H   0  0  0  0  0  0  0  0  0  0  0  0
   43.8800   36.9790   44.8520 H   0  0  0  0  0  0  0  0  0  0  0  0
   45.5470   32.9960   46.4270 N   0  0  0  0  0  0  0  0  0  0  0  0
   45.4580   31.9730   46.1720 H   0  0  0  0  0  0  0  0  0  0  0  0
   45.6990   33.3070   47.4240 H   0  0  0  0  0  0  0  0  0  0  0  0
   46.6190   33.3770   38.7840 O   0  0  0  0  0  0  0  0  0  0  0  0
   48.0900   34.6380   36.9850 O   0  0  0  0  0  0  0  0  0  0  0  0
   47.3250   33.3600   37.2600 P   0  0  2  0  0  0  0  0  0  0  0  0
   46.0710   33.1720   36.1090 O   0  0  0  0  0  0  0  0  0  0  0  0
   46.4520   33.1580   35.1930 H   0  0  0  0  0  0  0  0  0  0  0  0
   48.3510   32.0520   36.9960 O   0  0  0  0  0  0  0  0  0  0  0  0
   49.1270   31.3900   37.9020 C   0  0  0  0  0  0  0  0  0  0  0  0
   50.2570   31.8190   38.5800 C   0  0  0  0  0  0  0  0  0  0  0  0
   50.5470   32.8140   38.3470 H   0  0  0  0  0  0  0  0  0  0  0  0
   50.9020   30.9810   39.4650 C   0  0  0  0  0  0  0  0  0  0  0  0
   51.7880   31.3750   39.9710 H   0  0  0  0  0  0  0  0  0  0  0  0
   50.4610   29.6910   39.7170 C   0  0  0  0  0  3  0  0  0  0  0  0
   49.3400   29.3180   39.0200 C   0  0  0  0  0  3  0  0  0  0  0  0
   48.6940   30.1180   38.1500 N   0  0  0  0  0  0  0  0  0  0  0  0
  2  1  1  0  0  0  0
  2  3  1  0  0  0  0
  3 15  1  0  0  0  0
  4  3  2  0  0  0  0
  4  8  1  0  0  0  0
  5  9  1  0  0  0  0
  5  4  1  0  0  0  0
  6  7  1  0  0  0  0
  6  5  2  0  0  0  0
  7  2  2  0  0  0  0
 10  6  1  0  0  0  0
 11 12  1  0  0  0  0
 11 19  1  0  0  0  0
 12 17  1  0  0  0  0
 13 18  1  0  0  0  0
 13 12  2  0  0  0  0
 14 13  1  0  0  0  0
 15 14  2  0  0  0  0
 15 16  1  0  0  0  0
 16 11  2  0  0  0  0
 19 21  1  0  0  0  0
 20 19  1  0  0  0  0
 22  7  1  0  0  0  0
 24 23  2  6  0  0  0
 24 22  1  0  0  0  0
 25 24  1  0  0  0  0
 26 25  1  0  0  0  0
 27 24  1  0  0  0  0
 27 28  1  0  0  0  0
 28 35  2  0  0  0  0
 28 29  1  0  0  0  0
 29 31  2  0  0  0  0
 30 29  1  0  0  0  0
 31 33  1  0  0  0  0
 31 32  1  0  0  0  0
 34 33  2  0  0  0  0
 35 34  1  0  0  0  0
M  END
>  <minimizedAffinity>
-5.93730354

>  <minimizedRMSD>
1.15480244

$$$$
