
 OpenBabel03252506143D

 35 37  0  0  0  0  0  0  0  0999 V2000
   40.3100   30.4550   39.7320 F   0  0  0  0  0  0  0  0  0  0  0  0
   39.2800   31.2900   39.7520 C   0  0  0  0  0  0  0  0  0  0  0  0
   39.5160   32.6380   39.6250 C   0  0  0  0  0  0  0  0  0  0  0  0
   38.4880   33.5900   39.6270 C   0  0  0  0  0  0  0  0  0  0  0  0
   37.1660   33.1680   39.7630 C   0  0  0  0  0  0  0  0  0  0  0  0
   36.9750   31.8130   39.8860 C   0  0  0  0  0  0  0  0  0  0  0  0
   37.9590   30.8750   39.8860 C   0  0  0  0  0  0  0  0  0  0  0  0
   38.7550   34.6400   39.5230 H   0  0  0  0  0  0  0  0  0  0  0  0
   36.4100   33.9390   39.7590 H   0  0  0  0  0  0  0  0  0  0  0  0
   35.9110   31.6170   39.9740 H   0  0  0  0  0  0  0  0  0  0  0  0
   42.6140   33.8620   38.0830 C   0  0  0  0  0  0  0  0  0  0  0  0
   43.4310   34.0770   39.2300 C   0  0  0  0  0  0  0  0  0  0  0  0
   42.9070   33.7990   40.5250 C   0  0  0  0  0  0  0  0  0  0  0  0
   41.6260   33.3340   40.5730 N   0  0  0  0  0  0  0  0  0  0  0  0
   40.8870   33.1430   39.4780 C   0  0  0  0  0  0  0  0  0  0  0  0
   41.3760   33.4040   38.2520 N   0  0  0  0  0  0  0  0  0  0  0  0
   44.4420   34.4500   39.1110 H   0  0  0  0  0  0  0  0  0  0  0  0
   43.5150   33.9580   41.3900 H   0  0  0  0  0  0  0  0  0  0  0  0
   43.1540   34.1460   36.8120 N   0  0  0  0  0  0  0  0  0  0  0  0
   43.0650   33.4490   36.0210 H   0  0  0  0  0  0  0  0  0  0  0  0
   43.6450   35.0710   36.6830 H   0  0  0  0  0  0  0  0  0  0  0  0
   37.6640   29.5440   40.0180 O   0  0  0  0  0  0  0  0  0  0  0  0
   35.2470   28.8910   40.8680 O   0  0  0  0  0  0  0  0  0  0  0  0
   36.7200   28.8430   41.2170 P   0  0  2  0  0  0  0  0  0  0  0  0
   37.0030   29.7030   42.6700 O   0  0  0  0  0  0  0  0  0  0  0  0
   36.4590   29.3160   43.4050 H   0  0  0  0  0  0  0  0  0  0  0  0
   37.1350   27.2500   41.5720 O   0  0  0  0  0  0  0  0  0  0  0  0
   38.2270   26.7930   42.2500 C   0  0  0  0  0  0  0  0  0  0  0  0
   38.5750   25.4960   42.5920 C   0  0  0  0  0  0  0  0  0  0  0  0
   37.8750   24.7630   42.2710 H   0  0  0  0  0  0  0  0  0  0  0  0
   39.7380   25.2440   43.2880 C   0  0  0  0  0  0  0  0  0  0  0  0
   39.9620   24.2000   43.5310 H   0  0  0  0  0  0  0  0  0  0  0  0
   40.6030   26.2570   43.6730 C   0  0  0  0  0  3  0  0  0  0  0  0
   40.2110   27.5190   43.3090 C   0  0  0  0  0  3  0  0  0  0  0  0
   39.0800   27.7900   42.6300 N   0  0  0  0  0  0  0  0  0  0  0  0
  1  2  1  0  0  0  0
  2  7  1  0  0  0  0
  3  4  1  0  0  0  0
  3  2  2  0  0  0  0
  4  5  2  0  0  0  0
  5  6  1  0  0  0  0
  6  7  2  0  0  0  0
  6 10  1  0  0  0  0
  7 22  1  0  0  0  0
  8  4  1  0  0  0  0
  9  5  1  0  0  0  0
 11 16  2  0  0  0  0
 11 12  1  0  0  0  0
 12 13  2  0  0  0  0
 13 14  1  0  0  0  0
 13 18  1  0  0  0  0
 15  3  1  0  0  0  0
 15 14  2  0  0  0  0
 16 15  1  0  0  0  0
 17 12  1  0  0  0  0
 19 11  1  0  0  0  0
 20 19  1  0  0  0  0
 21 19  1  0  0  0  0
 22 24  1  0  0  0  0
 24 23  2  6  0  0  0
 24 27  1  0  0  0  0
 24 25  1  0  0  0  0
 25 26  1  0  0  0  0
 27 28  1  0  0  0  0
 28 29  2  0  0  0  0
 28 35  1  0  0  0  0
 29 31  1  0  0  0  0
 30 29  1  0  0  0  0
 31 32  1  0  0  0  0
 31 33  2  0  0  0  0
 34 33  1  0  0  0  0
 35 34  2  0  0  0  0
M  END
>  <minimizedAffinity>
-6.26860571

$$$$

 OpenBabel03252506143D

 35 37  0  0  0  0  0  0  0  0999 V2000
   37.9240   27.7150   39.5800 F   0  0  0  0  0  0  0  0  0  0  0  0
   37.6400   27.7490   40.8750 C   0  0  0  0  0  0  0  0  0  0  0  0
   37.2070   26.5980   41.4890 C   0  0  0  0  0  0  0  0  0  0  0  0
   36.8920   26.5390   42.8530 C   0  0  0  0  0  0  0  0  0  0  0  0
   37.0190   27.6880   43.6330 C   0  0  0  0  0  0  0  0  0  0  0  0
   37.4560   28.8160   42.9800 C   0  0  0  0  0  0  0  0  0  0  0  0
   37.7650   28.8910   41.6590 C   0  0  0  0  0  0  0  0  0  0  0  0
   36.5540   25.5910   43.2660 H   0  0  0  0  0  0  0  0  0  0  0  0
   36.7640   27.5930   44.6780 H   0  0  0  0  0  0  0  0  0  0  0  0
   37.5200   29.6300   43.6940 H   0  0  0  0  0  0  0  0  0  0  0  0
   37.5820   23.1000   40.4390 C   0  0  0  0  0  0  0  0  0  0  0  0
   36.7570   23.0670   39.2780 C   0  0  0  0  0  0  0  0  0  0  0  0
   36.0770   24.2500   38.8680 C   0  0  0  0  0  0  0  0  0  0  0  0
   36.2730   25.3590   39.6370 N   0  0  0  0  0  0  0  0  0  0  0  0
   37.0540   25.3560   40.7200 C   0  0  0  0  0  0  0  0  0  0  0  0
   37.6980   24.2430   41.1130 N   0  0  0  0  0  0  0  0  0  0  0  0
   36.6510   22.1450   38.7170 H   0  0  0  0  0  0  0  0  0  0  0  0
   35.4560   24.2310   37.9970 H   0  0  0  0  0  0  0  0  0  0  0  0
   38.2430   21.9170   40.8270 N   0  0  0  0  0  0  0  0  0  0  0  0
   39.2740   21.9300   41.0670 H   0  0  0  0  0  0  0  0  0  0  0  0
   37.6750   21.0290   40.8660 H   0  0  0  0  0  0  0  0  0  0  0  0
   38.1910   30.0670   41.1000 O   0  0  0  0  0  0  0  0  0  0  0  0
   37.8300   32.6610   40.7350 O   0  0  0  0  0  0  0  0  0  0  0  0
   37.2190   31.2960   40.4950 P   0  0  2  0  0  0  0  0  0  0  0  0
   35.7010   31.1910   41.2800 O   0  0  0  0  0  0  0  0  0  0  0  0
   35.0970   31.9050   40.9460 H   0  0  0  0  0  0  0  0  0  0  0  0
   36.8670   31.1460   38.8550 O   0  0  0  0  0  0  0  0  0  0  0  0
   36.2870   30.0940   38.2080 C   0  0  0  0  0  0  0  0  0  0  0  0
   36.5650   29.5620   36.9590 C   0  0  0  0  0  0  0  0  0  0  0  0
   37.3510   30.0610   36.4440 H   0  0  0  0  0  0  0  0  0  0  0  0
   35.8530   28.4830   36.4840 C   0  0  0  0  0  0  0  0  0  0  0  0
   36.1170   28.1050   35.4910 H   0  0  0  0  0  0  0  0  0  0  0  0
   34.8390   27.8850   37.2170 C   0  0  0  0  0  3  0  0  0  0  0  0
   34.6050   28.4510   38.4440 C   0  0  0  0  0  3  0  0  0  0  0  0
   35.2880   29.5050   38.9300 N   0  0  0  0  0  0  0  0  0  0  0  0
  1  2  1  0  0  0  0
  2  3  2  0  0  0  0
  2  7  1  0  0  0  0
  3  4  1  0  0  0  0
  4  8  1  0  0  0  0
  4  5  2  0  0  0  0
  5  9  1  0  0  0  0
  6  5  1  0  0  0  0
  6 10  1  0  0  0  0
  7  6  2  0  0  0  0
 11 19  1  0  0  0  0
 11 16  1  0  0  0  0
 12 11  2  0  0  0  0
 13 12  1  0  0  0  0
 13 14  2  0  0  0  0
 14 15  1  0  0  0  0
 15 16  2  0  0  0  0
 15  3  1  0  0  0  0
 17 12  1  0  0  0  0
 18 13  1  0  0  0  0
 19 21  1  0  0  0  0
 19 20  1  0  0  0  0
 22  7  1  0  0  0  0
 24 23  2  1  0  0  0
 24 22  1  0  0  0  0
 24 25  1  0  0  0  0
 26 25  1  0  0  0  0
 27 24  1  0  0  0  0
 28 27  1  0  0  0  0
 28 35  1  0  0  0  0
 29 28  2  0  0  0  0
 30 29  1  0  0  0  0
 31 29  1  0  0  0  0
 31 33  2  0  0  0  0
 32 31  1  0  0  0  0
 33 34  1  0  0  0  0
 34 35  2  0  0  0  0
M  END
>  <minimizedAffinity>
-6.12573814

$$$$

 OpenBabel03252506143D

 35 37  0  0  0  0  0  0  0  0999 V2000
   39.0920   27.6710   40.0180 F   0  0  0  0  0  0  0  0  0  0  0  0
   38.5010   27.8610   41.1900 C   0  0  0  0  0  0  0  0  0  0  0  0
   37.6140   26.9160   41.6460 C   0  0  0  0  0  0  0  0  0  0  0  0
   36.9500   27.0300   42.8750 C   0  0  0  0  0  0  0  0  0  0  0  0
   37.1910   28.1430   43.6800 C   0  0  0  0  0  0  0  0  0  0  0  0
   38.0850   29.0630   43.1860 C   0  0  0  0  0  0  0  0  0  0  0  0
   38.7370   28.9680   41.9980 C   0  0  0  0  0  0  0  0  0  0  0  0
   36.2610   26.2400   43.1670 H   0  0  0  0  0  0  0  0  0  0  0  0
   36.6560   28.1860   44.6170 H   0  0  0  0  0  0  0  0  0  0  0  0
   38.1900   29.8690   43.9050 H   0  0  0  0  0  0  0  0  0  0  0  0
   37.5930   23.4290   40.4960 C   0  0  0  0  0  0  0  0  0  0  0  0
   36.7630   23.5210   39.3410 C   0  0  0  0  0  0  0  0  0  0  0  0
   36.2180   24.7840   38.9690 C   0  0  0  0  0  0  0  0  0  0  0  0
   36.5390   25.8420   39.7680 N   0  0  0  0  0  0  0  0  0  0  0  0
   37.3210   25.7210   40.8440 C   0  0  0  0  0  0  0  0  0  0  0  0
   37.8380   24.5320   41.2000 N   0  0  0  0  0  0  0  0  0  0  0  0
   36.5530   22.6330   38.7550 H   0  0  0  0  0  0  0  0  0  0  0  0
   35.5950   24.8590   38.1030 H   0  0  0  0  0  0  0  0  0  0  0  0
   38.1200   22.1700   40.8450 N   0  0  0  0  0  0  0  0  0  0  0  0
   39.1460   22.0610   41.0780 H   0  0  0  0  0  0  0  0  0  0  0  0
   37.4570   21.3490   40.8640 H   0  0  0  0  0  0  0  0  0  0  0  0
   39.6100   29.9430   41.5920 O   0  0  0  0  0  0  0  0  0  0  0  0
   39.9310   31.4460   39.4410 O   0  0  0  0  0  0  0  0  0  0  0  0
   39.2200   31.3570   40.7750 P   0  0  2  0  0  0  0  0  0  0  0  0
   39.6800   32.6750   41.7680 O   0  0  0  0  0  0  0  0  0  0  0  0
   39.4640   33.5310   41.3160 H   0  0  0  0  0  0  0  0  0  0  0  0
   37.5690   31.5670   40.5190 O   0  0  0  0  0  0  0  0  0  0  0  0
   36.6770   30.6800   39.9910 C   0  0  0  0  0  0  0  0  0  0  0  0
   35.6130   30.0320   40.5960 C   0  0  0  0  0  0  0  0  0  0  0  0
   35.4890   30.2730   41.6230 H   0  0  0  0  0  0  0  0  0  0  0  0
   34.8220   29.1630   39.8750 C   0  0  0  0  0  0  0  0  0  0  0  0
   33.9950   28.6800   40.4050 H   0  0  0  0  0  0  0  0  0  0  0  0
   35.0470   28.8980   38.5330 C   0  0  0  0  0  3  0  0  0  0  0  0
   36.1120   29.5660   37.9840 C   0  0  0  0  0  3  0  0  0  0  0  0
   36.8990   30.4190   38.6690 N   0  0  0  0  0  0  0  0  0  0  0  0
  1  2  1  0  0  0  0
  2  3  2  0  0  0  0
  2  7  1  0  0  0  0
  3  4  1  0  0  0  0
  4  8  1  0  0  0  0
  4  5  2  0  0  0  0
  5  9  1  0  0  0  0
  6  5  1  0  0  0  0
  6 10  1  0  0  0  0
  7  6  2  0  0  0  0
 11 19  1  0  0  0  0
 11 16  1  0  0  0  0
 12 11  2  0  0  0  0
 13 12  1  0  0  0  0
 13 14  2  0  0  0  0
 14 15  1  0  0  0  0
 15 16  2  0  0  0  0
 15  3  1  0  0  0  0
 17 12  1  0  0  0  0
 18 13  1  0  0  0  0
 19 21  1  0  0  0  0
 19 20  1  0  0  0  0
 22  7  1  0  0  0  0
 24 23  2  6  0  0  0
 24 22  1  0  0  0  0
 24 25  1  0  0  0  0
 26 25  1  0  0  0  0
 27 24  1  0  0  0  0
 28 27  1  0  0  0  0
 28 29  1  0  0  0  0
 29 30  1  0  0  0  0
 31 32  1  0  0  0  0
 31 29  2  0  0  0  0
 33 31  1  0  0  0  0
 34 33  2  0  0  0  0
 34 35  1  0  0  0  0
 35 28  2  0  0  0  0
M  END
>  <minimizedAffinity>
-5.99185419

$$$$

 OpenBabel03252506143D

 35 37  0  0  0  0  0  0  0  0999 V2000
   39.6180   29.2920   42.3100 F   0  0  0  0  0  0  0  0  0  0  0  0
   38.3710   29.2550   41.8590 C   0  0  0  0  0  0  0  0  0  0  0  0
   37.7200   28.0450   41.8080 C   0  0  0  0  0  0  0  0  0  0  0  0
   36.4020   27.9130   41.3530 C   0  0  0  0  0  0  0  0  0  0  0  0
   35.7080   29.0470   40.9320 C   0  0  0  0  0  0  0  0  0  0  0  0
   36.3950   30.2350   41.0000 C   0  0  0  0  0  0  0  0  0  0  0  0
   37.6730   30.3810   41.4370 C   0  0  0  0  0  0  0  0  0  0  0  0
   35.9540   26.9210   41.3430 H   0  0  0  0  0  0  0  0  0  0  0  0
   34.6940   28.8940   40.5900 H   0  0  0  0  0  0  0  0  0  0  0  0
   35.7460   31.0340   40.6550 H   0  0  0  0  0  0  0  0  0  0  0  0
   38.6940   24.5120   42.0170 C   0  0  0  0  0  0  0  0  0  0  0  0
   39.6670   24.5520   43.0580 C   0  0  0  0  0  0  0  0  0  0  0  0
   39.9790   25.7960   43.6770 C   0  0  0  0  0  0  0  0  0  0  0  0
   39.3050   26.8880   43.2170 N   0  0  0  0  0  0  0  0  0  0  0  0
   38.3980   26.8160   42.2400 C   0  0  0  0  0  0  0  0  0  0  0  0
   38.0990   25.6450   41.6510 N   0  0  0  0  0  0  0  0  0  0  0  0
   40.1620   23.6380   43.3690 H   0  0  0  0  0  0  0  0  0  0  0  0
   40.7090   25.8320   44.4590 H   0  0  0  0  0  0  0  0  0  0  0  0
   38.4030   23.2700   41.4180 N   0  0  0  0  0  0  0  0  0  0  0  0
   37.4000   22.9600   41.2810 H   0  0  0  0  0  0  0  0  0  0  0  0
   39.2150   22.6690   41.1160 H   0  0  0  0  0  0  0  0  0  0  0  0
   38.2730   31.6130   41.4640 O   0  0  0  0  0  0  0  0  0  0  0  0
   39.5160   33.7120   40.4440 O   0  0  0  0  0  0  0  0  0  0  0  0
   38.4610   32.6620   40.1660 P   0  0  2  0  0  0  0  0  0  0  0  0
   36.9500   33.4140   39.8830 O   0  0  0  0  0  0  0  0  0  0  0  0
   37.0220   34.0440   39.1190 H   0  0  0  0  0  0  0  0  0  0  0  0
   38.8380   31.8940   38.7150 O   0  0  0  0  0  0  0  0  0  0  0  0
   38.2510   30.7920   38.1650 C   0  0  0  0  0  0  0  0  0  0  0  0
   37.0490   30.6770   37.4870 C   0  0  0  0  0  0  0  0  0  0  0  0
   36.5190   31.5930   37.3910 H   0  0  0  0  0  0  0  0  0  0  0  0
   36.6320   29.4550   37.0040 C   0  0  0  0  0  0  0  0  0  0  0  0
   35.6730   29.4240   36.4760 H   0  0  0  0  0  0  0  0  0  0  0  0
   37.3810   28.3000   37.1690 C   0  0  0  0  0  3  0  0  0  0  0  0
   38.5610   28.4700   37.8460 C   0  0  0  0  0  3  0  0  0  0  0  0
   38.9890   29.6540   38.3280 N   0  0  0  0  0  0  0  0  0  0  0  0
  2  1  1  0  0  0  0
  3  2  1  0  0  0  0
  3 15  1  0  0  0  0
  4  3  2  0  0  0  0
  5  6  2  0  0  0  0
  5  4  1  0  0  0  0
  6  7  1  0  0  0  0
  7 22  1  0  0  0  0
  7  2  2  0  0  0  0
  8  4  1  0  0  0  0
  9  5  1  0  0  0  0
 10  6  1  0  0  0  0
 11 12  1  0  0  0  0
 12 17  1  0  0  0  0
 12 13  2  0  0  0  0
 13 18  1  0  0  0  0
 14 13  1  0  0  0  0
 15 14  2  0  0  0  0
 16 11  2  0  0  0  0
 16 15  1  0  0  0  0
 19 11  1  0  0  0  0
 20 19  1  0  0  0  0
 21 19  1  0  0  0  0
 24 23  2  1  0  0  0
 24 22  1  0  0  0  0
 25 24  1  0  0  0  0
 26 25  1  0  0  0  0
 27 24  1  0  0  0  0
 28 35  1  0  0  0  0
 28 27  1  0  0  0  0
 29 28  2  0  0  0  0
 30 29  1  0  0  0  0
 31 33  2  0  0  0  0
 31 29  1  0  0  0  0
 32 31  1  0  0  0  0
 33 34  1  0  0  0  0
 34 35  2  0  0  0  0
M  END
>  <minimizedAffinity>
-5.9750123

$$$$

 OpenBabel03252506143D

 35 37  0  0  0  0  0  0  0  0999 V2000
   39.2960   29.8000   39.2730 F   0  0  0  0  0  0  0  0  0  0  0  0
   38.8260   31.0260   39.4550 C   0  0  0  0  0  0  0  0  0  0  0  0
   37.6520   31.3850   38.8370 C   0  0  0  0  0  0  0  0  0  0  0  0
   37.0790   32.6560   38.9800 C   0  0  0  0  0  0  0  0  0  0  0  0
   37.7130   33.6050   39.7810 C   0  0  0  0  0  0  0  0  0  0  0  0
   38.8820   33.2040   40.3800 C   0  0  0  0  0  0  0  0  0  0  0  0
   39.4530   31.9780   40.2520 C   0  0  0  0  0  0  0  0  0  0  0  0
   36.1470   32.8650   38.4580 H   0  0  0  0  0  0  0  0  0  0  0  0
   37.2320   34.5690   39.8600 H   0  0  0  0  0  0  0  0  0  0  0  0
   39.2680   34.0250   40.9780 H   0  0  0  0  0  0  0  0  0  0  0  0
   36.7800   29.2900   35.9520 C   0  0  0  0  0  0  0  0  0  0  0  0
   35.5950   28.6520   36.4180 C   0  0  0  0  0  0  0  0  0  0  0  0
   35.1060   28.9490   37.7230 C   0  0  0  0  0  0  0  0  0  0  0  0
   35.8290   29.8470   38.4500 N   0  0  0  0  0  0  0  0  0  0  0  0
   36.9370   30.4290   37.9830 C   0  0  0  0  0  0  0  0  0  0  0  0
   37.4030   30.1520   36.7520 N   0  0  0  0  0  0  0  0  0  0  0  0
   35.0740   27.9470   35.7790 H   0  0  0  0  0  0  0  0  0  0  0  0
   34.2170   28.4730   38.0780 H   0  0  0  0  0  0  0  0  0  0  0  0
   37.2450   28.9800   34.6580 N   0  0  0  0  0  0  0  0  0  0  0  0
   37.5200   29.7480   33.9850 H   0  0  0  0  0  0  0  0  0  0  0  0
   37.3070   27.9610   34.3900 H   0  0  0  0  0  0  0  0  0  0  0  0
   40.6270   31.6750   40.8920 O   0  0  0  0  0  0  0  0  0  0  0  0
   41.7630   31.3050   43.2500 O   0  0  0  0  0  0  0  0  0  0  0  0
   40.8040   30.6990   42.2470 P   0  0  2  0  0  0  0  0  0  0  0  0
   41.3950   29.1810   41.7200 O   0  0  0  0  0  0  0  0  0  0  0  0
   41.5120   28.5750   42.4960 H   0  0  0  0  0  0  0  0  0  0  0  0
   39.3560   30.3490   43.0320 O   0  0  0  0  0  0  0  0  0  0  0  0
   38.5090   29.3010   42.8150 C   0  0  0  0  0  0  0  0  0  0  0  0
   37.2580   29.2840   42.2210 C   0  0  0  0  0  0  0  0  0  0  0  0
   36.9250   30.2380   41.8920 H   0  0  0  0  0  0  0  0  0  0  0  0
   36.5580   28.1040   42.0980 C   0  0  0  0  0  0  0  0  0  0  0  0
   35.5740   28.1510   41.6190 H   0  0  0  0  0  0  0  0  0  0  0  0
   37.0610   26.8940   42.5540 C   0  0  0  0  0  3  0  0  0  0  0  0
   38.3020   26.9680   43.1330 C   0  0  0  0  0  3  0  0  0  0  0  0
   39.0040   28.1100   43.2640 N   0  0  0  0  0  0  0  0  0  0  0  0
  1  2  1  0  0  0  0
  2  7  1  0  0  0  0
  3  4  1  0  0  0  0
  3  2  2  0  0  0  0
  4  5  2  0  0  0  0
  5  9  1  0  0  0  0
  5  6  1  0  0  0  0
  6 10  1  0  0  0  0
  7  6  2  0  0  0  0
  7 22  1  0  0  0  0
  8  4  1  0  0  0  0
 11 12  2  0  0  0  0
 11 16  1  0  0  0  0
 12 13  1  0  0  0  0
 13 18  1  0  0  0  0
 13 14  2  0  0  0  0
 15 14  1  0  0  0  0
 15  3  1  0  0  0  0
 16 15  2  0  0  0  0
 17 12  1  0  0  0  0
 19 11  1  0  0  0  0
 20 19  1  0  0  0  0
 21 19  1  0  0  0  0
 22 24  1  0  0  0  0
 24 27  1  0  0  0  0
 24 23  2  1  0  0  0
 25 24  1  0  0  0  0
 25 26  1  0  0  0  0
 28 27  1  0  0  0  0
 28 35  1  0  0  0  0
 29 28  2  0  0  0  0
 30 29  1  0  0  0  0
 31 29  1  0  0  0  0
 31 33  2  0  0  0  0
 32 31  1  0  0  0  0
 33 34  1  0  0  0  0
 34 35  2  0  0  0  0
M  END
>  <minimizedAffinity>
-5.92333317

$$$$

 OpenBabel03252506143D

 35 37  0  0  0  0  0  0  0  0999 V2000
   38.1590   28.2380   39.7150 F   0  0  0  0  0  0  0  0  0  0  0  0
   37.7830   28.0100   40.9660 C   0  0  0  0  0  0  0  0  0  0  0  0
   37.8210   29.0450   41.8690 C   0  0  0  0  0  0  0  0  0  0  0  0
   37.4360   28.8970   43.2080 C   0  0  0  0  0  0  0  0  0  0  0  0
   36.9920   27.6530   43.6570 C   0  0  0  0  0  0  0  0  0  0  0  0
   36.9690   26.6470   42.7220 C   0  0  0  0  0  0  0  0  0  0  0  0
   37.3400   26.7720   41.4210 C   0  0  0  0  0  0  0  0  0  0  0  0
   37.4950   29.7640   43.8630 H   0  0  0  0  0  0  0  0  0  0  0  0
   36.7060   27.5890   44.6970 H   0  0  0  0  0  0  0  0  0  0  0  0
   36.5990   25.7410   43.1920 H   0  0  0  0  0  0  0  0  0  0  0  0
   37.7890   32.4560   40.5120 C   0  0  0  0  0  0  0  0  0  0  0  0
   39.1480   32.8420   40.6950 C   0  0  0  0  0  0  0  0  0  0  0  0
   40.0640   31.9240   41.2850 C   0  0  0  0  0  0  0  0  0  0  0  0
   39.5580   30.7080   41.6420 N   0  0  0  0  0  0  0  0  0  0  0  0
   38.2780   30.3770   41.4550 C   0  0  0  0  0  0  0  0  0  0  0  0
   37.4090   31.2400   40.8990 N   0  0  0  0  0  0  0  0  0  0  0  0
   39.4760   33.8280   40.3860 H   0  0  0  0  0  0  0  0  0  0  0  0
   41.0850   32.2080   41.4260 H   0  0  0  0  0  0  0  0  0  0  0  0
   36.9010   33.3810   39.9270 N   0  0  0  0  0  0  0  0  0  0  0  0
   36.2600   33.0880   39.1390 H   0  0  0  0  0  0  0  0  0  0  0  0
   36.9040   34.3670   40.3030 H   0  0  0  0  0  0  0  0  0  0  0  0
   37.2820   25.7040   40.5640 O   0  0  0  0  0  0  0  0  0  0  0  0
   38.2480   23.6540   39.2020 O   0  0  0  0  0  0  0  0  0  0  0  0
   38.3480   24.4070   40.5120 P   0  0  2  0  0  0  0  0  0  0  0  0
   37.9620   23.3650   41.8140 O   0  0  0  0  0  0  0  0  0  0  0  0
   38.5740   22.5830   41.8160 H   0  0  0  0  0  0  0  0  0  0  0  0
   39.9580   24.8330   40.7640 O   0  0  0  0  0  0  0  0  0  0  0  0
   40.4590   25.7740   41.6160 C   0  0  0  0  0  0  0  0  0  0  0  0
   40.4330   25.8160   43.0010 C   0  0  0  0  0  0  0  0  0  0  0  0
   39.9450   24.9840   43.4470 H   0  0  0  0  0  0  0  0  0  0  0  0
   41.0050   26.8700   43.6800 C   0  0  0  0  0  0  0  0  0  0  0  0
   40.9540   26.8490   44.7730 H   0  0  0  0  0  0  0  0  0  0  0  0
   41.6250   27.9230   43.0240 C   0  0  0  0  0  3  0  0  0  0  0  0
   41.6230   27.8310   41.6550 C   0  0  0  0  0  3  0  0  0  0  0  0
   41.0700   26.8110   40.9700 N   0  0  0  0  0  0  0  0  0  0  0  0
  1  2  1  0  0  0  0
  2  7  2  0  0  0  0
  2  3  1  0  0  0  0
  3  4  2  0  0  0  0
  4  5  1  0  0  0  0
  4  8  1  0  0  0  0
  5  9  1  0  0  0  0
  6 10  1  0  0  0  0
  6  5  2  0  0  0  0
  7  6  1  0  0  0  0
 11 12  2  0  0  0  0
 11 16  1  0  0  0  0
 12 13  1  0  0  0  0
 13 18  1  0  0  0  0
 13 14  2  0  0  0  0
 15 14  1  0  0  0  0
 15  3  1  0  0  0  0
 16 15  2  0  0  0  0
 17 12  1  0  0  0  0
 19 21  1  0  0  0  0
 19 11  1  0  0  0  0
 20 19  1  0  0  0  0
 22  7  1  0  0  0  0
 24 23  2  6  0  0  0
 24 22  1  0  0  0  0
 24 27  1  0  0  0  0
 24 25  1  0  0  0  0
 25 26  1  0  0  0  0
 27 28  1  0  0  0  0
 28 29  1  0  0  0  0
 29 30  1  0  0  0  0
 29 31  2  0  0  0  0
 31 32  1  0  0  0  0
 33 31  1  0  0  0  0
 34 33  2  0  0  0  0
 35 28  2  0  0  0  0
 35 34  1  0  0  0  0
M  END
>  <minimizedAffinity>
-5.87286329

$$$$

 OpenBabel03252506143D

 35 37  0  0  0  0  0  0  0  0999 V2000
   38.9190   30.2190   37.3930 F   0  0  0  0  0  0  0  0  0  0  0  0
   38.4970   31.1260   38.2640 C   0  0  0  0  0  0  0  0  0  0  0  0
   39.4010   32.0270   38.7750 C   0  0  0  0  0  0  0  0  0  0  0  0
   39.0420   33.0220   39.6930 C   0  0  0  0  0  0  0  0  0  0  0  0
   37.7160   33.1160   40.1150 C   0  0  0  0  0  0  0  0  0  0  0  0
   36.8460   32.1970   39.5790 C   0  0  0  0  0  0  0  0  0  0  0  0
   37.1760   31.2250   38.6890 C   0  0  0  0  0  0  0  0  0  0  0  0
   39.8150   33.6980   40.0520 H   0  0  0  0  0  0  0  0  0  0  0  0
   37.4890   33.8990   40.8230 H   0  0  0  0  0  0  0  0  0  0  0  0
   35.8530   32.3820   39.9780 H   0  0  0  0  0  0  0  0  0  0  0  0
   42.6550   33.0470   37.4170 C   0  0  0  0  0  0  0  0  0  0  0  0
   43.4250   31.8660   37.6190 C   0  0  0  0  0  0  0  0  0  0  0  0
   42.8170   30.7280   38.2230 C   0  0  0  0  0  0  0  0  0  0  0  0
   41.5050   30.8560   38.5720 N   0  0  0  0  0  0  0  0  0  0  0  0
   40.8100   31.9790   38.3670 C   0  0  0  0  0  0  0  0  0  0  0  0
   41.3800   33.0560   37.7980 N   0  0  0  0  0  0  0  0  0  0  0  0
   44.4660   31.8410   37.3150 H   0  0  0  0  0  0  0  0  0  0  0  0
   43.3900   29.8380   38.3780 H   0  0  0  0  0  0  0  0  0  0  0  0
   43.2790   34.1610   36.8190 N   0  0  0  0  0  0  0  0  0  0  0  0
   42.8120   34.6760   36.0210 H   0  0  0  0  0  0  0  0  0  0  0  0
   44.2200   34.4560   37.1940 H   0  0  0  0  0  0  0  0  0  0  0  0
   36.2320   30.3520   38.2140 O   0  0  0  0  0  0  0  0  0  0  0  0
   36.4970   27.7610   38.6650 O   0  0  0  0  0  0  0  0  0  0  0  0
   35.6600   28.9790   38.9930 P   0  0  2  0  0  0  0  0  0  0  0  0
   34.0440   28.7300   38.4850 O   0  0  0  0  0  0  0  0  0  0  0  0
   33.6700   27.9230   38.9260 H   0  0  0  0  0  0  0  0  0  0  0  0
   35.5660   29.1310   40.6670 O   0  0  0  0  0  0  0  0  0  0  0  0
   36.5340   28.8780   41.5940 C   0  0  0  0  0  0  0  0  0  0  0  0
   37.5940   29.6710   42.0040 C   0  0  0  0  0  0  0  0  0  0  0  0
   37.6430   30.6120   41.5110 H   0  0  0  0  0  0  0  0  0  0  0  0
   38.4710   29.2230   42.9680 C   0  0  0  0  0  0  0  0  0  0  0  0
   39.2900   29.8930   43.2520 H   0  0  0  0  0  0  0  0  0  0  0  0
   38.3400   27.9790   43.5660 C   0  0  0  0  0  3  0  0  0  0  0  0
   37.2760   27.2360   43.1240 C   0  0  0  0  0  3  0  0  0  0  0  0
   36.4060   27.6530   42.1840 N   0  0  0  0  0  0  0  0  0  0  0  0
  1  2  1  0  0  0  0
  2  7  2  0  0  0  0
  2  3  1  0  0  0  0
  3  4  2  0  0  0  0
  4  8  1  0  0  0  0
  4  5  1  0  0  0  0
  5  9  1  0  0  0  0
  6 10  1  0  0  0  0
  6  5  2  0  0  0  0
  7  6  1  0  0  0  0
 11 12  2  0  0  0  0
 11 16  1  0  0  0  0
 12 13  1  0  0  0  0
 13 18  1  0  0  0  0
 13 14  2  0  0  0  0
 15 14  1  0  0  0  0
 15  3  1  0  0  0  0
 16 15  2  0  0  0  0
 17 12  1  0  0  0  0
 19 21  1  0  0  0  0
 19 11  1  0  0  0  0
 20 19  1  0  0  0  0
 22  7  1  0  0  0  0
 22 24  1  0  0  0  0
 24 23  2  6  0  0  0
 24 27  1  0  0  0  0
 25 26  1  0  0  0  0
 25 24  1  0  0  0  0
 27 28  1  0  0  0  0
 28 29  2  0  0  0  0
 28 35  1  0  0  0  0
 29 31  1  0  0  0  0
 30 29  1  0  0  0  0
 31 32  1  0  0  0  0
 31 33  2  0  0  0  0
 34 33  1  0  0  0  0
 35 34  2  0  0  0  0
M  END
>  <minimizedAffinity>
-5.87224674

$$$$

 OpenBabel03252506143D

 35 37  0  0  0  0  0  0  0  0999 V2000
   38.0220   27.3660   39.6330 F   0  0  0  0  0  0  0  0  0  0  0  0
   37.6970   27.5230   40.9090 C   0  0  0  0  0  0  0  0  0  0  0  0
   37.3500   26.4160   41.6470 C   0  0  0  0  0  0  0  0  0  0  0  0
   37.0010   26.4890   43.0010 C   0  0  0  0  0  0  0  0  0  0  0  0
   37.0000   27.7270   43.6420 C   0  0  0  0  0  0  0  0  0  0  0  0
   37.3540   28.8060   42.8680 C   0  0  0  0  0  0  0  0  0  0  0  0
   37.6950   28.7550   41.5540 C   0  0  0  0  0  0  0  0  0  0  0  0
   36.7370   25.5680   43.5180 H   0  0  0  0  0  0  0  0  0  0  0  0
   36.7240   27.7310   44.6860 H   0  0  0  0  0  0  0  0  0  0  0  0
   37.3230   29.7010   43.4820 H   0  0  0  0  0  0  0  0  0  0  0  0
   36.1890   23.4660   39.7960 C   0  0  0  0  0  0  0  0  0  0  0  0
   37.3260   22.6120   39.8910 C   0  0  0  0  0  0  0  0  0  0  0  0
   38.4820   23.0600   40.5910 C   0  0  0  0  0  0  0  0  0  0  0  0
   38.4150   24.3090   41.1350 N   0  0  0  0  0  0  0  0  0  0  0  0
   37.3330   25.0850   41.0280 C   0  0  0  0  0  0  0  0  0  0  0  0
   36.2390   24.6670   40.3680 N   0  0  0  0  0  0  0  0  0  0  0  0
   37.3030   21.6300   39.4310 H   0  0  0  0  0  0  0  0  0  0  0  0
   39.3390   22.4240   40.6650 H   0  0  0  0  0  0  0  0  0  0  0  0
   35.0570   23.0020   39.0980 N   0  0  0  0  0  0  0  0  0  0  0  0
   34.0900   23.0860   39.5210 H   0  0  0  0  0  0  0  0  0  0  0  0
   35.2100   22.5710   38.1470 H   0  0  0  0  0  0  0  0  0  0  0  0
   38.0300   29.8930   40.8670 O   0  0  0  0  0  0  0  0  0  0  0  0
   37.6220   32.4840   40.5330 O   0  0  0  0  0  0  0  0  0  0  0  0
   36.9850   31.1170   40.3900 P   0  0  2  0  0  0  0  0  0  0  0  0
   35.5870   31.0200   41.3740 O   0  0  0  0  0  0  0  0  0  0  0  0
   34.9440   31.7310   41.1200 H   0  0  0  0  0  0  0  0  0  0  0  0
   36.4130   30.9530   38.8140 O   0  0  0  0  0  0  0  0  0  0  0  0
   36.5360   29.8830   37.9780 C   0  0  0  0  0  0  0  0  0  0  0  0
   35.5910   28.9420   37.6010 C   0  0  0  0  0  0  0  0  0  0  0  0
   34.6350   29.0940   38.0400 H   0  0  0  0  0  0  0  0  0  0  0  0
   35.9230   27.9250   36.7330 C   0  0  0  0  0  0  0  0  0  0  0  0
   35.1360   27.2110   36.4710 H   0  0  0  0  0  0  0  0  0  0  0  0
   37.1980   27.7930   36.2010 C   0  0  0  0  0  3  0  0  0  0  0  0
   38.0930   28.7500   36.6060 C   0  0  0  0  0  3  0  0  0  0  0  0
   37.7910   29.7530   37.4540 N   0  0  0  0  0  0  0  0  0  0  0  0
  1  2  1  0  0  0  0
  2  7  2  0  0  0  0
  2  3  1  0  0  0  0
  3  4  2  0  0  0  0
  4  8  1  0  0  0  0
  4  5  1  0  0  0  0
  5  9  1  0  0  0  0
  6 10  1  0  0  0  0
  6  5  2  0  0  0  0
  7  6  1  0  0  0  0
 11 12  2  0  0  0  0
 11 16  1  0  0  0  0
 12 13  1  0  0  0  0
 13 18  1  0  0  0  0
 13 14  2  0  0  0  0
 15 14  1  0  0  0  0
 15  3  1  0  0  0  0
 16 15  2  0  0  0  0
 17 12  1  0  0  0  0
 19 20  1  0  0  0  0
 19 11  1  0  0  0  0
 21 19  1  0  0  0  0
 22  7  1  0  0  0  0
 24 23  2  1  0  0  0
 24 22  1  0  0  0  0
 24 25  1  0  0  0  0
 26 25  1  0  0  0  0
 27 24  1  0  0  0  0
 28 27  1  0  0  0  0
 29 28  1  0  0  0  0
 29 30  1  0  0  0  0
 31 29  2  0  0  0  0
 32 31  1  0  0  0  0
 33 34  2  0  0  0  0
 33 31  1  0  0  0  0
 34 35  1  0  0  0  0
 35 28  2  0  0  0  0
M  END
>  <minimizedAffinity>
-5.76882982

$$$$

 OpenBabel03252506143D

 35 37  0  0  0  0  0  0  0  0999 V2000
   39.4530   28.5690   39.8020 F   0  0  0  0  0  0  0  0  0  0  0  0
   38.1630   28.7690   40.0370 C   0  0  0  0  0  0  0  0  0  0  0  0
   37.5730   28.1180   41.0940 C   0  0  0  0  0  0  0  0  0  0  0  0
   36.2190   28.2750   41.4190 C   0  0  0  0  0  0  0  0  0  0  0  0
   35.4250   29.1240   40.6490 C   0  0  0  0  0  0  0  0  0  0  0  0
   36.0550   29.7550   39.6030 C   0  0  0  0  0  0  0  0  0  0  0  0
   37.3660   29.6140   39.2720 C   0  0  0  0  0  0  0  0  0  0  0  0
   35.8240   27.7250   42.2710 H   0  0  0  0  0  0  0  0  0  0  0  0
   34.3880   29.2120   40.9390 H   0  0  0  0  0  0  0  0  0  0  0  0
   35.3360   30.3880   39.0930 H   0  0  0  0  0  0  0  0  0  0  0  0
   38.9290   25.0320   42.5470 C   0  0  0  0  0  0  0  0  0  0  0  0
   39.8210   25.5540   43.5280 C   0  0  0  0  0  0  0  0  0  0  0  0
   39.9480   26.9640   43.6800 C   0  0  0  0  0  0  0  0  0  0  0  0
   39.1850   27.7340   42.8520 N   0  0  0  0  0  0  0  0  0  0  0  0
   38.3570   27.2120   41.9420 C   0  0  0  0  0  0  0  0  0  0  0  0
   38.2330   25.8810   41.7950 N   0  0  0  0  0  0  0  0  0  0  0  0
   40.3960   24.8760   44.1500 H   0  0  0  0  0  0  0  0  0  0  0  0
   40.6160   27.3620   44.4140 H   0  0  0  0  0  0  0  0  0  0  0  0
   38.8210   23.6330   42.4140 N   0  0  0  0  0  0  0  0  0  0  0  0
   37.8720   23.1670   42.3730 H   0  0  0  0  0  0  0  0  0  0  0  0
   39.7150   23.0750   42.3590 H   0  0  0  0  0  0  0  0  0  0  0  0
   37.9010   30.2870   38.2060 O   0  0  0  0  0  0  0  0  0  0  0  0
   37.1130   32.7850   38.5720 O   0  0  0  0  0  0  0  0  0  0  0  0
   38.2820   31.9210   38.1450 P   0  0  2  0  0  0  0  0  0  0  0  0
   38.7230   32.2930   36.5320 O   0  0  0  0  0  0  0  0  0  0  0  0
   38.9560   33.2540   36.4580 H   0  0  0  0  0  0  0  0  0  0  0  0
   39.6270   32.3450   39.0670 O   0  0  0  0  0  0  0  0  0  0  0  0
   40.0440   31.8070   40.2490 C   0  0  0  0  0  0  0  0  0  0  0  0
   39.4230   31.8070   41.4870 C   0  0  0  0  0  0  0  0  0  0  0  0
   38.4840   32.3040   41.4980 H   0  0  0  0  0  0  0  0  0  0  0  0
   40.0220   31.1990   42.5700 C   0  0  0  0  0  0  0  0  0  0  0  0
   39.4850   31.2300   43.5230 H   0  0  0  0  0  0  0  0  0  0  0  0
   41.2530   30.5680   42.4760 C   0  0  0  0  0  3  0  0  0  0  0  0
   41.8230   30.5980   41.2290 C   0  0  0  0  0  3  0  0  0  0  0  0
   41.2570   31.1860   40.1570 N   0  0  0  0  0  0  0  0  0  0  0  0
  1  2  1  0  0  0  0
  2  3  1  0  0  0  0
  3  4  2  0  0  0  0
  3 15  1  0  0  0  0
  4  8  1  0  0  0  0
  5  9  1  0  0  0  0
  5  4  1  0  0  0  0
  6  5  2  0  0  0  0
  7  6  1  0  0  0  0
  7  2  2  0  0  0  0
 10  6  1  0  0  0  0
 11 12  1  0  0  0  0
 12 13  2  0  0  0  0
 12 17  1  0  0  0  0
 13 18  1  0  0  0  0
 14 13  1  0  0  0  0
 15 14  2  0  0  0  0
 16 15  1  0  0  0  0
 16 11  2  0  0  0  0
 19 11  1  0  0  0  0
 20 19  1  0  0  0  0
 21 19  1  0  0  0  0
 22  7  1  0  0  0  0
 24 22  1  0  0  0  0
 24 23  2  1  0  0  0
 24 27  1  0  0  0  0
 25 24  1  0  0  0  0
 26 25  1  0  0  0  0
 27 28  1  0  0  0  0
 28 29  1  0  0  0  0
 29 30  1  0  0  0  0
 29 31  2  0  0  0  0
 31 32  1  0  0  0  0
 33 31  1  0  0  0  0
 34 33  2  0  0  0  0
 35 28  2  0  0  0  0
 35 34  1  0  0  0  0
M  END
>  <minimizedAffinity>
-5.73131609

$$$$
