
 OpenBabel03242522483D

 40 43  0  0  0  0  0  0  0  0999 V2000
   37.1330   31.1050   41.0260 C   0  0  0  0  0  0  0  0  0  0  0  0
   38.0670   30.0650   41.0240 C   0  0  0  0  0  0  0  0  0  0  0  0
   39.4110   30.3370   40.6210 C   0  0  0  0  0  0  0  0  0  0  0  0
   39.7050   31.6060   40.2610 N   0  0  0  0  0  0  0  0  0  0  0  0
   38.7690   32.5910   40.2760 C   0  0  0  0  0  0  0  0  0  0  0  0
   37.5040   32.3220   40.6580 N   0  0  0  0  0  0  0  0  0  0  0  0
   35.8260   30.8170   41.4220 N   0  0  0  0  0  0  0  0  0  0  0  0
   40.1490   29.5580   40.6100 H   0  0  0  0  0  0  0  0  0  0  0  0
   35.0230   30.8070   40.7590 H   0  0  0  0  0  0  0  0  0  0  0  0
   35.4860   30.5840   42.3780 H   0  0  0  0  0  0  0  0  0  0  0  0
   37.7520   28.7040   41.4080 C   0  0  0  0  0  0  0  0  0  0  0  0
   37.7130   28.1690   42.6920 C   0  0  0  0  0  0  0  0  0  0  0  0
   37.3890   26.8410   42.8910 C   0  0  0  0  0  0  0  0  0  0  0  0
   37.0930   26.0010   41.8230 C   0  0  0  0  0  0  0  0  0  0  0  0
   36.7840   24.7250   42.0980 N   0  0  0  0  0  0  0  0  0  0  0  0
   36.4840   23.8760   41.0620 C   0  0  0  0  0  0  0  0  0  0  0  0
   36.5220   24.4000   39.7970 C   0  0  0  0  0  0  0  0  0  0  0  0
   36.8380   25.7010   39.5040 C   0  0  0  0  0  0  0  0  0  0  0  0
   37.1340   26.5400   40.5470 C   0  0  0  0  0  0  0  0  0  0  0  0
   37.4590   27.8740   40.3300 C   0  0  0  0  0  0  0  0  0  0  0  0
   37.9490   28.8650   43.4720 H   0  0  0  0  0  0  0  0  0  0  0  0
   37.3770   26.4930   43.9140 H   0  0  0  0  0  0  0  0  0  0  0  0
   36.2450   22.8730   41.3350 H   0  0  0  0  0  0  0  0  0  0  0  0
   36.2690   23.6440   39.0450 H   0  0  0  0  0  0  0  0  0  0  0  0
   36.8430   26.0280   38.4840 H   0  0  0  0  0  0  0  0  0  0  0  0
   37.4590   28.1800   39.2910 H   0  0  0  0  0  0  0  0  0  0  0  0
   39.2060   33.9640   39.8510 C   0  0  0  0  0  0  0  0  0  0  0  0
   39.4830   33.8410   38.7670 H   0  0  0  0  0  0  0  0  0  0  0  0
   38.4490   34.7300   40.0070 H   0  0  0  0  0  0  0  0  0  0  0  0
   40.5130   34.3230   40.5480 C   0  0  0  0  0  0  0  0  0  0  0  0
   40.6260   33.6220   41.3990 H   0  0  0  0  0  0  0  0  0  0  0  0
   40.4430   35.3430   40.9700 H   0  0  0  0  0  0  0  0  0  0  0  0
   41.6600   34.2150   39.6050 C   0  0  0  0  0  0  0  0  0  0  0  0
   42.8800   34.0080   40.2350 C   0  0  0  0  0  0  0  0  0  0  0  0
   43.0480   33.9240   41.3100 H   0  0  0  0  0  0  0  0  0  0  0  0
   44.0260   33.8910   39.4710 C   0  0  0  0  0  0  0  0  0  0  0  0
   45.0070   33.7270   39.9120 H   0  0  0  0  0  0  0  0  0  0  0  0
   43.9690   33.9750   38.0880 C   0  0  0  0  0  3  0  0  0  0  0  0
   42.7150   34.1840   37.5150 C   0  0  0  0  0  3  0  0  0  0  0  0
   41.5950   34.2980   38.2810 N   0  0  0  0  0  0  0  0  0  0  0  0
  1  7  1  0  0  0  0
  2  1  1  0  0  0  0
  2 11  1  0  0  0  0
  3  2  2  0  0  0  0
  4  5  2  0  0  0  0
  4  3  1  0  0  0  0
  5  6  1  0  0  0  0
  6  1  2  0  0  0  0
  7 10  1  0  0  0  0
  8  3  1  0  0  0  0
  9  7  1  0  0  0  0
 11 12  1  0  0  0  0
 12 13  2  0  0  0  0
 12 21  1  0  0  0  0
 13 22  1  0  0  0  0
 14 15  1  0  0  0  0
 14 13  1  0  0  0  0
 16 23  1  0  0  0  0
 16 15  2  0  0  0  0
 17 16  1  0  0  0  0
 18 17  2  0  0  0  0
 18 19  1  0  0  0  0
 19 14  2  0  0  0  0
 20 19  1  0  0  0  0
 20 11  2  0  0  0  0
 24 17  1  0  0  0  0
 25 18  1  0  0  0  0
 26 20  1  0  0  0  0
 27 29  1  0  0  0  0
 27  5  1  0  0  0  0
 27 30  1  0  0  0  0
 28 27  1  0  0  0  0
 30 32  1  0  0  0  0
 30 31  1  0  0  0  0
 33 34  1  0  0  0  0
 33 30  1  0  0  0  0
 34 35  1  0  0  0  0
 36 37  1  0  0  0  0
 36 34  2  0  0  0  0
 38 36  1  0  0  0  0
 39 38  2  0  0  0  0
 39 40  1  0  0  0  0
 40 33  2  0  0  0  0
M  END
>  <minimizedAffinity>
-6.3207345

$$$$

 OpenBabel03242522483D

 40 43  0  0  0  0  0  0  0  0999 V2000
   37.2050   28.1670   42.5860 C   0  0  0  0  0  0  0  0  0  0  0  0
   37.3390   28.6280   41.2730 C   0  0  0  0  0  0  0  0  0  0  0  0
   37.2720   27.6920   40.1950 C   0  0  0  0  0  0  0  0  0  0  0  0
   37.0770   26.3940   40.5140 N   0  0  0  0  0  0  0  0  0  0  0  0
   36.9510   25.9820   41.8030 C   0  0  0  0  0  0  0  0  0  0  0  0
   37.0170   26.8750   42.8110 N   0  0  0  0  0  0  0  0  0  0  0  0
   37.2750   29.0970   43.6220 N   0  0  0  0  0  0  0  0  0  0  0  0
   37.3710   28.0190   39.1770 H   0  0  0  0  0  0  0  0  0  0  0  0
   38.0770   29.1470   44.2860 H   0  0  0  0  0  0  0  0  0  0  0  0
   36.5790   29.8310   43.8690 H   0  0  0  0  0  0  0  0  0  0  0  0
   37.5490   30.0200   40.9310 C   0  0  0  0  0  0  0  0  0  0  0  0
   36.5860   30.9790   40.6320 C   0  0  0  0  0  0  0  0  0  0  0  0
   36.9540   32.2750   40.3270 C   0  0  0  0  0  0  0  0  0  0  0  0
   38.2890   32.6620   40.3080 C   0  0  0  0  0  0  0  0  0  0  0  0
   38.5650   33.9390   40.0070 N   0  0  0  0  0  0  0  0  0  0  0  0
   39.8750   34.3480   39.9860 C   0  0  0  0  0  0  0  0  0  0  0  0
   40.8260   33.4070   40.2790 C   0  0  0  0  0  0  0  0  0  0  0  0
   40.5550   32.1000   40.5880 C   0  0  0  0  0  0  0  0  0  0  0  0
   39.2430   31.7030   40.6060 C   0  0  0  0  0  0  0  0  0  0  0  0
   38.8900   30.3950   40.9150 C   0  0  0  0  0  0  0  0  0  0  0  0
   35.5760   30.6200   40.6630 H   0  0  0  0  0  0  0  0  0  0  0  0
   36.1540   32.9660   40.1060 H   0  0  0  0  0  0  0  0  0  0  0  0
   40.0400   35.3730   39.7410 H   0  0  0  0  0  0  0  0  0  0  0  0
   41.8350   33.8330   40.2350 H   0  0  0  0  0  0  0  0  0  0  0  0
   41.3620   31.4300   40.8050 H   0  0  0  0  0  0  0  0  0  0  0  0
   39.7220   29.7360   41.1300 H   0  0  0  0  0  0  0  0  0  0  0  0
   36.7430   24.5130   42.0410 C   0  0  0  0  0  0  0  0  0  0  0  0
   36.9280   24.3850   43.1430 H   0  0  0  0  0  0  0  0  0  0  0  0
   35.7620   24.1570   41.7350 H   0  0  0  0  0  0  0  0  0  0  0  0
   37.8590   23.7230   41.3650 C   0  0  0  0  0  0  0  0  0  0  0  0
   37.6790   23.7850   40.2730 H   0  0  0  0  0  0  0  0  0  0  0  0
   37.7860   22.6570   41.6500 H   0  0  0  0  0  0  0  0  0  0  0  0
   39.1910   24.2800   41.7260 C   0  0  0  0  0  0  0  0  0  0  0  0
   39.9590   24.6400   40.6270 C   0  0  0  0  0  0  0  0  0  0  0  0
   39.6720   24.5490   39.5780 H   0  0  0  0  0  0  0  0  0  0  0  0
   41.2200   25.1710   40.8250 C   0  0  0  0  0  0  0  0  0  0  0  0
   41.8630   25.4700   40.0000 H   0  0  0  0  0  0  0  0  0  0  0  0
   41.7220   25.3490   42.1050 C   0  0  0  0  0  3  0  0  0  0  0  0
   40.9030   24.9670   43.1680 C   0  0  0  0  0  3  0  0  0  0  0  0
   39.6630   24.4460   42.9560 N   0  0  0  0  0  0  0  0  0  0  0  0
  1  6  1  0  0  0  0
  1  7  1  0  0  0  0
  2  1  2  0  0  0  0
  3  4  2  0  0  0  0
  3  2  1  0  0  0  0
  4  5  1  0  0  0  0
  5 27  1  0  0  0  0
  5  6  2  0  0  0  0
  7 10  1  0  0  0  0
  7  9  1  0  0  0  0
  8  3  1  0  0  0  0
 11  2  1  0  0  0  0
 12 21  1  0  0  0  0
 12 11  2  0  0  0  0
 13 12  1  0  0  0  0
 14 13  2  0  0  0  0
 14 19  1  0  0  0  0
 15 14  1  0  0  0  0
 16 15  2  0  0  0  0
 16 17  1  0  0  0  0
 17 18  2  0  0  0  0
 18 19  1  0  0  0  0
 18 25  1  0  0  0  0
 19 20  2  0  0  0  0
 20 11  1  0  0  0  0
 20 26  1  0  0  0  0
 22 13  1  0  0  0  0
 23 16  1  0  0  0  0
 24 17  1  0  0  0  0
 27 28  1  0  0  0  0
 29 27  1  0  0  0  0
 30 32  1  0  0  0  0
 30 33  1  0  0  0  0
 30 27  1  0  0  0  0
 31 30  1  0  0  0  0
 33 40  1  0  0  0  0
 34 36  1  0  0  0  0
 34 33  2  0  0  0  0
 35 34  1  0  0  0  0
 36 38  2  0  0  0  0
 37 36  1  0  0  0  0
 38 39  1  0  0  0  0
 40 39  2  0  0  0  0
M  END
>  <minimizedAffinity>
-6.28508711

$$$$

 OpenBabel03242522483D

 40 43  0  0  0  0  0  0  0  0999 V2000
   35.8380   30.4060   39.9480 C   0  0  0  0  0  0  0  0  0  0  0  0
   36.8170   30.9230   39.0950 C   0  0  0  0  0  0  0  0  0  0  0  0
   36.8590   30.4830   37.7360 C   0  0  0  0  0  0  0  0  0  0  0  0
   35.9340   29.5780   37.3480 N   0  0  0  0  0  0  0  0  0  0  0  0
   34.9970   29.0970   38.2070 C   0  0  0  0  0  0  0  0  0  0  0  0
   34.9670   29.5200   39.4870 N   0  0  0  0  0  0  0  0  0  0  0  0
   35.8150   30.8480   41.2710 N   0  0  0  0  0  0  0  0  0  0  0  0
   37.6000   30.8630   37.0580 H   0  0  0  0  0  0  0  0  0  0  0  0
   36.0810   30.2420   42.0760 H   0  0  0  0  0  0  0  0  0  0  0  0
   35.5450   31.7890   41.6240 H   0  0  0  0  0  0  0  0  0  0  0  0
   37.8100   31.8920   39.5100 C   0  0  0  0  0  0  0  0  0  0  0  0
   37.6330   33.2560   39.7230 C   0  0  0  0  0  0  0  0  0  0  0  0
   38.6900   34.0480   40.1240 C   0  0  0  0  0  0  0  0  0  0  0  0
   39.9580   33.5140   40.3270 C   0  0  0  0  0  0  0  0  0  0  0  0
   40.9320   34.3480   40.7210 N   0  0  0  0  0  0  0  0  0  0  0  0
   42.1920   33.8450   40.9310 C   0  0  0  0  0  0  0  0  0  0  0  0
   42.3700   32.5040   40.7230 C   0  0  0  0  0  0  0  0  0  0  0  0
   41.3820   31.6430   40.3200 C   0  0  0  0  0  0  0  0  0  0  0  0
   40.1280   32.1560   40.1130 C   0  0  0  0  0  0  0  0  0  0  0  0
   39.0740   31.3450   39.7100 C   0  0  0  0  0  0  0  0  0  0  0  0
   36.6350   33.6080   39.5510 H   0  0  0  0  0  0  0  0  0  0  0  0
   38.4810   35.0980   40.2710 H   0  0  0  0  0  0  0  0  0  0  0  0
   42.9290   34.5500   41.2430 H   0  0  0  0  0  0  0  0  0  0  0  0
   43.4060   32.2040   40.9170 H   0  0  0  0  0  0  0  0  0  0  0  0
   41.6090   30.6050   40.1810 H   0  0  0  0  0  0  0  0  0  0  0  0
   39.3280   30.3010   39.5740 H   0  0  0  0  0  0  0  0  0  0  0  0
   34.0200   28.0900   37.6700 C   0  0  0  0  0  0  0  0  0  0  0  0
   34.6700   27.2640   37.2690 H   0  0  0  0  0  0  0  0  0  0  0  0
   33.3040   27.7390   38.4100 H   0  0  0  0  0  0  0  0  0  0  0  0
   33.3180   28.6630   36.4440 C   0  0  0  0  0  0  0  0  0  0  0  0
   32.9800   27.8010   35.8350 H   0  0  0  0  0  0  0  0  0  0  0  0
   34.0430   29.2330   35.8320 H   0  0  0  0  0  0  0  0  0  0  0  0
   32.1710   29.5220   36.8470 C   0  0  0  0  0  0  0  0  0  0  0  0
   31.7300   30.3680   35.8400 C   0  0  0  0  0  0  0  0  0  0  0  0
   32.1400   30.4450   34.8310 H   0  0  0  0  0  0  0  0  0  0  0  0
   30.6690   31.2200   36.0850 C   0  0  0  0  0  0  0  0  0  0  0  0
   30.2820   31.9030   35.3320 H   0  0  0  0  0  0  0  0  0  0  0  0
   30.0430   31.2350   37.3230 C   0  0  0  0  0  3  0  0  0  0  0  0
   30.5330   30.3620   38.2940 C   0  0  0  0  0  3  0  0  0  0  0  0
   31.5790   29.5290   38.0360 N   0  0  0  0  0  0  0  0  0  0  0  0
  1  7  1  0  0  0  0
  2 11  1  0  0  0  0
  2  1  2  0  0  0  0
  3  2  1  0  0  0  0
  4  3  2  0  0  0  0
  4  5  1  0  0  0  0
  5  6  2  0  0  0  0
  6  1  1  0  0  0  0
  7 10  1  0  0  0  0
  7  9  1  0  0  0  0
  8  3  1  0  0  0  0
 11 20  2  0  0  0  0
 11 12  1  0  0  0  0
 12 13  2  0  0  0  0
 13 22  1  0  0  0  0
 13 14  1  0  0  0  0
 14 15  1  0  0  0  0
 15 16  2  0  0  0  0
 16 23  1  0  0  0  0
 17 24  1  0  0  0  0
 17 16  1  0  0  0  0
 18 17  2  0  0  0  0
 19 18  1  0  0  0  0
 19 14  2  0  0  0  0
 20 19  1  0  0  0  0
 21 12  1  0  0  0  0
 25 18  1  0  0  0  0
 26 20  1  0  0  0  0
 27  5  1  0  0  0  0
 27 29  1  0  0  0  0
 28 27  1  0  0  0  0
 30 33  1  0  0  0  0
 30 27  1  0  0  0  0
 31 30  1  0  0  0  0
 32 30  1  0  0  0  0
 33 40  1  0  0  0  0
 34 36  1  0  0  0  0
 34 33  2  0  0  0  0
 35 34  1  0  0  0  0
 36 38  2  0  0  0  0
 37 36  1  0  0  0  0
 38 39  1  0  0  0  0
 40 39  2  0  0  0  0
M  END
>  <minimizedAffinity>
-6.16028976

$$$$

 OpenBabel03242522483D

 40 43  0  0  0  0  0  0  0  0999 V2000
   35.7500   29.2070   36.9860 C   0  0  0  0  0  0  0  0  0  0  0  0
   35.1120   29.1180   38.2270 C   0  0  0  0  0  0  0  0  0  0  0  0
   33.6960   28.9310   38.2700 C   0  0  0  0  0  0  0  0  0  0  0  0
   33.0450   28.8490   37.0890 N   0  0  0  0  0  0  0  0  0  0  0  0
   33.7000   28.9410   35.9010 C   0  0  0  0  0  0  0  0  0  0  0  0
   35.0360   29.1170   35.8730 N   0  0  0  0  0  0  0  0  0  0  0  0
   37.1330   29.3910   36.9660 N   0  0  0  0  0  0  0  0  0  0  0  0
   33.1800   28.8590   39.2090 H   0  0  0  0  0  0  0  0  0  0  0  0
   37.5820   30.2810   36.6650 H   0  0  0  0  0  0  0  0  0  0  0  0
   37.8700   28.7070   37.2330 H   0  0  0  0  0  0  0  0  0  0  0  0
   35.8090   29.2080   39.4930 C   0  0  0  0  0  0  0  0  0  0  0  0
   36.1340   30.3570   40.2070 C   0  0  0  0  0  0  0  0  0  0  0  0
   36.8040   30.2710   41.4120 C   0  0  0  0  0  0  0  0  0  0  0  0
   37.1720   29.0420   41.9490 C   0  0  0  0  0  0  0  0  0  0  0  0
   37.8150   29.0410   43.1260 N   0  0  0  0  0  0  0  0  0  0  0  0
   38.1860   27.8410   43.6780 C   0  0  0  0  0  0  0  0  0  0  0  0
   37.8670   26.7080   42.9790 C   0  0  0  0  0  0  0  0  0  0  0  0
   37.2110   26.6970   41.7760 C   0  0  0  0  0  0  0  0  0  0  0  0
   36.8450   27.9020   41.2330 C   0  0  0  0  0  0  0  0  0  0  0  0
   36.1720   27.9710   40.0190 C   0  0  0  0  0  0  0  0  0  0  0  0
   35.8250   31.2730   39.7440 H   0  0  0  0  0  0  0  0  0  0  0  0
   37.0240   31.2030   41.9120 H   0  0  0  0  0  0  0  0  0  0  0  0
   38.6950   27.8960   44.6150 H   0  0  0  0  0  0  0  0  0  0  0  0
   38.2060   25.8060   43.5030 H   0  0  0  0  0  0  0  0  0  0  0  0
   37.0010   25.7630   41.2960 H   0  0  0  0  0  0  0  0  0  0  0  0
   35.9720   27.0150   39.5530 H   0  0  0  0  0  0  0  0  0  0  0  0
   32.8750   28.8410   34.6500 C   0  0  0  0  0  0  0  0  0  0  0  0
   33.1810   29.7410   34.0470 H   0  0  0  0  0  0  0  0  0  0  0  0
   33.0140   27.9070   34.1100 H   0  0  0  0  0  0  0  0  0  0  0  0
   31.4070   29.0780   34.9850 C   0  0  0  0  0  0  0  0  0  0  0  0
   31.3620   29.3410   36.0610 H   0  0  0  0  0  0  0  0  0  0  0  0
   30.8380   28.1400   34.8520 H   0  0  0  0  0  0  0  0  0  0  0  0
   30.8420   30.1660   34.1400 C   0  0  0  0  0  0  0  0  0  0  0  0
   31.0060   31.4330   34.6820 C   0  0  0  0  0  0  0  0  0  0  0  0
   31.4910   31.6750   35.6300 H   0  0  0  0  0  0  0  0  0  0  0  0
   30.5260   32.5320   33.9960 C   0  0  0  0  0  0  0  0  0  0  0  0
   30.6280   33.5470   34.3750 H   0  0  0  0  0  0  0  0  0  0  0  0
   29.8860   32.3820   32.7750 C   0  0  0  0  0  3  0  0  0  0  0  0
   29.7520   31.0840   32.2820 C   0  0  0  0  0  3  0  0  0  0  0  0
   30.2310   30.0120   32.9710 N   0  0  0  0  0  0  0  0  0  0  0  0
  1  2  1  0  0  0  0
  2  3  2  0  0  0  0
  2 11  1  0  0  0  0
  3  8  1  0  0  0  0
  4  3  1  0  0  0  0
  5  4  2  0  0  0  0
  6  5  1  0  0  0  0
  6  1  2  0  0  0  0
  7  1  1  0  0  0  0
  7 10  1  0  0  0  0
  9  7  1  0  0  0  0
 11 20  2  0  0  0  0
 11 12  1  0  0  0  0
 12 13  2  0  0  0  0
 13 22  1  0  0  0  0
 13 14  1  0  0  0  0
 14 15  1  0  0  0  0
 15 16  2  0  0  0  0
 16 23  1  0  0  0  0
 17 24  1  0  0  0  0
 17 16  1  0  0  0  0
 18 17  2  0  0  0  0
 19 18  1  0  0  0  0
 19 14  2  0  0  0  0
 20 19  1  0  0  0  0
 21 12  1  0  0  0  0
 25 18  1  0  0  0  0
 26 20  1  0  0  0  0
 27 30  1  0  0  0  0
 27  5  1  0  0  0  0
 28 27  1  0  0  0  0
 29 27  1  0  0  0  0
 30 31  1  0  0  0  0
 32 30  1  0  0  0  0
 33 34  1  0  0  0  0
 33 30  1  0  0  0  0
 34 35  1  0  0  0  0
 36 37  1  0  0  0  0
 36 34  2  0  0  0  0
 38 36  1  0  0  0  0
 39 38  2  0  0  0  0
 39 40  1  0  0  0  0
 40 33  2  0  0  0  0
M  END
>  <minimizedAffinity>
-5.93104839

$$$$

 OpenBabel03242522483D

 40 43  0  0  0  0  0  0  0  0999 V2000
   35.9410   29.5620   36.3430 C   0  0  0  0  0  0  0  0  0  0  0  0
   36.1360   29.7200   37.7180 C   0  0  0  0  0  0  0  0  0  0  0  0
   35.1490   29.2230   38.6240 C   0  0  0  0  0  0  0  0  0  0  0  0
   34.0670   28.6170   38.0880 N   0  0  0  0  0  0  0  0  0  0  0  0
   33.9110   28.4820   36.7450 C   0  0  0  0  0  0  0  0  0  0  0  0
   34.8490   28.9550   35.9010 N   0  0  0  0  0  0  0  0  0  0  0  0
   36.9170   30.0550   35.4760 N   0  0  0  0  0  0  0  0  0  0  0  0
   35.2730   29.3310   39.6840 H   0  0  0  0  0  0  0  0  0  0  0  0
   36.7640   30.8850   34.8640 H   0  0  0  0  0  0  0  0  0  0  0  0
   37.8790   29.6890   35.3250 H   0  0  0  0  0  0  0  0  0  0  0  0
   37.2960   30.3710   38.2920 C   0  0  0  0  0  0  0  0  0  0  0  0
   38.5870   29.8650   38.4080 C   0  0  0  0  0  0  0  0  0  0  0  0
   39.5900   30.6200   38.9830 C   0  0  0  0  0  0  0  0  0  0  0  0
   39.3460   31.9040   39.4610 C   0  0  0  0  0  0  0  0  0  0  0  0
   40.3730   32.5750   40.0010 N   0  0  0  0  0  0  0  0  0  0  0  0
   40.1590   33.8450   40.4770 C   0  0  0  0  0  0  0  0  0  0  0  0
   38.8900   34.3470   40.3640 C   0  0  0  0  0  0  0  0  0  0  0  0
   37.8330   33.6690   39.8140 C   0  0  0  0  0  0  0  0  0  0  0  0
   38.0590   32.4020   39.3420 C   0  0  0  0  0  0  0  0  0  0  0  0
   37.0380   31.6550   38.7670 C   0  0  0  0  0  0  0  0  0  0  0  0
   38.7130   28.8730   38.0230 H   0  0  0  0  0  0  0  0  0  0  0  0
   40.5680   30.1650   39.0410 H   0  0  0  0  0  0  0  0  0  0  0  0
   41.0080   34.3350   40.8970 H   0  0  0  0  0  0  0  0  0  0  0  0
   38.8240   35.3620   40.7720 H   0  0  0  0  0  0  0  0  0  0  0  0
   36.8710   34.1380   39.7650 H   0  0  0  0  0  0  0  0  0  0  0  0
   36.0750   32.1490   38.7290 H   0  0  0  0  0  0  0  0  0  0  0  0
   32.6650   27.7960   36.2610 C   0  0  0  0  0  0  0  0  0  0  0  0
   33.0450   26.9980   35.5640 H   0  0  0  0  0  0  0  0  0  0  0  0
   32.0480   27.3950   37.0630 H   0  0  0  0  0  0  0  0  0  0  0  0
   31.8720   28.7460   35.3700 C   0  0  0  0  0  0  0  0  0  0  0  0
   31.1390   28.1280   34.8140 H   0  0  0  0  0  0  0  0  0  0  0  0
   32.5460   29.2060   34.6240 H   0  0  0  0  0  0  0  0  0  0  0  0
   31.1910   29.7880   36.1860 C   0  0  0  0  0  0  0  0  0  0  0  0
   31.1110   31.0220   35.5570 C   0  0  0  0  0  0  0  0  0  0  0  0
   31.4910   31.2690   34.5640 H   0  0  0  0  0  0  0  0  0  0  0  0
   30.5010   32.0780   36.2080 C   0  0  0  0  0  0  0  0  0  0  0  0
   30.4110   33.0650   35.7620 H   0  0  0  0  0  0  0  0  0  0  0  0
   29.9690   31.9150   37.4790 C   0  0  0  0  0  3  0  0  0  0  0  0
   30.0810   30.6510   38.0580 C   0  0  0  0  0  3  0  0  0  0  0  0
   30.6850   29.6220   37.4030 N   0  0  0  0  0  0  0  0  0  0  0  0
  1  2  1  0  0  0  0
  2 11  1  0  0  0  0
  2  3  2  0  0  0  0
  3  8  1  0  0  0  0
  4  3  1  0  0  0  0
  5  4  2  0  0  0  0
  6  1  2  0  0  0  0
  6  5  1  0  0  0  0
  7  1  1  0  0  0  0
  9  7  1  0  0  0  0
 10  7  1  0  0  0  0
 11 12  2  0  0  0  0
 11 20  1  0  0  0  0
 12 13  1  0  0  0  0
 13 22  1  0  0  0  0
 13 14  2  0  0  0  0
 14 15  1  0  0  0  0
 15 16  2  0  0  0  0
 16 23  1  0  0  0  0
 17 16  1  0  0  0  0
 17 24  1  0  0  0  0
 18 17  2  0  0  0  0
 19 14  1  0  0  0  0
 19 18  1  0  0  0  0
 20 19  2  0  0  0  0
 21 12  1  0  0  0  0
 25 18  1  0  0  0  0
 26 20  1  0  0  0  0
 27  5  1  0  0  0  0
 27 29  1  0  0  0  0
 28 27  1  0  0  0  0
 30 33  1  0  0  0  0
 30 27  1  0  0  0  0
 31 30  1  0  0  0  0
 32 30  1  0  0  0  0
 33 40  1  0  0  0  0
 34 33  2  0  0  0  0
 34 36  1  0  0  0  0
 35 34  1  0  0  0  0
 36 38  2  0  0  0  0
 37 36  1  0  0  0  0
 38 39  1  0  0  0  0
 40 39  2  0  0  0  0
M  END
>  <minimizedAffinity>
-5.90446806

$$$$

 OpenBabel03242522483D

 40 43  0  0  0  0  0  0  0  0999 V2000
   38.8290   31.9640   38.2590 C   0  0  0  0  0  0  0  0  0  0  0  0
   39.9290   32.1890   39.0920 C   0  0  0  0  0  0  0  0  0  0  0  0
   39.7900   31.9870   40.4990 C   0  0  0  0  0  0  0  0  0  0  0  0
   38.5830   31.5820   40.9510 N   0  0  0  0  0  0  0  0  0  0  0  0
   37.5350   31.3730   40.1100 C   0  0  0  0  0  0  0  0  0  0  0  0
   37.6790   31.5670   38.7840 N   0  0  0  0  0  0  0  0  0  0  0  0
   38.9870   32.1680   36.8880 N   0  0  0  0  0  0  0  0  0  0  0  0
   40.6180   32.1530   41.1620 H   0  0  0  0  0  0  0  0  0  0  0  0
   38.5380   32.9580   36.3770 H   0  0  0  0  0  0  0  0  0  0  0  0
   39.5400   31.5960   36.2170 H   0  0  0  0  0  0  0  0  0  0  0  0
   41.2230   32.6260   38.6080 C   0  0  0  0  0  0  0  0  0  0  0  0
   41.6590   33.9310   38.4000 C   0  0  0  0  0  0  0  0  0  0  0  0
   42.9350   34.1800   37.9340 C   0  0  0  0  0  0  0  0  0  0  0  0
   43.8210   33.1430   37.6610 C   0  0  0  0  0  0  0  0  0  0  0  0
   45.0440   33.4670   37.2160 N   0  0  0  0  0  0  0  0  0  0  0  0
   45.9380   32.4630   36.9420 C   0  0  0  0  0  0  0  0  0  0  0  0
   45.5130   31.1770   37.1470 C   0  0  0  0  0  0  0  0  0  0  0  0
   44.2660   30.8350   37.6000 C   0  0  0  0  0  0  0  0  0  0  0  0
   43.3810   31.8470   37.8710 C   0  0  0  0  0  0  0  0  0  0  0  0
   42.1000   31.5790   38.3380 C   0  0  0  0  0  0  0  0  0  0  0  0
   40.9320   34.6850   38.6280 H   0  0  0  0  0  0  0  0  0  0  0  0
   43.2060   35.2170   37.7950 H   0  0  0  0  0  0  0  0  0  0  0  0
   46.8960   32.7740   36.5910 H   0  0  0  0  0  0  0  0  0  0  0  0
   46.2970   30.4530   36.8990 H   0  0  0  0  0  0  0  0  0  0  0  0
   44.0160   29.8020   37.7320 H   0  0  0  0  0  0  0  0  0  0  0  0
   41.8700   30.5280   38.4630 H   0  0  0  0  0  0  0  0  0  0  0  0
   36.2370   30.9280   40.7220 C   0  0  0  0  0  0  0  0  0  0  0  0
   36.5210   30.6000   41.7600 H   0  0  0  0  0  0  0  0  0  0  0  0
   35.4680   31.6980   40.7200 H   0  0  0  0  0  0  0  0  0  0  0  0
   35.7560   29.6580   40.0310 C   0  0  0  0  0  0  0  0  0  0  0  0
   36.1310   29.6970   38.9890 H   0  0  0  0  0  0  0  0  0  0  0  0
   34.6510   29.6560   39.9820 H   0  0  0  0  0  0  0  0  0  0  0  0
   36.2590   28.4490   40.7400 C   0  0  0  0  0  0  0  0  0  0  0  0
   36.4380   27.3510   39.9090 C   0  0  0  0  0  0  0  0  0  0  0  0
   36.2460   27.3130   38.8350 H   0  0  0  0  0  0  0  0  0  0  0  0
   36.9010   26.1640   40.4440 C   0  0  0  0  0  0  0  0  0  0  0  0
   37.0600   25.2740   39.8390 H   0  0  0  0  0  0  0  0  0  0  0  0
   37.1900   26.0610   41.7970 C   0  0  0  0  0  3  0  0  0  0  0  0
   36.9900   27.1980   42.5790 C   0  0  0  0  0  3  0  0  0  0  0  0
   36.5320   28.3600   42.0360 N   0  0  0  0  0  0  0  0  0  0  0  0
  1  6  2  0  0  0  0
  1  2  1  0  0  0  0
  2  3  2  0  0  0  0
  3  4  1  0  0  0  0
  3  8  1  0  0  0  0
  5 27  1  0  0  0  0
  5  4  2  0  0  0  0
  6  5  1  0  0  0  0
  7  1  1  0  0  0  0
  9  7  1  0  0  0  0
 10  7  1  0  0  0  0
 11  2  1  0  0  0  0
 12 11  1  0  0  0  0
 12 21  1  0  0  0  0
 13 12  2  0  0  0  0
 14 19  1  0  0  0  0
 14 13  1  0  0  0  0
 15 14  2  0  0  0  0
 16 17  2  0  0  0  0
 16 15  1  0  0  0  0
 17 18  1  0  0  0  0
 18 25  1  0  0  0  0
 18 19  2  0  0  0  0
 19 20  1  0  0  0  0
 20 26  1  0  0  0  0
 20 11  2  0  0  0  0
 22 13  1  0  0  0  0
 23 16  1  0  0  0  0
 24 17  1  0  0  0  0
 27 28  1  0  0  0  0
 29 27  1  0  0  0  0
 30 27  1  0  0  0  0
 30 33  1  0  0  0  0
 31 30  1  0  0  0  0
 32 30  1  0  0  0  0
 33 40  1  0  0  0  0
 34 36  1  0  0  0  0
 34 33  2  0  0  0  0
 35 34  1  0  0  0  0
 36 38  2  0  0  0  0
 37 36  1  0  0  0  0
 38 39  1  0  0  0  0
 40 39  2  0  0  0  0
M  END
>  <minimizedAffinity>
-5.85134983

$$$$

 OpenBabel03242522483D

 40 43  0  0  0  0  0  0  0  0999 V2000
   34.0500   27.0260   37.2330 C   0  0  0  0  0  0  0  0  0  0  0  0
   34.0340   28.4200   37.1210 C   0  0  0  0  0  0  0  0  0  0  0  0
   35.1290   29.1740   37.6440 C   0  0  0  0  0  0  0  0  0  0  0  0
   36.1340   28.4830   38.2260 N   0  0  0  0  0  0  0  0  0  0  0  0
   36.1140   27.1270   38.3180 C   0  0  0  0  0  0  0  0  0  0  0  0
   35.0750   26.4270   37.8200 N   0  0  0  0  0  0  0  0  0  0  0  0
   32.9700   26.3100   36.7160 N   0  0  0  0  0  0  0  0  0  0  0  0
   35.1440   30.2440   37.5710 H   0  0  0  0  0  0  0  0  0  0  0  0
   32.2750   25.8200   37.3190 H   0  0  0  0  0  0  0  0  0  0  0  0
   32.7170   26.1710   35.7170 H   0  0  0  0  0  0  0  0  0  0  0  0
   32.9560   29.1610   36.4980 C   0  0  0  0  0  0  0  0  0  0  0  0
   32.7750   29.4240   35.1430 C   0  0  0  0  0  0  0  0  0  0  0  0
   31.6830   30.1490   34.7080 C   0  0  0  0  0  0  0  0  0  0  0  0
   30.7350   30.6360   35.6010 C   0  0  0  0  0  0  0  0  0  0  0  0
   29.7000   31.3270   35.1000 N   0  0  0  0  0  0  0  0  0  0  0  0
   28.7490   31.8150   35.9600 C   0  0  0  0  0  0  0  0  0  0  0  0
   28.9240   31.5580   37.2930 C   0  0  0  0  0  0  0  0  0  0  0  0
   29.9770   30.8530   37.8170 C   0  0  0  0  0  0  0  0  0  0  0  0
   30.9210   30.3700   36.9480 C   0  0  0  0  0  0  0  0  0  0  0  0
   32.0140   29.6430   37.4030 C   0  0  0  0  0  0  0  0  0  0  0  0
   33.5370   29.0230   34.5050 H   0  0  0  0  0  0  0  0  0  0  0  0
   31.6050   30.3160   33.6430 H   0  0  0  0  0  0  0  0  0  0  0  0
   27.9480   32.3570   35.5100 H   0  0  0  0  0  0  0  0  0  0  0  0
   28.1140   31.9890   37.8930 H   0  0  0  0  0  0  0  0  0  0  0  0
   30.0360   30.6980   38.8740 H   0  0  0  0  0  0  0  0  0  0  0  0
   32.0530   29.4990   38.4750 H   0  0  0  0  0  0  0  0  0  0  0  0
   37.2830   26.4640   38.9910 C   0  0  0  0  0  0  0  0  0  0  0  0
   37.4130   25.4990   38.4260 H   0  0  0  0  0  0  0  0  0  0  0  0
   38.1850   27.0730   38.9970 H   0  0  0  0  0  0  0  0  0  0  0  0
   36.8870   26.0390   40.4000 C   0  0  0  0  0  0  0  0  0  0  0  0
   37.3950   25.0750   40.5990 H   0  0  0  0  0  0  0  0  0  0  0  0
   35.7980   25.8510   40.4410 H   0  0  0  0  0  0  0  0  0  0  0  0
   37.2840   27.0740   41.3940 C   0  0  0  0  0  0  0  0  0  0  0  0
   36.7510   26.8650   42.6580 C   0  0  0  0  0  0  0  0  0  0  0  0
   36.0980   26.0440   42.9580 H   0  0  0  0  0  0  0  0  0  0  0  0
   37.0430   27.7560   43.6730 C   0  0  0  0  0  0  0  0  0  0  0  0
   36.6530   27.6400   44.6820 H   0  0  0  0  0  0  0  0  0  0  0  0
   37.8630   28.8510   43.4420 C   0  0  0  0  0  3  0  0  0  0  0  0
   38.3680   29.0070   42.1520 C   0  0  0  0  0  3  0  0  0  0  0  0
   38.0700   28.1200   41.1620 N   0  0  0  0  0  0  0  0  0  0  0  0
  1  6  1  0  0  0  0
  2  1  2  0  0  0  0
  2  3  1  0  0  0  0
  3  4  2  0  0  0  0
  4  5  1  0  0  0  0
  5 27  1  0  0  0  0
  6  5  2  0  0  0  0
  7  1  1  0  0  0  0
  7  9  1  0  0  0  0
  8  3  1  0  0  0  0
 10  7  1  0  0  0  0
 11  2  1  0  0  0  0
 11 20  1  0  0  0  0
 12 11  2  0  0  0  0
 13 12  1  0  0  0  0
 13 14  2  0  0  0  0
 14 19  1  0  0  0  0
 15 14  1  0  0  0  0
 15 16  2  0  0  0  0
 16 17  1  0  0  0  0
 17 18  2  0  0  0  0
 17 24  1  0  0  0  0
 18 25  1  0  0  0  0
 19 20  2  0  0  0  0
 19 18  1  0  0  0  0
 20 26  1  0  0  0  0
 21 12  1  0  0  0  0
 22 13  1  0  0  0  0
 23 16  1  0  0  0  0
 27 29  1  0  0  0  0
 27 30  1  0  0  0  0
 28 27  1  0  0  0  0
 30 32  1  0  0  0  0
 30 31  1  0  0  0  0
 30 33  1  0  0  0  0
 33 34  1  0  0  0  0
 34 35  1  0  0  0  0
 34 36  2  0  0  0  0
 36 37  1  0  0  0  0
 38 36  1  0  0  0  0
 39 38  2  0  0  0  0
 40 33  2  0  0  0  0
 40 39  1  0  0  0  0
M  END
>  <minimizedAffinity>
-5.84011841

$$$$

 OpenBabel03242522483D

 40 43  0  0  0  0  0  0  0  0999 V2000
   37.8150   28.6780   42.4010 C   0  0  0  0  0  0  0  0  0  0  0  0
   38.3500   27.6820   41.5790 C   0  0  0  0  0  0  0  0  0  0  0  0
   39.6550   27.8610   41.0250 C   0  0  0  0  0  0  0  0  0  0  0  0
   40.3080   29.0030   41.3350 N   0  0  0  0  0  0  0  0  0  0  0  0
   39.7550   29.9510   42.1370 C   0  0  0  0  0  0  0  0  0  0  0  0
   38.5230   29.7700   42.6530 N   0  0  0  0  0  0  0  0  0  0  0  0
   36.5400   28.4830   42.9300 N   0  0  0  0  0  0  0  0  0  0  0  0
   40.0900   27.1120   40.3910 H   0  0  0  0  0  0  0  0  0  0  0  0
   35.7090   29.0320   42.6230 H   0  0  0  0  0  0  0  0  0  0  0  0
   36.2500   27.8030   43.6620 H   0  0  0  0  0  0  0  0  0  0  0  0
   37.6500   26.4580   41.2460 C   0  0  0  0  0  0  0  0  0  0  0  0
   37.4870   25.3270   42.0400 C   0  0  0  0  0  0  0  0  0  0  0  0
   36.7830   24.2340   41.5720 C   0  0  0  0  0  0  0  0  0  0  0  0
   36.2190   24.2280   40.3010 C   0  0  0  0  0  0  0  0  0  0  0  0
   35.5470   23.1310   39.9220 N   0  0  0  0  0  0  0  0  0  0  0  0
   34.9770   23.1010   38.6730 C   0  0  0  0  0  0  0  0  0  0  0  0
   35.1360   24.2120   37.8890 C   0  0  0  0  0  0  0  0  0  0  0  0
   35.8200   25.3370   38.2670 C   0  0  0  0  0  0  0  0  0  0  0  0
   36.3850   25.3560   39.5160 C   0  0  0  0  0  0  0  0  0  0  0  0
   37.0900   26.4640   39.9720 C   0  0  0  0  0  0  0  0  0  0  0  0
   37.9440   25.3920   43.0080 H   0  0  0  0  0  0  0  0  0  0  0  0
   36.6960   23.3910   42.2420 H   0  0  0  0  0  0  0  0  0  0  0  0
   34.4540   22.2060   38.4210 H   0  0  0  0  0  0  0  0  0  0  0  0
   34.6460   24.0870   36.9170 H   0  0  0  0  0  0  0  0  0  0  0  0
   35.8960   26.1630   37.5890 H   0  0  0  0  0  0  0  0  0  0  0  0
   37.1540   27.2850   39.2690 H   0  0  0  0  0  0  0  0  0  0  0  0
   40.5680   31.1840   42.4090 C   0  0  0  0  0  0  0  0  0  0  0  0
   39.8510   31.8770   42.9290 H   0  0  0  0  0  0  0  0  0  0  0  0
   41.4660   30.9930   42.9940 H   0  0  0  0  0  0  0  0  0  0  0  0
   40.8980   31.8790   41.0930 C   0  0  0  0  0  0  0  0  0  0  0  0
   41.4380   31.1420   40.4670 H   0  0  0  0  0  0  0  0  0  0  0  0
   41.5900   32.7210   41.2800 H   0  0  0  0  0  0  0  0  0  0  0  0
   39.6560   32.3510   40.4220 C   0  0  0  0  0  0  0  0  0  0  0  0
   39.2790   33.6360   40.7890 C   0  0  0  0  0  0  0  0  0  0  0  0
   39.7980   34.2870   41.4950 H   0  0  0  0  0  0  0  0  0  0  0  0
   38.1420   34.1930   40.2370 C   0  0  0  0  0  0  0  0  0  0  0  0
   37.8010   35.1950   40.4880 H   0  0  0  0  0  0  0  0  0  0  0  0
   37.3770   33.4850   39.3210 C   0  0  0  0  0  3  0  0  0  0  0  0
   37.8070   32.1990   38.9930 C   0  0  0  0  0  3  0  0  0  0  0  0
   38.9310   31.6650   39.5460 N   0  0  0  0  0  0  0  0  0  0  0  0
  1  6  1  0  0  0  0
  1  7  1  0  0  0  0
  2  1  2  0  0  0  0
  3  4  2  0  0  0  0
  3  2  1  0  0  0  0
  4  5  1  0  0  0  0
  5 27  1  0  0  0  0
  5  6  2  0  0  0  0
  7 10  1  0  0  0  0
  8  3  1  0  0  0  0
  9  7  1  0  0  0  0
 11  2  1  0  0  0  0
 11 12  1  0  0  0  0
 12 21  1  0  0  0  0
 13 12  2  0  0  0  0
 13 22  1  0  0  0  0
 14 13  1  0  0  0  0
 15 14  1  0  0  0  0
 16 15  2  0  0  0  0
 17 18  2  0  0  0  0
 17 16  1  0  0  0  0
 18 19  1  0  0  0  0
 19 20  1  0  0  0  0
 19 14  2  0  0  0  0
 20 11  2  0  0  0  0
 23 16  1  0  0  0  0
 24 17  1  0  0  0  0
 25 18  1  0  0  0  0
 26 20  1  0  0  0  0
 27 28  1  0  0  0  0
 27 29  1  0  0  0  0
 30 32  1  0  0  0  0
 30 27  1  0  0  0  0
 31 30  1  0  0  0  0
 33 34  1  0  0  0  0
 33 30  1  0  0  0  0
 34 35  1  0  0  0  0
 36 37  1  0  0  0  0
 36 34  2  0  0  0  0
 38 36  1  0  0  0  0
 39 38  2  0  0  0  0
 39 40  1  0  0  0  0
 40 33  2  0  0  0  0
M  END
>  <minimizedAffinity>
-5.74043941

$$$$

 OpenBabel03242522483D

 40 43  0  0  0  0  0  0  0  0999 V2000
   34.7510   29.0470   35.7260 C   0  0  0  0  0  0  0  0  0  0  0  0
   33.3910   29.1170   36.0410 C   0  0  0  0  0  0  0  0  0  0  0  0
   32.9870   29.0270   37.4090 C   0  0  0  0  0  0  0  0  0  0  0  0
   33.9600   28.8780   38.3340 N   0  0  0  0  0  0  0  0  0  0  0  0
   35.2730   28.8130   37.9900 C   0  0  0  0  0  0  0  0  0  0  0  0
   35.6420   28.8990   36.6950 N   0  0  0  0  0  0  0  0  0  0  0  0
   35.1230   29.1360   34.3850 N   0  0  0  0  0  0  0  0  0  0  0  0
   31.9490   29.0780   37.6790 H   0  0  0  0  0  0  0  0  0  0  0  0
   35.5010   28.3280   33.8470 H   0  0  0  0  0  0  0  0  0  0  0  0
   35.0800   29.9710   33.7650 H   0  0  0  0  0  0  0  0  0  0  0  0
   32.3470   29.2750   35.0500 C   0  0  0  0  0  0  0  0  0  0  0  0
   31.7110   28.2780   34.3150 C   0  0  0  0  0  0  0  0  0  0  0  0
   30.7240   28.5980   33.4030 C   0  0  0  0  0  0  0  0  0  0  0  0
   30.3350   29.9160   33.1900 C   0  0  0  0  0  0  0  0  0  0  0  0
   29.3660   30.1440   32.2910 N   0  0  0  0  0  0  0  0  0  0  0  0
   28.9610   31.4360   32.0660 C   0  0  0  0  0  0  0  0  0  0  0  0
   29.5840   32.4190   32.7870 C   0  0  0  0  0  0  0  0  0  0  0  0
   30.5750   32.1970   33.7070 C   0  0  0  0  0  0  0  0  0  0  0  0
   30.9710   30.9030   33.9250 C   0  0  0  0  0  0  0  0  0  0  0  0
   31.9660   30.5990   34.8460 C   0  0  0  0  0  0  0  0  0  0  0  0
   32.0540   27.2840   34.5230 H   0  0  0  0  0  0  0  0  0  0  0  0
   30.2740   27.7740   32.8680 H   0  0  0  0  0  0  0  0  0  0  0  0
   28.1880   31.5620   31.3410 H   0  0  0  0  0  0  0  0  0  0  0  0
   29.1900   33.4100   32.5340 H   0  0  0  0  0  0  0  0  0  0  0  0
   31.0080   33.0260   34.2280 H   0  0  0  0  0  0  0  0  0  0  0  0
   32.3900   31.4530   35.3590 H   0  0  0  0  0  0  0  0  0  0  0  0
   36.2700   28.6410   39.1000 C   0  0  0  0  0  0  0  0  0  0  0  0
   36.5020   27.5400   39.0930 H   0  0  0  0  0  0  0  0  0  0  0  0
   37.1590   29.2580   38.9870 H   0  0  0  0  0  0  0  0  0  0  0  0
   35.5880   28.8860   40.4410 C   0  0  0  0  0  0  0  0  0  0  0  0
   34.6960   28.2290   40.4730 H   0  0  0  0  0  0  0  0  0  0  0  0
   35.2280   29.9310   40.4900 H   0  0  0  0  0  0  0  0  0  0  0  0
   36.5160   28.5910   41.5670 C   0  0  0  0  0  0  0  0  0  0  0  0
   36.6100   27.2390   41.8690 C   0  0  0  0  0  0  0  0  0  0  0  0
   36.0810   26.4250   41.3710 H   0  0  0  0  0  0  0  0  0  0  0  0
   37.4400   26.8300   42.8960 C   0  0  0  0  0  0  0  0  0  0  0  0
   37.5510   25.7840   43.1750 H   0  0  0  0  0  0  0  0  0  0  0  0
   38.1780   27.7530   43.6220 C   0  0  0  0  0  3  0  0  0  0  0  0
   38.0410   29.0950   43.2700 C   0  0  0  0  0  3  0  0  0  0  0  0
   37.2190   29.4820   42.2560 N   0  0  0  0  0  0  0  0  0  0  0  0
  1  2  2  0  0  0  0
  1  6  1  0  0  0  0
  2  3  1  0  0  0  0
  3  8  1  0  0  0  0
  3  4  2  0  0  0  0
  5  4  1  0  0  0  0
  5 27  1  0  0  0  0
  6  5  2  0  0  0  0
  7  1  1  0  0  0  0
  9  7  1  0  0  0  0
 10  7  1  0  0  0  0
 11  2  1  0  0  0  0
 12 21  1  0  0  0  0
 12 11  2  0  0  0  0
 13 12  1  0  0  0  0
 14 13  2  0  0  0  0
 14 19  1  0  0  0  0
 15 14  1  0  0  0  0
 16 15  2  0  0  0  0
 16 17  1  0  0  0  0
 17 18  2  0  0  0  0
 18 19  1  0  0  0  0
 18 25  1  0  0  0  0
 19 20  2  0  0  0  0
 20 11  1  0  0  0  0
 20 26  1  0  0  0  0
 22 13  1  0  0  0  0
 23 16  1  0  0  0  0
 24 17  1  0  0  0  0
 27 30  1  0  0  0  0
 28 27  1  0  0  0  0
 29 27  1  0  0  0  0
 30 31  1  0  0  0  0
 30 32  1  0  0  0  0
 30 33  1  0  0  0  0
 33 34  2  0  0  0  0
 33 40  1  0  0  0  0
 34 36  1  0  0  0  0
 35 34  1  0  0  0  0
 36 37  1  0  0  0  0
 36 38  2  0  0  0  0
 39 38  1  0  0  0  0
 40 39  2  0  0  0  0
M  END
>  <minimizedAffinity>
-5.72490406

$$$$
