
 OpenBabel03252506123D

 35 37  0  0  0  0  0  0  0  0999 V2000
   45.2440   33.5770   41.1160 F   0  0  0  0  0  0  0  0  0  0  0  0
   46.4240   34.1780   41.0390 C   0  0  0  0  0  0  0  0  0  0  0  0
   46.8960   34.8550   42.1380 C   0  0  0  0  0  0  0  0  0  0  0  0
   48.1340   35.5120   42.1490 C   0  0  0  0  0  0  0  0  0  0  0  0
   48.9310   35.4850   41.0050 C   0  0  0  0  0  0  0  0  0  0  0  0
   48.4220   34.7970   39.9310 C   0  0  0  0  0  0  0  0  0  0  0  0
   47.2240   34.1560   39.9020 C   0  0  0  0  0  0  0  0  0  0  0  0
   48.4390   36.0270   43.0580 H   0  0  0  0  0  0  0  0  0  0  0  0
   49.8760   36.0060   41.0630 H   0  0  0  0  0  0  0  0  0  0  0  0
   49.1370   34.8450   39.1150 H   0  0  0  0  0  0  0  0  0  0  0  0
   45.5030   33.9590   45.4140 C   0  0  0  0  0  0  0  0  0  0  0  0
   44.6210   35.0530   45.6510 C   0  0  0  0  0  0  0  0  0  0  0  0
   44.5140   36.0900   44.6800 C   0  0  0  0  0  0  0  0  0  0  0  0
   45.2860   35.9560   43.5630 N   0  0  0  0  0  0  0  0  0  0  0  0
   46.1030   34.9170   43.3720 C   0  0  0  0  0  0  0  0  0  0  0  0
   46.2080   33.9350   44.2850 N   0  0  0  0  0  0  0  0  0  0  0  0
   44.0390   35.0890   46.5650 H   0  0  0  0  0  0  0  0  0  0  0  0
   43.8540   36.9130   44.8520 H   0  0  0  0  0  0  0  0  0  0  0  0
   45.5930   32.9460   46.3900 N   0  0  0  0  0  0  0  0  0  0  0  0
   45.5350   31.9260   46.1140 H   0  0  0  0  0  0  0  0  0  0  0  0
   45.7170   33.2420   47.3940 H   0  0  0  0  0  0  0  0  0  0  0  0
   46.8030   33.4980   38.7760 O   0  0  0  0  0  0  0  0  0  0  0  0
   48.2590   34.7330   36.9470 O   0  0  0  0  0  0  0  0  0  0  0  0
   47.6130   33.4110   37.3070 P   0  0  2  0  0  0  0  0  0  0  0  0
   46.4700   32.9760   36.1090 O   0  0  0  0  0  0  0  0  0  0  0  0
   46.9140   32.9150   35.2230 H   0  0  0  0  0  0  0  0  0  0  0  0
   48.7860   32.2050   37.2420 O   0  0  0  0  0  0  0  0  0  0  0  0
   49.2230   31.3960   38.2500 C   0  0  0  0  0  0  0  0  0  0  0  0
   50.1780   31.6350   39.2240 C   0  0  0  0  0  0  0  0  0  0  0  0
   50.6270   32.5980   39.1600 H   0  0  0  0  0  0  0  0  0  0  0  0
   50.4770   30.6720   40.1640 C   0  0  0  0  0  0  0  0  0  0  0  0
   51.2410   30.9170   40.9080 H   0  0  0  0  0  0  0  0  0  0  0  0
   49.8480   29.4360   40.1810 C   0  0  0  0  0  3  0  0  0  0  0  0
   48.9120   29.2520   39.1960 C   0  0  0  0  0  3  0  0  0  0  0  0
   48.6040   30.1790   38.2680 N   0  0  0  0  0  0  0  0  0  0  0  0
  2  1  1  0  0  0  0
  2  3  1  0  0  0  0
  3  4  2  0  0  0  0
  3 15  1  0  0  0  0
  4  8  1  0  0  0  0
  5  9  1  0  0  0  0
  5  4  1  0  0  0  0
  6  5  2  0  0  0  0
  7  6  1  0  0  0  0
  7  2  2  0  0  0  0
 10  6  1  0  0  0  0
 11 12  1  0  0  0  0
 11 19  1  0  0  0  0
 12 17  1  0  0  0  0
 13 18  1  0  0  0  0
 13 12  2  0  0  0  0
 14 13  1  0  0  0  0
 15 14  2  0  0  0  0
 15 16  1  0  0  0  0
 16 11  2  0  0  0  0
 19 21  1  0  0  0  0
 20 19  1  0  0  0  0
 22  7  1  0  0  0  0
 24 23  2  6  0  0  0
 24 22  1  0  0  0  0
 25 24  1  0  0  0  0
 26 25  1  0  0  0  0
 27 24  1  0  0  0  0
 27 28  1  0  0  0  0
 28 35  2  0  0  0  0
 28 29  1  0  0  0  0
 29 31  2  0  0  0  0
 30 29  1  0  0  0  0
 31 33  1  0  0  0  0
 31 32  1  0  0  0  0
 34 33  2  0  0  0  0
 35 34  1  0  0  0  0
M  END
>  <minimizedAffinity>
-5.81983423

>  <minimizedRMSD>
1.09341633

$$$$
