
 OpenBabel03252506123D

 35 37  0  0  0  0  0  0  0  0999 V2000
   45.2350   33.5590   41.1140 F   0  0  0  0  0  0  0  0  0  0  0  0
   46.4110   34.1660   41.0270 C   0  0  0  0  0  0  0  0  0  0  0  0
   46.8860   34.8520   42.1200 C   0  0  0  0  0  0  0  0  0  0  0  0
   48.1190   35.5160   42.1200 C   0  0  0  0  0  0  0  0  0  0  0  0
   48.9100   35.4880   40.9720 C   0  0  0  0  0  0  0  0  0  0  0  0
   48.3990   34.7900   39.9040 C   0  0  0  0  0  0  0  0  0  0  0  0
   47.2050   34.1420   39.8850 C   0  0  0  0  0  0  0  0  0  0  0  0
   48.4260   36.0390   43.0230 H   0  0  0  0  0  0  0  0  0  0  0  0
   49.8520   36.0140   41.0210 H   0  0  0  0  0  0  0  0  0  0  0  0
   49.1090   34.8370   39.0840 H   0  0  0  0  0  0  0  0  0  0  0  0
   45.5050   33.9610   45.4030 C   0  0  0  0  0  0  0  0  0  0  0  0
   44.6290   35.0580   45.6440 C   0  0  0  0  0  0  0  0  0  0  0  0
   44.5220   36.0960   44.6740 C   0  0  0  0  0  0  0  0  0  0  0  0
   45.2870   35.9590   43.5540 N   0  0  0  0  0  0  0  0  0  0  0  0
   46.0990   34.9170   43.3570 C   0  0  0  0  0  0  0  0  0  0  0  0
   46.2040   33.9340   44.2700 N   0  0  0  0  0  0  0  0  0  0  0  0
   44.0520   35.0970   46.5620 H   0  0  0  0  0  0  0  0  0  0  0  0
   43.8660   36.9220   44.8500 H   0  0  0  0  0  0  0  0  0  0  0  0
   45.5960   32.9470   46.3770 N   0  0  0  0  0  0  0  0  0  0  0  0
   45.5330   31.9270   46.1020 H   0  0  0  0  0  0  0  0  0  0  0  0
   45.7270   33.2430   47.3810 H   0  0  0  0  0  0  0  0  0  0  0  0
   46.7820   33.4740   38.7660 O   0  0  0  0  0  0  0  0  0  0  0  0
   48.4470   34.5250   37.0020 O   0  0  0  0  0  0  0  0  0  0  0  0
   47.6330   33.2910   37.3300 P   0  0  2  0  0  0  0  0  0  0  0  0
   46.4940   32.9960   36.0860 O   0  0  0  0  0  0  0  0  0  0  0  0
   46.9620   32.8810   35.2180 H   0  0  0  0  0  0  0  0  0  0  0  0
   48.6540   31.9520   37.3060 O   0  0  0  0  0  0  0  0  0  0  0  0
   49.8440   31.7850   37.9520 C   0  0  0  0  0  0  0  0  0  0  0  0
   51.1300   31.7510   37.4400 C   0  0  0  0  0  0  0  0  0  0  0  0
   51.1780   31.8760   36.3850 H   0  0  0  0  0  0  0  0  0  0  0  0
   52.2120   31.5680   38.2760 C   0  0  0  0  0  0  0  0  0  0  0  0
   53.2040   31.5510   37.8150 H   0  0  0  0  0  0  0  0  0  0  0  0
   52.0690   31.4110   39.6470 C   0  0  0  0  0  3  0  0  0  0  0  0
   50.7750   31.4530   40.1000 C   0  0  0  0  0  3  0  0  0  0  0  0
   49.7030   31.6300   39.3020 N   0  0  0  0  0  0  0  0  0  0  0  0
  2  1  1  0  0  0  0
  2  3  1  0  0  0  0
  3 15  1  0  0  0  0
  4  3  2  0  0  0  0
  4  8  1  0  0  0  0
  5  9  1  0  0  0  0
  5  4  1  0  0  0  0
  6  5  2  0  0  0  0
  7  6  1  0  0  0  0
  7  2  2  0  0  0  0
 10  6  1  0  0  0  0
 11 12  1  0  0  0  0
 11 19  1  0  0  0  0
 12 17  1  0  0  0  0
 13 18  1  0  0  0  0
 13 12  2  0  0  0  0
 14 13  1  0  0  0  0
 15 14  2  0  0  0  0
 15 16  1  0  0  0  0
 16 11  2  0  0  0  0
 19 21  1  0  0  0  0
 20 19  1  0  0  0  0
 22  7  1  0  0  0  0
 24 23  2  6  0  0  0
 24 22  1  0  0  0  0
 25 24  1  0  0  0  0
 26 25  1  0  0  0  0
 27 24  1  0  0  0  0
 27 28  1  0  0  0  0
 28 35  1  0  0  0  0
 29 28  2  0  0  0  0
 29 31  1  0  0  0  0
 30 29  1  0  0  0  0
 31 33  2  0  0  0  0
 32 31  1  0  0  0  0
 33 34  1  0  0  0  0
 35 34  2  0  0  0  0
M  END
>  <minimizedAffinity>
-6.35667515

>  <minimizedRMSD>
1.93771517

$$$$
