
 OpenBabel03242517553D

 42 44  0  0  0  0  0  0  0  0999 V2000
   46.5130   31.3440   45.3870 O   0  0  0  0  0  0  0  0  0  0  0  0
   45.4650   30.1780   47.2900 C   0  0  0  0  0  0  0  0  0  0  0  0
   46.0590   31.2410   46.7000 C   0  0  0  0  0  0  0  0  0  0  0  0
   46.2630   32.3770   47.4550 C   0  0  0  0  0  0  0  0  0  0  0  0
   45.8890   32.4710   48.7760 C   0  0  0  0  0  0  0  0  0  0  0  0
   45.2840   31.3790   49.3680 C   0  0  0  0  0  0  0  0  0  0  0  0
   45.0790   30.2370   48.6100 C   0  0  0  0  0  0  0  0  0  0  0  0
   46.7280   33.2710   47.0660 H   0  0  0  0  0  0  0  0  0  0  0  0
   46.0490   33.3610   49.3670 H   0  0  0  0  0  0  0  0  0  0  0  0
   44.9880   31.4420   50.4030 H   0  0  0  0  0  0  0  0  0  0  0  0
   44.6080   29.3640   49.0430 H   0  0  0  0  0  0  0  0  0  0  0  0
   45.1430   28.8100   46.2500 S   0  0  0  0  0  0  0  0  0  0  0  0
   44.2410   29.1010   45.1230 O   0  0  0  0  0  0  0  0  0  0  0  0
   44.3580   27.8090   47.1310 O   0  0  0  0  0  0  0  0  0  0  0  0
   46.5860   27.8960   45.8770 C   0  0  0  0  0  0  0  0  0  0  0  0
   47.3310   27.3420   46.8970 C   0  0  0  0  0  0  0  0  0  0  0  0
   46.9880   27.4950   47.9120 H   0  0  0  0  0  0  0  0  0  0  0  0
   48.4530   26.6380   46.5140 C   0  0  0  0  0  0  0  0  0  0  0  0
   49.0540   26.1930   47.2900 H   0  0  0  0  0  0  0  0  0  0  0  0
   48.7440   26.5400   45.1690 C   0  0  0  0  0  0  0  0  0  0  0  0
   47.9900   27.0990   44.1580 C   0  0  0  0  0  0  0  0  0  0  0  0
   46.9090   27.7740   44.5920 N   0  0  0  0  0  0  0  0  0  0  0  0
   45.3070   34.2440   43.7740 C   0  0  0  0  0  0  0  0  0  0  0  0
   46.4670   34.7460   43.1490 C   0  0  0  0  0  0  0  0  0  0  0  0
   47.6540   34.0770   43.2920 C   0  0  0  0  0  0  0  0  0  0  0  0
   47.6200   32.9610   44.0390 N   0  0  0  0  0  0  0  0  0  0  0  0
   46.5310   32.4890   44.6260 C   0  0  0  0  0  0  0  0  0  0  0  0
   45.3740   33.1300   44.4950 N   0  0  0  0  0  0  0  0  0  0  0  0
   44.3710   34.7680   43.6650 H   0  0  0  0  0  0  0  0  0  0  0  0
   46.3250   35.6490   42.5840 H   0  0  0  0  0  0  0  0  0  0  0  0
   48.9100   34.5020   42.6670 C   0  0  0  0  0  0  0  0  0  0  0  0
   49.3250   33.6540   42.0820 H   0  0  0  0  0  0  0  0  0  0  0  0
   49.6570   34.7470   43.4720 H   0  0  0  0  0  0  0  0  0  0  0  0
   48.7320   35.6540   41.7260 C   0  0  0  0  0  0  0  0  0  0  0  0
   49.7140   36.2290   41.7980 H   0  0  0  0  0  0  0  0  0  0  0  0
   47.9840   36.3890   42.0280 H   0  0  0  0  0  0  0  0  0  0  0  0
   48.6130   35.2700   40.3240 C   0  0  0  0  0  0  0  0  0  0  0  0
   48.0460   34.3580   39.5450 C   0  0  0  0  0  0  0  0  0  0  0  0
   48.2280   34.1960   38.0470 C   0  0  0  0  0  0  0  0  0  0  0  0
   47.2130   34.1200   37.6380 H   0  0  0  0  0  0  0  0  0  0  0  0
   48.7860   33.2350   37.8630 H   0  0  0  0  0  0  0  0  0  0  0  0
   48.7930   35.0800   37.7190 H   0  0  0  0  0  0  0  0  0  0  0  0
  1  3  1  0  0  0  0
  2  7  1  0  0  0  0
  3  2  2  0  0  0  0
  3  4  1  0  0  0  0
  4  5  2  0  0  0  0
  5  9  1  0  0  0  0
  5  6  1  0  0  0  0
  6 10  1  0  0  0  0
  7 11  1  0  0  0  0
  7  6  2  0  0  0  0
  8  4  1  0  0  0  0
 12 14  2  0  0  0  0
 12  2  1  0  0  0  0
 13 12  2  0  0  0  0
 15 12  1  0  0  0  0
 15 16  1  0  0  0  0
 16 17  1  0  0  0  0
 18 16  2  0  0  0  0
 18 19  1  0  0  0  0
 20 18  1  0  0  0  0
 21 22  1  0  0  0  0
 21 20  2  0  0  0  0
 22 15  2  0  0  0  0
 23 28  1  0  0  0  0
 24 25  1  0  0  0  0
 24 23  2  0  0  0  0
 25 26  2  0  0  0  0
 26 27  1  0  0  0  0
 27  1  1  0  0  0  0
 28 27  2  0  0  0  0
 29 23  1  0  0  0  0
 30 24  1  0  0  0  0
 31 25  1  0  0  0  0
 31 33  1  0  0  0  0
 32 31  1  0  0  0  0
 34 35  1  0  0  0  0
 34 36  1  0  0  0  0
 34 31  1  0  0  0  0
 37 34  1  0  0  0  0
 38 37  2  0  0  0  0
 39 38  1  0  0  0  0
 40 39  1  0  0  0  0
 41 39  1  0  0  0  0
 42 39  1  0  0  0  0
M  END
>  <minimizedAffinity>
-5.56077003

>  <minimizedRMSD>
1.29005432

$$$$
