
 OpenBabel03252506123D

 35 37  0  0  0  0  0  0  0  0999 V2000
   45.2680   33.5490   41.1360 F   0  0  0  0  0  0  0  0  0  0  0  0
   46.4380   34.1680   41.0540 C   0  0  0  0  0  0  0  0  0  0  0  0
   46.8980   34.8620   42.1480 C   0  0  0  0  0  0  0  0  0  0  0  0
   48.1240   35.5390   42.1530 C   0  0  0  0  0  0  0  0  0  0  0  0
   48.9230   35.5160   41.0100 C   0  0  0  0  0  0  0  0  0  0  0  0
   48.4260   34.8110   39.9410 C   0  0  0  0  0  0  0  0  0  0  0  0
   47.2390   34.1490   39.9180 C   0  0  0  0  0  0  0  0  0  0  0  0
   48.4200   36.0680   43.0580 H   0  0  0  0  0  0  0  0  0  0  0  0
   49.8590   36.0530   41.0640 H   0  0  0  0  0  0  0  0  0  0  0  0
   49.1400   34.8630   39.1260 H   0  0  0  0  0  0  0  0  0  0  0  0
   45.5020   33.9630   45.4220 C   0  0  0  0  0  0  0  0  0  0  0  0
   44.6170   35.0540   45.6580 C   0  0  0  0  0  0  0  0  0  0  0  0
   44.5100   36.0910   44.6870 C   0  0  0  0  0  0  0  0  0  0  0  0
   45.2830   35.9590   43.5710 N   0  0  0  0  0  0  0  0  0  0  0  0
   46.1030   34.9220   43.3800 C   0  0  0  0  0  0  0  0  0  0  0  0
   46.2090   33.9400   44.2930 N   0  0  0  0  0  0  0  0  0  0  0  0
   44.0340   35.0890   46.5710 H   0  0  0  0  0  0  0  0  0  0  0  0
   43.8480   36.9130   44.8580 H   0  0  0  0  0  0  0  0  0  0  0  0
   45.5930   32.9490   46.3970 N   0  0  0  0  0  0  0  0  0  0  0  0
   45.5380   31.9290   46.1210 H   0  0  0  0  0  0  0  0  0  0  0  0
   45.7160   33.2460   47.4020 H   0  0  0  0  0  0  0  0  0  0  0  0
   46.8290   33.4740   38.7980 O   0  0  0  0  0  0  0  0  0  0  0  0
   48.4170   34.6240   37.0230 O   0  0  0  0  0  0  0  0  0  0  0  0
   47.6630   33.3500   37.3450 P   0  0  2  0  0  0  0  0  0  0  0  0
   46.5180   33.0250   36.1150 O   0  0  0  0  0  0  0  0  0  0  0  0
   46.9750   32.9450   35.2380 H   0  0  0  0  0  0  0  0  0  0  0  0
   48.7410   32.0580   37.2820 O   0  0  0  0  0  0  0  0  0  0  0  0
   49.8410   31.8370   38.0590 C   0  0  0  0  0  0  0  0  0  0  0  0
   49.9300   31.6310   39.4260 C   0  0  0  0  0  0  0  0  0  0  0  0
   48.9930   31.6540   39.9270 H   0  0  0  0  0  0  0  0  0  0  0  0
   51.1550   31.4220   40.0240 C   0  0  0  0  0  0  0  0  0  0  0  0
   51.1640   31.2650   41.1070 H   0  0  0  0  0  0  0  0  0  0  0  0
   52.3380   31.4070   39.3000 C   0  0  0  0  0  3  0  0  0  0  0  0
   52.1910   31.6140   37.9520 C   0  0  0  0  0  3  0  0  0  0  0  0
   51.0050   31.8210   37.3470 N   0  0  0  0  0  0  0  0  0  0  0  0
  2  1  1  0  0  0  0
  2  3  1  0  0  0  0
  3  4  2  0  0  0  0
  3 15  1  0  0  0  0
  4  8  1  0  0  0  0
  5  9  1  0  0  0  0
  5  4  1  0  0  0  0
  6  5  2  0  0  0  0
  7  6  1  0  0  0  0
  7  2  2  0  0  0  0
 10  6  1  0  0  0  0
 11 12  1  0  0  0  0
 11 19  1  0  0  0  0
 12 17  1  0  0  0  0
 13 18  1  0  0  0  0
 13 12  2  0  0  0  0
 14 13  1  0  0  0  0
 15 14  2  0  0  0  0
 15 16  1  0  0  0  0
 16 11  2  0  0  0  0
 19 21  1  0  0  0  0
 20 19  1  0  0  0  0
 22  7  1  0  0  0  0
 24 23  2  6  0  0  0
 24 22  1  0  0  0  0
 25 24  1  0  0  0  0
 26 25  1  0  0  0  0
 27 24  1  0  0  0  0
 27 28  1  0  0  0  0
 28 29  1  0  0  0  0
 29 30  1  0  0  0  0
 29 31  2  0  0  0  0
 31 32  1  0  0  0  0
 33 31  1  0  0  0  0
 34 33  2  0  0  0  0
 35 34  1  0  0  0  0
 35 28  2  0  0  0  0
M  END
>  <minimizedAffinity>
-6.42426538

>  <minimizedRMSD>
1.87223327

$$$$
