
 OpenBabel03252506123D

 35 37  0  0  0  0  0  0  0  0999 V2000
   45.1450   33.5340   41.1330 F   0  0  0  0  0  0  0  0  0  0  0  0
   46.3340   34.1120   41.0270 C   0  0  0  0  0  0  0  0  0  0  0  0
   46.8360   34.8010   42.1050 C   0  0  0  0  0  0  0  0  0  0  0  0
   48.0850   35.4350   42.0840 C   0  0  0  0  0  0  0  0  0  0  0  0
   48.8640   35.3720   40.9300 C   0  0  0  0  0  0  0  0  0  0  0  0
   48.3250   34.6730   39.8760 C   0  0  0  0  0  0  0  0  0  0  0  0
   47.1160   34.0530   39.8780 C   0  0  0  0  0  0  0  0  0  0  0  0
   48.4130   35.9630   42.9780 H   0  0  0  0  0  0  0  0  0  0  0  0
   49.8180   35.8770   40.9630 H   0  0  0  0  0  0  0  0  0  0  0  0
   49.0280   34.6910   39.0490 H   0  0  0  0  0  0  0  0  0  0  0  0
   45.4720   33.9920   45.4160 C   0  0  0  0  0  0  0  0  0  0  0  0
   44.6190   35.1090   45.6480 C   0  0  0  0  0  0  0  0  0  0  0  0
   44.5210   36.1320   44.6610 C   0  0  0  0  0  0  0  0  0  0  0  0
   45.2720   35.9620   43.5360 N   0  0  0  0  0  0  0  0  0  0  0  0
   46.0630   34.9010   43.3490 C   0  0  0  0  0  0  0  0  0  0  0  0
   46.1590   33.9330   44.2770 N   0  0  0  0  0  0  0  0  0  0  0  0
   44.0520   35.1730   46.5700 H   0  0  0  0  0  0  0  0  0  0  0  0
   43.8830   36.9730   44.8290 H   0  0  0  0  0  0  0  0  0  0  0  0
   45.5530   32.9930   46.4070 N   0  0  0  0  0  0  0  0  0  0  0  0
   45.4680   31.9700   46.1490 H   0  0  0  0  0  0  0  0  0  0  0  0
   45.7000   33.3030   47.4050 H   0  0  0  0  0  0  0  0  0  0  0  0
   46.6660   33.3800   38.7720 O   0  0  0  0  0  0  0  0  0  0  0  0
   48.0560   34.7190   36.9650 O   0  0  0  0  0  0  0  0  0  0  0  0
   47.3510   33.4070   37.2390 P   0  0  2  0  0  0  0  0  0  0  0  0
   46.0910   33.1750   36.1040 O   0  0  0  0  0  0  0  0  0  0  0  0
   46.4590   33.1850   35.1820 H   0  0  0  0  0  0  0  0  0  0  0  0
   48.4300   32.1470   36.9490 O   0  0  0  0  0  0  0  0  0  0  0  0
   48.2670   30.8180   37.2110 C   0  0  0  0  0  0  0  0  0  0  0  0
   49.0750   29.9540   37.9320 C   0  0  0  0  0  0  0  0  0  0  0  0
   49.9460   30.4130   38.3330 H   0  0  0  0  0  0  0  0  0  0  0  0
   48.7260   28.6280   38.0790 C   0  0  0  0  0  0  0  0  0  0  0  0
   49.4030   27.9940   38.6600 H   0  0  0  0  0  0  0  0  0  0  0  0
   47.5700   28.1030   37.5250 C   0  0  0  0  0  3  0  0  0  0  0  0
   46.8080   29.0000   36.8210 C   0  0  0  0  0  3  0  0  0  0  0  0
   47.1290   30.3000   36.6640 N   0  0  0  0  0  0  0  0  0  0  0  0
  2  1  1  0  0  0  0
  2  3  1  0  0  0  0
  3 15  1  0  0  0  0
  4  3  2  0  0  0  0
  4  8  1  0  0  0  0
  5  9  1  0  0  0  0
  5  4  1  0  0  0  0
  6  7  1  0  0  0  0
  6  5  2  0  0  0  0
  7  2  2  0  0  0  0
 10  6  1  0  0  0  0
 11 12  1  0  0  0  0
 11 19  1  0  0  0  0
 12 17  1  0  0  0  0
 13 18  1  0  0  0  0
 13 12  2  0  0  0  0
 14 13  1  0  0  0  0
 15 14  2  0  0  0  0
 15 16  1  0  0  0  0
 16 11  2  0  0  0  0
 19 21  1  0  0  0  0
 20 19  1  0  0  0  0
 22  7  1  0  0  0  0
 24 23  2  6  0  0  0
 24 22  1  0  0  0  0
 25 24  1  0  0  0  0
 26 25  1  0  0  0  0
 27 28  1  0  0  0  0
 27 24  1  0  0  0  0
 28 29  1  0  0  0  0
 29 31  2  0  0  0  0
 29 30  1  0  0  0  0
 31 32  1  0  0  0  0
 33 31  1  0  0  0  0
 34 33  2  0  0  0  0
 35 34  1  0  0  0  0
 35 28  2  0  0  0  0
M  END
>  <minimizedAffinity>
-5.70983171

>  <minimizedRMSD>
0.475240409

$$$$
