
 OpenBabel03252506123D

 35 37  0  0  0  0  0  0  0  0999 V2000
   45.2070   33.5380   41.1060 F   0  0  0  0  0  0  0  0  0  0  0  0
   46.3890   34.1310   41.0110 C   0  0  0  0  0  0  0  0  0  0  0  0
   46.8740   34.8210   42.0970 C   0  0  0  0  0  0  0  0  0  0  0  0
   48.1150   35.4710   42.0880 C   0  0  0  0  0  0  0  0  0  0  0  0
   48.9030   35.4240   40.9390 C   0  0  0  0  0  0  0  0  0  0  0  0
   48.3810   34.7230   39.8780 C   0  0  0  0  0  0  0  0  0  0  0  0
   47.1800   34.0880   39.8680 C   0  0  0  0  0  0  0  0  0  0  0  0
   48.4310   35.9970   42.9870 H   0  0  0  0  0  0  0  0  0  0  0  0
   49.8520   35.9390   40.9810 H   0  0  0  0  0  0  0  0  0  0  0  0
   49.0900   34.7550   39.0560 H   0  0  0  0  0  0  0  0  0  0  0  0
   45.4940   33.9740   45.3910 C   0  0  0  0  0  0  0  0  0  0  0  0
   44.6290   35.0820   45.6250 C   0  0  0  0  0  0  0  0  0  0  0  0
   44.5290   36.1120   44.6450 C   0  0  0  0  0  0  0  0  0  0  0  0
   45.2900   35.9570   43.5240 N   0  0  0  0  0  0  0  0  0  0  0  0
   46.0910   34.9050   43.3360 C   0  0  0  0  0  0  0  0  0  0  0  0
   46.1890   33.9300   44.2570 N   0  0  0  0  0  0  0  0  0  0  0  0
   44.0550   35.1350   46.5430 H   0  0  0  0  0  0  0  0  0  0  0  0
   43.8820   36.9460   44.8150 H   0  0  0  0  0  0  0  0  0  0  0  0
   45.5770   32.9690   46.3750 N   0  0  0  0  0  0  0  0  0  0  0  0
   45.5030   31.9470   46.1090 H   0  0  0  0  0  0  0  0  0  0  0  0
   45.7130   33.2730   47.3760 H   0  0  0  0  0  0  0  0  0  0  0  0
   46.7460   33.4170   38.7550 O   0  0  0  0  0  0  0  0  0  0  0  0
   48.1380   34.7390   36.9380 O   0  0  0  0  0  0  0  0  0  0  0  0
   47.4760   33.4120   37.2430 P   0  0  2  0  0  0  0  0  0  0  0  0
   46.2620   33.0860   36.0810 O   0  0  0  0  0  0  0  0  0  0  0  0
   46.6580   33.0750   35.1710 H   0  0  0  0  0  0  0  0  0  0  0  0
   48.6120   32.1860   37.0350 O   0  0  0  0  0  0  0  0  0  0  0  0
   48.4820   30.8570   37.3180 C   0  0  0  0  0  0  0  0  0  0  0  0
   49.3320   30.0150   38.0160 C   0  0  0  0  0  0  0  0  0  0  0  0
   50.2100   30.4940   38.3790 H   0  0  0  0  0  0  0  0  0  0  0  0
   49.0110   28.6860   38.1920 C   0  0  0  0  0  0  0  0  0  0  0  0
   49.7210   28.0700   38.7530 H   0  0  0  0  0  0  0  0  0  0  0  0
   47.8450   28.1340   37.6880 C   0  0  0  0  0  3  0  0  0  0  0  0
   47.0400   29.0100   37.0040 C   0  0  0  0  0  3  0  0  0  0  0  0
   47.3330   30.3130   36.8200 N   0  0  0  0  0  0  0  0  0  0  0  0
  2  1  1  0  0  0  0
  2  3  1  0  0  0  0
  3 15  1  0  0  0  0
  4  3  2  0  0  0  0
  4  8  1  0  0  0  0
  5  9  1  0  0  0  0
  5  4  1  0  0  0  0
  6  5  2  0  0  0  0
  7  6  1  0  0  0  0
  7  2  2  0  0  0  0
 10  6  1  0  0  0  0
 11 12  1  0  0  0  0
 11 19  1  0  0  0  0
 12 17  1  0  0  0  0
 13 18  1  0  0  0  0
 13 12  2  0  0  0  0
 14 13  1  0  0  0  0
 15 14  2  0  0  0  0
 15 16  1  0  0  0  0
 16 11  2  0  0  0  0
 19 21  1  0  0  0  0
 20 19  1  0  0  0  0
 22  7  1  0  0  0  0
 24 23  2  6  0  0  0
 24 22  1  0  0  0  0
 25 24  1  0  0  0  0
 26 25  1  0  0  0  0
 27 24  1  0  0  0  0
 27 28  1  0  0  0  0
 28 29  1  0  0  0  0
 29 31  2  0  0  0  0
 29 30  1  0  0  0  0
 31 32  1  0  0  0  0
 33 31  1  0  0  0  0
 34 33  2  0  0  0  0
 35 34  1  0  0  0  0
 35 28  2  0  0  0  0
M  END
>  <minimizedAffinity>
-5.67869186

>  <minimizedRMSD>
0.347432762

$$$$
