
 OpenBabel03242522473D

 40 43  0  0  0  0  0  0  0  0999 V2000
   45.6600   34.6770   44.2080 C   0  0  0  0  0  0  0  0  0  0  0  0
   46.7110   33.9640   43.6240 C   0  0  0  0  0  0  0  0  0  0  0  0
   47.3020   32.8800   44.3430 C   0  0  0  0  0  0  0  0  0  0  0  0
   46.8000   32.6010   45.5670 N   0  0  0  0  0  0  0  0  0  0  0  0
   45.7780   33.3180   46.1030 C   0  0  0  0  0  0  0  0  0  0  0  0
   45.2280   34.3390   45.4140 N   0  0  0  0  0  0  0  0  0  0  0  0
   45.0980   35.7320   43.4890 N   0  0  0  0  0  0  0  0  0  0  0  0
   48.1100   32.3150   43.9190 H   0  0  0  0  0  0  0  0  0  0  0  0
   45.2220   36.7310   43.7590 H   0  0  0  0  0  0  0  0  0  0  0  0
   44.5100   35.6780   42.6320 H   0  0  0  0  0  0  0  0  0  0  0  0
   47.2500   34.2620   42.3130 C   0  0  0  0  0  0  0  0  0  0  0  0
   48.2720   35.1520   41.9940 C   0  0  0  0  0  0  0  0  0  0  0  0
   48.6740   35.3210   40.6840 C   0  0  0  0  0  0  0  0  0  0  0  0
   48.0760   34.6130   39.6470 C   0  0  0  0  0  0  0  0  0  0  0  0
   48.5260   34.8290   38.4020 N   0  0  0  0  0  0  0  0  0  0  0  0
   47.9550   34.1400   37.3610 C   0  0  0  0  0  0  0  0  0  0  0  0
   46.9500   33.2640   37.6710 C   0  0  0  0  0  0  0  0  0  0  0  0
   46.4820   33.0360   38.9390 C   0  0  0  0  0  0  0  0  0  0  0  0
   47.0600   33.7290   39.9710 C   0  0  0  0  0  0  0  0  0  0  0  0
   46.6430   33.5480   41.2840 C   0  0  0  0  0  0  0  0  0  0  0  0
   48.6920   35.6670   42.8350 H   0  0  0  0  0  0  0  0  0  0  0  0
   49.4730   36.0270   40.5090 H   0  0  0  0  0  0  0  0  0  0  0  0
   48.3500   34.3490   36.3920 H   0  0  0  0  0  0  0  0  0  0  0  0
   46.5630   32.7670   36.7740 H   0  0  0  0  0  0  0  0  0  0  0  0
   45.6900   32.3310   39.0920 H   0  0  0  0  0  0  0  0  0  0  0  0
   45.8410   32.8320   41.4140 H   0  0  0  0  0  0  0  0  0  0  0  0
   45.3030   32.9240   47.4730 C   0  0  0  0  0  0  0  0  0  0  0  0
   45.1850   33.9030   48.0150 H   0  0  0  0  0  0  0  0  0  0  0  0
   44.3880   32.3350   47.4650 H   0  0  0  0  0  0  0  0  0  0  0  0
   46.4240   32.2030   48.2130 C   0  0  0  0  0  0  0  0  0  0  0  0
   46.2820   32.4120   49.2920 H   0  0  0  0  0  0  0  0  0  0  0  0
   47.4000   32.6320   47.9210 H   0  0  0  0  0  0  0  0  0  0  0  0
   46.3820   30.7400   47.9370 C   0  0  0  0  0  0  0  0  0  0  0  0
   45.1030   30.2020   47.9850 C   0  0  0  0  0  0  0  0  0  0  0  0
   44.1800   30.7430   48.1990 H   0  0  0  0  0  0  0  0  0  0  0  0
   44.9260   28.8530   47.7460 C   0  0  0  0  0  0  0  0  0  0  0  0
   43.9470   28.3790   47.7700 H   0  0  0  0  0  0  0  0  0  0  0  0
   46.0080   28.0350   47.4570 C   0  0  0  0  0  0  0  0  0  0  0  0
   47.2670   28.6340   47.4240 C   0  0  0  0  0  0  0  0  0  0  0  0
   47.4250   29.9660   47.6620 N   0  0  0  0  0  0  0  0  0  0  0  0
  1  6  1  0  0  0  0
  2  1  2  0  0  0  0
  2  3  1  0  0  0  0
  3  4  2  0  0  0  0
  4  5  1  0  0  0  0
  5 27  1  0  0  0  0
  6  5  2  0  0  0  0
  7  9  1  0  0  0  0
  7  1  1  0  0  0  0
  8  3  1  0  0  0  0
 10  7  1  0  0  0  0
 11  2  1  0  0  0  0
 12 11  1  0  0  0  0
 12 21  1  0  0  0  0
 13 12  2  0  0  0  0
 14 19  1  0  0  0  0
 14 13  1  0  0  0  0
 15 14  2  0  0  0  0
 16 17  2  0  0  0  0
 16 15  1  0  0  0  0
 17 18  1  0  0  0  0
 18 25  1  0  0  0  0
 18 19  2  0  0  0  0
 19 20  1  0  0  0  0
 20 26  1  0  0  0  0
 20 11  2  0  0  0  0
 22 13  1  0  0  0  0
 23 16  1  0  0  0  0
 24 17  1  0  0  0  0
 27 28  1  0  0  0  0
 27 30  1  0  0  0  0
 29 27  1  0  0  0  0
 30 31  1  0  0  0  0
 32 30  1  0  0  0  0
 33 34  1  0  0  0  0
 33 30  1  0  0  0  0
 34 35  1  0  0  0  0
 36 37  1  0  0  0  0
 36 34  2  0  0  0  0
 38 36  1  0  0  0  0
 39 38  2  0  0  0  0
 39 40  1  0  0  0  0
 40 33  2  0  0  0  0
M  END
>  <minimizedAffinity>
-6.49727201

>  <minimizedRMSD>
1.38791156

$$$$
