
 OpenBabel03252509133D

 31 34  0  0  0  0  0  0  0  0999 V2000
   37.3180   33.0090   39.5870 C   0  0  0  0  0  0  0  0  0  0  0  0
   37.6180   31.6430   39.6550 C   0  0  0  0  0  0  0  0  0  0  0  0
   38.8560   31.1780   40.0190 C   0  0  0  0  0  0  0  0  0  0  0  0
   39.8780   32.0860   40.3420 C   0  0  0  0  0  0  0  0  0  0  0  0
   41.1690   32.0010   40.7280 N   0  0  0  0  0  0  0  0  0  0  0  0
   41.6720   33.2380   40.9000 C   0  0  0  0  0  0  0  0  0  0  0  0
   40.6560   34.0880   40.6090 N   0  0  0  0  0  0  0  0  0  0  0  0
   39.5560   33.4130   40.2660 C   0  0  0  0  0  0  0  0  0  0  0  0
   38.3230   33.9210   39.9030 C   0  0  0  0  0  0  0  0  0  0  0  0
   36.3330   33.3390   39.2960 H   0  0  0  0  0  0  0  0  0  0  0  0
   41.6750   31.1060   40.8660 H   0  0  0  0  0  0  0  0  0  0  0  0
   42.6910   33.4640   41.2110 H   0  0  0  0  0  0  0  0  0  0  0  0
   38.1450   34.9880   39.8680 H   0  0  0  0  0  0  0  0  0  0  0  0
   34.7710   29.3540   39.9770 C   0  0  0  0  0  0  0  0  0  0  0  0
   34.6280   28.8670   38.6710 C   0  0  0  0  0  0  0  0  0  0  0  0
   35.5070   29.3290   37.6970 C   0  0  0  0  0  0  0  0  0  0  0  0
   36.4710   30.2350   38.0590 N   0  0  0  0  0  0  0  0  0  0  0  0
   36.5750   30.6790   39.3250 C   0  0  0  0  0  0  0  0  0  0  0  0
   35.7350   30.2530   40.3070 N   0  0  0  0  0  0  0  0  0  0  0  0
   34.1570   29.0780   40.8250 H   0  0  0  0  0  0  0  0  0  0  0  0
   33.8400   28.1600   38.4990 H   0  0  0  0  0  0  0  0  0  0  0  0
   35.4020   28.9570   36.6870 H   0  0  0  0  0  0  0  0  0  0  0  0
   39.2310   29.4450   40.1110 S   0  0  0  0  0  0  0  0  0  0  0  0
   38.3440   28.6040   41.4140 C   0  0  0  0  0  0  0  0  0  0  0  0
   38.1950   29.1410   42.6850 C   0  0  0  0  0  0  0  0  0  0  0  0
   38.6340   30.1080   42.9020 H   0  0  0  0  0  0  0  0  0  0  0  0
   37.5030   28.4710   43.6770 C   0  0  0  0  0  0  0  0  0  0  0  0
   37.3710   28.8620   44.6740 H   0  0  0  0  0  0  0  0  0  0  0  0
   36.9290   27.2260   43.4290 C   0  0  0  0  0  3  0  0  0  0  0  0
   37.0960   26.7270   42.1570 C   0  0  0  0  0  3  0  0  0  0  0  0
   37.7650   27.3880   41.2200 N   0  0  0  0  0  0  0  0  0  0  0  0
  1  2  2  0  0  0  0
  1  9  1  0  0  0  0
  2  3  1  0  0  0  0
  3 23  1  0  0  0  0
  3  4  2  0  0  0  0
  4  5  1  0  0  0  0
  5 11  1  0  0  0  0
  5  6  1  0  0  0  0
  6 12  1  0  0  0  0
  7  6  2  0  0  0  0
  8  4  1  0  0  0  0
  8  7  1  0  0  0  0
  9  8  2  0  0  0  0
 10  1  1  0  0  0  0
 13  9  1  0  0  0  0
 14 19  1  0  0  0  0
 14 20  1  0  0  0  0
 15 14  2  0  0  0  0
 16 17  2  0  0  0  0
 16 15  1  0  0  0  0
 17 18  1  0  0  0  0
 18  2  1  0  0  0  0
 18 19  2  0  0  0  0
 21 15  1  0  0  0  0
 22 16  1  0  0  0  0
 23 24  1  0  0  0  0
 24 25  1  0  0  0  0
 25 26  1  0  0  0  0
 25 27  2  0  0  0  0
 27 28  1  0  0  0  0
 29 27  1  0  0  0  0
 30 29  2  0  0  0  0
 31 24  2  0  0  0  0
 31 30  1  0  0  0  0
M  END
>  <minimizedAffinity>
-5.92053032

$$$$

 OpenBabel03252509133D

 31 34  0  0  0  0  0  0  0  0999 V2000
   37.6400   31.0140   37.1000 C   0  0  0  0  0  0  0  0  0  0  0  0
   37.4210   31.1190   38.4790 C   0  0  0  0  0  0  0  0  0  0  0  0
   36.4870   30.3610   39.1360 C   0  0  0  0  0  0  0  0  0  0  0  0
   35.7080   29.4350   38.4220 C   0  0  0  0  0  0  0  0  0  0  0  0
   34.7310   28.5510   38.7190 N   0  0  0  0  0  0  0  0  0  0  0  0
   34.3430   27.9130   37.5990 C   0  0  0  0  0  0  0  0  0  0  0  0
   35.1090   28.4270   36.6030 N   0  0  0  0  0  0  0  0  0  0  0  0
   35.9440   29.3540   37.0780 C   0  0  0  0  0  0  0  0  0  0  0  0
   36.8740   30.1000   36.3790 C   0  0  0  0  0  0  0  0  0  0  0  0
   38.3840   31.6270   36.6160 H   0  0  0  0  0  0  0  0  0  0  0  0
   34.3530   28.4040   39.6730 H   0  0  0  0  0  0  0  0  0  0  0  0
   33.5710   27.1470   37.5480 H   0  0  0  0  0  0  0  0  0  0  0  0
   37.0030   29.9770   35.3110 H   0  0  0  0  0  0  0  0  0  0  0  0
   38.4390   34.1610   40.2560 C   0  0  0  0  0  0  0  0  0  0  0  0
   39.7360   33.8420   40.6800 C   0  0  0  0  0  0  0  0  0  0  0  0
   40.2450   32.5900   40.3520 C   0  0  0  0  0  0  0  0  0  0  0  0
   39.4580   31.7290   39.6310 N   0  0  0  0  0  0  0  0  0  0  0  0
   38.2160   32.0730   39.2440 C   0  0  0  0  0  0  0  0  0  0  0  0
   37.6810   33.2880   39.5440 N   0  0  0  0  0  0  0  0  0  0  0  0
   37.9250   35.0950   40.4440 H   0  0  0  0  0  0  0  0  0  0  0  0
   40.2630   34.5900   41.2380 H   0  0  0  0  0  0  0  0  0  0  0  0
   41.2460   32.3370   40.6760 H   0  0  0  0  0  0  0  0  0  0  0  0
   36.2150   30.4920   40.8860 S   0  0  0  0  0  0  0  0  0  0  0  0
   37.1230   29.2760   41.8290 C   0  0  0  0  0  0  0  0  0  0  0  0
   36.5740   28.0570   42.2020 C   0  0  0  0  0  0  0  0  0  0  0  0
   35.5540   27.8290   41.9120 H   0  0  0  0  0  0  0  0  0  0  0  0
   37.2970   27.1310   42.9320 C   0  0  0  0  0  0  0  0  0  0  0  0
   36.8980   26.1760   43.2360 H   0  0  0  0  0  0  0  0  0  0  0  0
   38.6080   27.3950   43.3180 C   0  0  0  0  0  3  0  0  0  0  0  0
   39.1180   28.6140   42.9300 C   0  0  0  0  0  3  0  0  0  0  0  0
   38.4060   29.4880   42.2290 N   0  0  0  0  0  0  0  0  0  0  0  0
  1  2  1  0  0  0  0
  2  3  2  0  0  0  0
  2 18  1  0  0  0  0
  3 23  1  0  0  0  0
  4  5  1  0  0  0  0
  4  3  1  0  0  0  0
  5 11  1  0  0  0  0
  6  5  1  0  0  0  0
  7  8  1  0  0  0  0
  7  6  2  0  0  0  0
  8  4  2  0  0  0  0
  9  8  1  0  0  0  0
  9  1  2  0  0  0  0
 10  1  1  0  0  0  0
 12  6  1  0  0  0  0
 13  9  1  0  0  0  0
 14 20  1  0  0  0  0
 14 15  1  0  0  0  0
 15 21  1  0  0  0  0
 16 22  1  0  0  0  0
 16 15  2  0  0  0  0
 17 16  1  0  0  0  0
 18 19  1  0  0  0  0
 18 17  2  0  0  0  0
 19 14  2  0  0  0  0
 23 24  1  0  0  0  0
 24 25  2  0  0  0  0
 24 31  1  0  0  0  0
 25 27  1  0  0  0  0
 26 25  1  0  0  0  0
 27 28  1  0  0  0  0
 27 29  2  0  0  0  0
 30 29  1  0  0  0  0
 31 30  2  0  0  0  0
M  END
>  <minimizedAffinity>
-5.74969149

$$$$

 OpenBabel03252509133D

 31 34  0  0  0  0  0  0  0  0999 V2000
   36.9790   30.2690   36.8560 C   0  0  0  0  0  0  0  0  0  0  0  0
   36.3210   29.5900   37.8880 C   0  0  0  0  0  0  0  0  0  0  0  0
   36.2470   30.0840   39.1650 C   0  0  0  0  0  0  0  0  0  0  0  0
   36.8450   31.3180   39.4740 C   0  0  0  0  0  0  0  0  0  0  0  0
   36.9720   32.0880   40.5760 N   0  0  0  0  0  0  0  0  0  0  0  0
   37.6680   33.1990   40.2720 C   0  0  0  0  0  0  0  0  0  0  0  0
   37.9670   33.0930   38.9530 N   0  0  0  0  0  0  0  0  0  0  0  0
   37.4790   31.9580   38.4460 C   0  0  0  0  0  0  0  0  0  0  0  0
   37.5770   31.4940   37.1480 C   0  0  0  0  0  0  0  0  0  0  0  0
   37.0180   29.8490   35.8630 H   0  0  0  0  0  0  0  0  0  0  0  0
   36.5820   31.8410   41.5040 H   0  0  0  0  0  0  0  0  0  0  0  0
   37.9170   33.9960   40.9720 H   0  0  0  0  0  0  0  0  0  0  0  0
   38.0970   32.0610   36.3880 H   0  0  0  0  0  0  0  0  0  0  0  0
   33.8360   27.0810   36.9000 C   0  0  0  0  0  0  0  0  0  0  0  0
   34.5430   25.8810   37.0530 C   0  0  0  0  0  0  0  0  0  0  0  0
   35.8610   25.9460   37.4930 C   0  0  0  0  0  0  0  0  0  0  0  0
   36.4060   27.1770   37.7550 N   0  0  0  0  0  0  0  0  0  0  0  0
   35.6930   28.3070   37.5940 C   0  0  0  0  0  0  0  0  0  0  0  0
   34.4020   28.2870   37.1670 N   0  0  0  0  0  0  0  0  0  0  0  0
   32.8100   27.1710   36.5670 H   0  0  0  0  0  0  0  0  0  0  0  0
   34.0200   24.9740   36.8200 H   0  0  0  0  0  0  0  0  0  0  0  0
   36.4130   25.0230   37.6130 H   0  0  0  0  0  0  0  0  0  0  0  0
   35.4080   29.2230   40.4710 S   0  0  0  0  0  0  0  0  0  0  0  0
   36.5220   28.5380   41.6890 C   0  0  0  0  0  0  0  0  0  0  0  0
   36.7050   27.1720   41.8510 C   0  0  0  0  0  0  0  0  0  0  0  0
   36.1510   26.4890   41.2160 H   0  0  0  0  0  0  0  0  0  0  0  0
   37.5730   26.6660   42.8000 C   0  0  0  0  0  0  0  0  0  0  0  0
   37.7360   25.6100   42.9500 H   0  0  0  0  0  0  0  0  0  0  0  0
   38.2980   27.5180   43.6300 C   0  0  0  0  0  3  0  0  0  0  0  0
   38.0900   28.8660   43.4390 C   0  0  0  0  0  3  0  0  0  0  0  0
   37.2510   29.3300   42.5220 N   0  0  0  0  0  0  0  0  0  0  0  0
  1  9  2  0  0  0  0
  1  2  1  0  0  0  0
  2  3  2  0  0  0  0
  3  4  1  0  0  0  0
  3 23  1  0  0  0  0
  4  5  1  0  0  0  0
  5 11  1  0  0  0  0
  6  5  1  0  0  0  0
  6 12  1  0  0  0  0
  7  6  2  0  0  0  0
  8  7  1  0  0  0  0
  8  4  2  0  0  0  0
  9  8  1  0  0  0  0
 10  1  1  0  0  0  0
 13  9  1  0  0  0  0
 14 15  2  0  0  0  0
 14 19  1  0  0  0  0
 15 16  1  0  0  0  0
 16 22  1  0  0  0  0
 16 17  2  0  0  0  0
 18 17  1  0  0  0  0
 18  2  1  0  0  0  0
 19 18  2  0  0  0  0
 20 14  1  0  0  0  0
 21 15  1  0  0  0  0
 23 24  1  0  0  0  0
 24 25  2  0  0  0  0
 24 31  1  0  0  0  0
 25 27  1  0  0  0  0
 26 25  1  0  0  0  0
 27 28  1  0  0  0  0
 27 29  2  0  0  0  0
 30 29  1  0  0  0  0
 31 30  2  0  0  0  0
M  END
>  <minimizedAffinity>
-5.65760756

$$$$

 OpenBabel03252509133D

 31 34  0  0  0  0  0  0  0  0999 V2000
   37.4300   30.9010   36.9690 C   0  0  0  0  0  0  0  0  0  0  0  0
   37.1790   31.0060   38.3420 C   0  0  0  0  0  0  0  0  0  0  0  0
   36.2410   30.2360   38.9800 C   0  0  0  0  0  0  0  0  0  0  0  0
   35.4900   29.2980   38.2510 C   0  0  0  0  0  0  0  0  0  0  0  0
   34.5190   28.4020   38.5280 N   0  0  0  0  0  0  0  0  0  0  0  0
   34.1650   27.7570   37.4010 C   0  0  0  0  0  0  0  0  0  0  0  0
   34.9450   28.2790   36.4220 N   0  0  0  0  0  0  0  0  0  0  0  0
   35.7580   29.2180   36.9130 C   0  0  0  0  0  0  0  0  0  0  0  0
   36.6920   29.9760   36.2330 C   0  0  0  0  0  0  0  0  0  0  0  0
   38.1750   31.5240   36.5010 H   0  0  0  0  0  0  0  0  0  0  0  0
   34.1220   28.2510   39.4740 H   0  0  0  0  0  0  0  0  0  0  0  0
   33.4050   26.9800   37.3340 H   0  0  0  0  0  0  0  0  0  0  0  0
   36.8460   29.8530   35.1690 H   0  0  0  0  0  0  0  0  0  0  0  0
   39.8510   32.5230   40.3440 C   0  0  0  0  0  0  0  0  0  0  0  0
   39.3520   33.8090   40.5860 C   0  0  0  0  0  0  0  0  0  0  0  0
   38.1070   34.1420   40.0610 C   0  0  0  0  0  0  0  0  0  0  0  0
   37.4290   33.1970   39.3340 N   0  0  0  0  0  0  0  0  0  0  0  0
   37.9430   31.9720   39.1230 C   0  0  0  0  0  0  0  0  0  0  0  0
   39.1560   31.6070   39.6200 N   0  0  0  0  0  0  0  0  0  0  0  0
   40.8010   32.1380   40.6940 H   0  0  0  0  0  0  0  0  0  0  0  0
   39.9660   34.4680   41.1680 H   0  0  0  0  0  0  0  0  0  0  0  0
   37.7160   35.1340   40.2440 H   0  0  0  0  0  0  0  0  0  0  0  0
   35.9290   30.3670   40.7240 S   0  0  0  0  0  0  0  0  0  0  0  0
   36.8620   29.1910   41.6920 C   0  0  0  0  0  0  0  0  0  0  0  0
   37.9640   29.5550   42.4530 C   0  0  0  0  0  0  0  0  0  0  0  0
   38.2760   30.5930   42.4630 H   0  0  0  0  0  0  0  0  0  0  0  0
   38.6700   28.6260   43.1950 C   0  0  0  0  0  0  0  0  0  0  0  0
   39.5300   28.8790   43.7950 H   0  0  0  0  0  0  0  0  0  0  0  0
   38.2940   27.2850   43.2020 C   0  0  0  0  0  3  0  0  0  0  0  0
   37.1960   26.9620   42.4370 C   0  0  0  0  0  3  0  0  0  0  0  0
   36.5330   27.8710   41.7320 N   0  0  0  0  0  0  0  0  0  0  0  0
  1  2  1  0  0  0  0
  2  3  2  0  0  0  0
  2 18  1  0  0  0  0
  3 23  1  0  0  0  0
  4  5  1  0  0  0  0
  4  3  1  0  0  0  0
  5 11  1  0  0  0  0
  6  5  1  0  0  0  0
  7  8  1  0  0  0  0
  7  6  2  0  0  0  0
  8  4  2  0  0  0  0
  9  8  1  0  0  0  0
  9  1  2  0  0  0  0
 10  1  1  0  0  0  0
 12  6  1  0  0  0  0
 13  9  1  0  0  0  0
 14 15  1  0  0  0  0
 14 20  1  0  0  0  0
 15 21  1  0  0  0  0
 16 22  1  0  0  0  0
 16 15  2  0  0  0  0
 17 16  1  0  0  0  0
 18 17  2  0  0  0  0
 18 19  1  0  0  0  0
 19 14  2  0  0  0  0
 23 24  1  0  0  0  0
 24 31  2  0  0  0  0
 24 25  1  0  0  0  0
 25 26  1  0  0  0  0
 25 27  2  0  0  0  0
 27 29  1  0  0  0  0
 27 28  1  0  0  0  0
 30 29  2  0  0  0  0
 31 30  1  0  0  0  0
M  END
>  <minimizedAffinity>
-5.63383198

$$$$

 OpenBabel03252509133D

 31 34  0  0  0  0  0  0  0  0999 V2000
   36.6070   26.4640   39.4000 C   0  0  0  0  0  0  0  0  0  0  0  0
   36.2170   27.8040   39.2930 C   0  0  0  0  0  0  0  0  0  0  0  0
   36.2590   28.6710   40.3540 C   0  0  0  0  0  0  0  0  0  0  0  0
   36.7080   28.2220   41.6080 C   0  0  0  0  0  0  0  0  0  0  0  0
   36.8800   28.7650   42.8320 N   0  0  0  0  0  0  0  0  0  0  0  0
   37.3530   27.8320   43.6780 C   0  0  0  0  0  0  0  0  0  0  0  0
   37.4690   26.6980   42.9420 N   0  0  0  0  0  0  0  0  0  0  0  0
   37.0820   26.9090   41.6820 C   0  0  0  0  0  0  0  0  0  0  0  0
   37.0530   26.0050   40.6370 C   0  0  0  0  0  0  0  0  0  0  0  0
   36.5590   25.8110   38.5430 H   0  0  0  0  0  0  0  0  0  0  0  0
   36.6720   29.7550   43.0610 H   0  0  0  0  0  0  0  0  0  0  0  0
   37.5840   27.9970   44.7300 H   0  0  0  0  0  0  0  0  0  0  0  0
   37.3670   24.9780   40.7760 H   0  0  0  0  0  0  0  0  0  0  0  0
   36.1830   29.2920   35.9410 C   0  0  0  0  0  0  0  0  0  0  0  0
   34.8290   29.2130   35.5900 C   0  0  0  0  0  0  0  0  0  0  0  0
   33.9440   28.6500   36.5050 C   0  0  0  0  0  0  0  0  0  0  0  0
   34.4370   28.2020   37.7040 N   0  0  0  0  0  0  0  0  0  0  0  0
   35.7460   28.2960   38.0030 C   0  0  0  0  0  0  0  0  0  0  0  0
   36.6430   28.8400   37.1360 N   0  0  0  0  0  0  0  0  0  0  0  0
   36.9720   29.7050   35.3250 H   0  0  0  0  0  0  0  0  0  0  0  0
   34.5520   29.5940   34.6270 H   0  0  0  0  0  0  0  0  0  0  0  0
   32.8970   28.5850   36.2400 H   0  0  0  0  0  0  0  0  0  0  0  0
   35.7700   30.3720   40.2140 S   0  0  0  0  0  0  0  0  0  0  0  0
   37.1370   31.5100   40.3780 C   0  0  0  0  0  0  0  0  0  0  0  0
   37.1360   32.7700   39.7960 C   0  0  0  0  0  0  0  0  0  0  0  0
   36.2730   33.0810   39.2180 H   0  0  0  0  0  0  0  0  0  0  0  0
   38.2060   33.6340   39.9380 C   0  0  0  0  0  0  0  0  0  0  0  0
   38.2340   34.6190   39.4980 H   0  0  0  0  0  0  0  0  0  0  0  0
   39.3280   33.2630   40.6750 C   0  0  0  0  0  3  0  0  0  0  0  0
   39.2930   32.0070   41.2370 C   0  0  0  0  0  3  0  0  0  0  0  0
   38.2550   31.1940   41.0880 N   0  0  0  0  0  0  0  0  0  0  0  0
  1  9  1  0  0  0  0
  2  1  2  0  0  0  0
  2  3  1  0  0  0  0
  3  4  2  0  0  0  0
  4  8  1  0  0  0  0
  4  5  1  0  0  0  0
  5 11  1  0  0  0  0
  5  6  1  0  0  0  0
  6 12  1  0  0  0  0
  7  6  2  0  0  0  0
  8  7  1  0  0  0  0
  9 13  1  0  0  0  0
  9  8  2  0  0  0  0
 10  1  1  0  0  0  0
 14 19  1  0  0  0  0
 15 14  2  0  0  0  0
 15 16  1  0  0  0  0
 16 17  2  0  0  0  0
 17 18  1  0  0  0  0
 18  2  1  0  0  0  0
 19 18  2  0  0  0  0
 20 14  1  0  0  0  0
 21 15  1  0  0  0  0
 22 16  1  0  0  0  0
 23  3  1  0  0  0  0
 23 24  1  0  0  0  0
 24 31  1  0  0  0  0
 25 27  1  0  0  0  0
 25 24  2  0  0  0  0
 26 25  1  0  0  0  0
 27 29  2  0  0  0  0
 28 27  1  0  0  0  0
 29 30  1  0  0  0  0
 31 30  2  0  0  0  0
M  END
>  <minimizedAffinity>
-5.43324089

$$$$

 OpenBabel03252509133D

 31 34  0  0  0  0  0  0  0  0999 V2000
   37.7080   29.1440   42.9040 C   0  0  0  0  0  0  0  0  0  0  0  0
   37.8100   29.3970   41.5320 C   0  0  0  0  0  0  0  0  0  0  0  0
   37.6650   28.4120   40.5880 C   0  0  0  0  0  0  0  0  0  0  0  0
   37.4030   27.0920   40.9890 C   0  0  0  0  0  0  0  0  0  0  0  0
   37.2080   25.9080   40.3700 N   0  0  0  0  0  0  0  0  0  0  0  0
   36.9910   24.9480   41.2890 C   0  0  0  0  0  0  0  0  0  0  0  0
   37.0580   25.5730   42.4910 N   0  0  0  0  0  0  0  0  0  0  0  0
   37.3080   26.8750   42.3360 C   0  0  0  0  0  0  0  0  0  0  0  0
   37.4490   27.8380   43.3170 C   0  0  0  0  0  0  0  0  0  0  0  0
   37.8290   29.9440   43.6180 H   0  0  0  0  0  0  0  0  0  0  0  0
   37.2250   25.7820   39.3410 H   0  0  0  0  0  0  0  0  0  0  0  0
   36.8040   23.8980   41.0680 H   0  0  0  0  0  0  0  0  0  0  0  0
   37.3590   27.5880   44.3650 H   0  0  0  0  0  0  0  0  0  0  0  0
   39.5760   32.5260   40.7960 C   0  0  0  0  0  0  0  0  0  0  0  0
   38.5610   33.3230   40.2480 C   0  0  0  0  0  0  0  0  0  0  0  0
   37.2850   32.7780   40.1380 C   0  0  0  0  0  0  0  0  0  0  0  0
   37.0810   31.4920   40.5690 N   0  0  0  0  0  0  0  0  0  0  0  0
   38.0830   30.7590   41.0880 C   0  0  0  0  0  0  0  0  0  0  0  0
   39.3440   31.2550   41.2140 N   0  0  0  0  0  0  0  0  0  0  0  0
   40.6060   32.8260   40.9370 H   0  0  0  0  0  0  0  0  0  0  0  0
   38.8310   34.3140   39.9440 H   0  0  0  0  0  0  0  0  0  0  0  0
   36.4970   33.3880   39.7160 H   0  0  0  0  0  0  0  0  0  0  0  0
   37.7900   28.7380   38.8470 S   0  0  0  0  0  0  0  0  0  0  0  0
   36.2000   28.8190   38.0350 C   0  0  0  0  0  0  0  0  0  0  0  0
   35.0010   28.7890   38.7330 C   0  0  0  0  0  0  0  0  0  0  0  0
   35.0240   28.7120   39.8140 H   0  0  0  0  0  0  0  0  0  0  0  0
   33.7830   28.8540   38.0820 C   0  0  0  0  0  0  0  0  0  0  0  0
   32.8350   28.8320   38.5960 H   0  0  0  0  0  0  0  0  0  0  0  0
   33.7210   28.9530   36.6940 C   0  0  0  0  0  3  0  0  0  0  0  0
   34.9300   28.9810   36.0370 C   0  0  0  0  0  3  0  0  0  0  0  0
   36.0880   28.9170   36.6820 N   0  0  0  0  0  0  0  0  0  0  0  0
  1  9  1  0  0  0  0
  1 10  1  0  0  0  0
  2  1  2  0  0  0  0
  3  4  2  0  0  0  0
  3  2  1  0  0  0  0
  4  8  1  0  0  0  0
  5  4  1  0  0  0  0
  5  6  1  0  0  0  0
  6  7  2  0  0  0  0
  8  7  1  0  0  0  0
  8  9  2  0  0  0  0
  9 13  1  0  0  0  0
 11  5  1  0  0  0  0
 12  6  1  0  0  0  0
 14 20  1  0  0  0  0
 14 19  1  0  0  0  0
 15 14  2  0  0  0  0
 16 15  1  0  0  0  0
 16 17  2  0  0  0  0
 17 18  1  0  0  0  0
 18 19  2  0  0  0  0
 18  2  1  0  0  0  0
 21 15  1  0  0  0  0
 22 16  1  0  0  0  0
 23  3  1  0  0  0  0
 24 25  1  0  0  0  0
 24 23  1  0  0  0  0
 25 26  1  0  0  0  0
 27 28  1  0  0  0  0
 27 25  2  0  0  0  0
 29 27  1  0  0  0  0
 30 31  1  0  0  0  0
 30 29  2  0  0  0  0
 31 24  2  0  0  0  0
M  END
>  <minimizedAffinity>
-5.36875868

$$$$

 OpenBabel03252509133D

 31 34  0  0  0  0  0  0  0  0999 V2000
   40.5740   30.4300   41.0000 C   0  0  0  0  0  0  0  0  0  0  0  0
   39.3850   29.7540   41.2980 C   0  0  0  0  0  0  0  0  0  0  0  0
   38.1510   30.3240   41.1240 C   0  0  0  0  0  0  0  0  0  0  0  0
   38.0480   31.6350   40.6290 C   0  0  0  0  0  0  0  0  0  0  0  0
   37.0430   32.4890   40.3400 N   0  0  0  0  0  0  0  0  0  0  0  0
   37.5530   33.6480   39.8810 C   0  0  0  0  0  0  0  0  0  0  0  0
   38.9000   33.4830   39.8960 N   0  0  0  0  0  0  0  0  0  0  0  0
   39.2250   32.2700   40.3470 C   0  0  0  0  0  0  0  0  0  0  0  0
   40.4870   31.7310   40.5080 C   0  0  0  0  0  0  0  0  0  0  0  0
   41.5290   29.9500   41.1490 H   0  0  0  0  0  0  0  0  0  0  0  0
   36.0380   32.2640   40.4600 H   0  0  0  0  0  0  0  0  0  0  0  0
   36.9690   34.5130   39.5720 H   0  0  0  0  0  0  0  0  0  0  0  0
   41.3750   32.2990   40.2610 H   0  0  0  0  0  0  0  0  0  0  0  0
   39.5380   26.0920   41.4390 C   0  0  0  0  0  0  0  0  0  0  0  0
   39.6100   25.8470   42.8160 C   0  0  0  0  0  0  0  0  0  0  0  0
   39.6060   26.9380   43.6800 C   0  0  0  0  0  0  0  0  0  0  0  0
   39.5310   28.1990   43.1440 N   0  0  0  0  0  0  0  0  0  0  0  0
   39.4640   28.3920   41.8140 C   0  0  0  0  0  0  0  0  0  0  0  0
   39.4650   27.3520   40.9360 N   0  0  0  0  0  0  0  0  0  0  0  0
   39.5330   25.3380   40.6630 H   0  0  0  0  0  0  0  0  0  0  0  0
   39.6660   24.8220   43.1260 H   0  0  0  0  0  0  0  0  0  0  0  0
   39.6620   26.7560   44.7450 H   0  0  0  0  0  0  0  0  0  0  0  0
   36.6440   29.4620   41.4980 S   0  0  0  0  0  0  0  0  0  0  0  0
   35.8480   28.7830   40.0490 C   0  0  0  0  0  0  0  0  0  0  0  0
   34.6980   29.3330   39.5010 C   0  0  0  0  0  0  0  0  0  0  0  0
   34.2610   30.2100   39.9660 H   0  0  0  0  0  0  0  0  0  0  0  0
   34.1000   28.7900   38.3780 C   0  0  0  0  0  0  0  0  0  0  0  0
   33.2070   29.1950   37.9300 H   0  0  0  0  0  0  0  0  0  0  0  0
   34.6370   27.6650   37.7580 C   0  0  0  0  0  3  0  0  0  0  0  0
   35.7780   27.1480   38.3300 C   0  0  0  0  0  3  0  0  0  0  0  0
   36.3350   27.6860   39.4090 N   0  0  0  0  0  0  0  0  0  0  0  0
  1 10  1  0  0  0  0
  1  2  1  0  0  0  0
  2 18  1  0  0  0  0
  3  2  2  0  0  0  0
  3 23  1  0  0  0  0
  4  3  1  0  0  0  0
  5 11  1  0  0  0  0
  5  4  1  0  0  0  0
  6  7  2  0  0  0  0
  6  5  1  0  0  0  0
  7  8  1  0  0  0  0
  8  9  1  0  0  0  0
  8  4  2  0  0  0  0
  9  1  2  0  0  0  0
 12  6  1  0  0  0  0
 13  9  1  0  0  0  0
 14 15  1  0  0  0  0
 15 21  1  0  0  0  0
 15 16  2  0  0  0  0
 16 22  1  0  0  0  0
 17 16  1  0  0  0  0
 18 17  2  0  0  0  0
 19 14  2  0  0  0  0
 19 18  1  0  0  0  0
 20 14  1  0  0  0  0
 24 23  1  0  0  0  0
 25 26  1  0  0  0  0
 25 24  1  0  0  0  0
 27 25  2  0  0  0  0
 28 27  1  0  0  0  0
 29 30  2  0  0  0  0
 29 27  1  0  0  0  0
 30 31  1  0  0  0  0
 31 24  2  0  0  0  0
M  END
>  <minimizedAffinity>
-5.20880461

$$$$

 OpenBabel03252509133D

 31 34  0  0  0  0  0  0  0  0999 V2000
   40.9350   29.6260   41.1140 C   0  0  0  0  0  0  0  0  0  0  0  0
   39.5640   29.9050   41.1480 C   0  0  0  0  0  0  0  0  0  0  0  0
   39.0350   31.0620   40.6350 C   0  0  0  0  0  0  0  0  0  0  0  0
   39.8800   32.0180   40.0460 C   0  0  0  0  0  0  0  0  0  0  0  0
   39.7240   33.2240   39.4610 N   0  0  0  0  0  0  0  0  0  0  0  0
   40.9240   33.6950   39.0710 C   0  0  0  0  0  0  0  0  0  0  0  0
   41.8230   32.7450   39.4320 N   0  0  0  0  0  0  0  0  0  0  0  0
   41.2130   31.7170   40.0270 C   0  0  0  0  0  0  0  0  0  0  0  0
   41.7850   30.5650   40.5340 C   0  0  0  0  0  0  0  0  0  0  0  0
   41.3160   28.7050   41.5280 H   0  0  0  0  0  0  0  0  0  0  0  0
   38.8090   33.6960   39.3400 H   0  0  0  0  0  0  0  0  0  0  0  0
   41.0920   34.6470   38.5700 H   0  0  0  0  0  0  0  0  0  0  0  0
   42.8530   30.4000   40.4800 H   0  0  0  0  0  0  0  0  0  0  0  0
   37.3470   27.0150   41.5750 C   0  0  0  0  0  0  0  0  0  0  0  0
   36.9760   27.1170   42.9220 C   0  0  0  0  0  0  0  0  0  0  0  0
   37.4900   28.1730   43.6680 C   0  0  0  0  0  0  0  0  0  0  0  0
   38.3320   29.0630   43.0510 N   0  0  0  0  0  0  0  0  0  0  0  0
   38.6650   28.9300   41.7540 C   0  0  0  0  0  0  0  0  0  0  0  0
   38.1840   27.9120   40.9900 N   0  0  0  0  0  0  0  0  0  0  0  0
   37.0210   26.2460   40.8870 H   0  0  0  0  0  0  0  0  0  0  0  0
   36.3120   26.3660   43.3030 H   0  0  0  0  0  0  0  0  0  0  0  0
   37.2080   28.2580   44.7090 H   0  0  0  0  0  0  0  0  0  0  0  0
   37.2940   31.4110   40.6740 S   0  0  0  0  0  0  0  0  0  0  0  0
   36.3520   30.4040   39.5380 C   0  0  0  0  0  0  0  0  0  0  0  0
   35.2710   29.6330   39.9410 C   0  0  0  0  0  0  0  0  0  0  0  0
   34.9820   29.6380   40.9860 H   0  0  0  0  0  0  0  0  0  0  0  0
   34.5560   28.8620   39.0430 C   0  0  0  0  0  0  0  0  0  0  0  0
   33.7120   28.2530   39.3260 H   0  0  0  0  0  0  0  0  0  0  0  0
   34.9030   28.8350   37.6940 C   0  0  0  0  0  3  0  0  0  0  0  0
   35.9800   29.6120   37.3320 C   0  0  0  0  0  3  0  0  0  0  0  0
   36.6520   30.3450   38.2120 N   0  0  0  0  0  0  0  0  0  0  0  0
  1  2  1  0  0  0  0
  1 10  1  0  0  0  0
  2 18  1  0  0  0  0
  3 23  1  0  0  0  0
  3  2  2  0  0  0  0
  4  3  1  0  0  0  0
  5  4  1  0  0  0  0
  6  7  2  0  0  0  0
  6  5  1  0  0  0  0
  7  8  1  0  0  0  0
  8  4  2  0  0  0  0
  8  9  1  0  0  0  0
  9  1  2  0  0  0  0
 11  5  1  0  0  0  0
 12  6  1  0  0  0  0
 13  9  1  0  0  0  0
 14 15  1  0  0  0  0
 15 21  1  0  0  0  0
 15 16  2  0  0  0  0
 16 22  1  0  0  0  0
 17 16  1  0  0  0  0
 18 17  2  0  0  0  0
 19 14  2  0  0  0  0
 19 18  1  0  0  0  0
 20 14  1  0  0  0  0
 24 25  1  0  0  0  0
 24 23  1  0  0  0  0
 25 26  1  0  0  0  0
 27 28  1  0  0  0  0
 27 25  2  0  0  0  0
 29 27  1  0  0  0  0
 30 29  2  0  0  0  0
 30 31  1  0  0  0  0
 31 24  2  0  0  0  0
M  END
>  <minimizedAffinity>
-5.07036877

$$$$

 OpenBabel03252509133D

 31 34  0  0  0  0  0  0  0  0999 V2000
   37.4140   25.3300   40.1680 C   0  0  0  0  0  0  0  0  0  0  0  0
   36.6890   26.3610   39.5590 C   0  0  0  0  0  0  0  0  0  0  0  0
   36.3620   27.5190   40.2180 C   0  0  0  0  0  0  0  0  0  0  0  0
   36.7580   27.7010   41.5530 C   0  0  0  0  0  0  0  0  0  0  0  0
   36.6220   28.6690   42.4850 N   0  0  0  0  0  0  0  0  0  0  0  0
   37.2240   28.2860   43.6260 C   0  0  0  0  0  0  0  0  0  0  0  0
   37.7360   27.0550   43.3720 N   0  0  0  0  0  0  0  0  0  0  0  0
   37.4650   26.6780   42.1200 C   0  0  0  0  0  0  0  0  0  0  0  0
   37.8130   25.4970   41.4930 C   0  0  0  0  0  0  0  0  0  0  0  0
   37.6540   24.4330   39.6190 H   0  0  0  0  0  0  0  0  0  0  0  0
   36.1250   29.5650   42.3220 H   0  0  0  0  0  0  0  0  0  0  0  0
   37.2700   28.8750   44.5410 H   0  0  0  0  0  0  0  0  0  0  0  0
   38.3760   24.7320   42.0100 H   0  0  0  0  0  0  0  0  0  0  0  0
   34.7220   25.4080   36.6150 C   0  0  0  0  0  0  0  0  0  0  0  0
   35.4990   25.9040   35.5600 C   0  0  0  0  0  0  0  0  0  0  0  0
   36.6860   26.5590   35.8700 C   0  0  0  0  0  0  0  0  0  0  0  0
   37.0400   26.6880   37.1890 N   0  0  0  0  0  0  0  0  0  0  0  0
   36.2650   26.1970   38.1740 C   0  0  0  0  0  0  0  0  0  0  0  0
   35.0970   25.5500   37.9130 N   0  0  0  0  0  0  0  0  0  0  0  0
   33.7810   24.8810   36.5130 H   0  0  0  0  0  0  0  0  0  0  0  0
   35.1280   25.7480   34.5670 H   0  0  0  0  0  0  0  0  0  0  0  0
   37.2910   26.9450   35.0600 H   0  0  0  0  0  0  0  0  0  0  0  0
   35.4470   28.8280   39.4410 S   0  0  0  0  0  0  0  0  0  0  0  0
   36.3690   30.3540   39.3250 C   0  0  0  0  0  0  0  0  0  0  0  0
   36.9360   30.7960   38.1390 C   0  0  0  0  0  0  0  0  0  0  0  0
   36.8190   30.1960   37.2440 H   0  0  0  0  0  0  0  0  0  0  0  0
   37.6460   31.9820   38.0730 C   0  0  0  0  0  0  0  0  0  0  0  0
   38.0980   32.3510   37.1670 H   0  0  0  0  0  0  0  0  0  0  0  0
   37.8150   32.7740   39.2060 C   0  0  0  0  0  3  0  0  0  0  0  0
   37.2380   32.3030   40.3640 C   0  0  0  0  0  3  0  0  0  0  0  0
   36.5610   31.1620   40.4030 N   0  0  0  0  0  0  0  0  0  0  0  0
  1  9  1  0  0  0  0
  2  1  2  0  0  0  0
  2  3  1  0  0  0  0
  3  4  2  0  0  0  0
  4  8  1  0  0  0  0
  4  5  1  0  0  0  0
  5  6  1  0  0  0  0
  6 12  1  0  0  0  0
  7  6  2  0  0  0  0
  8  7  1  0  0  0  0
  9 13  1  0  0  0  0
  9  8  2  0  0  0  0
 10  1  1  0  0  0  0
 11  5  1  0  0  0  0
 14 19  1  0  0  0  0
 15 16  1  0  0  0  0
 15 14  2  0  0  0  0
 16 17  2  0  0  0  0
 17 18  1  0  0  0  0
 18  2  1  0  0  0  0
 19 18  2  0  0  0  0
 20 14  1  0  0  0  0
 21 15  1  0  0  0  0
 22 16  1  0  0  0  0
 23  3  1  0  0  0  0
 24 23  1  0  0  0  0
 24 31  1  0  0  0  0
 25 24  2  0  0  0  0
 26 25  1  0  0  0  0
 27 25  1  0  0  0  0
 27 29  2  0  0  0  0
 28 27  1  0  0  0  0
 29 30  1  0  0  0  0
 30 31  2  0  0  0  0
M  END
>  <minimizedAffinity>
-5.04278851

$$$$
