
 OpenBabel03242518163D

 31 33  0  0  0  0  0  0  0  0999 V2000
   36.8460   30.7640   40.3890 C   0  0  0  0  0  0  0  0  0  0  0  0
   35.8030   29.8400   40.1440 C   0  0  0  0  0  0  0  0  0  0  0  0
   35.6440   28.7280   40.8940 C   0  0  0  0  0  0  0  0  0  0  0  0
   36.5860   28.5200   41.9610 C   0  0  0  0  0  0  0  0  0  0  0  0
   37.6990   29.9340   41.8740 S   0  0  0  0  0  0  0  0  0  0  0  0
   35.1990   30.1560   39.3120 H   0  0  0  0  0  0  0  0  0  0  0  0
   34.8480   28.0300   40.7020 H   0  0  0  0  0  0  0  0  0  0  0  0
   37.3060   31.9890   39.8490 C   0  0  0  0  0  0  0  0  0  0  0  0
   37.6210   31.7970   38.7780 H   0  0  0  0  0  0  0  0  0  0  0  0
   36.4300   32.6740   39.7190 H   0  0  0  0  0  0  0  0  0  0  0  0
   38.3800   32.6920   40.5740 C   0  0  0  0  0  0  0  0  0  0  0  0
   38.0150   33.6280   41.0380 H   0  0  0  0  0  0  0  0  0  0  0  0
   38.8010   32.0770   41.4220 H   0  0  0  0  0  0  0  0  0  0  0  0
   39.4800   33.0180   39.6730 C   0  0  0  0  0  0  0  0  0  0  0  0
   40.3000   34.1060   39.9030 C   0  0  0  0  0  0  0  0  0  0  0  0
   41.3280   34.3470   38.9930 C   0  0  0  0  0  0  0  0  0  0  0  0
   41.4780   33.5170   37.9370 N   0  0  0  0  0  0  0  0  0  0  0  0
   40.6480   32.4660   37.7570 C   0  0  0  0  0  0  0  0  0  0  0  0
   39.6810   32.2290   38.6030 N   0  0  0  0  0  0  0  0  0  0  0  0
   40.0700   34.6930   40.7910 H   0  0  0  0  0  0  0  0  0  0  0  0
   41.9360   35.2110   39.2240 H   0  0  0  0  0  0  0  0  0  0  0  0
   40.8170   31.8370   36.8930 H   0  0  0  0  0  0  0  0  0  0  0  0
   36.6630   27.5650   42.8100 O   0  0  0  0  0  0  0  0  0  0  0  0
   37.4640   26.4500   42.5990 C   0  0  0  0  0  0  0  0  0  0  0  0
   36.9820   25.3170   41.9870 C   0  0  0  0  0  0  0  0  0  0  0  0
   35.9650   25.2460   41.6450 H   0  0  0  0  0  0  0  0  0  0  0  0
   37.9230   24.3010   41.8600 C   0  0  0  0  0  0  0  0  0  0  0  0
   37.6250   23.3670   41.3860 H   0  0  0  0  0  0  0  0  0  0  0  0
   39.2190   24.3960   42.2980 C   0  0  0  0  0  3  0  0  0  0  0  0
   39.6470   25.5470   42.9010 C   0  0  0  0  0  3  0  0  0  0  0  0
   38.7340   26.5470   43.0300 N   0  0  0  0  0  0  0  0  0  0  0  0
  1  5  1  0  0  0  0
  2  1  2  0  0  0  0
  2  3  1  0  0  0  0
  3  4  2  0  0  0  0
  4 23  1  0  0  0  0
  5  4  1  0  0  0  0
  6  2  1  0  0  0  0
  7  3  1  0  0  0  0
  8  1  1  0  0  0  0
  8 11  1  0  0  0  0
  9  8  1  0  0  0  0
 10  8  1  0  0  0  0
 11 12  1  0  0  0  0
 11 13  1  0  0  0  0
 14 15  1  0  0  0  0
 14 11  1  0  0  0  0
 15 20  1  0  0  0  0
 16 21  1  0  0  0  0
 16 15  2  0  0  0  0
 17 16  1  0  0  0  0
 18 17  2  0  0  0  0
 18 19  1  0  0  0  0
 19 14  2  0  0  0  0
 22 18  1  0  0  0  0
 24 23  1  0  0  0  0
 24 31  1  0  0  0  0
 25 24  2  0  0  0  0
 26 25  1  0  0  0  0
 27 25  1  0  0  0  0
 27 29  2  0  0  0  0
 28 27  1  0  0  0  0
 29 30  1  0  0  0  0
 30 31  2  0  0  0  0
M  END
>  <minimizedAffinity>
-5.16441679

$$$$

 OpenBabel03242518163D

 31 33  0  0  0  0  0  0  0  0999 V2000
   36.9760   29.6080   41.4910 C   0  0  0  0  0  0  0  0  0  0  0  0
   36.3280   30.5810   40.6930 C   0  0  0  0  0  0  0  0  0  0  0  0
   36.9320   31.7370   40.3460 C   0  0  0  0  0  0  0  0  0  0  0  0
   38.2730   31.9430   40.8250 C   0  0  0  0  0  0  0  0  0  0  0  0
   38.6530   30.4610   41.7760 S   0  0  0  0  0  0  0  0  0  0  0  0
   35.3360   30.2590   40.4280 H   0  0  0  0  0  0  0  0  0  0  0  0
   36.4330   32.4720   39.7380 H   0  0  0  0  0  0  0  0  0  0  0  0
   36.6840   28.3320   42.0260 C   0  0  0  0  0  0  0  0  0  0  0  0
   35.5570   28.2370   42.0970 H   0  0  0  0  0  0  0  0  0  0  0  0
   36.9400   27.5550   41.2610 H   0  0  0  0  0  0  0  0  0  0  0  0
   37.3030   27.9760   43.3160 C   0  0  0  0  0  0  0  0  0  0  0  0
   37.8740   28.8220   43.7430 H   0  0  0  0  0  0  0  0  0  0  0  0
   36.5370   27.7020   44.1000 H   0  0  0  0  0  0  0  0  0  0  0  0
   38.2030   26.8390   43.1590 C   0  0  0  0  0  0  0  0  0  0  0  0
   39.4830   26.8560   43.6800 C   0  0  0  0  0  0  0  0  0  0  0  0
   40.2780   25.7290   43.4830 C   0  0  0  0  0  0  0  0  0  0  0  0
   39.7710   24.6780   42.8020 N   0  0  0  0  0  0  0  0  0  0  0  0
   38.5110   24.7110   42.3120 C   0  0  0  0  0  0  0  0  0  0  0  0
   37.7560   25.7620   42.4890 N   0  0  0  0  0  0  0  0  0  0  0  0
   39.7660   27.7650   44.2070 H   0  0  0  0  0  0  0  0  0  0  0  0
   41.2680   25.8010   43.9120 H   0  0  0  0  0  0  0  0  0  0  0  0
   38.1600   23.8400   41.7740 H   0  0  0  0  0  0  0  0  0  0  0  0
   39.0630   32.9340   40.6460 O   0  0  0  0  0  0  0  0  0  0  0  0
   39.9520   32.9910   39.5810 C   0  0  0  0  0  0  0  0  0  0  0  0
   40.8980   33.9820   39.4790 C   0  0  0  0  0  0  0  0  0  0  0  0
   40.9910   34.7570   40.2180 H   0  0  0  0  0  0  0  0  0  0  0  0
   41.7010   33.8800   38.3470 C   0  0  0  0  0  0  0  0  0  0  0  0
   42.4780   34.6270   38.1870 H   0  0  0  0  0  0  0  0  0  0  0  0
   41.5800   32.8910   37.4060 C   0  0  0  0  0  3  0  0  0  0  0  0
   40.6200   31.9270   37.5560 C   0  0  0  0  0  3  0  0  0  0  0  0
   39.8290   32.0180   38.6600 N   0  0  0  0  0  0  0  0  0  0  0  0
  1  5  1  0  0  0  0
  1  8  1  0  0  0  0
  2  1  2  0  0  0  0
  3  2  1  0  0  0  0
  3  4  2  0  0  0  0
  4  5  1  0  0  0  0
  6  2  1  0  0  0  0
  7  3  1  0  0  0  0
  8  9  1  0  0  0  0
  8 11  1  0  0  0  0
 10  8  1  0  0  0  0
 11 12  1  0  0  0  0
 11 13  1  0  0  0  0
 14 11  1  0  0  0  0
 14 15  1  0  0  0  0
 15 20  1  0  0  0  0
 16 15  2  0  0  0  0
 16 21  1  0  0  0  0
 17 16  1  0  0  0  0
 18 19  1  0  0  0  0
 18 17  2  0  0  0  0
 19 14  2  0  0  0  0
 22 18  1  0  0  0  0
 23  4  1  0  0  0  0
 24 23  1  0  0  0  0
 25 24  1  0  0  0  0
 25 26  1  0  0  0  0
 27 25  2  0  0  0  0
 28 27  1  0  0  0  0
 29 30  2  0  0  0  0
 29 27  1  0  0  0  0
 30 31  1  0  0  0  0
 31 24  2  0  0  0  0
M  END
>  <minimizedAffinity>
-5.11242056

$$$$

 OpenBabel03242518163D

 31 33  0  0  0  0  0  0  0  0999 V2000
   36.9820   29.6490   39.2590 C   0  0  0  0  0  0  0  0  0  0  0  0
   35.7310   29.3870   39.8660 C   0  0  0  0  0  0  0  0  0  0  0  0
   35.6320   28.7390   41.0460 C   0  0  0  0  0  0  0  0  0  0  0  0
   36.8610   28.3200   41.6660 C   0  0  0  0  0  0  0  0  0  0  0  0
   38.1550   28.8670   40.5370 S   0  0  0  0  0  0  0  0  0  0  0  0
   34.9250   29.7710   39.2650 H   0  0  0  0  0  0  0  0  0  0  0  0
   34.6780   28.5440   41.5040 H   0  0  0  0  0  0  0  0  0  0  0  0
   37.4630   30.2800   38.0870 C   0  0  0  0  0  0  0  0  0  0  0  0
   38.5500   29.9880   37.9600 H   0  0  0  0  0  0  0  0  0  0  0  0
   36.9820   29.8000   37.1980 H   0  0  0  0  0  0  0  0  0  0  0  0
   37.3190   31.7450   37.9960 C   0  0  0  0  0  0  0  0  0  0  0  0
   37.4810   32.1080   36.9630 H   0  0  0  0  0  0  0  0  0  0  0  0
   36.2840   32.0940   38.2800 H   0  0  0  0  0  0  0  0  0  0  0  0
   38.2710   32.4120   38.8780 C   0  0  0  0  0  0  0  0  0  0  0  0
   37.8480   33.2600   39.8840 C   0  0  0  0  0  0  0  0  0  0  0  0
   38.8220   33.8560   40.6810 C   0  0  0  0  0  0  0  0  0  0  0  0
   40.1240   33.5830   40.4420 N   0  0  0  0  0  0  0  0  0  0  0  0
   40.4860   32.7460   39.4450 C   0  0  0  0  0  0  0  0  0  0  0  0
   39.5820   32.1800   38.6900 N   0  0  0  0  0  0  0  0  0  0  0  0
   36.7700   33.3930   39.9680 H   0  0  0  0  0  0  0  0  0  0  0  0
   38.4320   34.5090   41.4500 H   0  0  0  0  0  0  0  0  0  0  0  0
   41.5430   32.5660   39.3010 H   0  0  0  0  0  0  0  0  0  0  0  0
   37.0520   27.6970   42.7680 O   0  0  0  0  0  0  0  0  0  0  0  0
   38.0000   26.6900   42.8950 C   0  0  0  0  0  0  0  0  0  0  0  0
   39.1250   26.8480   43.6690 C   0  0  0  0  0  0  0  0  0  0  0  0
   39.3200   27.7560   44.2080 H   0  0  0  0  0  0  0  0  0  0  0  0
   39.9620   25.7370   43.6800 C   0  0  0  0  0  0  0  0  0  0  0  0
   40.8780   25.7760   44.2680 H   0  0  0  0  0  0  0  0  0  0  0  0
   39.7090   24.5780   42.9900 C   0  0  0  0  0  3  0  0  0  0  0  0
   38.5730   24.4740   42.2340 C   0  0  0  0  0  3  0  0  0  0  0  0
   37.7490   25.5560   42.2170 N   0  0  0  0  0  0  0  0  0  0  0  0
  1  2  2  0  0  0  0
  1  5  1  0  0  0  0
  2  3  1  0  0  0  0
  3  7  1  0  0  0  0
  3  4  2  0  0  0  0
  4 23  1  0  0  0  0
  5  4  1  0  0  0  0
  6  2  1  0  0  0  0
  8  1  1  0  0  0  0
  9  8  1  0  0  0  0
 10  8  1  0  0  0  0
 11  8  1  0  0  0  0
 11 13  1  0  0  0  0
 11 14  1  0  0  0  0
 12 11  1  0  0  0  0
 14 15  1  0  0  0  0
 15 20  1  0  0  0  0
 15 16  2  0  0  0  0
 16 21  1  0  0  0  0
 17 16  1  0  0  0  0
 18 17  2  0  0  0  0
 19 14  2  0  0  0  0
 19 18  1  0  0  0  0
 22 18  1  0  0  0  0
 23 24  1  0  0  0  0
 24 25  1  0  0  0  0
 25 27  2  0  0  0  0
 25 26  1  0  0  0  0
 27 28  1  0  0  0  0
 29 27  1  0  0  0  0
 30 29  2  0  0  0  0
 31 30  1  0  0  0  0
 31 24  2  0  0  0  0
M  END
>  <minimizedAffinity>
-5.09782076

$$$$

 OpenBabel03242518163D

 31 33  0  0  0  0  0  0  0  0999 V2000
   37.4350   29.4880   41.8290 C   0  0  0  0  0  0  0  0  0  0  0  0
   38.7050   29.9240   42.2740 C   0  0  0  0  0  0  0  0  0  0  0  0
   39.2280   31.1090   41.8910 C   0  0  0  0  0  0  0  0  0  0  0  0
   38.4340   31.9160   41.0030 C   0  0  0  0  0  0  0  0  0  0  0  0
   36.9340   30.9560   40.7270 S   0  0  0  0  0  0  0  0  0  0  0  0
   39.1520   29.1970   42.9290 H   0  0  0  0  0  0  0  0  0  0  0  0
   40.1940   31.4350   42.2340 H   0  0  0  0  0  0  0  0  0  0  0  0
   36.5910   28.3680   42.0140 C   0  0  0  0  0  0  0  0  0  0  0  0
   35.5250   28.7460   42.0810 H   0  0  0  0  0  0  0  0  0  0  0  0
   36.5730   27.7720   41.0660 H   0  0  0  0  0  0  0  0  0  0  0  0
   36.8820   27.4760   43.1520 C   0  0  0  0  0  0  0  0  0  0  0  0
   37.4820   27.9860   43.9290 H   0  0  0  0  0  0  0  0  0  0  0  0
   35.9450   27.1240   43.6740 H   0  0  0  0  0  0  0  0  0  0  0  0
   37.6110   26.2930   42.7040 C   0  0  0  0  0  0  0  0  0  0  0  0
   36.9520   25.1960   42.1840 C   0  0  0  0  0  0  0  0  0  0  0  0
   37.7240   24.1080   41.7820 C   0  0  0  0  0  0  0  0  0  0  0  0
   39.0680   24.1700   41.9130 N   0  0  0  0  0  0  0  0  0  0  0  0
   39.6640   25.2680   42.4290 C   0  0  0  0  0  0  0  0  0  0  0  0
   38.9520   26.2950   42.8100 N   0  0  0  0  0  0  0  0  0  0  0  0
   35.8680   25.2760   42.1340 H   0  0  0  0  0  0  0  0  0  0  0  0
   37.1540   23.2790   41.3840 H   0  0  0  0  0  0  0  0  0  0  0  0
   40.7430   25.2610   42.5100 H   0  0  0  0  0  0  0  0  0  0  0  0
   38.6860   33.0630   40.4940 O   0  0  0  0  0  0  0  0  0  0  0  0
   39.7350   33.2650   39.6060 C   0  0  0  0  0  0  0  0  0  0  0  0
   40.6290   34.2970   39.7640 C   0  0  0  0  0  0  0  0  0  0  0  0
   40.5560   34.9920   40.5800 H   0  0  0  0  0  0  0  0  0  0  0  0
   41.6120   34.3450   38.7820 C   0  0  0  0  0  0  0  0  0  0  0  0
   42.3630   35.1330   38.8300 H   0  0  0  0  0  0  0  0  0  0  0  0
   41.7030   33.4570   37.7410 C   0  0  0  0  0  3  0  0  0  0  0  0
   40.7860   32.4480   37.6300 C   0  0  0  0  0  3  0  0  0  0  0  0
   39.8200   32.3920   38.5870 N   0  0  0  0  0  0  0  0  0  0  0  0
  1  8  1  0  0  0  0
  1  2  2  0  0  0  0
  2  6  1  0  0  0  0
  3  7  1  0  0  0  0
  3  2  1  0  0  0  0
  4  3  2  0  0  0  0
  5  4  1  0  0  0  0
  5  1  1  0  0  0  0
  8  9  1  0  0  0  0
  8 11  1  0  0  0  0
 10  8  1  0  0  0  0
 11 13  1  0  0  0  0
 11 12  1  0  0  0  0
 14 19  1  0  0  0  0
 14 11  1  0  0  0  0
 15 14  2  0  0  0  0
 16 17  2  0  0  0  0
 16 15  1  0  0  0  0
 17 18  1  0  0  0  0
 18 22  1  0  0  0  0
 18 19  2  0  0  0  0
 20 15  1  0  0  0  0
 21 16  1  0  0  0  0
 23  4  1  0  0  0  0
 24 25  1  0  0  0  0
 24 23  1  0  0  0  0
 25 26  1  0  0  0  0
 27 28  1  0  0  0  0
 27 25  2  0  0  0  0
 29 27  1  0  0  0  0
 30 29  2  0  0  0  0
 30 31  1  0  0  0  0
 31 24  2  0  0  0  0
M  END
>  <minimizedAffinity>
-4.99448872

$$$$

 OpenBabel03242518163D

 31 33  0  0  0  0  0  0  0  0999 V2000
   36.5350   28.3420   41.4900 C   0  0  0  0  0  0  0  0  0  0  0  0
   36.1630   28.1070   40.1450 C   0  0  0  0  0  0  0  0  0  0  0  0
   36.2340   29.0750   39.2060 C   0  0  0  0  0  0  0  0  0  0  0  0
   36.7070   30.3650   39.6320 C   0  0  0  0  0  0  0  0  0  0  0  0
   37.0470   30.1720   41.3910 S   0  0  0  0  0  0  0  0  0  0  0  0
   35.8360   27.0910   40.0090 H   0  0  0  0  0  0  0  0  0  0  0  0
   35.9500   28.8900   38.1840 H   0  0  0  0  0  0  0  0  0  0  0  0
   36.6040   27.6080   42.6980 C   0  0  0  0  0  0  0  0  0  0  0  0
   35.6030   27.7060   43.2180 H   0  0  0  0  0  0  0  0  0  0  0  0
   36.6390   26.5160   42.4530 H   0  0  0  0  0  0  0  0  0  0  0  0
   37.6950   27.9390   43.6340 C   0  0  0  0  0  0  0  0  0  0  0  0
   37.8950   29.0270   43.6610 H   0  0  0  0  0  0  0  0  0  0  0  0
   37.4520   27.6490   44.6970 H   0  0  0  0  0  0  0  0  0  0  0  0
   38.9240   27.2500   43.2560 C   0  0  0  0  0  0  0  0  0  0  0  0
   40.1340   27.9150   43.2000 C   0  0  0  0  0  0  0  0  0  0  0  0
   41.2600   27.1820   42.8290 C   0  0  0  0  0  0  0  0  0  0  0  0
   41.1230   25.8680   42.5430 N   0  0  0  0  0  0  0  0  0  0  0  0
   39.9160   25.2640   42.6120 C   0  0  0  0  0  0  0  0  0  0  0  0
   38.8530   25.9400   42.9590 N   0  0  0  0  0  0  0  0  0  0  0  0
   40.1040   28.9730   43.4550 H   0  0  0  0  0  0  0  0  0  0  0  0
   42.1770   27.7550   42.8030 H   0  0  0  0  0  0  0  0  0  0  0  0
   39.8680   24.2110   42.3720 H   0  0  0  0  0  0  0  0  0  0  0  0
   36.8700   31.4410   38.9580 O   0  0  0  0  0  0  0  0  0  0  0  0
   37.8740   32.3550   39.2510 C   0  0  0  0  0  0  0  0  0  0  0  0
   37.6030   33.5620   39.8510 C   0  0  0  0  0  0  0  0  0  0  0  0
   36.6030   33.8510   40.1180 H   0  0  0  0  0  0  0  0  0  0  0  0
   38.7290   34.3480   40.0690 C   0  0  0  0  0  0  0  0  0  0  0  0
   38.6050   35.3230   40.5400 H   0  0  0  0  0  0  0  0  0  0  0  0
   40.0040   33.9750   39.7270 C   0  0  0  0  0  3  0  0  0  0  0  0
   40.2180   32.7620   39.1310 C   0  0  0  0  0  3  0  0  0  0  0  0
   39.1220   31.9860   38.9140 N   0  0  0  0  0  0  0  0  0  0  0  0
  1  8  1  0  0  0  0
  2  1  2  0  0  0  0
  3  4  2  0  0  0  0
  3  2  1  0  0  0  0
  4  5  1  0  0  0  0
  5  1  1  0  0  0  0
  6  2  1  0  0  0  0
  7  3  1  0  0  0  0
  8  9  1  0  0  0  0
  8 11  1  0  0  0  0
 10  8  1  0  0  0  0
 11 12  1  0  0  0  0
 11 13  1  0  0  0  0
 14 11  1  0  0  0  0
 15 14  1  0  0  0  0
 15 20  1  0  0  0  0
 16 15  2  0  0  0  0
 17 18  2  0  0  0  0
 17 16  1  0  0  0  0
 18 19  1  0  0  0  0
 19 14  2  0  0  0  0
 21 16  1  0  0  0  0
 22 18  1  0  0  0  0
 23 24  1  0  0  0  0
 23  4  1  0  0  0  0
 24 25  1  0  0  0  0
 25 27  2  0  0  0  0
 25 26  1  0  0  0  0
 27 28  1  0  0  0  0
 29 27  1  0  0  0  0
 30 29  2  0  0  0  0
 31 30  1  0  0  0  0
 31 24  2  0  0  0  0
M  END
>  <minimizedAffinity>
-4.93706608

$$$$

 OpenBabel03242518163D

 31 33  0  0  0  0  0  0  0  0999 V2000
   38.2810   26.7580   42.5810 C   0  0  0  0  0  0  0  0  0  0  0  0
   37.6790   27.7190   43.4270 C   0  0  0  0  0  0  0  0  0  0  0  0
   37.9540   29.0370   43.3170 C   0  0  0  0  0  0  0  0  0  0  0  0
   38.8910   29.4260   42.2980 C   0  0  0  0  0  0  0  0  0  0  0  0
   39.3710   27.8830   41.5020 S   0  0  0  0  0  0  0  0  0  0  0  0
   37.0090   27.2500   44.1250 H   0  0  0  0  0  0  0  0  0  0  0  0
   37.4920   29.7640   43.9630 H   0  0  0  0  0  0  0  0  0  0  0  0
   38.2370   25.3550   42.3960 C   0  0  0  0  0  0  0  0  0  0  0  0
   38.9690   25.0930   41.5710 H   0  0  0  0  0  0  0  0  0  0  0  0
   38.6990   24.8610   43.2890 H   0  0  0  0  0  0  0  0  0  0  0  0
   36.9230   24.7460   42.1190 C   0  0  0  0  0  0  0  0  0  0  0  0
   36.6210   24.0440   42.9180 H   0  0  0  0  0  0  0  0  0  0  0  0
   36.0970   25.5130   42.0610 H   0  0  0  0  0  0  0  0  0  0  0  0
   36.9490   24.0240   40.8510 C   0  0  0  0  0  0  0  0  0  0  0  0
   37.7600   22.9200   40.6670 C   0  0  0  0  0  0  0  0  0  0  0  0
   37.7240   22.2900   39.4250 C   0  0  0  0  0  0  0  0  0  0  0  0
   36.9070   22.7760   38.4640 N   0  0  0  0  0  0  0  0  0  0  0  0
   36.1330   23.8600   38.6950 C   0  0  0  0  0  0  0  0  0  0  0  0
   36.1570   24.4610   39.8550 N   0  0  0  0  0  0  0  0  0  0  0  0
   38.3680   22.6330   41.5230 H   0  0  0  0  0  0  0  0  0  0  0  0
   38.3790   21.4330   39.3400 H   0  0  0  0  0  0  0  0  0  0  0  0
   35.5000   24.2040   37.8880 H   0  0  0  0  0  0  0  0  0  0  0  0
   39.3220   30.5900   41.9830 O   0  0  0  0  0  0  0  0  0  0  0  0
   38.6210   31.4350   41.1320 C   0  0  0  0  0  0  0  0  0  0  0  0
   37.5810   30.9810   40.3570 C   0  0  0  0  0  0  0  0  0  0  0  0
   37.2660   29.9540   40.3750 H   0  0  0  0  0  0  0  0  0  0  0  0
   36.9960   31.9650   39.5670 C   0  0  0  0  0  0  0  0  0  0  0  0
   36.1640   31.6910   38.9190 H   0  0  0  0  0  0  0  0  0  0  0  0
   37.4020   33.2740   39.5460 C   0  0  0  0  0  3  0  0  0  0  0  0
   38.4440   33.6740   40.3380 C   0  0  0  0  0  3  0  0  0  0  0  0
   39.0220   32.7180   41.1150 N   0  0  0  0  0  0  0  0  0  0  0  0
  1  2  2  0  0  0  0
  2  6  1  0  0  0  0
  3  2  1  0  0  0  0
  3  7  1  0  0  0  0
  4  3  2  0  0  0  0
  5  4  1  0  0  0  0
  5  1  1  0  0  0  0
  8  1  1  0  0  0  0
  8 10  1  0  0  0  0
  9  8  1  0  0  0  0
 11  8  1  0  0  0  0
 11 12  1  0  0  0  0
 13 11  1  0  0  0  0
 14 11  1  0  0  0  0
 15 14  1  0  0  0  0
 15 20  1  0  0  0  0
 16 15  2  0  0  0  0
 17 18  2  0  0  0  0
 17 16  1  0  0  0  0
 18 19  1  0  0  0  0
 19 14  2  0  0  0  0
 21 16  1  0  0  0  0
 22 18  1  0  0  0  0
 23  4  1  0  0  0  0
 24 23  1  0  0  0  0
 25 26  1  0  0  0  0
 25 24  2  0  0  0  0
 27 25  1  0  0  0  0
 28 27  1  0  0  0  0
 29 27  2  0  0  0  0
 29 30  1  0  0  0  0
 30 31  2  0  0  0  0
 31 24  1  0  0  0  0
M  END
>  <minimizedAffinity>
-4.87428665

$$$$

 OpenBabel03242518163D

 31 33  0  0  0  0  0  0  0  0999 V2000
   36.3800   28.5780   41.2840 C   0  0  0  0  0  0  0  0  0  0  0  0
   36.3600   28.4060   39.8800 C   0  0  0  0  0  0  0  0  0  0  0  0
   36.5410   29.4410   39.0310 C   0  0  0  0  0  0  0  0  0  0  0  0
   36.7570   30.7370   39.6180 C   0  0  0  0  0  0  0  0  0  0  0  0
   36.6970   30.4510   41.3960 S   0  0  0  0  0  0  0  0  0  0  0  0
   36.1870   27.3760   39.6230 H   0  0  0  0  0  0  0  0  0  0  0  0
   36.5250   29.3030   37.9640 H   0  0  0  0  0  0  0  0  0  0  0  0
   36.2460   27.7710   42.4380 C   0  0  0  0  0  0  0  0  0  0  0  0
   35.6420   28.3540   43.1990 H   0  0  0  0  0  0  0  0  0  0  0  0
   35.5640   26.9150   42.1990 H   0  0  0  0  0  0  0  0  0  0  0  0
   37.4820   27.2590   43.0580 C   0  0  0  0  0  0  0  0  0  0  0  0
   38.3000   28.0020   43.0160 H   0  0  0  0  0  0  0  0  0  0  0  0
   37.3460   27.0190   44.1530 H   0  0  0  0  0  0  0  0  0  0  0  0
   37.9270   26.0400   42.3890 C   0  0  0  0  0  0  0  0  0  0  0  0
   37.0470   25.0140   42.1030 C   0  0  0  0  0  0  0  0  0  0  0  0
   37.5540   23.8850   41.4630 C   0  0  0  0  0  0  0  0  0  0  0  0
   38.8690   23.8410   41.1520 N   0  0  0  0  0  0  0  0  0  0  0  0
   39.6880   24.8730   41.4540 C   0  0  0  0  0  0  0  0  0  0  0  0
   39.2250   25.9370   42.0540 N   0  0  0  0  0  0  0  0  0  0  0  0
   36.0140   25.1780   42.4070 H   0  0  0  0  0  0  0  0  0  0  0  0
   36.8200   23.1170   41.2650 H   0  0  0  0  0  0  0  0  0  0  0  0
   40.7310   24.7800   41.1810 H   0  0  0  0  0  0  0  0  0  0  0  0
   36.9520   31.8690   39.0530 O   0  0  0  0  0  0  0  0  0  0  0  0
   38.1290   32.5880   39.2240 C   0  0  0  0  0  0  0  0  0  0  0  0
   38.1620   33.7630   39.9350 C   0  0  0  0  0  0  0  0  0  0  0  0
   37.2810   34.1770   40.3900 H   0  0  0  0  0  0  0  0  0  0  0  0
   39.4240   34.3450   40.0020 C   0  0  0  0  0  0  0  0  0  0  0  0
   39.5410   35.2820   40.5470 H   0  0  0  0  0  0  0  0  0  0  0  0
   40.5460   33.8150   39.4200 C   0  0  0  0  0  3  0  0  0  0  0  0
   40.4570   32.6410   38.7220 C   0  0  0  0  0  3  0  0  0  0  0  0
   39.2270   32.0640   38.6510 N   0  0  0  0  0  0  0  0  0  0  0  0
  1  5  1  0  0  0  0
  1  8  1  0  0  0  0
  2  1  2  0  0  0  0
  3  4  2  0  0  0  0
  3  2  1  0  0  0  0
  4  5  1  0  0  0  0
  6  2  1  0  0  0  0
  7  3  1  0  0  0  0
  8 11  1  0  0  0  0
  8  9  1  0  0  0  0
 10  8  1  0  0  0  0
 11 13  1  0  0  0  0
 12 11  1  0  0  0  0
 14 11  1  0  0  0  0
 15 14  1  0  0  0  0
 15 20  1  0  0  0  0
 16 15  2  0  0  0  0
 17 18  2  0  0  0  0
 17 16  1  0  0  0  0
 18 19  1  0  0  0  0
 19 14  2  0  0  0  0
 21 16  1  0  0  0  0
 22 18  1  0  0  0  0
 23 24  1  0  0  0  0
 23  4  1  0  0  0  0
 24 25  1  0  0  0  0
 25 27  2  0  0  0  0
 25 26  1  0  0  0  0
 27 28  1  0  0  0  0
 29 27  1  0  0  0  0
 30 29  2  0  0  0  0
 31 30  1  0  0  0  0
 31 24  2  0  0  0  0
M  END
>  <minimizedAffinity>
-4.84374952

$$$$

 OpenBabel03242518163D

 31 33  0  0  0  0  0  0  0  0999 V2000
   38.2450   29.6660   41.9830 C   0  0  0  0  0  0  0  0  0  0  0  0
   37.8810   29.1690   43.2570 C   0  0  0  0  0  0  0  0  0  0  0  0
   38.0360   27.8690   43.5870 C   0  0  0  0  0  0  0  0  0  0  0  0
   38.5890   27.0010   42.5820 C   0  0  0  0  0  0  0  0  0  0  0  0
   38.8830   28.0710   41.1630 S   0  0  0  0  0  0  0  0  0  0  0  0
   37.4880   29.9560   43.8770 H   0  0  0  0  0  0  0  0  0  0  0  0
   37.7580   27.4980   44.5590 H   0  0  0  0  0  0  0  0  0  0  0  0
   38.2410   30.9080   41.3050 C   0  0  0  0  0  0  0  0  0  0  0  0
   38.6010   31.6990   42.0320 H   0  0  0  0  0  0  0  0  0  0  0  0
   39.0590   30.9000   40.5400 H   0  0  0  0  0  0  0  0  0  0  0  0
   36.9790   31.3360   40.6760 C   0  0  0  0  0  0  0  0  0  0  0  0
   36.1010   30.8650   41.1560 H   0  0  0  0  0  0  0  0  0  0  0  0
   36.8110   32.4490   40.7630 H   0  0  0  0  0  0  0  0  0  0  0  0
   36.9710   30.9960   39.2570 C   0  0  0  0  0  0  0  0  0  0  0  0
   36.2870   29.8920   38.7850 C   0  0  0  0  0  0  0  0  0  0  0  0
   36.3310   29.6390   37.4150 C   0  0  0  0  0  0  0  0  0  0  0  0
   37.0310   30.4740   36.6150 N   0  0  0  0  0  0  0  0  0  0  0  0
   37.6830   31.5410   37.1270 C   0  0  0  0  0  0  0  0  0  0  0  0
   37.6490   31.7900   38.4090 N   0  0  0  0  0  0  0  0  0  0  0  0
   35.7640   29.3030   39.5370 H   0  0  0  0  0  0  0  0  0  0  0  0
   35.7790   28.7620   37.1060 H   0  0  0  0  0  0  0  0  0  0  0  0
   38.2260   32.1730   36.4370 H   0  0  0  0  0  0  0  0  0  0  0  0
   38.8370   25.7460   42.6310 O   0  0  0  0  0  0  0  0  0  0  0  0
   38.1990   24.8330   41.8020 C   0  0  0  0  0  0  0  0  0  0  0  0
   36.8320   24.8210   41.6530 C   0  0  0  0  0  0  0  0  0  0  0  0
   36.1990   25.5170   42.1720 H   0  0  0  0  0  0  0  0  0  0  0  0
   36.3690   23.8380   40.7850 C   0  0  0  0  0  0  0  0  0  0  0  0
   35.2960   23.7570   40.6090 H   0  0  0  0  0  0  0  0  0  0  0  0
   37.1800   22.9510   40.1250 C   0  0  0  0  0  3  0  0  0  0  0  0
   38.5350   23.0070   40.3090 C   0  0  0  0  0  3  0  0  0  0  0  0
   38.9980   23.9650   41.1570 N   0  0  0  0  0  0  0  0  0  0  0  0
  1  2  2  0  0  0  0
  2  3  1  0  0  0  0
  2  6  1  0  0  0  0
  3  7  1  0  0  0  0
  4 23  1  0  0  0  0
  4  3  2  0  0  0  0
  5  1  1  0  0  0  0
  5  4  1  0  0  0  0
  8  1  1  0  0  0  0
  8  9  1  0  0  0  0
 10  8  1  0  0  0  0
 11 13  1  0  0  0  0
 11 12  1  0  0  0  0
 11  8  1  0  0  0  0
 14 11  1  0  0  0  0
 15 14  1  0  0  0  0
 15 20  1  0  0  0  0
 16 15  2  0  0  0  0
 17 18  2  0  0  0  0
 17 16  1  0  0  0  0
 18 19  1  0  0  0  0
 19 14  2  0  0  0  0
 21 16  1  0  0  0  0
 22 18  1  0  0  0  0
 24 23  1  0  0  0  0
 25 24  1  0  0  0  0
 25 26  1  0  0  0  0
 27 25  2  0  0  0  0
 28 27  1  0  0  0  0
 29 30  2  0  0  0  0
 29 27  1  0  0  0  0
 30 31  1  0  0  0  0
 31 24  2  0  0  0  0
M  END
>  <minimizedAffinity>
-4.81261921

$$$$

 OpenBabel03242518163D

 31 33  0  0  0  0  0  0  0  0999 V2000
   37.6310   31.0230   40.7960 C   0  0  0  0  0  0  0  0  0  0  0  0
   37.0690   32.1050   40.0780 C   0  0  0  0  0  0  0  0  0  0  0  0
   37.7300   33.2700   39.9110 C   0  0  0  0  0  0  0  0  0  0  0  0
   39.0390   33.3680   40.4990 C   0  0  0  0  0  0  0  0  0  0  0  0
   39.3080   31.7730   41.2910 S   0  0  0  0  0  0  0  0  0  0  0  0
   36.0890   31.8530   39.7120 H   0  0  0  0  0  0  0  0  0  0  0  0
   37.2970   34.0890   39.3630 H   0  0  0  0  0  0  0  0  0  0  0  0
   37.2640   29.7040   41.1560 C   0  0  0  0  0  0  0  0  0  0  0  0
   36.2000   29.5340   40.8050 H   0  0  0  0  0  0  0  0  0  0  0  0
   37.8410   28.9860   40.5210 H   0  0  0  0  0  0  0  0  0  0  0  0
   37.3940   29.3240   42.5750 C   0  0  0  0  0  0  0  0  0  0  0  0
   38.0150   30.0470   43.1370 H   0  0  0  0  0  0  0  0  0  0  0  0
   36.3990   29.3000   43.1070 H   0  0  0  0  0  0  0  0  0  0  0  0
   37.9960   28.0000   42.6990 C   0  0  0  0  0  0  0  0  0  0  0  0
   37.3690   26.8750   42.1980 C   0  0  0  0  0  0  0  0  0  0  0  0
   38.0120   25.6490   42.3600 C   0  0  0  0  0  0  0  0  0  0  0  0
   39.2060   25.6120   42.9910 N   0  0  0  0  0  0  0  0  0  0  0  0
   39.7770   26.7420   43.4640 C   0  0  0  0  0  0  0  0  0  0  0  0
   39.1850   27.8980   43.3180 N   0  0  0  0  0  0  0  0  0  0  0  0
   36.4100   27.0450   41.7120 H   0  0  0  0  0  0  0  0  0  0  0  0
   37.4740   24.8060   41.9480 H   0  0  0  0  0  0  0  0  0  0  0  0
   40.7340   26.6500   43.9600 H   0  0  0  0  0  0  0  0  0  0  0  0
   39.8690   34.3430   40.4920 O   0  0  0  0  0  0  0  0  0  0  0  0
   41.1660   34.2090   40.0130 C   0  0  0  0  0  0  0  0  0  0  0  0
   41.4320   34.0700   38.6720 C   0  0  0  0  0  0  0  0  0  0  0  0
   40.6490   34.0600   37.9360 H   0  0  0  0  0  0  0  0  0  0  0  0
   42.7860   33.9480   38.3760 C   0  0  0  0  0  0  0  0  0  0  0  0
   43.0870   33.8330   37.3350 H   0  0  0  0  0  0  0  0  0  0  0  0
   43.7820   33.9620   39.3180 C   0  0  0  0  0  3  0  0  0  0  0  0
   43.4610   34.1030   40.6410 C   0  0  0  0  0  3  0  0  0  0  0  0
   42.1400   34.2230   40.9400 N   0  0  0  0  0  0  0  0  0  0  0  0
  1  8  1  0  0  0  0
  1  5  1  0  0  0  0
  2  1  2  0  0  0  0
  3  2  1  0  0  0  0
  3  4  2  0  0  0  0
  4  5  1  0  0  0  0
  6  2  1  0  0  0  0
  7  3  1  0  0  0  0
  8 11  1  0  0  0  0
  9  8  1  0  0  0  0
 10  8  1  0  0  0  0
 11 14  1  0  0  0  0
 11 13  1  0  0  0  0
 11 12  1  0  0  0  0
 14 19  1  0  0  0  0
 15 16  1  0  0  0  0
 15 14  2  0  0  0  0
 16 17  2  0  0  0  0
 17 18  1  0  0  0  0
 18 22  1  0  0  0  0
 19 18  2  0  0  0  0
 20 15  1  0  0  0  0
 21 16  1  0  0  0  0
 23  4  1  0  0  0  0
 24 23  1  0  0  0  0
 24 31  1  0  0  0  0
 25 24  2  0  0  0  0
 26 25  1  0  0  0  0
 27 25  1  0  0  0  0
 27 29  2  0  0  0  0
 28 27  1  0  0  0  0
 29 30  1  0  0  0  0
 30 31  2  0  0  0  0
M  END
>  <minimizedAffinity>
-4.78521585

$$$$
