
 OpenBabel03252509273D

 29 31  0  0  1  0  0  0  0  0999 V2000
   37.5620   32.2040   39.6460 C   0  0  1  0  0  0  0  0  0  0  0  0
   37.0360   31.4260   38.4060 C   0  0  0  0  0  0  0  0  0  0  0  0
   37.3760   30.8230   39.8060 C   0  0  2  0  0  0  0  0  0  0  0  0
   36.8460   32.9660   40.0200 H   0  0  0  0  0  0  0  0  0  0  0  0
   35.9600   31.5460   38.2340 H   0  0  0  0  0  0  0  0  0  0  0  0
   37.7200   31.2200   37.5810 H   0  0  0  0  0  0  0  0  0  0  0  0
   38.2750   30.1370   39.7400 H   0  0  0  0  0  0  0  0  0  0  0  0
   40.8090   34.0570   39.9400 C   0  0  0  0  0  0  0  0  0  0  0  0
   39.4830   33.6510   40.2400 C   0  0  0  0  0  0  0  0  0  0  0  0
   38.9390   32.7600   39.3750 C   0  0  0  0  0  0  0  0  0  0  0  0
   39.6340   32.2880   38.2730 N   0  0  0  0  0  0  0  0  0  0  0  0
   40.8950   32.7050   38.0260 C   0  0  0  0  0  0  0  0  0  0  0  0
   41.4830   33.5930   38.8640 N   0  0  0  0  0  0  0  0  0  0  0  0
   41.2960   34.7690   40.6000 H   0  0  0  0  0  0  0  0  0  0  0  0
   41.3190   32.2590   37.1360 H   0  0  0  0  0  0  0  0  0  0  0  0
   38.7680   34.1610   41.3350 N   0  0  0  0  0  0  0  0  0  0  0  0
   38.8350   35.1980   41.4860 H   0  0  0  0  0  0  0  0  0  0  0  0
   38.1950   33.6290   41.9920 H   0  0  0  0  0  0  0  0  0  0  0  0
   36.2510   30.2610   40.6390 C   0  0  0  0  0  0  0  0  0  0  0  0
   35.6130   31.0410   41.1040 H   0  0  0  0  0  0  0  0  0  0  0  0
   35.5730   29.7200   39.9330 H   0  0  0  0  0  0  0  0  0  0  0  0
   36.7310   29.2680   41.6310 C   0  0  0  0  0  0  0  0  0  0  0  0
   36.2140   28.0190   41.8790 C   0  0  0  0  0  0  0  0  0  0  0  0
   35.3600   27.7440   41.2770 H   0  0  0  0  0  0  0  0  0  0  0  0
   36.8280   27.2750   42.8470 C   0  0  0  0  0  0  0  0  0  0  0  0
   36.4210   26.2920   43.0430 H   0  0  0  0  0  0  0  0  0  0  0  0
   37.9100   27.7230   43.5540 C   0  0  0  0  0  3  0  0  0  0  0  0
   38.4180   28.9940   43.2860 C   0  0  0  0  0  3  0  0  0  0  0  0
   37.7990   29.7000   42.3350 N   0  0  0  0  0  0  0  0  0  0  0  0
  1  3  1  0  0  0  0
  1  4  1  1  0  0  0
  2  1  1  0  0  0  0
  2  3  1  0  0  0  0
  3  7  1  1  0  0  0
  3 19  1  0  0  0  0
  5  2  1  0  0  0  0
  6  2  1  0  0  0  0
  8  9  1  0  0  0  0
  8 14  1  0  0  0  0
  9 16  1  0  0  0  0
 10  1  1  0  0  0  0
 10  9  2  0  0  0  0
 11 10  1  0  0  0  0
 12 11  2  0  0  0  0
 12 13  1  0  0  0  0
 13  8  2  0  0  0  0
 15 12  1  0  0  0  0
 16 17  1  0  0  0  0
 16 18  1  0  0  0  0
 19 20  1  0  0  0  0
 19 22  1  0  0  0  0
 21 19  1  0  0  0  0
 22 23  2  0  0  0  0
 22 29  1  0  0  0  0
 23 25  1  0  0  0  0
 24 23  1  0  0  0  0
 25 26  1  0  0  0  0
 25 27  2  0  0  0  0
 28 27  1  0  0  0  0
 29 28  2  0  0  0  0
M  END
>  <minimizedAffinity>
-5.38070297

$$$$

 OpenBabel03252509273D

 29 31  0  0  1  0  0  0  0  0999 V2000
   37.1440   26.6790   42.3360 C   0  0  1  0  0  0  0  0  0  0  0  0
   36.3960   27.3950   43.4960 C   0  0  0  0  0  0  0  0  0  0  0  0
   36.8520   28.0380   42.1480 C   0  0  2  0  0  0  0  0  0  0  0  0
   36.5560   25.8560   41.8780 H   0  0  0  0  0  0  0  0  0  0  0  0
   35.3220   27.1740   43.5320 H   0  0  0  0  0  0  0  0  0  0  0  0
   36.9480   27.6570   44.4000 H   0  0  0  0  0  0  0  0  0  0  0  0
   37.6680   28.8040   42.3240 H   0  0  0  0  0  0  0  0  0  0  0  0
   40.2350   24.6680   43.0170 C   0  0  0  0  0  0  0  0  0  0  0  0
   38.8980   24.9560   42.6410 C   0  0  0  0  0  0  0  0  0  0  0  0
   38.5220   26.2510   42.7820 C   0  0  0  0  0  0  0  0  0  0  0  0
   39.3880   27.2190   43.2650 N   0  0  0  0  0  0  0  0  0  0  0  0
   40.6520   26.8970   43.6110 C   0  0  0  0  0  0  0  0  0  0  0  0
   41.0760   25.6160   43.4870 N   0  0  0  0  0  0  0  0  0  0  0  0
   40.5920   23.6460   42.9240 H   0  0  0  0  0  0  0  0  0  0  0  0
   41.2190   27.7460   43.9730 H   0  0  0  0  0  0  0  0  0  0  0  0
   38.0120   23.9650   42.1890 N   0  0  0  0  0  0  0  0  0  0  0  0
   38.0140   23.0640   42.7290 H   0  0  0  0  0  0  0  0  0  0  0  0
   37.3730   24.0330   41.3950 H   0  0  0  0  0  0  0  0  0  0  0  0
   35.7930   28.4990   41.1770 C   0  0  0  0  0  0  0  0  0  0  0  0
   35.3580   27.6750   40.5740 H   0  0  0  0  0  0  0  0  0  0  0  0
   34.9440   28.8830   41.7940 H   0  0  0  0  0  0  0  0  0  0  0  0
   36.2620   29.6230   40.3310 C   0  0  0  0  0  0  0  0  0  0  0  0
   36.3680   29.6480   38.9600 C   0  0  0  0  0  0  0  0  0  0  0  0
   36.0740   28.7390   38.4570 H   0  0  0  0  0  0  0  0  0  0  0  0
   36.8280   30.8040   38.3950 C   0  0  0  0  0  0  0  0  0  0  0  0
   36.9120   30.8240   37.3160 H   0  0  0  0  0  0  0  0  0  0  0  0
   37.1760   31.9040   39.1310 C   0  0  0  0  0  3  0  0  0  0  0  0
   37.0600   31.8560   40.5200 C   0  0  0  0  0  3  0  0  0  0  0  0
   36.6080   30.7140   41.0460 N   0  0  0  0  0  0  0  0  0  0  0  0
  1  4  1  6  0  0  0
  1 10  1  0  0  0  0
  1  2  1  0  0  0  0
  2  5  1  0  0  0  0
  2  6  1  0  0  0  0
  3  7  1  1  0  0  0
  3  1  1  0  0  0  0
  3  2  1  0  0  0  0
  8 13  1  0  0  0  0
  9 10  1  0  0  0  0
  9  8  2  0  0  0  0
 10 11  2  0  0  0  0
 11 12  1  0  0  0  0
 12 15  1  0  0  0  0
 13 12  2  0  0  0  0
 14  8  1  0  0  0  0
 16  9  1  0  0  0  0
 16 17  1  0  0  0  0
 18 16  1  0  0  0  0
 19 21  1  0  0  0  0
 19  3  1  0  0  0  0
 20 19  1  0  0  0  0
 22 29  1  0  0  0  0
 22 19  1  0  0  0  0
 23 22  2  0  0  0  0
 24 23  1  0  0  0  0
 25 23  1  0  0  0  0
 25 27  2  0  0  0  0
 26 25  1  0  0  0  0
 27 28  1  0  0  0  0
 28 29  2  0  0  0  0
M  END
>  <minimizedAffinity>
-5.31354761

$$$$

 OpenBabel03252509273D

 29 31  0  0  1  0  0  0  0  0999 V2000
   36.3670   29.8490   40.8770 C   0  0  1  0  0  0  0  0  0  0  0  0
   35.1860   28.8590   40.6700 C   0  0  0  0  0  0  0  0  0  0  0  0
   36.6010   28.5120   41.2290 C   0  0  2  0  0  0  0  0  0  0  0  0
   36.1440   30.6470   41.6170 H   0  0  0  0  0  0  0  0  0  0  0  0
   34.4150   28.9230   41.4470 H   0  0  0  0  0  0  0  0  0  0  0  0
   34.9410   28.5320   39.6580 H   0  0  0  0  0  0  0  0  0  0  0  0
   37.1660   27.8450   40.5070 H   0  0  0  0  0  0  0  0  0  0  0  0
   37.5960   32.1060   38.1470 C   0  0  0  0  0  0  0  0  0  0  0  0
   37.0740   31.7120   39.4060 C   0  0  0  0  0  0  0  0  0  0  0  0
   36.8480   30.3830   39.5490 C   0  0  0  0  0  0  0  0  0  0  0  0
   37.1060   29.4790   38.5310 N   0  0  0  0  0  0  0  0  0  0  0  0
   37.6020   29.9010   37.3490 C   0  0  0  0  0  0  0  0  0  0  0  0
   37.8470   31.2200   37.1570 N   0  0  0  0  0  0  0  0  0  0  0  0
   37.7990   33.1590   37.9750 H   0  0  0  0  0  0  0  0  0  0  0  0
   37.7560   29.0940   36.6440 H   0  0  0  0  0  0  0  0  0  0  0  0
   36.7770   32.6350   40.4200 N   0  0  0  0  0  0  0  0  0  0  0  0
   36.2780   33.5080   40.1180 H   0  0  0  0  0  0  0  0  0  0  0  0
   36.9960   32.5420   41.4140 H   0  0  0  0  0  0  0  0  0  0  0  0
   36.7180   28.0740   42.6680 C   0  0  0  0  0  0  0  0  0  0  0  0
   36.8190   28.9180   43.3800 H   0  0  0  0  0  0  0  0  0  0  0  0
   35.7460   27.5900   42.9320 H   0  0  0  0  0  0  0  0  0  0  0  0
   37.7790   27.0550   42.8580 C   0  0  0  0  0  0  0  0  0  0  0  0
   38.9210   27.1690   43.6150 C   0  0  0  0  0  0  0  0  0  0  0  0
   39.0460   28.1140   44.1220 H   0  0  0  0  0  0  0  0  0  0  0  0
   39.7580   26.0900   43.6410 C   0  0  0  0  0  0  0  0  0  0  0  0
   40.6570   26.1800   44.2370 H   0  0  0  0  0  0  0  0  0  0  0  0
   39.5020   24.9330   42.9560 C   0  0  0  0  0  3  0  0  0  0  0  0
   38.3370   24.8390   42.1940 C   0  0  0  0  0  3  0  0  0  0  0  0
   37.5370   25.9080   42.1860 N   0  0  0  0  0  0  0  0  0  0  0  0
  1  3  1  0  0  0  0
  1  4  1  1  0  0  0
  2  1  1  0  0  0  0
  2  3  1  0  0  0  0
  2  5  1  0  0  0  0
  3  7  1  6  0  0  0
  3 19  1  0  0  0  0
  6  2  1  0  0  0  0
  8  9  1  0  0  0  0
  9 10  2  0  0  0  0
  9 16  1  0  0  0  0
 10  1  1  0  0  0  0
 11 10  1  0  0  0  0
 12 11  2  0  0  0  0
 13 12  1  0  0  0  0
 13  8  2  0  0  0  0
 14  8  1  0  0  0  0
 15 12  1  0  0  0  0
 16 18  1  0  0  0  0
 17 16  1  0  0  0  0
 19 22  1  0  0  0  0
 19 21  1  0  0  0  0
 19 20  1  0  0  0  0
 22 23  1  0  0  0  0
 23 25  2  0  0  0  0
 23 24  1  0  0  0  0
 25 26  1  0  0  0  0
 27 25  1  0  0  0  0
 28 27  2  0  0  0  0
 29 28  1  0  0  0  0
 29 22  2  0  0  0  0
M  END
>  <minimizedAffinity>
-5.2383604

$$$$

 OpenBabel03252509273D

 29 31  0  0  1  0  0  0  0  0999 V2000
   36.8690   30.7750   38.6630 C   0  0  1  0  0  0  0  0  0  0  0  0
   36.7470   30.1250   37.2560 C   0  0  0  0  0  0  0  0  0  0  0  0
   37.0060   29.3810   38.6040 C   0  0  2  0  0  0  0  0  0  0  0  0
   35.9400   31.2860   38.9910 H   0  0  0  0  0  0  0  0  0  0  0  0
   35.7140   30.0350   36.9000 H   0  0  0  0  0  0  0  0  0  0  0  0
   37.5790   30.2200   36.5560 H   0  0  0  0  0  0  0  0  0  0  0  0
   38.0450   28.9300   38.6210 H   0  0  0  0  0  0  0  0  0  0  0  0
   39.3520   33.3990   39.6710 C   0  0  0  0  0  0  0  0  0  0  0  0
   38.1330   32.6750   39.6290 C   0  0  0  0  0  0  0  0  0  0  0  0
   38.0920   31.6580   38.7330 C   0  0  0  0  0  0  0  0  0  0  0  0
   39.1690   31.3570   37.9150 N   0  0  0  0  0  0  0  0  0  0  0  0
   40.3100   32.0750   37.9890 C   0  0  0  0  0  0  0  0  0  0  0  0
   40.4000   33.1000   38.8710 N   0  0  0  0  0  0  0  0  0  0  0  0
   39.4430   34.2240   40.3720 H   0  0  0  0  0  0  0  0  0  0  0  0
   41.0680   31.7350   37.2960 H   0  0  0  0  0  0  0  0  0  0  0  0
   37.0310   33.0080   40.4320 N   0  0  0  0  0  0  0  0  0  0  0  0
   36.8020   34.0310   40.5000 H   0  0  0  0  0  0  0  0  0  0  0  0
   36.4350   32.3600   40.9520 H   0  0  0  0  0  0  0  0  0  0  0  0
   35.9390   28.4510   39.1280 C   0  0  0  0  0  0  0  0  0  0  0  0
   34.9400   28.9260   39.2080 H   0  0  0  0  0  0  0  0  0  0  0  0
   35.8140   27.6480   38.3610 H   0  0  0  0  0  0  0  0  0  0  0  0
   36.3460   27.7890   40.3910 C   0  0  0  0  0  0  0  0  0  0  0  0
   36.3720   28.3390   41.6510 C   0  0  0  0  0  0  0  0  0  0  0  0
   36.0600   29.3710   41.7110 H   0  0  0  0  0  0  0  0  0  0  0  0
   36.7850   27.5310   42.6720 C   0  0  0  0  0  0  0  0  0  0  0  0
   36.8070   27.9640   43.6640 H   0  0  0  0  0  0  0  0  0  0  0  0
   37.1630   26.2290   42.4830 C   0  0  0  0  0  3  0  0  0  0  0  0
   37.1280   25.6920   41.1960 C   0  0  0  0  0  3  0  0  0  0  0  0
   36.7210   26.5040   40.2180 N   0  0  0  0  0  0  0  0  0  0  0  0
  1 10  1  0  0  0  0
  1  4  1  1  0  0  0
  2  3  1  0  0  0  0
  2  1  1  0  0  0  0
  3  7  1  1  0  0  0
  3  1  1  0  0  0  0
  3 19  1  0  0  0  0
  5  2  1  0  0  0  0
  6  2  1  0  0  0  0
  8 14  1  0  0  0  0
  9  8  1  0  0  0  0
  9 16  1  0  0  0  0
 10  9  2  0  0  0  0
 11 12  2  0  0  0  0
 11 10  1  0  0  0  0
 12 13  1  0  0  0  0
 13  8  2  0  0  0  0
 15 12  1  0  0  0  0
 16 17  1  0  0  0  0
 16 18  1  0  0  0  0
 19 20  1  0  0  0  0
 19 22  1  0  0  0  0
 21 19  1  0  0  0  0
 22 23  1  0  0  0  0
 23 24  1  0  0  0  0
 23 25  2  0  0  0  0
 25 26  1  0  0  0  0
 27 25  1  0  0  0  0
 28 27  2  0  0  0  0
 29 22  2  0  0  0  0
 29 28  1  0  0  0  0
M  END
>  <minimizedAffinity>
-4.97169638

$$$$

 OpenBabel03252509273D

 29 31  0  0  1  0  0  0  0  0999 V2000
   38.8480   29.1880   42.8100 C   0  0  1  0  0  0  0  0  0  0  0  0
   37.6290   28.7710   43.6800 C   0  0  0  0  0  0  0  0  0  0  0  0
   38.2500   27.9570   42.5020 C   0  0  2  0  0  0  0  0  0  0  0  0
   39.7890   29.2840   43.3920 H   0  0  0  0  0  0  0  0  0  0  0  0
   37.9030   28.3860   44.6690 H   0  0  0  0  0  0  0  0  0  0  0  0
   36.6670   29.2610   43.5130 H   0  0  0  0  0  0  0  0  0  0  0  0
   37.5300   27.9000   41.6290 H   0  0  0  0  0  0  0  0  0  0  0  0
   39.0700   32.4870   41.0390 C   0  0  0  0  0  0  0  0  0  0  0  0
   39.4400   31.4090   41.8850 C   0  0  0  0  0  0  0  0  0  0  0  0
   38.5220   30.4180   41.9970 C   0  0  0  0  0  0  0  0  0  0  0  0
   37.3060   30.4640   41.3330 N   0  0  0  0  0  0  0  0  0  0  0  0
   36.9970   31.5120   40.5390 C   0  0  0  0  0  0  0  0  0  0  0  0
   37.8840   32.5270   40.3930 N   0  0  0  0  0  0  0  0  0  0  0  0
   39.7680   33.3090   40.9110 H   0  0  0  0  0  0  0  0  0  0  0  0
   36.0200   31.4210   40.0830 H   0  0  0  0  0  0  0  0  0  0  0  0
   40.6550   31.3840   42.5860 N   0  0  0  0  0  0  0  0  0  0  0  0
   40.9340   32.2800   43.0580 H   0  0  0  0  0  0  0  0  0  0  0  0
   41.2890   30.5890   42.6830 H   0  0  0  0  0  0  0  0  0  0  0  0
   38.9240   26.6430   42.8130 C   0  0  0  0  0  0  0  0  0  0  0  0
   40.0270   26.6760   42.7050 H   0  0  0  0  0  0  0  0  0  0  0  0
   38.7480   26.4470   43.8990 H   0  0  0  0  0  0  0  0  0  0  0  0
   38.3220   25.5150   42.0610 C   0  0  0  0  0  0  0  0  0  0  0  0
   37.0010   25.1360   42.0390 C   0  0  0  0  0  0  0  0  0  0  0  0
   36.3380   25.7370   42.6450 H   0  0  0  0  0  0  0  0  0  0  0  0
   36.6780   24.0570   41.2660 C   0  0  0  0  0  0  0  0  0  0  0  0
   35.6380   23.7580   41.2500 H   0  0  0  0  0  0  0  0  0  0  0  0
   37.6030   23.3630   40.5350 C   0  0  0  0  0  3  0  0  0  0  0  0
   38.9380   23.7660   40.5710 C   0  0  0  0  0  3  0  0  0  0  0  0
   39.2260   24.8230   41.3340 N   0  0  0  0  0  0  0  0  0  0  0  0
  1  4  1  1  0  0  0
  1  2  1  0  0  0  0
  2  5  1  0  0  0  0
  3  7  1  6  0  0  0
  3  1  1  0  0  0  0
  3 19  1  0  0  0  0
  3  2  1  0  0  0  0
  6  2  1  0  0  0  0
  8  9  1  0  0  0  0
  9 10  2  0  0  0  0
  9 16  1  0  0  0  0
 10  1  1  0  0  0  0
 11 10  1  0  0  0  0
 12 11  2  0  0  0  0
 13 12  1  0  0  0  0
 13  8  2  0  0  0  0
 14  8  1  0  0  0  0
 15 12  1  0  0  0  0
 16 18  1  0  0  0  0
 16 17  1  0  0  0  0
 19 21  1  0  0  0  0
 20 19  1  0  0  0  0
 22 19  1  0  0  0  0
 23 22  1  0  0  0  0
 23 24  1  0  0  0  0
 25 23  2  0  0  0  0
 26 25  1  0  0  0  0
 27 28  2  0  0  0  0
 27 25  1  0  0  0  0
 28 29  1  0  0  0  0
 29 22  2  0  0  0  0
M  END
>  <minimizedAffinity>
-4.86103344

$$$$

 OpenBabel03252509273D

 29 31  0  0  1  0  0  0  0  0999 V2000
   39.2450   28.0530   43.3210 C   0  0  1  0  0  0  0  0  0  0  0  0
   40.7790   28.0130   43.0700 C   0  0  0  0  0  0  0  0  0  0  0  0
   39.7400   28.9120   42.3290 C   0  0  2  0  0  0  0  0  0  0  0  0
   38.9770   28.3880   44.3450 H   0  0  0  0  0  0  0  0  0  0  0  0
   41.3630   28.5540   43.8240 H   0  0  0  0  0  0  0  0  0  0  0  0
   41.2050   27.1690   42.5260 H   0  0  0  0  0  0  0  0  0  0  0  0
   39.6470   28.6070   41.2420 H   0  0  0  0  0  0  0  0  0  0  0  0
   36.8080   25.4200   42.2280 C   0  0  0  0  0  0  0  0  0  0  0  0
   37.2910   26.6860   42.6470 C   0  0  0  0  0  0  0  0  0  0  0  0
   38.6140   26.7340   42.9400 C   0  0  0  0  0  0  0  0  0  0  0  0
   39.4300   25.6190   42.8400 N   0  0  0  0  0  0  0  0  0  0  0  0
   38.9250   24.4330   42.4380 C   0  0  0  0  0  0  0  0  0  0  0  0
   37.6080   24.3350   42.1310 N   0  0  0  0  0  0  0  0  0  0  0  0
   35.7560   25.3220   41.9780 H   0  0  0  0  0  0  0  0  0  0  0  0
   39.6690   23.6480   42.4050 H   0  0  0  0  0  0  0  0  0  0  0  0
   36.4540   27.8040   42.7840 N   0  0  0  0  0  0  0  0  0  0  0  0
   35.5310   27.6330   43.2550 H   0  0  0  0  0  0  0  0  0  0  0  0
   36.6520   28.7580   42.4750 H   0  0  0  0  0  0  0  0  0  0  0  0
   39.8080   30.4060   42.5310 C   0  0  0  0  0  0  0  0  0  0  0  0
   39.6790   30.7160   43.5880 H   0  0  0  0  0  0  0  0  0  0  0  0
   40.8500   30.7140   42.2670 H   0  0  0  0  0  0  0  0  0  0  0  0
   38.8930   31.1360   41.6200 C   0  0  0  0  0  0  0  0  0  0  0  0
   39.1180   32.3430   41.0010 C   0  0  0  0  0  0  0  0  0  0  0  0
   40.0740   32.8000   41.2140 H   0  0  0  0  0  0  0  0  0  0  0  0
   38.1230   32.8230   40.1980 C   0  0  0  0  0  0  0  0  0  0  0  0
   38.2990   33.7730   39.7120 H   0  0  0  0  0  0  0  0  0  0  0  0
   36.9430   32.1580   39.9980 C   0  0  0  0  0  3  0  0  0  0  0  0
   36.7370   30.9350   40.6360 C   0  0  0  0  0  3  0  0  0  0  0  0
   37.7260   30.4890   41.4140 N   0  0  0  0  0  0  0  0  0  0  0  0
  1  4  1  1  0  0  0
  2  1  1  0  0  0  0
  2  5  1  0  0  0  0
  3  7  1  6  0  0  0
  3 19  1  0  0  0  0
  3  2  1  0  0  0  0
  3  1  1  0  0  0  0
  6  2  1  0  0  0  0
  8  9  1  0  0  0  0
  9 16  1  0  0  0  0
  9 10  2  0  0  0  0
 10  1  1  0  0  0  0
 11 10  1  0  0  0  0
 12 11  2  0  0  0  0
 13  8  2  0  0  0  0
 13 12  1  0  0  0  0
 14  8  1  0  0  0  0
 15 12  1  0  0  0  0
 16 17  1  0  0  0  0
 18 16  1  0  0  0  0
 19 20  1  0  0  0  0
 21 19  1  0  0  0  0
 22 19  1  0  0  0  0
 23 24  1  0  0  0  0
 23 22  2  0  0  0  0
 25 23  1  0  0  0  0
 26 25  1  0  0  0  0
 27 25  2  0  0  0  0
 27 28  1  0  0  0  0
 28 29  2  0  0  0  0
 29 22  1  0  0  0  0
M  END
>  <minimizedAffinity>
-4.71746874

$$$$

 OpenBabel03252509273D

 29 31  0  0  1  0  0  0  0  0999 V2000
   37.6330   27.7160   42.5120 C   0  0  1  0  0  0  0  0  0  0  0  0
   36.4630   27.3080   43.4520 C   0  0  0  0  0  0  0  0  0  0  0  0
   36.9280   26.5550   42.1660 C   0  0  2  0  0  0  0  0  0  0  0  0
   38.6230   27.7060   43.0150 H   0  0  0  0  0  0  0  0  0  0  0  0
   36.7910   26.8270   44.3810 H   0  0  0  0  0  0  0  0  0  0  0  0
   35.5280   27.8690   43.4070 H   0  0  0  0  0  0  0  0  0  0  0  0
   36.1360   26.6140   41.3580 H   0  0  0  0  0  0  0  0  0  0  0  0
   37.8940   31.1880   41.1190 C   0  0  0  0  0  0  0  0  0  0  0  0
   38.2420   30.0260   41.8550 C   0  0  0  0  0  0  0  0  0  0  0  0
   37.3270   29.0260   41.8260 C   0  0  0  0  0  0  0  0  0  0  0  0
   36.1350   29.1400   41.1270 N   0  0  0  0  0  0  0  0  0  0  0  0
   35.8470   30.2670   40.4410 C   0  0  0  0  0  0  0  0  0  0  0  0
   36.7310   31.2940   40.4380 N   0  0  0  0  0  0  0  0  0  0  0  0
   38.5900   32.0220   41.1050 H   0  0  0  0  0  0  0  0  0  0  0  0
   34.8870   30.2230   39.9430 H   0  0  0  0  0  0  0  0  0  0  0  0
   39.4310   29.9300   42.5930 N   0  0  0  0  0  0  0  0  0  0  0  0
   39.6860   30.7710   43.1680 H   0  0  0  0  0  0  0  0  0  0  0  0
   40.0670   29.1310   42.6260 H   0  0  0  0  0  0  0  0  0  0  0  0
   37.5320   25.1800   42.3170 C   0  0  0  0  0  0  0  0  0  0  0  0
   37.1720   24.6350   43.2140 H   0  0  0  0  0  0  0  0  0  0  0  0
   37.1660   24.5770   41.4500 H   0  0  0  0  0  0  0  0  0  0  0  0
   39.0120   25.2080   42.2380 C   0  0  0  0  0  0  0  0  0  0  0  0
   39.9060   25.1120   43.2780 C   0  0  0  0  0  0  0  0  0  0  0  0
   39.4650   25.0060   44.2580 H   0  0  0  0  0  0  0  0  0  0  0  0
   41.2340   25.1620   42.9610 C   0  0  0  0  0  0  0  0  0  0  0  0
   41.9380   25.0870   43.7800 H   0  0  0  0  0  0  0  0  0  0  0  0
   41.6870   25.3000   41.6770 C   0  0  0  0  0  3  0  0  0  0  0  0
   40.7620   25.3960   40.6370 C   0  0  0  0  0  3  0  0  0  0  0  0
   39.4710   25.3440   40.9750 N   0  0  0  0  0  0  0  0  0  0  0  0
  1  4  1  1  0  0  0
  1  2  1  0  0  0  0
  2  5  1  0  0  0  0
  3  7  1  6  0  0  0
  3 19  1  0  0  0  0
  3  1  1  0  0  0  0
  3  2  1  0  0  0  0
  6  2  1  0  0  0  0
  8  9  1  0  0  0  0
  9 16  1  0  0  0  0
 10  9  2  0  0  0  0
 10  1  1  0  0  0  0
 11 10  1  0  0  0  0
 12 11  2  0  0  0  0
 13 12  1  0  0  0  0
 13  8  2  0  0  0  0
 14  8  1  0  0  0  0
 15 12  1  0  0  0  0
 16 18  1  0  0  0  0
 16 17  1  0  0  0  0
 19 20  1  0  0  0  0
 21 19  1  0  0  0  0
 22 19  1  0  0  0  0
 22 23  1  0  0  0  0
 23 24  1  0  0  0  0
 25 23  2  0  0  0  0
 25 26  1  0  0  0  0
 27 25  1  0  0  0  0
 28 29  1  0  0  0  0
 28 27  2  0  0  0  0
 29 22  2  0  0  0  0
M  END
>  <minimizedAffinity>
-4.65054703

$$$$

 OpenBabel03252509273D

 29 31  0  0  1  0  0  0  0  0999 V2000
   37.8090   28.5150   42.7400 C   0  0  1  0  0  0  0  0  0  0  0  0
   38.8180   29.6580   43.0460 C   0  0  0  0  0  0  0  0  0  0  0  0
   38.0840   29.4060   41.6910 C   0  0  2  0  0  0  0  0  0  0  0  0
   36.8900   28.5650   43.3610 H   0  0  0  0  0  0  0  0  0  0  0  0
   38.3880   30.4820   43.6270 H   0  0  0  0  0  0  0  0  0  0  0  0
   39.8820   29.4230   43.1030 H   0  0  0  0  0  0  0  0  0  0  0  0
   38.8190   29.0960   40.8870 H   0  0  0  0  0  0  0  0  0  0  0  0
   38.8350   24.9720   42.0640 C   0  0  0  0  0  0  0  0  0  0  0  0
   38.0770   26.1700   41.9900 C   0  0  0  0  0  0  0  0  0  0  0  0
   38.4970   27.1730   42.7990 C   0  0  0  0  0  0  0  0  0  0  0  0
   39.5880   27.0300   43.6410 N   0  0  0  0  0  0  0  0  0  0  0  0
   40.2790   25.8700   43.6790 C   0  0  0  0  0  0  0  0  0  0  0  0
   39.8990   24.8380   42.8870 N   0  0  0  0  0  0  0  0  0  0  0  0
   38.5450   24.1340   41.4370 H   0  0  0  0  0  0  0  0  0  0  0  0
   41.1040   25.8940   44.3790 H   0  0  0  0  0  0  0  0  0  0  0  0
   36.9500   26.2970   41.1650 N   0  0  0  0  0  0  0  0  0  0  0  0
   36.2820   25.4870   41.1680 H   0  0  0  0  0  0  0  0  0  0  0  0
   36.7160   27.0930   40.5670 H   0  0  0  0  0  0  0  0  0  0  0  0
   37.0720   30.4220   41.2220 C   0  0  0  0  0  0  0  0  0  0  0  0
   36.4350   30.8210   42.0380 H   0  0  0  0  0  0  0  0  0  0  0  0
   37.6540   31.3030   40.8560 H   0  0  0  0  0  0  0  0  0  0  0  0
   36.2680   29.9240   40.0790 C   0  0  0  0  0  0  0  0  0  0  0  0
   35.0570   29.2740   40.1300 C   0  0  0  0  0  0  0  0  0  0  0  0
   34.6610   29.1150   41.1220 H   0  0  0  0  0  0  0  0  0  0  0  0
   34.5000   28.9070   38.9380 C   0  0  0  0  0  0  0  0  0  0  0  0
   33.5480   28.3950   38.9780 H   0  0  0  0  0  0  0  0  0  0  0  0
   35.0930   29.1600   37.7310 C   0  0  0  0  0  3  0  0  0  0  0  0
   36.3220   29.8210   37.7030 C   0  0  0  0  0  3  0  0  0  0  0  0
   36.8440   30.1680   38.8820 N   0  0  0  0  0  0  0  0  0  0  0  0
  1 10  1  0  0  0  0
  1  2  1  0  0  0  0
  1  4  1  1  0  0  0
  2  6  1  0  0  0  0
  2  5  1  0  0  0  0
  3  7  1  6  0  0  0
  3  1  1  0  0  0  0
  3  2  1  0  0  0  0
  8 13  1  0  0  0  0
  9  8  2  0  0  0  0
  9 10  1  0  0  0  0
 10 11  2  0  0  0  0
 11 12  1  0  0  0  0
 12 15  1  0  0  0  0
 13 12  2  0  0  0  0
 14  8  1  0  0  0  0
 16 17  1  0  0  0  0
 16  9  1  0  0  0  0
 18 16  1  0  0  0  0
 19  3  1  0  0  0  0
 19 20  1  0  0  0  0
 21 19  1  0  0  0  0
 22 23  1  0  0  0  0
 22 19  1  0  0  0  0
 23 24  1  0  0  0  0
 25 26  1  0  0  0  0
 25 23  2  0  0  0  0
 27 25  1  0  0  0  0
 28 27  2  0  0  0  0
 28 29  1  0  0  0  0
 29 22  2  0  0  0  0
M  END
>  <minimizedAffinity>
-4.5527339

$$$$

 OpenBabel03252509273D

 29 31  0  0  1  0  0  0  0  0999 V2000
   37.4810   30.2370   38.6250 C   0  0  1  0  0  0  0  0  0  0  0  0
   37.2160   31.7590   38.4460 C   0  0  0  0  0  0  0  0  0  0  0  0
   36.5220   30.8100   39.4730 C   0  0  2  0  0  0  0  0  0  0  0  0
   38.5200   30.0090   38.9410 H   0  0  0  0  0  0  0  0  0  0  0  0
   37.9870   32.3970   38.8930 H   0  0  0  0  0  0  0  0  0  0  0  0
   36.6330   32.0970   37.5870 H   0  0  0  0  0  0  0  0  0  0  0  0
   35.4240   30.6830   39.2250 H   0  0  0  0  0  0  0  0  0  0  0  0
   37.4740   28.1040   35.5400 C   0  0  0  0  0  0  0  0  0  0  0  0
   37.9840   28.8540   36.6320 C   0  0  0  0  0  0  0  0  0  0  0  0
   37.0510   29.4780   37.3930 C   0  0  0  0  0  0  0  0  0  0  0  0
   35.6960   29.3880   37.1140 N   0  0  0  0  0  0  0  0  0  0  0  0
   35.2580   28.6630   36.0630 C   0  0  0  0  0  0  0  0  0  0  0  0
   36.1520   28.0200   35.2730 N   0  0  0  0  0  0  0  0  0  0  0  0
   38.1760   27.5820   34.8970 H   0  0  0  0  0  0  0  0  0  0  0  0
   34.1810   28.6790   35.9600 H   0  0  0  0  0  0  0  0  0  0  0  0
   39.3580   28.9740   36.8870 N   0  0  0  0  0  0  0  0  0  0  0  0
   39.9680   29.1570   36.0520 H   0  0  0  0  0  0  0  0  0  0  0  0
   39.8200   28.9030   37.7960 H   0  0  0  0  0  0  0  0  0  0  0  0
   36.7850   31.0270   40.9430 C   0  0  0  0  0  0  0  0  0  0  0  0
   37.5910   31.7630   41.1440 H   0  0  0  0  0  0  0  0  0  0  0  0
   35.8610   31.4920   41.3650 H   0  0  0  0  0  0  0  0  0  0  0  0
   37.0020   29.7500   41.6660 C   0  0  0  0  0  0  0  0  0  0  0  0
   36.2230   28.6190   41.6150 C   0  0  0  0  0  0  0  0  0  0  0  0
   35.3580   28.6830   40.9720 H   0  0  0  0  0  0  0  0  0  0  0  0
   36.6240   27.5550   42.3730 C   0  0  0  0  0  0  0  0  0  0  0  0
   36.0100   26.6650   42.3330 H   0  0  0  0  0  0  0  0  0  0  0  0
   37.7440   27.5820   43.1580 C   0  0  0  0  0  3  0  0  0  0  0  0
   38.5210   28.7410   43.1940 C   0  0  0  0  0  3  0  0  0  0  0  0
   38.1060   29.7650   42.4440 N   0  0  0  0  0  0  0  0  0  0  0  0
  1  4  1  1  0  0  0
  1  3  1  0  0  0  0
  2  1  1  0  0  0  0
  2  5  1  0  0  0  0
  2  3  1  0  0  0  0
  3  7  1  6  0  0  0
  3 19  1  0  0  0  0
  6  2  1  0  0  0  0
  8  9  1  0  0  0  0
  9 16  1  0  0  0  0
  9 10  2  0  0  0  0
 10  1  1  0  0  0  0
 11 10  1  0  0  0  0
 12 11  2  0  0  0  0
 13  8  2  0  0  0  0
 13 12  1  0  0  0  0
 14  8  1  0  0  0  0
 15 12  1  0  0  0  0
 16 18  1  0  0  0  0
 17 16  1  0  0  0  0
 19 20  1  0  0  0  0
 19 21  1  0  0  0  0
 19 22  1  0  0  0  0
 22 29  1  0  0  0  0
 23 22  2  0  0  0  0
 23 25  1  0  0  0  0
 24 23  1  0  0  0  0
 25 27  2  0  0  0  0
 26 25  1  0  0  0  0
 27 28  1  0  0  0  0
 29 28  2  0  0  0  0
M  END
>  <minimizedAffinity>
-4.54636383

$$$$
