
 OpenBabel03252504273D

 21 22  0  0  0  0  0  0  0  0999 V2000
   39.6360   30.7420   41.9000 C   0  0  0  0  0  0  0  0  0  0  0  0
   40.1780   29.9960   41.2790 H   0  0  0  0  0  0  0  0  0  0  0  0
   40.4540   31.3420   42.3800 H   0  0  0  0  0  0  0  0  0  0  0  0
   39.1300   32.9280   41.0160 C   0  0  0  0  0  0  0  0  0  0  0  0
   38.7720   31.5850   41.0670 C   0  0  0  0  0  0  0  0  0  0  0  0
   37.6630   31.1960   40.3430 C   0  0  0  0  0  0  0  0  0  0  0  0
   37.0060   32.1220   39.6450 N   0  0  0  0  0  0  0  0  0  0  0  0
   37.3590   33.4230   39.5990 C   0  0  0  0  0  0  0  0  0  0  0  0
   38.4460   33.8710   40.2930 N   0  0  0  0  0  0  0  0  0  0  0  0
   39.9870   33.3440   41.5470 H   0  0  0  0  0  0  0  0  0  0  0  0
   37.4100   30.1610   40.4010 H   0  0  0  0  0  0  0  0  0  0  0  0
   36.6830   34.0040   38.9670 H   0  0  0  0  0  0  0  0  0  0  0  0
   38.9620   30.0820   42.9150 O   0  0  0  0  0  0  0  0  0  0  0  0
   38.4650   28.8090   42.7050 C   0  0  0  0  0  0  0  0  0  0  0  0
   37.3170   28.6030   43.4710 C   0  0  0  0  0  0  0  0  0  0  0  0
   36.8420   29.3170   44.1550 H   0  0  0  0  0  0  0  0  0  0  0  0
   36.6390   27.3830   43.4220 C   0  0  0  0  0  0  0  0  0  0  0  0
   35.7460   27.1710   43.9960 H   0  0  0  0  0  0  0  0  0  0  0  0
   37.1350   26.3980   42.6000 C   0  0  0  0  0  3  0  0  0  0  0  0
   38.2890   26.6490   41.8490 C   0  0  0  0  0  3  0  0  0  0  0  0
   38.9150   27.8310   41.9200 N   0  0  0  0  0  0  0  0  0  0  0  0
  1  3  1  0  0  0  0
  1 13  1  0  0  0  0
  2  1  1  0  0  0  0
  4  5  1  0  0  0  0
  4 10  1  0  0  0  0
  5  1  1  0  0  0  0
  6 11  1  0  0  0  0
  6  5  2  0  0  0  0
  7  6  1  0  0  0  0
  8  7  2  0  0  0  0
  8  9  1  0  0  0  0
  9  4  2  0  0  0  0
 12  8  1  0  0  0  0
 14 13  1  0  0  0  0
 14 15  1  0  0  0  0
 15 16  1  0  0  0  0
 17 15  2  0  0  0  0
 17 18  1  0  0  0  0
 19 17  1  0  0  0  0
 20 21  1  0  0  0  0
 20 19  2  0  0  0  0
 21 14  2  0  0  0  0
M  END
>  <minimizedAffinity>
-4.18775082

$$$$

 OpenBabel03252504273D

 21 22  0  0  0  0  0  0  0  0999 V2000
   38.8600   29.0320   42.9550 C   0  0  0  0  0  0  0  0  0  0  0  0
   39.7560   28.5430   42.5150 H   0  0  0  0  0  0  0  0  0  0  0  0
   39.2350   29.4700   43.9190 H   0  0  0  0  0  0  0  0  0  0  0  0
   36.9800   29.9990   41.7930 C   0  0  0  0  0  0  0  0  0  0  0  0
   38.3430   30.0740   42.0610 C   0  0  0  0  0  0  0  0  0  0  0  0
   39.0500   31.0990   41.4670 C   0  0  0  0  0  0  0  0  0  0  0  0
   38.3910   31.9500   40.6800 N   0  0  0  0  0  0  0  0  0  0  0  0
   37.0690   31.8720   40.4250 C   0  0  0  0  0  0  0  0  0  0  0  0
   36.3130   30.8800   40.9820 N   0  0  0  0  0  0  0  0  0  0  0  0
   36.3260   29.2300   42.2090 H   0  0  0  0  0  0  0  0  0  0  0  0
   40.0940   31.1330   41.6890 H   0  0  0  0  0  0  0  0  0  0  0  0
   36.7380   32.6690   39.7550 H   0  0  0  0  0  0  0  0  0  0  0  0
   37.9270   28.0620   43.2810 O   0  0  0  0  0  0  0  0  0  0  0  0
   38.1620   26.7380   42.9590 C   0  0  0  0  0  0  0  0  0  0  0  0
   36.9990   26.1440   42.4640 C   0  0  0  0  0  0  0  0  0  0  0  0
   36.0190   26.6200   42.3340 H   0  0  0  0  0  0  0  0  0  0  0  0
   36.9970   24.8040   42.0730 C   0  0  0  0  0  0  0  0  0  0  0  0
   36.1230   24.2950   41.6830 H   0  0  0  0  0  0  0  0  0  0  0  0
   38.1680   24.0920   42.1880 C   0  0  0  0  0  3  0  0  0  0  0  0
   39.3100   24.7280   42.6890 C   0  0  0  0  0  3  0  0  0  0  0  0
   39.2770   26.0160   43.0560 N   0  0  0  0  0  0  0  0  0  0  0  0
  1 13  1  0  0  0  0
  1  3  1  0  0  0  0
  2  1  1  0  0  0  0
  4  5  1  0  0  0  0
  4 10  1  0  0  0  0
  5  1  1  0  0  0  0
  6 11  1  0  0  0  0
  6  5  2  0  0  0  0
  7  6  1  0  0  0  0
  8  7  2  0  0  0  0
  8  9  1  0  0  0  0
  9  4  2  0  0  0  0
 12  8  1  0  0  0  0
 14 21  1  0  0  0  0
 14 13  1  0  0  0  0
 15 14  2  0  0  0  0
 16 15  1  0  0  0  0
 17 19  2  0  0  0  0
 17 15  1  0  0  0  0
 18 17  1  0  0  0  0
 19 20  1  0  0  0  0
 20 21  2  0  0  0  0
M  END
>  <minimizedAffinity>
-4.18009233

$$$$

 OpenBabel03252504273D

 21 22  0  0  0  0  0  0  0  0999 V2000
   35.8160   30.0240   40.6020 C   0  0  0  0  0  0  0  0  0  0  0  0
   34.8450   30.5450   40.7500 H   0  0  0  0  0  0  0  0  0  0  0  0
   35.5430   28.9350   40.5980 H   0  0  0  0  0  0  0  0  0  0  0  0
   37.0130   31.6890   39.3320 C   0  0  0  0  0  0  0  0  0  0  0  0
   36.4350   30.4250   39.3330 C   0  0  0  0  0  0  0  0  0  0  0  0
   36.5020   29.6950   38.1640 C   0  0  0  0  0  0  0  0  0  0  0  0
   37.1120   30.2400   37.1120 N   0  0  0  0  0  0  0  0  0  0  0  0
   37.6720   31.4670   37.1170 C   0  0  0  0  0  0  0  0  0  0  0  0
   37.6380   32.2390   38.2430 N   0  0  0  0  0  0  0  0  0  0  0  0
   37.0180   32.3500   40.2000 H   0  0  0  0  0  0  0  0  0  0  0  0
   36.0500   28.7290   38.1920 H   0  0  0  0  0  0  0  0  0  0  0  0
   38.1160   31.7140   36.1500 H   0  0  0  0  0  0  0  0  0  0  0  0
   36.6200   30.2400   41.7090 O   0  0  0  0  0  0  0  0  0  0  0  0
   37.3630   29.2030   42.2400 C   0  0  0  0  0  0  0  0  0  0  0  0
   36.6170   28.0230   42.2460 C   0  0  0  0  0  0  0  0  0  0  0  0
   35.5870   27.8920   41.8920 H   0  0  0  0  0  0  0  0  0  0  0  0
   37.1660   26.8380   42.7400 C   0  0  0  0  0  0  0  0  0  0  0  0
   36.6300   25.8960   42.7680 H   0  0  0  0  0  0  0  0  0  0  0  0
   38.4550   26.8690   43.2170 C   0  0  0  0  0  3  0  0  0  0  0  0
   39.1660   28.0740   43.1900 C   0  0  0  0  0  3  0  0  0  0  0  0
   38.6100   29.1930   42.7100 N   0  0  0  0  0  0  0  0  0  0  0  0
  1  2  1  0  0  0  0
  1 13  1  0  0  0  0
  3  1  1  0  0  0  0
  4  5  1  0  0  0  0
  4 10  1  0  0  0  0
  5  1  1  0  0  0  0
  6 11  1  0  0  0  0
  6  5  2  0  0  0  0
  7  8  2  0  0  0  0
  7  6  1  0  0  0  0
  8  9  1  0  0  0  0
  9  4  2  0  0  0  0
 12  8  1  0  0  0  0
 13 14  1  0  0  0  0
 14 15  2  0  0  0  0
 14 21  1  0  0  0  0
 15 17  1  0  0  0  0
 16 15  1  0  0  0  0
 17 18  1  0  0  0  0
 17 19  2  0  0  0  0
 20 19  1  0  0  0  0
 21 20  2  0  0  0  0
M  END
>  <minimizedAffinity>
-4.1032052

$$$$

 OpenBabel03252504273D

 21 22  0  0  0  0  0  0  0  0999 V2000
   37.0130   28.8130   42.4580 C   0  0  0  0  0  0  0  0  0  0  0  0
   36.1670   28.9820   43.1590 H   0  0  0  0  0  0  0  0  0  0  0  0
   36.6430   28.0010   41.7750 H   0  0  0  0  0  0  0  0  0  0  0  0
   38.6420   30.4740   41.8200 C   0  0  0  0  0  0  0  0  0  0  0  0
   37.3260   30.0370   41.7120 C   0  0  0  0  0  0  0  0  0  0  0  0
   36.4700   30.7870   40.9320 C   0  0  0  0  0  0  0  0  0  0  0  0
   36.9510   31.8770   40.3320 N   0  0  0  0  0  0  0  0  0  0  0  0
   38.2280   32.2950   40.4400 C   0  0  0  0  0  0  0  0  0  0  0  0
   39.1240   31.5960   41.1980 N   0  0  0  0  0  0  0  0  0  0  0  0
   39.4020   29.9580   42.4090 H   0  0  0  0  0  0  0  0  0  0  0  0
   35.4660   30.4300   40.8670 H   0  0  0  0  0  0  0  0  0  0  0  0
   38.4050   33.2080   39.8680 H   0  0  0  0  0  0  0  0  0  0  0  0
   38.0890   28.2970   43.1620 O   0  0  0  0  0  0  0  0  0  0  0  0
   38.4580   26.9750   42.9940 C   0  0  0  0  0  0  0  0  0  0  0  0
   39.6450   26.7110   43.6800 C   0  0  0  0  0  0  0  0  0  0  0  0
   40.2350   27.4190   44.2760 H   0  0  0  0  0  0  0  0  0  0  0  0
   40.2120   25.4350   43.6530 C   0  0  0  0  0  0  0  0  0  0  0  0
   41.1310   25.1780   44.1660 H   0  0  0  0  0  0  0  0  0  0  0  0
   39.5680   24.4540   42.9380 C   0  0  0  0  0  3  0  0  0  0  0  0
   38.3800   24.7630   42.2670 C   0  0  0  0  0  3  0  0  0  0  0  0
   37.8630   25.9980   42.3120 N   0  0  0  0  0  0  0  0  0  0  0  0
  1  2  1  0  0  0  0
  1 13  1  0  0  0  0
  3  1  1  0  0  0  0
  4 10  1  0  0  0  0
  5  4  1  0  0  0  0
  5  1  1  0  0  0  0
  6  5  2  0  0  0  0
  7  8  2  0  0  0  0
  7  6  1  0  0  0  0
  8  9  1  0  0  0  0
  9  4  2  0  0  0  0
 11  6  1  0  0  0  0
 12  8  1  0  0  0  0
 14 13  1  0  0  0  0
 14 15  1  0  0  0  0
 15 16  1  0  0  0  0
 17 15  2  0  0  0  0
 17 18  1  0  0  0  0
 19 17  1  0  0  0  0
 20 21  1  0  0  0  0
 20 19  2  0  0  0  0
 21 14  2  0  0  0  0
M  END
>  <minimizedAffinity>
-4.07924604

$$$$

 OpenBabel03252504273D

 21 22  0  0  0  0  0  0  0  0999 V2000
   35.5140   28.9430   40.1930 C   0  0  0  0  0  0  0  0  0  0  0  0
   34.4280   29.0250   39.9780 H   0  0  0  0  0  0  0  0  0  0  0  0
   35.8630   28.1110   39.5240 H   0  0  0  0  0  0  0  0  0  0  0  0
   36.5700   30.3640   38.5550 C   0  0  0  0  0  0  0  0  0  0  0  0
   36.2040   30.2000   39.8870 C   0  0  0  0  0  0  0  0  0  0  0  0
   36.5240   31.2180   40.7620 C   0  0  0  0  0  0  0  0  0  0  0  0
   37.1580   32.2890   40.2840 N   0  0  0  0  0  0  0  0  0  0  0  0
   37.5090   32.4420   38.9910 C   0  0  0  0  0  0  0  0  0  0  0  0
   37.2220   31.4710   38.0750 N   0  0  0  0  0  0  0  0  0  0  0  0
   36.3670   29.6250   37.7790 H   0  0  0  0  0  0  0  0  0  0  0  0
   36.2320   31.0670   41.7780 H   0  0  0  0  0  0  0  0  0  0  0  0
   38.0190   33.3930   38.8200 H   0  0  0  0  0  0  0  0  0  0  0  0
   35.6860   28.5150   41.5000 O   0  0  0  0  0  0  0  0  0  0  0  0
   36.7850   27.7470   41.8400 C   0  0  0  0  0  0  0  0  0  0  0  0
   37.2370   28.0830   43.1170 C   0  0  0  0  0  0  0  0  0  0  0  0
   36.8150   28.8420   43.7880 H   0  0  0  0  0  0  0  0  0  0  0  0
   38.3420   27.4350   43.6730 C   0  0  0  0  0  0  0  0  0  0  0  0
   38.7340   27.6580   44.6580 H   0  0  0  0  0  0  0  0  0  0  0  0
   38.9640   26.4600   42.9290 C   0  0  0  0  0  3  0  0  0  0  0  0
   38.4750   26.1540   41.6540 C   0  0  0  0  0  3  0  0  0  0  0  0
   37.4130   26.7970   41.1490 N   0  0  0  0  0  0  0  0  0  0  0  0
  1 13  1  0  0  0  0
  2  1  1  0  0  0  0
  3  1  1  0  0  0  0
  4  5  1  0  0  0  0
  5  1  1  0  0  0  0
  5  6  2  0  0  0  0
  6 11  1  0  0  0  0
  7  6  1  0  0  0  0
  8  7  2  0  0  0  0
  9  4  2  0  0  0  0
  9  8  1  0  0  0  0
 10  4  1  0  0  0  0
 12  8  1  0  0  0  0
 13 14  1  0  0  0  0
 14 15  1  0  0  0  0
 15 17  2  0  0  0  0
 15 16  1  0  0  0  0
 17 18  1  0  0  0  0
 19 17  1  0  0  0  0
 20 19  2  0  0  0  0
 21 20  1  0  0  0  0
 21 14  2  0  0  0  0
M  END
>  <minimizedAffinity>
-4.04664087

$$$$

 OpenBabel03252504273D

 21 22  0  0  0  0  0  0  0  0999 V2000
   36.9950   30.2500   40.9110 C   0  0  0  0  0  0  0  0  0  0  0  0
   35.9270   30.3220   40.6120 H   0  0  0  0  0  0  0  0  0  0  0  0
   37.4110   29.4480   40.2440 H   0  0  0  0  0  0  0  0  0  0  0  0
   36.9850   32.4570   39.9380 C   0  0  0  0  0  0  0  0  0  0  0  0
   37.6830   31.5290   40.7020 C   0  0  0  0  0  0  0  0  0  0  0  0
   38.9260   31.9010   41.1730 C   0  0  0  0  0  0  0  0  0  0  0  0
   39.3790   33.1170   40.8710 N   0  0  0  0  0  0  0  0  0  0  0  0
   38.6970   34.0140   40.1300 C   0  0  0  0  0  0  0  0  0  0  0  0
   37.4620   33.7060   39.6340 N   0  0  0  0  0  0  0  0  0  0  0  0
   35.9960   32.2690   39.5160 H   0  0  0  0  0  0  0  0  0  0  0  0
   39.4400   31.1690   41.7560 H   0  0  0  0  0  0  0  0  0  0  0  0
   39.2540   34.9450   40.0050 H   0  0  0  0  0  0  0  0  0  0  0  0
   37.0720   29.7800   42.2120 O   0  0  0  0  0  0  0  0  0  0  0  0
   37.7180   28.5880   42.4830 C   0  0  0  0  0  0  0  0  0  0  0  0
   36.9230   27.5060   42.1020 C   0  0  0  0  0  0  0  0  0  0  0  0
   35.9230   27.5480   41.6520 H   0  0  0  0  0  0  0  0  0  0  0  0
   37.3720   26.1960   42.2820 C   0  0  0  0  0  0  0  0  0  0  0  0
   36.7950   25.3220   42.0050 H   0  0  0  0  0  0  0  0  0  0  0  0
   38.6140   26.0070   42.8410 C   0  0  0  0  0  3  0  0  0  0  0  0
   39.3780   27.1210   43.2060 C   0  0  0  0  0  3  0  0  0  0  0  0
   38.9160   28.3650   43.0200 N   0  0  0  0  0  0  0  0  0  0  0  0
  1 13  1  0  0  0  0
  2  1  1  0  0  0  0
  3  1  1  0  0  0  0
  4  5  1  0  0  0  0
  5  1  1  0  0  0  0
  5  6  2  0  0  0  0
  6 11  1  0  0  0  0
  7  6  1  0  0  0  0
  8  7  2  0  0  0  0
  9  4  2  0  0  0  0
  9  8  1  0  0  0  0
 10  4  1  0  0  0  0
 12  8  1  0  0  0  0
 13 14  1  0  0  0  0
 14 21  1  0  0  0  0
 15 17  1  0  0  0  0
 15 14  2  0  0  0  0
 16 15  1  0  0  0  0
 17 19  2  0  0  0  0
 18 17  1  0  0  0  0
 19 20  1  0  0  0  0
 21 20  2  0  0  0  0
M  END
>  <minimizedAffinity>
-3.98245573

$$$$

 OpenBabel03252504273D

 21 22  0  0  0  0  0  0  0  0999 V2000
   38.3000   30.0450   39.2810 C   0  0  0  0  0  0  0  0  0  0  0  0
   38.3470   29.8380   38.1900 H   0  0  0  0  0  0  0  0  0  0  0  0
   39.2520   29.6060   39.6830 H   0  0  0  0  0  0  0  0  0  0  0  0
   39.3800   32.0520   40.0710 C   0  0  0  0  0  0  0  0  0  0  0  0
   38.2270   31.4880   39.5360 C   0  0  0  0  0  0  0  0  0  0  0  0
   37.1560   32.3280   39.3070 C   0  0  0  0  0  0  0  0  0  0  0  0
   37.2890   33.6200   39.6100 N   0  0  0  0  0  0  0  0  0  0  0  0
   38.4100   34.1610   40.1280 C   0  0  0  0  0  0  0  0  0  0  0  0
   39.5040   33.3820   40.3780 N   0  0  0  0  0  0  0  0  0  0  0  0
   40.2830   31.4820   40.2910 H   0  0  0  0  0  0  0  0  0  0  0  0
   36.2840   31.8690   38.8970 H   0  0  0  0  0  0  0  0  0  0  0  0
   38.3000   35.2340   40.2990 H   0  0  0  0  0  0  0  0  0  0  0  0
   37.2530   29.3260   39.8330 O   0  0  0  0  0  0  0  0  0  0  0  0
   37.3290   28.8820   41.1400 C   0  0  0  0  0  0  0  0  0  0  0  0
   36.9100   27.5530   41.2280 C   0  0  0  0  0  0  0  0  0  0  0  0
   36.5610   26.9160   40.4070 H   0  0  0  0  0  0  0  0  0  0  0  0
   36.9020   26.8900   42.4570 C   0  0  0  0  0  0  0  0  0  0  0  0
   36.5860   25.8620   42.5810 H   0  0  0  0  0  0  0  0  0  0  0  0
   37.3170   27.5830   43.5700 C   0  0  0  0  0  3  0  0  0  0  0  0
   37.7300   28.9130   43.4360 C   0  0  0  0  0  3  0  0  0  0  0  0
   37.7250   29.5200   42.2410 N   0  0  0  0  0  0  0  0  0  0  0  0
  1  5  1  0  0  0  0
  1  3  1  0  0  0  0
  1 13  1  0  0  0  0
  2  1  1  0  0  0  0
  4 10  1  0  0  0  0
  4  9  1  0  0  0  0
  5  4  2  0  0  0  0
  6  5  1  0  0  0  0
  6  7  2  0  0  0  0
  7  8  1  0  0  0  0
  8 12  1  0  0  0  0
  8  9  2  0  0  0  0
 11  6  1  0  0  0  0
 13 14  1  0  0  0  0
 14 15  2  0  0  0  0
 14 21  1  0  0  0  0
 15 17  1  0  0  0  0
 16 15  1  0  0  0  0
 17 18  1  0  0  0  0
 17 19  2  0  0  0  0
 20 19  1  0  0  0  0
 21 20  2  0  0  0  0
M  END
>  <minimizedAffinity>
-3.96905899

$$$$

 OpenBabel03252504273D

 21 22  0  0  0  0  0  0  0  0999 V2000
   35.4420   29.7690   40.2770 C   0  0  0  0  0  0  0  0  0  0  0  0
   35.9620   30.5570   40.8640 H   0  0  0  0  0  0  0  0  0  0  0  0
   34.3550   30.0370   40.3630 H   0  0  0  0  0  0  0  0  0  0  0  0
   36.9490   30.6360   38.6040 C   0  0  0  0  0  0  0  0  0  0  0  0
   35.8860   29.7820   38.8790 C   0  0  0  0  0  0  0  0  0  0  0  0
   35.3710   29.0520   37.8270 C   0  0  0  0  0  0  0  0  0  0  0  0
   35.9180   29.2060   36.6210 N   0  0  0  0  0  0  0  0  0  0  0  0
   36.9490   30.0360   36.3620 C   0  0  0  0  0  0  0  0  0  0  0  0
   37.5030   30.7860   37.3590 N   0  0  0  0  0  0  0  0  0  0  0  0
   37.4320   31.2580   39.3590 H   0  0  0  0  0  0  0  0  0  0  0  0
   34.5560   28.4050   38.0650 H   0  0  0  0  0  0  0  0  0  0  0  0
   37.2380   30.0060   35.3090 H   0  0  0  0  0  0  0  0  0  0  0  0
   35.6140   28.5470   40.9060 O   0  0  0  0  0  0  0  0  0  0  0  0
   36.6580   28.3640   41.7940 C   0  0  0  0  0  0  0  0  0  0  0  0
   36.9490   27.0060   41.9290 C   0  0  0  0  0  0  0  0  0  0  0  0
   36.4480   26.1700   41.4250 H   0  0  0  0  0  0  0  0  0  0  0  0
   37.9720   26.5790   42.7780 C   0  0  0  0  0  0  0  0  0  0  0  0
   38.2380   25.5390   42.9190 H   0  0  0  0  0  0  0  0  0  0  0  0
   38.6800   27.5330   43.4710 C   0  0  0  0  0  3  0  0  0  0  0  0
   38.3540   28.8840   43.3050 C   0  0  0  0  0  3  0  0  0  0  0  0
   37.3650   29.2590   42.4820 N   0  0  0  0  0  0  0  0  0  0  0  0
  1  3  1  0  0  0  0
  1  2  1  0  0  0  0
  1 13  1  0  0  0  0
  4  5  1  0  0  0  0
  4 10  1  0  0  0  0
  5  1  1  0  0  0  0
  6 11  1  0  0  0  0
  6  5  2  0  0  0  0
  7  6  1  0  0  0  0
  8  7  2  0  0  0  0
  8  9  1  0  0  0  0
  9  4  2  0  0  0  0
 12  8  1  0  0  0  0
 13 14  1  0  0  0  0
 14 15  2  0  0  0  0
 14 21  1  0  0  0  0
 15 17  1  0  0  0  0
 16 15  1  0  0  0  0
 17 18  1  0  0  0  0
 17 19  2  0  0  0  0
 20 19  1  0  0  0  0
 21 20  2  0  0  0  0
M  END
>  <minimizedAffinity>
-3.88425851

$$$$

 OpenBabel03252504273D

 21 22  0  0  0  0  0  0  0  0999 V2000
   36.2510   30.4440   41.0240 C   0  0  0  0  0  0  0  0  0  0  0  0
   35.1910   30.2450   40.7560 H   0  0  0  0  0  0  0  0  0  0  0  0
   36.1970   31.3320   41.7100 H   0  0  0  0  0  0  0  0  0  0  0  0
   36.5230   28.0500   41.1420 C   0  0  0  0  0  0  0  0  0  0  0  0
   36.8470   29.2850   41.6950 C   0  0  0  0  0  0  0  0  0  0  0  0
   37.6790   29.2870   42.7970 C   0  0  0  0  0  0  0  0  0  0  0  0
   38.1180   28.1170   43.2610 N   0  0  0  0  0  0  0  0  0  0  0  0
   37.8000   26.9240   42.7200 C   0  0  0  0  0  0  0  0  0  0  0  0
   36.9810   26.8540   41.6290 N   0  0  0  0  0  0  0  0  0  0  0  0
   35.8750   27.9320   40.2720 H   0  0  0  0  0  0  0  0  0  0  0  0
   37.9110   30.2470   43.2020 H   0  0  0  0  0  0  0  0  0  0  0  0
   38.2690   26.0970   43.2580 H   0  0  0  0  0  0  0  0  0  0  0  0
   36.9370   30.8460   39.8890 O   0  0  0  0  0  0  0  0  0  0  0  0
   37.9690   31.7620   39.9890 C   0  0  0  0  0  0  0  0  0  0  0  0
   37.4700   33.0650   39.9350 C   0  0  0  0  0  0  0  0  0  0  0  0
   36.4200   33.3650   39.8280 H   0  0  0  0  0  0  0  0  0  0  0  0
   38.3320   34.1600   40.0180 C   0  0  0  0  0  0  0  0  0  0  0  0
   37.9970   35.1890   39.9800 H   0  0  0  0  0  0  0  0  0  0  0  0
   39.6780   33.9170   40.1540 C   0  0  0  0  0  3  0  0  0  0  0  0
   40.1340   32.5940   40.2050 C   0  0  0  0  0  3  0  0  0  0  0  0
   39.2800   31.5660   40.1220 N   0  0  0  0  0  0  0  0  0  0  0  0
  1  5  1  0  0  0  0
  1  3  1  0  0  0  0
  2  1  1  0  0  0  0
  4  9  2  0  0  0  0
  4  5  1  0  0  0  0
  5  6  2  0  0  0  0
  6 11  1  0  0  0  0
  6  7  1  0  0  0  0
  8 12  1  0  0  0  0
  8  7  2  0  0  0  0
  9  8  1  0  0  0  0
 10  4  1  0  0  0  0
 13 14  1  0  0  0  0
 13  1  1  0  0  0  0
 14 21  1  0  0  0  0
 15 14  2  0  0  0  0
 15 17  1  0  0  0  0
 16 15  1  0  0  0  0
 17 19  2  0  0  0  0
 18 17  1  0  0  0  0
 19 20  1  0  0  0  0
 21 20  2  0  0  0  0
M  END
>  <minimizedAffinity>
-3.86478662

$$$$
