
 OpenBabel03252504173D

 37 39  0  0  0  0  0  0  0  0999 V2000
   47.7750   30.0740   44.9210 F   0  0  0  0  0  0  0  0  0  0  0  0
   47.5790   30.8260   46.0470 C   0  0  0  0  0  0  0  0  0  0  0  0
   46.9570   32.0430   45.9700 C   0  0  0  0  0  0  0  0  0  0  0  0
   46.7990   32.7380   47.1630 C   0  0  0  0  0  0  0  0  0  0  0  0
   47.2470   32.2200   48.3540 C   0  0  0  0  0  0  0  0  0  0  0  0
   47.8690   30.9850   48.3740 C   0  0  0  0  0  0  0  0  0  0  0  0
   48.0510   30.2470   47.2000 C   0  0  0  0  0  0  0  0  0  0  0  0
   46.3200   33.6960   47.1750 H   0  0  0  0  0  0  0  0  0  0  0  0
   47.1200   32.7670   49.2780 H   0  0  0  0  0  0  0  0  0  0  0  0
   48.2370   30.5470   49.3110 H   0  0  0  0  0  0  0  0  0  0  0  0
   46.8060   34.1230   42.9660 C   0  0  0  0  0  0  0  0  0  0  0  0
   45.6670   33.6500   42.2970 C   0  0  0  0  0  0  0  0  0  0  0  0
   44.9590   32.6080   42.9000 C   0  0  0  0  0  0  0  0  0  0  0  0
   45.3730   32.0930   44.0780 N   0  0  0  0  0  0  0  0  0  0  0  0
   46.4830   32.5800   44.6940 C   0  0  0  0  0  0  0  0  0  0  0  0
   47.1950   33.5860   44.1450 N   0  0  0  0  0  0  0  0  0  0  0  0
   44.0910   32.2550   42.3790 H   0  0  0  0  0  0  0  0  0  0  0  0
   45.2900   34.2670   41.0220 C   0  0  0  0  0  0  0  0  0  0  0  0
   44.9630   35.5930   41.2070 F   0  0  0  0  0  0  0  0  0  0  0  0
   46.4040   34.2290   40.1670 F   0  0  0  0  0  0  0  0  0  0  0  0
   44.2540   33.6740   40.3910 F   0  0  0  0  0  0  0  0  0  0  0  0
   47.4970   35.1300   42.3920 O   0  0  0  0  0  0  0  0  0  0  0  0
   48.8290   35.0730   41.9090 C   0  0  0  0  0  0  0  0  0  0  0  0
   49.6670   35.3380   42.9800 F   0  0  0  0  0  0  0  0  0  0  0  0
   49.0630   33.8600   41.3390 F   0  0  0  0  0  0  0  0  0  0  0  0
   49.0350   36.1240   41.0370 F   0  0  0  0  0  0  0  0  0  0  0  0
   48.7090   28.9140   47.2250 C   0  0  0  0  0  0  0  0  0  0  0  0
   47.9680   28.1230   47.4030 H   0  0  0  0  0  0  0  0  0  0  0  0
   49.0550   28.7670   46.1590 H   0  0  0  0  0  0  0  0  0  0  0  0
   49.8770   28.8580   48.1060 C   0  0  0  0  0  0  0  0  0  0  0  0
   51.0610   29.4690   47.7330 C   0  0  0  0  0  0  0  0  0  0  0  0
   51.1430   29.9980   46.7770 H   0  0  0  0  0  0  0  0  0  0  0  0
   52.1530   29.4080   48.5780 C   0  0  0  0  0  0  0  0  0  0  0  0
   53.1060   29.8780   48.3170 H   0  0  0  0  0  0  0  0  0  0  0  0
   52.0640   28.7370   49.7970 C   0  0  0  0  0  0  0  0  0  0  0  0
   50.8510   28.1320   50.1420 C   0  0  0  0  0  0  0  0  0  0  0  0
   49.8100   28.2100   49.2980 N   0  0  0  0  0  0  0  0  0  0  0  0
  1  2  1  0  0  0  0
  2  7  1  0  0  0  0
  3  2  2  0  0  0  0
  3  4  1  0  0  0  0
  4  8  1  0  0  0  0
  4  5  2  0  0  0  0
  5  6  1  0  0  0  0
  5  9  1  0  0  0  0
  6 10  1  0  0  0  0
  7 27  1  0  0  0  0
  7  6  2  0  0  0  0
 11 16  1  0  0  0  0
 12 13  1  0  0  0  0
 12 11  2  0  0  0  0
 13 14  2  0  0  0  0
 14 15  1  0  0  0  0
 15  3  1  0  0  0  0
 16 15  2  0  0  0  0
 17 13  1  0  0  0  0
 18 19  1  0  0  0  0
 18 12  1  0  0  0  0
 20 18  1  0  0  0  0
 21 18  1  0  0  0  0
 22 11  1  0  0  0  0
 23 22  1  0  0  0  0
 23 24  1  0  0  0  0
 25 23  1  0  0  0  0
 26 23  1  0  0  0  0
 27 28  1  0  0  0  0
 27 30  1  0  0  0  0
 29 27  1  0  0  0  0
 30 37  1  0  0  0  0
 31 30  2  0  0  0  0
 31 33  1  0  0  0  0
 32 31  1  0  0  0  0
 33 35  2  0  0  0  0
 34 33  1  0  0  0  0
 35 36  1  0  0  0  0
 37 36  2  0  0  0  0
M  END
>  <minimizedAffinity>
-5.73010302

>  <minimizedRMSD>
1.51802206

$$$$
