
 OpenBabel03242520333D

 27 29  0  0  1  0  0  0  0  0999 V2000
   46.0390   33.1310   42.7730 C   0  0  0  0  0  0  0  0  0  0  0  0
   47.3160   32.7290   42.2600 C   0  0  0  0  0  0  0  0  0  0  0  0
   48.1200   31.9810   43.0990 C   0  0  0  0  0  0  0  0  0  0  0  0
   47.6620   31.6720   44.3450 N   0  0  0  0  0  0  0  0  0  0  0  0
   46.4610   32.0640   44.7950 C   0  0  0  0  0  0  0  0  0  0  0  0
   45.6560   32.7950   43.9940 N   0  0  0  0  0  0  0  0  0  0  0  0
   45.3900   33.7180   42.1350 H   0  0  0  0  0  0  0  0  0  0  0  0
   49.0940   31.6390   42.7870 H   0  0  0  0  0  0  0  0  0  0  0  0
   45.9680   31.7350   46.1270 C   0  0  0  0  0  0  0  0  0  0  0  0
   45.8600   32.7740   47.0410 C   0  0  0  0  0  0  0  0  0  0  0  0
   46.1120   33.8200   46.8520 H   0  0  0  0  0  0  0  0  0  0  0  0
   45.4010   32.4950   48.2990 C   0  0  0  0  0  0  0  0  0  0  0  0
   45.2870   33.2580   49.0760 H   0  0  0  0  0  0  0  0  0  0  0  0
   45.0500   31.1930   48.6500 C   0  0  0  0  0  0  0  0  0  0  0  0
   45.1680   30.1980   47.7320 C   0  0  0  0  0  0  0  0  0  0  0  0
   45.6240   30.4870   46.4870 N   0  0  0  0  0  0  0  0  0  0  0  0
   47.7630   33.1060   40.9030 C   0  0  1  0  0  0  0  0  0  0  0  0
   47.0900   34.1540   40.1650 C   0  0  0  0  0  0  0  0  0  0  0  0
   48.4300   34.4660   40.7210 C   0  0  1  0  0  0  0  0  0  0  0  0
   48.2460   32.2670   40.3210 H   0  0  0  0  0  0  0  0  0  0  0  0
   46.2370   34.6730   40.6920 H   0  0  0  0  0  0  0  0  0  0  0  0
   46.9040   34.1230   39.0720 H   0  0  0  0  0  0  0  0  0  0  0  0
   49.2260   34.5510   39.9490 H   0  0  0  0  0  0  0  0  0  0  0  0
   48.5960   35.3840   41.8780 C   0  0  0  0  0  0  0  0  0  0  0  0
   49.2930   36.5310   41.5420 F   0  0  0  0  0  0  0  0  0  0  0  0
   49.2410   34.7580   42.9460 F   0  0  0  0  0  0  0  0  0  0  0  0
   47.3440   35.7840   42.2860 F   0  0  0  0  0  0  0  0  0  0  0  0
  1  6  1  0  0  0  0
  2  1  2  0  0  0  0
  2  3  1  0  0  0  0
  3  4  2  0  0  0  0
  4  5  1  0  0  0  0
  5  9  1  0  0  0  0
  6  5  2  0  0  0  0
  7  1  1  0  0  0  0
  8  3  1  0  0  0  0
  9 16  2  0  0  0  0
  9 10  1  0  0  0  0
 10 12  2  0  0  0  0
 11 10  1  0  0  0  0
 12 14  1  0  0  0  0
 12 13  1  0  0  0  0
 15 14  2  0  0  0  0
 16 15  1  0  0  0  0
 17 20  1  6  0  0  0
 17  2  1  0  0  0  0
 18 21  1  0  0  0  0
 18 19  1  0  0  0  0
 18 17  1  0  0  0  0
 19 23  1  6  0  0  0
 19 17  1  0  0  0  0
 19 24  1  0  0  0  0
 22 18  1  0  0  0  0
 24 27  1  0  0  0  0
 24 26  1  0  0  0  0
 25 24  1  0  0  0  0
M  END
>  <minimizedAffinity>
-5.36207771

>  <minimizedRMSD>
2.0997231

$$$$
