
 OpenBabel03252504193D

 37 39  0  0  0  0  0  0  0  0999 V2000
   33.2780   28.4940   38.1250 F   0  0  0  0  0  0  0  0  0  0  0  0
   34.2560   28.7770   37.2120 C   0  0  0  0  0  0  0  0  0  0  0  0
   35.5670   28.8530   37.5980 C   0  0  0  0  0  0  0  0  0  0  0  0
   36.4940   29.1450   36.6040 C   0  0  0  0  0  0  0  0  0  0  0  0
   36.1020   29.3430   35.3020 C   0  0  0  0  0  0  0  0  0  0  0  0
   34.7640   29.2540   34.9670 C   0  0  0  0  0  0  0  0  0  0  0  0
   33.7940   28.9630   35.9310 C   0  0  0  0  0  0  0  0  0  0  0  0
   37.5370   29.2180   36.8370 H   0  0  0  0  0  0  0  0  0  0  0  0
   36.8300   29.5700   34.5350 H   0  0  0  0  0  0  0  0  0  0  0  0
   34.4240   29.4090   33.9350 H   0  0  0  0  0  0  0  0  0  0  0  0
   36.9270   27.1900   40.5580 C   0  0  0  0  0  0  0  0  0  0  0  0
   36.7520   28.1390   41.5760 C   0  0  0  0  0  0  0  0  0  0  0  0
   36.1610   29.3540   41.2220 C   0  0  0  0  0  0  0  0  0  0  0  0
   35.7800   29.5830   39.9470 N   0  0  0  0  0  0  0  0  0  0  0  0
   35.9670   28.6360   38.9890 C   0  0  0  0  0  0  0  0  0  0  0  0
   36.5350   27.4490   39.2890 N   0  0  0  0  0  0  0  0  0  0  0  0
   36.0330   30.0710   42.0090 H   0  0  0  0  0  0  0  0  0  0  0  0
   37.1940   27.8070   42.9340 C   0  0  0  0  0  0  0  0  0  0  0  0
   37.3610   28.9530   43.6800 F   0  0  0  0  0  0  0  0  0  0  0  0
   36.1830   27.0520   43.5540 F   0  0  0  0  0  0  0  0  0  0  0  0
   38.3450   27.1040   42.9990 F   0  0  0  0  0  0  0  0  0  0  0  0
   37.4970   26.0130   40.8890 O   0  0  0  0  0  0  0  0  0  0  0  0
   36.8640   24.7440   40.9100 C   0  0  0  0  0  0  0  0  0  0  0  0
   36.3740   24.5490   42.1920 F   0  0  0  0  0  0  0  0  0  0  0  0
   35.8930   24.6950   39.9580 F   0  0  0  0  0  0  0  0  0  0  0  0
   37.8220   23.7620   40.7510 F   0  0  0  0  0  0  0  0  0  0  0  0
   32.3570   28.8560   35.5660 C   0  0  0  0  0  0  0  0  0  0  0  0
   32.2420   28.3470   34.6000 H   0  0  0  0  0  0  0  0  0  0  0  0
   31.9390   28.1390   36.3340 H   0  0  0  0  0  0  0  0  0  0  0  0
   31.6340   30.1250   35.6710 C   0  0  0  0  0  0  0  0  0  0  0  0
   31.6530   31.0260   34.6210 C   0  0  0  0  0  0  0  0  0  0  0  0
   32.2070   30.8060   33.7020 H   0  0  0  0  0  0  0  0  0  0  0  0
   30.9640   32.2190   34.7360 C   0  0  0  0  0  0  0  0  0  0  0  0
   30.9560   32.9550   33.9270 H   0  0  0  0  0  0  0  0  0  0  0  0
   30.2560   32.5140   35.9000 C   0  0  0  0  0  3  0  0  0  0  0  0
   30.2580   31.5790   36.9420 C   0  0  0  0  0  3  0  0  0  0  0  0
   30.9390   30.4310   36.7970 N   0  0  0  0  0  0  0  0  0  0  0  0
  2  3  1  0  0  0  0
  2  1  1  0  0  0  0
  3 15  1  0  0  0  0
  4  8  1  0  0  0  0
  4  3  2  0  0  0  0
  5  4  1  0  0  0  0
  6  5  2  0  0  0  0
  6  7  1  0  0  0  0
  7  2  2  0  0  0  0
  9  5  1  0  0  0  0
 10  6  1  0  0  0  0
 11 22  1  0  0  0  0
 11 12  1  0  0  0  0
 12 18  1  0  0  0  0
 13 12  2  0  0  0  0
 13 17  1  0  0  0  0
 14 13  1  0  0  0  0
 15 16  1  0  0  0  0
 15 14  2  0  0  0  0
 16 11  2  0  0  0  0
 18 21  1  0  0  0  0
 18 20  1  0  0  0  0
 18 19  1  0  0  0  0
 22 23  1  0  0  0  0
 23 24  1  0  0  0  0
 25 23  1  0  0  0  0
 26 23  1  0  0  0  0
 27 30  1  0  0  0  0
 27  7  1  0  0  0  0
 27 29  1  0  0  0  0
 28 27  1  0  0  0  0
 30 37  1  0  0  0  0
 31 33  1  0  0  0  0
 31 30  2  0  0  0  0
 32 31  1  0  0  0  0
 33 35  2  0  0  0  0
 34 33  1  0  0  0  0
 35 36  1  0  0  0  0
 37 36  2  0  0  0  0
M  END
>  <minimizedAffinity>
-6.61203098

$$$$

 OpenBabel03252504193D

 37 39  0  0  0  0  0  0  0  0999 V2000
   33.8520   28.9080   38.8430 F   0  0  0  0  0  0  0  0  0  0  0  0
   34.5600   29.0940   37.6870 C   0  0  0  0  0  0  0  0  0  0  0  0
   35.9000   29.3700   37.7290 C   0  0  0  0  0  0  0  0  0  0  0  0
   36.5380   29.5430   36.5070 C   0  0  0  0  0  0  0  0  0  0  0  0
   35.8500   29.4380   35.3220 C   0  0  0  0  0  0  0  0  0  0  0  0
   34.4970   29.1560   35.3380 C   0  0  0  0  0  0  0  0  0  0  0  0
   33.8090   28.9740   36.5420 C   0  0  0  0  0  0  0  0  0  0  0  0
   37.5870   29.7600   36.4670 H   0  0  0  0  0  0  0  0  0  0  0  0
   36.3550   29.5730   34.3750 H   0  0  0  0  0  0  0  0  0  0  0  0
   33.9220   29.0670   34.4070 H   0  0  0  0  0  0  0  0  0  0  0  0
   37.7170   28.3610   40.7380 C   0  0  0  0  0  0  0  0  0  0  0  0
   37.9790   29.5770   41.3850 C   0  0  0  0  0  0  0  0  0  0  0  0
   37.5200   30.7420   40.7670 C   0  0  0  0  0  0  0  0  0  0  0  0
   36.8530   30.6760   39.5940 N   0  0  0  0  0  0  0  0  0  0  0  0
   36.6180   29.4760   38.9990 C   0  0  0  0  0  0  0  0  0  0  0  0
   37.0450   28.3270   39.5640 N   0  0  0  0  0  0  0  0  0  0  0  0
   37.7260   31.6660   41.2710 H   0  0  0  0  0  0  0  0  0  0  0  0
   38.7100   29.5570   42.6560 C   0  0  0  0  0  0  0  0  0  0  0  0
   39.2100   30.8080   42.9440 F   0  0  0  0  0  0  0  0  0  0  0  0
   37.8050   29.2260   43.6800 F   0  0  0  0  0  0  0  0  0  0  0  0
   39.7380   28.6840   42.7040 F   0  0  0  0  0  0  0  0  0  0  0  0
   38.1550   27.2300   41.3270 O   0  0  0  0  0  0  0  0  0  0  0  0
   37.3590   26.2470   41.9690 C   0  0  0  0  0  0  0  0  0  0  0  0
   36.4010   26.9170   42.7140 F   0  0  0  0  0  0  0  0  0  0  0  0
   36.8200   25.4100   41.0420 F   0  0  0  0  0  0  0  0  0  0  0  0
   38.1290   25.5870   42.9060 F   0  0  0  0  0  0  0  0  0  0  0  0
   32.3560   28.6600   36.5560 C   0  0  0  0  0  0  0  0  0  0  0  0
   32.0910   28.0250   35.7010 H   0  0  0  0  0  0  0  0  0  0  0  0
   32.2340   28.0010   37.4680 H   0  0  0  0  0  0  0  0  0  0  0  0
   31.5070   29.8420   36.7180 C   0  0  0  0  0  0  0  0  0  0  0  0
   31.3800   30.7550   35.6860 C   0  0  0  0  0  0  0  0  0  0  0  0
   31.9110   30.6100   34.7390 H   0  0  0  0  0  0  0  0  0  0  0  0
   30.5730   31.8640   35.8560 C   0  0  0  0  0  0  0  0  0  0  0  0
   30.4490   32.6070   35.0620 H   0  0  0  0  0  0  0  0  0  0  0  0
   29.8920   32.0640   37.0550 C   0  0  0  0  0  3  0  0  0  0  0  0
   30.0440   31.1200   38.0770 C   0  0  0  0  0  3  0  0  0  0  0  0
   30.8360   30.0540   37.8800 N   0  0  0  0  0  0  0  0  0  0  0  0
  2  3  1  0  0  0  0
  2  1  1  0  0  0  0
  3 15  1  0  0  0  0
  4  3  2  0  0  0  0
  5  6  2  0  0  0  0
  5  4  1  0  0  0  0
  6  7  1  0  0  0  0
  7 27  1  0  0  0  0
  7  2  2  0  0  0  0
  8  4  1  0  0  0  0
  9  5  1  0  0  0  0
 10  6  1  0  0  0  0
 11 22  1  0  0  0  0
 11 12  1  0  0  0  0
 12 18  1  0  0  0  0
 13 17  1  0  0  0  0
 13 12  2  0  0  0  0
 14 13  1  0  0  0  0
 15 16  1  0  0  0  0
 15 14  2  0  0  0  0
 16 11  2  0  0  0  0
 18 21  1  0  0  0  0
 18 19  1  0  0  0  0
 18 20  1  0  0  0  0
 22 23  1  0  0  0  0
 23 24  1  0  0  0  0
 23 26  1  0  0  0  0
 25 23  1  0  0  0  0
 27 30  1  0  0  0  0
 27 29  1  0  0  0  0
 28 27  1  0  0  0  0
 30 37  1  0  0  0  0
 31 33  1  0  0  0  0
 31 30  2  0  0  0  0
 32 31  1  0  0  0  0
 33 35  2  0  0  0  0
 34 33  1  0  0  0  0
 35 36  1  0  0  0  0
 37 36  2  0  0  0  0
M  END
>  <minimizedAffinity>
-6.51938963

$$$$

 OpenBabel03252504193D

 37 39  0  0  0  0  0  0  0  0999 V2000
   33.5660   27.7310   37.4950 F   0  0  0  0  0  0  0  0  0  0  0  0
   34.5550   28.3600   36.7890 C   0  0  0  0  0  0  0  0  0  0  0  0
   35.8280   28.4280   37.2860 C   0  0  0  0  0  0  0  0  0  0  0  0
   36.7690   29.0860   36.5020 C   0  0  0  0  0  0  0  0  0  0  0  0
   36.4260   29.6350   35.2900 C   0  0  0  0  0  0  0  0  0  0  0  0
   35.1240   29.5370   34.8350 C   0  0  0  0  0  0  0  0  0  0  0  0
   34.1420   28.8860   35.5870 C   0  0  0  0  0  0  0  0  0  0  0  0
   37.7850   29.1750   36.8300 H   0  0  0  0  0  0  0  0  0  0  0  0
   37.1650   30.1450   34.6860 H   0  0  0  0  0  0  0  0  0  0  0  0
   34.8240   29.9680   33.8720 H   0  0  0  0  0  0  0  0  0  0  0  0
   36.7500   28.1930   40.8170 C   0  0  0  0  0  0  0  0  0  0  0  0
   36.8390   26.8100   41.0400 C   0  0  0  0  0  0  0  0  0  0  0  0
   36.5770   25.9700   39.9560 C   0  0  0  0  0  0  0  0  0  0  0  0
   36.2530   26.4890   38.7520 N   0  0  0  0  0  0  0  0  0  0  0  0
   36.1770   27.8350   38.5770 C   0  0  0  0  0  0  0  0  0  0  0  0
   36.4230   28.6820   39.5990 N   0  0  0  0  0  0  0  0  0  0  0  0
   36.6480   24.9160   40.1390 H   0  0  0  0  0  0  0  0  0  0  0  0
   37.1970   26.3330   42.3800 C   0  0  0  0  0  0  0  0  0  0  0  0
   36.3360   26.8510   43.3220 F   0  0  0  0  0  0  0  0  0  0  0  0
   37.0480   24.9360   42.4040 F   0  0  0  0  0  0  0  0  0  0  0  0
   38.4560   26.6300   42.7680 F   0  0  0  0  0  0  0  0  0  0  0  0
   37.0020   29.0130   41.8570 O   0  0  0  0  0  0  0  0  0  0  0  0
   38.1470   29.8310   42.0310 C   0  0  0  0  0  0  0  0  0  0  0  0
   39.2070   29.1930   41.4060 F   0  0  0  0  0  0  0  0  0  0  0  0
   37.9080   31.0740   41.5310 F   0  0  0  0  0  0  0  0  0  0  0  0
   38.4900   29.8470   43.3680 F   0  0  0  0  0  0  0  0  0  0  0  0
   32.7450   28.7710   35.0920 C   0  0  0  0  0  0  0  0  0  0  0  0
   32.7310   28.3590   34.0740 H   0  0  0  0  0  0  0  0  0  0  0  0
   32.2940   27.9670   35.7470 H   0  0  0  0  0  0  0  0  0  0  0  0
   31.9670   30.0000   35.2580 C   0  0  0  0  0  0  0  0  0  0  0  0
   31.3200   30.2590   36.4530 C   0  0  0  0  0  0  0  0  0  0  0  0
   31.3780   29.5510   37.2880 H   0  0  0  0  0  0  0  0  0  0  0  0
   30.5910   31.4240   36.5930 C   0  0  0  0  0  0  0  0  0  0  0  0
   30.0660   31.6620   37.5240 H   0  0  0  0  0  0  0  0  0  0  0  0
   30.5060   32.3330   35.5410 C   0  0  0  0  0  3  0  0  0  0  0  0
   31.1730   32.0400   34.3460 C   0  0  0  0  0  3  0  0  0  0  0  0
   31.8720   30.8980   34.2430 N   0  0  0  0  0  0  0  0  0  0  0  0
  2  3  1  0  0  0  0
  2  1  1  0  0  0  0
  3 15  1  0  0  0  0
  4  8  1  0  0  0  0
  4  3  2  0  0  0  0
  5  4  1  0  0  0  0
  6  5  2  0  0  0  0
  6  7  1  0  0  0  0
  7  2  2  0  0  0  0
  9  5  1  0  0  0  0
 10  6  1  0  0  0  0
 11 12  1  0  0  0  0
 11 22  1  0  0  0  0
 12 18  1  0  0  0  0
 13 17  1  0  0  0  0
 13 12  2  0  0  0  0
 14 13  1  0  0  0  0
 15 14  2  0  0  0  0
 15 16  1  0  0  0  0
 16 11  2  0  0  0  0
 18 20  1  0  0  0  0
 18 21  1  0  0  0  0
 18 19  1  0  0  0  0
 22 23  1  0  0  0  0
 23 26  1  0  0  0  0
 24 23  1  0  0  0  0
 25 23  1  0  0  0  0
 27 30  1  0  0  0  0
 27  7  1  0  0  0  0
 27 29  1  0  0  0  0
 28 27  1  0  0  0  0
 30 31  1  0  0  0  0
 31 33  2  0  0  0  0
 31 32  1  0  0  0  0
 33 34  1  0  0  0  0
 35 33  1  0  0  0  0
 36 35  2  0  0  0  0
 37 36  1  0  0  0  0
 37 30  2  0  0  0  0
M  END
>  <minimizedAffinity>
-6.15599108

$$$$

 OpenBabel03252504193D

 37 39  0  0  0  0  0  0  0  0999 V2000
   33.6620   28.7670   38.4720 F   0  0  0  0  0  0  0  0  0  0  0  0
   34.2640   29.0050   37.2660 C   0  0  0  0  0  0  0  0  0  0  0  0
   35.6090   29.2490   37.1970 C   0  0  0  0  0  0  0  0  0  0  0  0
   36.1350   29.4790   35.9310 C   0  0  0  0  0  0  0  0  0  0  0  0
   35.3370   29.4600   34.8130 C   0  0  0  0  0  0  0  0  0  0  0  0
   33.9840   29.2090   34.9410 C   0  0  0  0  0  0  0  0  0  0  0  0
   33.4060   28.9710   36.1920 C   0  0  0  0  0  0  0  0  0  0  0  0
   37.1810   29.6760   35.8050 H   0  0  0  0  0  0  0  0  0  0  0  0
   35.7550   29.6410   33.8320 H   0  0  0  0  0  0  0  0  0  0  0  0
   33.3230   29.1880   34.0650 H   0  0  0  0  0  0  0  0  0  0  0  0
   37.3470   30.5180   40.1540 C   0  0  0  0  0  0  0  0  0  0  0  0
   37.9990   29.3840   40.6610 C   0  0  0  0  0  0  0  0  0  0  0  0
   37.8270   28.1840   39.9680 C   0  0  0  0  0  0  0  0  0  0  0  0
   37.0610   28.1410   38.8570 N   0  0  0  0  0  0  0  0  0  0  0  0
   36.4460   29.2630   38.3970 C   0  0  0  0  0  0  0  0  0  0  0  0
   36.5860   30.4420   39.0380 N   0  0  0  0  0  0  0  0  0  0  0  0
   38.3300   27.3240   40.3660 H   0  0  0  0  0  0  0  0  0  0  0  0
   38.8120   29.5210   41.8740 C   0  0  0  0  0  0  0  0  0  0  0  0
   39.7620   30.5050   41.7080 F   0  0  0  0  0  0  0  0  0  0  0  0
   37.9710   29.9270   42.9250 F   0  0  0  0  0  0  0  0  0  0  0  0
   39.4510   28.3950   42.2570 F   0  0  0  0  0  0  0  0  0  0  0  0
   37.5070   31.6820   40.8160 O   0  0  0  0  0  0  0  0  0  0  0  0
   38.0890   32.8710   40.3070 C   0  0  0  0  0  0  0  0  0  0  0  0
   37.0770   33.5970   39.6990 F   0  0  0  0  0  0  0  0  0  0  0  0
   38.7010   33.5530   41.3130 F   0  0  0  0  0  0  0  0  0  0  0  0
   38.9500   32.5450   39.2780 F   0  0  0  0  0  0  0  0  0  0  0  0
   31.9530   28.6890   36.3270 C   0  0  0  0  0  0  0  0  0  0  0  0
   31.5690   28.2080   35.4170 H   0  0  0  0  0  0  0  0  0  0  0  0
   31.9080   27.8920   37.1280 H   0  0  0  0  0  0  0  0  0  0  0  0
   31.1750   29.8450   36.7750 C   0  0  0  0  0  0  0  0  0  0  0  0
   31.0590   30.9620   35.9660 C   0  0  0  0  0  0  0  0  0  0  0  0
   31.5450   30.9990   34.9850 H   0  0  0  0  0  0  0  0  0  0  0  0
   30.3190   32.0440   36.4050 C   0  0  0  0  0  0  0  0  0  0  0  0
   30.2050   32.9440   35.7930 H   0  0  0  0  0  0  0  0  0  0  0  0
   29.6950   32.0140   37.6500 C   0  0  0  0  0  3  0  0  0  0  0  0
   29.8340   30.8680   38.4420 C   0  0  0  0  0  3  0  0  0  0  0  0
   30.5600   29.8340   37.9860 N   0  0  0  0  0  0  0  0  0  0  0  0
  2  1  1  0  0  0  0
  3  2  1  0  0  0  0
  3 15  1  0  0  0  0
  4  3  2  0  0  0  0
  5  6  2  0  0  0  0
  5  4  1  0  0  0  0
  6  7  1  0  0  0  0
  7 27  1  0  0  0  0
  7  2  2  0  0  0  0
  8  4  1  0  0  0  0
  9  5  1  0  0  0  0
 10  6  1  0  0  0  0
 11 12  1  0  0  0  0
 11 22  1  0  0  0  0
 12 18  1  0  0  0  0
 13 17  1  0  0  0  0
 13 12  2  0  0  0  0
 14 13  1  0  0  0  0
 15 14  2  0  0  0  0
 15 16  1  0  0  0  0
 16 11  2  0  0  0  0
 18 21  1  0  0  0  0
 18 20  1  0  0  0  0
 19 18  1  0  0  0  0
 23 22  1  0  0  0  0
 23 25  1  0  0  0  0
 24 23  1  0  0  0  0
 26 23  1  0  0  0  0
 27 30  1  0  0  0  0
 27 29  1  0  0  0  0
 28 27  1  0  0  0  0
 30 37  1  0  0  0  0
 31 33  1  0  0  0  0
 31 30  2  0  0  0  0
 32 31  1  0  0  0  0
 33 35  2  0  0  0  0
 34 33  1  0  0  0  0
 35 36  1  0  0  0  0
 37 36  2  0  0  0  0
M  END
>  <minimizedAffinity>
-6.12654972

$$$$

 OpenBabel03252504193D

 37 39  0  0  0  0  0  0  0  0999 V2000
   37.9860   30.3400   41.0470 F   0  0  0  0  0  0  0  0  0  0  0  0
   37.7350   30.5000   39.7110 C   0  0  0  0  0  0  0  0  0  0  0  0
   37.3530   29.4330   38.9430 C   0  0  0  0  0  0  0  0  0  0  0  0
   37.1190   29.6870   37.5970 C   0  0  0  0  0  0  0  0  0  0  0  0
   37.2660   30.9490   37.0740 C   0  0  0  0  0  0  0  0  0  0  0  0
   37.6540   31.9910   37.8960 C   0  0  0  0  0  0  0  0  0  0  0  0
   37.9010   31.7870   39.2560 C   0  0  0  0  0  0  0  0  0  0  0  0
   36.8160   28.8970   36.9390 H   0  0  0  0  0  0  0  0  0  0  0  0
   37.0810   31.1380   36.0250 H   0  0  0  0  0  0  0  0  0  0  0  0
   37.7790   33.0080   37.5040 H   0  0  0  0  0  0  0  0  0  0  0  0
   37.5780   26.6800   41.3400 C   0  0  0  0  0  0  0  0  0  0  0  0
   36.9540   25.6150   40.6740 C   0  0  0  0  0  0  0  0  0  0  0  0
   36.4590   25.8650   39.3930 C   0  0  0  0  0  0  0  0  0  0  0  0
   36.5870   27.0890   38.8370 N   0  0  0  0  0  0  0  0  0  0  0  0
   37.1990   28.0960   39.5170 C   0  0  0  0  0  0  0  0  0  0  0  0
   37.6910   27.8960   40.7570 N   0  0  0  0  0  0  0  0  0  0  0  0
   35.9830   25.0430   38.8940 H   0  0  0  0  0  0  0  0  0  0  0  0
   36.8580   24.3180   41.3520 C   0  0  0  0  0  0  0  0  0  0  0  0
   36.3790   24.4780   42.6330 F   0  0  0  0  0  0  0  0  0  0  0  0
   35.9280   23.5250   40.6560 F   0  0  0  0  0  0  0  0  0  0  0  0
   38.0190   23.6340   41.4300 F   0  0  0  0  0  0  0  0  0  0  0  0
   38.0600   26.4490   42.5780 O   0  0  0  0  0  0  0  0  0  0  0  0
   39.4260   26.3980   42.9580 C   0  0  0  0  0  0  0  0  0  0  0  0
   40.1690   26.2390   41.7990 F   0  0  0  0  0  0  0  0  0  0  0  0
   39.7560   27.5220   43.6500 F   0  0  0  0  0  0  0  0  0  0  0  0
   39.6490   25.2400   43.6760 F   0  0  0  0  0  0  0  0  0  0  0  0
   38.3070   32.9110   40.1410 C   0  0  0  0  0  0  0  0  0  0  0  0
   37.7670   33.8270   39.8690 H   0  0  0  0  0  0  0  0  0  0  0  0
   37.9030   32.6130   41.1540 H   0  0  0  0  0  0  0  0  0  0  0  0
   39.7580   33.0720   40.2470 C   0  0  0  0  0  0  0  0  0  0  0  0
   40.4120   34.0200   39.4800 C   0  0  0  0  0  0  0  0  0  0  0  0
   39.8570   34.6590   38.7840 H   0  0  0  0  0  0  0  0  0  0  0  0
   41.7820   34.1600   39.5940 C   0  0  0  0  0  0  0  0  0  0  0  0
   42.3330   34.8980   39.0030 H   0  0  0  0  0  0  0  0  0  0  0  0
   42.5020   33.3540   40.4730 C   0  0  0  0  0  3  0  0  0  0  0  0
   41.8090   32.4050   41.2340 C   0  0  0  0  0  3  0  0  0  0  0  0
   40.4770   32.2950   41.0980 N   0  0  0  0  0  0  0  0  0  0  0  0
  2  1  1  0  0  0  0
  3 15  1  0  0  0  0
  3  2  2  0  0  0  0
  4  3  1  0  0  0  0
  5  4  2  0  0  0  0
  5  6  1  0  0  0  0
  6  7  2  0  0  0  0
  7  2  1  0  0  0  0
  7 27  1  0  0  0  0
  8  4  1  0  0  0  0
  9  5  1  0  0  0  0
 10  6  1  0  0  0  0
 11 22  1  0  0  0  0
 12 11  2  0  0  0  0
 12 18  1  0  0  0  0
 13 12  1  0  0  0  0
 14 13  2  0  0  0  0
 14 15  1  0  0  0  0
 15 16  2  0  0  0  0
 16 11  1  0  0  0  0
 17 13  1  0  0  0  0
 18 21  1  0  0  0  0
 18 19  1  0  0  0  0
 20 18  1  0  0  0  0
 22 23  1  0  0  0  0
 23 25  1  0  0  0  0
 23 26  1  0  0  0  0
 24 23  1  0  0  0  0
 27 30  1  0  0  0  0
 27 29  1  0  0  0  0
 28 27  1  0  0  0  0
 30 37  1  0  0  0  0
 31 33  1  0  0  0  0
 31 30  2  0  0  0  0
 32 31  1  0  0  0  0
 33 35  2  0  0  0  0
 34 33  1  0  0  0  0
 35 36  1  0  0  0  0
 37 36  2  0  0  0  0
M  END
>  <minimizedAffinity>
-5.96705055

$$$$

 OpenBabel03252504193D

 37 39  0  0  0  0  0  0  0  0999 V2000
   33.5600   27.0660   37.1570 F   0  0  0  0  0  0  0  0  0  0  0  0
   34.5260   27.8800   36.6320 C   0  0  0  0  0  0  0  0  0  0  0  0
   35.7940   27.8760   37.1470 C   0  0  0  0  0  0  0  0  0  0  0  0
   36.7110   28.7340   36.5520 C   0  0  0  0  0  0  0  0  0  0  0  0
   36.3520   29.5410   35.5000 C   0  0  0  0  0  0  0  0  0  0  0  0
   35.0570   29.5050   35.0180 C   0  0  0  0  0  0  0  0  0  0  0  0
   34.0970   28.6590   35.5830 C   0  0  0  0  0  0  0  0  0  0  0  0
   37.7220   28.7800   36.9050 H   0  0  0  0  0  0  0  0  0  0  0  0
   37.0720   30.2060   35.0420 H   0  0  0  0  0  0  0  0  0  0  0  0
   34.7430   30.1400   34.1790 H   0  0  0  0  0  0  0  0  0  0  0  0
   37.1630   26.8290   40.3730 C   0  0  0  0  0  0  0  0  0  0  0  0
   36.8880   25.4540   40.4140 C   0  0  0  0  0  0  0  0  0  0  0  0
   36.2260   24.9020   39.3150 C   0  0  0  0  0  0  0  0  0  0  0  0
   35.8750   25.6780   38.2680 N   0  0  0  0  0  0  0  0  0  0  0  0
   36.1610   27.0080   38.2660 C   0  0  0  0  0  0  0  0  0  0  0  0
   36.7990   27.5810   39.3080 N   0  0  0  0  0  0  0  0  0  0  0  0
   36.0210   23.8500   39.3590 H   0  0  0  0  0  0  0  0  0  0  0  0
   37.3040   24.6860   41.5920 C   0  0  0  0  0  0  0  0  0  0  0  0
   36.4530   24.9240   42.6480 F   0  0  0  0  0  0  0  0  0  0  0  0
   37.2090   23.3180   41.2820 F   0  0  0  0  0  0  0  0  0  0  0  0
   38.5620   24.9360   42.0140 F   0  0  0  0  0  0  0  0  0  0  0  0
   37.8020   27.3730   41.4290 O   0  0  0  0  0  0  0  0  0  0  0  0
   37.2090   28.0960   42.4950 C   0  0  0  0  0  0  0  0  0  0  0  0
   37.6220   27.5010   43.6760 F   0  0  0  0  0  0  0  0  0  0  0  0
   37.5570   29.4090   42.4130 F   0  0  0  0  0  0  0  0  0  0  0  0
   35.8420   27.9010   42.4660 F   0  0  0  0  0  0  0  0  0  0  0  0
   32.7080   28.6130   35.0570 C   0  0  0  0  0  0  0  0  0  0  0  0
   32.7000   28.2440   34.0230 H   0  0  0  0  0  0  0  0  0  0  0  0
   32.2170   27.7990   35.6690 H   0  0  0  0  0  0  0  0  0  0  0  0
   31.9680   29.8600   35.2600 C   0  0  0  0  0  0  0  0  0  0  0  0
   31.3940   30.1380   36.4870 C   0  0  0  0  0  0  0  0  0  0  0  0
   31.4820   29.4330   37.3210 H   0  0  0  0  0  0  0  0  0  0  0  0
   30.7010   31.3210   36.6610 C   0  0  0  0  0  0  0  0  0  0  0  0
   30.2330   31.5740   37.6180 H   0  0  0  0  0  0  0  0  0  0  0  0
   30.5790   32.2280   35.6110 C   0  0  0  0  0  3  0  0  0  0  0  0
   31.1730   31.9150   34.3820 C   0  0  0  0  0  3  0  0  0  0  0  0
   31.8390   30.7570   34.2470 N   0  0  0  0  0  0  0  0  0  0  0  0
  2  3  1  0  0  0  0
  2  1  1  0  0  0  0
  3 15  1  0  0  0  0
  4  8  1  0  0  0  0
  4  3  2  0  0  0  0
  5  4  1  0  0  0  0
  6  5  2  0  0  0  0
  6  7  1  0  0  0  0
  7  2  2  0  0  0  0
  9  5  1  0  0  0  0
 10  6  1  0  0  0  0
 11 12  1  0  0  0  0
 11 22  1  0  0  0  0
 12 18  1  0  0  0  0
 13 17  1  0  0  0  0
 13 12  2  0  0  0  0
 14 13  1  0  0  0  0
 15 14  2  0  0  0  0
 15 16  1  0  0  0  0
 16 11  2  0  0  0  0
 18 21  1  0  0  0  0
 18 19  1  0  0  0  0
 20 18  1  0  0  0  0
 22 23  1  0  0  0  0
 23 24  1  0  0  0  0
 25 23  1  0  0  0  0
 26 23  1  0  0  0  0
 27 30  1  0  0  0  0
 27  7  1  0  0  0  0
 27 29  1  0  0  0  0
 28 27  1  0  0  0  0
 30 31  1  0  0  0  0
 31 33  2  0  0  0  0
 31 32  1  0  0  0  0
 33 34  1  0  0  0  0
 35 33  1  0  0  0  0
 36 35  2  0  0  0  0
 37 36  1  0  0  0  0
 37 30  2  0  0  0  0
M  END
>  <minimizedAffinity>
-5.9646697

$$$$

 OpenBabel03252504193D

 37 39  0  0  0  0  0  0  0  0999 V2000
   39.4540   29.6760   42.1860 F   0  0  0  0  0  0  0  0  0  0  0  0
   38.3010   29.7100   41.4500 C   0  0  0  0  0  0  0  0  0  0  0  0
   38.2400   30.4260   40.2860 C   0  0  0  0  0  0  0  0  0  0  0  0
   37.0300   30.4040   39.6030 C   0  0  0  0  0  0  0  0  0  0  0  0
   35.9550   29.6950   40.0830 C   0  0  0  0  0  0  0  0  0  0  0  0
   36.0710   28.9880   41.2650 C   0  0  0  0  0  0  0  0  0  0  0  0
   37.2680   28.9790   41.9880 C   0  0  0  0  0  0  0  0  0  0  0  0
   36.9140   30.9420   38.6840 H   0  0  0  0  0  0  0  0  0  0  0  0
   35.0160   29.6830   39.5450 H   0  0  0  0  0  0  0  0  0  0  0  0
   35.2290   28.4140   41.6710 H   0  0  0  0  0  0  0  0  0  0  0  0
   40.9840   31.4410   38.0910 C   0  0  0  0  0  0  0  0  0  0  0  0
   41.5660   32.5200   38.7730 C   0  0  0  0  0  0  0  0  0  0  0  0
   40.9970   32.8860   39.9940 C   0  0  0  0  0  0  0  0  0  0  0  0
   39.9300   32.2140   40.4800 N   0  0  0  0  0  0  0  0  0  0  0  0
   39.3950   31.1730   39.7870 C   0  0  0  0  0  0  0  0  0  0  0  0
   39.9150   30.7880   38.6030 N   0  0  0  0  0  0  0  0  0  0  0  0
   41.4500   33.7120   40.5060 H   0  0  0  0  0  0  0  0  0  0  0  0
   42.7220   33.1930   38.1730 C   0  0  0  0  0  0  0  0  0  0  0  0
   42.3520   33.8560   37.0240 F   0  0  0  0  0  0  0  0  0  0  0  0
   43.1880   34.1610   39.0800 F   0  0  0  0  0  0  0  0  0  0  0  0
   43.7530   32.3780   37.8620 F   0  0  0  0  0  0  0  0  0  0  0  0
   41.5260   31.0800   36.9100 O   0  0  0  0  0  0  0  0  0  0  0  0
   42.1490   29.8410   36.6100 C   0  0  0  0  0  0  0  0  0  0  0  0
   43.0400   29.5700   37.6350 F   0  0  0  0  0  0  0  0  0  0  0  0
   41.2040   28.8740   36.4580 F   0  0  0  0  0  0  0  0  0  0  0  0
   42.9420   29.9970   35.4900 F   0  0  0  0  0  0  0  0  0  0  0  0
   37.3950   28.2090   43.2540 C   0  0  0  0  0  0  0  0  0  0  0  0
   37.7910   28.8490   44.0540 H   0  0  0  0  0  0  0  0  0  0  0  0
   36.3240   27.9950   43.5450 H   0  0  0  0  0  0  0  0  0  0  0  0
   38.0990   26.9360   43.0920 C   0  0  0  0  0  0  0  0  0  0  0  0
   39.3360   26.7440   43.6800 C   0  0  0  0  0  0  0  0  0  0  0  0
   39.8070   27.5380   44.2700 H   0  0  0  0  0  0  0  0  0  0  0  0
   39.9860   25.5350   43.5180 C   0  0  0  0  0  0  0  0  0  0  0  0
   40.9660   25.3470   43.9670 H   0  0  0  0  0  0  0  0  0  0  0  0
   39.4010   24.5160   42.7690 C   0  0  0  0  0  3  0  0  0  0  0  0
   38.1480   24.7440   42.1880 C   0  0  0  0  0  3  0  0  0  0  0  0
   37.5450   25.9310   42.3650 N   0  0  0  0  0  0  0  0  0  0  0  0
  2  7  1  0  0  0  0
  2  1  1  0  0  0  0
  3  2  2  0  0  0  0
  4  5  2  0  0  0  0
  4  3  1  0  0  0  0
  5  6  1  0  0  0  0
  6 10  1  0  0  0  0
  6  7  2  0  0  0  0
  7 27  1  0  0  0  0
  8  4  1  0  0  0  0
  9  5  1  0  0  0  0
 11 16  2  0  0  0  0
 11 12  1  0  0  0  0
 12 13  2  0  0  0  0
 13 14  1  0  0  0  0
 13 17  1  0  0  0  0
 15  3  1  0  0  0  0
 15 14  2  0  0  0  0
 16 15  1  0  0  0  0
 18 12  1  0  0  0  0
 18 20  1  0  0  0  0
 19 18  1  0  0  0  0
 21 18  1  0  0  0  0
 22 11  1  0  0  0  0
 23 22  1  0  0  0  0
 23 24  1  0  0  0  0
 25 23  1  0  0  0  0
 26 23  1  0  0  0  0
 27 29  1  0  0  0  0
 27 28  1  0  0  0  0
 30 27  1  0  0  0  0
 30 31  1  0  0  0  0
 31 32  1  0  0  0  0
 33 31  2  0  0  0  0
 33 34  1  0  0  0  0
 35 33  1  0  0  0  0
 36 37  1  0  0  0  0
 36 35  2  0  0  0  0
 37 30  2  0  0  0  0
M  END
>  <minimizedAffinity>
-5.86783075

$$$$

 OpenBabel03252504193D

 37 39  0  0  0  0  0  0  0  0999 V2000
   36.9700   26.6490   38.6370 F   0  0  0  0  0  0  0  0  0  0  0  0
   36.9500   26.1170   39.8970 C   0  0  0  0  0  0  0  0  0  0  0  0
   37.1970   26.9060   40.9890 C   0  0  0  0  0  0  0  0  0  0  0  0
   37.1550   26.2820   42.2300 C   0  0  0  0  0  0  0  0  0  0  0  0
   36.8780   24.9410   42.3440 C   0  0  0  0  0  0  0  0  0  0  0  0
   36.6370   24.1910   41.2080 C   0  0  0  0  0  0  0  0  0  0  0  0
   36.6670   24.7720   39.9370 C   0  0  0  0  0  0  0  0  0  0  0  0
   37.3370   26.8410   43.1260 H   0  0  0  0  0  0  0  0  0  0  0  0
   36.8480   24.4640   43.3140 H   0  0  0  0  0  0  0  0  0  0  0  0
   36.4140   23.1180   41.2710 H   0  0  0  0  0  0  0  0  0  0  0  0
   37.2730   30.2680   39.5520 C   0  0  0  0  0  0  0  0  0  0  0  0
   37.9840   31.0140   40.5040 C   0  0  0  0  0  0  0  0  0  0  0  0
   38.4320   30.3380   41.6410 C   0  0  0  0  0  0  0  0  0  0  0  0
   38.1800   29.0210   41.7960 N   0  0  0  0  0  0  0  0  0  0  0  0
   37.4870   28.3330   40.8500 C   0  0  0  0  0  0  0  0  0  0  0  0
   37.0360   28.9490   39.7360 N   0  0  0  0  0  0  0  0  0  0  0  0
   38.9740   30.9200   42.3610 H   0  0  0  0  0  0  0  0  0  0  0  0
   38.2130   32.4410   40.2540 C   0  0  0  0  0  0  0  0  0  0  0  0
   37.0170   33.0930   40.0510 F   0  0  0  0  0  0  0  0  0  0  0  0
   38.8020   33.0000   41.4020 F   0  0  0  0  0  0  0  0  0  0  0  0
   39.0110   32.7100   39.1990 F   0  0  0  0  0  0  0  0  0  0  0  0
   36.8370   30.9110   38.4500 O   0  0  0  0  0  0  0  0  0  0  0  0
   37.3090   30.7330   37.1240 C   0  0  0  0  0  0  0  0  0  0  0  0
   38.5730   30.1710   37.2100 F   0  0  0  0  0  0  0  0  0  0  0  0
   36.4340   29.9640   36.4210 F   0  0  0  0  0  0  0  0  0  0  0  0
   37.5170   31.9720   36.5510 F   0  0  0  0  0  0  0  0  0  0  0  0
   36.3960   23.9670   38.7170 C   0  0  0  0  0  0  0  0  0  0  0  0
   37.0500   24.2830   37.8940 H   0  0  0  0  0  0  0  0  0  0  0  0
   36.7470   22.9290   38.9980 H   0  0  0  0  0  0  0  0  0  0  0  0
   34.9750   23.9000   38.3690 C   0  0  0  0  0  0  0  0  0  0  0  0
   34.4470   24.7660   37.4280 C   0  0  0  0  0  0  0  0  0  0  0  0
   35.0790   25.5130   36.9340 H   0  0  0  0  0  0  0  0  0  0  0  0
   33.1040   24.6880   37.1100 C   0  0  0  0  0  0  0  0  0  0  0  0
   32.6510   25.3560   36.3720 H   0  0  0  0  0  0  0  0  0  0  0  0
   32.2870   23.7450   37.7310 C   0  0  0  0  0  3  0  0  0  0  0  0
   32.8550   22.8840   38.6770 C   0  0  0  0  0  3  0  0  0  0  0  0
   34.1630   22.9880   38.9630 N   0  0  0  0  0  0  0  0  0  0  0  0
  1  2  1  0  0  0  0
  2  7  2  0  0  0  0
  2  3  1  0  0  0  0
  3  4  2  0  0  0  0
  4  5  1  0  0  0  0
  4  8  1  0  0  0  0
  5  9  1  0  0  0  0
  6 10  1  0  0  0  0
  6  5  2  0  0  0  0
  7  6  1  0  0  0  0
 11 16  2  0  0  0  0
 11 12  1  0  0  0  0
 12 13  2  0  0  0  0
 13 14  1  0  0  0  0
 13 17  1  0  0  0  0
 15  3  1  0  0  0  0
 15 14  2  0  0  0  0
 16 15  1  0  0  0  0
 18 12  1  0  0  0  0
 18 20  1  0  0  0  0
 19 18  1  0  0  0  0
 21 18  1  0  0  0  0
 22 11  1  0  0  0  0
 23 24  1  0  0  0  0
 23 22  1  0  0  0  0
 25 23  1  0  0  0  0
 26 23  1  0  0  0  0
 27 29  1  0  0  0  0
 27  7  1  0  0  0  0
 28 27  1  0  0  0  0
 30 27  1  0  0  0  0
 30 37  1  0  0  0  0
 31 30  2  0  0  0  0
 32 31  1  0  0  0  0
 33 31  1  0  0  0  0
 33 35  2  0  0  0  0
 34 33  1  0  0  0  0
 35 36  1  0  0  0  0
 36 37  2  0  0  0  0
M  END
>  <minimizedAffinity>
-5.75788069

$$$$

 OpenBabel03252504193D

 37 39  0  0  0  0  0  0  0  0999 V2000
   37.6050   27.1510   39.3030 F   0  0  0  0  0  0  0  0  0  0  0  0
   37.2840   26.8470   40.5980 C   0  0  0  0  0  0  0  0  0  0  0  0
   37.1820   27.8360   41.5390 C   0  0  0  0  0  0  0  0  0  0  0  0
   36.8510   27.4370   42.8280 C   0  0  0  0  0  0  0  0  0  0  0  0
   36.6380   26.1140   43.1310 C   0  0  0  0  0  0  0  0  0  0  0  0
   36.7540   25.1560   42.1420 C   0  0  0  0  0  0  0  0  0  0  0  0
   37.0850   25.5070   40.8290 C   0  0  0  0  0  0  0  0  0  0  0  0
   36.7540   28.1600   43.6130 H   0  0  0  0  0  0  0  0  0  0  0  0
   36.3810   25.8120   44.1380 H   0  0  0  0  0  0  0  0  0  0  0  0
   36.5900   24.0920   42.3560 H   0  0  0  0  0  0  0  0  0  0  0  0
   38.9620   30.9520   40.8320 C   0  0  0  0  0  0  0  0  0  0  0  0
   37.9310   31.8640   40.5650 C   0  0  0  0  0  0  0  0  0  0  0  0
   36.6200   31.3860   40.6330 C   0  0  0  0  0  0  0  0  0  0  0  0
   36.3800   30.0940   40.9460 N   0  0  0  0  0  0  0  0  0  0  0  0
   37.4090   29.2410   41.1980 C   0  0  0  0  0  0  0  0  0  0  0  0
   38.6890   29.6630   41.1430 N   0  0  0  0  0  0  0  0  0  0  0  0
   35.8410   32.0930   40.4270 H   0  0  0  0  0  0  0  0  0  0  0  0
   38.2820   33.2490   40.2350 C   0  0  0  0  0  0  0  0  0  0  0  0
   39.1860   33.2820   39.1960 F   0  0  0  0  0  0  0  0  0  0  0  0
   37.1190   33.9050   39.7940 F   0  0  0  0  0  0  0  0  0  0  0  0
   38.8040   33.9600   41.2570 F   0  0  0  0  0  0  0  0  0  0  0  0
   40.2310   31.4040   40.7700 O   0  0  0  0  0  0  0  0  0  0  0  0
   41.1570   31.4750   41.8420 C   0  0  0  0  0  0  0  0  0  0  0  0
   41.9440   30.3360   41.7830 F   0  0  0  0  0  0  0  0  0  0  0  0
   41.8800   32.6240   41.7530 F   0  0  0  0  0  0  0  0  0  0  0  0
   40.4710   31.3640   43.0360 F   0  0  0  0  0  0  0  0  0  0  0  0
   37.1980   24.4770   39.7640 C   0  0  0  0  0  0  0  0  0  0  0  0
   37.9950   24.7410   39.0560 H   0  0  0  0  0  0  0  0  0  0  0  0
   37.5760   23.5640   40.3130 H   0  0  0  0  0  0  0  0  0  0  0  0
   35.9170   24.1460   39.1360 C   0  0  0  0  0  0  0  0  0  0  0  0
   35.4730   24.8630   38.0390 C   0  0  0  0  0  0  0  0  0  0  0  0
   36.0680   25.6860   37.6270 H   0  0  0  0  0  0  0  0  0  0  0  0
   34.2620   24.5360   37.4590 C   0  0  0  0  0  0  0  0  0  0  0  0
   33.8780   25.0810   36.5910 H   0  0  0  0  0  0  0  0  0  0  0  0
   33.4930   23.4930   37.9720 C   0  0  0  0  0  3  0  0  0  0  0  0
   33.9730   22.7890   39.0820 C   0  0  0  0  0  3  0  0  0  0  0  0
   35.1530   23.1330   39.6220 N   0  0  0  0  0  0  0  0  0  0  0  0
  1  2  1  0  0  0  0
  2  7  2  0  0  0  0
  2  3  1  0  0  0  0
  3  4  2  0  0  0  0
  4  5  1  0  0  0  0
  4  8  1  0  0  0  0
  5  9  1  0  0  0  0
  6 10  1  0  0  0  0
  6  5  2  0  0  0  0
  7  6  1  0  0  0  0
 11 16  1  0  0  0  0
 12 13  1  0  0  0  0
 12 11  2  0  0  0  0
 13 14  2  0  0  0  0
 14 15  1  0  0  0  0
 15  3  1  0  0  0  0
 16 15  2  0  0  0  0
 17 13  1  0  0  0  0
 18 12  1  0  0  0  0
 18 21  1  0  0  0  0
 19 18  1  0  0  0  0
 20 18  1  0  0  0  0
 22 11  1  0  0  0  0
 22 23  1  0  0  0  0
 23 26  1  0  0  0  0
 24 23  1  0  0  0  0
 25 23  1  0  0  0  0
 27 29  1  0  0  0  0
 27  7  1  0  0  0  0
 28 27  1  0  0  0  0
 30 37  1  0  0  0  0
 30 27  1  0  0  0  0
 31 30  2  0  0  0  0
 32 31  1  0  0  0  0
 33 35  2  0  0  0  0
 33 31  1  0  0  0  0
 34 33  1  0  0  0  0
 35 36  1  0  0  0  0
 36 37  2  0  0  0  0
M  END
>  <minimizedAffinity>
-5.70922279

$$$$
