
 OpenBabel03252500283D

 42 44  0  0  1  0  0  0  0  0999 V2000
   39.5340   33.8470   40.1850 O   0  0  0  0  0  0  0  0  0  0  0  0
   38.4270   32.9120   39.8580 P   0  0  1  0  0  0  0  0  0  0  0  0
   36.9510   33.7470   39.8640 O   0  0  0  0  0  0  0  0  0  0  0  0
   36.2220   33.1960   40.2530 H   0  0  0  0  0  0  0  0  0  0  0  0
   38.7270   32.3160   38.3440 O   0  0  0  0  0  0  0  0  0  0  0  0
   40.8420   32.2620   37.2380 C   0  0  2  0  0  0  0  0  0  0  0  0
   39.9680   31.7310   38.3060 C   0  0  2  0  0  0  0  0  0  0  0  0
   39.9260   30.2980   38.1210 C   0  0  0  0  0  0  0  0  0  0  0  0
   41.0550   29.9020   37.3880 O   0  0  0  0  0  0  0  0  0  0  0  0
   41.8120   31.0130   37.2260 C   0  0  0  0  0  0  0  0  0  0  0  0
   40.5290   32.1350   36.1890 H   0  0  0  0  0  0  0  0  0  0  0  0
   40.4580   32.1240   39.2440 H   0  0  0  0  0  0  0  0  0  0  0  0
   39.0490   29.6930   38.0600 H   0  0  0  0  0  0  0  0  0  0  0  0
   40.2890   29.8980   39.1350 H   0  0  0  0  0  0  0  0  0  0  0  0
   42.4830   31.0600   36.3730 H   0  0  0  0  0  0  0  0  0  0  0  0
   42.4340   31.2160   38.1460 H   0  0  0  0  0  0  0  0  0  0  0  0
   41.5850   33.3420   37.5180 O   0  0  0  0  0  0  0  0  0  0  0  0
   42.8840   33.4150   37.5170 C   0  0  0  0  0  0  0  0  0  0  0  0
   43.4190   33.6460   36.6480 H   0  0  0  0  0  0  0  0  0  0  0  0
   43.3070   32.2840   37.6750 H   0  0  0  0  0  0  0  0  0  0  0  0
   43.3420   34.0640   38.8070 C   0  0  0  0  0  0  0  0  0  0  0  0
   43.0280   35.1000   38.8970 H   0  0  0  0  0  0  0  0  0  0  0  0
   44.4450   33.9150   38.8590 H   0  0  0  0  0  0  0  0  0  0  0  0
   42.9320   33.4100   39.6190 H   0  0  0  0  0  0  0  0  0  0  0  0
   38.4680   31.6950   41.0560 O   0  0  0  0  0  0  0  0  0  0  0  0
   36.8880   28.6400   42.0820 C   0  0  0  0  0  0  0  0  0  0  0  0
   35.7700   28.5160   41.1880 C   0  0  0  0  0  0  0  0  0  0  0  0
   35.6140   29.5490   40.2260 C   0  0  0  0  0  0  0  0  0  0  0  0
   36.5030   30.5640   40.2090 N   0  0  0  0  0  0  0  0  0  0  0  0
   37.5320   30.6380   41.0650 C   0  0  0  0  0  0  0  0  0  0  0  0
   37.6900   29.6750   41.9700 N   0  0  0  0  0  0  0  0  0  0  0  0
   35.0630   27.7060   41.2040 H   0  0  0  0  0  0  0  0  0  0  0  0
   34.8000   29.5290   39.5190 H   0  0  0  0  0  0  0  0  0  0  0  0
   37.0280   27.6660   42.9870 O   0  0  0  0  0  0  0  0  0  0  0  0
   38.1050   26.8350   43.1230 C   0  0  0  0  0  0  0  0  0  0  0  0
   39.2990   26.8780   43.7930 C   0  0  0  0  0  0  0  0  0  0  0  0
   39.4120   27.7940   44.3480 H   0  0  0  0  0  0  0  0  0  0  0  0
   40.2320   25.8680   43.7540 C   0  0  0  0  0  0  0  0  0  0  0  0
   41.1260   26.0380   44.3300 H   0  0  0  0  0  0  0  0  0  0  0  0
   39.9770   24.7350   43.0070 C   0  0  0  0  0  3  0  0  0  0  0  0
   38.7760   24.7110   42.3430 C   0  0  0  0  0  3  0  0  0  0  0  0
   37.8610   25.7120   42.3870 N   0  0  0  0  0  0  0  0  0  0  0  0
  2  3  1  0  0  0  0
  2  1  2  1  0  0  0
  2 25  1  0  0  0  0
  3  4  1  0  0  0  0
  5  2  1  0  0  0  0
  6 11  1  6  0  0  0
  6 17  1  0  0  0  0
  6  7  1  0  0  0  0
  7  5  1  0  0  0  0
  7 12  1  1  0  0  0
  8  7  1  0  0  0  0
  8 14  1  0  0  0  0
  9  8  1  0  0  0  0
 10  6  1  0  0  0  0
 10  9  1  0  0  0  0
 10 16  1  0  0  0  0
 13  8  1  0  0  0  0
 15 10  1  0  0  0  0
 18 17  1  0  0  0  0
 18 20  1  0  0  0  0
 18 21  1  0  0  0  0
 19 18  1  0  0  0  0
 21 23  1  0  0  0  0
 21 22  1  0  0  0  0
 21 24  1  0  0  0  0
 25 30  1  0  0  0  0
 26 34  1  0  0  0  0
 27 32  1  0  0  0  0
 27 26  2  0  0  0  0
 28 27  1  0  0  0  0
 29 28  2  0  0  0  0
 29 30  1  0  0  0  0
 30 31  2  0  0  0  0
 31 26  1  0  0  0  0
 33 28  1  0  0  0  0
 34 35  1  0  0  0  0
 35 36  1  0  0  0  0
 36 37  1  0  0  0  0
 38 36  2  0  0  0  0
 38 39  1  0  0  0  0
 40 38  1  0  0  0  0
 41 42  1  0  0  0  0
 41 40  2  0  0  0  0
 42 35  2  0  0  0  0
M  END
>  <minimizedAffinity>
-5.63667011

$$$$

 OpenBabel03252500283D

 42 44  0  0  1  0  0  0  0  0999 V2000
   39.2010   30.3430   38.3260 O   0  0  0  0  0  0  0  0  0  0  0  0
   38.6330   31.7060   38.1600 P   0  0  1  0  0  0  0  0  0  0  0  0
   38.9200   32.2570   36.5820 O   0  0  0  0  0  0  0  0  0  0  0  0
   39.1420   33.2250   36.5700 H   0  0  0  0  0  0  0  0  0  0  0  0
   37.0040   31.5870   38.4240 O   0  0  0  0  0  0  0  0  0  0  0  0
   35.7490   29.5590   38.3070 C   0  0  2  0  0  0  0  0  0  0  0  0
   36.7150   30.3990   39.0480 C   0  0  2  0  0  0  0  0  0  0  0  0
   36.1730   30.5620   40.3790 C   0  0  0  0  0  0  0  0  0  0  0  0
   35.2710   29.5170   40.6320 O   0  0  0  0  0  0  0  0  0  0  0  0
   35.3370   28.6910   39.5620 C   0  0  0  0  0  0  0  0  0  0  0  0
   34.7330   29.9500   38.1380 H   0  0  0  0  0  0  0  0  0  0  0  0
   37.6780   29.8200   38.9420 H   0  0  0  0  0  0  0  0  0  0  0  0
   36.0310   31.4850   40.8960 H   0  0  0  0  0  0  0  0  0  0  0  0
   37.0160   30.1640   41.0500 H   0  0  0  0  0  0  0  0  0  0  0  0
   34.4720   28.0750   39.3310 H   0  0  0  0  0  0  0  0  0  0  0  0
   36.2220   27.9950   39.6410 H   0  0  0  0  0  0  0  0  0  0  0  0
   36.2340   28.7200   37.3810 O   0  0  0  0  0  0  0  0  0  0  0  0
   36.5510   29.0140   36.1540 C   0  0  0  0  0  0  0  0  0  0  0  0
   36.4620   29.9880   35.7830 H   0  0  0  0  0  0  0  0  0  0  0  0
   35.7230   28.4860   35.4330 H   0  0  0  0  0  0  0  0  0  0  0  0
   37.7920   28.2350   35.7660 C   0  0  0  0  0  0  0  0  0  0  0  0
   38.6710   28.5260   36.3340 H   0  0  0  0  0  0  0  0  0  0  0  0
   37.9020   28.3490   34.6630 H   0  0  0  0  0  0  0  0  0  0  0  0
   37.5120   27.1600   35.9100 H   0  0  0  0  0  0  0  0  0  0  0  0
   39.4120   32.6860   39.3220 O   0  0  0  0  0  0  0  0  0  0  0  0
   39.8280   30.8900   42.4010 C   0  0  0  0  0  0  0  0  0  0  0  0
   41.2380   30.9790   42.6610 C   0  0  0  0  0  0  0  0  0  0  0  0
   42.0110   31.6940   41.7090 C   0  0  0  0  0  0  0  0  0  0  0  0
   41.3910   32.2350   40.6390 N   0  0  0  0  0  0  0  0  0  0  0  0
   40.0700   32.1250   40.4380 C   0  0  0  0  0  0  0  0  0  0  0  0
   39.3340   31.4590   41.3240 N   0  0  0  0  0  0  0  0  0  0  0  0
   41.7290   30.5470   43.5150 H   0  0  0  0  0  0  0  0  0  0  0  0
   43.0770   31.8070   41.8320 H   0  0  0  0  0  0  0  0  0  0  0  0
   39.1050   30.2130   43.3000 O   0  0  0  0  0  0  0  0  0  0  0  0
   38.3540   29.0960   43.0600 C   0  0  0  0  0  0  0  0  0  0  0  0
   37.2740   28.4960   43.6500 C   0  0  0  0  0  0  0  0  0  0  0  0
   36.9380   29.0420   44.5170 H   0  0  0  0  0  0  0  0  0  0  0  0
   36.6960   27.3380   43.1850 C   0  0  0  0  0  0  0  0  0  0  0  0
   35.8510   26.9790   43.7500 H   0  0  0  0  0  0  0  0  0  0  0  0
   37.2120   26.7240   42.0610 C   0  0  0  0  0  3  0  0  0  0  0  0
   38.2950   27.3410   41.4830 C   0  0  0  0  0  3  0  0  0  0  0  0
   38.8580   28.4840   41.9490 N   0  0  0  0  0  0  0  0  0  0  0  0
  2  1  2  1  0  0  0
  2  5  1  0  0  0  0
  2 25  1  0  0  0  0
  3  2  1  0  0  0  0
  4  3  1  0  0  0  0
  5  7  1  0  0  0  0
  6 11  1  6  0  0  0
  6  7  1  0  0  0  0
  6 10  1  0  0  0  0
  7 12  1  1  0  0  0
  7  8  1  0  0  0  0
  8  9  1  0  0  0  0
  8 13  1  0  0  0  0
  8 14  1  0  0  0  0
 10 16  1  0  0  0  0
 10  9  1  0  0  0  0
 15 10  1  0  0  0  0
 17  6  1  0  0  0  0
 18 17  1  0  0  0  0
 19 18  1  0  0  0  0
 20 18  1  0  0  0  0
 21 24  1  0  0  0  0
 21 18  1  0  0  0  0
 21 22  1  0  0  0  0
 23 21  1  0  0  0  0
 25 30  1  0  0  0  0
 26 27  1  0  0  0  0
 26 34  1  0  0  0  0
 27 32  1  0  0  0  0
 28 33  1  0  0  0  0
 28 27  2  0  0  0  0
 29 28  1  0  0  0  0
 30 29  2  0  0  0  0
 30 31  1  0  0  0  0
 31 26  2  0  0  0  0
 35 34  1  0  0  0  0
 35 36  1  0  0  0  0
 36 37  1  0  0  0  0
 38 36  2  0  0  0  0
 38 39  1  0  0  0  0
 40 38  1  0  0  0  0
 41 42  1  0  0  0  0
 41 40  2  0  0  0  0
 42 35  2  0  0  0  0
M  END
>  <minimizedAffinity>
-5.42815924

$$$$

 OpenBabel03252500283D

 42 44  0  0  1  0  0  0  0  0999 V2000
   36.4340   26.9210   43.0830 O   0  0  0  0  0  0  0  0  0  0  0  0
   37.5540   27.8490   42.7800 P   0  0  1  0  0  0  0  0  0  0  0  0
   37.0680   29.4470   43.0700 O   0  0  0  0  0  0  0  0  0  0  0  0
   37.4370   30.0690   42.3890 H   0  0  0  0  0  0  0  0  0  0  0  0
   38.8000   27.4500   43.7930 O   0  0  0  0  0  0  0  0  0  0  0  0
   39.9630   25.3800   43.5420 C   0  0  2  0  0  0  0  0  0  0  0  0
   39.7750   26.7780   43.0980 C   0  0  2  0  0  0  0  0  0  0  0  0
   41.0750   27.4060   43.1720 C   0  0  0  0  0  0  0  0  0  0  0  0
   42.0620   26.4100   43.1300 O   0  0  0  0  0  0  0  0  0  0  0  0
   41.4130   25.2400   42.9280 C   0  0  0  0  0  0  0  0  0  0  0  0
   40.2930   25.1970   44.5780 H   0  0  0  0  0  0  0  0  0  0  0  0
   39.3110   26.6520   42.0770 H   0  0  0  0  0  0  0  0  0  0  0  0
   41.3070   28.3250   43.6630 H   0  0  0  0  0  0  0  0  0  0  0  0
   41.2360   27.7870   42.1000 H   0  0  0  0  0  0  0  0  0  0  0  0
   41.8850   24.3230   43.2700 H   0  0  0  0  0  0  0  0  0  0  0  0
   41.1700   25.0960   41.8350 H   0  0  0  0  0  0  0  0  0  0  0  0
   39.1970   24.4370   42.9780 O   0  0  0  0  0  0  0  0  0  0  0  0
   38.9830   24.2660   41.7060 C   0  0  0  0  0  0  0  0  0  0  0  0
   39.6690   23.7650   41.0960 H   0  0  0  0  0  0  0  0  0  0  0  0
   39.0630   25.3610   41.1790 H   0  0  0  0  0  0  0  0  0  0  0  0
   37.5130   23.9630   41.4900 C   0  0  0  0  0  0  0  0  0  0  0  0
   37.2050   23.0190   41.9310 H   0  0  0  0  0  0  0  0  0  0  0  0
   37.3360   24.0360   40.3930 H   0  0  0  0  0  0  0  0  0  0  0  0
   36.9720   24.8450   41.9210 H   0  0  0  0  0  0  0  0  0  0  0  0
   37.9450   27.5960   41.1360 O   0  0  0  0  0  0  0  0  0  0  0  0
   36.6740   29.9690   38.7630 C   0  0  0  0  0  0  0  0  0  0  0  0
   35.6360   29.2480   38.0810 C   0  0  0  0  0  0  0  0  0  0  0  0
   35.4170   27.9100   38.5000 C   0  0  0  0  0  0  0  0  0  0  0  0
   36.1810   27.4030   39.4920 N   0  0  0  0  0  0  0  0  0  0  0  0
   37.1410   28.1150   40.1000 C   0  0  0  0  0  0  0  0  0  0  0  0
   37.3540   29.3720   39.7160 N   0  0  0  0  0  0  0  0  0  0  0  0
   35.0290   29.6540   37.2910 H   0  0  0  0  0  0  0  0  0  0  0  0
   34.6560   27.3010   38.0390 H   0  0  0  0  0  0  0  0  0  0  0  0
   36.8780   31.2280   38.3610 O   0  0  0  0  0  0  0  0  0  0  0  0
   37.6910   32.1490   38.9620 C   0  0  0  0  0  0  0  0  0  0  0  0
   37.5250   33.1550   39.8760 C   0  0  0  0  0  0  0  0  0  0  0  0
   36.4990   33.2370   40.1980 H   0  0  0  0  0  0  0  0  0  0  0  0
   38.5490   33.9570   40.3220 C   0  0  0  0  0  0  0  0  0  0  0  0
   38.2720   34.7090   41.0440 H   0  0  0  0  0  0  0  0  0  0  0  0
   39.8270   33.7590   39.8400 C   0  0  0  0  0  3  0  0  0  0  0  0
   39.9740   32.7460   38.9250 C   0  0  0  0  0  3  0  0  0  0  0  0
   38.9570   31.9590   38.4900 N   0  0  0  0  0  0  0  0  0  0  0  0
  2  3  1  0  0  0  0
  2  1  2  1  0  0  0
  2  5  1  0  0  0  0
  4  3  1  0  0  0  0
  6 11  1  1  0  0  0
  7 12  1  6  0  0  0
  7  8  1  0  0  0  0
  7  6  1  0  0  0  0
  7  5  1  0  0  0  0
  8 13  1  0  0  0  0
  9  8  1  0  0  0  0
 10  9  1  0  0  0  0
 10 15  1  0  0  0  0
 10  6  1  0  0  0  0
 14  8  1  0  0  0  0
 16 10  1  0  0  0  0
 17  6  1  0  0  0  0
 18 17  1  0  0  0  0
 19 18  1  0  0  0  0
 20 18  1  0  0  0  0
 21 18  1  0  0  0  0
 21 24  1  0  0  0  0
 21 22  1  0  0  0  0
 23 21  1  0  0  0  0
 25  2  1  0  0  0  0
 26 31  1  0  0  0  0
 27 28  1  0  0  0  0
 27 26  2  0  0  0  0
 28 29  2  0  0  0  0
 29 30  1  0  0  0  0
 30 25  1  0  0  0  0
 31 30  2  0  0  0  0
 32 27  1  0  0  0  0
 33 28  1  0  0  0  0
 34 26  1  0  0  0  0
 34 35  1  0  0  0  0
 35 36  1  0  0  0  0
 36 37  1  0  0  0  0
 36 38  2  0  0  0  0
 38 39  1  0  0  0  0
 40 38  1  0  0  0  0
 41 40  2  0  0  0  0
 42 41  1  0  0  0  0
 42 35  2  0  0  0  0
M  END
>  <minimizedAffinity>
-5.41016865

$$$$

 OpenBabel03252500283D

 42 44  0  0  1  0  0  0  0  0999 V2000
   37.7030   27.6250   41.7450 O   0  0  0  0  0  0  0  0  0  0  0  0
   38.1530   28.3990   42.9310 P   0  0  1  0  0  0  0  0  0  0  0  0
   36.8120   29.0790   43.7140 O   0  0  0  0  0  0  0  0  0  0  0  0
   37.0120   29.9920   44.0510 H   0  0  0  0  0  0  0  0  0  0  0  0
   38.9120   27.3330   43.9440 O   0  0  0  0  0  0  0  0  0  0  0  0
   39.9110   25.2720   43.2710 C   0  0  2  0  0  0  0  0  0  0  0  0
   39.9750   26.7490   43.3010 C   0  0  2  0  0  0  0  0  0  0  0  0
   41.2570   27.0890   43.8770 C   0  0  0  0  0  0  0  0  0  0  0  0
   42.1260   25.9980   43.7230 O   0  0  0  0  0  0  0  0  0  0  0  0
   41.4550   25.0780   42.9910 C   0  0  0  0  0  0  0  0  0  0  0  0
   39.9310   24.7250   44.2280 H   0  0  0  0  0  0  0  0  0  0  0  0
   39.7960   27.0250   42.2210 H   0  0  0  0  0  0  0  0  0  0  0  0
   41.4280   27.7570   44.6910 H   0  0  0  0  0  0  0  0  0  0  0  0
   41.7370   27.7460   43.0660 H   0  0  0  0  0  0  0  0  0  0  0  0
   41.7330   24.0330   43.0970 H   0  0  0  0  0  0  0  0  0  0  0  0
   41.5050   25.3210   41.8900 H   0  0  0  0  0  0  0  0  0  0  0  0
   39.2460   24.6960   42.2620 O   0  0  0  0  0  0  0  0  0  0  0  0
   38.0340   24.2220   42.2980 C   0  0  0  0  0  0  0  0  0  0  0  0
   37.3230   24.5850   42.9740 H   0  0  0  0  0  0  0  0  0  0  0  0
   38.1070   23.0850   42.7290 H   0  0  0  0  0  0  0  0  0  0  0  0
   37.5690   23.9500   40.8810 C   0  0  0  0  0  0  0  0  0  0  0  0
   37.4730   24.8540   40.2850 H   0  0  0  0  0  0  0  0  0  0  0  0
   36.6300   23.3580   40.9670 H   0  0  0  0  0  0  0  0  0  0  0  0
   38.3200   23.2290   40.4660 H   0  0  0  0  0  0  0  0  0  0  0  0
   39.2130   29.6000   42.3360 O   0  0  0  0  0  0  0  0  0  0  0  0
   39.2170   32.8600   40.8360 C   0  0  0  0  0  0  0  0  0  0  0  0
   37.9130   32.9660   40.2440 C   0  0  0  0  0  0  0  0  0  0  0  0
   37.0550   31.8460   40.4040 C   0  0  0  0  0  0  0  0  0  0  0  0
   37.5040   30.7720   41.0860 N   0  0  0  0  0  0  0  0  0  0  0  0
   38.7320   30.7180   41.6220 C   0  0  0  0  0  0  0  0  0  0  0  0
   39.5450   31.7620   41.4800 N   0  0  0  0  0  0  0  0  0  0  0  0
   37.5570   33.8240   39.7010 H   0  0  0  0  0  0  0  0  0  0  0  0
   36.0590   31.8470   39.9890 H   0  0  0  0  0  0  0  0  0  0  0  0
   40.0220   33.9160   40.6800 O   0  0  0  0  0  0  0  0  0  0  0  0
   41.2680   33.9090   40.1170 C   0  0  0  0  0  0  0  0  0  0  0  0
   42.5530   33.8160   40.5810 C   0  0  0  0  0  0  0  0  0  0  0  0
   42.5840   33.7270   41.6550 H   0  0  0  0  0  0  0  0  0  0  0  0
   43.6610   33.8360   39.7670 C   0  0  0  0  0  0  0  0  0  0  0  0
   44.6110   33.7540   40.2700 H   0  0  0  0  0  0  0  0  0  0  0  0
   43.5000   33.9540   38.4010 C   0  0  0  0  0  3  0  0  0  0  0  0
   42.2040   34.0460   37.9550 C   0  0  0  0  0  3  0  0  0  0  0  0
   41.1170   34.0250   38.7660 N   0  0  0  0  0  0  0  0  0  0  0  0
  2  1  2  6  0  0  0
  2  3  1  0  0  0  0
  2  5  1  0  0  0  0
  3  4  1  0  0  0  0
  6  7  1  0  0  0  0
  6 11  1  1  0  0  0
  7 12  1  6  0  0  0
  7  8  1  0  0  0  0
  7  5  1  0  0  0  0
  8 13  1  0  0  0  0
  9  8  1  0  0  0  0
 10 15  1  0  0  0  0
 10  6  1  0  0  0  0
 10  9  1  0  0  0  0
 14  8  1  0  0  0  0
 16 10  1  0  0  0  0
 17 18  1  0  0  0  0
 17  6  1  0  0  0  0
 18 20  1  0  0  0  0
 18 19  1  0  0  0  0
 21 23  1  0  0  0  0
 21 18  1  0  0  0  0
 22 21  1  0  0  0  0
 24 21  1  0  0  0  0
 25  2  1  0  0  0  0
 26 31  1  0  0  0  0
 27 28  1  0  0  0  0
 27 26  2  0  0  0  0
 28 29  2  0  0  0  0
 29 30  1  0  0  0  0
 30 25  1  0  0  0  0
 31 30  2  0  0  0  0
 32 27  1  0  0  0  0
 33 28  1  0  0  0  0
 34 26  1  0  0  0  0
 35 36  1  0  0  0  0
 35 34  1  0  0  0  0
 36 37  1  0  0  0  0
 38 39  1  0  0  0  0
 38 36  2  0  0  0  0
 40 38  1  0  0  0  0
 41 40  2  0  0  0  0
 41 42  1  0  0  0  0
 42 35  2  0  0  0  0
M  END
>  <minimizedAffinity>
-5.36507273

$$$$

 OpenBabel03252500283D

 42 44  0  0  1  0  0  0  0  0999 V2000
   35.6540   29.4830   39.3300 O   0  0  0  0  0  0  0  0  0  0  0  0
   36.3550   29.7600   40.6110 P   0  0  1  0  0  0  0  0  0  0  0  0
   35.5350   30.9770   41.4610 O   0  0  0  0  0  0  0  0  0  0  0  0
   36.1680   31.5940   41.9150 H   0  0  0  0  0  0  0  0  0  0  0  0
   36.3360   28.3560   41.4870 O   0  0  0  0  0  0  0  0  0  0  0  0
   37.8420   26.5480   41.8890 C   0  0  2  0  0  0  0  0  0  0  0  0
   37.6140   28.0080   41.8450 C   0  0  2  0  0  0  0  0  0  0  0  0
   38.0120   28.5200   43.1380 C   0  0  0  0  0  0  0  0  0  0  0  0
   38.8950   27.6070   43.7340 O   0  0  0  0  0  0  0  0  0  0  0  0
   39.1200   26.6400   42.8140 C   0  0  0  0  0  0  0  0  0  0  0  0
   37.2610   25.9460   42.6070 H   0  0  0  0  0  0  0  0  0  0  0  0
   38.2210   28.3260   40.9470 H   0  0  0  0  0  0  0  0  0  0  0  0
   37.4310   29.1490   43.7760 H   0  0  0  0  0  0  0  0  0  0  0  0
   38.8070   29.3050   42.8690 H   0  0  0  0  0  0  0  0  0  0  0  0
   39.4080   25.6520   43.1640 H   0  0  0  0  0  0  0  0  0  0  0  0
   39.9020   26.9650   42.0680 H   0  0  0  0  0  0  0  0  0  0  0  0
   38.2120   25.9400   40.7540 O   0  0  0  0  0  0  0  0  0  0  0  0
   37.5840   24.9750   40.1470 C   0  0  0  0  0  0  0  0  0  0  0  0
   38.0400   24.4150   39.3900 H   0  0  0  0  0  0  0  0  0  0  0  0
   36.7100   25.4870   39.4700 H   0  0  0  0  0  0  0  0  0  0  0  0
   36.7430   24.2220   41.1580 C   0  0  0  0  0  0  0  0  0  0  0  0
   37.3390   23.7070   41.9060 H   0  0  0  0  0  0  0  0  0  0  0  0
   36.0710   23.5550   40.5720 H   0  0  0  0  0  0  0  0  0  0  0  0
   36.0600   24.9940   41.5960 H   0  0  0  0  0  0  0  0  0  0  0  0
   37.9380   30.2430   40.1880 O   0  0  0  0  0  0  0  0  0  0  0  0
   40.0570   33.1280   40.4440 C   0  0  0  0  0  0  0  0  0  0  0  0
   39.1750   34.2260   40.1600 C   0  0  0  0  0  0  0  0  0  0  0  0
   37.8230   33.8940   39.8810 C   0  0  0  0  0  0  0  0  0  0  0  0
   37.4530   32.5950   39.8980 N   0  0  0  0  0  0  0  0  0  0  0  0
   38.3130   31.6030   40.1690 C   0  0  0  0  0  0  0  0  0  0  0  0
   39.5830   31.9020   40.4330 N   0  0  0  0  0  0  0  0  0  0  0  0
   39.4720   35.2590   40.1470 H   0  0  0  0  0  0  0  0  0  0  0  0
   37.0980   34.6600   39.6580 H   0  0  0  0  0  0  0  0  0  0  0  0
   41.3290   33.4470   40.7030 O   0  0  0  0  0  0  0  0  0  0  0  0
   42.3240   33.6230   39.7820 C   0  0  0  0  0  0  0  0  0  0  0  0
   42.3860   33.7570   38.4200 C   0  0  0  0  0  0  0  0  0  0  0  0
   41.4080   33.7110   37.9690 H   0  0  0  0  0  0  0  0  0  0  0  0
   43.5600   33.9280   37.7240 C   0  0  0  0  0  0  0  0  0  0  0  0
   43.4580   34.0200   36.6550 H   0  0  0  0  0  0  0  0  0  0  0  0
   44.7570   33.9730   38.4100 C   0  0  0  0  0  3  0  0  0  0  0  0
   44.6740   33.8370   39.7740 C   0  0  0  0  0  3  0  0  0  0  0  0
   43.5120   33.6680   40.4520 N   0  0  0  0  0  0  0  0  0  0  0  0
  2  1  2  6  0  0  0
  2  3  1  0  0  0  0
  2  5  1  0  0  0  0
  3  4  1  0  0  0  0
  5  7  1  0  0  0  0
  6 11  1  1  0  0  0
  6 10  1  0  0  0  0
  7 12  1  6  0  0  0
  7  6  1  0  0  0  0
  7  8  1  0  0  0  0
  8  9  1  0  0  0  0
  8 13  1  0  0  0  0
 10 15  1  0  0  0  0
 10  9  1  0  0  0  0
 14  8  1  0  0  0  0
 16 10  1  0  0  0  0
 17  6  1  0  0  0  0
 18 17  1  0  0  0  0
 18 21  1  0  0  0  0
 19 18  1  0  0  0  0
 20 18  1  0  0  0  0
 21 24  1  0  0  0  0
 21 22  1  0  0  0  0
 23 21  1  0  0  0  0
 25  2  1  0  0  0  0
 26 34  1  0  0  0  0
 27 26  2  0  0  0  0
 28 29  2  0  0  0  0
 28 27  1  0  0  0  0
 29 30  1  0  0  0  0
 30 25  1  0  0  0  0
 30 31  2  0  0  0  0
 31 26  1  0  0  0  0
 32 27  1  0  0  0  0
 33 28  1  0  0  0  0
 35 42  1  0  0  0  0
 35 34  1  0  0  0  0
 36 35  2  0  0  0  0
 37 36  1  0  0  0  0
 38 40  2  0  0  0  0
 38 36  1  0  0  0  0
 39 38  1  0  0  0  0
 40 41  1  0  0  0  0
 41 42  2  0  0  0  0
M  END
>  <minimizedAffinity>
-5.35189676

$$$$

 OpenBabel03252500283D

 42 44  0  0  1  0  0  0  0  0999 V2000
   36.3810   28.6220   40.7130 O   0  0  0  0  0  0  0  0  0  0  0  0
   36.8740   29.9660   41.1100 P   0  0  1  0  0  0  0  0  0  0  0  0
   35.5580   31.0060   41.3630 O   0  0  0  0  0  0  0  0  0  0  0  0
   35.7500   31.9230   41.0320 H   0  0  0  0  0  0  0  0  0  0  0  0
   37.7180   29.7770   42.5210 O   0  0  0  0  0  0  0  0  0  0  0  0
   38.6290   27.7230   43.3280 C   0  0  2  0  0  0  0  0  0  0  0  0
   38.7030   28.8350   42.3560 C   0  0  2  0  0  0  0  0  0  0  0  0
   40.0410   29.3750   42.4570 C   0  0  0  0  0  0  0  0  0  0  0  0
   40.8830   28.3960   43.0070 O   0  0  0  0  0  0  0  0  0  0  0  0
   40.1330   27.2770   43.1340 C   0  0  0  0  0  0  0  0  0  0  0  0
   38.7470   27.9520   44.4000 H   0  0  0  0  0  0  0  0  0  0  0  0
   38.4110   28.3350   41.3870 H   0  0  0  0  0  0  0  0  0  0  0  0
   40.3010   30.4000   42.5980 H   0  0  0  0  0  0  0  0  0  0  0  0
   40.4340   29.2870   41.3810 H   0  0  0  0  0  0  0  0  0  0  0  0
   40.4150   26.5500   43.8910 H   0  0  0  0  0  0  0  0  0  0  0  0
   40.0670   26.7210   42.1540 H   0  0  0  0  0  0  0  0  0  0  0  0
   37.8560   26.6730   43.0180 O   0  0  0  0  0  0  0  0  0  0  0  0
   38.0930   25.7750   42.1070 C   0  0  0  0  0  0  0  0  0  0  0  0
   39.0530   25.3850   41.9570 H   0  0  0  0  0  0  0  0  0  0  0  0
   37.9660   26.3200   41.0250 H   0  0  0  0  0  0  0  0  0  0  0  0
   36.9340   24.8000   42.0630 C   0  0  0  0  0  0  0  0  0  0  0  0
   36.8330   24.2180   42.9760 H   0  0  0  0  0  0  0  0  0  0  0  0
   37.0740   24.1870   41.1440 H   0  0  0  0  0  0  0  0  0  0  0  0
   36.0350   25.4320   41.8450 H   0  0  0  0  0  0  0  0  0  0  0  0
   37.8640   30.5030   39.8260 O   0  0  0  0  0  0  0  0  0  0  0  0
   40.4650   32.9380   39.3920 C   0  0  0  0  0  0  0  0  0  0  0  0
   39.8840   34.1520   39.8950 C   0  0  0  0  0  0  0  0  0  0  0  0
   38.5550   34.0600   40.3830 C   0  0  0  0  0  0  0  0  0  0  0  0
   37.9270   32.8650   40.3480 N   0  0  0  0  0  0  0  0  0  0  0  0
   38.5110   31.7570   39.8680 C   0  0  0  0  0  0  0  0  0  0  0  0
   39.7570   31.8300   39.4090 N   0  0  0  0  0  0  0  0  0  0  0  0
   40.3860   35.1030   39.9220 H   0  0  0  0  0  0  0  0  0  0  0  0
   38.0470   34.9260   40.7770 H   0  0  0  0  0  0  0  0  0  0  0  0
   41.7170   33.0310   38.9300 O   0  0  0  0  0  0  0  0  0  0  0  0
   42.4980   31.9980   38.4940 C   0  0  0  0  0  0  0  0  0  0  0  0
   43.3330   31.0840   39.0800 C   0  0  0  0  0  0  0  0  0  0  0  0
   43.3830   31.2170   40.1490 H   0  0  0  0  0  0  0  0  0  0  0  0
   44.0200   30.1200   38.3810 C   0  0  0  0  0  0  0  0  0  0  0  0
   44.6410   29.4680   38.9740 H   0  0  0  0  0  0  0  0  0  0  0  0
   43.8780   30.0430   37.0100 C   0  0  0  0  0  3  0  0  0  0  0  0
   43.0370   30.9670   36.4400 C   0  0  0  0  0  3  0  0  0  0  0  0
   42.3630   31.9150   37.1380 N   0  0  0  0  0  0  0  0  0  0  0  0
  2  1  2  6  0  0  0
  2  3  1  0  0  0  0
  2  5  1  0  0  0  0
  4  3  1  0  0  0  0
  6 11  1  1  0  0  0
  7 12  1  6  0  0  0
  7  8  1  0  0  0  0
  7  5  1  0  0  0  0
  7  6  1  0  0  0  0
  8 13  1  0  0  0  0
  8  9  1  0  0  0  0
  9 10  1  0  0  0  0
 10  6  1  0  0  0  0
 10 15  1  0  0  0  0
 14  8  1  0  0  0  0
 16 10  1  0  0  0  0
 17  6  1  0  0  0  0
 18 17  1  0  0  0  0
 19 18  1  0  0  0  0
 20 18  1  0  0  0  0
 21 18  1  0  0  0  0
 21 22  1  0  0  0  0
 23 21  1  0  0  0  0
 24 21  1  0  0  0  0
 25 30  1  0  0  0  0
 25  2  1  0  0  0  0
 26 31  2  0  0  0  0
 26 27  1  0  0  0  0
 27 32  1  0  0  0  0
 27 28  2  0  0  0  0
 28 33  1  0  0  0  0
 29 28  1  0  0  0  0
 30 29  2  0  0  0  0
 31 30  1  0  0  0  0
 34 26  1  0  0  0  0
 35 34  1  0  0  0  0
 35 36  1  0  0  0  0
 36 37  1  0  0  0  0
 38 39  1  0  0  0  0
 38 36  2  0  0  0  0
 40 38  1  0  0  0  0
 41 40  2  0  0  0  0
 41 42  1  0  0  0  0
 42 35  2  0  0  0  0
M  END
>  <minimizedAffinity>
-5.23853302

$$$$

 OpenBabel03252500283D

 42 44  0  0  1  0  0  0  0  0999 V2000
   39.9690   30.4640   40.1800 O   0  0  0  0  0  0  0  0  0  0  0  0
   39.7430   31.8480   40.6710 P   0  0  1  0  0  0  0  0  0  0  0  0
   40.7980   32.1800   41.9560 O   0  0  0  0  0  0  0  0  0  0  0  0
   40.3540   32.7210   42.6610 H   0  0  0  0  0  0  0  0  0  0  0  0
   40.0630   32.8680   39.4070 O   0  0  0  0  0  0  0  0  0  0  0  0
   42.3110   33.6490   39.2280 C   0  0  2  0  0  0  0  0  0  0  0  0
   41.3120   32.6100   38.9000 C   0  0  2  0  0  0  0  0  0  0  0  0
   41.3320   32.4660   37.4610 C   0  0  0  0  0  0  0  0  0  0  0  0
   42.5620   32.9370   36.9770 O   0  0  0  0  0  0  0  0  0  0  0  0
   43.3050   33.2490   38.0640 C   0  0  0  0  0  0  0  0  0  0  0  0
   42.1500   34.6720   38.8520 H   0  0  0  0  0  0  0  0  0  0  0  0
   41.6560   31.7310   39.5190 H   0  0  0  0  0  0  0  0  0  0  0  0
   40.4880   32.5000   36.8090 H   0  0  0  0  0  0  0  0  0  0  0  0
   41.5620   31.3490   37.3190 H   0  0  0  0  0  0  0  0  0  0  0  0
   44.0870   33.9960   37.9580 H   0  0  0  0  0  0  0  0  0  0  0  0
   43.7880   32.3280   38.5020 H   0  0  0  0  0  0  0  0  0  0  0  0
   42.9800   33.5290   40.3830 O   0  0  0  0  0  0  0  0  0  0  0  0
   43.8840   34.3430   40.8460 C   0  0  0  0  0  0  0  0  0  0  0  0
   44.2870   35.1080   40.2580 H   0  0  0  0  0  0  0  0  0  0  0  0
   44.9040   33.6960   40.9990 H   0  0  0  0  0  0  0  0  0  0  0  0
   43.5520   34.6780   42.2870 C   0  0  0  0  0  0  0  0  0  0  0  0
   42.6260   35.2380   42.3910 H   0  0  0  0  0  0  0  0  0  0  0  0
   44.4470   35.1940   42.7030 H   0  0  0  0  0  0  0  0  0  0  0  0
   43.5280   33.6890   42.8140 H   0  0  0  0  0  0  0  0  0  0  0  0
   38.1080   31.9130   41.1630 O   0  0  0  0  0  0  0  0  0  0  0  0
   36.5540   28.7540   41.8560 C   0  0  0  0  0  0  0  0  0  0  0  0
   35.6060   28.5980   40.7880 C   0  0  0  0  0  0  0  0  0  0  0  0
   35.5520   29.6470   39.8340 C   0  0  0  0  0  0  0  0  0  0  0  0
   36.3750   30.7070   39.9820 N   0  0  0  0  0  0  0  0  0  0  0  0
   37.2440   30.8100   40.9970 C   0  0  0  0  0  0  0  0  0  0  0  0
   37.3050   29.8320   41.8980 N   0  0  0  0  0  0  0  0  0  0  0  0
   34.9520   27.7520   40.6720 H   0  0  0  0  0  0  0  0  0  0  0  0
   34.8670   29.6060   39.0010 H   0  0  0  0  0  0  0  0  0  0  0  0
   36.5980   27.7640   42.7530 O   0  0  0  0  0  0  0  0  0  0  0  0
   37.3360   26.6170   42.6590 C   0  0  0  0  0  0  0  0  0  0  0  0
   37.1330   25.3590   42.1560 C   0  0  0  0  0  0  0  0  0  0  0  0
   36.1480   25.2530   41.7330 H   0  0  0  0  0  0  0  0  0  0  0  0
   38.0790   24.3610   42.1940 C   0  0  0  0  0  0  0  0  0  0  0  0
   37.7810   23.4200   41.7600 H   0  0  0  0  0  0  0  0  0  0  0  0
   39.3110   24.6130   42.7620 C   0  0  0  0  0  3  0  0  0  0  0  0
   39.4960   25.8800   43.2600 C   0  0  0  0  0  3  0  0  0  0  0  0
   38.5570   26.8580   43.2190 N   0  0  0  0  0  0  0  0  0  0  0  0
  2  1  2  6  0  0  0
  2 25  1  0  0  0  0
  2  3  1  0  0  0  0
  3  4  1  0  0  0  0
  5  2  1  0  0  0  0
  6 11  1  6  0  0  0
  6 17  1  0  0  0  0
  7  6  1  0  0  0  0
  7  5  1  0  0  0  0
  7 12  1  1  0  0  0
  8  7  1  0  0  0  0
  9  8  1  0  0  0  0
  9 10  1  0  0  0  0
 10 16  1  0  0  0  0
 10  6  1  0  0  0  0
 13  8  1  0  0  0  0
 14  8  1  0  0  0  0
 15 10  1  0  0  0  0
 17 18  1  0  0  0  0
 18 20  1  0  0  0  0
 18 21  1  0  0  0  0
 19 18  1  0  0  0  0
 21 22  1  0  0  0  0
 21 23  1  0  0  0  0
 21 24  1  0  0  0  0
 26 31  1  0  0  0  0
 26 34  1  0  0  0  0
 27 26  2  0  0  0  0
 28 29  2  0  0  0  0
 28 27  1  0  0  0  0
 29 30  1  0  0  0  0
 30 25  1  0  0  0  0
 30 31  2  0  0  0  0
 32 27  1  0  0  0  0
 33 28  1  0  0  0  0
 35 34  1  0  0  0  0
 35 42  1  0  0  0  0
 36 38  1  0  0  0  0
 36 35  2  0  0  0  0
 37 36  1  0  0  0  0
 38 40  2  0  0  0  0
 39 38  1  0  0  0  0
 40 41  1  0  0  0  0
 42 41  2  0  0  0  0
M  END
>  <minimizedAffinity>
-5.22583055

$$$$

 OpenBabel03252500283D

 42 44  0  0  1  0  0  0  0  0999 V2000
   36.9540   34.1970   39.2650 O   0  0  0  0  0  0  0  0  0  0  0  0
   37.7570   33.0610   39.7860 P   0  0  1  0  0  0  0  0  0  0  0  0
   38.5000   32.2460   38.4970 O   0  0  0  0  0  0  0  0  0  0  0  0
   38.5040   31.2630   38.6420 H   0  0  0  0  0  0  0  0  0  0  0  0
   38.9120   33.7010   40.7830 O   0  0  0  0  0  0  0  0  0  0  0  0
   40.9370   32.4430   40.9190 C   0  0  2  0  0  0  0  0  0  0  0  0
   40.1590   33.5050   40.2450 C   0  0  2  0  0  0  0  0  0  0  0  0
   40.9890   34.6890   40.2620 C   0  0  0  0  0  0  0  0  0  0  0  0
   42.3280   34.3010   40.4210 O   0  0  0  0  0  0  0  0  0  0  0  0
   42.3390   32.9480   40.3900 C   0  0  0  0  0  0  0  0  0  0  0  0
   41.1960   32.5750   41.9820 H   0  0  0  0  0  0  0  0  0  0  0  0
   39.9280   33.0420   39.2410 H   0  0  0  0  0  0  0  0  0  0  0  0
   40.7020   35.6590   40.6040 H   0  0  0  0  0  0  0  0  0  0  0  0
   41.0700   34.9620   39.1490 H   0  0  0  0  0  0  0  0  0  0  0  0
   43.1470   32.4270   40.8960 H   0  0  0  0  0  0  0  0  0  0  0  0
   42.3160   32.5680   39.3280 H   0  0  0  0  0  0  0  0  0  0  0  0
   40.7770   31.1840   40.4890 O   0  0  0  0  0  0  0  0  0  0  0  0
   40.2330   30.2010   41.1460 C   0  0  0  0  0  0  0  0  0  0  0  0
   39.5080   30.3670   41.8820 H   0  0  0  0  0  0  0  0  0  0  0  0
   41.0950   29.7300   41.8660 H   0  0  0  0  0  0  0  0  0  0  0  0
   40.0030   29.0420   40.1960 C   0  0  0  0  0  0  0  0  0  0  0  0
   39.2750   29.2660   39.4210 H   0  0  0  0  0  0  0  0  0  0  0  0
   39.7410   28.1650   40.8300 H   0  0  0  0  0  0  0  0  0  0  0  0
   41.0180   28.8000   39.7880 H   0  0  0  0  0  0  0  0  0  0  0  0
   36.6610   32.0520   40.6220 O   0  0  0  0  0  0  0  0  0  0  0  0
   36.5160   28.5170   41.2240 C   0  0  0  0  0  0  0  0  0  0  0  0
   36.3790   27.9520   39.9110 C   0  0  0  0  0  0  0  0  0  0  0  0
   36.3430   28.8700   38.8290 C   0  0  0  0  0  0  0  0  0  0  0  0
   36.4370   30.1910   39.0910 N   0  0  0  0  0  0  0  0  0  0  0  0
   36.5630   30.6730   40.3360 C   0  0  0  0  0  0  0  0  0  0  0  0
   36.5990   29.8220   41.3580 N   0  0  0  0  0  0  0  0  0  0  0  0
   36.3040   26.8990   39.7050 H   0  0  0  0  0  0  0  0  0  0  0  0
   36.2420   28.5260   37.8120 H   0  0  0  0  0  0  0  0  0  0  0  0
   36.5460   27.6480   42.2400 O   0  0  0  0  0  0  0  0  0  0  0  0
   37.5560   26.7720   42.5270 C   0  0  0  0  0  0  0  0  0  0  0  0
   37.8570   25.4790   42.1930 C   0  0  0  0  0  0  0  0  0  0  0  0
   37.1110   25.0500   41.5440 H   0  0  0  0  0  0  0  0  0  0  0  0
   38.9780   24.8170   42.6370 C   0  0  0  0  0  0  0  0  0  0  0  0
   39.0870   23.8010   42.2930 H   0  0  0  0  0  0  0  0  0  0  0  0
   39.8680   25.4690   43.4680 C   0  0  0  0  0  3  0  0  0  0  0  0
   39.5490   26.7650   43.7910 C   0  0  0  0  0  3  0  0  0  0  0  0
   38.4410   27.4100   43.3480 N   0  0  0  0  0  0  0  0  0  0  0  0
  2  1  2  6  0  0  0
  2 25  1  0  0  0  0
  2  5  1  0  0  0  0
  3  4  1  0  0  0  0
  3  2  1  0  0  0  0
  6 11  1  1  0  0  0
  7 12  1  6  0  0  0
  7  8  1  0  0  0  0
  7  5  1  0  0  0  0
  7  6  1  0  0  0  0
  8  9  1  0  0  0  0
  8 13  1  0  0  0  0
 10  9  1  0  0  0  0
 10 15  1  0  0  0  0
 10  6  1  0  0  0  0
 14  8  1  0  0  0  0
 16 10  1  0  0  0  0
 17  6  1  0  0  0  0
 17 18  1  0  0  0  0
 18 20  1  0  0  0  0
 18 19  1  0  0  0  0
 21 23  1  0  0  0  0
 21 18  1  0  0  0  0
 22 21  1  0  0  0  0
 24 21  1  0  0  0  0
 26 31  1  0  0  0  0
 26 34  1  0  0  0  0
 27 26  2  0  0  0  0
 28 29  2  0  0  0  0
 28 27  1  0  0  0  0
 29 30  1  0  0  0  0
 30 25  1  0  0  0  0
 30 31  2  0  0  0  0
 32 27  1  0  0  0  0
 33 28  1  0  0  0  0
 34 35  1  0  0  0  0
 35 42  1  0  0  0  0
 36 35  2  0  0  0  0
 36 38  1  0  0  0  0
 37 36  1  0  0  0  0
 38 40  2  0  0  0  0
 39 38  1  0  0  0  0
 40 41  1  0  0  0  0
 42 41  2  0  0  0  0
M  END
>  <minimizedAffinity>
-5.1772933

$$$$

 OpenBabel03252500283D

 42 44  0  0  1  0  0  0  0  0999 V2000
   36.2350   30.9980   41.0520 O   0  0  0  0  0  0  0  0  0  0  0  0
   37.2940   31.7300   40.3100 P   0  0  1  0  0  0  0  0  0  0  0  0
   36.8020   33.3300   40.0390 O   0  0  0  0  0  0  0  0  0  0  0  0
   37.0820   33.6490   39.1410 H   0  0  0  0  0  0  0  0  0  0  0  0
   38.6490   31.7150   41.2610 O   0  0  0  0  0  0  0  0  0  0  0  0
   39.2180   29.9220   42.7310 C   0  0  2  0  0  0  0  0  0  0  0  0
   39.1480   30.4390   41.3480 C   0  0  2  0  0  0  0  0  0  0  0  0
   40.4760   30.2990   40.7940 C   0  0  0  0  0  0  0  0  0  0  0  0
   41.1680   29.3170   41.5200 O   0  0  0  0  0  0  0  0  0  0  0  0
   40.2800   28.7990   42.4000 C   0  0  0  0  0  0  0  0  0  0  0  0
   39.8670   30.4410   43.4550 H   0  0  0  0  0  0  0  0  0  0  0  0
   38.3230   29.8160   40.8930 H   0  0  0  0  0  0  0  0  0  0  0  0
   41.0450   31.0620   40.3120 H   0  0  0  0  0  0  0  0  0  0  0  0
   40.2970   29.6580   39.8570 H   0  0  0  0  0  0  0  0  0  0  0  0
   40.6610   28.3530   43.3150 H   0  0  0  0  0  0  0  0  0  0  0  0
   39.6250   28.0240   41.9060 H   0  0  0  0  0  0  0  0  0  0  0  0
   38.1320   29.3120   43.2260 O   0  0  0  0  0  0  0  0  0  0  0  0
   37.5460   28.2550   42.7440 C   0  0  0  0  0  0  0  0  0  0  0  0
   38.0460   27.5930   42.1070 H   0  0  0  0  0  0  0  0  0  0  0  0
   36.7030   28.6400   41.9540 H   0  0  0  0  0  0  0  0  0  0  0  0
   36.6620   27.6500   43.8170 C   0  0  0  0  0  0  0  0  0  0  0  0
   37.2240   27.2680   44.6650 H   0  0  0  0  0  0  0  0  0  0  0  0
   36.0280   26.8890   43.3080 H   0  0  0  0  0  0  0  0  0  0  0  0
   35.9490   28.4690   44.0960 H   0  0  0  0  0  0  0  0  0  0  0  0
   37.5170   30.8810   38.8450 O   0  0  0  0  0  0  0  0  0  0  0  0
   36.9010   27.3550   38.5890 C   0  0  0  0  0  0  0  0  0  0  0  0
   35.5590   27.2790   38.0800 C   0  0  0  0  0  0  0  0  0  0  0  0
   34.9050   28.5150   37.8390 C   0  0  0  0  0  0  0  0  0  0  0  0
   35.5640   29.6640   38.0970 N   0  0  0  0  0  0  0  0  0  0  0  0
   36.8180   29.6860   38.5720 C   0  0  0  0  0  0  0  0  0  0  0  0
   37.4430   28.5340   38.8000 N   0  0  0  0  0  0  0  0  0  0  0  0
   35.0360   26.3620   37.8760 H   0  0  0  0  0  0  0  0  0  0  0  0
   33.8960   28.5430   37.4580 H   0  0  0  0  0  0  0  0  0  0  0  0
   37.5120   26.1880   38.8170 O   0  0  0  0  0  0  0  0  0  0  0  0
   37.6780   25.5840   40.0320 C   0  0  0  0  0  0  0  0  0  0  0  0
   36.8690   24.9200   40.9160 C   0  0  0  0  0  0  0  0  0  0  0  0
   35.8530   24.8610   40.5600 H   0  0  0  0  0  0  0  0  0  0  0  0
   37.3110   24.3950   42.1080 C   0  0  0  0  0  0  0  0  0  0  0  0
   36.5630   23.8980   42.7040 H   0  0  0  0  0  0  0  0  0  0  0  0
   38.6390   24.5300   42.4600 C   0  0  0  0  0  3  0  0  0  0  0  0
   39.4340   25.1990   41.5610 C   0  0  0  0  0  3  0  0  0  0  0  0
   38.9890   25.7130   40.3870 N   0  0  0  0  0  0  0  0  0  0  0  0
  2  1  2  1  0  0  0
  2  5  1  0  0  0  0
  3  2  1  0  0  0  0
  4  3  1  0  0  0  0
  5  7  1  0  0  0  0
  6 17  1  0  0  0  0
  6 11  1  1  0  0  0
  7 12  1  6  0  0  0
  7  6  1  0  0  0  0
  8  7  1  0  0  0  0
  8  9  1  0  0  0  0
  9 10  1  0  0  0  0
 10  6  1  0  0  0  0
 10 15  1  0  0  0  0
 13  8  1  0  0  0  0
 14  8  1  0  0  0  0
 16 10  1  0  0  0  0
 18 17  1  0  0  0  0
 18 21  1  0  0  0  0
 19 18  1  0  0  0  0
 20 18  1  0  0  0  0
 21 24  1  0  0  0  0
 21 22  1  0  0  0  0
 23 21  1  0  0  0  0
 25  2  1  0  0  0  0
 26 31  1  0  0  0  0
 26 34  1  0  0  0  0
 27 26  2  0  0  0  0
 28 27  1  0  0  0  0
 28 29  2  0  0  0  0
 29 30  1  0  0  0  0
 30 31  2  0  0  0  0
 30 25  1  0  0  0  0
 32 27  1  0  0  0  0
 33 28  1  0  0  0  0
 34 35  1  0  0  0  0
 35 42  2  0  0  0  0
 35 36  1  0  0  0  0
 36 38  2  0  0  0  0
 37 36  1  0  0  0  0
 38 40  1  0  0  0  0
 38 39  1  0  0  0  0
 41 40  2  0  0  0  0
 42 41  1  0  0  0  0
M  END
>  <minimizedAffinity>
-5.16893387

$$$$
