
 OpenBabel03252509123D

 31 34  0  0  0  0  0  0  0  0999 V2000
   47.7160   30.7610   44.7510 C   0  0  0  0  0  0  0  0  0  0  0  0
   47.4950   31.9210   43.9990 C   0  0  0  0  0  0  0  0  0  0  0  0
   46.7300   32.9610   44.4580 C   0  0  0  0  0  0  0  0  0  0  0  0
   46.1340   32.8860   45.7280 C   0  0  0  0  0  0  0  0  0  0  0  0
   45.3470   33.6820   46.4830 N   0  0  0  0  0  0  0  0  0  0  0  0
   45.0760   33.0730   47.6520 C   0  0  0  0  0  0  0  0  0  0  0  0
   45.7190   31.8790   47.5980 N   0  0  0  0  0  0  0  0  0  0  0  0
   46.3670   31.7410   46.4390 C   0  0  0  0  0  0  0  0  0  0  0  0
   47.1310   30.6710   46.0120 C   0  0  0  0  0  0  0  0  0  0  0  0
   48.3240   29.9610   44.3570 H   0  0  0  0  0  0  0  0  0  0  0  0
   45.0140   34.6180   46.1850 H   0  0  0  0  0  0  0  0  0  0  0  0
   44.4630   33.4890   48.4500 H   0  0  0  0  0  0  0  0  0  0  0  0
   47.2690   29.7980   46.6360 H   0  0  0  0  0  0  0  0  0  0  0  0
   47.9870   31.6940   40.3720 C   0  0  0  0  0  0  0  0  0  0  0  0
   49.2710   32.2320   40.2080 C   0  0  0  0  0  0  0  0  0  0  0  0
   49.9510   32.6660   41.3420 C   0  0  0  0  0  0  0  0  0  0  0  0
   49.3370   32.5470   42.5620 N   0  0  0  0  0  0  0  0  0  0  0  0
   48.1020   32.0250   42.6770 C   0  0  0  0  0  0  0  0  0  0  0  0
   47.4030   31.5890   41.5940 N   0  0  0  0  0  0  0  0  0  0  0  0
   47.3530   31.3220   39.5780 H   0  0  0  0  0  0  0  0  0  0  0  0
   49.6550   32.2790   39.2090 H   0  0  0  0  0  0  0  0  0  0  0  0
   50.9430   33.0830   41.2220 H   0  0  0  0  0  0  0  0  0  0  0  0
   46.4570   34.4340   43.5050 S   0  0  0  0  0  0  0  0  0  0  0  0
   44.9490   34.3800   42.5470 C   0  0  0  0  0  0  0  0  0  0  0  0
   44.2830   33.1950   42.2680 C   0  0  0  0  0  0  0  0  0  0  0  0
   44.6900   32.2630   42.6420 H   0  0  0  0  0  0  0  0  0  0  0  0
   43.1160   33.1780   41.5250 C   0  0  0  0  0  0  0  0  0  0  0  0
   42.5770   32.2740   41.2910 H   0  0  0  0  0  0  0  0  0  0  0  0
   42.5690   34.3590   41.0300 C   0  0  0  0  0  3  0  0  0  0  0  0
   43.2580   35.5130   41.3280 C   0  0  0  0  0  3  0  0  0  0  0  0
   44.3760   35.5070   42.0430 N   0  0  0  0  0  0  0  0  0  0  0  0
  1  9  1  0  0  0  0
  2  3  1  0  0  0  0
  2  1  2  0  0  0  0
  3  4  2  0  0  0  0
  4  8  1  0  0  0  0
  4  5  1  0  0  0  0
  5  6  1  0  0  0  0
  6 12  1  0  0  0  0
  7  6  2  0  0  0  0
  8  7  1  0  0  0  0
  9  8  2  0  0  0  0
  9 13  1  0  0  0  0
 10  1  1  0  0  0  0
 11  5  1  0  0  0  0
 14 19  1  0  0  0  0
 15 14  2  0  0  0  0
 15 16  1  0  0  0  0
 16 17  2  0  0  0  0
 17 18  1  0  0  0  0
 18  2  1  0  0  0  0
 19 18  2  0  0  0  0
 20 14  1  0  0  0  0
 21 15  1  0  0  0  0
 22 16  1  0  0  0  0
 23  3  1  0  0  0  0
 24 23  1  0  0  0  0
 25 24  1  0  0  0  0
 25 26  1  0  0  0  0
 27 25  2  0  0  0  0
 28 27  1  0  0  0  0
 29 30  2  0  0  0  0
 29 27  1  0  0  0  0
 30 31  1  0  0  0  0
 31 24  2  0  0  0  0
M  END
>  <minimizedAffinity>
-4.86975431

>  <minimizedRMSD>
2.04752111

$$$$
