
 OpenBabel03252509123D

 31 34  0  0  0  0  0  0  0  0999 V2000
   47.7160   30.7610   44.7520 C   0  0  0  0  0  0  0  0  0  0  0  0
   47.4960   31.9200   43.9990 C   0  0  0  0  0  0  0  0  0  0  0  0
   46.7300   32.9610   44.4580 C   0  0  0  0  0  0  0  0  0  0  0  0
   46.1340   32.8860   45.7280 C   0  0  0  0  0  0  0  0  0  0  0  0
   45.3470   33.6830   46.4820 N   0  0  0  0  0  0  0  0  0  0  0  0
   45.0750   33.0740   47.6510 C   0  0  0  0  0  0  0  0  0  0  0  0
   45.7180   31.8800   47.5980 N   0  0  0  0  0  0  0  0  0  0  0  0
   46.3670   31.7420   46.4390 C   0  0  0  0  0  0  0  0  0  0  0  0
   47.1300   30.6720   46.0130 C   0  0  0  0  0  0  0  0  0  0  0  0
   48.3240   29.9610   44.3590 H   0  0  0  0  0  0  0  0  0  0  0  0
   45.0140   34.6190   46.1830 H   0  0  0  0  0  0  0  0  0  0  0  0
   44.4630   33.4910   48.4490 H   0  0  0  0  0  0  0  0  0  0  0  0
   47.2690   29.7990   46.6370 H   0  0  0  0  0  0  0  0  0  0  0  0
   47.9880   31.6960   40.3720 C   0  0  0  0  0  0  0  0  0  0  0  0
   49.2720   32.2300   40.2090 C   0  0  0  0  0  0  0  0  0  0  0  0
   49.9540   32.6610   41.3430 C   0  0  0  0  0  0  0  0  0  0  0  0
   49.3390   32.5420   42.5630 N   0  0  0  0  0  0  0  0  0  0  0  0
   48.1030   32.0240   42.6780 C   0  0  0  0  0  0  0  0  0  0  0  0
   47.4030   31.5910   41.5940 N   0  0  0  0  0  0  0  0  0  0  0  0
   47.3520   31.3260   39.5780 H   0  0  0  0  0  0  0  0  0  0  0  0
   49.6570   32.2760   39.2090 H   0  0  0  0  0  0  0  0  0  0  0  0
   50.9470   33.0750   41.2240 H   0  0  0  0  0  0  0  0  0  0  0  0
   46.4580   34.4340   43.5040 S   0  0  0  0  0  0  0  0  0  0  0  0
   44.9490   34.3790   42.5470 C   0  0  0  0  0  0  0  0  0  0  0  0
   44.2830   33.1950   42.2690 C   0  0  0  0  0  0  0  0  0  0  0  0
   44.6890   32.2630   42.6440 H   0  0  0  0  0  0  0  0  0  0  0  0
   43.1160   33.1770   41.5270 C   0  0  0  0  0  0  0  0  0  0  0  0
   42.5750   32.2740   41.2940 H   0  0  0  0  0  0  0  0  0  0  0  0
   42.5690   34.3590   41.0310 C   0  0  0  0  0  3  0  0  0  0  0  0
   43.2580   35.5140   41.3280 C   0  0  0  0  0  3  0  0  0  0  0  0
   44.3770   35.5060   42.0430 N   0  0  0  0  0  0  0  0  0  0  0  0
  1  9  1  0  0  0  0
  2  3  1  0  0  0  0
  2  1  2  0  0  0  0
  3  4  2  0  0  0  0
  4  8  1  0  0  0  0
  4  5  1  0  0  0  0
  5  6  1  0  0  0  0
  6 12  1  0  0  0  0
  7  6  2  0  0  0  0
  8  7  1  0  0  0  0
  9  8  2  0  0  0  0
  9 13  1  0  0  0  0
 10  1  1  0  0  0  0
 11  5  1  0  0  0  0
 14 19  1  0  0  0  0
 15 14  2  0  0  0  0
 15 16  1  0  0  0  0
 16 17  2  0  0  0  0
 17 18  1  0  0  0  0
 18  2  1  0  0  0  0
 19 18  2  0  0  0  0
 20 14  1  0  0  0  0
 21 15  1  0  0  0  0
 22 16  1  0  0  0  0
 23  3  1  0  0  0  0
 24 23  1  0  0  0  0
 25 24  1  0  0  0  0
 25 26  1  0  0  0  0
 27 25  2  0  0  0  0
 28 27  1  0  0  0  0
 29 30  2  0  0  0  0
 29 27  1  0  0  0  0
 30 31  1  0  0  0  0
 31 24  2  0  0  0  0
M  END
>  <minimizedAffinity>
-4.86982346

>  <minimizedRMSD>
2.03080821

$$$$
