
 OpenBabel03252509123D

 31 34  0  0  0  0  0  0  0  0999 V2000
   47.5280   31.2670   45.0130 C   0  0  0  0  0  0  0  0  0  0  0  0
   47.2700   32.3130   44.1190 C   0  0  0  0  0  0  0  0  0  0  0  0
   46.4440   33.3620   44.4310 C   0  0  0  0  0  0  0  0  0  0  0  0
   45.8210   33.4130   45.6900 C   0  0  0  0  0  0  0  0  0  0  0  0
   44.9770   34.2540   46.3240 N   0  0  0  0  0  0  0  0  0  0  0  0
   44.7070   33.7800   47.5550 C   0  0  0  0  0  0  0  0  0  0  0  0
   45.4080   32.6240   47.6620 N   0  0  0  0  0  0  0  0  0  0  0  0
   46.0920   32.3780   46.5410 C   0  0  0  0  0  0  0  0  0  0  0  0
   46.9160   31.3040   46.2650 C   0  0  0  0  0  0  0  0  0  0  0  0
   48.1840   30.4580   44.7340 H   0  0  0  0  0  0  0  0  0  0  0  0
   44.6070   35.1280   45.9070 H   0  0  0  0  0  0  0  0  0  0  0  0
   44.0550   34.2600   48.2840 H   0  0  0  0  0  0  0  0  0  0  0  0
   47.0810   30.5220   46.9940 H   0  0  0  0  0  0  0  0  0  0  0  0
   47.8690   31.6570   40.5610 C   0  0  0  0  0  0  0  0  0  0  0  0
   49.1230   32.2470   40.3530 C   0  0  0  0  0  0  0  0  0  0  0  0
   49.7470   32.8620   41.4340 C   0  0  0  0  0  0  0  0  0  0  0  0
   49.1090   32.8620   42.6480 N   0  0  0  0  0  0  0  0  0  0  0  0
   47.9040   32.2850   42.8060 C   0  0  0  0  0  0  0  0  0  0  0  0
   47.2600   31.6730   41.7760 N   0  0  0  0  0  0  0  0  0  0  0  0
   47.2780   31.1490   39.8100 H   0  0  0  0  0  0  0  0  0  0  0  0
   49.5300   32.1890   39.3630 H   0  0  0  0  0  0  0  0  0  0  0  0
   50.7160   33.3200   41.2800 H   0  0  0  0  0  0  0  0  0  0  0  0
   46.1240   34.6900   43.2970 S   0  0  0  0  0  0  0  0  0  0  0  0
   44.5940   34.4890   42.3970 C   0  0  0  0  0  0  0  0  0  0  0  0
   44.0430   33.2450   42.1280 C   0  0  0  0  0  0  0  0  0  0  0  0
   44.5560   32.3550   42.4750 H   0  0  0  0  0  0  0  0  0  0  0  0
   42.8560   33.1140   41.4290 C   0  0  0  0  0  0  0  0  0  0  0  0
   42.4030   32.1610   41.2040 H   0  0  0  0  0  0  0  0  0  0  0  0
   42.1730   34.2370   40.9690 C   0  0  0  0  0  3  0  0  0  0  0  0
   42.7510   35.4530   41.2550 C   0  0  0  0  0  3  0  0  0  0  0  0
   43.8900   35.5560   41.9280 N   0  0  0  0  0  0  0  0  0  0  0  0
  1  9  1  0  0  0  0
  2  3  1  0  0  0  0
  2  1  2  0  0  0  0
  3  4  2  0  0  0  0
  4  5  1  0  0  0  0
  4  8  1  0  0  0  0
  5  6  1  0  0  0  0
  6  7  2  0  0  0  0
  6 12  1  0  0  0  0
  8  7  1  0  0  0  0
  9  8  2  0  0  0  0
  9 13  1  0  0  0  0
 10  1  1  0  0  0  0
 11  5  1  0  0  0  0
 14 19  1  0  0  0  0
 15 14  2  0  0  0  0
 15 16  1  0  0  0  0
 16 17  2  0  0  0  0
 17 18  1  0  0  0  0
 18  2  1  0  0  0  0
 19 18  2  0  0  0  0
 20 14  1  0  0  0  0
 21 15  1  0  0  0  0
 22 16  1  0  0  0  0
 23  3  1  0  0  0  0
 24 23  1  0  0  0  0
 25 24  1  0  0  0  0
 25 26  1  0  0  0  0
 27 25  2  0  0  0  0
 28 27  1  0  0  0  0
 29 30  2  0  0  0  0
 29 27  1  0  0  0  0
 30 31  1  0  0  0  0
 31 24  2  0  0  0  0
M  END
>  <minimizedAffinity>
-4.81955242

>  <minimizedRMSD>
1.98401475

$$$$
