
 OpenBabel03242519363D

 23 24  0  0  0  0  0  0  0  0999 V2000
   47.9710   33.2600   40.1090 O   0  0  0  0  0  0  0  0  0  0  0  0
   47.9580   34.4210   41.0890 P   0  0  1  0  0  0  0  0  0  0  0  0
   48.8570   35.7190   40.5150 O   0  0  0  0  0  0  0  0  0  0  0  0
   49.6040   35.9510   41.1270 H   0  0  0  0  0  0  0  0  0  0  0  0
   46.3510   34.9410   41.3550 O   0  0  0  0  0  0  0  0  0  0  0  0
   44.7430   36.1030   44.4330 C   0  0  0  0  0  0  0  0  0  0  0  0
   45.2570   36.1040   43.1100 C   0  0  0  0  0  0  0  0  0  0  0  0
   45.8510   34.9220   42.6570 C   0  0  0  0  0  0  0  0  0  0  0  0
   45.9090   33.8510   43.4860 N   0  0  0  0  0  0  0  0  0  0  0  0
   45.4130   33.8760   44.7350 C   0  0  0  0  0  0  0  0  0  0  0  0
   44.8360   34.9880   45.2080 N   0  0  0  0  0  0  0  0  0  0  0  0
   44.2760   37.0110   44.8060 H   0  0  0  0  0  0  0  0  0  0  0  0
   45.1900   36.9790   42.4830 H   0  0  0  0  0  0  0  0  0  0  0  0
   45.5290   32.9460   45.2830 H   0  0  0  0  0  0  0  0  0  0  0  0
   48.5790   33.8670   42.5690 O   0  0  0  0  0  0  0  0  0  0  0  0
   49.2870   32.6590   42.6700 C   0  0  0  0  0  0  0  0  0  0  0  0
   50.6090   32.6390   42.2870 C   0  0  0  0  0  0  0  0  0  0  0  0
   51.0860   33.5330   41.9190 H   0  0  0  0  0  0  0  0  0  0  0  0
   51.2180   31.4060   42.4240 C   0  0  0  0  0  0  0  0  0  0  0  0
   52.2660   31.3160   42.1400 H   0  0  0  0  0  0  0  0  0  0  0  0
   50.4870   30.3280   42.9150 C   0  0  0  0  0  0  0  0  0  0  0  0
   49.1600   30.4150   43.2820 C   0  0  0  0  0  0  0  0  0  0  0  0
   48.5890   31.6250   43.1400 N   0  0  0  0  0  0  0  0  0  0  0  0
  2  1  2  6  0  0  0
  2  5  1  0  0  0  0
  2 15  1  0  0  0  0
  3  2  1  0  0  0  0
  3  4  1  0  0  0  0
  5  8  1  0  0  0  0
  6 12  1  0  0  0  0
  6 11  1  0  0  0  0
  7  6  2  0  0  0  0
  8  7  1  0  0  0  0
  8  9  2  0  0  0  0
  9 10  1  0  0  0  0
 10 11  2  0  0  0  0
 10 14  1  0  0  0  0
 13  7  1  0  0  0  0
 15 16  1  0  0  0  0
 16 23  1  0  0  0  0
 17 19  1  0  0  0  0
 17 16  2  0  0  0  0
 18 17  1  0  0  0  0
 19 21  2  0  0  0  0
 20 19  1  0  0  0  0
 21 22  1  0  0  0  0
 23 22  2  0  0  0  0
M  END
>  <minimizedAffinity>
-4.35229635

>  <minimizedRMSD>
1.22981918

$$$$
