
 OpenBabel03242518153D

 31 33  0  0  0  0  0  0  0  0999 V2000
   49.1040   33.1870   41.8500 C   0  0  0  0  0  0  0  0  0  0  0  0
   48.9130   32.4120   40.6820 C   0  0  0  0  0  0  0  0  0  0  0  0
   49.9260   31.7330   40.1020 C   0  0  0  0  0  0  0  0  0  0  0  0
   51.2190   31.8310   40.7250 C   0  0  0  0  0  0  0  0  0  0  0  0
   50.9630   32.9060   42.1480 S   0  0  0  0  0  0  0  0  0  0  0  0
   47.8880   32.4540   40.3580 H   0  0  0  0  0  0  0  0  0  0  0  0
   49.7730   31.1440   39.2140 H   0  0  0  0  0  0  0  0  0  0  0  0
   48.3200   33.9910   42.7110 C   0  0  0  0  0  0  0  0  0  0  0  0
   47.5160   33.3330   43.1620 H   0  0  0  0  0  0  0  0  0  0  0  0
   48.9350   34.2620   43.6070 H   0  0  0  0  0  0  0  0  0  0  0  0
   47.7150   35.2090   42.1410 C   0  0  0  0  0  0  0  0  0  0  0  0
   47.9970   36.1130   42.7140 H   0  0  0  0  0  0  0  0  0  0  0  0
   48.0550   35.4030   41.0820 H   0  0  0  0  0  0  0  0  0  0  0  0
   46.2600   35.1020   42.1270 C   0  0  0  0  0  0  0  0  0  0  0  0
   45.4870   35.6600   43.1270 C   0  0  0  0  0  0  0  0  0  0  0  0
   44.1050   35.5110   43.0380 C   0  0  0  0  0  0  0  0  0  0  0  0
   43.5830   34.8360   41.9890 N   0  0  0  0  0  0  0  0  0  0  0  0
   44.3830   34.3080   41.0370 C   0  0  0  0  0  0  0  0  0  0  0  0
   45.6810   34.4410   41.1090 N   0  0  0  0  0  0  0  0  0  0  0  0
   46.0340   36.1780   43.9140 H   0  0  0  0  0  0  0  0  0  0  0  0
   43.5530   35.9680   43.8480 H   0  0  0  0  0  0  0  0  0  0  0  0
   43.9090   33.7780   40.2220 H   0  0  0  0  0  0  0  0  0  0  0  0
   52.3330   31.2970   40.3880 O   0  0  0  0  0  0  0  0  0  0  0  0
   52.8950   30.2460   41.1000 C   0  0  0  0  0  0  0  0  0  0  0  0
   54.2420   29.9740   41.0480 C   0  0  0  0  0  0  0  0  0  0  0  0
   54.9170   30.5630   40.4540 H   0  0  0  0  0  0  0  0  0  0  0  0
   54.6280   28.8860   41.8240 C   0  0  0  0  0  0  0  0  0  0  0  0
   55.6790   28.6000   41.8400 H   0  0  0  0  0  0  0  0  0  0  0  0
   53.7630   28.1370   42.5800 C   0  0  0  0  0  0  0  0  0  0  0  0
   52.4310   28.4510   42.5960 C   0  0  0  0  0  0  0  0  0  0  0  0
   52.0440   29.5130   41.8410 N   0  0  0  0  0  0  0  0  0  0  0  0
  1  5  1  0  0  0  0
  1  8  1  0  0  0  0
  2  1  2  0  0  0  0
  3  2  1  0  0  0  0
  3  4  2  0  0  0  0
  4  5  1  0  0  0  0
  6  2  1  0  0  0  0
  7  3  1  0  0  0  0
  8  9  1  0  0  0  0
  8 10  1  0  0  0  0
 11  8  1  0  0  0  0
 11 12  1  0  0  0  0
 13 11  1  0  0  0  0
 14 11  1  0  0  0  0
 14 15  1  0  0  0  0
 15 20  1  0  0  0  0
 16 15  2  0  0  0  0
 16 21  1  0  0  0  0
 17 16  1  0  0  0  0
 18 19  1  0  0  0  0
 18 17  2  0  0  0  0
 19 14  2  0  0  0  0
 22 18  1  0  0  0  0
 23  4  1  0  0  0  0
 23 24  1  0  0  0  0
 24 31  1  0  0  0  0
 25 24  2  0  0  0  0
 25 27  1  0  0  0  0
 26 25  1  0  0  0  0
 27 28  1  0  0  0  0
 27 29  2  0  0  0  0
 29 30  1  0  0  0  0
 31 30  2  0  0  0  0
M  END
>  <minimizedAffinity>
-3.7085917

>  <minimizedRMSD>
1.81213355

$$$$
