
 OpenBabel03252505433D

 41 44  0  0  1  0  0  0  0  0999 V2000
   42.7010   34.8950   40.2590 C   0  0  0  0  0  0  0  0  0  0  0  0
   42.5860   35.1830   38.9150 C   0  0  0  0  0  0  0  0  0  0  0  0
   41.3940   35.0820   38.2340 C   0  0  0  0  0  0  0  0  0  0  0  0
   40.2960   34.6820   38.9350 N   0  0  0  0  0  0  0  0  0  0  0  0
   40.4000   34.3970   40.2550 C   0  0  0  0  0  0  0  0  0  0  0  0
   41.5710   34.4970   40.9170 N   0  0  0  0  0  0  0  0  0  0  0  0
   43.4410   35.5030   38.3340 H   0  0  0  0  0  0  0  0  0  0  0  0
   41.3110   35.3110   37.1770 H   0  0  0  0  0  0  0  0  0  0  0  0
   43.9780   34.6570   42.3600 C   0  0  1  0  0  0  0  0  0  0  0  0
   44.1900   36.1510   41.9400 C   0  0  0  0  0  0  0  0  0  0  0  0
   44.0200   34.9890   40.9670 C   0  0  2  0  0  0  0  0  0  0  0  0
   42.9930   34.5520   42.9050 H   0  0  0  0  0  0  0  0  0  0  0  0
   43.3270   36.8190   41.9830 H   0  0  0  0  0  0  0  0  0  0  0  0
   45.2150   36.5270   42.0380 H   0  0  0  0  0  0  0  0  0  0  0  0
   44.8930   34.7520   40.3340 H   0  0  0  0  0  0  0  0  0  0  0  0
   45.1110   34.0850   43.1230 C   0  0  0  0  0  0  0  0  0  0  0  0
   46.3420   33.9540   42.4570 C   0  0  0  0  0  0  0  0  0  0  0  0
   47.4200   33.4200   43.1520 C   0  0  0  0  0  0  0  0  0  0  0  0
   47.2260   33.0530   44.4430 N   0  0  0  0  0  0  0  0  0  0  0  0
   46.0450   33.1900   45.0470 C   0  0  0  0  0  0  0  0  0  0  0  0
   45.0220   33.7050   44.3610 N   0  0  0  0  0  0  0  0  0  0  0  0
   46.5110   34.2430   41.4270 H   0  0  0  0  0  0  0  0  0  0  0  0
   48.3570   33.3150   42.6630 H   0  0  0  0  0  0  0  0  0  0  0  0
   46.0320   32.7300   46.4740 C   0  0  0  0  0  0  0  0  0  0  0  0
   45.0560   33.3850   47.2090 F   0  0  0  0  0  0  0  0  0  0  0  0
   47.2670   33.0830   47.0710 F   0  0  0  0  0  0  0  0  0  0  0  0
   45.9540   31.3660   46.5280 F   0  0  0  0  0  0  0  0  0  0  0  0
   39.2340   33.9430   41.0590 C   0  0  0  0  0  0  0  0  0  0  0  0
   38.5500   34.7880   41.2240 H   0  0  0  0  0  0  0  0  0  0  0  0
   39.5680   33.5550   42.0500 H   0  0  0  0  0  0  0  0  0  0  0  0
   38.5290   32.8000   40.3590 C   0  0  0  0  0  0  0  0  0  0  0  0
   37.4510   33.0610   40.3160 H   0  0  0  0  0  0  0  0  0  0  0  0
   38.8650   32.7200   39.3100 H   0  0  0  0  0  0  0  0  0  0  0  0
   38.6730   31.5290   41.1030 C   0  0  0  0  0  0  0  0  0  0  0  0
   37.5820   30.6630   41.1470 C   0  0  0  0  0  0  0  0  0  0  0  0
   36.6700   30.9590   40.6310 H   0  0  0  0  0  0  0  0  0  0  0  0
   37.6030   29.4550   41.8100 C   0  0  0  0  0  0  0  0  0  0  0  0
   36.7270   28.8050   41.8200 H   0  0  0  0  0  0  0  0  0  0  0  0
   38.7550   29.0730   42.4670 C   0  0  0  0  0  0  0  0  0  0  0  0
   39.8100   29.9530   42.4020 C   0  0  0  0  0  0  0  0  0  0  0  0
   39.7950   31.1430   41.7510 N   0  0  0  0  0  0  0  0  0  0  0  0
  1  6  1  0  0  0  0
  1 11  1  0  0  0  0
  2  1  2  0  0  0  0
  3  2  1  0  0  0  0
  3  4  2  0  0  0  0
  4  5  1  0  0  0  0
  5  6  2  0  0  0  0
  5 28  1  0  0  0  0
  7  2  1  0  0  0  0
  8  3  1  0  0  0  0
  9 12  1  1  0  0  0
  9 16  1  0  0  0  0
 10 13  1  0  0  0  0
 10 14  1  0  0  0  0
 10  9  1  0  0  0  0
 11 15  1  6  0  0  0
 11 10  1  0  0  0  0
 11  9  1  0  0  0  0
 16 21  1  0  0  0  0
 17 16  2  0  0  0  0
 17 18  1  0  0  0  0
 18 19  2  0  0  0  0
 19 20  1  0  0  0  0
 20 24  1  0  0  0  0
 21 20  2  0  0  0  0
 22 17  1  0  0  0  0
 23 18  1  0  0  0  0
 24 27  1  0  0  0  0
 24 26  1  0  0  0  0
 24 25  1  0  0  0  0
 28 29  1  0  0  0  0
 28 30  1  0  0  0  0
 31 28  1  0  0  0  0
 31 34  1  0  0  0  0
 32 31  1  0  0  0  0
 33 31  1  0  0  0  0
 34 35  2  0  0  0  0
 34 41  1  0  0  0  0
 35 37  1  0  0  0  0
 36 35  1  0  0  0  0
 37 38  1  0  0  0  0
 37 39  2  0  0  0  0
 40 39  1  0  0  0  0
 41 40  2  0  0  0  0
M  END
>  <minimizedAffinity>
-6.01327467

>  <minimizedRMSD>
1.63315308

$$$$
