
 OpenBabel03252506333D

 32 34  0  0  1  0  0  0  0  0999 V2000
   44.4960   35.6310   45.0690 C   0  0  0  0  0  0  0  0  0  0  0  0
   45.1560   35.6040   43.8180 C   0  0  0  0  0  0  0  0  0  0  0  0
   46.0650   34.6220   43.5800 C   0  0  0  0  0  0  0  0  0  0  0  0
   46.2920   33.7190   44.5520 N   0  0  0  0  0  0  0  0  0  0  0  0
   45.6630   33.7500   45.7340 C   0  0  0  0  0  0  0  0  0  0  0  0
   44.7600   34.6980   46.0190 N   0  0  0  0  0  0  0  0  0  0  0  0
   45.9790   32.7490   46.6980 N   0  0  0  0  0  0  0  0  0  0  0  0
   45.1960   32.4500   47.8880 C   0  0  0  0  0  0  0  0  0  0  0  0
   46.2920   32.1650   48.9020 C   0  0  0  0  0  0  0  0  0  0  0  0
   47.5850   32.0270   48.1350 C   0  0  0  0  0  0  0  0  0  0  0  0
   47.1090   31.8400   46.7080 C   0  0  1  0  0  0  0  0  0  0  0  0
   43.7610   36.3660   45.3540 H   0  0  0  0  0  0  0  0  0  0  0  0
   46.5400   34.6330   42.6360 H   0  0  0  0  0  0  0  0  0  0  0  0
   44.5120   31.5960   47.7430 H   0  0  0  0  0  0  0  0  0  0  0  0
   44.5600   33.3030   48.1870 H   0  0  0  0  0  0  0  0  0  0  0  0
   46.3480   33.0600   49.5650 H   0  0  0  0  0  0  0  0  0  0  0  0
   46.0480   31.3030   49.5330 H   0  0  0  0  0  0  0  0  0  0  0  0
   48.2750   32.8610   48.2690 H   0  0  0  0  0  0  0  0  0  0  0  0
   48.0260   31.0510   48.4520 H   0  0  0  0  0  0  0  0  0  0  0  0
   47.9000   32.1510   45.9930 H   0  0  0  0  0  0  0  0  0  0  0  0
   44.7650   36.6580   42.9340 N   0  0  0  0  0  0  0  0  0  0  0  0
   45.5280   37.1520   42.4300 H   0  0  0  0  0  0  0  0  0  0  0  0
   43.7760   36.9270   42.7940 H   0  0  0  0  0  0  0  0  0  0  0  0
   46.6120   30.1200   46.5110 S   0  0  0  0  0  0  0  0  0  0  0  0
   45.6120   29.8680   45.0550 C   0  0  0  0  0  0  0  0  0  0  0  0
   46.1220   30.3770   43.8680 C   0  0  0  0  0  0  0  0  0  0  0  0
   47.0820   30.9060   43.8130 H   0  0  0  0  0  0  0  0  0  0  0  0
   45.3880   30.2090   42.7050 C   0  0  0  0  0  0  0  0  0  0  0  0
   45.7670   30.5960   41.7820 H   0  0  0  0  0  0  0  0  0  0  0  0
   44.1650   29.5460   42.7120 C   0  0  0  0  0  3  0  0  0  0  0  0
   43.7040   29.0580   43.9250 C   0  0  0  0  0  3  0  0  0  0  0  0
   44.4210   29.2200   45.0750 N   0  0  0  0  0  0  0  0  0  0  0  0
  1 12  1  0  0  0  0
  1  6  1  0  0  0  0
  2  1  2  0  0  0  0
  3  2  1  0  0  0  0
  3  4  2  0  0  0  0
  4  5  1  0  0  0  0
  5  6  2  0  0  0  0
  5  7  1  0  0  0  0
  7 11  1  0  0  0  0
  7  8  1  0  0  0  0
  8 15  1  0  0  0  0
  8  9  1  0  0  0  0
  9 17  1  0  0  0  0
  9 16  1  0  0  0  0
 10 18  1  0  0  0  0
 10 19  1  0  0  0  0
 10  9  1  0  0  0  0
 11 20  1  6  0  0  0
 11 10  1  0  0  0  0
 13  3  1  0  0  0  0
 14  8  1  0  0  0  0
 21  2  1  0  0  0  0
 22 21  1  0  0  0  0
 23 21  1  0  0  0  0
 24 11  1  0  0  0  0
 25 32  1  0  0  0  0
 25 24  1  0  0  0  0
 26 25  2  0  0  0  0
 27 26  1  0  0  0  0
 28 30  2  0  0  0  0
 28 26  1  0  0  0  0
 29 28  1  0  0  0  0
 30 31  1  0  0  0  0
 31 32  2  0  0  0  0
M  END
>  <minimizedAffinity>
-4.95121288

>  <minimizedRMSD>
0.326230109

$$$$
