
 OpenBabel03252506333D

 32 34  0  0  1  0  0  0  0  0999 V2000
   44.4800   35.7560   44.9920 C   0  0  0  0  0  0  0  0  0  0  0  0
   45.1380   35.7170   43.7410 C   0  0  0  0  0  0  0  0  0  0  0  0
   46.0330   34.7220   43.5040 C   0  0  0  0  0  0  0  0  0  0  0  0
   46.2480   33.8180   44.4780 N   0  0  0  0  0  0  0  0  0  0  0  0
   45.6200   33.8600   45.6600 C   0  0  0  0  0  0  0  0  0  0  0  0
   44.7300   34.8210   45.9430 N   0  0  0  0  0  0  0  0  0  0  0  0
   45.9230   32.8560   46.6260 N   0  0  0  0  0  0  0  0  0  0  0  0
   45.1370   32.5710   47.8170 C   0  0  0  0  0  0  0  0  0  0  0  0
   46.2290   32.2740   48.8310 C   0  0  0  0  0  0  0  0  0  0  0  0
   47.5190   32.1150   48.0630 C   0  0  0  0  0  0  0  0  0  0  0  0
   47.0400   31.9320   46.6370 C   0  0  1  0  0  0  0  0  0  0  0  0
   43.7540   36.5020   45.2760 H   0  0  0  0  0  0  0  0  0  0  0  0
   46.5070   34.7240   42.5590 H   0  0  0  0  0  0  0  0  0  0  0  0
   44.4400   31.7270   47.6740 H   0  0  0  0  0  0  0  0  0  0  0  0
   44.5120   33.4340   48.1150 H   0  0  0  0  0  0  0  0  0  0  0  0
   46.2980   33.1690   49.4920 H   0  0  0  0  0  0  0  0  0  0  0  0
   45.9740   31.4160   49.4640 H   0  0  0  0  0  0  0  0  0  0  0  0
   48.2210   32.9400   48.1950 H   0  0  0  0  0  0  0  0  0  0  0  0
   47.9470   31.1340   48.3820 H   0  0  0  0  0  0  0  0  0  0  0  0
   47.8340   32.2300   45.9210 H   0  0  0  0  0  0  0  0  0  0  0  0
   44.7610   36.7750   42.8550 N   0  0  0  0  0  0  0  0  0  0  0  0
   45.5310   37.2570   42.3480 H   0  0  0  0  0  0  0  0  0  0  0  0
   43.7750   37.0570   42.7150 H   0  0  0  0  0  0  0  0  0  0  0  0
   46.5190   30.2190   46.4440 S   0  0  0  0  0  0  0  0  0  0  0  0
   46.0780   29.8320   44.7590 C   0  0  0  0  0  0  0  0  0  0  0  0
   46.7570   28.7670   44.1810 C   0  0  0  0  0  0  0  0  0  0  0  0
   47.5220   28.1890   44.7160 H   0  0  0  0  0  0  0  0  0  0  0  0
   46.4560   28.4200   42.8740 C   0  0  0  0  0  0  0  0  0  0  0  0
   46.9700   27.6020   42.4150 H   0  0  0  0  0  0  0  0  0  0  0  0
   45.4960   29.1150   42.1450 C   0  0  0  0  0  3  0  0  0  0  0  0
   44.8490   30.1680   42.7720 C   0  0  0  0  0  3  0  0  0  0  0  0
   45.1410   30.5170   44.0590 N   0  0  0  0  0  0  0  0  0  0  0  0
  1 12  1  0  0  0  0
  1  6  1  0  0  0  0
  2  1  2  0  0  0  0
  3  2  1  0  0  0  0
  3  4  2  0  0  0  0
  4  5  1  0  0  0  0
  5  6  2  0  0  0  0
  5  7  1  0  0  0  0
  7 11  1  0  0  0  0
  7  8  1  0  0  0  0
  8 15  1  0  0  0  0
  8  9  1  0  0  0  0
  9 17  1  0  0  0  0
  9 16  1  0  0  0  0
 10 18  1  0  0  0  0
 10 19  1  0  0  0  0
 10  9  1  0  0  0  0
 11 20  1  6  0  0  0
 11 10  1  0  0  0  0
 13  3  1  0  0  0  0
 14  8  1  0  0  0  0
 21  2  1  0  0  0  0
 22 21  1  0  0  0  0
 23 21  1  0  0  0  0
 24 11  1  0  0  0  0
 25 24  1  0  0  0  0
 26 27  1  0  0  0  0
 26 25  1  0  0  0  0
 28 26  2  0  0  0  0
 29 28  1  0  0  0  0
 30 31  2  0  0  0  0
 30 28  1  0  0  0  0
 31 32  1  0  0  0  0
 32 25  2  0  0  0  0
M  END
>  <minimizedAffinity>
-4.80311108

>  <minimizedRMSD>
0.399396986

$$$$
