
 OpenBabel03252503093D

 40 44  0  0  1  0  0  0  0  0999 V2000
   47.4340   33.0810   41.2040 C   0  0  0  0  0  0  0  0  0  0  0  0
   47.9740   31.8120   41.2030 C   0  0  0  0  0  0  0  0  0  0  0  0
   48.5260   31.4380   42.0760 H   0  0  0  0  0  0  0  0  0  0  0  0
   47.8710   30.9500   40.1450 C   0  0  0  0  0  0  0  0  0  0  0  0
   48.3110   29.9740   40.1950 H   0  0  0  0  0  0  0  0  0  0  0  0
   47.1800   31.3900   39.0060 C   0  0  0  0  0  0  0  0  0  0  0  0
   46.6390   32.6550   39.0040 C   0  0  0  0  0  0  0  0  0  0  0  0
   46.7750   33.4630   40.0880 C   0  0  0  0  0  0  0  0  0  0  0  0
   46.3770   34.4690   40.1620 H   0  0  0  0  0  0  0  0  0  0  0  0
   45.7480   33.2460   37.5810 S   0  0  0  0  0  0  0  0  0  0  0  0
   45.8850   31.9670   36.3460 C   0  0  0  0  0  0  0  0  0  0  0  0
   45.3680   32.1590   35.1120 C   0  0  0  0  0  0  0  0  0  0  0  0
   44.8690   33.1180   34.9130 H   0  0  0  0  0  0  0  0  0  0  0  0
   45.4260   31.2280   34.1050 C   0  0  0  0  0  0  0  0  0  0  0  0
   44.9890   31.4510   33.1460 H   0  0  0  0  0  0  0  0  0  0  0  0
   46.0720   30.0260   34.4340 C   0  0  0  0  0  0  0  0  0  0  0  0
   46.1340   29.2750   33.6660 H   0  0  0  0  0  0  0  0  0  0  0  0
   46.5970   29.8410   35.7050 C   0  0  0  0  0  0  0  0  0  0  0  0
   47.0650   28.8880   35.8380 H   0  0  0  0  0  0  0  0  0  0  0  0
   46.5110   30.8340   36.7150 C   0  0  0  0  0  0  0  0  0  0  0  0
   47.1270   30.5030   37.9190 N   0  0  0  0  0  0  0  0  0  0  0  0
   47.5730   29.5450   38.0300 H   0  0  0  0  0  0  0  0  0  0  0  0
   47.6780   33.8770   42.4580 C   0  0  1  0  0  3  0  0  0  0  0  0
   48.8420   34.0480   42.9980 O   0  0  0  0  0  1  0  0  0  0  0  0
   46.2030   35.7920   42.6840 C   0  0  0  0  0  0  0  0  0  0  0  0
   46.5980   34.5110   43.1280 C   0  0  0  0  0  0  0  0  0  0  0  0
   45.8630   33.9840   44.1700 C   0  0  0  0  0  0  0  0  0  0  0  0
   44.8330   34.6520   44.7220 N   0  0  0  0  0  0  0  0  0  0  0  0
   44.4800   35.8830   44.2690 C   0  0  0  0  0  0  0  0  0  0  0  0
   45.1750   36.4400   43.2470 N   0  0  0  0  0  0  0  0  0  0  0  0
   46.7430   36.2560   41.8720 H   0  0  0  0  0  0  0  0  0  0  0  0
   43.6320   36.3370   44.7860 H   0  0  0  0  0  0  0  0  0  0  0  0
   46.2120   32.7330   44.6650 C   0  0  0  0  0  0  0  0  0  0  0  0
   47.0430   32.2920   45.6730 C   0  0  0  0  0  0  0  0  0  0  0  0
   47.1990   31.0080   45.9430 C   0  0  0  0  0  0  0  0  0  0  0  0
   46.4940   30.1000   45.1790 C   0  0  0  0  0  0  0  0  0  0  0  0
   45.5610   31.2060   44.0080 S   0  0  0  0  0  0  0  0  0  0  0  0
   47.6170   32.8380   46.3820 H   0  0  0  0  0  0  0  0  0  0  0  0
   47.7380   30.3770   46.6200 H   0  0  0  0  0  0  0  0  0  0  0  0
   46.2960   29.0460   45.0200 H   0  0  0  0  0  0  0  0  0  0  0  0
  1 23  1  0  0  0  0
  2  1  1  0  0  0  0
  2  3  1  0  0  0  0
  4  5  1  0  0  0  0
  4  2  2  0  0  0  0
  6  4  1  0  0  0  0
  7  6  2  0  0  0  0
  7  8  1  0  0  0  0
  8  9  1  0  0  0  0
  8  1  2  0  0  0  0
 10  7  1  0  0  0  0
 11 20  1  0  0  0  0
 11 10  1  0  0  0  0
 12 11  2  0  0  0  0
 13 12  1  0  0  0  0
 14 16  2  0  0  0  0
 14 12  1  0  0  0  0
 15 14  1  0  0  0  0
 16 18  1  0  0  0  0
 17 16  1  0  0  0  0
 18 19  1  0  0  0  0
 18 20  2  0  0  0  0
 20 21  1  0  0  0  0
 21 22  1  0  0  0  0
 21  6  1  0  0  0  0
 23 24  1  6  0  0  0
 23 26  1  0  0  0  0
 25 26  2  0  0  0  0
 25 30  1  0  0  0  0
 26 27  1  0  0  0  0
 27 33  1  0  0  0  0
 27 28  2  0  0  0  0
 29 28  1  0  0  0  0
 29 32  1  0  0  0  0
 30 29  2  0  0  0  0
 31 25  1  0  0  0  0
 33 34  2  0  0  0  0
 34 35  1  0  0  0  0
 34 38  1  0  0  0  0
 35 39  1  0  0  0  0
 36 35  2  0  0  0  0
 37 33  1  0  0  0  0
 37 36  1  0  0  0  0
 40 36  1  0  0  0  0
M  END
>  <minimizedAffinity>
-4.84269667

>  <minimizedRMSD>
1.79026699

$$$$
