
 OpenBabel03252502433D

 44 48  0  0  1  0  0  0  0  0999 V2000
   48.7050   34.9070   41.5140 C   0  0  1  0  0  0  0  0  0  0  0  0
   49.5770   34.7340   42.6560 C   0  0  0  0  0  0  0  0  0  0  0  0
   49.6130   33.8670   41.4020 C   0  0  1  0  0  0  0  0  0  0  0  0
   48.8400   35.9140   41.0190 H   0  0  0  0  0  0  0  0  0  0  0  0
   49.3080   34.2840   43.6080 H   0  0  0  0  0  0  0  0  0  0  0  0
   50.5170   35.3530   42.7630 H   0  0  0  0  0  0  0  0  0  0  0  0
   50.3330   34.1550   40.5590 H   0  0  0  0  0  0  0  0  0  0  0  0
   50.1420   32.5840   41.6760 C   0  0  0  0  0  0  0  0  0  0  0  0
   49.5380   31.6450   42.5320 C   0  0  0  0  0  0  0  0  0  0  0  0
   48.6200   31.9300   43.0300 H   0  0  0  0  0  0  0  0  0  0  0  0
   50.1300   30.4170   42.7010 C   0  0  0  0  0  0  0  0  0  0  0  0
   49.5770   29.7620   43.3880 H   0  0  0  0  0  0  0  0  0  0  0  0
   51.2990   30.1030   42.0440 C   0  0  0  0  0  0  0  0  0  0  0  0
   51.9330   30.9550   41.2090 C   0  0  0  0  0  0  0  0  0  0  0  0
   51.3310   32.1550   41.0600 C   0  0  0  0  0  0  0  0  0  0  0  0
   51.8100   32.8800   40.3900 H   0  0  0  0  0  0  0  0  0  0  0  0
   53.4260   30.4780   40.4050 S   0  0  0  0  0  0  0  0  0  0  0  0
   53.7630   28.8100   40.9530 C   0  0  0  0  0  0  0  0  0  0  0  0
   54.8970   28.2720   40.4220 C   0  0  0  0  0  0  0  0  0  0  0  0
   55.5590   28.7620   39.7370 H   0  0  0  0  0  0  0  0  0  0  0  0
   55.2450   26.9740   40.7900 C   0  0  0  0  0  0  0  0  0  0  0  0
   56.1210   26.4620   40.4260 H   0  0  0  0  0  0  0  0  0  0  0  0
   54.4330   26.2920   41.6680 C   0  0  0  0  0  0  0  0  0  0  0  0
   54.6870   25.2820   41.9650 H   0  0  0  0  0  0  0  0  0  0  0  0
   53.3210   26.9200   42.1410 C   0  0  0  0  0  0  0  0  0  0  0  0
   52.7090   26.3260   42.8390 H   0  0  0  0  0  0  0  0  0  0  0  0
   52.8990   28.1990   41.8330 C   0  0  0  0  0  0  0  0  0  0  0  0
   51.7390   28.7980   42.3520 N   0  0  0  0  0  0  0  0  0  0  0  0
   51.2340   28.1320   43.0120 H   0  0  0  0  0  0  0  0  0  0  0  0
   47.2240   34.6790   41.6550 C   0  0  0  0  0  0  0  0  0  0  0  0
   46.8040   35.7000   41.8970 H   0  0  0  0  0  0  0  0  0  0  0  0
   46.7510   34.3110   40.7440 H   0  0  0  0  0  0  0  0  0  0  0  0
   47.1230   33.7570   42.8270 C   0  0  0  0  0  0  0  0  0  0  0  0
   48.0080   33.9090   43.4690 H   0  0  0  0  0  0  0  0  0  0  0  0
   46.8970   32.7190   42.5730 H   0  0  0  0  0  0  0  0  0  0  0  0
   44.5980   36.0130   44.4470 C   0  0  0  0  0  0  0  0  0  0  0  0
   45.4740   35.4630   43.4800 C   0  0  0  0  0  0  0  0  0  0  0  0
   46.1630   34.3310   43.8120 C   0  0  0  0  0  0  0  0  0  0  0  0
   45.9840   33.7760   45.0460 N   0  0  0  0  0  0  0  0  0  0  0  0
   45.1630   34.3030   45.9370 C   0  0  0  0  0  0  0  0  0  0  0  0
   44.4710   35.4100   45.6530 N   0  0  0  0  0  0  0  0  0  0  0  0
   44.0090   36.9040   44.2850 H   0  0  0  0  0  0  0  0  0  0  0  0
   45.4560   36.0430   42.5740 H   0  0  0  0  0  0  0  0  0  0  0  0
   44.9950   33.8910   46.9270 H   0  0  0  0  0  0  0  0  0  0  0  0
  1  4  1  6  0  0  0
  1 30  1  0  0  0  0
  1  2  1  0  0  0  0
  2  6  1  0  0  0  0
  2  5  1  0  0  0  0
  3  7  1  6  0  0  0
  3  1  1  0  0  0  0
  3  8  1  0  0  0  0
  3  2  1  0  0  0  0
  8  9  1  0  0  0  0
  9 11  2  0  0  0  0
  9 10  1  0  0  0  0
 11 12  1  0  0  0  0
 13 28  1  0  0  0  0
 13 11  1  0  0  0  0
 14 13  2  0  0  0  0
 15 14  1  0  0  0  0
 15  8  2  0  0  0  0
 16 15  1  0  0  0  0
 17 18  1  0  0  0  0
 17 14  1  0  0  0  0
 18 27  1  0  0  0  0
 19 21  1  0  0  0  0
 19 18  2  0  0  0  0
 20 19  1  0  0  0  0
 21 23  2  0  0  0  0
 22 21  1  0  0  0  0
 23 24  1  0  0  0  0
 23 25  1  0  0  0  0
 25 26  1  0  0  0  0
 27 25  2  0  0  0  0
 27 28  1  0  0  0  0
 28 29  1  0  0  0  0
 30 31  1  0  0  0  0
 30 33  1  0  0  0  0
 32 30  1  0  0  0  0
 33 34  1  0  0  0  0
 33 38  1  0  0  0  0
 35 33  1  0  0  0  0
 36 41  1  0  0  0  0
 37 38  1  0  0  0  0
 37 36  2  0  0  0  0
 38 39  2  0  0  0  0
 39 40  1  0  0  0  0
 40 44  1  0  0  0  0
 41 40  2  0  0  0  0
 42 36  1  0  0  0  0
 43 37  1  0  0  0  0
M  END
>  <minimizedAffinity>
-4.98592615

>  <minimizedRMSD>
3.59645534

$$$$
