
 OpenBabel03252504093D

 38 41  0  0  0  0  0  0  0  0999 V2000
   47.8330   30.9850   44.6600 C   0  0  0  0  0  0  0  0  0  0  0  0
   47.5740   30.5180   45.9310 C   0  0  0  0  0  0  0  0  0  0  0  0
   46.8210   30.9890   46.5220 H   0  0  0  0  0  0  0  0  0  0  0  0
   48.3060   29.4450   46.3970 C   0  0  0  0  0  0  0  0  0  0  0  0
   48.0430   29.1290   47.4180 H   0  0  0  0  0  0  0  0  0  0  0  0
   49.2910   28.7860   45.6940 C   0  0  0  0  0  0  0  0  0  0  0  0
   49.5060   29.2940   44.4370 C   0  0  0  0  0  0  0  0  0  0  0  0
   48.8070   30.3550   43.9300 C   0  0  0  0  0  0  0  0  0  0  0  0
   49.0210   30.7170   42.9210 H   0  0  0  0  0  0  0  0  0  0  0  0
   50.7560   28.5270   43.4280 S   0  0  0  0  0  0  0  0  0  0  0  0
   51.4520   27.2020   44.3890 C   0  0  0  0  0  0  0  0  0  0  0  0
   52.4490   26.4170   43.8780 C   0  0  0  0  0  0  0  0  0  0  0  0
   52.8100   26.6260   42.8580 H   0  0  0  0  0  0  0  0  0  0  0  0
   53.0350   25.3750   44.5640 C   0  0  0  0  0  0  0  0  0  0  0  0
   53.8040   24.8190   44.0860 H   0  0  0  0  0  0  0  0  0  0  0  0
   52.5500   25.1520   45.8350 C   0  0  0  0  0  0  0  0  0  0  0  0
   52.9740   24.3520   46.4070 H   0  0  0  0  0  0  0  0  0  0  0  0
   51.5440   25.9530   46.3340 C   0  0  0  0  0  0  0  0  0  0  0  0
   51.2270   25.6960   47.3550 H   0  0  0  0  0  0  0  0  0  0  0  0
   50.9590   26.9960   45.6490 C   0  0  0  0  0  0  0  0  0  0  0  0
   49.9420   27.7030   46.3280 N   0  0  0  0  0  0  0  0  0  0  0  0
   49.6650   27.4420   47.2790 H   0  0  0  0  0  0  0  0  0  0  0  0
   47.0730   34.1720   43.0190 C   0  0  0  0  0  0  0  0  0  0  0  0
   45.6840   34.2060   43.0650 C   0  0  0  0  0  0  0  0  0  0  0  0
   45.0180   33.1260   43.6620 C   0  0  0  0  0  0  0  0  0  0  0  0
   45.7570   32.1070   44.1640 N   0  0  0  0  0  0  0  0  0  0  0  0
   47.1000   32.1140   44.1000 C   0  0  0  0  0  0  0  0  0  0  0  0
   47.7650   33.1360   43.5330 N   0  0  0  0  0  0  0  0  0  0  0  0
   43.9330   33.1400   43.7050 H   0  0  0  0  0  0  0  0  0  0  0  0
   44.9620   35.3670   42.4880 C   0  0  0  0  0  0  0  0  0  0  0  0
   45.5510   36.5500   42.9170 F   0  0  0  0  0  0  0  0  0  0  0  0
   45.1230   35.3380   41.1140 F   0  0  0  0  0  0  0  0  0  0  0  0
   43.6490   35.4390   42.8000 F   0  0  0  0  0  0  0  0  0  0  0  0
   47.7040   35.2140   42.4440 O   0  0  0  0  0  0  0  0  0  0  0  0
   48.9520   35.2150   41.7860 C   0  0  0  0  0  0  0  0  0  0  0  0
   49.9330   35.2300   42.7790 F   0  0  0  0  0  0  0  0  0  0  0  0
   49.0480   34.1180   40.9760 F   0  0  0  0  0  0  0  0  0  0  0  0
   49.1250   36.3920   41.0980 F   0  0  0  0  0  0  0  0  0  0  0  0
  1  2  1  0  0  0  0
  2  4  2  0  0  0  0
  2  3  1  0  0  0  0
  4  5  1  0  0  0  0
  6 21  1  0  0  0  0
  6  4  1  0  0  0  0
  7  6  2  0  0  0  0
  8  7  1  0  0  0  0
  8  1  2  0  0  0  0
  9  8  1  0  0  0  0
 10 11  1  0  0  0  0
 10  7  1  0  0  0  0
 11 20  1  0  0  0  0
 12 11  2  0  0  0  0
 12 14  1  0  0  0  0
 13 12  1  0  0  0  0
 14 16  2  0  0  0  0
 15 14  1  0  0  0  0
 16 18  1  0  0  0  0
 16 17  1  0  0  0  0
 18 19  1  0  0  0  0
 20 21  1  0  0  0  0
 20 18  2  0  0  0  0
 21 22  1  0  0  0  0
 23 24  2  0  0  0  0
 23 28  1  0  0  0  0
 24 25  1  0  0  0  0
 25 29  1  0  0  0  0
 25 26  2  0  0  0  0
 27 26  1  0  0  0  0
 27  1  1  0  0  0  0
 28 27  2  0  0  0  0
 30 33  1  0  0  0  0
 30 31  1  0  0  0  0
 30 24  1  0  0  0  0
 32 30  1  0  0  0  0
 34 23  1  0  0  0  0
 35 34  1  0  0  0  0
 35 36  1  0  0  0  0
 37 35  1  0  0  0  0
 38 35  1  0  0  0  0
M  END
>  <minimizedAffinity>
-5.12058449

>  <minimizedRMSD>
0.796894908

$$$$
