
 OpenBabel03252503093D

 40 44  0  0  1  0  0  0  0  0999 V2000
   47.2760   34.2850   40.3230 C   0  0  0  0  0  0  0  0  0  0  0  0
   48.1710   34.5720   39.3140 C   0  0  0  0  0  0  0  0  0  0  0  0
   49.0500   35.2020   39.5080 H   0  0  0  0  0  0  0  0  0  0  0  0
   48.0340   34.1150   38.0310 C   0  0  0  0  0  0  0  0  0  0  0  0
   48.7580   34.3700   37.2830 H   0  0  0  0  0  0  0  0  0  0  0  0
   46.9210   33.3140   37.7370 C   0  0  0  0  0  0  0  0  0  0  0  0
   46.0250   33.0240   38.7410 C   0  0  0  0  0  0  0  0  0  0  0  0
   46.2200   33.5080   39.9970 C   0  0  0  0  0  0  0  0  0  0  0  0
   45.5620   33.3230   40.8380 H   0  0  0  0  0  0  0  0  0  0  0  0
   44.6060   32.0050   38.4080 S   0  0  0  0  0  0  0  0  0  0  0  0
   44.6380   31.6670   36.6590 C   0  0  0  0  0  0  0  0  0  0  0  0
   43.6320   30.9700   36.0850 C   0  0  0  0  0  0  0  0  0  0  0  0
   42.8150   30.6280   36.7340 H   0  0  0  0  0  0  0  0  0  0  0  0
   43.5790   30.6660   34.7470 C   0  0  0  0  0  0  0  0  0  0  0  0
   42.7460   30.1030   34.3600 H   0  0  0  0  0  0  0  0  0  0  0  0
   44.6600   31.1300   33.9800 C   0  0  0  0  0  0  0  0  0  0  0  0
   44.6490   30.9060   32.9280 H   0  0  0  0  0  0  0  0  0  0  0  0
   45.6870   31.8430   34.5830 C   0  0  0  0  0  0  0  0  0  0  0  0
   46.4530   32.1450   33.8990 H   0  0  0  0  0  0  0  0  0  0  0  0
   45.6970   32.1340   35.9720 C   0  0  0  0  0  0  0  0  0  0  0  0
   46.7800   32.8950   36.4040 N   0  0  0  0  0  0  0  0  0  0  0  0
   47.5350   33.1710   35.7090 H   0  0  0  0  0  0  0  0  0  0  0  0
   47.5980   34.9050   41.6560 C   0  0  1  0  0  3  0  0  0  0  0  0
   48.7230   35.4750   41.9420 O   0  0  0  0  0  1  0  0  0  0  0  0
   45.8950   36.0790   42.9270 C   0  0  0  0  0  0  0  0  0  0  0  0
   46.6370   34.8990   42.7020 C   0  0  0  0  0  0  0  0  0  0  0  0
   46.3250   33.8310   43.5180 C   0  0  0  0  0  0  0  0  0  0  0  0
   45.3730   33.9140   44.4660 N   0  0  0  0  0  0  0  0  0  0  0  0
   44.6800   35.0660   44.6550 C   0  0  0  0  0  0  0  0  0  0  0  0
   44.9520   36.1420   43.8760 N   0  0  0  0  0  0  0  0  0  0  0  0
   46.0950   36.9500   42.3200 H   0  0  0  0  0  0  0  0  0  0  0  0
   43.9310   35.0260   45.4480 H   0  0  0  0  0  0  0  0  0  0  0  0
   47.0310   32.6430   43.3580 C   0  0  0  0  0  0  0  0  0  0  0  0
   48.3640   32.2970   43.4290 C   0  0  0  0  0  0  0  0  0  0  0  0
   48.7780   31.0580   43.2280 C   0  0  0  0  0  0  0  0  0  0  0  0
   47.8260   30.1000   42.9440 C   0  0  0  0  0  0  0  0  0  0  0  0
   46.2480   31.0860   42.9750 S   0  0  0  0  0  0  0  0  0  0  0  0
   49.2160   32.8800   43.6790 H   0  0  0  0  0  0  0  0  0  0  0  0
   49.6890   30.4960   43.2130 H   0  0  0  0  0  0  0  0  0  0  0  0
   47.6690   29.0500   42.7230 H   0  0  0  0  0  0  0  0  0  0  0  0
  1 23  1  0  0  0  0
  2  3  1  0  0  0  0
  2  1  2  0  0  0  0
  4  2  1  0  0  0  0
  5  4  1  0  0  0  0
  6  4  2  0  0  0  0
  6  7  1  0  0  0  0
  7  8  2  0  0  0  0
  8  1  1  0  0  0  0
  8  9  1  0  0  0  0
 10  7  1  0  0  0  0
 11 10  1  0  0  0  0
 12 11  1  0  0  0  0
 12 13  1  0  0  0  0
 14 12  2  0  0  0  0
 15 14  1  0  0  0  0
 16 18  2  0  0  0  0
 16 14  1  0  0  0  0
 17 16  1  0  0  0  0
 18 20  1  0  0  0  0
 19 18  1  0  0  0  0
 20 21  1  0  0  0  0
 20 11  2  0  0  0  0
 21  6  1  0  0  0  0
 22 21  1  0  0  0  0
 23 24  1  6  0  0  0
 23 26  1  0  0  0  0
 25 30  1  0  0  0  0
 26 25  2  0  0  0  0
 26 27  1  0  0  0  0
 27 28  2  0  0  0  0
 28 29  1  0  0  0  0
 29 32  1  0  0  0  0
 30 29  2  0  0  0  0
 31 25  1  0  0  0  0
 33 34  2  0  0  0  0
 33 27  1  0  0  0  0
 34 38  1  0  0  0  0
 35 34  1  0  0  0  0
 36 37  1  0  0  0  0
 36 35  2  0  0  0  0
 37 33  1  0  0  0  0
 39 35  1  0  0  0  0
 40 36  1  0  0  0  0
M  END
>  <minimizedAffinity>
-5.86386871

>  <minimizedRMSD>
2.16205406

$$$$
