
 OpenBabel03242518503D

 36 39  0  0  0  0  0  0  0  0999 V2000
   46.4350   32.3430   46.9210 C   0  0  0  0  0  0  0  0  0  0  0  0
   47.2850   32.3630   48.0050 C   0  0  0  0  0  0  0  0  0  0  0  0
   47.3120   33.1620   48.7280 H   0  0  0  0  0  0  0  0  0  0  0  0
   48.1850   31.3440   48.2720 C   0  0  0  0  0  0  0  0  0  0  0  0
   48.8440   31.4150   49.1540 H   0  0  0  0  0  0  0  0  0  0  0  0
   48.2870   30.2240   47.4540 C   0  0  0  0  0  0  0  0  0  0  0  0
   47.4280   30.2320   46.3810 C   0  0  0  0  0  0  0  0  0  0  0  0
   46.5550   31.2250   46.1260 C   0  0  0  0  0  0  0  0  0  0  0  0
   45.8890   31.1900   45.2500 H   0  0  0  0  0  0  0  0  0  0  0  0
   47.4590   28.8490   45.2560 S   0  0  0  0  0  0  0  0  0  0  0  0
   48.6840   27.7320   45.9050 C   0  0  0  0  0  0  0  0  0  0  0  0
   48.8700   26.5790   45.2150 C   0  0  0  0  0  0  0  0  0  0  0  0
   48.3090   26.3420   44.3160 H   0  0  0  0  0  0  0  0  0  0  0  0
   49.8270   25.6960   45.7060 C   0  0  0  0  0  0  0  0  0  0  0  0
   50.0010   24.7720   45.1810 H   0  0  0  0  0  0  0  0  0  0  0  0
   50.5760   25.9430   46.8450 C   0  0  0  0  0  0  0  0  0  0  0  0
   51.3140   25.2640   47.2200 H   0  0  0  0  0  0  0  0  0  0  0  0
   50.3170   27.1500   47.4870 C   0  0  0  0  0  0  0  0  0  0  0  0
   50.9240   27.3260   48.3890 H   0  0  0  0  0  0  0  0  0  0  0  0
   49.3800   28.0550   47.0370 C   0  0  0  0  0  0  0  0  0  0  0  0
   49.2130   29.2200   47.7870 N   0  0  0  0  0  0  0  0  0  0  0  0
   49.7970   29.3670   48.6380 H   0  0  0  0  0  0  0  0  0  0  0  0
   45.4930   33.4200   46.6570 C   0  0  0  0  0  0  0  0  0  0  0  0
   44.6450   33.6200   47.5740 O   0  0  0  0  0  0  0  0  0  0  0  0
   44.6190   36.0490   44.2810 C   0  0  0  0  0  0  0  0  0  0  0  0
   45.4540   35.8250   43.1650 C   0  0  0  0  0  0  0  0  0  0  0  0
   46.3130   34.7410   43.2680 C   0  0  0  0  0  0  0  0  0  0  0  0
   46.2680   34.0240   44.3960 N   0  0  0  0  0  0  0  0  0  0  0  0
   45.4840   34.2290   45.4540 C   0  0  0  0  0  0  0  0  0  0  0  0
   44.6360   35.2790   45.3800 N   0  0  0  0  0  0  0  0  0  0  0  0
   43.9400   36.8930   44.2270 H   0  0  0  0  0  0  0  0  0  0  0  0
   45.4500   36.4360   42.2870 H   0  0  0  0  0  0  0  0  0  0  0  0
   47.1980   34.4870   42.1240 C   0  0  0  0  0  0  0  0  0  0  0  0
   48.1190   33.5050   42.4490 F   0  0  0  0  0  0  0  0  0  0  0  0
   47.9480   35.6620   41.9460 F   0  0  0  0  0  0  0  0  0  0  0  0
   46.5350   34.1290   40.9980 F   0  0  0  0  0  0  0  0  0  0  0  0
  1  2  1  0  0  0  0
  2  4  2  0  0  0  0
  2  3  1  0  0  0  0
  4  5  1  0  0  0  0
  6 21  1  0  0  0  0
  6  4  1  0  0  0  0
  7  6  2  0  0  0  0
  8  7  1  0  0  0  0
  8  1  2  0  0  0  0
  9  8  1  0  0  0  0
 10 11  1  0  0  0  0
 10  7  1  0  0  0  0
 11 20  1  0  0  0  0
 12 14  1  0  0  0  0
 12 11  2  0  0  0  0
 13 12  1  0  0  0  0
 14 16  2  0  0  0  0
 15 14  1  0  0  0  0
 16 17  1  0  0  0  0
 16 18  1  0  0  0  0
 18 19  1  0  0  0  0
 20 18  2  0  0  0  0
 20 21  1  0  0  0  0
 21 22  1  0  0  0  0
 23  1  1  0  0  0  0
 23 24  2  0  0  0  0
 25 30  1  0  0  0  0
 26 27  1  0  0  0  0
 26 25  2  0  0  0  0
 27 28  2  0  0  0  0
 28 29  1  0  0  0  0
 29 23  1  0  0  0  0
 30 29  2  0  0  0  0
 31 25  1  0  0  0  0
 32 26  1  0  0  0  0
 33 34  1  0  0  0  0
 33 27  1  0  0  0  0
 35 33  1  0  0  0  0
 36 33  1  0  0  0  0
M  END
>  <minimizedAffinity>
-5.64976072

>  <minimizedRMSD>
1.87475002

$$$$
