
 OpenBabel03252503093D

 40 44  0  0  1  0  0  0  0  0999 V2000
   45.9390   34.1430   40.6440 C   0  0  0  0  0  0  0  0  0  0  0  0
   44.5680   34.2890   40.5990 C   0  0  0  0  0  0  0  0  0  0  0  0
   44.0460   34.8960   41.3520 H   0  0  0  0  0  0  0  0  0  0  0  0
   43.7780   33.7030   39.6480 C   0  0  0  0  0  0  0  0  0  0  0  0
   42.7160   33.8470   39.6610 H   0  0  0  0  0  0  0  0  0  0  0  0
   44.4040   32.9140   38.6720 C   0  0  0  0  0  0  0  0  0  0  0  0
   45.7710   32.7660   38.7120 C   0  0  0  0  0  0  0  0  0  0  0  0
   46.5000   33.3760   39.6840 C   0  0  0  0  0  0  0  0  0  0  0  0
   47.5780   33.3080   39.7800 H   0  0  0  0  0  0  0  0  0  0  0  0
   46.6010   31.7790   37.4870 S   0  0  0  0  0  0  0  0  0  0  0  0
   45.3190   31.0650   36.4750 C   0  0  0  0  0  0  0  0  0  0  0  0
   45.6390   30.1930   35.4930 C   0  0  0  0  0  0  0  0  0  0  0  0
   46.7020   29.9540   35.3500 H   0  0  0  0  0  0  0  0  0  0  0  0
   44.7160   29.6000   34.6670 C   0  0  0  0  0  0  0  0  0  0  0  0
   45.0450   28.9160   33.9020 H   0  0  0  0  0  0  0  0  0  0  0  0
   43.3790   29.9570   34.9040 C   0  0  0  0  0  0  0  0  0  0  0  0
   42.6310   29.5100   34.2720 H   0  0  0  0  0  0  0  0  0  0  0  0
   43.0650   30.8540   35.9140 C   0  0  0  0  0  0  0  0  0  0  0  0
   42.0160   31.0500   36.0010 H   0  0  0  0  0  0  0  0  0  0  0  0
   44.0560   31.4440   36.7430 C   0  0  0  0  0  0  0  0  0  0  0  0
   43.5650   32.2880   37.7350 N   0  0  0  0  0  0  0  0  0  0  0  0
   42.5220   32.4760   37.7920 H   0  0  0  0  0  0  0  0  0  0  0  0
   46.6180   34.8520   41.7840 C   0  0  1  0  0  3  0  0  0  0  0  0
   47.7830   35.4100   41.7060 O   0  0  0  0  0  1  0  0  0  0  0  0
   45.3170   36.1580   43.3640 C   0  0  0  0  0  0  0  0  0  0  0  0
   45.9810   34.9520   43.0500 C   0  0  0  0  0  0  0  0  0  0  0  0
   45.9170   33.9650   44.0120 C   0  0  0  0  0  0  0  0  0  0  0  0
   45.2610   34.1450   45.1730 N   0  0  0  0  0  0  0  0  0  0  0  0
   44.6330   35.3190   45.4420 C   0  0  0  0  0  0  0  0  0  0  0  0
   44.6700   36.3180   44.5260 N   0  0  0  0  0  0  0  0  0  0  0  0
   45.3340   36.9690   42.6500 H   0  0  0  0  0  0  0  0  0  0  0  0
   44.1310   35.3600   46.4110 H   0  0  0  0  0  0  0  0  0  0  0  0
   46.5650   32.7580   43.7710 C   0  0  0  0  0  0  0  0  0  0  0  0
   47.8770   32.3400   43.8310 C   0  0  0  0  0  0  0  0  0  0  0  0
   48.2310   31.0990   43.5420 C   0  0  0  0  0  0  0  0  0  0  0  0
   47.2380   30.2150   43.1750 C   0  0  0  0  0  0  0  0  0  0  0  0
   45.7100   31.2760   43.2630 S   0  0  0  0  0  0  0  0  0  0  0  0
   48.7540   32.8590   44.1340 H   0  0  0  0  0  0  0  0  0  0  0  0
   49.1140   30.4940   43.4940 H   0  0  0  0  0  0  0  0  0  0  0  0
   47.0320   29.1940   42.8750 H   0  0  0  0  0  0  0  0  0  0  0  0
  1 23  1  0  0  0  0
  2  1  1  0  0  0  0
  2  3  1  0  0  0  0
  4  5  1  0  0  0  0
  4  2  2  0  0  0  0
  6  7  2  0  0  0  0
  6  4  1  0  0  0  0
  7  8  1  0  0  0  0
  8  9  1  0  0  0  0
  8  1  2  0  0  0  0
 10  7  1  0  0  0  0
 11 20  1  0  0  0  0
 11 10  1  0  0  0  0
 12 11  2  0  0  0  0
 13 12  1  0  0  0  0
 14 16  2  0  0  0  0
 14 12  1  0  0  0  0
 15 14  1  0  0  0  0
 16 18  1  0  0  0  0
 17 16  1  0  0  0  0
 18 19  1  0  0  0  0
 18 20  2  0  0  0  0
 20 21  1  0  0  0  0
 21 22  1  0  0  0  0
 21  6  1  0  0  0  0
 23 24  1  6  0  0  0
 23 26  1  0  0  0  0
 25 30  1  0  0  0  0
 26 25  2  0  0  0  0
 26 27  1  0  0  0  0
 27 28  2  0  0  0  0
 28 29  1  0  0  0  0
 29 32  1  0  0  0  0
 30 29  2  0  0  0  0
 31 25  1  0  0  0  0
 33 34  2  0  0  0  0
 33 27  1  0  0  0  0
 34 38  1  0  0  0  0
 35 34  1  0  0  0  0
 36 37  1  0  0  0  0
 36 35  2  0  0  0  0
 37 33  1  0  0  0  0
 39 35  1  0  0  0  0
 40 36  1  0  0  0  0
M  END
>  <minimizedAffinity>
-5.55418825

>  <minimizedRMSD>
1.7708559

$$$$
