
 OpenBabel03242523193D

 50 55  0  0  0  0  0  0  0  0999 V2000
   44.5200   31.8440   42.8210 Cl  0  0  0  0  0  0  0  0  0  0  0  0
   44.5750   33.6070   42.7450 C   0  0  0  0  0  0  0  0  0  0  0  0
   45.4040   34.2250   43.7030 C   0  0  0  0  0  0  0  0  0  0  0  0
   45.3760   35.6020   43.5530 C   0  0  0  0  0  0  0  0  0  0  0  0
   44.7090   36.3610   42.6710 C   0  0  0  0  0  0  0  0  0  0  0  0
   43.9280   35.6800   41.7780 C   0  0  0  0  0  0  0  0  0  0  0  0
   43.8480   34.3310   41.7960 C   0  0  0  0  0  0  0  0  0  0  0  0
   45.9500   36.2480   44.2510 H   0  0  0  0  0  0  0  0  0  0  0  0
   44.7140   37.4170   42.5850 H   0  0  0  0  0  0  0  0  0  0  0  0
   43.3260   36.1380   41.0010 H   0  0  0  0  0  0  0  0  0  0  0  0
   43.0270   33.5500   40.8680 C   0  0  0  0  0  0  0  0  0  0  0  0
   41.6700   33.5180   41.1950 C   0  0  0  0  0  0  0  0  0  0  0  0
   41.2740   34.0320   42.0620 H   0  0  0  0  0  0  0  0  0  0  0  0
   40.7950   32.8010   40.3780 C   0  0  0  0  0  0  0  0  0  0  0  0
   39.7400   32.8130   40.6880 H   0  0  0  0  0  0  0  0  0  0  0  0
   41.1850   32.1110   39.2520 C   0  0  0  0  0  0  0  0  0  0  0  0
   42.5270   32.1770   38.9780 C   0  0  0  0  0  0  0  0  0  0  0  0
   43.4270   32.8640   39.7420 C   0  0  0  0  0  0  0  0  0  0  0  0
   44.4670   32.9150   39.5340 H   0  0  0  0  0  0  0  0  0  0  0  0
   43.1350   31.3180   37.5420 S   0  0  0  0  0  0  0  0  0  0  0  0
   41.7280   30.5370   36.7780 C   0  0  0  0  0  0  0  0  0  0  0  0
   41.8930   29.7970   35.6400 C   0  0  0  0  0  0  0  0  0  0  0  0
   42.9040   29.7070   35.2260 H   0  0  0  0  0  0  0  0  0  0  0  0
   40.8470   29.1710   35.0040 C   0  0  0  0  0  0  0  0  0  0  0  0
   41.0820   28.6100   34.1110 H   0  0  0  0  0  0  0  0  0  0  0  0
   39.5930   29.3120   35.5610 C   0  0  0  0  0  0  0  0  0  0  0  0
   38.7700   28.8380   35.0880 H   0  0  0  0  0  0  0  0  0  0  0  0
   39.4710   30.0670   36.7090 C   0  0  0  0  0  0  0  0  0  0  0  0
   38.4370   30.1280   37.0830 H   0  0  0  0  0  0  0  0  0  0  0  0
   40.5010   30.7050   37.3660 C   0  0  0  0  0  0  0  0  0  0  0  0
   40.1830   31.4310   38.5250 N   0  0  0  0  0  0  0  0  0  0  0  0
   39.1960   31.4670   38.8530 H   0  0  0  0  0  0  0  0  0  0  0  0
   46.2300   33.5450   44.7420 C   0  0  0  0  0  0  0  0  0  0  0  0
   45.6370   33.9390   45.7130 O   0  0  0  0  0  0  0  0  0  0  0  0
   47.2900   32.7800   44.0700 C   0  0  0  0  0  0  0  0  0  0  0  0
   48.1630   33.2520   43.1690 C   0  0  0  0  0  0  0  0  0  0  0  0
   48.9930   32.2970   42.6190 C   0  0  0  0  0  0  0  0  0  0  0  0
   48.8580   30.9610   43.0430 N   0  0  0  0  0  0  0  0  0  0  0  0
   47.9790   30.5770   43.9350 C   0  0  0  0  0  0  0  0  0  0  0  0
   47.1300   31.5000   44.5050 N   0  0  0  0  0  0  0  0  0  0  0  0
   49.7580   32.4880   41.8740 H   0  0  0  0  0  0  0  0  0  0  0  0
   47.9940   29.5160   44.1620 H   0  0  0  0  0  0  0  0  0  0  0  0
   48.3730   34.6160   42.8310 C   0  0  0  0  0  0  0  0  0  0  0  0
   49.4030   35.1690   42.1360 C   0  0  0  0  0  0  0  0  0  0  0  0
   48.1550   35.0150   41.3100 C   0  0  0  0  0  0  0  0  0  0  0  0
   47.9380   35.3260   43.5590 H   0  0  0  0  0  0  0  0  0  0  0  0
   49.7770   36.2200   42.1380 H   0  0  0  0  0  0  0  0  0  0  0  0
   50.2450   34.5100   41.7710 H   0  0  0  0  0  0  0  0  0  0  0  0
   48.0560   34.1420   40.6510 H   0  0  0  0  0  0  0  0  0  0  0  0
   47.5030   35.8890   41.1720 H   0  0  0  0  0  0  0  0  0  0  0  0
  2  1  1  0  0  0  0
  2  3  1  0  0  0  0
  3 33  1  0  0  0  0
  4  3  2  0  0  0  0
  4  8  1  0  0  0  0
  5  4  1  0  0  0  0
  6  7  1  0  0  0  0
  6  5  2  0  0  0  0
  7  2  2  0  0  0  0
  9  5  1  0  0  0  0
 10  6  1  0  0  0  0
 11 12  1  0  0  0  0
 11  7  1  0  0  0  0
 12 13  1  0  0  0  0
 14 15  1  0  0  0  0
 14 12  2  0  0  0  0
 16 14  1  0  0  0  0
 17 16  2  0  0  0  0
 17 18  1  0  0  0  0
 18 11  2  0  0  0  0
 19 18  1  0  0  0  0
 20 17  1  0  0  0  0
 21 30  1  0  0  0  0
 21 20  1  0  0  0  0
 22 21  2  0  0  0  0
 23 22  1  0  0  0  0
 24 26  2  0  0  0  0
 24 22  1  0  0  0  0
 25 24  1  0  0  0  0
 26 28  1  0  0  0  0
 27 26  1  0  0  0  0
 28 29  1  0  0  0  0
 28 30  2  0  0  0  0
 30 31  1  0  0  0  0
 31 32  1  0  0  0  0
 31 16  1  0  0  0  0
 33 34  2  0  0  0  0
 35 40  1  0  0  0  0
 35 33  1  0  0  0  0
 36 35  2  0  0  0  0
 37 38  2  0  0  0  0
 37 36  1  0  0  0  0
 38 39  1  0  0  0  0
 39 42  1  0  0  0  0
 39 40  2  0  0  0  0
 41 37  1  0  0  0  0
 43 36  1  0  0  0  0
 43 46  1  0  0  0  0
 44 47  1  0  0  0  0
 44 43  1  0  0  0  0
 45 44  1  0  0  0  0
 45 43  1  0  0  0  0
 48 44  1  0  0  0  0
 49 45  1  0  0  0  0
 50 45  1  0  0  0  0
M  END
>  <minimizedAffinity>
-6.60212803

>  <minimizedRMSD>
0.691906035

$$$$
