
 OpenBabel03242523193D

 50 55  0  0  0  0  0  0  0  0999 V2000
   44.4350   31.8500   42.9710 Cl  0  0  0  0  0  0  0  0  0  0  0  0
   44.5960   33.6050   42.8440 C   0  0  0  0  0  0  0  0  0  0  0  0
   45.5840   34.1790   43.6700 C   0  0  0  0  0  0  0  0  0  0  0  0
   45.6270   35.5520   43.4910 C   0  0  0  0  0  0  0  0  0  0  0  0
   44.9020   36.3410   42.6850 C   0  0  0  0  0  0  0  0  0  0  0  0
   43.9670   35.7020   41.9190 C   0  0  0  0  0  0  0  0  0  0  0  0
   43.8010   34.3610   41.9810 C   0  0  0  0  0  0  0  0  0  0  0  0
   46.3290   36.1680   44.0930 H   0  0  0  0  0  0  0  0  0  0  0  0
   44.9650   37.3930   42.5740 H   0  0  0  0  0  0  0  0  0  0  0  0
   43.2990   36.1870   41.2160 H   0  0  0  0  0  0  0  0  0  0  0  0
   42.8140   33.6250   41.1870 C   0  0  0  0  0  0  0  0  0  0  0  0
   41.8500   34.4360   40.5830 C   0  0  0  0  0  0  0  0  0  0  0  0
   41.8480   35.5100   40.6990 H   0  0  0  0  0  0  0  0  0  0  0  0
   40.8580   33.8380   39.8040 C   0  0  0  0  0  0  0  0  0  0  0  0
   40.1280   34.5270   39.3550 H   0  0  0  0  0  0  0  0  0  0  0  0
   40.7640   32.4810   39.5880 C   0  0  0  0  0  0  0  0  0  0  0  0
   41.7340   31.7350   40.2040 C   0  0  0  0  0  0  0  0  0  0  0  0
   42.7280   32.2660   40.9760 C   0  0  0  0  0  0  0  0  0  0  0  0
   43.4800   31.6910   41.4570 H   0  0  0  0  0  0  0  0  0  0  0  0
   41.7020   29.9680   39.9870 S   0  0  0  0  0  0  0  0  0  0  0  0
   40.3050   29.6050   38.9430 C   0  0  0  0  0  0  0  0  0  0  0  0
   40.0260   28.3100   38.6020 C   0  0  0  0  0  0  0  0  0  0  0  0
   40.6830   27.5230   38.9880 H   0  0  0  0  0  0  0  0  0  0  0  0
   38.9630   27.9690   37.7990 C   0  0  0  0  0  0  0  0  0  0  0  0
   38.8290   26.9170   37.5880 H   0  0  0  0  0  0  0  0  0  0  0  0
   38.1630   28.9930   37.3370 C   0  0  0  0  0  0  0  0  0  0  0  0
   37.3370   28.7530   36.7160 H   0  0  0  0  0  0  0  0  0  0  0  0
   38.4800   30.2830   37.7060 C   0  0  0  0  0  0  0  0  0  0  0  0
   37.7910   31.0370   37.2930 H   0  0  0  0  0  0  0  0  0  0  0  0
   39.5370   30.6550   38.5060 C   0  0  0  0  0  0  0  0  0  0  0  0
   39.7020   32.0230   38.7750 N   0  0  0  0  0  0  0  0  0  0  0  0
   39.0340   32.7090   38.3690 H   0  0  0  0  0  0  0  0  0  0  0  0
   46.4920   33.4600   44.6090 C   0  0  0  0  0  0  0  0  0  0  0  0
   45.9670   33.7930   45.6410 O   0  0  0  0  0  0  0  0  0  0  0  0
   47.5100   32.7500   43.8240 C   0  0  0  0  0  0  0  0  0  0  0  0
   48.3790   33.3000   42.9640 C   0  0  0  0  0  0  0  0  0  0  0  0
   49.1640   32.3930   42.2810 C   0  0  0  0  0  0  0  0  0  0  0  0
   48.9910   31.0200   42.5440 N   0  0  0  0  0  0  0  0  0  0  0  0
   48.1200   30.5580   43.4060 C   0  0  0  0  0  0  0  0  0  0  0  0
   47.3160   31.4320   44.1050 N   0  0  0  0  0  0  0  0  0  0  0  0
   49.9190   32.6480   41.5460 H   0  0  0  0  0  0  0  0  0  0  0  0
   48.1020   29.4770   43.5020 H   0  0  0  0  0  0  0  0  0  0  0  0
   48.6300   34.6860   42.7890 C   0  0  0  0  0  0  0  0  0  0  0  0
   49.7040   35.2890   42.2120 C   0  0  0  0  0  0  0  0  0  0  0  0
   48.5010   35.2520   41.3110 C   0  0  0  0  0  0  0  0  0  0  0  0
   48.1680   35.3230   43.5650 H   0  0  0  0  0  0  0  0  0  0  0  0
   50.0950   36.3250   42.3480 H   0  0  0  0  0  0  0  0  0  0  0  0
   50.5540   34.6540   41.8220 H   0  0  0  0  0  0  0  0  0  0  0  0
   48.4230   34.4590   40.5560 H   0  0  0  0  0  0  0  0  0  0  0  0
   47.8710   36.1510   41.2350 H   0  0  0  0  0  0  0  0  0  0  0  0
  2  1  1  0  0  0  0
  2  3  1  0  0  0  0
  3 33  1  0  0  0  0
  4  3  2  0  0  0  0
  4  8  1  0  0  0  0
  5  4  1  0  0  0  0
  6  7  1  0  0  0  0
  6  5  2  0  0  0  0
  7  2  2  0  0  0  0
  9  5  1  0  0  0  0
 10  6  1  0  0  0  0
 11  7  1  0  0  0  0
 12 13  1  0  0  0  0
 12 11  2  0  0  0  0
 14 12  1  0  0  0  0
 15 14  1  0  0  0  0
 16 14  2  0  0  0  0
 16 17  1  0  0  0  0
 17 18  2  0  0  0  0
 18 11  1  0  0  0  0
 18 19  1  0  0  0  0
 20 17  1  0  0  0  0
 21 20  1  0  0  0  0
 22 21  1  0  0  0  0
 22 23  1  0  0  0  0
 24 22  2  0  0  0  0
 25 24  1  0  0  0  0
 26 28  2  0  0  0  0
 26 24  1  0  0  0  0
 27 26  1  0  0  0  0
 28 30  1  0  0  0  0
 29 28  1  0  0  0  0
 30 31  1  0  0  0  0
 30 21  2  0  0  0  0
 31 16  1  0  0  0  0
 32 31  1  0  0  0  0
 33 34  2  0  0  0  0
 35 40  1  0  0  0  0
 35 33  1  0  0  0  0
 36 35  2  0  0  0  0
 37 38  2  0  0  0  0
 37 36  1  0  0  0  0
 38 39  1  0  0  0  0
 39 42  1  0  0  0  0
 39 40  2  0  0  0  0
 41 37  1  0  0  0  0
 43 36  1  0  0  0  0
 43 46  1  0  0  0  0
 44 47  1  0  0  0  0
 44 43  1  0  0  0  0
 45 44  1  0  0  0  0
 45 43  1  0  0  0  0
 48 44  1  0  0  0  0
 49 45  1  0  0  0  0
 50 45  1  0  0  0  0
M  END
>  <minimizedAffinity>
-6.42495203

>  <minimizedRMSD>
0.673639894

$$$$
