
 OpenBabel03252502433D

 44 48  0  0  1  0  0  0  0  0999 V2000
   48.7390   34.9340   41.4970 C   0  0  1  0  0  0  0  0  0  0  0  0
   49.5980   34.7600   42.6490 C   0  0  0  0  0  0  0  0  0  0  0  0
   49.6120   33.8610   41.4160 C   0  0  1  0  0  0  0  0  0  0  0  0
   48.9110   35.9220   40.9780 H   0  0  0  0  0  0  0  0  0  0  0  0
   49.3090   34.3420   43.6100 H   0  0  0  0  0  0  0  0  0  0  0  0
   50.5580   35.3490   42.7470 H   0  0  0  0  0  0  0  0  0  0  0  0
   50.3470   34.1040   40.5710 H   0  0  0  0  0  0  0  0  0  0  0  0
   50.0960   32.5680   41.7250 C   0  0  0  0  0  0  0  0  0  0  0  0
   49.4420   31.6610   42.5780 C   0  0  0  0  0  0  0  0  0  0  0  0
   48.5200   31.9810   43.0450 H   0  0  0  0  0  0  0  0  0  0  0  0
   49.9930   30.4190   42.7830 C   0  0  0  0  0  0  0  0  0  0  0  0
   49.4020   29.7930   43.4650 H   0  0  0  0  0  0  0  0  0  0  0  0
   51.1710   30.0610   42.1650 C   0  0  0  0  0  0  0  0  0  0  0  0
   51.8520   30.8810   41.3340 C   0  0  0  0  0  0  0  0  0  0  0  0
   51.2890   32.0960   41.1500 C   0  0  0  0  0  0  0  0  0  0  0  0
   51.8080   32.7960   40.4830 H   0  0  0  0  0  0  0  0  0  0  0  0
   53.3530   30.3490   40.5810 S   0  0  0  0  0  0  0  0  0  0  0  0
   53.6250   28.6800   41.1640 C   0  0  0  0  0  0  0  0  0  0  0  0
   54.7580   28.1020   40.6740 C   0  0  0  0  0  0  0  0  0  0  0  0
   55.4520   28.5610   40.0010 H   0  0  0  0  0  0  0  0  0  0  0  0
   55.0560   26.8010   41.0720 C   0  0  0  0  0  0  0  0  0  0  0  0
   55.9260   26.2580   40.7410 H   0  0  0  0  0  0  0  0  0  0  0  0
   54.2000   26.1560   41.9380 C   0  0  0  0  0  0  0  0  0  0  0  0
   54.4170   25.1450   42.2560 H   0  0  0  0  0  0  0  0  0  0  0  0
   53.0950   26.8240   42.3680 C   0  0  0  0  0  0  0  0  0  0  0  0
   52.4460   26.2590   43.0590 H   0  0  0  0  0  0  0  0  0  0  0  0
   52.7190   28.1100   42.0290 C   0  0  0  0  0  0  0  0  0  0  0  0
   51.5620   28.7500   42.5060 N   0  0  0  0  0  0  0  0  0  0  0  0
   51.0200   28.1100   43.1600 H   0  0  0  0  0  0  0  0  0  0  0  0
   47.2500   34.7590   41.6330 C   0  0  0  0  0  0  0  0  0  0  0  0
   46.8730   35.7830   41.9240 H   0  0  0  0  0  0  0  0  0  0  0  0
   46.7610   34.4530   40.7080 H   0  0  0  0  0  0  0  0  0  0  0  0
   47.1150   33.7880   42.7620 C   0  0  0  0  0  0  0  0  0  0  0  0
   48.0000   33.8860   43.4160 H   0  0  0  0  0  0  0  0  0  0  0  0
   46.8620   32.7700   42.4600 H   0  0  0  0  0  0  0  0  0  0  0  0
   44.6040   36.0140   44.4450 C   0  0  0  0  0  0  0  0  0  0  0  0
   45.4700   35.4800   43.4590 C   0  0  0  0  0  0  0  0  0  0  0  0
   46.1650   34.3460   43.7670 C   0  0  0  0  0  0  0  0  0  0  0  0
   46.0030   33.7720   44.9950 N   0  0  0  0  0  0  0  0  0  0  0  0
   45.1910   34.2830   45.9030 C   0  0  0  0  0  0  0  0  0  0  0  0
   44.4930   35.3930   45.6430 N   0  0  0  0  0  0  0  0  0  0  0  0
   44.0110   36.9050   44.3030 H   0  0  0  0  0  0  0  0  0  0  0  0
   45.4390   36.0730   42.5620 H   0  0  0  0  0  0  0  0  0  0  0  0
   45.0360   33.8570   46.8890 H   0  0  0  0  0  0  0  0  0  0  0  0
  1  4  1  6  0  0  0
  1 30  1  0  0  0  0
  1  2  1  0  0  0  0
  2  6  1  0  0  0  0
  2  5  1  0  0  0  0
  3  7  1  6  0  0  0
  3  1  1  0  0  0  0
  3  8  1  0  0  0  0
  3  2  1  0  0  0  0
  8  9  1  0  0  0  0
  9 11  2  0  0  0  0
  9 10  1  0  0  0  0
 11 12  1  0  0  0  0
 13 28  1  0  0  0  0
 13 11  1  0  0  0  0
 14 13  2  0  0  0  0
 15 14  1  0  0  0  0
 15  8  2  0  0  0  0
 16 15  1  0  0  0  0
 17 18  1  0  0  0  0
 17 14  1  0  0  0  0
 18 27  1  0  0  0  0
 19 21  1  0  0  0  0
 19 18  2  0  0  0  0
 20 19  1  0  0  0  0
 21 23  2  0  0  0  0
 22 21  1  0  0  0  0
 23 24  1  0  0  0  0
 23 25  1  0  0  0  0
 25 26  1  0  0  0  0
 27 25  2  0  0  0  0
 27 28  1  0  0  0  0
 28 29  1  0  0  0  0
 30 31  1  0  0  0  0
 30 33  1  0  0  0  0
 32 30  1  0  0  0  0
 33 34  1  0  0  0  0
 33 38  1  0  0  0  0
 35 33  1  0  0  0  0
 36 41  1  0  0  0  0
 37 38  1  0  0  0  0
 37 36  2  0  0  0  0
 38 39  2  0  0  0  0
 39 40  1  0  0  0  0
 40 44  1  0  0  0  0
 41 40  2  0  0  0  0
 42 36  1  0  0  0  0
 43 37  1  0  0  0  0
M  END
>  <minimizedAffinity>
-5.03314495

>  <minimizedRMSD>
2.02989292

$$$$
