
 OpenBabel03242514333D

 39 42  0  0  0  0  0  0  0  0999 V2000
   47.5200   33.7480   38.6080 C   0  0  0  0  0  0  0  0  0  0  0  0
   48.4470   34.4740   37.9570 C   0  0  0  0  0  0  0  0  0  0  0  0
   48.9640   35.3130   38.3970 H   0  0  0  0  0  0  0  0  0  0  0  0
   48.7180   34.0820   36.6400 C   0  0  0  0  0  0  0  0  0  0  0  0
   49.4760   34.6920   36.1410 H   0  0  0  0  0  0  0  0  0  0  0  0
   48.1170   33.0360   35.9950 C   0  0  0  0  0  0  0  0  0  0  0  0
   47.1780   32.3200   36.6930 C   0  0  0  0  0  0  0  0  0  0  0  0
   46.8970   32.6740   37.9580 C   0  0  0  0  0  0  0  0  0  0  0  0
   46.1400   32.0910   38.5050 H   0  0  0  0  0  0  0  0  0  0  0  0
   46.3700   30.9490   35.8890 S   0  0  0  0  0  0  0  0  0  0  0  0
   47.0560   30.8670   34.2570 C   0  0  0  0  0  0  0  0  0  0  0  0
   46.5660   29.8760   33.4720 C   0  0  0  0  0  0  0  0  0  0  0  0
   45.8110   29.1640   33.7800 H   0  0  0  0  0  0  0  0  0  0  0  0
   47.0430   29.7280   32.1670 C   0  0  0  0  0  0  0  0  0  0  0  0
   46.6840   28.9530   31.5030 H   0  0  0  0  0  0  0  0  0  0  0  0
   48.0000   30.5970   31.7170 C   0  0  0  0  0  0  0  0  0  0  0  0
   48.3770   30.4940   30.7130 H   0  0  0  0  0  0  0  0  0  0  0  0
   48.4390   31.5710   32.5800 C   0  0  0  0  0  0  0  0  0  0  0  0
   49.2070   32.2310   32.1470 H   0  0  0  0  0  0  0  0  0  0  0  0
   48.0060   31.7670   33.8760 C   0  0  0  0  0  0  0  0  0  0  0  0
   48.5260   32.7930   34.6620 N   0  0  0  0  0  0  0  0  0  0  0  0
   49.2500   33.3920   34.2090 H   0  0  0  0  0  0  0  0  0  0  0  0
   47.1180   34.0340   40.0150 C   0  0  0  0  0  0  0  0  0  0  0  0
   45.9010   33.6150   40.1700 O   0  0  0  0  0  0  0  0  0  0  0  0
   47.5970   34.5800   41.1500 O   0  0  0  0  0  0  0  0  0  0  0  0
   49.3970   34.8870   42.9710 O   0  0  0  0  0  0  0  0  0  0  0  0
   48.5590   33.8440   42.2990 P   0  0  2  0  0  0  0  0  0  0  0  0
   49.6000   32.7680   41.5390 O   0  0  0  0  0  0  0  0  0  0  0  0
   50.3750   33.2150   41.1560 H   0  0  0  0  0  0  0  0  0  0  0  0
   47.5870   33.0370   43.4530 O   0  0  0  0  0  0  0  0  0  0  0  0
   45.9590   34.7770   43.5580 C   0  0  0  0  0  0  0  0  0  0  0  0
   46.6110   33.7220   44.1740 C   0  0  0  0  0  0  0  0  0  0  0  0
   46.2610   33.3940   45.4890 C   0  0  0  0  0  0  0  0  0  0  0  0
   45.2910   34.1350   46.0980 N   0  0  0  0  0  0  0  0  0  0  0  0
   44.6820   35.1450   45.4730 C   0  0  0  0  0  0  0  0  0  0  0  0
   45.0150   35.4570   44.2210 N   0  0  0  0  0  0  0  0  0  0  0  0
   46.1900   35.0770   42.5350 H   0  0  0  0  0  0  0  0  0  0  0  0
   46.8010   32.5760   45.8990 H   0  0  0  0  0  0  0  0  0  0  0  0
   43.9320   35.6440   46.0790 H   0  0  0  0  0  0  0  0  0  0  0  0
  1 23  1  0  0  0  0
  2  3  1  0  0  0  0
  2  1  2  0  0  0  0
  4  2  1  0  0  0  0
  5  4  1  0  0  0  0
  6  4  2  0  0  0  0
  6  7  1  0  0  0  0
  7  8  2  0  0  0  0
  8  9  1  0  0  0  0
  8  1  1  0  0  0  0
 10  7  1  0  0  0  0
 11 10  1  0  0  0  0
 12 13  1  0  0  0  0
 12 11  2  0  0  0  0
 14 12  1  0  0  0  0
 15 14  1  0  0  0  0
 16 14  2  0  0  0  0
 16 18  1  0  0  0  0
 17 16  1  0  0  0  0
 18 20  2  0  0  0  0
 19 18  1  0  0  0  0
 20 11  1  0  0  0  0
 20 21  1  0  0  0  0
 21  6  1  0  0  0  0
 22 21  1  0  0  0  0
 23 24  2  0  0  0  0
 23 25  1  0  0  0  0
 25 27  1  0  0  0  0
 27 26  2  1  0  0  0
 27 30  1  0  0  0  0
 28 27  1  0  0  0  0
 29 28  1  0  0  0  0
 30 32  1  0  0  0  0
 31 32  2  0  0  0  0
 31 36  1  0  0  0  0
 32 33  1  0  0  0  0
 33 38  1  0  0  0  0
 33 34  2  0  0  0  0
 35 39  1  0  0  0  0
 35 34  1  0  0  0  0
 36 35  2  0  0  0  0
 37 31  1  0  0  0  0
M  END
>  <minimizedAffinity>
-5.84705877

>  <minimizedRMSD>
1.59580576

$$$$
