
 OpenBabel03242518503D

 36 39  0  0  0  0  0  0  0  0999 V2000
   46.2570   32.2820   47.0820 C   0  0  0  0  0  0  0  0  0  0  0  0
   47.3180   32.4000   47.9530 C   0  0  0  0  0  0  0  0  0  0  0  0
   47.6300   33.3340   48.3920 H   0  0  0  0  0  0  0  0  0  0  0  0
   48.0830   31.3180   48.3560 C   0  0  0  0  0  0  0  0  0  0  0  0
   48.9230   31.4730   49.0540 H   0  0  0  0  0  0  0  0  0  0  0  0
   47.8240   30.0280   47.9020 C   0  0  0  0  0  0  0  0  0  0  0  0
   46.7600   29.9410   47.0350 C   0  0  0  0  0  0  0  0  0  0  0  0
   46.0210   30.9970   46.6460 C   0  0  0  0  0  0  0  0  0  0  0  0
   45.1820   30.8790   45.9450 H   0  0  0  0  0  0  0  0  0  0  0  0
   46.3240   28.3410   46.3820 S   0  0  0  0  0  0  0  0  0  0  0  0
   47.4730   27.1960   47.1180 C   0  0  0  0  0  0  0  0  0  0  0  0
   47.3170   25.8900   46.7790 C   0  0  0  0  0  0  0  0  0  0  0  0
   46.5400   25.5540   46.1000 H   0  0  0  0  0  0  0  0  0  0  0  0
   48.2080   24.9820   47.3440 C   0  0  0  0  0  0  0  0  0  0  0  0
   48.1140   23.9390   47.0940 H   0  0  0  0  0  0  0  0  0  0  0  0
   49.2190   25.3500   48.2160 C   0  0  0  0  0  0  0  0  0  0  0  0
   49.9050   24.6490   48.6460 H   0  0  0  0  0  0  0  0  0  0  0  0
   49.3010   26.7080   48.5050 C   0  0  0  0  0  0  0  0  0  0  0  0
   50.1130   26.9790   49.1980 H   0  0  0  0  0  0  0  0  0  0  0  0
   48.4430   27.6440   47.9700 C   0  0  0  0  0  0  0  0  0  0  0  0
   48.6310   28.9720   48.3570 N   0  0  0  0  0  0  0  0  0  0  0  0
   49.4040   29.2060   49.0160 H   0  0  0  0  0  0  0  0  0  0  0  0
   45.4610   33.4280   46.6730 C   0  0  0  0  0  0  0  0  0  0  0  0
   44.6060   33.8110   47.5230 O   0  0  0  0  0  0  0  0  0  0  0  0
   44.8260   35.7430   43.9230 C   0  0  0  0  0  0  0  0  0  0  0  0
   45.8410   35.4750   42.9780 C   0  0  0  0  0  0  0  0  0  0  0  0
   46.7350   34.4740   43.3280 C   0  0  0  0  0  0  0  0  0  0  0  0
   46.5520   33.8680   44.5060 N   0  0  0  0  0  0  0  0  0  0  0  0
   45.5970   34.1150   45.4030 C   0  0  0  0  0  0  0  0  0  0  0  0
   44.7110   35.0860   45.0870 N   0  0  0  0  0  0  0  0  0  0  0  0
   44.1150   36.5230   43.6740 H   0  0  0  0  0  0  0  0  0  0  0  0
   45.9410   35.9950   42.0490 H   0  0  0  0  0  0  0  0  0  0  0  0
   47.8040   34.1770   42.3670 C   0  0  0  0  0  0  0  0  0  0  0  0
   48.9670   33.8460   43.0430 F   0  0  0  0  0  0  0  0  0  0  0  0
   48.0820   35.3880   41.7120 F   0  0  0  0  0  0  0  0  0  0  0  0
   47.4900   33.1870   41.4970 F   0  0  0  0  0  0  0  0  0  0  0  0
  1  2  1  0  0  0  0
  2  4  2  0  0  0  0
  2  3  1  0  0  0  0
  4  5  1  0  0  0  0
  6  4  1  0  0  0  0
  6 21  1  0  0  0  0
  7  6  2  0  0  0  0
  8  7  1  0  0  0  0
  8  1  2  0  0  0  0
  9  8  1  0  0  0  0
 10  7  1  0  0  0  0
 10 11  1  0  0  0  0
 11 20  1  0  0  0  0
 12 11  2  0  0  0  0
 12 14  1  0  0  0  0
 13 12  1  0  0  0  0
 14 16  2  0  0  0  0
 15 14  1  0  0  0  0
 16 18  1  0  0  0  0
 16 17  1  0  0  0  0
 18 19  1  0  0  0  0
 20 21  1  0  0  0  0
 20 18  2  0  0  0  0
 21 22  1  0  0  0  0
 23  1  1  0  0  0  0
 23 24  2  0  0  0  0
 25 30  1  0  0  0  0
 26 27  1  0  0  0  0
 26 25  2  0  0  0  0
 27 28  2  0  0  0  0
 28 29  1  0  0  0  0
 29 23  1  0  0  0  0
 30 29  2  0  0  0  0
 31 25  1  0  0  0  0
 32 26  1  0  0  0  0
 33 34  1  0  0  0  0
 33 27  1  0  0  0  0
 35 33  1  0  0  0  0
 36 33  1  0  0  0  0
M  END
>  <minimizedAffinity>
-6.01039982

>  <minimizedRMSD>
1.51214981

$$$$
