
 OpenBabel03242519463D

 51 55  0  0  1  0  0  0  0  0999 V2000
   44.9900   29.9660   48.0930 C   0  0  0  0  0  0  0  0  0  0  0  0
   45.1260   30.2910   49.1280 H   0  0  0  0  0  0  0  0  0  0  0  0
   43.8060   29.9520   48.0510 H   0  0  0  0  0  0  0  0  0  0  0  0
   45.3610   28.6100   47.6820 C   0  0  0  0  0  0  0  0  0  0  0  0
   46.3930   28.4640   47.3280 H   0  0  0  0  0  0  0  0  0  0  0  0
   45.2570   27.9400   48.5640 H   0  0  0  0  0  0  0  0  0  0  0  0
   44.5090   28.1250   46.5620 C   0  0  0  0  0  0  0  0  0  0  0  0
   44.4710   28.4350   45.2250 C   0  0  0  0  0  0  0  0  0  0  0  0
   45.2070   29.1650   44.9440 H   0  0  0  0  0  0  0  0  0  0  0  0
   43.5670   27.8400   44.3780 C   0  0  0  0  0  0  0  0  0  0  0  0
   43.6450   28.1780   43.3320 H   0  0  0  0  0  0  0  0  0  0  0  0
   42.6440   26.9030   44.7930 C   0  0  0  0  0  0  0  0  0  0  0  0
   42.6530   26.5670   46.1250 C   0  0  0  0  0  0  0  0  0  0  0  0
   43.5560   27.1680   46.9460 C   0  0  0  0  0  0  0  0  0  0  0  0
   43.4790   26.8300   47.9910 H   0  0  0  0  0  0  0  0  0  0  0  0
   41.4790   25.3700   46.6730 S   0  0  0  0  0  0  0  0  0  0  0  0
   40.5230   24.8770   45.2510 C   0  0  0  0  0  0  0  0  0  0  0  0
   39.5460   23.9420   45.4670 C   0  0  0  0  0  0  0  0  0  0  0  0
   39.3580   23.5220   46.4460 H   0  0  0  0  0  0  0  0  0  0  0  0
   38.7780   23.5200   44.4210 C   0  0  0  0  0  0  0  0  0  0  0  0
   37.9860   22.7880   44.5000 H   0  0  0  0  0  0  0  0  0  0  0  0
   39.0090   24.0490   43.1740 C   0  0  0  0  0  0  0  0  0  0  0  0
   38.4150   23.7310   42.3330 H   0  0  0  0  0  0  0  0  0  0  0  0
   40.0070   24.9840   43.0290 C   0  0  0  0  0  0  0  0  0  0  0  0
   40.1390   25.3670   42.0050 H   0  0  0  0  0  0  0  0  0  0  0  0
   40.8160   25.4520   44.0420 C   0  0  0  0  0  0  0  0  0  0  0  0
   41.8040   26.4090   43.7670 N   0  0  0  0  0  0  0  0  0  0  0  0
   41.8810   26.7330   42.7810 H   0  0  0  0  0  0  0  0  0  0  0  0
   45.2660   30.9830   47.2110 O   0  0  0  0  0  0  0  0  0  0  0  0
   46.6140   32.9090   46.7270 C   0  0  2  0  0  0  0  0  0  0  0  0
   47.0520   32.7910   45.3200 C   0  0  1  0  0  0  0  0  0  0  0  0
   46.5930   31.4530   44.9240 O   0  0  0  0  0  0  0  0  0  0  0  0
   47.2410   30.7810   45.9870 C   0  0  0  0  0  0  0  0  0  0  0  0
   46.5450   31.4580   47.1830 C   0  0  2  0  0  0  0  0  0  0  0  0
   47.2850   33.5170   47.3610 H   0  0  0  0  0  0  0  0  0  0  0  0
   48.1550   32.6940   45.2330 H   0  0  0  0  0  0  0  0  0  0  0  0
   47.2330   29.7290   45.9600 H   0  0  0  0  0  0  0  0  0  0  0  0
   48.3170   31.1190   45.9870 H   0  0  0  0  0  0  0  0  0  0  0  0
   47.1680   31.2180   48.0650 H   0  0  0  0  0  0  0  0  0  0  0  0
   44.7070   35.2450   43.9740 C   0  0  0  0  0  0  0  0  0  0  0  0
   45.3370   35.7140   42.8160 C   0  0  0  0  0  0  0  0  0  0  0  0
   46.5980   35.1720   42.4830 C   0  0  0  0  0  0  0  0  0  0  0  0
   47.1450   34.2260   43.2900 N   0  0  0  0  0  0  0  0  0  0  0  0
   46.5100   33.7940   44.4000 C   0  0  0  0  0  0  0  0  0  0  0  0
   45.2910   34.2950   44.7540 N   0  0  0  0  0  0  0  0  0  0  0  0
   44.8700   36.4610   42.2120 H   0  0  0  0  0  0  0  0  0  0  0  0
   47.1190   35.5150   41.5870 H   0  0  0  0  0  0  0  0  0  0  0  0
   43.4590   35.7430   44.3590 O   0  0  0  0  0  0  0  0  0  0  0  0
   43.1980   36.6800   44.0710 H   0  0  0  0  0  0  0  0  0  0  0  0
   45.2790   33.4440   46.7730 O   0  0  0  0  0  0  0  0  0  0  0  0
   44.6760   32.7260   46.4790 H   0  0  0  0  0  0  0  0  0  0  0  0
  1  2  1  0  0  0  0
  3  1  1  0  0  0  0
  4  1  1  0  0  0  0
  4  6  1  0  0  0  0
  5  4  1  0  0  0  0
  7 14  1  0  0  0  0
  7  4  1  0  0  0  0
  8  7  2  0  0  0  0
  9  8  1  0  0  0  0
 10 12  2  0  0  0  0
 10  8  1  0  0  0  0
 11 10  1  0  0  0  0
 12 13  1  0  0  0  0
 13 16  1  0  0  0  0
 13 14  2  0  0  0  0
 14 15  1  0  0  0  0
 17 18  1  0  0  0  0
 17 16  1  0  0  0  0
 18 19  1  0  0  0  0
 20 21  1  0  0  0  0
 20 18  2  0  0  0  0
 22 20  1  0  0  0  0
 23 22  1  0  0  0  0
 24 22  2  0  0  0  0
 24 26  1  0  0  0  0
 25 24  1  0  0  0  0
 26 17  2  0  0  0  0
 27 26  1  0  0  0  0
 27 12  1  0  0  0  0
 28 27  1  0  0  0  0
 29  1  1  0  0  0  0
 30 50  1  0  0  0  0
 30 34  1  0  0  0  0
 30 35  1  1  0  0  0
 31 36  1  6  0  0  0
 31 30  1  0  0  0  0
 32 31  1  0  0  0  0
 32 33  1  0  0  0  0
 33 34  1  0  0  0  0
 34 29  1  0  0  0  0
 34 39  1  1  0  0  0
 37 33  1  0  0  0  0
 38 33  1  0  0  0  0
 40 48  1  0  0  0  0
 40 45  1  0  0  0  0
 41 40  2  0  0  0  0
 42 41  1  0  0  0  0
 42 43  2  0  0  0  0
 43 44  1  0  0  0  0
 44 45  2  0  0  0  0
 44 31  1  0  0  0  0
 46 41  1  0  0  0  0
 47 42  1  0  0  0  0
 49 48  1  0  0  0  0
 51 50  1  0  0  0  0
M  END
>  <minimizedAffinity>
-6.4624052

>  <minimizedRMSD>
0.368417233

$$$$
