
 OpenBabel03242514343D

 39 42  0  0  0  0  0  0  0  0999 V2000
   47.6250   33.4840   38.0850 C   0  0  0  0  0  0  0  0  0  0  0  0
   48.6670   33.9130   37.3480 C   0  0  0  0  0  0  0  0  0  0  0  0
   49.3700   34.6570   37.6890 H   0  0  0  0  0  0  0  0  0  0  0  0
   48.8020   33.3310   36.0830 C   0  0  0  0  0  0  0  0  0  0  0  0
   49.6580   33.7010   35.5110 H   0  0  0  0  0  0  0  0  0  0  0  0
   47.9650   32.3820   35.5620 C   0  0  0  0  0  0  0  0  0  0  0  0
   46.9130   31.9710   36.3440 C   0  0  0  0  0  0  0  0  0  0  0  0
   46.7600   32.5130   37.5640 C   0  0  0  0  0  0  0  0  0  0  0  0
   45.9120   32.1730   38.1800 H   0  0  0  0  0  0  0  0  0  0  0  0
   45.7980   30.7370   35.7040 S   0  0  0  0  0  0  0  0  0  0  0  0
   46.3940   30.3310   34.0860 C   0  0  0  0  0  0  0  0  0  0  0  0
   45.6730   29.3960   33.4210 C   0  0  0  0  0  0  0  0  0  0  0  0
   44.7910   28.9070   33.8120 H   0  0  0  0  0  0  0  0  0  0  0  0
   46.0630   29.0070   32.1350 C   0  0  0  0  0  0  0  0  0  0  0  0
   45.5210   28.2650   31.5660 H   0  0  0  0  0  0  0  0  0  0  0  0
   47.1730   29.5890   31.5840 C   0  0  0  0  0  0  0  0  0  0  0  0
   47.4830   29.2980   30.5940 H   0  0  0  0  0  0  0  0  0  0  0  0
   47.8430   30.5280   32.3290 C   0  0  0  0  0  0  0  0  0  0  0  0
   48.7220   30.9500   31.8180 H   0  0  0  0  0  0  0  0  0  0  0  0
   47.5070   30.9510   33.6000 C   0  0  0  0  0  0  0  0  0  0  0  0
   48.2660   31.9140   34.2610 N   0  0  0  0  0  0  0  0  0  0  0  0
   49.0890   32.2850   33.7390 H   0  0  0  0  0  0  0  0  0  0  0  0
   47.3420   34.0000   39.4550 C   0  0  0  0  0  0  0  0  0  0  0  0
   46.1870   33.5390   39.8200 O   0  0  0  0  0  0  0  0  0  0  0  0
   47.8840   34.7790   40.4120 O   0  0  0  0  0  0  0  0  0  0  0  0
   49.3340   35.4760   42.4270 O   0  0  0  0  0  0  0  0  0  0  0  0
   48.7180   34.2810   41.7700 P   0  0  2  0  0  0  0  0  0  0  0  0
   49.9650   33.2570   41.3060 O   0  0  0  0  0  0  0  0  0  0  0  0
   50.7440   33.7470   40.9900 H   0  0  0  0  0  0  0  0  0  0  0  0
   47.6570   33.4930   42.8570 O   0  0  0  0  0  0  0  0  0  0  0  0
   46.0910   35.2910   42.8570 C   0  0  0  0  0  0  0  0  0  0  0  0
   46.6360   34.1920   43.4980 C   0  0  0  0  0  0  0  0  0  0  0  0
   46.1380   33.8350   44.7570 C   0  0  0  0  0  0  0  0  0  0  0  0
   45.1380   34.5940   45.2890 N   0  0  0  0  0  0  0  0  0  0  0  0
   44.6350   35.6480   44.6420 C   0  0  0  0  0  0  0  0  0  0  0  0
   45.1090   35.9870   43.4430 N   0  0  0  0  0  0  0  0  0  0  0  0
   46.4390   35.6150   41.8750 H   0  0  0  0  0  0  0  0  0  0  0  0
   46.6030   32.9830   45.1900 H   0  0  0  0  0  0  0  0  0  0  0  0
   43.8440   36.1550   45.1850 H   0  0  0  0  0  0  0  0  0  0  0  0
  1 23  1  0  0  0  0
  2  3  1  0  0  0  0
  2  1  2  0  0  0  0
  4  2  1  0  0  0  0
  5  4  1  0  0  0  0
  6  4  2  0  0  0  0
  6  7  1  0  0  0  0
  7  8  2  0  0  0  0
  8  1  1  0  0  0  0
  8  9  1  0  0  0  0
 10  7  1  0  0  0  0
 11 10  1  0  0  0  0
 12 13  1  0  0  0  0
 12 11  2  0  0  0  0
 14 12  1  0  0  0  0
 15 14  1  0  0  0  0
 16 14  2  0  0  0  0
 16 18  1  0  0  0  0
 17 16  1  0  0  0  0
 18 20  2  0  0  0  0
 19 18  1  0  0  0  0
 20 11  1  0  0  0  0
 20 21  1  0  0  0  0
 21  6  1  0  0  0  0
 22 21  1  0  0  0  0
 23 24  2  0  0  0  0
 23 25  1  0  0  0  0
 25 27  1  0  0  0  0
 27 26  2  1  0  0  0
 27 30  1  0  0  0  0
 28 27  1  0  0  0  0
 29 28  1  0  0  0  0
 30 32  1  0  0  0  0
 31 36  2  0  0  0  0
 31 32  1  0  0  0  0
 32 33  2  0  0  0  0
 33 38  1  0  0  0  0
 33 34  1  0  0  0  0
 35 39  1  0  0  0  0
 35 34  2  0  0  0  0
 36 35  1  0  0  0  0
 37 31  1  0  0  0  0
M  END
>  <minimizedAffinity>
-5.85504198

>  <minimizedRMSD>
1.65055835

$$$$
