
 OpenBabel03242523193D

 50 55  0  0  0  0  0  0  0  0999 V2000
   44.5730   31.8350   42.8360 Cl  0  0  0  0  0  0  0  0  0  0  0  0
   44.5840   33.5990   42.7600 C   0  0  0  0  0  0  0  0  0  0  0  0
   45.3820   34.2380   43.7310 C   0  0  0  0  0  0  0  0  0  0  0  0
   45.3210   35.6140   43.5790 C   0  0  0  0  0  0  0  0  0  0  0  0
   44.6490   36.3550   42.6860 C   0  0  0  0  0  0  0  0  0  0  0  0
   43.9010   35.6550   41.7820 C   0  0  0  0  0  0  0  0  0  0  0  0
   43.8540   34.3040   41.7990 C   0  0  0  0  0  0  0  0  0  0  0  0
   45.8670   36.2750   44.2860 H   0  0  0  0  0  0  0  0  0  0  0  0
   44.6290   37.4120   42.6000 H   0  0  0  0  0  0  0  0  0  0  0  0
   43.3000   36.0970   40.9950 H   0  0  0  0  0  0  0  0  0  0  0  0
   43.0680   33.5030   40.8590 C   0  0  0  0  0  0  0  0  0  0  0  0
   41.7210   33.3770   41.2060 C   0  0  0  0  0  0  0  0  0  0  0  0
   41.3100   33.8360   42.0940 H   0  0  0  0  0  0  0  0  0  0  0  0
   40.8790   32.6310   40.3790 C   0  0  0  0  0  0  0  0  0  0  0  0
   39.8310   32.5670   40.7050 H   0  0  0  0  0  0  0  0  0  0  0  0
   41.2920   32.0030   39.2260 C   0  0  0  0  0  0  0  0  0  0  0  0
   42.6220   32.1610   38.9330 C   0  0  0  0  0  0  0  0  0  0  0  0
   43.4900   32.8780   39.7060 C   0  0  0  0  0  0  0  0  0  0  0  0
   44.5220   33.0010   39.4830 H   0  0  0  0  0  0  0  0  0  0  0  0
   43.2570   31.3880   37.4620 S   0  0  0  0  0  0  0  0  0  0  0  0
   41.8890   30.5440   36.6940 C   0  0  0  0  0  0  0  0  0  0  0  0
   42.0820   29.8510   35.5300 C   0  0  0  0  0  0  0  0  0  0  0  0
   43.0890   29.8380   35.0980 H   0  0  0  0  0  0  0  0  0  0  0  0
   41.0660   29.1810   34.8900 C   0  0  0  0  0  0  0  0  0  0  0  0
   41.3200   28.6640   33.9760 H   0  0  0  0  0  0  0  0  0  0  0  0
   39.8140   29.2260   35.4700 C   0  0  0  0  0  0  0  0  0  0  0  0
   39.0140   28.7160   34.9950 H   0  0  0  0  0  0  0  0  0  0  0  0
   39.6650   29.9350   36.6430 C   0  0  0  0  0  0  0  0  0  0  0  0
   38.6360   29.9190   37.0360 H   0  0  0  0  0  0  0  0  0  0  0  0
   40.6640   30.6160   37.3050 C   0  0  0  0  0  0  0  0  0  0  0  0
   40.3210   31.2830   38.4920 N   0  0  0  0  0  0  0  0  0  0  0  0
   39.3400   31.2480   38.8350 H   0  0  0  0  0  0  0  0  0  0  0  0
   46.2080   33.5790   44.7830 C   0  0  0  0  0  0  0  0  0  0  0  0
   45.6110   33.9870   45.7460 O   0  0  0  0  0  0  0  0  0  0  0  0
   47.2740   32.8090   44.1270 C   0  0  0  0  0  0  0  0  0  0  0  0
   48.1350   33.2660   43.2070 C   0  0  0  0  0  0  0  0  0  0  0  0
   48.9750   32.3060   42.6800 C   0  0  0  0  0  0  0  0  0  0  0  0
   48.8590   30.9820   43.1430 N   0  0  0  0  0  0  0  0  0  0  0  0
   47.9910   30.6120   44.0520 C   0  0  0  0  0  0  0  0  0  0  0  0
   47.1330   31.5400   44.6000 N   0  0  0  0  0  0  0  0  0  0  0  0
   49.7330   32.4850   41.9250 H   0  0  0  0  0  0  0  0  0  0  0  0
   48.0210   29.5580   44.3090 H   0  0  0  0  0  0  0  0  0  0  0  0
   48.3260   34.6210   42.8290 C   0  0  0  0  0  0  0  0  0  0  0  0
   49.3400   35.1660   42.1050 C   0  0  0  0  0  0  0  0  0  0  0  0
   48.0830   34.9760   41.3010 C   0  0  0  0  0  0  0  0  0  0  0  0
   47.8930   35.3470   43.5420 H   0  0  0  0  0  0  0  0  0  0  0  0
   49.7030   36.2210   42.0720 H   0  0  0  0  0  0  0  0  0  0  0  0
   50.1850   34.5060   41.7470 H   0  0  0  0  0  0  0  0  0  0  0  0
   47.9850   34.0840   40.6670 H   0  0  0  0  0  0  0  0  0  0  0  0
   47.4190   35.8390   41.1470 H   0  0  0  0  0  0  0  0  0  0  0  0
  2  1  1  0  0  0  0
  2  3  1  0  0  0  0
  3 33  1  0  0  0  0
  4  3  2  0  0  0  0
  4  8  1  0  0  0  0
  5  4  1  0  0  0  0
  6  7  1  0  0  0  0
  6  5  2  0  0  0  0
  7  2  2  0  0  0  0
  9  5  1  0  0  0  0
 10  6  1  0  0  0  0
 11 12  1  0  0  0  0
 11  7  1  0  0  0  0
 12 13  1  0  0  0  0
 14 15  1  0  0  0  0
 14 12  2  0  0  0  0
 16 14  1  0  0  0  0
 17 16  2  0  0  0  0
 17 18  1  0  0  0  0
 18 11  2  0  0  0  0
 19 18  1  0  0  0  0
 20 17  1  0  0  0  0
 21 30  1  0  0  0  0
 21 20  1  0  0  0  0
 22 21  2  0  0  0  0
 23 22  1  0  0  0  0
 24 26  2  0  0  0  0
 24 22  1  0  0  0  0
 25 24  1  0  0  0  0
 26 28  1  0  0  0  0
 27 26  1  0  0  0  0
 28 29  1  0  0  0  0
 28 30  2  0  0  0  0
 30 31  1  0  0  0  0
 31 32  1  0  0  0  0
 31 16  1  0  0  0  0
 33 34  2  0  0  0  0
 35 40  1  0  0  0  0
 35 33  1  0  0  0  0
 36 35  2  0  0  0  0
 37 38  2  0  0  0  0
 37 36  1  0  0  0  0
 38 39  1  0  0  0  0
 39 42  1  0  0  0  0
 39 40  2  0  0  0  0
 41 37  1  0  0  0  0
 43 36  1  0  0  0  0
 43 46  1  0  0  0  0
 44 43  1  0  0  0  0
 45 44  1  0  0  0  0
 45 43  1  0  0  0  0
 47 44  1  0  0  0  0
 48 44  1  0  0  0  0
 49 45  1  0  0  0  0
 50 45  1  0  0  0  0
M  END
>  <minimizedAffinity>
-6.5954504

>  <minimizedRMSD>
0.529037952

$$$$
