
 OpenBabel03252500313D

 56 61  0  0  1  0  0  0  0  0999 V2000
   45.9940   31.5350   47.0810 N   0  0  0  0  0  0  0  0  0  0  0  0
   46.5020   32.4700   48.0220 C   0  0  0  0  0  0  0  0  0  0  0  0
   47.9600   32.1960   48.3960 C   0  0  0  0  0  0  0  0  0  0  0  0
   47.9450   30.8590   49.1210 C   0  0  0  0  0  0  0  0  0  0  0  0
   47.5380   29.8520   48.0630 C   0  0  0  0  0  0  0  0  0  0  0  0
   46.1990   30.2070   47.4690 C   0  0  2  0  0  0  0  0  0  0  0  0
   45.9440   32.2040   48.9760 H   0  0  0  0  0  0  0  0  0  0  0  0
   46.2510   33.5110   47.8950 H   0  0  0  0  0  0  0  0  0  0  0  0
   48.6130   32.0880   47.5220 H   0  0  0  0  0  0  0  0  0  0  0  0
   48.2840   32.9790   49.1070 H   0  0  0  0  0  0  0  0  0  0  0  0
   48.9930   30.6640   49.4230 H   0  0  0  0  0  0  0  0  0  0  0  0
   47.2280   30.8740   49.9790 H   0  0  0  0  0  0  0  0  0  0  0  0
   47.4440   28.8620   48.5520 H   0  0  0  0  0  0  0  0  0  0  0  0
   48.3680   29.8390   47.3340 H   0  0  0  0  0  0  0  0  0  0  0  0
   45.5190   30.0860   48.3780 H   0  0  0  0  0  0  0  0  0  0  0  0
   45.7480   29.1610   46.5430 C   0  0  0  0  0  0  0  0  0  0  0  0
   46.6130   28.3330   45.8590 C   0  0  0  0  0  0  0  0  0  0  0  0
   47.6840   28.4300   45.9800 H   0  0  0  0  0  0  0  0  0  0  0  0
   46.0950   27.3570   44.9960 C   0  0  0  0  0  0  0  0  0  0  0  0
   46.8560   26.7410   44.4940 H   0  0  0  0  0  0  0  0  0  0  0  0
   44.7470   27.1610   44.7780 C   0  0  0  0  0  0  0  0  0  0  0  0
   43.8940   27.9930   45.4640 C   0  0  0  0  0  0  0  0  0  0  0  0
   44.4080   28.9390   46.3010 C   0  0  0  0  0  0  0  0  0  0  0  0
   43.6800   29.5790   46.8270 H   0  0  0  0  0  0  0  0  0  0  0  0
   42.1570   27.7820   45.2180 S   0  0  0  0  0  0  0  0  0  0  0  0
   41.9600   26.4540   44.0630 C   0  0  0  0  0  0  0  0  0  0  0  0
   40.6660   26.1390   43.7440 C   0  0  0  0  0  0  0  0  0  0  0  0
   39.8120   26.6330   44.1380 H   0  0  0  0  0  0  0  0  0  0  0  0
   40.4470   25.0980   42.8360 C   0  0  0  0  0  0  0  0  0  0  0  0
   39.4410   24.8270   42.5650 H   0  0  0  0  0  0  0  0  0  0  0  0
   41.5250   24.4280   42.2970 C   0  0  0  0  0  0  0  0  0  0  0  0
   41.3690   23.6310   41.6020 H   0  0  0  0  0  0  0  0  0  0  0  0
   42.7880   24.8230   42.6850 C   0  0  0  0  0  0  0  0  0  0  0  0
   43.6050   24.2500   42.2200 H   0  0  0  0  0  0  0  0  0  0  0  0
   43.0820   25.8390   43.5740 C   0  0  0  0  0  0  0  0  0  0  0  0
   44.4130   26.1300   43.8750 N   0  0  0  0  0  0  0  0  0  0  0  0
   45.1480   25.5580   43.4080 H   0  0  0  0  0  0  0  0  0  0  0  0
   46.1150   31.9070   45.7120 C   0  0  0  0  0  0  0  0  0  0  0  0
   45.2920   31.5010   45.1210 H   0  0  0  0  0  0  0  0  0  0  0  0
   47.0960   31.5000   45.3290 H   0  0  0  0  0  0  0  0  0  0  0  0
   46.5590   34.0650   44.3090 C   0  0  1  0  0  0  0  0  0  0  0  0
   45.2460   34.1550   44.8320 C   0  0  0  0  0  0  0  0  0  0  0  0
   46.2190   33.3850   45.6510 C   0  0  1  0  0  0  0  0  0  0  0  0
   47.2450   34.9470   44.3590 H   0  0  0  0  0  0  0  0  0  0  0  0
   44.4350   33.5430   44.3640 H   0  0  0  0  0  0  0  0  0  0  0  0
   44.8410   35.1240   45.1990 H   0  0  0  0  0  0  0  0  0  0  0  0
   46.8230   33.8430   46.4510 H   0  0  0  0  0  0  0  0  0  0  0  0
   45.9850   32.7470   42.2670 C   0  0  0  0  0  0  0  0  0  0  0  0
   46.9810   33.1680   43.1940 C   0  0  0  0  0  0  0  0  0  0  0  0
   48.2730   32.7370   43.0350 C   0  0  0  0  0  0  0  0  0  0  0  0
   48.5400   31.9140   41.9780 N   0  0  0  0  0  0  0  0  0  0  0  0
   47.5720   31.5200   41.0980 C   0  0  0  0  0  0  0  0  0  0  0  0
   46.2740   31.9320   41.2300 N   0  0  0  0  0  0  0  0  0  0  0  0
   44.9550   33.0470   42.3350 H   0  0  0  0  0  0  0  0  0  0  0  0
   49.0260   33.0470   43.7240 H   0  0  0  0  0  0  0  0  0  0  0  0
   48.0050   30.8800   40.3530 H   0  0  0  0  0  0  0  0  0  0  0  0
  1  6  1  0  0  0  0
  1  2  1  0  0  0  0
  2  3  1  0  0  0  0
  2  7  1  0  0  0  0
  3 10  1  0  0  0  0
  3  4  1  0  0  0  0
  4 11  1  0  0  0  0
  4 12  1  0  0  0  0
  5 13  1  0  0  0  0
  5  4  1  0  0  0  0
  6  5  1  0  0  0  0
  6 15  1  1  0  0  0
  8  2  1  0  0  0  0
  9  3  1  0  0  0  0
 14  5  1  0  0  0  0
 16  6  1  0  0  0  0
 17 18  1  0  0  0  0
 17 16  2  0  0  0  0
 19 17  1  0  0  0  0
 20 19  1  0  0  0  0
 21 19  2  0  0  0  0
 21 22  1  0  0  0  0
 22 23  2  0  0  0  0
 23 16  1  0  0  0  0
 23 24  1  0  0  0  0
 25 22  1  0  0  0  0
 26 25  1  0  0  0  0
 27 26  1  0  0  0  0
 27 28  1  0  0  0  0
 29 27  2  0  0  0  0
 30 29  1  0  0  0  0
 31 33  2  0  0  0  0
 31 29  1  0  0  0  0
 32 31  1  0  0  0  0
 33 35  1  0  0  0  0
 34 33  1  0  0  0  0
 35 36  1  0  0  0  0
 35 26  2  0  0  0  0
 36 21  1  0  0  0  0
 37 36  1  0  0  0  0
 38  1  1  0  0  0  0
 39 38  1  0  0  0  0
 40 38  1  0  0  0  0
 41 44  1  1  0  0  0
 41 42  1  0  0  0  0
 41 43  1  0  0  0  0
 42 46  1  0  0  0  0
 42 43  1  0  0  0  0
 43 38  1  0  0  0  0
 43 47  1  1  0  0  0
 45 42  1  0  0  0  0
 48 54  1  0  0  0  0
 48 49  1  0  0  0  0
 49 41  1  0  0  0  0
 50 49  2  0  0  0  0
 50 55  1  0  0  0  0
 51 50  1  0  0  0  0
 52 53  1  0  0  0  0
 52 51  2  0  0  0  0
 53 48  2  0  0  0  0
 56 52  1  0  0  0  0
M  END
>  <minimizedAffinity>
-4.6467247

>  <minimizedRMSD>
2.08233833

$$$$
