
 OpenBabel03252504093D

 38 41  0  0  0  0  0  0  0  0999 V2000
   46.7920   31.0030   45.4130 C   0  0  0  0  0  0  0  0  0  0  0  0
   48.0520   30.4760   45.2210 C   0  0  0  0  0  0  0  0  0  0  0  0
   48.7730   31.0250   44.6570 H   0  0  0  0  0  0  0  0  0  0  0  0
   48.3370   29.2450   45.7720 C   0  0  0  0  0  0  0  0  0  0  0  0
   49.3620   28.8890   45.5770 H   0  0  0  0  0  0  0  0  0  0  0  0
   47.4620   28.4780   46.5090 C   0  0  0  0  0  0  0  0  0  0  0  0
   46.2260   29.0520   46.6680 C   0  0  0  0  0  0  0  0  0  0  0  0
   45.8940   30.2690   46.1420 C   0  0  0  0  0  0  0  0  0  0  0  0
   44.8920   30.6770   46.3000 H   0  0  0  0  0  0  0  0  0  0  0  0
   45.0030   28.1580   47.6050 S   0  0  0  0  0  0  0  0  0  0  0  0
   45.7650   26.6380   48.1290 C   0  0  0  0  0  0  0  0  0  0  0  0
   45.0690   25.7290   48.8770 C   0  0  0  0  0  0  0  0  0  0  0  0
   44.0270   25.9590   49.1440 H   0  0  0  0  0  0  0  0  0  0  0  0
   45.5950   24.5330   49.3180 C   0  0  0  0  0  0  0  0  0  0  0  0
   44.9790   23.8870   49.8940 H   0  0  0  0  0  0  0  0  0  0  0  0
   46.9030   24.2890   48.9570 C   0  0  0  0  0  0  0  0  0  0  0  0
   47.3570   23.3710   49.2770 H   0  0  0  0  0  0  0  0  0  0  0  0
   47.5910   25.2180   48.2030 C   0  0  0  0  0  0  0  0  0  0  0  0
   48.6260   24.9310   47.9670 H   0  0  0  0  0  0  0  0  0  0  0  0
   47.0660   26.4130   47.7610 C   0  0  0  0  0  0  0  0  0  0  0  0
   47.9240   27.2340   47.0000 N   0  0  0  0  0  0  0  0  0  0  0  0
   48.8860   26.9440   46.7950 H   0  0  0  0  0  0  0  0  0  0  0  0
   46.5300   33.8850   43.1650 C   0  0  0  0  0  0  0  0  0  0  0  0
   45.6860   34.7360   43.8710 C   0  0  0  0  0  0  0  0  0  0  0  0
   45.2120   34.3080   45.1190 C   0  0  0  0  0  0  0  0  0  0  0  0
   45.5980   33.0920   45.5760 N   0  0  0  0  0  0  0  0  0  0  0  0
   46.4170   32.3000   44.8610 C   0  0  0  0  0  0  0  0  0  0  0  0
   46.8860   32.6830   43.6610 N   0  0  0  0  0  0  0  0  0  0  0  0
   44.5530   34.9630   45.6800 H   0  0  0  0  0  0  0  0  0  0  0  0
   45.3200   36.0500   43.2860 C   0  0  0  0  0  0  0  0  0  0  0  0
   46.4550   36.6790   42.7910 F   0  0  0  0  0  0  0  0  0  0  0  0
   44.5010   35.8260   42.1930 F   0  0  0  0  0  0  0  0  0  0  0  0
   44.7260   36.9120   44.1420 F   0  0  0  0  0  0  0  0  0  0  0  0
   46.9800   34.3050   41.9670 O   0  0  0  0  0  0  0  0  0  0  0  0
   48.3170   34.5180   41.5700 C   0  0  0  0  0  0  0  0  0  0  0  0
   48.9970   35.0070   42.6850 F   0  0  0  0  0  0  0  0  0  0  0  0
   48.8530   33.3480   41.1050 F   0  0  0  0  0  0  0  0  0  0  0  0
   48.3810   35.5290   40.6420 F   0  0  0  0  0  0  0  0  0  0  0  0
  1  8  1  0  0  0  0
  2  1  2  0  0  0  0
  2  4  1  0  0  0  0
  3  2  1  0  0  0  0
  4  6  2  0  0  0  0
  5  4  1  0  0  0  0
  6  7  1  0  0  0  0
  6 21  1  0  0  0  0
  7 10  1  0  0  0  0
  8  9  1  0  0  0  0
  8  7  2  0  0  0  0
 10 11  1  0  0  0  0
 11 12  1  0  0  0  0
 12 13  1  0  0  0  0
 12 14  2  0  0  0  0
 14 15  1  0  0  0  0
 16 17  1  0  0  0  0
 16 14  1  0  0  0  0
 18 16  2  0  0  0  0
 19 18  1  0  0  0  0
 20 11  2  0  0  0  0
 20 18  1  0  0  0  0
 21 20  1  0  0  0  0
 22 21  1  0  0  0  0
 23 28  2  0  0  0  0
 23 24  1  0  0  0  0
 24 25  2  0  0  0  0
 25 26  1  0  0  0  0
 25 29  1  0  0  0  0
 27  1  1  0  0  0  0
 27 26  2  0  0  0  0
 28 27  1  0  0  0  0
 30 24  1  0  0  0  0
 30 33  1  0  0  0  0
 31 30  1  0  0  0  0
 32 30  1  0  0  0  0
 34 23  1  0  0  0  0
 35 34  1  0  0  0  0
 35 36  1  0  0  0  0
 37 35  1  0  0  0  0
 38 35  1  0  0  0  0
M  END
>  <minimizedAffinity>
-5.6621213

>  <minimizedRMSD>
2.0629859

$$$$
