
 OpenBabel03242523193D

 50 55  0  0  0  0  0  0  0  0999 V2000
   44.3190   31.9240   42.8090 Cl  0  0  0  0  0  0  0  0  0  0  0  0
   44.5150   33.6780   42.7260 C   0  0  0  0  0  0  0  0  0  0  0  0
   45.4550   34.2210   43.6250 C   0  0  0  0  0  0  0  0  0  0  0  0
   45.5310   35.5960   43.4750 C   0  0  0  0  0  0  0  0  0  0  0  0
   44.8730   36.4110   42.6380 C   0  0  0  0  0  0  0  0  0  0  0  0
   43.9810   35.8010   41.8000 C   0  0  0  0  0  0  0  0  0  0  0  0
   43.7900   34.4620   41.8260 C   0  0  0  0  0  0  0  0  0  0  0  0
   46.2020   36.1900   44.1330 H   0  0  0  0  0  0  0  0  0  0  0  0
   44.9600   37.4630   42.5500 H   0  0  0  0  0  0  0  0  0  0  0  0
   43.3680   36.3100   41.0640 H   0  0  0  0  0  0  0  0  0  0  0  0
   42.8460   33.7570   40.9560 C   0  0  0  0  0  0  0  0  0  0  0  0
   41.5050   34.0090   41.2460 C   0  0  0  0  0  0  0  0  0  0  0  0
   41.2030   34.6720   42.0450 H   0  0  0  0  0  0  0  0  0  0  0  0
   40.5200   33.3860   40.4780 C   0  0  0  0  0  0  0  0  0  0  0  0
   39.4830   33.6230   40.7530 H   0  0  0  0  0  0  0  0  0  0  0  0
   40.7870   32.5240   39.4370 C   0  0  0  0  0  0  0  0  0  0  0  0
   42.1200   32.3120   39.1970 C   0  0  0  0  0  0  0  0  0  0  0  0
   43.1240   32.8950   39.9160 C   0  0  0  0  0  0  0  0  0  0  0  0
   44.1580   32.7320   39.7340 H   0  0  0  0  0  0  0  0  0  0  0  0
   42.5710   31.2130   37.8720 S   0  0  0  0  0  0  0  0  0  0  0  0
   41.0520   30.6310   37.1470 C   0  0  0  0  0  0  0  0  0  0  0  0
   41.0890   29.7600   36.0940 C   0  0  0  0  0  0  0  0  0  0  0  0
   42.0690   29.4420   35.7200 H   0  0  0  0  0  0  0  0  0  0  0  0
   39.9500   29.2750   35.4930 C   0  0  0  0  0  0  0  0  0  0  0  0
   40.0860   28.5910   34.6680 H   0  0  0  0  0  0  0  0  0  0  0  0
   38.7390   29.7020   35.9950 C   0  0  0  0  0  0  0  0  0  0  0  0
   37.8470   29.3420   35.5480 H   0  0  0  0  0  0  0  0  0  0  0  0
   38.7480   30.5800   37.0590 C   0  0  0  0  0  0  0  0  0  0  0  0
   37.7400   30.8680   37.3960 H   0  0  0  0  0  0  0  0  0  0  0  0
   39.8710   31.0810   37.6800 C   0  0  0  0  0  0  0  0  0  0  0  0
   39.6830   31.9680   38.7520 N   0  0  0  0  0  0  0  0  0  0  0  0
   38.7160   32.2200   39.0440 H   0  0  0  0  0  0  0  0  0  0  0  0
   46.2880   33.4710   44.6090 C   0  0  0  0  0  0  0  0  0  0  0  0
   45.7270   33.8270   45.6130 O   0  0  0  0  0  0  0  0  0  0  0  0
   47.3150   32.7190   43.8740 C   0  0  0  0  0  0  0  0  0  0  0  0
   48.2350   33.2310   43.0440 C   0  0  0  0  0  0  0  0  0  0  0  0
   49.0190   32.2920   42.4060 C   0  0  0  0  0  0  0  0  0  0  0  0
   48.7930   30.9290   42.6780 N   0  0  0  0  0  0  0  0  0  0  0  0
   47.8730   30.5040   43.5080 C   0  0  0  0  0  0  0  0  0  0  0  0
   47.0690   31.4120   44.1630 N   0  0  0  0  0  0  0  0  0  0  0  0
   49.8110   32.5140   41.6990 H   0  0  0  0  0  0  0  0  0  0  0  0
   47.8180   29.4260   43.6170 H   0  0  0  0  0  0  0  0  0  0  0  0
   48.5360   34.6070   42.8630 C   0  0  0  0  0  0  0  0  0  0  0  0
   49.6310   35.1680   42.2850 C   0  0  0  0  0  0  0  0  0  0  0  0
   48.4270   35.1710   41.3830 C   0  0  0  0  0  0  0  0  0  0  0  0
   48.0970   35.2640   43.6370 H   0  0  0  0  0  0  0  0  0  0  0  0
   50.0590   36.1900   42.4160 H   0  0  0  0  0  0  0  0  0  0  0  0
   50.4580   34.5010   41.8970 H   0  0  0  0  0  0  0  0  0  0  0  0
   48.3220   34.3770   40.6310 H   0  0  0  0  0  0  0  0  0  0  0  0
   47.8300   36.0910   41.3030 H   0  0  0  0  0  0  0  0  0  0  0  0
  2  1  1  0  0  0  0
  2  3  1  0  0  0  0
  3 33  1  0  0  0  0
  4  3  2  0  0  0  0
  4  8  1  0  0  0  0
  5  4  1  0  0  0  0
  6  7  1  0  0  0  0
  6  5  2  0  0  0  0
  7  2  2  0  0  0  0
  9  5  1  0  0  0  0
 10  6  1  0  0  0  0
 11 12  1  0  0  0  0
 11  7  1  0  0  0  0
 12 13  1  0  0  0  0
 14 15  1  0  0  0  0
 14 12  2  0  0  0  0
 16 14  1  0  0  0  0
 17 16  2  0  0  0  0
 17 18  1  0  0  0  0
 18 11  2  0  0  0  0
 19 18  1  0  0  0  0
 20 17  1  0  0  0  0
 21 30  1  0  0  0  0
 21 20  1  0  0  0  0
 22 21  2  0  0  0  0
 23 22  1  0  0  0  0
 24 26  2  0  0  0  0
 24 22  1  0  0  0  0
 25 24  1  0  0  0  0
 26 28  1  0  0  0  0
 27 26  1  0  0  0  0
 28 29  1  0  0  0  0
 28 30  2  0  0  0  0
 30 31  1  0  0  0  0
 31 32  1  0  0  0  0
 31 16  1  0  0  0  0
 33 34  2  0  0  0  0
 35 40  1  0  0  0  0
 35 33  1  0  0  0  0
 36 35  2  0  0  0  0
 37 38  2  0  0  0  0
 37 36  1  0  0  0  0
 38 39  1  0  0  0  0
 39 42  1  0  0  0  0
 39 40  2  0  0  0  0
 41 37  1  0  0  0  0
 43 36  1  0  0  0  0
 43 46  1  0  0  0  0
 44 47  1  0  0  0  0
 44 43  1  0  0  0  0
 45 44  1  0  0  0  0
 45 43  1  0  0  0  0
 48 44  1  0  0  0  0
 49 45  1  0  0  0  0
 50 45  1  0  0  0  0
M  END
>  <minimizedAffinity>
-6.74664211

>  <minimizedRMSD>
1.22126901

$$$$
