
 OpenBabel03242518503D

 36 39  0  0  0  0  0  0  0  0999 V2000
   46.4400   32.4050   46.8070 C   0  0  0  0  0  0  0  0  0  0  0  0
   47.1870   32.3320   47.9620 C   0  0  0  0  0  0  0  0  0  0  0  0
   47.1180   33.0490   48.7630 H   0  0  0  0  0  0  0  0  0  0  0  0
   48.0960   31.3160   48.2070 C   0  0  0  0  0  0  0  0  0  0  0  0
   48.6690   31.3110   49.1500 H   0  0  0  0  0  0  0  0  0  0  0  0
   48.3140   30.2930   47.2890 C   0  0  0  0  0  0  0  0  0  0  0  0
   47.5550   30.3910   46.1480 C   0  0  0  0  0  0  0  0  0  0  0  0
   46.6730   31.3820   45.9150 C   0  0  0  0  0  0  0  0  0  0  0  0
   46.0920   31.4220   44.9810 H   0  0  0  0  0  0  0  0  0  0  0  0
   47.7400   29.1380   44.8930 S   0  0  0  0  0  0  0  0  0  0  0  0
   48.9430   27.9920   45.5350 C   0  0  0  0  0  0  0  0  0  0  0  0
   49.2340   26.9260   44.7490 C   0  0  0  0  0  0  0  0  0  0  0  0
   48.7650   26.7700   43.7830 H   0  0  0  0  0  0  0  0  0  0  0  0
   50.1740   26.0210   45.2350 C   0  0  0  0  0  0  0  0  0  0  0  0
   50.4300   25.1640   44.6350 H   0  0  0  0  0  0  0  0  0  0  0  0
   50.8070   26.1650   46.4590 C   0  0  0  0  0  0  0  0  0  0  0  0
   51.5330   25.4710   46.8300 H   0  0  0  0  0  0  0  0  0  0  0  0
   50.4460   27.2910   47.1950 C   0  0  0  0  0  0  0  0  0  0  0  0
   50.9600   27.3860   48.1640 H   0  0  0  0  0  0  0  0  0  0  0  0
   49.5210   28.2120   46.7560 C   0  0  0  0  0  0  0  0  0  0  0  0
   49.2430   29.2850   47.6020 N   0  0  0  0  0  0  0  0  0  0  0  0
   49.7400   29.3560   48.5160 H   0  0  0  0  0  0  0  0  0  0  0  0
   45.4860   33.4770   46.5680 C   0  0  0  0  0  0  0  0  0  0  0  0
   44.6510   33.6620   47.5010 O   0  0  0  0  0  0  0  0  0  0  0  0
   44.5490   36.1170   44.2300 C   0  0  0  0  0  0  0  0  0  0  0  0
   45.3730   35.9160   43.1010 C   0  0  0  0  0  0  0  0  0  0  0  0
   46.2480   34.8420   43.1840 C   0  0  0  0  0  0  0  0  0  0  0  0
   46.2260   34.1140   44.3040 N   0  0  0  0  0  0  0  0  0  0  0  0
   45.4510   34.2980   45.3740 C   0  0  0  0  0  0  0  0  0  0  0  0
   44.5890   35.3370   45.3200 N   0  0  0  0  0  0  0  0  0  0  0  0
   43.8570   36.9520   44.1910 H   0  0  0  0  0  0  0  0  0  0  0  0
   45.3500   36.5340   42.2290 H   0  0  0  0  0  0  0  0  0  0  0  0
   47.1220   34.6110   42.0270 C   0  0  0  0  0  0  0  0  0  0  0  0
   47.9520   33.5300   42.2710 F   0  0  0  0  0  0  0  0  0  0  0  0
   47.9720   35.7280   41.9550 F   0  0  0  0  0  0  0  0  0  0  0  0
   46.4460   34.4110   40.8700 F   0  0  0  0  0  0  0  0  0  0  0  0
  1  2  1  0  0  0  0
  2  4  2  0  0  0  0
  2  3  1  0  0  0  0
  4  5  1  0  0  0  0
  6 21  1  0  0  0  0
  6  4  1  0  0  0  0
  7  6  2  0  0  0  0
  8  7  1  0  0  0  0
  8  1  2  0  0  0  0
  9  8  1  0  0  0  0
 10 11  1  0  0  0  0
 10  7  1  0  0  0  0
 11 20  1  0  0  0  0
 12 14  1  0  0  0  0
 12 11  2  0  0  0  0
 13 12  1  0  0  0  0
 14 16  2  0  0  0  0
 15 14  1  0  0  0  0
 16 17  1  0  0  0  0
 16 18  1  0  0  0  0
 18 19  1  0  0  0  0
 20 18  2  0  0  0  0
 20 21  1  0  0  0  0
 21 22  1  0  0  0  0
 23  1  1  0  0  0  0
 23 24  2  0  0  0  0
 25 30  1  0  0  0  0
 26 27  1  0  0  0  0
 26 25  2  0  0  0  0
 27 28  2  0  0  0  0
 28 29  1  0  0  0  0
 29 23  1  0  0  0  0
 30 29  2  0  0  0  0
 31 25  1  0  0  0  0
 32 26  1  0  0  0  0
 33 34  1  0  0  0  0
 33 27  1  0  0  0  0
 35 33  1  0  0  0  0
 36 33  1  0  0  0  0
M  END
>  <minimizedAffinity>
-5.67221498

>  <minimizedRMSD>
0.675890982

$$$$
