
 OpenBabel03242523063D

 58 64  0  0  1  0  0  0  0  0999 V2000
   46.6220   32.1450   45.6350 C   0  0  0  0  0  0  0  0  0  0  0  0
   46.7810   32.7870   44.3840 C   0  0  0  0  0  0  0  0  0  0  0  0
   47.6220   32.0530   43.5610 C   0  0  0  0  0  0  0  0  0  0  0  0
   48.2360   30.8730   43.8560 C   0  0  0  0  0  0  0  0  0  0  0  0
   48.0230   30.3190   45.0910 C   0  0  0  0  0  0  0  0  0  0  0  0
   47.2140   30.9550   45.9890 C   0  0  0  0  0  0  0  0  0  0  0  0
   48.7570   29.1500   45.0930 O   0  0  0  0  0  0  0  0  0  0  0  0
   49.5270   29.0650   43.9240 C   0  0  1  0  0  0  0  0  0  0  0  0
   49.0790   30.1080   43.0840 O   0  0  0  0  0  0  0  0  0  0  0  0
   46.0310   32.4550   46.5030 H   0  0  0  0  0  0  0  0  0  0  0  0
   47.7460   32.5320   42.6420 H   0  0  0  0  0  0  0  0  0  0  0  0
   47.1170   30.4450   46.9130 H   0  0  0  0  0  0  0  0  0  0  0  0
   49.3490   28.0690   43.4550 H   0  0  0  0  0  0  0  0  0  0  0  0
   50.9680   29.1880   44.2790 C   0  0  0  0  0  0  0  0  0  0  0  0
   51.3890   29.2920   45.5970 C   0  0  0  0  0  0  0  0  0  0  0  0
   50.6790   29.2820   46.4060 H   0  0  0  0  0  0  0  0  0  0  0  0
   52.7580   29.4060   45.8140 C   0  0  0  0  0  0  0  0  0  0  0  0
   53.0360   29.4830   46.8690 H   0  0  0  0  0  0  0  0  0  0  0  0
   53.7140   29.4230   44.8160 C   0  0  0  0  0  0  0  0  0  0  0  0
   53.2050   29.3170   43.5500 C   0  0  0  0  0  0  0  0  0  0  0  0
   51.8970   29.2010   43.2300 C   0  0  0  0  0  0  0  0  0  0  0  0
   51.5410   29.1190   42.2180 H   0  0  0  0  0  0  0  0  0  0  0  0
   54.3630   29.3320   42.1950 S   0  0  0  0  0  0  0  0  0  0  0  0
   55.9820   29.5010   42.9100 C   0  0  0  0  0  0  0  0  0  0  0  0
   56.9960   29.5340   41.9890 C   0  0  0  0  0  0  0  0  0  0  0  0
   56.8800   29.4700   40.9370 H   0  0  0  0  0  0  0  0  0  0  0  0
   58.2970   29.6660   42.4980 C   0  0  0  0  0  0  0  0  0  0  0  0
   59.1320   29.6970   41.8100 H   0  0  0  0  0  0  0  0  0  0  0  0
   58.4910   29.7530   43.8590 C   0  0  0  0  0  0  0  0  0  0  0  0
   59.4840   29.8550   44.2870 H   0  0  0  0  0  0  0  0  0  0  0  0
   57.3940   29.7110   44.7260 C   0  0  0  0  0  0  0  0  0  0  0  0
   57.6030   29.7850   45.8040 H   0  0  0  0  0  0  0  0  0  0  0  0
   56.0990   29.5830   44.2780 C   0  0  0  0  0  0  0  0  0  0  0  0
   55.0630   29.5500   45.2070 N   0  0  0  0  0  0  0  0  0  0  0  0
   55.2950   29.6210   46.2200 H   0  0  0  0  0  0  0  0  0  0  0  0
   45.1450   36.0360   43.5010 C   0  0  0  0  0  0  0  0  0  0  0  0
   45.9480   34.9170   43.2720 C   0  0  0  0  0  0  0  0  0  0  0  0
   46.0500   33.9890   44.2660 C   0  0  0  0  0  0  0  0  0  0  0  0
   45.3660   34.2030   45.4080 N   0  0  0  0  0  0  0  0  0  0  0  0
   44.5940   35.2770   45.6280 C   0  0  0  0  0  0  0  0  0  0  0  0
   44.4890   36.1850   44.6750 N   0  0  0  0  0  0  0  0  0  0  0  0
   45.0570   36.7760   42.7300 H   0  0  0  0  0  0  0  0  0  0  0  0
   44.0270   35.4980   46.5210 H   0  0  0  0  0  0  0  0  0  0  0  0
   46.5640   34.7960   42.0190 N   0  0  0  0  0  0  0  0  0  0  0  0
   47.8560   35.1900   41.7420 C   0  0  0  0  0  0  0  0  0  0  0  0
   48.3560   34.8180   40.3630 C   0  0  0  0  0  0  0  0  0  0  0  0
   47.9860   33.5560   39.9000 N   0  0  0  0  0  0  0  0  0  0  0  0
   46.6590   33.1500   40.1640 C   0  0  0  0  0  0  0  0  0  0  0  0
   45.8800   34.2380   40.8670 C   0  0  0  0  0  0  0  0  0  0  0  0
   48.6440   34.8380   42.4690 H   0  0  0  0  0  0  0  0  0  0  0  0
   47.9320   36.3070   41.8080 H   0  0  0  0  0  0  0  0  0  0  0  0
   49.4630   34.9000   40.3520 H   0  0  0  0  0  0  0  0  0  0  0  0
   48.0130   35.5860   39.6110 H   0  0  0  0  0  0  0  0  0  0  0  0
   48.2970   33.4250   38.9340 H   0  0  0  0  0  0  0  0  0  0  0  0
   46.5610   32.1520   40.6370 H   0  0  0  0  0  0  0  0  0  0  0  0
   46.1450   33.0280   39.1670 H   0  0  0  0  0  0  0  0  0  0  0  0
   45.7710   35.0570   40.1110 H   0  0  0  0  0  0  0  0  0  0  0  0
   44.8450   33.9060   41.0930 H   0  0  0  0  0  0  0  0  0  0  0  0
  1  6  1  0  0  0  0
  1 10  1  0  0  0  0
  2  1  2  0  0  0  0
  3  4  2  0  0  0  0
  3  2  1  0  0  0  0
  4  5  1  0  0  0  0
  5  7  1  0  0  0  0
  5  6  2  0  0  0  0
  6 12  1  0  0  0  0
  8 13  1  6  0  0  0
  8 14  1  0  0  0  0
  8  7  1  0  0  0  0
  9  4  1  0  0  0  0
  9  8  1  0  0  0  0
 11  3  1  0  0  0  0
 14 15  1  0  0  0  0
 15 17  2  0  0  0  0
 15 16  1  0  0  0  0
 17 18  1  0  0  0  0
 19 34  1  0  0  0  0
 19 17  1  0  0  0  0
 20 19  2  0  0  0  0
 21 20  1  0  0  0  0
 21 14  2  0  0  0  0
 22 21  1  0  0  0  0
 23 24  1  0  0  0  0
 23 20  1  0  0  0  0
 24 33  1  0  0  0  0
 25 27  1  0  0  0  0
 25 24  2  0  0  0  0
 26 25  1  0  0  0  0
 27 29  2  0  0  0  0
 28 27  1  0  0  0  0
 29 30  1  0  0  0  0
 29 31  1  0  0  0  0
 31 32  1  0  0  0  0
 33 31  2  0  0  0  0
 33 34  1  0  0  0  0
 34 35  1  0  0  0  0
 36 41  1  0  0  0  0
 37 36  2  0  0  0  0
 37 38  1  0  0  0  0
 38  2  1  0  0  0  0
 38 39  2  0  0  0  0
 39 40  1  0  0  0  0
 40 43  1  0  0  0  0
 41 40  2  0  0  0  0
 42 36  1  0  0  0  0
 44 37  1  0  0  0  0
 45 51  1  0  0  0  0
 45 44  1  0  0  0  0
 45 50  1  0  0  0  0
 46 45  1  0  0  0  0
 47 48  1  0  0  0  0
 47 46  1  0  0  0  0
 48 55  1  0  0  0  0
 48 49  1  0  0  0  0
 49 58  1  0  0  0  0
 49 44  1  0  0  0  0
 52 46  1  0  0  0  0
 53 46  1  0  0  0  0
 54 47  1  0  0  0  0
 56 48  1  0  0  0  0
 57 49  1  0  0  0  0
M  END
>  <minimizedAffinity>
-5.98933268

>  <minimizedRMSD>
0.817028999

$$$$
