
 OpenBabel03252502313D

 37 40  0  0  0  0  0  0  0  0999 V2000
   46.9180   31.6750   45.0820 C   0  0  0  0  0  0  0  0  0  0  0  0
   46.2120   31.7260   46.2650 C   0  0  0  0  0  0  0  0  0  0  0  0
   45.6980   32.6100   46.5890 H   0  0  0  0  0  0  0  0  0  0  0  0
   46.1860   30.5620   47.0430 C   0  0  0  0  0  0  0  0  0  0  0  0
   45.6190   30.6500   47.9620 H   0  0  0  0  0  0  0  0  0  0  0  0
   46.8090   29.3750   46.7240 C   0  0  0  0  0  0  0  0  0  0  0  0
   47.4910   29.4080   45.5310 C   0  0  0  0  0  0  0  0  0  0  0  0
   47.5500   30.5020   44.7390 C   0  0  0  0  0  0  0  0  0  0  0  0
   48.1070   30.4500   43.8150 H   0  0  0  0  0  0  0  0  0  0  0  0
   48.3340   27.9200   45.0230 S   0  0  0  0  0  0  0  0  0  0  0  0
   48.0400   26.7130   46.2900 C   0  0  0  0  0  0  0  0  0  0  0  0
   48.5870   25.4710   46.1330 C   0  0  0  0  0  0  0  0  0  0  0  0
   49.1870   25.2440   45.2460 H   0  0  0  0  0  0  0  0  0  0  0  0
   48.4030   24.4810   47.0750 C   0  0  0  0  0  0  0  0  0  0  0  0
   48.8640   23.5220   46.8870 H   0  0  0  0  0  0  0  0  0  0  0  0
   47.6450   24.7890   48.1830 C   0  0  0  0  0  0  0  0  0  0  0  0
   47.4860   24.0290   48.9350 H   0  0  0  0  0  0  0  0  0  0  0  0
   47.1150   26.0570   48.2920 C   0  0  0  0  0  0  0  0  0  0  0  0
   46.5320   26.2160   49.1920 H   0  0  0  0  0  0  0  0  0  0  0  0
   47.2820   27.0680   47.3670 C   0  0  0  0  0  0  0  0  0  0  0  0
   46.6820   28.3020   47.6180 N   0  0  0  0  0  0  0  0  0  0  0  0
   46.1280   28.4270   48.4900 H   0  0  0  0  0  0  0  0  0  0  0  0
   47.9100   34.4100   42.6710 C   0  0  0  0  0  0  0  0  0  0  0  0
   48.0020   33.2050   43.4040 C   0  0  0  0  0  0  0  0  0  0  0  0
   46.9470   32.8820   44.2730 C   0  0  0  0  0  0  0  0  0  0  0  0
   45.9070   33.7450   44.3550 N   0  0  0  0  0  0  0  0  0  0  0  0
   45.8490   34.8880   43.6420 C   0  0  0  0  0  0  0  0  0  0  0  0
   46.8400   35.2100   42.8130 N   0  0  0  0  0  0  0  0  0  0  0  0
   48.8270   32.5460   43.3220 H   0  0  0  0  0  0  0  0  0  0  0  0
   49.0380   34.7230   41.7630 C   0  0  0  0  0  0  0  0  0  0  0  0
   49.3780   33.6600   40.9660 F   0  0  0  0  0  0  0  0  0  0  0  0
   48.6710   35.8220   40.9750 F   0  0  0  0  0  0  0  0  0  0  0  0
   50.1320   35.1620   42.5140 F   0  0  0  0  0  0  0  0  0  0  0  0
   44.6730   35.7920   43.7810 C   0  0  0  0  0  0  0  0  0  0  0  0
   43.6940   35.4860   42.8720 F   0  0  0  0  0  0  0  0  0  0  0  0
   45.0810   37.1290   43.6160 F   0  0  0  0  0  0  0  0  0  0  0  0
   44.1210   35.7380   45.0420 F   0  0  0  0  0  0  0  0  0  0  0  0
  1  2  1  0  0  0  0
  2  3  1  0  0  0  0
  2  4  2  0  0  0  0
  4  5  1  0  0  0  0
  6  4  1  0  0  0  0
  6 21  1  0  0  0  0
  7  6  2  0  0  0  0
  8  1  2  0  0  0  0
  8  7  1  0  0  0  0
  9  8  1  0  0  0  0
 10  7  1  0  0  0  0
 10 11  1  0  0  0  0
 11 20  1  0  0  0  0
 12 11  2  0  0  0  0
 12 14  1  0  0  0  0
 13 12  1  0  0  0  0
 14 16  2  0  0  0  0
 15 14  1  0  0  0  0
 16 18  1  0  0  0  0
 16 17  1  0  0  0  0
 18 19  1  0  0  0  0
 20 21  1  0  0  0  0
 20 18  2  0  0  0  0
 21 22  1  0  0  0  0
 23 28  2  0  0  0  0
 23 24  1  0  0  0  0
 24 25  2  0  0  0  0
 25 26  1  0  0  0  0
 25  1  1  0  0  0  0
 27 34  1  0  0  0  0
 27 26  2  0  0  0  0
 28 27  1  0  0  0  0
 29 24  1  0  0  0  0
 30 33  1  0  0  0  0
 30 23  1  0  0  0  0
 31 30  1  0  0  0  0
 32 30  1  0  0  0  0
 34 37  1  0  0  0  0
 35 34  1  0  0  0  0
 36 34  1  0  0  0  0
M  END
>  <minimizedAffinity>
-6.33295202

>  <minimizedRMSD>
1.49052715

$$$$
