
 OpenBabel03252504103D

 38 41  0  0  0  0  0  0  0  0999 V2000
   47.5150   31.0440   45.5250 C   0  0  0  0  0  0  0  0  0  0  0  0
   47.7100   29.7310   45.1560 C   0  0  0  0  0  0  0  0  0  0  0  0
   47.3850   29.3990   44.1960 H   0  0  0  0  0  0  0  0  0  0  0  0
   48.3240   28.8830   46.0550 C   0  0  0  0  0  0  0  0  0  0  0  0
   48.4460   27.8500   45.6900 H   0  0  0  0  0  0  0  0  0  0  0  0
   48.7690   29.2360   47.3100 C   0  0  0  0  0  0  0  0  0  0  0  0
   48.5490   30.5540   47.6220 C   0  0  0  0  0  0  0  0  0  0  0  0
   47.9450   31.4340   46.7670 C   0  0  0  0  0  0  0  0  0  0  0  0
   47.7950   32.4730   47.0700 H   0  0  0  0  0  0  0  0  0  0  0  0
   49.0800   31.1340   49.2200 S   0  0  0  0  0  0  0  0  0  0  0  0
   49.8140   29.7450   50.0550 C   0  0  0  0  0  0  0  0  0  0  0  0
   50.3210   29.8780   51.3170 C   0  0  0  0  0  0  0  0  0  0  0  0
   50.2650   30.8640   51.8040 H   0  0  0  0  0  0  0  0  0  0  0  0
   50.9030   28.8470   52.0250 C   0  0  0  0  0  0  0  0  0  0  0  0
   51.2710   29.0420   53.0020 H   0  0  0  0  0  0  0  0  0  0  0  0
   50.9510   27.6320   51.3750 C   0  0  0  0  0  0  0  0  0  0  0  0
   51.3930   26.7990   51.8830 H   0  0  0  0  0  0  0  0  0  0  0  0
   50.4330   27.5170   50.1000 C   0  0  0  0  0  0  0  0  0  0  0  0
   50.5190   26.5090   49.6690 H   0  0  0  0  0  0  0  0  0  0  0  0
   49.8510   28.5470   49.3940 C   0  0  0  0  0  0  0  0  0  0  0  0
   49.3790   28.2340   48.1000 N   0  0  0  0  0  0  0  0  0  0  0  0
   49.4710   27.2870   47.7210 H   0  0  0  0  0  0  0  0  0  0  0  0
   46.9620   33.9150   43.3160 C   0  0  0  0  0  0  0  0  0  0  0  0
   45.6280   33.7600   42.9570 C   0  0  0  0  0  0  0  0  0  0  0  0
   44.9270   32.6640   43.4800 C   0  0  0  0  0  0  0  0  0  0  0  0
   45.5810   31.8130   44.3070 N   0  0  0  0  0  0  0  0  0  0  0  0
   46.8730   32.0000   44.6300 C   0  0  0  0  0  0  0  0  0  0  0  0
   47.5700   33.0410   44.1430 N   0  0  0  0  0  0  0  0  0  0  0  0
   43.8840   32.5310   43.2070 H   0  0  0  0  0  0  0  0  0  0  0  0
   44.9990   34.7460   42.0440 C   0  0  0  0  0  0  0  0  0  0  0  0
   45.1870   36.0320   42.5350 F   0  0  0  0  0  0  0  0  0  0  0  0
   45.6630   34.7010   40.8310 F   0  0  0  0  0  0  0  0  0  0  0  0
   43.6700   34.5830   41.8510 F   0  0  0  0  0  0  0  0  0  0  0  0
   47.6270   34.9710   42.8090 O   0  0  0  0  0  0  0  0  0  0  0  0
   48.8030   34.9620   42.0310 C   0  0  0  0  0  0  0  0  0  0  0  0
   49.8740   35.0950   42.9150 F   0  0  0  0  0  0  0  0  0  0  0  0
   48.8690   33.8050   41.3050 F   0  0  0  0  0  0  0  0  0  0  0  0
   48.8560   36.0820   41.2360 F   0  0  0  0  0  0  0  0  0  0  0  0
  1  8  1  0  0  0  0
  2  1  2  0  0  0  0
  2  4  1  0  0  0  0
  3  2  1  0  0  0  0
  4  6  2  0  0  0  0
  5  4  1  0  0  0  0
  6  7  1  0  0  0  0
  6 21  1  0  0  0  0
  7 10  1  0  0  0  0
  8  9  1  0  0  0  0
  8  7  2  0  0  0  0
 10 11  1  0  0  0  0
 11 12  1  0  0  0  0
 12 13  1  0  0  0  0
 12 14  2  0  0  0  0
 14 15  1  0  0  0  0
 16 17  1  0  0  0  0
 16 14  1  0  0  0  0
 18 16  2  0  0  0  0
 19 18  1  0  0  0  0
 20 11  2  0  0  0  0
 20 18  1  0  0  0  0
 21 20  1  0  0  0  0
 22 21  1  0  0  0  0
 23 28  1  0  0  0  0
 24 23  2  0  0  0  0
 24 25  1  0  0  0  0
 25 26  2  0  0  0  0
 26 27  1  0  0  0  0
 27  1  1  0  0  0  0
 28 27  2  0  0  0  0
 29 25  1  0  0  0  0
 30 31  1  0  0  0  0
 30 24  1  0  0  0  0
 32 30  1  0  0  0  0
 33 30  1  0  0  0  0
 34 23  1  0  0  0  0
 35 34  1  0  0  0  0
 35 36  1  0  0  0  0
 37 35  1  0  0  0  0
 38 35  1  0  0  0  0
M  END
>  <minimizedAffinity>
-6.00562382

>  <minimizedRMSD>
1.46937227

$$$$
