
 OpenBabel03242518503D

 36 39  0  0  0  0  0  0  0  0999 V2000
   46.1180   31.4960   47.0070 C   0  0  0  0  0  0  0  0  0  0  0  0
   47.4150   31.2370   47.3930 C   0  0  0  0  0  0  0  0  0  0  0  0
   48.1670   32.0000   47.5090 H   0  0  0  0  0  0  0  0  0  0  0  0
   47.8730   29.9620   47.6820 C   0  0  0  0  0  0  0  0  0  0  0  0
   48.9230   29.8140   47.9840 H   0  0  0  0  0  0  0  0  0  0  0  0
   47.0420   28.8490   47.5990 C   0  0  0  0  0  0  0  0  0  0  0  0
   45.7540   29.1370   47.2110 C   0  0  0  0  0  0  0  0  0  0  0  0
   45.3150   30.3790   46.9310 C   0  0  0  0  0  0  0  0  0  0  0  0
   44.2750   30.5600   46.6180 H   0  0  0  0  0  0  0  0  0  0  0  0
   44.5890   27.7970   47.0680 S   0  0  0  0  0  0  0  0  0  0  0  0
   45.4860   26.3310   47.5320 C   0  0  0  0  0  0  0  0  0  0  0  0
   44.7850   25.1690   47.5190 C   0  0  0  0  0  0  0  0  0  0  0  0
   43.7370   25.1260   47.2430 H   0  0  0  0  0  0  0  0  0  0  0  0
   45.4730   24.0140   47.8770 C   0  0  0  0  0  0  0  0  0  0  0  0
   44.9470   23.0740   47.8750 H   0  0  0  0  0  0  0  0  0  0  0  0
   46.8110   24.0040   48.2360 C   0  0  0  0  0  0  0  0  0  0  0  0
   47.3400   23.1130   48.5070 H   0  0  0  0  0  0  0  0  0  0  0  0
   47.4480   25.2410   48.2200 C   0  0  0  0  0  0  0  0  0  0  0  0
   48.5100   25.2120   48.5090 H   0  0  0  0  0  0  0  0  0  0  0  0
   46.8080   26.4120   47.8730 C   0  0  0  0  0  0  0  0  0  0  0  0
   47.5640   27.5840   47.9140 N   0  0  0  0  0  0  0  0  0  0  0  0
   48.5690   27.5330   48.1910 H   0  0  0  0  0  0  0  0  0  0  0  0
   45.6520   32.8420   46.7130 C   0  0  0  0  0  0  0  0  0  0  0  0
   44.9910   33.3900   47.6430 O   0  0  0  0  0  0  0  0  0  0  0  0
   45.2390   35.1710   43.9340 C   0  0  0  0  0  0  0  0  0  0  0  0
   46.3500   34.9390   43.0950 C   0  0  0  0  0  0  0  0  0  0  0  0
   47.2300   33.9570   43.5240 C   0  0  0  0  0  0  0  0  0  0  0  0
   46.9450   33.3330   44.6720 N   0  0  0  0  0  0  0  0  0  0  0  0
   45.8980   33.5460   45.4700 C   0  0  0  0  0  0  0  0  0  0  0  0
   45.0240   34.4980   45.0750 N   0  0  0  0  0  0  0  0  0  0  0  0
   44.5370   35.9370   43.6220 H   0  0  0  0  0  0  0  0  0  0  0  0
   46.5310   35.4730   42.1850 H   0  0  0  0  0  0  0  0  0  0  0  0
   48.3980   33.6970   42.6740 C   0  0  0  0  0  0  0  0  0  0  0  0
   48.9470   32.4660   42.9900 F   0  0  0  0  0  0  0  0  0  0  0  0
   49.3660   34.6470   43.0460 F   0  0  0  0  0  0  0  0  0  0  0  0
   48.1230   33.7430   41.3480 F   0  0  0  0  0  0  0  0  0  0  0  0
  1  2  1  0  0  0  0
  2  3  1  0  0  0  0
  2  4  2  0  0  0  0
  4  5  1  0  0  0  0
  6  4  1  0  0  0  0
  6 21  1  0  0  0  0
  7  6  2  0  0  0  0
  8  1  2  0  0  0  0
  8  7  1  0  0  0  0
  9  8  1  0  0  0  0
 10  7  1  0  0  0  0
 10 11  1  0  0  0  0
 11 20  1  0  0  0  0
 12 11  2  0  0  0  0
 12 14  1  0  0  0  0
 13 12  1  0  0  0  0
 14 16  2  0  0  0  0
 15 14  1  0  0  0  0
 16 17  1  0  0  0  0
 18 16  1  0  0  0  0
 18 19  1  0  0  0  0
 20 21  1  0  0  0  0
 20 18  2  0  0  0  0
 21 22  1  0  0  0  0
 23  1  1  0  0  0  0
 23 24  2  0  0  0  0
 25 30  1  0  0  0  0
 26 27  1  0  0  0  0
 26 25  2  0  0  0  0
 27 28  2  0  0  0  0
 28 29  1  0  0  0  0
 29 23  1  0  0  0  0
 30 29  2  0  0  0  0
 31 25  1  0  0  0  0
 32 26  1  0  0  0  0
 33 34  1  0  0  0  0
 33 35  1  0  0  0  0
 33 27  1  0  0  0  0
 36 33  1  0  0  0  0
M  END
>  <minimizedAffinity>
-5.86965036

>  <minimizedRMSD>
2.46383381

$$$$
