
 OpenBabel03252503093D

 40 44  0  0  1  0  0  0  0  0999 V2000
   45.0280   33.6910   40.8400 C   0  0  0  0  0  0  0  0  0  0  0  0
   45.6280   33.2410   39.6830 C   0  0  0  0  0  0  0  0  0  0  0  0
   46.6850   33.4580   39.4800 H   0  0  0  0  0  0  0  0  0  0  0  0
   44.9700   32.5200   38.7230 C   0  0  0  0  0  0  0  0  0  0  0  0
   45.4830   32.1960   37.8400 H   0  0  0  0  0  0  0  0  0  0  0  0
   43.6150   32.2270   38.9400 C   0  0  0  0  0  0  0  0  0  0  0  0
   43.0140   32.6720   40.0930 C   0  0  0  0  0  0  0  0  0  0  0  0
   43.7230   33.3850   41.0080 C   0  0  0  0  0  0  0  0  0  0  0  0
   43.3210   33.7670   41.9390 H   0  0  0  0  0  0  0  0  0  0  0  0
   41.2980   32.3140   40.4060 S   0  0  0  0  0  0  0  0  0  0  0  0
   40.6950   31.4780   38.9510 C   0  0  0  0  0  0  0  0  0  0  0  0
   39.3900   31.1430   38.8550 C   0  0  0  0  0  0  0  0  0  0  0  0
   38.7340   31.4020   39.7000 H   0  0  0  0  0  0  0  0  0  0  0  0
   38.8420   30.4970   37.7740 C   0  0  0  0  0  0  0  0  0  0  0  0
   37.7930   30.2600   37.7690 H   0  0  0  0  0  0  0  0  0  0  0  0
   39.7400   30.1930   36.7380 C   0  0  0  0  0  0  0  0  0  0  0  0
   39.3440   29.6860   35.8760 H   0  0  0  0  0  0  0  0  0  0  0  0
   41.0780   30.5420   36.8500 C   0  0  0  0  0  0  0  0  0  0  0  0
   41.6650   30.2600   35.9990 H   0  0  0  0  0  0  0  0  0  0  0  0
   41.5980   31.2100   37.9900 C   0  0  0  0  0  0  0  0  0  0  0  0
   42.9530   31.5230   37.9210 N   0  0  0  0  0  0  0  0  0  0  0  0
   43.5160   31.2210   37.0710 H   0  0  0  0  0  0  0  0  0  0  0  0
   45.9220   34.4860   41.7530 C   0  0  1  0  0  3  0  0  0  0  0  0
   47.0520   35.0060   41.3960 O   0  0  0  0  0  1  0  0  0  0  0  0
   44.8990   35.9380   43.4090 C   0  0  0  0  0  0  0  0  0  0  0  0
   45.5460   34.7200   43.1030 C   0  0  0  0  0  0  0  0  0  0  0  0
   45.7230   33.8540   44.1610 C   0  0  0  0  0  0  0  0  0  0  0  0
   45.3030   34.1540   45.4040 N   0  0  0  0  0  0  0  0  0  0  0  0
   44.6850   35.3360   45.6620 C   0  0  0  0  0  0  0  0  0  0  0  0
   44.4890   36.2190   44.6520 N   0  0  0  0  0  0  0  0  0  0  0  0
   44.7330   36.6580   42.6200 H   0  0  0  0  0  0  0  0  0  0  0  0
   44.3840   35.4800   46.7020 H   0  0  0  0  0  0  0  0  0  0  0  0
   46.3690   32.6440   43.9300 C   0  0  0  0  0  0  0  0  0  0  0  0
   47.6880   32.2590   43.8320 C   0  0  0  0  0  0  0  0  0  0  0  0
   48.0380   31.0050   43.5990 C   0  0  0  0  0  0  0  0  0  0  0  0
   47.0310   30.0730   43.4560 C   0  0  0  0  0  0  0  0  0  0  0  0
   45.4980   31.1060   43.6780 S   0  0  0  0  0  0  0  0  0  0  0  0
   48.5820   32.8200   43.9590 H   0  0  0  0  0  0  0  0  0  0  0  0
   48.9230   30.4170   43.4740 H   0  0  0  0  0  0  0  0  0  0  0  0
   46.8170   29.0250   43.2750 H   0  0  0  0  0  0  0  0  0  0  0  0
  1  8  1  0  0  0  0
  1 23  1  0  0  0  0
  2  1  2  0  0  0  0
  3  2  1  0  0  0  0
  4  6  2  0  0  0  0
  4  2  1  0  0  0  0
  5  4  1  0  0  0  0
  6  7  1  0  0  0  0
  7 10  1  0  0  0  0
  7  8  2  0  0  0  0
  8  9  1  0  0  0  0
 11 10  1  0  0  0  0
 12 11  1  0  0  0  0
 12 13  1  0  0  0  0
 14 12  2  0  0  0  0
 15 14  1  0  0  0  0
 16 18  2  0  0  0  0
 16 14  1  0  0  0  0
 17 16  1  0  0  0  0
 18 20  1  0  0  0  0
 19 18  1  0  0  0  0
 20 11  2  0  0  0  0
 21 20  1  0  0  0  0
 21  6  1  0  0  0  0
 22 21  1  0  0  0  0
 23 24  1  6  0  0  0
 23 26  1  0  0  0  0
 25 30  1  0  0  0  0
 26 25  2  0  0  0  0
 26 27  1  0  0  0  0
 27 28  2  0  0  0  0
 28 29  1  0  0  0  0
 29 32  1  0  0  0  0
 30 29  2  0  0  0  0
 31 25  1  0  0  0  0
 33 27  1  0  0  0  0
 34 33  2  0  0  0  0
 34 38  1  0  0  0  0
 35 34  1  0  0  0  0
 36 35  2  0  0  0  0
 36 37  1  0  0  0  0
 37 33  1  0  0  0  0
 39 35  1  0  0  0  0
 40 36  1  0  0  0  0
M  END
>  <minimizedAffinity>
-5.26562643

>  <minimizedRMSD>
2.66991687

$$$$
