
 OpenBabel03242523193D

 50 55  0  0  0  0  0  0  0  0999 V2000
   44.5180   31.6930   43.0690 Cl  0  0  0  0  0  0  0  0  0  0  0  0
   44.5540   33.4330   42.7680 C   0  0  0  0  0  0  0  0  0  0  0  0
   45.4890   34.1570   43.5360 C   0  0  0  0  0  0  0  0  0  0  0  0
   45.4360   35.5050   43.2210 C   0  0  0  0  0  0  0  0  0  0  0  0
   44.6650   36.1550   42.3370 C   0  0  0  0  0  0  0  0  0  0  0  0
   43.7870   35.3770   41.6350 C   0  0  0  0  0  0  0  0  0  0  0  0
   43.7160   34.0410   41.8300 C   0  0  0  0  0  0  0  0  0  0  0  0
   46.0860   36.2270   43.7600 H   0  0  0  0  0  0  0  0  0  0  0  0
   44.6540   37.1930   42.1210 H   0  0  0  0  0  0  0  0  0  0  0  0
   43.0930   35.7400   40.8840 H   0  0  0  0  0  0  0  0  0  0  0  0
   42.7930   33.1600   41.1110 C   0  0  0  0  0  0  0  0  0  0  0  0
   43.2200   32.8160   39.8270 C   0  0  0  0  0  0  0  0  0  0  0  0
   44.1540   33.1750   39.4140 H   0  0  0  0  0  0  0  0  0  0  0  0
   42.4150   31.9820   39.0490 C   0  0  0  0  0  0  0  0  0  0  0  0
   42.8030   31.7470   38.0470 H   0  0  0  0  0  0  0  0  0  0  0  0
   41.2080   31.4670   39.4700 C   0  0  0  0  0  0  0  0  0  0  0  0
   40.8400   31.8370   40.7370 C   0  0  0  0  0  0  0  0  0  0  0  0
   41.5870   32.6500   41.5400 C   0  0  0  0  0  0  0  0  0  0  0  0
   41.3030   32.9410   42.5220 H   0  0  0  0  0  0  0  0  0  0  0  0
   39.2950   31.2250   41.3740 S   0  0  0  0  0  0  0  0  0  0  0  0
   38.5780   30.2110   40.0990 C   0  0  0  0  0  0  0  0  0  0  0  0
   37.3730   29.5990   40.3090 C   0  0  0  0  0  0  0  0  0  0  0  0
   36.8770   29.7550   41.2740 H   0  0  0  0  0  0  0  0  0  0  0  0
   36.7690   28.8050   39.3620 C   0  0  0  0  0  0  0  0  0  0  0  0
   35.8170   28.3680   39.6260 H   0  0  0  0  0  0  0  0  0  0  0  0
   37.4290   28.6370   38.1620 C   0  0  0  0  0  0  0  0  0  0  0  0
   36.9820   28.0290   37.4170 H   0  0  0  0  0  0  0  0  0  0  0  0
   38.6410   29.2720   37.9930 C   0  0  0  0  0  0  0  0  0  0  0  0
   39.0980   29.0840   37.0070 H   0  0  0  0  0  0  0  0  0  0  0  0
   39.2700   30.0720   38.9220 C   0  0  0  0  0  0  0  0  0  0  0  0
   40.5060   30.6360   38.5680 N   0  0  0  0  0  0  0  0  0  0  0  0
   40.9090   30.4380   37.6290 H   0  0  0  0  0  0  0  0  0  0  0  0
   46.4360   33.6030   44.5460 C   0  0  0  0  0  0  0  0  0  0  0  0
   45.8750   33.9950   45.5370 O   0  0  0  0  0  0  0  0  0  0  0  0
   47.5140   32.8980   43.8390 C   0  0  0  0  0  0  0  0  0  0  0  0
   48.3750   33.4340   42.9620 C   0  0  0  0  0  0  0  0  0  0  0  0
   49.2280   32.5270   42.3670 C   0  0  0  0  0  0  0  0  0  0  0  0
   49.1240   31.1690   42.7240 N   0  0  0  0  0  0  0  0  0  0  0  0
   48.2560   30.7200   43.5960 C   0  0  0  0  0  0  0  0  0  0  0  0
   47.3850   31.5940   44.2100 N   0  0  0  0  0  0  0  0  0  0  0  0
   49.9880   32.7730   41.6330 H   0  0  0  0  0  0  0  0  0  0  0  0
   48.2950   29.6500   43.7700 H   0  0  0  0  0  0  0  0  0  0  0  0
   48.5540   34.8170   42.6930 C   0  0  0  0  0  0  0  0  0  0  0  0
   49.6180   35.4400   42.1200 C   0  0  0  0  0  0  0  0  0  0  0  0
   48.4630   35.2640   41.1720 C   0  0  0  0  0  0  0  0  0  0  0  0
   48.0190   35.4800   43.3980 H   0  0  0  0  0  0  0  0  0  0  0  0
   49.9410   36.5060   42.1930 H   0  0  0  0  0  0  0  0  0  0  0  0
   50.5210   34.8320   41.8160 H   0  0  0  0  0  0  0  0  0  0  0  0
   48.4670   34.4140   40.4770 H   0  0  0  0  0  0  0  0  0  0  0  0
   47.7860   36.1140   41.0010 H   0  0  0  0  0  0  0  0  0  0  0  0
  2  1  1  0  0  0  0
  2  3  1  0  0  0  0
  3 33  1  0  0  0  0
  4  3  2  0  0  0  0
  4  8  1  0  0  0  0
  5  4  1  0  0  0  0
  6  7  1  0  0  0  0
  6  5  2  0  0  0  0
  7  2  2  0  0  0  0
  9  5  1  0  0  0  0
 10  6  1  0  0  0  0
 11 18  1  0  0  0  0
 11  7  1  0  0  0  0
 12 11  2  0  0  0  0
 13 12  1  0  0  0  0
 14 16  2  0  0  0  0
 14 12  1  0  0  0  0
 15 14  1  0  0  0  0
 16 17  1  0  0  0  0
 17 20  1  0  0  0  0
 17 18  2  0  0  0  0
 18 19  1  0  0  0  0
 21 22  1  0  0  0  0
 21 20  1  0  0  0  0
 22 23  1  0  0  0  0
 24 25  1  0  0  0  0
 24 22  2  0  0  0  0
 26 24  1  0  0  0  0
 27 26  1  0  0  0  0
 28 26  2  0  0  0  0
 28 30  1  0  0  0  0
 29 28  1  0  0  0  0
 30 21  2  0  0  0  0
 31 30  1  0  0  0  0
 31 16  1  0  0  0  0
 32 31  1  0  0  0  0
 33 34  2  0  0  0  0
 35 40  1  0  0  0  0
 35 33  1  0  0  0  0
 36 35  2  0  0  0  0
 37 38  2  0  0  0  0
 37 36  1  0  0  0  0
 38 39  1  0  0  0  0
 39 42  1  0  0  0  0
 39 40  2  0  0  0  0
 41 37  1  0  0  0  0
 43 36  1  0  0  0  0
 43 46  1  0  0  0  0
 44 47  1  0  0  0  0
 44 43  1  0  0  0  0
 45 44  1  0  0  0  0
 45 43  1  0  0  0  0
 48 44  1  0  0  0  0
 49 45  1  0  0  0  0
 50 45  1  0  0  0  0
M  END
>  <minimizedAffinity>
-6.76527357

>  <minimizedRMSD>
0.95974201

$$$$
