
 OpenBabel03252502433D

 44 48  0  0  1  0  0  0  0  0999 V2000
   49.0590   34.7270   41.5270 C   0  0  1  0  0  0  0  0  0  0  0  0
   50.2850   34.3800   42.2130 C   0  0  0  0  0  0  0  0  0  0  0  0
   49.2500   33.3700   41.7290 C   0  0  1  0  0  0  0  0  0  0  0  0
   49.2500   35.2460   40.5420 H   0  0  0  0  0  0  0  0  0  0  0  0
   50.4760   34.4790   43.2790 H   0  0  0  0  0  0  0  0  0  0  0  0
   51.2580   34.2860   41.6450 H   0  0  0  0  0  0  0  0  0  0  0  0
   49.3850   32.9030   40.6920 H   0  0  0  0  0  0  0  0  0  0  0  0
   49.3010   32.1750   42.4850 C   0  0  0  0  0  0  0  0  0  0  0  0
   48.2230   31.6620   43.2290 C   0  0  0  0  0  0  0  0  0  0  0  0
   47.3010   32.2300   43.2410 H   0  0  0  0  0  0  0  0  0  0  0  0
   48.3790   30.4770   43.9040 C   0  0  0  0  0  0  0  0  0  0  0  0
   47.4780   30.1680   44.4510 H   0  0  0  0  0  0  0  0  0  0  0  0
   49.5750   29.7930   43.8570 C   0  0  0  0  0  0  0  0  0  0  0  0
   50.6500   30.2260   43.1640 C   0  0  0  0  0  0  0  0  0  0  0  0
   50.4710   31.3950   42.5090 C   0  0  0  0  0  0  0  0  0  0  0  0
   51.3170   31.7850   41.9330 H   0  0  0  0  0  0  0  0  0  0  0  0
   52.1460   29.2930   43.1530 S   0  0  0  0  0  0  0  0  0  0  0  0
   51.8280   27.8550   44.1670 C   0  0  0  0  0  0  0  0  0  0  0  0
   52.8920   27.0080   44.2720 C   0  0  0  0  0  0  0  0  0  0  0  0
   53.8470   27.1470   43.8090 H   0  0  0  0  0  0  0  0  0  0  0  0
   52.7430   25.8580   45.0430 C   0  0  0  0  0  0  0  0  0  0  0  0
   53.5220   25.1280   45.1870 H   0  0  0  0  0  0  0  0  0  0  0  0
   51.5350   25.6250   45.6640 C   0  0  0  0  0  0  0  0  0  0  0  0
   51.4020   24.7360   46.2660 H   0  0  0  0  0  0  0  0  0  0  0  0
   50.5370   26.5340   45.4950 C   0  0  0  0  0  0  0  0  0  0  0  0
   49.5940   26.2960   46.0150 H   0  0  0  0  0  0  0  0  0  0  0  0
   50.5930   27.6990   44.7520 C   0  0  0  0  0  0  0  0  0  0  0  0
   49.5280   28.6030   44.6130 N   0  0  0  0  0  0  0  0  0  0  0  0
   48.6750   28.2680   45.1570 H   0  0  0  0  0  0  0  0  0  0  0  0
   47.9910   35.5110   42.2400 C   0  0  0  0  0  0  0  0  0  0  0  0
   48.3730   35.6070   43.2990 H   0  0  0  0  0  0  0  0  0  0  0  0
   47.8360   36.5090   41.8300 H   0  0  0  0  0  0  0  0  0  0  0  0
   46.7960   34.6150   42.1720 C   0  0  0  0  0  0  0  0  0  0  0  0
   47.1180   33.5840   42.4040 H   0  0  0  0  0  0  0  0  0  0  0  0
   46.1910   34.7290   41.2700 H   0  0  0  0  0  0  0  0  0  0  0  0
   44.4400   35.9920   44.7490 C   0  0  0  0  0  0  0  0  0  0  0  0
   45.1540   35.8390   43.5360 C   0  0  0  0  0  0  0  0  0  0  0  0
   46.0010   34.7740   43.4230 C   0  0  0  0  0  0  0  0  0  0  0  0
   46.1270   33.9040   44.4680 N   0  0  0  0  0  0  0  0  0  0  0  0
   45.4530   34.0610   45.5930 C   0  0  0  0  0  0  0  0  0  0  0  0
   44.6150   35.0910   45.7450 N   0  0  0  0  0  0  0  0  0  0  0  0
   43.7480   36.7980   44.9400 H   0  0  0  0  0  0  0  0  0  0  0  0
   44.9000   36.6210   42.8420 H   0  0  0  0  0  0  0  0  0  0  0  0
   45.5260   33.3920   46.4440 H   0  0  0  0  0  0  0  0  0  0  0  0
  1  4  1  6  0  0  0
  1  3  1  0  0  0  0
  1  2  1  0  0  0  0
  1 30  1  0  0  0  0
  2  5  1  0  0  0  0
  3  7  1  6  0  0  0
  3  2  1  0  0  0  0
  3  8  1  0  0  0  0
  6  2  1  0  0  0  0
  8 15  2  0  0  0  0
  8  9  1  0  0  0  0
  9 10  1  0  0  0  0
  9 11  2  0  0  0  0
 11 12  1  0  0  0  0
 13 11  1  0  0  0  0
 13 28  1  0  0  0  0
 14 13  2  0  0  0  0
 15 14  1  0  0  0  0
 16 15  1  0  0  0  0
 17 14  1  0  0  0  0
 17 18  1  0  0  0  0
 18 19  2  0  0  0  0
 18 27  1  0  0  0  0
 19 21  1  0  0  0  0
 20 19  1  0  0  0  0
 21 22  1  0  0  0  0
 21 23  2  0  0  0  0
 23 24  1  0  0  0  0
 25 23  1  0  0  0  0
 25 26  1  0  0  0  0
 27 25  2  0  0  0  0
 28 27  1  0  0  0  0
 28 29  1  0  0  0  0
 30 31  1  0  0  0  0
 32 30  1  0  0  0  0
 33 30  1  0  0  0  0
 33 34  1  0  0  0  0
 33 38  1  0  0  0  0
 35 33  1  0  0  0  0
 36 42  1  0  0  0  0
 36 41  1  0  0  0  0
 37 36  2  0  0  0  0
 38 37  1  0  0  0  0
 38 39  2  0  0  0  0
 39 40  1  0  0  0  0
 40 41  2  0  0  0  0
 40 44  1  0  0  0  0
 43 37  1  0  0  0  0
M  END
>  <minimizedAffinity>
-4.64297247

>  <minimizedRMSD>
1.43537855

$$$$
