
 OpenBabel03252502433D

 44 48  0  0  1  0  0  0  0  0999 V2000
   48.7310   35.1470   41.3750 C   0  0  1  0  0  0  0  0  0  0  0  0
   49.6590   35.0890   42.4850 C   0  0  0  0  0  0  0  0  0  0  0  0
   49.4130   33.9480   41.5030 C   0  0  1  0  0  0  0  0  0  0  0  0
   49.0060   35.9470   40.6270 H   0  0  0  0  0  0  0  0  0  0  0  0
   49.4010   34.9560   43.5320 H   0  0  0  0  0  0  0  0  0  0  0  0
   50.7050   35.5070   42.3850 H   0  0  0  0  0  0  0  0  0  0  0  0
   50.0920   33.8610   40.5840 H   0  0  0  0  0  0  0  0  0  0  0  0
   49.7150   32.6920   42.0830 C   0  0  0  0  0  0  0  0  0  0  0  0
   50.9840   32.0900   42.0470 C   0  0  0  0  0  0  0  0  0  0  0  0
   51.7780   32.6080   41.5240 H   0  0  0  0  0  0  0  0  0  0  0  0
   51.1680   30.8780   42.6690 C   0  0  0  0  0  0  0  0  0  0  0  0
   52.1940   30.4970   42.5820 H   0  0  0  0  0  0  0  0  0  0  0  0
   50.1240   30.2580   43.3210 C   0  0  0  0  0  0  0  0  0  0  0  0
   48.8790   30.7790   43.3940 C   0  0  0  0  0  0  0  0  0  0  0  0
   48.7260   31.9710   42.7750 C   0  0  0  0  0  0  0  0  0  0  0  0
   47.7330   32.4310   42.8070 H   0  0  0  0  0  0  0  0  0  0  0  0
   47.5970   29.9230   44.2480 S   0  0  0  0  0  0  0  0  0  0  0  0
   48.3450   28.4220   44.8690 C   0  0  0  0  0  0  0  0  0  0  0  0
   47.4860   27.6260   45.5670 C   0  0  0  0  0  0  0  0  0  0  0  0
   46.4520   27.8360   45.7530 H   0  0  0  0  0  0  0  0  0  0  0  0
   47.9750   26.4330   46.0920 C   0  0  0  0  0  0  0  0  0  0  0  0
   47.3770   25.7370   46.6570 H   0  0  0  0  0  0  0  0  0  0  0  0
   49.2980   26.1080   45.8860 C   0  0  0  0  0  0  0  0  0  0  0  0
   49.6960   25.1850   46.2870 H   0  0  0  0  0  0  0  0  0  0  0  0
   50.0720   26.9740   45.1750 C   0  0  0  0  0  0  0  0  0  0  0  0
   51.1210   26.6620   45.0420 H   0  0  0  0  0  0  0  0  0  0  0  0
   49.6740   28.1740   44.6180 C   0  0  0  0  0  0  0  0  0  0  0  0
   50.5190   29.0300   43.8930 N   0  0  0  0  0  0  0  0  0  0  0  0
   51.5030   28.6260   43.8310 H   0  0  0  0  0  0  0  0  0  0  0  0
   47.2540   35.2710   41.6330 C   0  0  0  0  0  0  0  0  0  0  0  0
   47.1540   36.2160   42.2440 H   0  0  0  0  0  0  0  0  0  0  0  0
   46.6600   35.3750   40.7250 H   0  0  0  0  0  0  0  0  0  0  0  0
   46.9390   34.0590   42.4490 C   0  0  0  0  0  0  0  0  0  0  0  0
   47.8180   33.8210   43.0750 H   0  0  0  0  0  0  0  0  0  0  0  0
   46.5220   33.2230   41.8830 H   0  0  0  0  0  0  0  0  0  0  0  0
   44.5430   35.9740   44.6130 C   0  0  0  0  0  0  0  0  0  0  0  0
   45.3190   35.5890   43.4920 C   0  0  0  0  0  0  0  0  0  0  0  0
   46.0810   34.4610   43.6010 C   0  0  0  0  0  0  0  0  0  0  0  0
   46.0680   33.7520   44.7670 N   0  0  0  0  0  0  0  0  0  0  0  0
   45.3380   34.1250   45.8030 C   0  0  0  0  0  0  0  0  0  0  0  0
   44.5800   35.2230   45.7400 N   0  0  0  0  0  0  0  0  0  0  0  0
   43.9090   36.8470   44.6320 H   0  0  0  0  0  0  0  0  0  0  0  0
   45.1750   36.2740   42.6750 H   0  0  0  0  0  0  0  0  0  0  0  0
   45.3020   33.5890   46.7450 H   0  0  0  0  0  0  0  0  0  0  0  0
  1  4  1  6  0  0  0
  1  3  1  0  0  0  0
  1 30  1  0  0  0  0
  1  2  1  0  0  0  0
  2  5  1  0  0  0  0
  3  7  1  6  0  0  0
  3  8  1  0  0  0  0
  3  2  1  0  0  0  0
  6  2  1  0  0  0  0
  8 15  1  0  0  0  0
  9  8  2  0  0  0  0
  9 11  1  0  0  0  0
 10  9  1  0  0  0  0
 11 13  2  0  0  0  0
 12 11  1  0  0  0  0
 13 14  1  0  0  0  0
 13 28  1  0  0  0  0
 14 17  1  0  0  0  0
 15 16  1  0  0  0  0
 15 14  2  0  0  0  0
 17 18  1  0  0  0  0
 18 19  1  0  0  0  0
 19 20  1  0  0  0  0
 19 21  2  0  0  0  0
 21 22  1  0  0  0  0
 23 21  1  0  0  0  0
 23 24  1  0  0  0  0
 25 23  2  0  0  0  0
 26 25  1  0  0  0  0
 27 18  2  0  0  0  0
 27 25  1  0  0  0  0
 28 27  1  0  0  0  0
 29 28  1  0  0  0  0
 30 31  1  0  0  0  0
 30 33  1  0  0  0  0
 32 30  1  0  0  0  0
 33 34  1  0  0  0  0
 33 38  1  0  0  0  0
 35 33  1  0  0  0  0
 36 42  1  0  0  0  0
 36 41  1  0  0  0  0
 37 38  1  0  0  0  0
 37 36  2  0  0  0  0
 38 39  2  0  0  0  0
 39 40  1  0  0  0  0
 40 44  1  0  0  0  0
 41 40  2  0  0  0  0
 43 37  1  0  0  0  0
M  END
>  <minimizedAffinity>
-5.15513945

>  <minimizedRMSD>
0.920416415

$$$$
