
 OpenBabel03252502433D

 44 48  0  0  1  0  0  0  0  0999 V2000
   49.2680   34.0870   41.6530 C   0  0  1  0  0  0  0  0  0  0  0  0
   50.3940   33.5180   42.3610 C   0  0  0  0  0  0  0  0  0  0  0  0
   49.1460   32.7400   41.9560 C   0  0  1  0  0  0  0  0  0  0  0  0
   49.5540   34.4760   40.6320 H   0  0  0  0  0  0  0  0  0  0  0  0
   50.6230   33.6470   43.4160 H   0  0  0  0  0  0  0  0  0  0  0  0
   51.3090   33.1610   41.7990 H   0  0  0  0  0  0  0  0  0  0  0  0
   49.1510   32.1810   40.9560 H   0  0  0  0  0  0  0  0  0  0  0  0
   48.9360   31.6230   42.7990 C   0  0  0  0  0  0  0  0  0  0  0  0
   49.8580   30.5750   42.9670 C   0  0  0  0  0  0  0  0  0  0  0  0
   50.7780   30.6130   42.4000 H   0  0  0  0  0  0  0  0  0  0  0  0
   49.5580   29.5530   43.8350 C   0  0  0  0  0  0  0  0  0  0  0  0
   50.3440   28.7880   43.8910 H   0  0  0  0  0  0  0  0  0  0  0  0
   48.3700   29.5500   44.5340 C   0  0  0  0  0  0  0  0  0  0  0  0
   47.4410   30.5230   44.4210 C   0  0  0  0  0  0  0  0  0  0  0  0
   47.7590   31.5160   43.5620 C   0  0  0  0  0  0  0  0  0  0  0  0
   47.0340   32.3280   43.4370 H   0  0  0  0  0  0  0  0  0  0  0  0
   45.9450   30.4470   45.3510 S   0  0  0  0  0  0  0  0  0  0  0  0
   46.0470   28.9430   46.3130 C   0  0  0  0  0  0  0  0  0  0  0  0
   44.9600   28.7200   47.1050 C   0  0  0  0  0  0  0  0  0  0  0  0
   44.1010   29.3560   47.1790 H   0  0  0  0  0  0  0  0  0  0  0  0
   44.9450   27.5720   47.8930 C   0  0  0  0  0  0  0  0  0  0  0  0
   44.1330   27.3060   48.5500 H   0  0  0  0  0  0  0  0  0  0  0  0
   46.0230   26.7150   47.8410 C   0  0  0  0  0  0  0  0  0  0  0  0
   46.0280   25.8180   48.4460 H   0  0  0  0  0  0  0  0  0  0  0  0
   47.0580   27.0310   47.0160 C   0  0  0  0  0  0  0  0  0  0  0  0
   47.8930   26.3090   47.0150 H   0  0  0  0  0  0  0  0  0  0  0  0
   47.1600   28.1420   46.2010 C   0  0  0  0  0  0  0  0  0  0  0  0
   48.2570   28.4180   45.3690 N   0  0  0  0  0  0  0  0  0  0  0  0
   48.9940   27.6550   45.4520 H   0  0  0  0  0  0  0  0  0  0  0  0
   48.4220   35.1450   42.3090 C   0  0  0  0  0  0  0  0  0  0  0  0
   48.6120   35.0120   43.4140 H   0  0  0  0  0  0  0  0  0  0  0  0
   48.6960   36.1600   42.0230 H   0  0  0  0  0  0  0  0  0  0  0  0
   47.0260   34.7500   41.9460 C   0  0  0  0  0  0  0  0  0  0  0  0
   46.9560   33.6480   41.9710 H   0  0  0  0  0  0  0  0  0  0  0  0
   46.6370   35.2260   41.0430 H   0  0  0  0  0  0  0  0  0  0  0  0
   44.5330   36.2400   44.3240 C   0  0  0  0  0  0  0  0  0  0  0  0
   45.3320   36.0480   43.1700 C   0  0  0  0  0  0  0  0  0  0  0  0
   46.1430   34.9500   43.1310 C   0  0  0  0  0  0  0  0  0  0  0  0
   46.1540   34.0860   44.1870 N   0  0  0  0  0  0  0  0  0  0  0  0
   45.4020   34.2800   45.2560 C   0  0  0  0  0  0  0  0  0  0  0  0
   44.5950   35.3420   45.3360 N   0  0  0  0  0  0  0  0  0  0  0  0
   43.8600   37.0730   44.4550 H   0  0  0  0  0  0  0  0  0  0  0  0
   45.1620   36.8330   42.4530 H   0  0  0  0  0  0  0  0  0  0  0  0
   45.3840   33.6170   46.1140 H   0  0  0  0  0  0  0  0  0  0  0  0
  1  4  1  6  0  0  0
  1  3  1  0  0  0  0
  1 30  1  0  0  0  0
  1  2  1  0  0  0  0
  2  5  1  0  0  0  0
  3  7  1  6  0  0  0
  3  2  1  0  0  0  0
  3  8  1  0  0  0  0
  6  2  1  0  0  0  0
  8  9  2  0  0  0  0
  8 15  1  0  0  0  0
  9 11  1  0  0  0  0
 10  9  1  0  0  0  0
 11 12  1  0  0  0  0
 11 13  2  0  0  0  0
 13 28  1  0  0  0  0
 14 13  1  0  0  0  0
 14 17  1  0  0  0  0
 15 14  2  0  0  0  0
 16 15  1  0  0  0  0
 17 18  1  0  0  0  0
 18 19  1  0  0  0  0
 19 20  1  0  0  0  0
 19 21  2  0  0  0  0
 21 22  1  0  0  0  0
 23 21  1  0  0  0  0
 23 24  1  0  0  0  0
 25 23  2  0  0  0  0
 26 25  1  0  0  0  0
 27 18  2  0  0  0  0
 27 25  1  0  0  0  0
 28 29  1  0  0  0  0
 28 27  1  0  0  0  0
 30 31  1  0  0  0  0
 32 30  1  0  0  0  0
 33 34  1  0  0  0  0
 33 30  1  0  0  0  0
 33 38  1  0  0  0  0
 35 33  1  0  0  0  0
 36 42  1  0  0  0  0
 36 41  1  0  0  0  0
 37 36  2  0  0  0  0
 38 37  1  0  0  0  0
 38 39  2  0  0  0  0
 39 40  1  0  0  0  0
 40 41  2  0  0  0  0
 40 44  1  0  0  0  0
 43 37  1  0  0  0  0
M  END
>  <minimizedAffinity>
-5.52800226

>  <minimizedRMSD>
2.2580781

$$$$
