
 OpenBabel03252504093D

 38 41  0  0  0  0  0  0  0  0999 V2000
   47.5450   31.0150   44.6340 C   0  0  0  0  0  0  0  0  0  0  0  0
   48.6460   30.5200   43.9660 C   0  0  0  0  0  0  0  0  0  0  0  0
   49.0890   31.0920   43.1820 H   0  0  0  0  0  0  0  0  0  0  0  0
   49.1400   29.2890   44.3430 C   0  0  0  0  0  0  0  0  0  0  0  0
   50.0190   28.9590   43.7650 H   0  0  0  0  0  0  0  0  0  0  0  0
   48.6250   28.4930   45.3430 C   0  0  0  0  0  0  0  0  0  0  0  0
   47.5330   29.0360   45.9710 C   0  0  0  0  0  0  0  0  0  0  0  0
   47.0060   30.2530   45.6350 C   0  0  0  0  0  0  0  0  0  0  0  0
   46.1330   30.6350   46.1720 H   0  0  0  0  0  0  0  0  0  0  0  0
   46.7750   28.1040   47.2840 S   0  0  0  0  0  0  0  0  0  0  0  0
   47.7060   26.5960   47.4500 C   0  0  0  0  0  0  0  0  0  0  0  0
   47.3610   25.6620   48.3880 C   0  0  0  0  0  0  0  0  0  0  0  0
   46.4960   25.8650   49.0370 H   0  0  0  0  0  0  0  0  0  0  0  0
   48.0350   24.4730   48.5720 C   0  0  0  0  0  0  0  0  0  0  0  0
   47.6970   23.8050   49.3260 H   0  0  0  0  0  0  0  0  0  0  0  0
   49.1110   24.2630   47.7350 C   0  0  0  0  0  0  0  0  0  0  0  0
   49.6670   23.3540   47.8400 H   0  0  0  0  0  0  0  0  0  0  0  0
   49.4440   25.2160   46.7950 C   0  0  0  0  0  0  0  0  0  0  0  0
   50.3160   24.9570   46.1770 H   0  0  0  0  0  0  0  0  0  0  0  0
   48.7700   26.4050   46.6100 C   0  0  0  0  0  0  0  0  0  0  0  0
   49.2610   27.2560   45.5950 N   0  0  0  0  0  0  0  0  0  0  0  0
   50.0760   26.9890   45.0350 H   0  0  0  0  0  0  0  0  0  0  0  0
   46.9540   34.2410   43.0000 C   0  0  0  0  0  0  0  0  0  0  0  0
   45.8490   34.7250   43.6900 C   0  0  0  0  0  0  0  0  0  0  0  0
   45.3130   33.9330   44.7160 C   0  0  0  0  0  0  0  0  0  0  0  0
   45.8970   32.7400   44.9840 N   0  0  0  0  0  0  0  0  0  0  0  0
   46.9670   32.3090   44.2920 C   0  0  0  0  0  0  0  0  0  0  0  0
   47.5010   33.0470   43.3040 N   0  0  0  0  0  0  0  0  0  0  0  0
   44.4490   34.2990   45.2620 H   0  0  0  0  0  0  0  0  0  0  0  0
   45.2790   36.0450   43.3220 C   0  0  0  0  0  0  0  0  0  0  0  0
   46.3000   36.9170   42.9660 F   0  0  0  0  0  0  0  0  0  0  0  0
   44.5040   35.8830   42.1870 F   0  0  0  0  0  0  0  0  0  0  0  0
   44.5580   36.6500   44.2940 F   0  0  0  0  0  0  0  0  0  0  0  0
   47.4620   35.0090   42.0170 O   0  0  0  0  0  0  0  0  0  0  0  0
   48.8080   35.1170   41.6080 C   0  0  0  0  0  0  0  0  0  0  0  0
   49.5590   35.3780   42.7550 F   0  0  0  0  0  0  0  0  0  0  0  0
   49.1950   33.9630   40.9840 F   0  0  0  0  0  0  0  0  0  0  0  0
   48.9760   36.2250   40.8130 F   0  0  0  0  0  0  0  0  0  0  0  0
  1  8  1  0  0  0  0
  2  4  1  0  0  0  0
  2  1  2  0  0  0  0
  3  2  1  0  0  0  0
  4  6  2  0  0  0  0
  5  4  1  0  0  0  0
  6 21  1  0  0  0  0
  6  7  1  0  0  0  0
  7 10  1  0  0  0  0
  8  7  2  0  0  0  0
  8  9  1  0  0  0  0
 10 11  1  0  0  0  0
 11 12  1  0  0  0  0
 12 14  2  0  0  0  0
 12 13  1  0  0  0  0
 14 15  1  0  0  0  0
 16 17  1  0  0  0  0
 16 14  1  0  0  0  0
 18 16  2  0  0  0  0
 19 18  1  0  0  0  0
 20 18  1  0  0  0  0
 20 11  2  0  0  0  0
 21 20  1  0  0  0  0
 22 21  1  0  0  0  0
 23 28  2  0  0  0  0
 23 24  1  0  0  0  0
 24 25  2  0  0  0  0
 25 26  1  0  0  0  0
 25 29  1  0  0  0  0
 27  1  1  0  0  0  0
 27 26  2  0  0  0  0
 28 27  1  0  0  0  0
 30 24  1  0  0  0  0
 30 33  1  0  0  0  0
 31 30  1  0  0  0  0
 32 30  1  0  0  0  0
 34 23  1  0  0  0  0
 35 34  1  0  0  0  0
 35 36  1  0  0  0  0
 37 35  1  0  0  0  0
 38 35  1  0  0  0  0
M  END
>  <minimizedAffinity>
-5.5561862

>  <minimizedRMSD>
1.22004843

$$$$
