
 OpenBabel03242523193D

 50 55  0  0  0  0  0  0  0  0999 V2000
   44.5150   31.6940   43.0670 Cl  0  0  0  0  0  0  0  0  0  0  0  0
   44.5500   33.4340   42.7670 C   0  0  0  0  0  0  0  0  0  0  0  0
   45.4830   34.1590   43.5360 C   0  0  0  0  0  0  0  0  0  0  0  0
   45.4290   35.5070   43.2210 C   0  0  0  0  0  0  0  0  0  0  0  0
   44.6580   36.1560   42.3360 C   0  0  0  0  0  0  0  0  0  0  0  0
   43.7810   35.3770   41.6330 C   0  0  0  0  0  0  0  0  0  0  0  0
   43.7110   34.0410   41.8280 C   0  0  0  0  0  0  0  0  0  0  0  0
   46.0770   36.2290   43.7610 H   0  0  0  0  0  0  0  0  0  0  0  0
   44.6460   37.1940   42.1200 H   0  0  0  0  0  0  0  0  0  0  0  0
   43.0880   35.7400   40.8820 H   0  0  0  0  0  0  0  0  0  0  0  0
   42.7910   33.1590   41.1080 C   0  0  0  0  0  0  0  0  0  0  0  0
   43.2160   32.8160   39.8240 C   0  0  0  0  0  0  0  0  0  0  0  0
   44.1490   33.1750   39.4120 H   0  0  0  0  0  0  0  0  0  0  0  0
   42.4120   31.9820   39.0460 C   0  0  0  0  0  0  0  0  0  0  0  0
   42.8000   31.7460   38.0450 H   0  0  0  0  0  0  0  0  0  0  0  0
   41.2060   31.4660   39.4670 C   0  0  0  0  0  0  0  0  0  0  0  0
   40.8370   31.8350   40.7340 C   0  0  0  0  0  0  0  0  0  0  0  0
   41.5840   32.6490   41.5380 C   0  0  0  0  0  0  0  0  0  0  0  0
   41.3000   32.9380   42.5200 H   0  0  0  0  0  0  0  0  0  0  0  0
   39.2930   31.2210   41.3730 S   0  0  0  0  0  0  0  0  0  0  0  0
   38.5770   30.2070   40.0970 C   0  0  0  0  0  0  0  0  0  0  0  0
   37.3730   29.5940   40.3070 C   0  0  0  0  0  0  0  0  0  0  0  0
   36.8770   29.7490   41.2730 H   0  0  0  0  0  0  0  0  0  0  0  0
   36.7690   28.8000   39.3610 C   0  0  0  0  0  0  0  0  0  0  0  0
   35.8170   28.3610   39.6250 H   0  0  0  0  0  0  0  0  0  0  0  0
   37.4290   28.6320   38.1610 C   0  0  0  0  0  0  0  0  0  0  0  0
   36.9830   28.0240   37.4150 H   0  0  0  0  0  0  0  0  0  0  0  0
   38.6410   29.2680   37.9900 C   0  0  0  0  0  0  0  0  0  0  0  0
   39.0970   29.0810   37.0060 H   0  0  0  0  0  0  0  0  0  0  0  0
   39.2680   30.0700   38.9200 C   0  0  0  0  0  0  0  0  0  0  0  0
   40.5040   30.6340   38.5660 N   0  0  0  0  0  0  0  0  0  0  0  0
   40.9080   30.4360   37.6280 H   0  0  0  0  0  0  0  0  0  0  0  0
   46.4300   33.6050   44.5460 C   0  0  0  0  0  0  0  0  0  0  0  0
   45.8670   33.9950   45.5370 O   0  0  0  0  0  0  0  0  0  0  0  0
   47.5100   32.9020   43.8400 C   0  0  0  0  0  0  0  0  0  0  0  0
   48.3670   33.4390   42.9590 C   0  0  0  0  0  0  0  0  0  0  0  0
   49.2230   32.5340   42.3660 C   0  0  0  0  0  0  0  0  0  0  0  0
   49.1260   31.1770   42.7290 N   0  0  0  0  0  0  0  0  0  0  0  0
   48.2610   30.7270   43.6040 C   0  0  0  0  0  0  0  0  0  0  0  0
   47.3870   31.6000   44.2160 N   0  0  0  0  0  0  0  0  0  0  0  0
   49.9800   32.7800   41.6300 H   0  0  0  0  0  0  0  0  0  0  0  0
   48.3060   29.6580   43.7820 H   0  0  0  0  0  0  0  0  0  0  0  0
   48.5380   34.8220   42.6840 C   0  0  0  0  0  0  0  0  0  0  0  0
   49.6000   35.4480   42.1110 C   0  0  0  0  0  0  0  0  0  0  0  0
   48.4490   35.2620   41.1620 C   0  0  0  0  0  0  0  0  0  0  0  0
   47.9980   35.4850   43.3850 H   0  0  0  0  0  0  0  0  0  0  0  0
   49.9170   36.5160   42.1810 H   0  0  0  0  0  0  0  0  0  0  0  0
   50.5070   34.8440   41.8120 H   0  0  0  0  0  0  0  0  0  0  0  0
   48.4600   34.4080   40.4700 H   0  0  0  0  0  0  0  0  0  0  0  0
   47.7680   36.1070   40.9850 H   0  0  0  0  0  0  0  0  0  0  0  0
  2  1  1  0  0  0  0
  2  3  1  0  0  0  0
  3 33  1  0  0  0  0
  4  3  2  0  0  0  0
  4  8  1  0  0  0  0
  5  4  1  0  0  0  0
  6  7  1  0  0  0  0
  6  5  2  0  0  0  0
  7  2  2  0  0  0  0
  9  5  1  0  0  0  0
 10  6  1  0  0  0  0
 11 18  1  0  0  0  0
 11  7  1  0  0  0  0
 12 11  2  0  0  0  0
 13 12  1  0  0  0  0
 14 16  2  0  0  0  0
 14 12  1  0  0  0  0
 15 14  1  0  0  0  0
 16 17  1  0  0  0  0
 17 20  1  0  0  0  0
 17 18  2  0  0  0  0
 18 19  1  0  0  0  0
 21 22  1  0  0  0  0
 21 20  1  0  0  0  0
 22 23  1  0  0  0  0
 24 25  1  0  0  0  0
 24 22  2  0  0  0  0
 26 24  1  0  0  0  0
 27 26  1  0  0  0  0
 28 26  2  0  0  0  0
 28 30  1  0  0  0  0
 29 28  1  0  0  0  0
 30 21  2  0  0  0  0
 31 30  1  0  0  0  0
 31 16  1  0  0  0  0
 32 31  1  0  0  0  0
 33 34  2  0  0  0  0
 35 40  1  0  0  0  0
 35 33  1  0  0  0  0
 36 35  2  0  0  0  0
 37 38  2  0  0  0  0
 37 36  1  0  0  0  0
 38 39  1  0  0  0  0
 39 42  1  0  0  0  0
 39 40  2  0  0  0  0
 41 37  1  0  0  0  0
 43 36  1  0  0  0  0
 43 46  1  0  0  0  0
 44 47  1  0  0  0  0
 44 43  1  0  0  0  0
 45 44  1  0  0  0  0
 45 43  1  0  0  0  0
 48 44  1  0  0  0  0
 49 45  1  0  0  0  0
 50 45  1  0  0  0  0
M  END
>  <minimizedAffinity>
-6.7718792

>  <minimizedRMSD>
0.813468218

$$$$
