
 OpenBabel03252503093D

 40 44  0  0  1  0  0  0  0  0999 V2000
   46.3740   34.1560   40.5330 C   0  0  0  0  0  0  0  0  0  0  0  0
   45.0030   34.0120   40.5450 C   0  0  0  0  0  0  0  0  0  0  0  0
   44.4120   34.3540   41.4060 H   0  0  0  0  0  0  0  0  0  0  0  0
   44.2960   33.4430   39.5210 C   0  0  0  0  0  0  0  0  0  0  0  0
   43.2300   33.3520   39.5810 H   0  0  0  0  0  0  0  0  0  0  0  0
   45.0120   32.9850   38.4050 C   0  0  0  0  0  0  0  0  0  0  0  0
   46.3800   33.1280   38.3880 C   0  0  0  0  0  0  0  0  0  0  0  0
   47.0250   33.7030   39.4390 C   0  0  0  0  0  0  0  0  0  0  0  0
   48.0970   33.8530   39.4980 H   0  0  0  0  0  0  0  0  0  0  0  0
   47.3230   32.5670   36.9880 S   0  0  0  0  0  0  0  0  0  0  0  0
   46.1590   31.7800   35.8910 C   0  0  0  0  0  0  0  0  0  0  0  0
   46.5920   31.1780   34.7610 C   0  0  0  0  0  0  0  0  0  0  0  0
   47.6720   31.2000   34.5540 H   0  0  0  0  0  0  0  0  0  0  0  0
   45.7650   30.5530   33.8620 C   0  0  0  0  0  0  0  0  0  0  0  0
   46.1820   30.0970   32.9800 H   0  0  0  0  0  0  0  0  0  0  0  0
   44.3990   30.5700   34.1880 C   0  0  0  0  0  0  0  0  0  0  0  0
   43.7240   30.0890   33.5030 H   0  0  0  0  0  0  0  0  0  0  0  0
   43.9680   31.1930   35.3500 C   0  0  0  0  0  0  0  0  0  0  0  0
   42.9080   31.1420   35.4930 H   0  0  0  0  0  0  0  0  0  0  0  0
   44.8630   31.8280   36.2500 C   0  0  0  0  0  0  0  0  0  0  0  0
   44.2680   32.3650   37.3880 N   0  0  0  0  0  0  0  0  0  0  0  0
   43.2130   32.3130   37.5000 H   0  0  0  0  0  0  0  0  0  0  0  0
   46.9600   34.7880   41.7670 C   0  0  1  0  0  3  0  0  0  0  0  0
   48.1710   35.2370   41.8530 O   0  0  0  0  0  1  0  0  0  0  0  0
   45.5400   36.1770   43.1630 C   0  0  0  0  0  0  0  0  0  0  0  0
   46.1740   34.9340   42.9410 C   0  0  0  0  0  0  0  0  0  0  0  0
   45.9370   33.9630   43.8910 C   0  0  0  0  0  0  0  0  0  0  0  0
   45.1490   34.1880   44.9580 N   0  0  0  0  0  0  0  0  0  0  0  0
   44.5550   35.3960   45.1410 C   0  0  0  0  0  0  0  0  0  0  0  0
   44.7590   36.3820   44.2330 N   0  0  0  0  0  0  0  0  0  0  0  0
   45.6890   36.9770   42.4530 H   0  0  0  0  0  0  0  0  0  0  0  0
   43.9370   35.4740   46.0380 H   0  0  0  0  0  0  0  0  0  0  0  0
   46.5450   32.7210   43.7390 C   0  0  0  0  0  0  0  0  0  0  0  0
   47.8190   32.2400   43.9540 C   0  0  0  0  0  0  0  0  0  0  0  0
   48.1400   30.9780   43.7220 C   0  0  0  0  0  0  0  0  0  0  0  0
   47.1510   30.1390   43.2520 C   0  0  0  0  0  0  0  0  0  0  0  0
   45.6800   31.2750   43.1520 S   0  0  0  0  0  0  0  0  0  0  0  0
   48.6810   32.7190   44.3500 H   0  0  0  0  0  0  0  0  0  0  0  0
   48.9910   30.3300   43.7820 H   0  0  0  0  0  0  0  0  0  0  0  0
   46.9290   29.1240   42.9410 H   0  0  0  0  0  0  0  0  0  0  0  0
  1  2  1  0  0  0  0
  1 23  1  0  0  0  0
  2  3  1  0  0  0  0
  4  5  1  0  0  0  0
  4  2  2  0  0  0  0
  6  4  1  0  0  0  0
  7  6  2  0  0  0  0
  7  8  1  0  0  0  0
  8  9  1  0  0  0  0
  8  1  2  0  0  0  0
 10  7  1  0  0  0  0
 11 20  1  0  0  0  0
 11 10  1  0  0  0  0
 12 11  2  0  0  0  0
 13 12  1  0  0  0  0
 14 16  2  0  0  0  0
 14 12  1  0  0  0  0
 15 14  1  0  0  0  0
 16 18  1  0  0  0  0
 17 16  1  0  0  0  0
 18 19  1  0  0  0  0
 18 20  2  0  0  0  0
 20 21  1  0  0  0  0
 21 22  1  0  0  0  0
 21  6  1  0  0  0  0
 23 24  1  6  0  0  0
 23 26  1  0  0  0  0
 25 30  1  0  0  0  0
 26 25  2  0  0  0  0
 26 27  1  0  0  0  0
 27 28  2  0  0  0  0
 28 29  1  0  0  0  0
 29 32  1  0  0  0  0
 30 29  2  0  0  0  0
 31 25  1  0  0  0  0
 33 27  1  0  0  0  0
 33 34  2  0  0  0  0
 34 38  1  0  0  0  0
 35 39  1  0  0  0  0
 35 34  1  0  0  0  0
 36 35  2  0  0  0  0
 37 36  1  0  0  0  0
 37 33  1  0  0  0  0
 40 36  1  0  0  0  0
M  END
>  <minimizedAffinity>
-5.693048

>  <minimizedRMSD>
1.4345367

$$$$
