
 OpenBabel03252503093D

 40 44  0  0  1  0  0  0  0  0999 V2000
   46.2250   34.1590   40.5410 C   0  0  0  0  0  0  0  0  0  0  0  0
   44.8500   34.0540   40.5760 C   0  0  0  0  0  0  0  0  0  0  0  0
   44.2810   34.4440   41.4320 H   0  0  0  0  0  0  0  0  0  0  0  0
   44.1130   33.4660   39.5840 C   0  0  0  0  0  0  0  0  0  0  0  0
   43.0460   33.4090   39.6630 H   0  0  0  0  0  0  0  0  0  0  0  0
   44.8010   32.9470   38.4770 C   0  0  0  0  0  0  0  0  0  0  0  0
   46.1710   33.0510   38.4360 C   0  0  0  0  0  0  0  0  0  0  0  0
   46.8470   33.6480   39.4550 C   0  0  0  0  0  0  0  0  0  0  0  0
   47.9230   33.7690   39.4950 H   0  0  0  0  0  0  0  0  0  0  0  0
   47.0780   32.4120   37.0450 S   0  0  0  0  0  0  0  0  0  0  0  0
   45.8770   31.6190   35.9940 C   0  0  0  0  0  0  0  0  0  0  0  0
   46.2770   30.9630   34.8820 C   0  0  0  0  0  0  0  0  0  0  0  0
   47.3540   30.9480   34.6610 H   0  0  0  0  0  0  0  0  0  0  0  0
   45.4200   30.3280   34.0190 C   0  0  0  0  0  0  0  0  0  0  0  0
   45.8120   29.8280   33.1490 H   0  0  0  0  0  0  0  0  0  0  0  0
   44.0610   30.3960   34.3620 C   0  0  0  0  0  0  0  0  0  0  0  0
   43.3620   29.9080   33.7040 H   0  0  0  0  0  0  0  0  0  0  0  0
   43.6630   31.0730   35.5060 C   0  0  0  0  0  0  0  0  0  0  0  0
   42.6030   31.0560   35.6650 H   0  0  0  0  0  0  0  0  0  0  0  0
   44.5870   31.7160   36.3690 C   0  0  0  0  0  0  0  0  0  0  0  0
   44.0250   32.3120   37.4950 N   0  0  0  0  0  0  0  0  0  0  0  0
   42.9700   32.2930   37.6230 H   0  0  0  0  0  0  0  0  0  0  0  0
   46.8450   34.8190   41.7420 C   0  0  1  0  0  3  0  0  0  0  0  0
   48.0470   35.3000   41.7720 O   0  0  0  0  0  1  0  0  0  0  0  0
   45.4670   36.1950   43.1930 C   0  0  0  0  0  0  0  0  0  0  0  0
   46.1060   34.9590   42.9470 C   0  0  0  0  0  0  0  0  0  0  0  0
   45.9180   33.9870   43.9070 C   0  0  0  0  0  0  0  0  0  0  0  0
   45.1720   34.2060   45.0050 N   0  0  0  0  0  0  0  0  0  0  0  0
   44.5720   35.4080   45.2090 C   0  0  0  0  0  0  0  0  0  0  0  0
   44.7290   36.3940   44.2920 N   0  0  0  0  0  0  0  0  0  0  0  0
   45.5790   36.9960   42.4760 H   0  0  0  0  0  0  0  0  0  0  0  0
   43.9900   35.4800   46.1300 H   0  0  0  0  0  0  0  0  0  0  0  0
   46.5340   32.7520   43.7330 C   0  0  0  0  0  0  0  0  0  0  0  0
   47.8160   32.2800   43.9160 C   0  0  0  0  0  0  0  0  0  0  0  0
   48.1430   31.0240   43.6670 C   0  0  0  0  0  0  0  0  0  0  0  0
   47.1520   30.1790   43.2130 C   0  0  0  0  0  0  0  0  0  0  0  0
   45.6690   31.3030   43.1540 S   0  0  0  0  0  0  0  0  0  0  0  0
   48.6820   32.7650   44.2970 H   0  0  0  0  0  0  0  0  0  0  0  0
   49.0000   30.3830   43.7040 H   0  0  0  0  0  0  0  0  0  0  0  0
   46.9310   29.1650   42.8990 H   0  0  0  0  0  0  0  0  0  0  0  0
  1  2  1  0  0  0  0
  1 23  1  0  0  0  0
  2  3  1  0  0  0  0
  4  5  1  0  0  0  0
  4  2  2  0  0  0  0
  6  4  1  0  0  0  0
  7  6  2  0  0  0  0
  7  8  1  0  0  0  0
  8  9  1  0  0  0  0
  8  1  2  0  0  0  0
 10  7  1  0  0  0  0
 11 20  1  0  0  0  0
 11 10  1  0  0  0  0
 12 11  2  0  0  0  0
 13 12  1  0  0  0  0
 14 16  2  0  0  0  0
 14 12  1  0  0  0  0
 15 14  1  0  0  0  0
 16 18  1  0  0  0  0
 17 16  1  0  0  0  0
 18 19  1  0  0  0  0
 18 20  2  0  0  0  0
 20 21  1  0  0  0  0
 21 22  1  0  0  0  0
 21  6  1  0  0  0  0
 23 24  1  6  0  0  0
 23 26  1  0  0  0  0
 25 30  1  0  0  0  0
 26 25  2  0  0  0  0
 26 27  1  0  0  0  0
 27 28  2  0  0  0  0
 28 29  1  0  0  0  0
 29 32  1  0  0  0  0
 30 29  2  0  0  0  0
 31 25  1  0  0  0  0
 33 27  1  0  0  0  0
 33 34  2  0  0  0  0
 34 38  1  0  0  0  0
 35 39  1  0  0  0  0
 35 34  1  0  0  0  0
 36 35  2  0  0  0  0
 37 36  1  0  0  0  0
 37 33  1  0  0  0  0
 40 36  1  0  0  0  0
M  END
>  <minimizedAffinity>
-5.66599178

>  <minimizedRMSD>
1.50133514

$$$$
