
 OpenBabel03242523193D

 50 55  0  0  0  0  0  0  0  0999 V2000
   44.5160   31.6940   43.0680 Cl  0  0  0  0  0  0  0  0  0  0  0  0
   44.5520   33.4340   42.7670 C   0  0  0  0  0  0  0  0  0  0  0  0
   45.4870   34.1580   43.5360 C   0  0  0  0  0  0  0  0  0  0  0  0
   45.4330   35.5060   43.2200 C   0  0  0  0  0  0  0  0  0  0  0  0
   44.6620   36.1550   42.3360 C   0  0  0  0  0  0  0  0  0  0  0  0
   43.7850   35.3770   41.6340 C   0  0  0  0  0  0  0  0  0  0  0  0
   43.7140   34.0410   41.8290 C   0  0  0  0  0  0  0  0  0  0  0  0
   46.0830   36.2280   43.7600 H   0  0  0  0  0  0  0  0  0  0  0  0
   44.6520   37.1930   42.1200 H   0  0  0  0  0  0  0  0  0  0  0  0
   43.0920   35.7400   40.8830 H   0  0  0  0  0  0  0  0  0  0  0  0
   42.7920   33.1600   41.1090 C   0  0  0  0  0  0  0  0  0  0  0  0
   43.2190   32.8160   39.8250 C   0  0  0  0  0  0  0  0  0  0  0  0
   44.1510   33.1750   39.4130 H   0  0  0  0  0  0  0  0  0  0  0  0
   42.4130   31.9820   39.0470 C   0  0  0  0  0  0  0  0  0  0  0  0
   42.8020   31.7470   38.0470 H   0  0  0  0  0  0  0  0  0  0  0  0
   41.2070   31.4670   39.4690 C   0  0  0  0  0  0  0  0  0  0  0  0
   40.8390   31.8360   40.7350 C   0  0  0  0  0  0  0  0  0  0  0  0
   41.5860   32.6500   41.5390 C   0  0  0  0  0  0  0  0  0  0  0  0
   41.3020   32.9400   42.5200 H   0  0  0  0  0  0  0  0  0  0  0  0
   39.2950   31.2240   41.3740 S   0  0  0  0  0  0  0  0  0  0  0  0
   38.5770   30.2100   40.0970 C   0  0  0  0  0  0  0  0  0  0  0  0
   37.3720   29.5990   40.3090 C   0  0  0  0  0  0  0  0  0  0  0  0
   36.8760   29.7540   41.2730 H   0  0  0  0  0  0  0  0  0  0  0  0
   36.7680   28.8040   39.3620 C   0  0  0  0  0  0  0  0  0  0  0  0
   35.8160   28.3660   39.6260 H   0  0  0  0  0  0  0  0  0  0  0  0
   37.4280   28.6370   38.1620 C   0  0  0  0  0  0  0  0  0  0  0  0
   36.9820   28.0290   37.4160 H   0  0  0  0  0  0  0  0  0  0  0  0
   38.6400   29.2720   37.9910 C   0  0  0  0  0  0  0  0  0  0  0  0
   39.0970   29.0840   37.0070 H   0  0  0  0  0  0  0  0  0  0  0  0
   39.2690   30.0720   38.9210 C   0  0  0  0  0  0  0  0  0  0  0  0
   40.5050   30.6360   38.5670 N   0  0  0  0  0  0  0  0  0  0  0  0
   40.9070   30.4380   37.6290 H   0  0  0  0  0  0  0  0  0  0  0  0
   46.4340   33.6040   44.5460 C   0  0  0  0  0  0  0  0  0  0  0  0
   45.8720   33.9950   45.5370 O   0  0  0  0  0  0  0  0  0  0  0  0
   47.5120   32.8990   43.8390 C   0  0  0  0  0  0  0  0  0  0  0  0
   48.3730   33.4360   42.9620 C   0  0  0  0  0  0  0  0  0  0  0  0
   49.2260   32.5300   42.3670 C   0  0  0  0  0  0  0  0  0  0  0  0
   49.1240   31.1720   42.7260 N   0  0  0  0  0  0  0  0  0  0  0  0
   48.2570   30.7230   43.5990 C   0  0  0  0  0  0  0  0  0  0  0  0
   47.3850   31.5960   44.2120 N   0  0  0  0  0  0  0  0  0  0  0  0
   49.9860   32.7750   41.6330 H   0  0  0  0  0  0  0  0  0  0  0  0
   48.2980   29.6530   43.7740 H   0  0  0  0  0  0  0  0  0  0  0  0
   48.5490   34.8190   42.6910 C   0  0  0  0  0  0  0  0  0  0  0  0
   49.6130   35.4430   42.1180 C   0  0  0  0  0  0  0  0  0  0  0  0
   48.4590   35.2630   41.1690 C   0  0  0  0  0  0  0  0  0  0  0  0
   48.0120   35.4820   43.3940 H   0  0  0  0  0  0  0  0  0  0  0  0
   49.9340   36.5090   42.1900 H   0  0  0  0  0  0  0  0  0  0  0  0
   50.5170   34.8360   41.8160 H   0  0  0  0  0  0  0  0  0  0  0  0
   48.4660   34.4120   40.4750 H   0  0  0  0  0  0  0  0  0  0  0  0
   47.7810   36.1120   40.9960 H   0  0  0  0  0  0  0  0  0  0  0  0
  2  1  1  0  0  0  0
  2  3  1  0  0  0  0
  3 33  1  0  0  0  0
  4  3  2  0  0  0  0
  4  8  1  0  0  0  0
  5  4  1  0  0  0  0
  6  7  1  0  0  0  0
  6  5  2  0  0  0  0
  7  2  2  0  0  0  0
  9  5  1  0  0  0  0
 10  6  1  0  0  0  0
 11 18  1  0  0  0  0
 11  7  1  0  0  0  0
 12 11  2  0  0  0  0
 13 12  1  0  0  0  0
 14 16  2  0  0  0  0
 14 12  1  0  0  0  0
 15 14  1  0  0  0  0
 16 17  1  0  0  0  0
 17 20  1  0  0  0  0
 17 18  2  0  0  0  0
 18 19  1  0  0  0  0
 21 22  1  0  0  0  0
 21 20  1  0  0  0  0
 22 23  1  0  0  0  0
 24 25  1  0  0  0  0
 24 22  2  0  0  0  0
 26 24  1  0  0  0  0
 27 26  1  0  0  0  0
 28 26  2  0  0  0  0
 28 30  1  0  0  0  0
 29 28  1  0  0  0  0
 30 21  2  0  0  0  0
 31 30  1  0  0  0  0
 31 16  1  0  0  0  0
 32 31  1  0  0  0  0
 33 34  2  0  0  0  0
 35 40  1  0  0  0  0
 35 33  1  0  0  0  0
 36 35  2  0  0  0  0
 37 38  2  0  0  0  0
 37 36  1  0  0  0  0
 38 39  1  0  0  0  0
 39 42  1  0  0  0  0
 39 40  2  0  0  0  0
 41 37  1  0  0  0  0
 43 36  1  0  0  0  0
 43 46  1  0  0  0  0
 44 47  1  0  0  0  0
 44 43  1  0  0  0  0
 45 44  1  0  0  0  0
 45 43  1  0  0  0  0
 48 44  1  0  0  0  0
 49 45  1  0  0  0  0
 50 45  1  0  0  0  0
M  END
>  <minimizedAffinity>
-6.76878738

>  <minimizedRMSD>
0.523605883

$$$$
