
 OpenBabel03252503103D

 40 44  0  0  1  0  0  0  0  0999 V2000
   37.1390   30.1360   39.1850 C   0  0  0  0  0  0  0  0  0  0  0  0
   37.0330   30.6270   37.9010 C   0  0  0  0  0  0  0  0  0  0  0  0
   36.1680   30.3710   37.2730 H   0  0  0  0  0  0  0  0  0  0  0  0
   37.9730   31.4390   37.3250 C   0  0  0  0  0  0  0  0  0  0  0  0
   37.8420   31.7920   36.3210 H   0  0  0  0  0  0  0  0  0  0  0  0
   39.0960   31.7840   38.0880 C   0  0  0  0  0  0  0  0  0  0  0  0
   39.2050   31.2980   39.3710 C   0  0  0  0  0  0  0  0  0  0  0  0
   38.2360   30.4950   39.8860 C   0  0  0  0  0  0  0  0  0  0  0  0
   38.2500   30.0750   40.8850 H   0  0  0  0  0  0  0  0  0  0  0  0
   40.6130   31.7200   40.3730 S   0  0  0  0  0  0  0  0  0  0  0  0
   41.6960   32.6750   39.3280 C   0  0  0  0  0  0  0  0  0  0  0  0
   42.9000   33.0800   39.7900 C   0  0  0  0  0  0  0  0  0  0  0  0
   43.1710   32.8020   40.8190 H   0  0  0  0  0  0  0  0  0  0  0  0
   43.7920   33.8190   39.0540 C   0  0  0  0  0  0  0  0  0  0  0  0
   44.7340   34.1090   39.4900 H   0  0  0  0  0  0  0  0  0  0  0  0
   43.3770   34.1430   37.7530 C   0  0  0  0  0  0  0  0  0  0  0  0
   44.0530   34.7220   37.1490 H   0  0  0  0  0  0  0  0  0  0  0  0
   42.1380   33.7220   37.2920 C   0  0  0  0  0  0  0  0  0  0  0  0
   41.9310   34.0270   36.2850 H   0  0  0  0  0  0  0  0  0  0  0  0
   41.2480   32.9580   38.0900 C   0  0  0  0  0  0  0  0  0  0  0  0
   40.0660   32.5830   37.4600 N   0  0  0  0  0  0  0  0  0  0  0  0
   39.8780   32.9100   36.4660 H   0  0  0  0  0  0  0  0  0  0  0  0
   36.0100   29.2400   39.6200 C   0  0  1  0  0  3  0  0  0  0  0  0
   34.9620   29.6460   40.2620 O   0  0  0  0  0  1  0  0  0  0  0  0
   35.4690   27.4200   38.1060 C   0  0  0  0  0  0  0  0  0  0  0  0
   36.0400   27.8510   39.3240 C   0  0  0  0  0  0  0  0  0  0  0  0
   36.6050   26.8630   40.1040 C   0  0  0  0  0  0  0  0  0  0  0  0
   36.6110   25.5720   39.7220 N   0  0  0  0  0  0  0  0  0  0  0  0
   36.0520   25.1940   38.5440 C   0  0  0  0  0  0  0  0  0  0  0  0
   35.4850   26.1300   37.7450 N   0  0  0  0  0  0  0  0  0  0  0  0
   35.0100   28.1490   37.4540 H   0  0  0  0  0  0  0  0  0  0  0  0
   36.1100   24.1240   38.3300 H   0  0  0  0  0  0  0  0  0  0  0  0
   37.1690   27.2190   41.3240 C   0  0  0  0  0  0  0  0  0  0  0  0
   36.6600   27.5790   42.5530 C   0  0  0  0  0  0  0  0  0  0  0  0
   37.4430   27.8770   43.5760 C   0  0  0  0  0  0  0  0  0  0  0  0
   38.8070   27.8170   43.3810 C   0  0  0  0  0  0  0  0  0  0  0  0
   38.9310   27.2950   41.5990 S   0  0  0  0  0  0  0  0  0  0  0  0
   35.6550   27.6320   42.8950 H   0  0  0  0  0  0  0  0  0  0  0  0
   37.3640   28.1770   44.6010 H   0  0  0  0  0  0  0  0  0  0  0  0
   39.7730   27.9530   43.8550 H   0  0  0  0  0  0  0  0  0  0  0  0
  1 23  1  0  0  0  0
  1  8  1  0  0  0  0
  2  1  2  0  0  0  0
  3  2  1  0  0  0  0
  4  2  1  0  0  0  0
  4  6  2  0  0  0  0
  5  4  1  0  0  0  0
  6  7  1  0  0  0  0
  7  8  2  0  0  0  0
  7 10  1  0  0  0  0
  8  9  1  0  0  0  0
 11 12  1  0  0  0  0
 11 10  1  0  0  0  0
 12 13  1  0  0  0  0
 14 15  1  0  0  0  0
 14 12  2  0  0  0  0
 16 14  1  0  0  0  0
 17 16  1  0  0  0  0
 18 16  2  0  0  0  0
 18 20  1  0  0  0  0
 19 18  1  0  0  0  0
 20 11  2  0  0  0  0
 21  6  1  0  0  0  0
 21 20  1  0  0  0  0
 22 21  1  0  0  0  0
 23 24  1  6  0  0  0
 25 26  1  0  0  0  0
 26 23  1  0  0  0  0
 26 27  2  0  0  0  0
 27 33  1  0  0  0  0
 28 27  1  0  0  0  0
 29 28  2  0  0  0  0
 30 25  2  0  0  0  0
 30 29  1  0  0  0  0
 31 25  1  0  0  0  0
 32 29  1  0  0  0  0
 33 37  1  0  0  0  0
 33 34  2  0  0  0  0
 34 38  1  0  0  0  0
 34 35  1  0  0  0  0
 35 39  1  0  0  0  0
 36 35  2  0  0  0  0
 36 40  1  0  0  0  0
 37 36  1  0  0  0  0
M  END
>  <minimizedAffinity>
-6.56328297

$$$$

 OpenBabel03252503103D

 40 44  0  0  1  0  0  0  0  0999 V2000
   38.2440   31.1950   40.1010 C   0  0  0  0  0  0  0  0  0  0  0  0
   38.4940   32.3870   40.7480 C   0  0  0  0  0  0  0  0  0  0  0  0
   37.7390   32.8370   41.4070 H   0  0  0  0  0  0  0  0  0  0  0  0
   39.6650   33.0850   40.6150 C   0  0  0  0  0  0  0  0  0  0  0  0
   39.8080   34.0090   41.1390 H   0  0  0  0  0  0  0  0  0  0  0  0
   40.6540   32.5510   39.7780 C   0  0  0  0  0  0  0  0  0  0  0  0
   40.4090   31.3610   39.1330 C   0  0  0  0  0  0  0  0  0  0  0  0
   39.2250   30.7160   39.3060 C   0  0  0  0  0  0  0  0  0  0  0  0
   38.9590   29.7770   38.8350 H   0  0  0  0  0  0  0  0  0  0  0  0
   41.6430   30.6480   38.0680 S   0  0  0  0  0  0  0  0  0  0  0  0
   42.9830   31.8220   38.0070 C   0  0  0  0  0  0  0  0  0  0  0  0
   44.0480   31.5940   37.2070 C   0  0  0  0  0  0  0  0  0  0  0  0
   44.0500   30.6700   36.6120 H   0  0  0  0  0  0  0  0  0  0  0  0
   45.1210   32.4430   37.1020 C   0  0  0  0  0  0  0  0  0  0  0  0
   45.9370   32.1940   36.4440 H   0  0  0  0  0  0  0  0  0  0  0  0
   45.0540   33.5990   37.8950 C   0  0  0  0  0  0  0  0  0  0  0  0
   45.8800   34.2870   37.8370 H   0  0  0  0  0  0  0  0  0  0  0  0
   43.9550   33.8200   38.7130 C   0  0  0  0  0  0  0  0  0  0  0  0
   44.0140   34.7350   39.2690 H   0  0  0  0  0  0  0  0  0  0  0  0
   42.8670   32.9130   38.7880 C   0  0  0  0  0  0  0  0  0  0  0  0
   41.8280   33.3070   39.6250 N   0  0  0  0  0  0  0  0  0  0  0  0
   41.9160   34.2110   40.1760 H   0  0  0  0  0  0  0  0  0  0  0  0
   36.8860   30.6020   40.3630 C   0  0  1  0  0  3  0  0  0  0  0  0
   36.0270   31.0870   41.2020 O   0  0  0  0  0  1  0  0  0  0  0  0
   35.8760   29.6050   38.3930 C   0  0  0  0  0  0  0  0  0  0  0  0
   36.4630   29.4380   39.6670 C   0  0  0  0  0  0  0  0  0  0  0  0
   36.5940   28.1350   40.1000 C   0  0  0  0  0  0  0  0  0  0  0  0
   36.1900   27.0930   39.3510 N   0  0  0  0  0  0  0  0  0  0  0  0
   35.6280   27.2900   38.1300 C   0  0  0  0  0  0  0  0  0  0  0  0
   35.4790   28.5540   37.6630 N   0  0  0  0  0  0  0  0  0  0  0  0
   35.7460   30.6040   38.0010 H   0  0  0  0  0  0  0  0  0  0  0  0
   35.3350   26.3780   37.6060 H   0  0  0  0  0  0  0  0  0  0  0  0
   37.1500   27.9030   41.3530 C   0  0  0  0  0  0  0  0  0  0  0  0
   36.6440   27.8290   42.6330 C   0  0  0  0  0  0  0  0  0  0  0  0
   37.4160   27.5890   43.6800 C   0  0  0  0  0  0  0  0  0  0  0  0
   38.7650   27.4080   43.4560 C   0  0  0  0  0  0  0  0  0  0  0  0
   38.8910   27.6040   41.6090 S   0  0  0  0  0  0  0  0  0  0  0  0
   35.6430   27.8940   42.9840 H   0  0  0  0  0  0  0  0  0  0  0  0
   37.3360   27.4770   44.7420 H   0  0  0  0  0  0  0  0  0  0  0  0
   39.7190   27.2050   43.9300 H   0  0  0  0  0  0  0  0  0  0  0  0
  1 23  1  0  0  0  0
  1  2  1  0  0  0  0
  2  3  1  0  0  0  0
  4  2  2  0  0  0  0
  4  5  1  0  0  0  0
  6  4  1  0  0  0  0
  7  8  1  0  0  0  0
  7  6  2  0  0  0  0
  8  1  2  0  0  0  0
  9  8  1  0  0  0  0
 10  7  1  0  0  0  0
 11 10  1  0  0  0  0
 11 20  1  0  0  0  0
 12 11  2  0  0  0  0
 13 12  1  0  0  0  0
 14 12  1  0  0  0  0
 14 16  2  0  0  0  0
 15 14  1  0  0  0  0
 16 18  1  0  0  0  0
 17 16  1  0  0  0  0
 18 20  2  0  0  0  0
 18 19  1  0  0  0  0
 20 21  1  0  0  0  0
 21  6  1  0  0  0  0
 21 22  1  0  0  0  0
 23 24  1  6  0  0  0
 25 26  1  0  0  0  0
 26 27  2  0  0  0  0
 26 23  1  0  0  0  0
 27 33  1  0  0  0  0
 28 27  1  0  0  0  0
 29 28  2  0  0  0  0
 30 29  1  0  0  0  0
 30 25  2  0  0  0  0
 31 25  1  0  0  0  0
 32 29  1  0  0  0  0
 33 37  1  0  0  0  0
 33 34  2  0  0  0  0
 34 38  1  0  0  0  0
 34 35  1  0  0  0  0
 35 39  1  0  0  0  0
 36 35  2  0  0  0  0
 36 40  1  0  0  0  0
 37 36  1  0  0  0  0
M  END
>  <minimizedAffinity>
-5.86067724

$$$$

 OpenBabel03252503103D

 40 44  0  0  1  0  0  0  0  0999 V2000
   37.3740   30.1820   39.7340 C   0  0  0  0  0  0  0  0  0  0  0  0
   37.1150   30.7230   38.4920 C   0  0  0  0  0  0  0  0  0  0  0  0
   36.1730   30.5030   37.9700 H   0  0  0  0  0  0  0  0  0  0  0  0
   37.9880   31.5430   37.8300 C   0  0  0  0  0  0  0  0  0  0  0  0
   37.7380   31.9350   36.8640 H   0  0  0  0  0  0  0  0  0  0  0  0
   39.2060   31.8450   38.4560 C   0  0  0  0  0  0  0  0  0  0  0  0
   39.4670   31.3100   39.6960 C   0  0  0  0  0  0  0  0  0  0  0  0
   38.5570   30.5010   40.3020 C   0  0  0  0  0  0  0  0  0  0  0  0
   38.6900   30.0430   41.2750 H   0  0  0  0  0  0  0  0  0  0  0  0
   40.9980   31.6750   40.5260 S   0  0  0  0  0  0  0  0  0  0  0  0
   41.9570   32.6530   39.3850 C   0  0  0  0  0  0  0  0  0  0  0  0
   43.2170   33.0250   39.7050 C   0  0  0  0  0  0  0  0  0  0  0  0
   43.6110   32.7050   40.6800 H   0  0  0  0  0  0  0  0  0  0  0  0
   44.0220   33.7780   38.8870 C   0  0  0  0  0  0  0  0  0  0  0  0
   45.0160   34.0390   39.2100 H   0  0  0  0  0  0  0  0  0  0  0  0
   43.4510   34.1560   37.6620 C   0  0  0  0  0  0  0  0  0  0  0  0
   44.0560   34.7490   36.9980 H   0  0  0  0  0  0  0  0  0  0  0  0
   42.1570   33.7690   37.3480 C   0  0  0  0  0  0  0  0  0  0  0  0
   41.8290   34.1150   36.3870 H   0  0  0  0  0  0  0  0  0  0  0  0
   41.3610   32.9890   38.2260 C   0  0  0  0  0  0  0  0  0  0  0  0
   40.1020   32.6530   37.7380 N   0  0  0  0  0  0  0  0  0  0  0  0
   39.7950   33.0190   36.7890 H   0  0  0  0  0  0  0  0  0  0  0  0
   36.2930   29.2870   40.2770 C   0  0  1  0  0  3  0  0  0  0  0  0
   35.0320   29.5780   40.2690 O   0  0  0  0  0  1  0  0  0  0  0  0
   36.6390   27.9090   42.2460 C   0  0  0  0  0  0  0  0  0  0  0  0
   36.6210   28.0240   40.8390 C   0  0  0  0  0  0  0  0  0  0  0  0
   36.9000   26.8680   40.1400 C   0  0  0  0  0  0  0  0  0  0  0  0
   37.1700   25.7070   40.7650 N   0  0  0  0  0  0  0  0  0  0  0  0
   37.1790   25.6330   42.1210 C   0  0  0  0  0  0  0  0  0  0  0  0
   36.9110   26.7450   42.8490 N   0  0  0  0  0  0  0  0  0  0  0  0
   36.4290   28.7830   42.8470 H   0  0  0  0  0  0  0  0  0  0  0  0
   37.4100   24.6460   42.5260 H   0  0  0  0  0  0  0  0  0  0  0  0
   36.9140   26.9170   38.7500 C   0  0  0  0  0  0  0  0  0  0  0  0
   37.8970   27.1050   37.8020 C   0  0  0  0  0  0  0  0  0  0  0  0
   37.6310   27.1070   36.5070 C   0  0  0  0  0  0  0  0  0  0  0  0
   36.3220   26.9100   36.1190 C   0  0  0  0  0  0  0  0  0  0  0  0
   35.4480   26.7140   37.7510 S   0  0  0  0  0  0  0  0  0  0  0  0
   38.9470   27.2210   37.9110 H   0  0  0  0  0  0  0  0  0  0  0  0
   38.1390   27.2190   35.5710 H   0  0  0  0  0  0  0  0  0  0  0  0
   35.6560   26.8310   35.2660 H   0  0  0  0  0  0  0  0  0  0  0  0
  1 23  1  0  0  0  0
  1  8  1  0  0  0  0
  2  1  2  0  0  0  0
  3  2  1  0  0  0  0
  4  6  2  0  0  0  0
  4  2  1  0  0  0  0
  5  4  1  0  0  0  0
  6  7  1  0  0  0  0
  7  8  2  0  0  0  0
  7 10  1  0  0  0  0
  8  9  1  0  0  0  0
 11 12  1  0  0  0  0
 11 10  1  0  0  0  0
 12 13  1  0  0  0  0
 14 15  1  0  0  0  0
 14 12  2  0  0  0  0
 16 14  1  0  0  0  0
 17 16  1  0  0  0  0
 18 16  2  0  0  0  0
 18 20  1  0  0  0  0
 19 18  1  0  0  0  0
 20 11  2  0  0  0  0
 21 20  1  0  0  0  0
 21  6  1  0  0  0  0
 22 21  1  0  0  0  0
 23 24  1  6  0  0  0
 23 26  1  0  0  0  0
 25 31  1  0  0  0  0
 25 30  1  0  0  0  0
 26 25  2  0  0  0  0
 27 28  2  0  0  0  0
 27 26  1  0  0  0  0
 28 29  1  0  0  0  0
 29 32  1  0  0  0  0
 29 30  2  0  0  0  0
 33 27  1  0  0  0  0
 34 38  1  0  0  0  0
 34 33  2  0  0  0  0
 35 34  1  0  0  0  0
 36 35  2  0  0  0  0
 36 37  1  0  0  0  0
 37 33  1  0  0  0  0
 39 35  1  0  0  0  0
 40 36  1  0  0  0  0
M  END
>  <minimizedAffinity>
-5.78348494

$$$$

 OpenBabel03252503103D

 40 44  0  0  1  0  0  0  0  0999 V2000
   39.5970   31.3030   40.6950 C   0  0  0  0  0  0  0  0  0  0  0  0
   39.5440   31.0610   42.0520 C   0  0  0  0  0  0  0  0  0  0  0  0
   39.9340   31.7970   42.7690 H   0  0  0  0  0  0  0  0  0  0  0  0
   39.0240   29.9160   42.5940 C   0  0  0  0  0  0  0  0  0  0  0  0
   39.0090   29.7770   43.6560 H   0  0  0  0  0  0  0  0  0  0  0  0
   38.5220   28.9460   41.7150 C   0  0  0  0  0  0  0  0  0  0  0  0
   38.5710   29.1840   40.3610 C   0  0  0  0  0  0  0  0  0  0  0  0
   39.1000   30.3430   39.8860 C   0  0  0  0  0  0  0  0  0  0  0  0
   39.1730   30.6030   38.8370 H   0  0  0  0  0  0  0  0  0  0  0  0
   37.9370   27.9800   39.2150 S   0  0  0  0  0  0  0  0  0  0  0  0
   37.4450   26.5750   40.1960 C   0  0  0  0  0  0  0  0  0  0  0  0
   36.9890   25.4540   39.5930 C   0  0  0  0  0  0  0  0  0  0  0  0
   36.9350   25.4520   38.4950 H   0  0  0  0  0  0  0  0  0  0  0  0
   36.5880   24.3310   40.2720 C   0  0  0  0  0  0  0  0  0  0  0  0
   36.2330   23.4740   39.7230 H   0  0  0  0  0  0  0  0  0  0  0  0
   36.6780   24.4070   41.6700 C   0  0  0  0  0  0  0  0  0  0  0  0
   36.3700   23.5430   42.2320 H   0  0  0  0  0  0  0  0  0  0  0  0
   37.1460   25.5650   42.2760 C   0  0  0  0  0  0  0  0  0  0  0  0
   37.1710   25.5060   43.3460 H   0  0  0  0  0  0  0  0  0  0  0  0
   37.5510   26.7030   41.5320 C   0  0  0  0  0  0  0  0  0  0  0  0
   38.0340   27.7620   42.2930 N   0  0  0  0  0  0  0  0  0  0  0  0
   38.0360   27.6850   43.3530 H   0  0  0  0  0  0  0  0  0  0  0  0
   40.2290   32.6120   40.3070 C   0  0  1  0  0  3  0  0  0  0  0  0
   39.8360   33.7680   40.7370 O   0  0  0  0  0  1  0  0  0  0  0  0
   41.1200   33.0960   38.1000 C   0  0  0  0  0  0  0  0  0  0  0  0
   41.3380   32.6400   39.4190 C   0  0  0  0  0  0  0  0  0  0  0  0
   42.6360   32.2890   39.7240 C   0  0  0  0  0  0  0  0  0  0  0  0
   43.6290   32.3790   38.8200 N   0  0  0  0  0  0  0  0  0  0  0  0
   43.3820   32.8220   37.5600 C   0  0  0  0  0  0  0  0  0  0  0  0
   42.1210   33.1780   37.2140 N   0  0  0  0  0  0  0  0  0  0  0  0
   40.1220   33.3840   37.8020 H   0  0  0  0  0  0  0  0  0  0  0  0
   44.2560   32.8560   36.9060 H   0  0  0  0  0  0  0  0  0  0  0  0
   42.9150   31.8160   41.0020 C   0  0  0  0  0  0  0  0  0  0  0  0
   43.0810   32.4100   42.2350 C   0  0  0  0  0  0  0  0  0  0  0  0
   43.3470   31.7070   43.3220 C   0  0  0  0  0  0  0  0  0  0  0  0
   43.4550   30.3380   43.1930 C   0  0  0  0  0  0  0  0  0  0  0  0
   43.1470   30.0860   41.3740 S   0  0  0  0  0  0  0  0  0  0  0  0
   42.9890   33.4270   42.5290 H   0  0  0  0  0  0  0  0  0  0  0  0
   43.5230   31.8590   44.3680 H   0  0  0  0  0  0  0  0  0  0  0  0
   43.6400   29.4120   43.7270 H   0  0  0  0  0  0  0  0  0  0  0  0
  1  2  1  0  0  0  0
  2  4  2  0  0  0  0
  2  3  1  0  0  0  0
  4  5  1  0  0  0  0
  6 21  1  0  0  0  0
  6  4  1  0  0  0  0
  7  6  2  0  0  0  0
  8  7  1  0  0  0  0
  8  1  2  0  0  0  0
  9  8  1  0  0  0  0
 10 11  1  0  0  0  0
 10  7  1  0  0  0  0
 11 20  1  0  0  0  0
 12 11  2  0  0  0  0
 12 14  1  0  0  0  0
 13 12  1  0  0  0  0
 14 16  2  0  0  0  0
 15 14  1  0  0  0  0
 16 17  1  0  0  0  0
 16 18  1  0  0  0  0
 18 19  1  0  0  0  0
 20 18  2  0  0  0  0
 20 21  1  0  0  0  0
 21 22  1  0  0  0  0
 23  1  1  0  0  0  0
 23 24  1  1  0  0  0
 25 26  1  0  0  0  0
 26 27  2  0  0  0  0
 26 23  1  0  0  0  0
 27 33  1  0  0  0  0
 28 27  1  0  0  0  0
 29 28  2  0  0  0  0
 30 29  1  0  0  0  0
 30 25  2  0  0  0  0
 31 25  1  0  0  0  0
 32 29  1  0  0  0  0
 33 37  1  0  0  0  0
 33 34  2  0  0  0  0
 34 38  1  0  0  0  0
 34 35  1  0  0  0  0
 35 39  1  0  0  0  0
 36 35  2  0  0  0  0
 36 40  1  0  0  0  0
 37 36  1  0  0  0  0
M  END
>  <minimizedAffinity>
-5.61382675

$$$$

 OpenBabel03252503103D

 40 44  0  0  1  0  0  0  0  0999 V2000
   36.4080   30.2830   38.9250 C   0  0  0  0  0  0  0  0  0  0  0  0
   37.1670   30.6970   37.8500 C   0  0  0  0  0  0  0  0  0  0  0  0
   37.8790   31.5280   37.9540 H   0  0  0  0  0  0  0  0  0  0  0  0
   37.0870   30.1290   36.6070 C   0  0  0  0  0  0  0  0  0  0  0  0
   37.6980   30.4920   35.8050 H   0  0  0  0  0  0  0  0  0  0  0  0
   36.1850   29.0710   36.4280 C   0  0  0  0  0  0  0  0  0  0  0  0
   35.4280   28.6530   37.4970 C   0  0  0  0  0  0  0  0  0  0  0  0
   35.5540   29.2590   38.7080 C   0  0  0  0  0  0  0  0  0  0  0  0
   34.9960   28.9870   39.5950 H   0  0  0  0  0  0  0  0  0  0  0  0
   34.2780   27.3080   37.3110 S   0  0  0  0  0  0  0  0  0  0  0  0
   34.3150   26.8620   35.5850 C   0  0  0  0  0  0  0  0  0  0  0  0
   33.4800   25.9090   35.1140 C   0  0  0  0  0  0  0  0  0  0  0  0
   32.7950   25.4320   35.8300 H   0  0  0  0  0  0  0  0  0  0  0  0
   33.4440   25.5040   33.8030 C   0  0  0  0  0  0  0  0  0  0  0  0
   32.7530   24.7360   33.5000 H   0  0  0  0  0  0  0  0  0  0  0  0
   34.3500   26.1510   32.9490 C   0  0  0  0  0  0  0  0  0  0  0  0
   34.3480   25.8570   31.9140 H   0  0  0  0  0  0  0  0  0  0  0  0
   35.2030   27.1260   33.4460 C   0  0  0  0  0  0  0  0  0  0  0  0
   35.8470   27.5500   32.7010 H   0  0  0  0  0  0  0  0  0  0  0  0
   35.2030   27.5130   34.8110 C   0  0  0  0  0  0  0  0  0  0  0  0
   36.0910   28.5340   35.1330 N   0  0  0  0  0  0  0  0  0  0  0  0
   36.7290   28.9280   34.3800 H   0  0  0  0  0  0  0  0  0  0  0  0
   36.6300   31.0560   40.1970 C   0  0  1  0  0  3  0  0  0  0  0  0
   35.8700   30.9760   41.2410 O   0  0  0  0  0  1  0  0  0  0  0  0
   37.5820   33.2620   39.8470 C   0  0  0  0  0  0  0  0  0  0  0  0
   37.7360   31.9390   40.3170 C   0  0  0  0  0  0  0  0  0  0  0  0
   38.9600   31.6430   40.8820 C   0  0  0  0  0  0  0  0  0  0  0  0
   39.9390   32.5610   40.9790 N   0  0  0  0  0  0  0  0  0  0  0  0
   39.7550   33.8250   40.5160 C   0  0  0  0  0  0  0  0  0  0  0  0
   38.5690   34.1610   39.9520 N   0  0  0  0  0  0  0  0  0  0  0  0
   36.6450   33.5530   39.3940 H   0  0  0  0  0  0  0  0  0  0  0  0
   40.6120   34.4900   40.6430 H   0  0  0  0  0  0  0  0  0  0  0  0
   39.1820   30.3520   41.3490 C   0  0  0  0  0  0  0  0  0  0  0  0
   39.0050   29.7230   42.5630 C   0  0  0  0  0  0  0  0  0  0  0  0
   39.3060   28.4480   42.7420 C   0  0  0  0  0  0  0  0  0  0  0  0
   39.8090   27.7480   41.6640 C   0  0  0  0  0  0  0  0  0  0  0  0
   39.8350   29.0430   40.3270 S   0  0  0  0  0  0  0  0  0  0  0  0
   38.5930   30.0830   43.4730 H   0  0  0  0  0  0  0  0  0  0  0  0
   39.2880   27.7080   43.5150 H   0  0  0  0  0  0  0  0  0  0  0  0
   40.1700   26.7820   41.3300 H   0  0  0  0  0  0  0  0  0  0  0  0
  1 23  1  0  0  0  0
  2  3  1  0  0  0  0
  2  1  2  0  0  0  0
  4  2  1  0  0  0  0
  5  4  1  0  0  0  0
  6  4  2  0  0  0  0
  6  7  1  0  0  0  0
  7  8  2  0  0  0  0
  8  1  1  0  0  0  0
  8  9  1  0  0  0  0
 10  7  1  0  0  0  0
 11 10  1  0  0  0  0
 12 11  1  0  0  0  0
 12 13  1  0  0  0  0
 14 12  2  0  0  0  0
 15 14  1  0  0  0  0
 16 18  2  0  0  0  0
 16 14  1  0  0  0  0
 17 16  1  0  0  0  0
 18 20  1  0  0  0  0
 19 18  1  0  0  0  0
 20 21  1  0  0  0  0
 20 11  2  0  0  0  0
 21  6  1  0  0  0  0
 22 21  1  0  0  0  0
 23 26  1  0  0  0  0
 23 24  1  1  0  0  0
 25 30  2  0  0  0  0
 25 26  1  0  0  0  0
 26 27  2  0  0  0  0
 27 28  1  0  0  0  0
 27 33  1  0  0  0  0
 29 32  1  0  0  0  0
 29 28  2  0  0  0  0
 30 29  1  0  0  0  0
 31 25  1  0  0  0  0
 33 34  2  0  0  0  0
 34 35  1  0  0  0  0
 34 38  1  0  0  0  0
 35 39  1  0  0  0  0
 36 35  2  0  0  0  0
 37 33  1  0  0  0  0
 37 36  1  0  0  0  0
 40 36  1  0  0  0  0
M  END
>  <minimizedAffinity>
-5.60940933

$$$$

 OpenBabel03252503103D

 40 44  0  0  1  0  0  0  0  0999 V2000
   36.5500   28.5380   38.9100 C   0  0  0  0  0  0  0  0  0  0  0  0
   35.6300   28.7610   39.9140 C   0  0  0  0  0  0  0  0  0  0  0  0
   35.9360   28.7390   40.9690 H   0  0  0  0  0  0  0  0  0  0  0  0
   34.3040   29.0100   39.6800 C   0  0  0  0  0  0  0  0  0  0  0  0
   33.6310   29.1740   40.4970 H   0  0  0  0  0  0  0  0  0  0  0  0
   33.8690   29.0380   38.3470 C   0  0  0  0  0  0  0  0  0  0  0  0
   34.7830   28.8190   37.3430 C   0  0  0  0  0  0  0  0  0  0  0  0
   36.0880   28.5770   37.6420 C   0  0  0  0  0  0  0  0  0  0  0  0
   36.8650   28.3960   36.9090 H   0  0  0  0  0  0  0  0  0  0  0  0
   34.2710   28.8550   35.6400 S   0  0  0  0  0  0  0  0  0  0  0  0
   32.5030   29.0810   35.6600 C   0  0  0  0  0  0  0  0  0  0  0  0
   31.8050   29.0710   34.5020 C   0  0  0  0  0  0  0  0  0  0  0  0
   32.3680   28.9240   33.5700 H   0  0  0  0  0  0  0  0  0  0  0  0
   30.4450   29.2400   34.4280 C   0  0  0  0  0  0  0  0  0  0  0  0
   29.9570   29.2230   33.4680 H   0  0  0  0  0  0  0  0  0  0  0  0
   29.7940   29.4290   35.6570 C   0  0  0  0  0  0  0  0  0  0  0  0
   28.7270   29.5650   35.6340 H   0  0  0  0  0  0  0  0  0  0  0  0
   30.5220   29.4380   36.8380 C   0  0  0  0  0  0  0  0  0  0  0  0
   29.9180   29.5890   37.7110 H   0  0  0  0  0  0  0  0  0  0  0  0
   31.9290   29.2590   36.8660 C   0  0  0  0  0  0  0  0  0  0  0  0
   32.4970   29.2530   38.1350 N   0  0  0  0  0  0  0  0  0  0  0  0
   31.8800   29.4180   38.9840 H   0  0  0  0  0  0  0  0  0  0  0  0
   37.9510   28.2590   39.3820 C   0  0  1  0  0  3  0  0  0  0  0  0
   38.7880   27.4870   38.7670 O   0  0  0  0  0  1  0  0  0  0  0  0
   38.8220   30.2230   40.5150 C   0  0  0  0  0  0  0  0  0  0  0  0
   38.4430   28.8630   40.5700 C   0  0  0  0  0  0  0  0  0  0  0  0
   38.5650   28.2570   41.8030 C   0  0  0  0  0  0  0  0  0  0  0  0
   39.0150   28.9240   42.8820 N   0  0  0  0  0  0  0  0  0  0  0  0
   39.3710   30.2320   42.7920 C   0  0  0  0  0  0  0  0  0  0  0  0
   39.2680   30.8690   41.6000 N   0  0  0  0  0  0  0  0  0  0  0  0
   38.7490   30.7510   39.5750 H   0  0  0  0  0  0  0  0  0  0  0  0
   39.7220   30.6780   43.7250 H   0  0  0  0  0  0  0  0  0  0  0  0
   38.2240   26.9140   41.9220 C   0  0  0  0  0  0  0  0  0  0  0  0
   37.0520   26.2370   42.1810 C   0  0  0  0  0  0  0  0  0  0  0  0
   37.0030   24.9170   42.2400 C   0  0  0  0  0  0  0  0  0  0  0  0
   38.1750   24.2200   42.0280 C   0  0  0  0  0  0  0  0  0  0  0  0
   39.4020   25.5870   41.7300 S   0  0  0  0  0  0  0  0  0  0  0  0
   36.0620   26.5980   42.3200 H   0  0  0  0  0  0  0  0  0  0  0  0
   36.2920   24.1350   42.4120 H   0  0  0  0  0  0  0  0  0  0  0  0
   38.6160   23.2310   41.9740 H   0  0  0  0  0  0  0  0  0  0  0  0
  1 23  1  0  0  0  0
  1  2  1  0  0  0  0
  2  3  1  0  0  0  0
  4  2  2  0  0  0  0
  4  5  1  0  0  0  0
  6  4  1  0  0  0  0
  7  8  1  0  0  0  0
  7  6  2  0  0  0  0
  8  1  2  0  0  0  0
  9  8  1  0  0  0  0
 10 11  1  0  0  0  0
 10  7  1  0  0  0  0
 11 20  1  0  0  0  0
 12 11  2  0  0  0  0
 13 12  1  0  0  0  0
 14 12  1  0  0  0  0
 14 16  2  0  0  0  0
 15 14  1  0  0  0  0
 16 18  1  0  0  0  0
 17 16  1  0  0  0  0
 18 20  2  0  0  0  0
 18 19  1  0  0  0  0
 20 21  1  0  0  0  0
 21  6  1  0  0  0  0
 21 22  1  0  0  0  0
 23 24  1  6  0  0  0
 23 26  1  0  0  0  0
 25 26  2  0  0  0  0
 25 30  1  0  0  0  0
 26 27  1  0  0  0  0
 27 33  1  0  0  0  0
 27 28  2  0  0  0  0
 29 28  1  0  0  0  0
 29 32  1  0  0  0  0
 30 29  2  0  0  0  0
 31 25  1  0  0  0  0
 33 34  2  0  0  0  0
 34 35  1  0  0  0  0
 34 38  1  0  0  0  0
 35 39  1  0  0  0  0
 36 35  2  0  0  0  0
 37 33  1  0  0  0  0
 37 36  1  0  0  0  0
 40 36  1  0  0  0  0
M  END
>  <minimizedAffinity>
-5.58114719

$$$$

 OpenBabel03252503103D

 40 44  0  0  1  0  0  0  0  0999 V2000
   36.6080   30.3150   39.3180 C   0  0  0  0  0  0  0  0  0  0  0  0
   35.5440   29.8550   40.0660 C   0  0  0  0  0  0  0  0  0  0  0  0
   35.4790   30.0730   41.1410 H   0  0  0  0  0  0  0  0  0  0  0  0
   34.5240   29.1060   39.5430 C   0  0  0  0  0  0  0  0  0  0  0  0
   33.7220   28.7710   40.1700 H   0  0  0  0  0  0  0  0  0  0  0  0
   34.5710   28.7980   38.1770 C   0  0  0  0  0  0  0  0  0  0  0  0
   35.6290   29.2570   37.4270 C   0  0  0  0  0  0  0  0  0  0  0  0
   36.6120   29.9970   38.0050 C   0  0  0  0  0  0  0  0  0  0  0  0
   37.4740   30.3940   37.4820 H   0  0  0  0  0  0  0  0  0  0  0  0
   35.7200   28.8930   35.6870 S   0  0  0  0  0  0  0  0  0  0  0  0
   34.3370   27.8250   35.3330 C   0  0  0  0  0  0  0  0  0  0  0  0
   34.1790   27.3100   34.0930 C   0  0  0  0  0  0  0  0  0  0  0  0
   34.9250   27.5780   33.3310 H   0  0  0  0  0  0  0  0  0  0  0  0
   33.1440   26.4830   33.7350 C   0  0  0  0  0  0  0  0  0  0  0  0
   33.0820   26.1120   32.7250 H   0  0  0  0  0  0  0  0  0  0  0  0
   32.2270   26.1900   34.7560 C   0  0  0  0  0  0  0  0  0  0  0  0
   31.4030   25.5440   34.5080 H   0  0  0  0  0  0  0  0  0  0  0  0
   32.4000   26.7260   36.0240 C   0  0  0  0  0  0  0  0  0  0  0  0
   31.6400   26.4310   36.7190 H   0  0  0  0  0  0  0  0  0  0  0  0
   33.4880   27.5770   36.3480 C   0  0  0  0  0  0  0  0  0  0  0  0
   33.5350   27.9930   37.6750 N   0  0  0  0  0  0  0  0  0  0  0  0
   32.7620   27.6990   38.3420 H   0  0  0  0  0  0  0  0  0  0  0  0
   37.6350   31.1000   40.0880 C   0  0  1  0  0  3  0  0  0  0  0  0
   37.3740   32.1620   40.7800 O   0  0  0  0  0  1  0  0  0  0  0  0
   39.8900   31.3380   39.2200 C   0  0  0  0  0  0  0  0  0  0  0  0
   38.9950   30.6880   40.0980 C   0  0  0  0  0  0  0  0  0  0  0  0
   39.5490   29.7220   40.9120 C   0  0  0  0  0  0  0  0  0  0  0  0
   40.8600   29.4230   40.8690 N   0  0  0  0  0  0  0  0  0  0  0  0
   41.6930   30.0680   40.0110 C   0  0  0  0  0  0  0  0  0  0  0  0
   41.1920   31.0250   39.1920 N   0  0  0  0  0  0  0  0  0  0  0  0
   39.5140   32.1040   38.5570 H   0  0  0  0  0  0  0  0  0  0  0  0
   42.7360   29.7500   40.0570 H   0  0  0  0  0  0  0  0  0  0  0  0
   38.7180   29.0330   41.7880 C   0  0  0  0  0  0  0  0  0  0  0  0
   38.2040   29.2990   43.0400 C   0  0  0  0  0  0  0  0  0  0  0  0
   37.4140   28.4470   43.6690 C   0  0  0  0  0  0  0  0  0  0  0  0
   37.1070   27.2630   43.0310 C   0  0  0  0  0  0  0  0  0  0  0  0
   38.0350   27.4250   41.4250 S   0  0  0  0  0  0  0  0  0  0  0  0
   38.2920   30.1630   43.6520 H   0  0  0  0  0  0  0  0  0  0  0  0
   36.8820   28.3600   44.5950 H   0  0  0  0  0  0  0  0  0  0  0  0
   36.5570   26.3320   43.1150 H   0  0  0  0  0  0  0  0  0  0  0  0
  1  2  1  0  0  0  0
  1 23  1  0  0  0  0
  2  3  1  0  0  0  0
  4  2  2  0  0  0  0
  4  5  1  0  0  0  0
  6  4  1  0  0  0  0
  7  8  1  0  0  0  0
  7  6  2  0  0  0  0
  8  1  2  0  0  0  0
  9  8  1  0  0  0  0
 10  7  1  0  0  0  0
 11 10  1  0  0  0  0
 11 20  1  0  0  0  0
 12 11  2  0  0  0  0
 13 12  1  0  0  0  0
 14 12  1  0  0  0  0
 14 16  2  0  0  0  0
 15 14  1  0  0  0  0
 16 18  1  0  0  0  0
 17 16  1  0  0  0  0
 18 20  2  0  0  0  0
 18 19  1  0  0  0  0
 20 21  1  0  0  0  0
 21  6  1  0  0  0  0
 21 22  1  0  0  0  0
 23 26  1  0  0  0  0
 23 24  1  1  0  0  0
 25 26  1  0  0  0  0
 26 27  2  0  0  0  0
 27 33  1  0  0  0  0
 28 27  1  0  0  0  0
 29 32  1  0  0  0  0
 29 28  2  0  0  0  0
 30 25  2  0  0  0  0
 30 29  1  0  0  0  0
 31 25  1  0  0  0  0
 33 34  2  0  0  0  0
 34 38  1  0  0  0  0
 34 35  1  0  0  0  0
 35 39  1  0  0  0  0
 36 40  1  0  0  0  0
 36 35  2  0  0  0  0
 37 33  1  0  0  0  0
 37 36  1  0  0  0  0
M  END
>  <minimizedAffinity>
-5.57879543

$$$$

 OpenBabel03252503103D

 40 44  0  0  1  0  0  0  0  0999 V2000
   34.4550   28.3590   37.5360 C   0  0  0  0  0  0  0  0  0  0  0  0
   33.9830   29.2110   38.5130 C   0  0  0  0  0  0  0  0  0  0  0  0
   33.1540   29.9010   38.3020 H   0  0  0  0  0  0  0  0  0  0  0  0
   34.5000   29.2660   39.7800 C   0  0  0  0  0  0  0  0  0  0  0  0
   34.0970   29.9490   40.5000 H   0  0  0  0  0  0  0  0  0  0  0  0
   35.5630   28.4080   40.0900 C   0  0  0  0  0  0  0  0  0  0  0  0
   36.0360   27.5550   39.1200 C   0  0  0  0  0  0  0  0  0  0  0  0
   35.4790   27.5480   37.8800 C   0  0  0  0  0  0  0  0  0  0  0  0
   35.7940   26.9070   37.0650 H   0  0  0  0  0  0  0  0  0  0  0  0
   37.3800   26.4450   39.4780 S   0  0  0  0  0  0  0  0  0  0  0  0
   37.9060   26.8260   41.1380 C   0  0  0  0  0  0  0  0  0  0  0  0
   38.9750   26.1930   41.6720 C   0  0  0  0  0  0  0  0  0  0  0  0
   39.4890   25.4480   41.0490 H   0  0  0  0  0  0  0  0  0  0  0  0
   39.4450   26.4250   42.9410 C   0  0  0  0  0  0  0  0  0  0  0  0
   40.3020   25.8800   43.3000 H   0  0  0  0  0  0  0  0  0  0  0  0
   38.7360   27.3840   43.6800 C   0  0  0  0  0  0  0  0  0  0  0  0
   39.0780   27.5880   44.6790 H   0  0  0  0  0  0  0  0  0  0  0  0
   37.6400   28.0250   43.1200 C   0  0  0  0  0  0  0  0  0  0  0  0
   37.1800   28.7360   43.7770 H   0  0  0  0  0  0  0  0  0  0  0  0
   37.1900   27.7530   41.8020 C   0  0  0  0  0  0  0  0  0  0  0  0
   36.1040   28.5140   41.3820 N   0  0  0  0  0  0  0  0  0  0  0  0
   35.6570   29.2030   42.0570 H   0  0  0  0  0  0  0  0  0  0  0  0
   33.7640   28.4730   36.2040 C   0  0  1  0  0  3  0  0  0  0  0  0
   34.1340   29.2730   35.2560 O   0  0  0  0  0  1  0  0  0  0  0  0
   32.8310   26.2800   35.7410 C   0  0  0  0  0  0  0  0  0  0  0  0
   32.6310   27.6680   35.9110 C   0  0  0  0  0  0  0  0  0  0  0  0
   31.3270   28.1030   35.8010 C   0  0  0  0  0  0  0  0  0  0  0  0
   30.3130   27.2550   35.5500 N   0  0  0  0  0  0  0  0  0  0  0  0
   30.5420   25.9250   35.3920 C   0  0  0  0  0  0  0  0  0  0  0  0
   31.8080   25.4520   35.4910 N   0  0  0  0  0  0  0  0  0  0  0  0
   33.8320   25.8800   35.8150 H   0  0  0  0  0  0  0  0  0  0  0  0
   29.6510   25.3260   35.1920 H   0  0  0  0  0  0  0  0  0  0  0  0
   31.0650   29.4610   35.9420 C   0  0  0  0  0  0  0  0  0  0  0  0
   30.8140   30.2890   37.0160 C   0  0  0  0  0  0  0  0  0  0  0  0
   30.5900   31.5830   36.8660 C   0  0  0  0  0  0  0  0  0  0  0  0
   30.6170   32.0970   35.5870 C   0  0  0  0  0  0  0  0  0  0  0  0
   30.9900   30.5890   34.5600 S   0  0  0  0  0  0  0  0  0  0  0  0
   30.8020   30.0820   38.0580 H   0  0  0  0  0  0  0  0  0  0  0  0
   30.3770   32.4470   37.4630 H   0  0  0  0  0  0  0  0  0  0  0  0
   30.5080   33.0000   34.9950 H   0  0  0  0  0  0  0  0  0  0  0  0
  1  8  2  0  0  0  0
  1  2  1  0  0  0  0
  2  4  2  0  0  0  0
  3  2  1  0  0  0  0
  4  6  1  0  0  0  0
  4  5  1  0  0  0  0
  6 21  1  0  0  0  0
  7 10  1  0  0  0  0
  7  6  2  0  0  0  0
  8  7  1  0  0  0  0
  9  8  1  0  0  0  0
 10 11  1  0  0  0  0
 11 12  2  0  0  0  0
 11 20  1  0  0  0  0
 12 14  1  0  0  0  0
 13 12  1  0  0  0  0
 14 15  1  0  0  0  0
 14 16  2  0  0  0  0
 16 17  1  0  0  0  0
 18 16  1  0  0  0  0
 18 19  1  0  0  0  0
 20 18  2  0  0  0  0
 21 20  1  0  0  0  0
 21 22  1  0  0  0  0
 23 24  1  6  0  0  0
 23  1  1  0  0  0  0
 25 31  1  0  0  0  0
 25 26  1  0  0  0  0
 26 23  1  0  0  0  0
 27 26  2  0  0  0  0
 27 33  1  0  0  0  0
 28 27  1  0  0  0  0
 29 30  1  0  0  0  0
 29 28  2  0  0  0  0
 30 25  2  0  0  0  0
 32 29  1  0  0  0  0
 33 34  2  0  0  0  0
 34 38  1  0  0  0  0
 35 34  1  0  0  0  0
 35 39  1  0  0  0  0
 36 35  2  0  0  0  0
 37 36  1  0  0  0  0
 37 33  1  0  0  0  0
 40 36  1  0  0  0  0
M  END
>  <minimizedAffinity>
-5.56912947

$$$$

 OpenBabel03252503103D

 40 44  0  0  1  0  0  0  0  0999 V2000
   41.2290   30.5260   41.4880 C   0  0  0  0  0  0  0  0  0  0  0  0
   41.7840   29.7990   42.5200 C   0  0  0  0  0  0  0  0  0  0  0  0
   42.6510   30.1850   43.0740 H   0  0  0  0  0  0  0  0  0  0  0  0
   41.3180   28.5740   42.9170 C   0  0  0  0  0  0  0  0  0  0  0  0
   41.7880   28.0500   43.7240 H   0  0  0  0  0  0  0  0  0  0  0  0
   40.2170   28.0410   42.2320 C   0  0  0  0  0  0  0  0  0  0  0  0
   39.6590   28.7630   41.2030 C   0  0  0  0  0  0  0  0  0  0  0  0
   40.1690   29.9750   40.8580 C   0  0  0  0  0  0  0  0  0  0  0  0
   39.7840   30.6020   40.0620 H   0  0  0  0  0  0  0  0  0  0  0  0
   38.2560   28.1210   40.3150 S   0  0  0  0  0  0  0  0  0  0  0  0
   37.9600   26.4910   40.9710 C   0  0  0  0  0  0  0  0  0  0  0  0
   36.9930   25.7110   40.4370 C   0  0  0  0  0  0  0  0  0  0  0  0
   36.4110   26.1230   39.6000 H   0  0  0  0  0  0  0  0  0  0  0  0
   36.6980   24.4470   40.8820 C   0  0  0  0  0  0  0  0  0  0  0  0
   35.9110   23.8850   40.4080 H   0  0  0  0  0  0  0  0  0  0  0  0
   37.4770   23.9900   41.9560 C   0  0  0  0  0  0  0  0  0  0  0  0
   37.2700   23.0020   42.3290 H   0  0  0  0  0  0  0  0  0  0  0  0
   38.4640   24.8010   42.4960 C   0  0  0  0  0  0  0  0  0  0  0  0
   38.9930   24.3450   43.3090 H   0  0  0  0  0  0  0  0  0  0  0  0
   38.7340   26.1030   42.0020 C   0  0  0  0  0  0  0  0  0  0  0  0
   39.7850   26.7640   42.6290 N   0  0  0  0  0  0  0  0  0  0  0  0
   40.2850   26.2970   43.4420 H   0  0  0  0  0  0  0  0  0  0  0  0
   41.9060   31.8370   41.1960 C   0  0  1  0  0  3  0  0  0  0  0  0
   42.2080   32.7190   42.0950 O   0  0  0  0  0  1  0  0  0  0  0  0
   43.5810   31.8770   39.4390 C   0  0  0  0  0  0  0  0  0  0  0  0
   42.2690   32.1790   39.8660 C   0  0  0  0  0  0  0  0  0  0  0  0
   41.4490   32.7590   38.9200 C   0  0  0  0  0  0  0  0  0  0  0  0
   41.8770   33.0160   37.6700 N   0  0  0  0  0  0  0  0  0  0  0  0
   43.1460   32.7130   37.2940 C   0  0  0  0  0  0  0  0  0  0  0  0
   43.9880   32.1430   38.1900 N   0  0  0  0  0  0  0  0  0  0  0  0
   44.2690   31.4230   40.1360 H   0  0  0  0  0  0  0  0  0  0  0  0
   43.3910   32.9640   36.2590 H   0  0  0  0  0  0  0  0  0  0  0  0
   40.1490   33.0950   39.2820 C   0  0  0  0  0  0  0  0  0  0  0  0
   39.5950   34.0570   40.0990 C   0  0  0  0  0  0  0  0  0  0  0  0
   38.2880   34.1610   40.2730 C   0  0  0  0  0  0  0  0  0  0  0  0
   37.4770   33.2680   39.6040 C   0  0  0  0  0  0  0  0  0  0  0  0
   38.7110   32.2290   38.6760 S   0  0  0  0  0  0  0  0  0  0  0  0
   40.0520   34.8450   40.6460 H   0  0  0  0  0  0  0  0  0  0  0  0
   37.5840   34.7630   40.8100 H   0  0  0  0  0  0  0  0  0  0  0  0
   36.4500   32.9680   39.4300 H   0  0  0  0  0  0  0  0  0  0  0  0
  1  2  1  0  0  0  0
  2  4  2  0  0  0  0
  2  3  1  0  0  0  0
  4  5  1  0  0  0  0
  6 21  1  0  0  0  0
  6  4  1  0  0  0  0
  7  6  2  0  0  0  0
  8  7  1  0  0  0  0
  8  1  2  0  0  0  0
  9  8  1  0  0  0  0
 10 11  1  0  0  0  0
 10  7  1  0  0  0  0
 11 20  1  0  0  0  0
 12 14  1  0  0  0  0
 12 11  2  0  0  0  0
 13 12  1  0  0  0  0
 14 16  2  0  0  0  0
 15 14  1  0  0  0  0
 16 17  1  0  0  0  0
 16 18  1  0  0  0  0
 18 19  1  0  0  0  0
 20 18  2  0  0  0  0
 20 21  1  0  0  0  0
 21 22  1  0  0  0  0
 23  1  1  0  0  0  0
 23 24  1  1  0  0  0
 25 26  1  0  0  0  0
 25 31  1  0  0  0  0
 26 23  1  0  0  0  0
 27 33  1  0  0  0  0
 27 26  2  0  0  0  0
 28 27  1  0  0  0  0
 29 28  2  0  0  0  0
 29 30  1  0  0  0  0
 30 25  2  0  0  0  0
 32 29  1  0  0  0  0
 33 34  2  0  0  0  0
 34 35  1  0  0  0  0
 34 38  1  0  0  0  0
 35 39  1  0  0  0  0
 36 35  2  0  0  0  0
 37 33  1  0  0  0  0
 37 36  1  0  0  0  0
 40 36  1  0  0  0  0
M  END
>  <minimizedAffinity>
-5.50007296

$$$$
