
 OpenBabel03252502433D

 44 48  0  0  1  0  0  0  0  0999 V2000
   48.7380   34.9350   41.4950 C   0  0  1  0  0  0  0  0  0  0  0  0
   49.5980   34.7620   42.6460 C   0  0  0  0  0  0  0  0  0  0  0  0
   49.6100   33.8620   41.4150 C   0  0  1  0  0  0  0  0  0  0  0  0
   48.9090   35.9230   40.9750 H   0  0  0  0  0  0  0  0  0  0  0  0
   49.3110   34.3460   43.6080 H   0  0  0  0  0  0  0  0  0  0  0  0
   50.5590   35.3510   42.7420 H   0  0  0  0  0  0  0  0  0  0  0  0
   50.3440   34.1030   40.5680 H   0  0  0  0  0  0  0  0  0  0  0  0
   50.0940   32.5680   41.7240 C   0  0  0  0  0  0  0  0  0  0  0  0
   49.4390   31.6630   42.5770 C   0  0  0  0  0  0  0  0  0  0  0  0
   48.5160   31.9820   43.0430 H   0  0  0  0  0  0  0  0  0  0  0  0
   49.9900   30.4210   42.7820 C   0  0  0  0  0  0  0  0  0  0  0  0
   49.4000   29.7930   43.4640 H   0  0  0  0  0  0  0  0  0  0  0  0
   51.1680   30.0620   42.1640 C   0  0  0  0  0  0  0  0  0  0  0  0
   51.8500   30.8820   41.3350 C   0  0  0  0  0  0  0  0  0  0  0  0
   51.2880   32.0970   41.1490 C   0  0  0  0  0  0  0  0  0  0  0  0
   51.8060   32.7960   40.4830 H   0  0  0  0  0  0  0  0  0  0  0  0
   53.3510   30.3490   40.5820 S   0  0  0  0  0  0  0  0  0  0  0  0
   53.6230   28.6810   41.1660 C   0  0  0  0  0  0  0  0  0  0  0  0
   54.7570   28.1020   40.6770 C   0  0  0  0  0  0  0  0  0  0  0  0
   55.4510   28.5620   40.0040 H   0  0  0  0  0  0  0  0  0  0  0  0
   55.0560   26.8020   41.0750 C   0  0  0  0  0  0  0  0  0  0  0  0
   55.9250   26.2590   40.7450 H   0  0  0  0  0  0  0  0  0  0  0  0
   54.1990   26.1570   41.9410 C   0  0  0  0  0  0  0  0  0  0  0  0
   54.4160   25.1470   42.2600 H   0  0  0  0  0  0  0  0  0  0  0  0
   53.0930   26.8250   42.3700 C   0  0  0  0  0  0  0  0  0  0  0  0
   52.4450   26.2610   43.0610 H   0  0  0  0  0  0  0  0  0  0  0  0
   52.7180   28.1110   42.0310 C   0  0  0  0  0  0  0  0  0  0  0  0
   51.5610   28.7510   42.5060 N   0  0  0  0  0  0  0  0  0  0  0  0
   51.0180   28.1120   43.1610 H   0  0  0  0  0  0  0  0  0  0  0  0
   47.2490   34.7610   41.6340 C   0  0  0  0  0  0  0  0  0  0  0  0
   46.8730   35.7850   41.9260 H   0  0  0  0  0  0  0  0  0  0  0  0
   46.7580   34.4550   40.7100 H   0  0  0  0  0  0  0  0  0  0  0  0
   47.1160   33.7900   42.7630 C   0  0  0  0  0  0  0  0  0  0  0  0
   48.0010   33.8890   43.4160 H   0  0  0  0  0  0  0  0  0  0  0  0
   46.8630   32.7720   42.4610 H   0  0  0  0  0  0  0  0  0  0  0  0
   44.6030   36.0130   44.4480 C   0  0  0  0  0  0  0  0  0  0  0  0
   45.4690   35.4800   43.4610 C   0  0  0  0  0  0  0  0  0  0  0  0
   46.1650   34.3460   43.7690 C   0  0  0  0  0  0  0  0  0  0  0  0
   46.0030   33.7720   44.9960 N   0  0  0  0  0  0  0  0  0  0  0  0
   45.1910   34.2820   45.9050 C   0  0  0  0  0  0  0  0  0  0  0  0
   44.4930   35.3910   45.6460 N   0  0  0  0  0  0  0  0  0  0  0  0
   44.0090   36.9040   44.3060 H   0  0  0  0  0  0  0  0  0  0  0  0
   45.4380   36.0740   42.5650 H   0  0  0  0  0  0  0  0  0  0  0  0
   45.0370   33.8550   46.8900 H   0  0  0  0  0  0  0  0  0  0  0  0
  1  4  1  6  0  0  0
  1 30  1  0  0  0  0
  1  2  1  0  0  0  0
  2  6  1  0  0  0  0
  2  5  1  0  0  0  0
  3  7  1  6  0  0  0
  3  1  1  0  0  0  0
  3  8  1  0  0  0  0
  3  2  1  0  0  0  0
  8  9  1  0  0  0  0
  9 11  2  0  0  0  0
  9 10  1  0  0  0  0
 11 12  1  0  0  0  0
 13 28  1  0  0  0  0
 13 11  1  0  0  0  0
 14 13  2  0  0  0  0
 15 14  1  0  0  0  0
 15  8  2  0  0  0  0
 16 15  1  0  0  0  0
 17 18  1  0  0  0  0
 17 14  1  0  0  0  0
 18 27  1  0  0  0  0
 19 21  1  0  0  0  0
 19 18  2  0  0  0  0
 20 19  1  0  0  0  0
 21 23  2  0  0  0  0
 22 21  1  0  0  0  0
 23 24  1  0  0  0  0
 23 25  1  0  0  0  0
 25 26  1  0  0  0  0
 27 25  2  0  0  0  0
 27 28  1  0  0  0  0
 28 29  1  0  0  0  0
 30 31  1  0  0  0  0
 30 33  1  0  0  0  0
 32 30  1  0  0  0  0
 33 34  1  0  0  0  0
 33 38  1  0  0  0  0
 35 33  1  0  0  0  0
 36 41  1  0  0  0  0
 37 38  1  0  0  0  0
 37 36  2  0  0  0  0
 38 39  2  0  0  0  0
 39 40  1  0  0  0  0
 40 44  1  0  0  0  0
 41 40  2  0  0  0  0
 42 36  1  0  0  0  0
 43 37  1  0  0  0  0
M  END
>  <minimizedAffinity>
-5.03296852

>  <minimizedRMSD>
2.01642561

$$$$
