
 OpenBabel03252502433D

 44 48  0  0  1  0  0  0  0  0999 V2000
   48.4210   35.1320   41.4660 C   0  0  1  0  0  0  0  0  0  0  0  0
   49.2650   34.8120   42.5970 C   0  0  0  0  0  0  0  0  0  0  0  0
   49.3270   34.1080   41.2450 C   0  0  1  0  0  0  0  0  0  0  0  0
   48.5720   36.1920   41.1040 H   0  0  0  0  0  0  0  0  0  0  0  0
   48.9730   34.2480   43.4790 H   0  0  0  0  0  0  0  0  0  0  0  0
   50.2060   35.4060   42.8010 H   0  0  0  0  0  0  0  0  0  0  0  0
   50.0670   34.4940   40.4610 H   0  0  0  0  0  0  0  0  0  0  0  0
   49.8440   32.7960   41.3680 C   0  0  0  0  0  0  0  0  0  0  0  0
   50.9360   32.4490   42.1830 C   0  0  0  0  0  0  0  0  0  0  0  0
   51.4270   33.2410   42.7350 H   0  0  0  0  0  0  0  0  0  0  0  0
   51.3340   31.1370   42.2450 C   0  0  0  0  0  0  0  0  0  0  0  0
   52.1940   30.9770   42.9090 H   0  0  0  0  0  0  0  0  0  0  0  0
   50.6760   30.1670   41.5200 C   0  0  0  0  0  0  0  0  0  0  0  0
   49.6220   30.4290   40.7180 C   0  0  0  0  0  0  0  0  0  0  0  0
   49.2490   31.7280   40.6740 C   0  0  0  0  0  0  0  0  0  0  0  0
   48.3980   31.9870   40.0360 H   0  0  0  0  0  0  0  0  0  0  0  0
   48.8320   29.1320   39.8220 S   0  0  0  0  0  0  0  0  0  0  0  0
   49.7180   27.6390   40.2470 C   0  0  0  0  0  0  0  0  0  0  0  0
   49.2370   26.5190   39.6370 C   0  0  0  0  0  0  0  0  0  0  0  0
   48.4080   26.4840   38.9600 H   0  0  0  0  0  0  0  0  0  0  0  0
   49.8630   25.3030   39.9050 C   0  0  0  0  0  0  0  0  0  0  0  0
   49.5580   24.3640   39.4740 H   0  0  0  0  0  0  0  0  0  0  0  0
   50.9360   25.2840   40.7690 C   0  0  0  0  0  0  0  0  0  0  0  0
   51.4340   24.3480   40.9890 H   0  0  0  0  0  0  0  0  0  0  0  0
   51.3370   26.4580   41.3260 C   0  0  0  0  0  0  0  0  0  0  0  0
   52.2000   26.3830   42.0090 H   0  0  0  0  0  0  0  0  0  0  0  0
   50.7810   27.7070   41.1200 C   0  0  0  0  0  0  0  0  0  0  0  0
   51.2390   28.8890   41.7230 N   0  0  0  0  0  0  0  0  0  0  0  0
   52.0700   28.6920   42.3570 H   0  0  0  0  0  0  0  0  0  0  0  0
   46.9360   34.8990   41.5440 C   0  0  0  0  0  0  0  0  0  0  0  0
   46.5150   35.8840   41.9010 H   0  0  0  0  0  0  0  0  0  0  0  0
   46.4830   34.6500   40.5840 H   0  0  0  0  0  0  0  0  0  0  0  0
   46.8040   33.8400   42.5910 C   0  0  0  0  0  0  0  0  0  0  0  0
   47.7360   33.8150   43.1830 H   0  0  0  0  0  0  0  0  0  0  0  0
   46.4540   32.8740   42.2210 H   0  0  0  0  0  0  0  0  0  0  0  0
   44.5190   36.0290   44.6100 C   0  0  0  0  0  0  0  0  0  0  0  0
   45.2720   35.5260   43.5210 C   0  0  0  0  0  0  0  0  0  0  0  0
   45.9690   34.3660   43.7080 C   0  0  0  0  0  0  0  0  0  0  0  0
   45.9140   33.7390   44.9190 N   0  0  0  0  0  0  0  0  0  0  0  0
   45.2060   34.2210   45.9250 C   0  0  0  0  0  0  0  0  0  0  0  0
   44.5110   35.3540   45.7850 N   0  0  0  0  0  0  0  0  0  0  0  0
   43.9350   36.9360   44.5680 H   0  0  0  0  0  0  0  0  0  0  0  0
   45.1680   36.1620   42.6590 H   0  0  0  0  0  0  0  0  0  0  0  0
   45.1380   33.7520   46.9000 H   0  0  0  0  0  0  0  0  0  0  0  0
  1  4  1  6  0  0  0
  1 30  1  0  0  0  0
  1  2  1  0  0  0  0
  2  6  1  0  0  0  0
  2  5  1  0  0  0  0
  3  7  1  6  0  0  0
  3  8  1  0  0  0  0
  3  1  1  0  0  0  0
  3  2  1  0  0  0  0
  8  9  1  0  0  0  0
  9 11  2  0  0  0  0
  9 10  1  0  0  0  0
 11 12  1  0  0  0  0
 13 28  1  0  0  0  0
 13 11  1  0  0  0  0
 14 13  2  0  0  0  0
 15 14  1  0  0  0  0
 15  8  2  0  0  0  0
 16 15  1  0  0  0  0
 17 18  1  0  0  0  0
 17 14  1  0  0  0  0
 18 27  1  0  0  0  0
 19 21  1  0  0  0  0
 19 18  2  0  0  0  0
 20 19  1  0  0  0  0
 21 23  2  0  0  0  0
 22 21  1  0  0  0  0
 23 24  1  0  0  0  0
 23 25  1  0  0  0  0
 25 26  1  0  0  0  0
 27 25  2  0  0  0  0
 27 28  1  0  0  0  0
 28 29  1  0  0  0  0
 30 31  1  0  0  0  0
 30 33  1  0  0  0  0
 32 30  1  0  0  0  0
 33 34  1  0  0  0  0
 33 38  1  0  0  0  0
 35 33  1  0  0  0  0
 36 41  1  0  0  0  0
 37 38  1  0  0  0  0
 37 36  2  0  0  0  0
 38 39  2  0  0  0  0
 39 40  1  0  0  0  0
 40 44  1  0  0  0  0
 41 40  2  0  0  0  0
 42 36  1  0  0  0  0
 43 37  1  0  0  0  0
M  END
>  <minimizedAffinity>
-4.63980198

>  <minimizedRMSD>
2.80885959

$$$$
