
 OpenBabel03252502313D

 37 40  0  0  0  0  0  0  0  0999 V2000
   47.2120   31.8940   45.0650 C   0  0  0  0  0  0  0  0  0  0  0  0
   46.9280   32.0270   46.4080 C   0  0  0  0  0  0  0  0  0  0  0  0
   46.6230   32.9620   46.8400 H   0  0  0  0  0  0  0  0  0  0  0  0
   47.0510   30.8820   47.2020 C   0  0  0  0  0  0  0  0  0  0  0  0
   46.8170   31.0340   48.2490 H   0  0  0  0  0  0  0  0  0  0  0  0
   47.4330   29.6360   46.7520 C   0  0  0  0  0  0  0  0  0  0  0  0
   47.6980   29.5890   45.4050 C   0  0  0  0  0  0  0  0  0  0  0  0
   47.5960   30.6630   44.5900 C   0  0  0  0  0  0  0  0  0  0  0  0
   47.8220   30.5460   43.5390 H   0  0  0  0  0  0  0  0  0  0  0  0
   48.2010   28.0210   44.7190 S   0  0  0  0  0  0  0  0  0  0  0  0
   48.2230   26.8630   46.0640 C   0  0  0  0  0  0  0  0  0  0  0  0
   48.5830   25.5720   45.7940 C   0  0  0  0  0  0  0  0  0  0  0  0
   48.8450   25.2770   44.7720 H   0  0  0  0  0  0  0  0  0  0  0  0
   48.6240   24.6160   46.7860 C   0  0  0  0  0  0  0  0  0  0  0  0
   48.9150   23.6150   46.5030 H   0  0  0  0  0  0  0  0  0  0  0  0
   48.2890   25.0090   48.0640 C   0  0  0  0  0  0  0  0  0  0  0  0
   48.3140   24.2780   48.8590 H   0  0  0  0  0  0  0  0  0  0  0  0
   47.9350   26.3240   48.2810 C   0  0  0  0  0  0  0  0  0  0  0  0
   47.6860   26.5490   49.3120 H   0  0  0  0  0  0  0  0  0  0  0  0
   47.8840   27.3030   47.3100 C   0  0  0  0  0  0  0  0  0  0  0  0
   47.5060   28.5920   47.6850 N   0  0  0  0  0  0  0  0  0  0  0  0
   47.2740   28.7800   48.6830 H   0  0  0  0  0  0  0  0  0  0  0  0
   47.7900   34.6320   42.5260 C   0  0  0  0  0  0  0  0  0  0  0  0
   48.0280   33.4510   43.2650 C   0  0  0  0  0  0  0  0  0  0  0  0
   47.0850   33.0830   44.2390 C   0  0  0  0  0  0  0  0  0  0  0  0
   46.0060   33.8820   44.4090 N   0  0  0  0  0  0  0  0  0  0  0  0
   45.8060   35.0040   43.6880 C   0  0  0  0  0  0  0  0  0  0  0  0
   46.6900   35.3690   42.7600 N   0  0  0  0  0  0  0  0  0  0  0  0
   48.8820   32.8430   43.1120 H   0  0  0  0  0  0  0  0  0  0  0  0
   48.8010   34.9940   41.5060 C   0  0  0  0  0  0  0  0  0  0  0  0
   48.3450   34.8020   40.2270 F   0  0  0  0  0  0  0  0  0  0  0  0
   49.1540   36.3360   41.6980 F   0  0  0  0  0  0  0  0  0  0  0  0
   49.9750   34.2710   41.7390 F   0  0  0  0  0  0  0  0  0  0  0  0
   44.5960   35.8370   43.9280 C   0  0  0  0  0  0  0  0  0  0  0  0
   43.6230   35.5930   42.9930 F   0  0  0  0  0  0  0  0  0  0  0  0
   44.9460   37.2000   43.9110 F   0  0  0  0  0  0  0  0  0  0  0  0
   44.0540   35.6210   45.1770 F   0  0  0  0  0  0  0  0  0  0  0  0
  1  2  1  0  0  0  0
  2  3  1  0  0  0  0
  2  4  2  0  0  0  0
  4  5  1  0  0  0  0
  6  4  1  0  0  0  0
  6 21  1  0  0  0  0
  7  6  2  0  0  0  0
  8  1  2  0  0  0  0
  8  7  1  0  0  0  0
  9  8  1  0  0  0  0
 10  7  1  0  0  0  0
 10 11  1  0  0  0  0
 11 20  1  0  0  0  0
 12 11  2  0  0  0  0
 12 14  1  0  0  0  0
 13 12  1  0  0  0  0
 14 16  2  0  0  0  0
 15 14  1  0  0  0  0
 16 18  1  0  0  0  0
 16 17  1  0  0  0  0
 18 19  1  0  0  0  0
 20 21  1  0  0  0  0
 20 18  2  0  0  0  0
 21 22  1  0  0  0  0
 23 28  2  0  0  0  0
 23 24  1  0  0  0  0
 24 25  2  0  0  0  0
 25 26  1  0  0  0  0
 25  1  1  0  0  0  0
 27 34  1  0  0  0  0
 27 26  2  0  0  0  0
 28 27  1  0  0  0  0
 29 24  1  0  0  0  0
 30 32  1  0  0  0  0
 30 33  1  0  0  0  0
 30 23  1  0  0  0  0
 31 30  1  0  0  0  0
 34 37  1  0  0  0  0
 35 34  1  0  0  0  0
 36 34  1  0  0  0  0
M  END
>  <minimizedAffinity>
-6.40915871

>  <minimizedRMSD>
1.13298202

$$$$
