
 OpenBabel03242518503D

 36 39  0  0  0  0  0  0  0  0999 V2000
   46.3920   32.1910   47.2350 C   0  0  0  0  0  0  0  0  0  0  0  0
   47.4740   32.3990   48.0630 C   0  0  0  0  0  0  0  0  0  0  0  0
   47.7640   33.3680   48.4340 H   0  0  0  0  0  0  0  0  0  0  0  0
   48.2900   31.3710   48.5050 C   0  0  0  0  0  0  0  0  0  0  0  0
   49.1440   31.5970   49.1650 H   0  0  0  0  0  0  0  0  0  0  0  0
   48.0650   30.0470   48.1370 C   0  0  0  0  0  0  0  0  0  0  0  0
   46.9790   29.8700   47.3120 C   0  0  0  0  0  0  0  0  0  0  0  0
   46.1900   30.8750   46.8840 C   0  0  0  0  0  0  0  0  0  0  0  0
   45.3350   30.6840   46.2180 H   0  0  0  0  0  0  0  0  0  0  0  0
   46.5840   28.2200   46.7710 S   0  0  0  0  0  0  0  0  0  0  0  0
   47.7940   27.1610   47.5370 C   0  0  0  0  0  0  0  0  0  0  0  0
   47.6770   25.8340   47.2820 C   0  0  0  0  0  0  0  0  0  0  0  0
   46.8930   25.4300   46.6500 H   0  0  0  0  0  0  0  0  0  0  0  0
   48.6160   24.9930   47.8720 C   0  0  0  0  0  0  0  0  0  0  0  0
   48.5540   23.9330   47.6880 H   0  0  0  0  0  0  0  0  0  0  0  0
   49.6400   25.4490   48.6880 C   0  0  0  0  0  0  0  0  0  0  0  0
   50.3640   24.8000   49.1370 H   0  0  0  0  0  0  0  0  0  0  0  0
   49.6800   26.8250   48.8910 C   0  0  0  0  0  0  0  0  0  0  0  0
   50.5020   27.1650   49.5410 H   0  0  0  0  0  0  0  0  0  0  0  0
   48.7730   27.6950   48.3300 C   0  0  0  0  0  0  0  0  0  0  0  0
   48.9230   29.0490   48.6290 N   0  0  0  0  0  0  0  0  0  0  0  0
   49.7060   29.3500   49.2490 H   0  0  0  0  0  0  0  0  0  0  0  0
   45.5430   33.2820   46.7830 C   0  0  0  0  0  0  0  0  0  0  0  0
   44.6390   33.6240   47.6000 O   0  0  0  0  0  0  0  0  0  0  0  0
   44.9050   35.5710   44.0130 C   0  0  0  0  0  0  0  0  0  0  0  0
   45.9200   35.2970   43.0710 C   0  0  0  0  0  0  0  0  0  0  0  0
   46.8160   34.2990   43.4300 C   0  0  0  0  0  0  0  0  0  0  0  0
   46.6330   33.7040   44.6120 N   0  0  0  0  0  0  0  0  0  0  0  0
   45.6780   33.9570   45.5070 C   0  0  0  0  0  0  0  0  0  0  0  0
   44.7910   34.9240   45.1830 N   0  0  0  0  0  0  0  0  0  0  0  0
   44.1930   36.3490   43.7570 H   0  0  0  0  0  0  0  0  0  0  0  0
   46.0200   35.8090   42.1370 H   0  0  0  0  0  0  0  0  0  0  0  0
   47.8860   33.9960   42.4710 C   0  0  0  0  0  0  0  0  0  0  0  0
   49.1120   34.0040   43.1150 F   0  0  0  0  0  0  0  0  0  0  0  0
   47.9240   35.0800   41.5770 F   0  0  0  0  0  0  0  0  0  0  0  0
   47.7180   32.8130   41.8310 F   0  0  0  0  0  0  0  0  0  0  0  0
  1  2  1  0  0  0  0
  2  3  1  0  0  0  0
  2  4  2  0  0  0  0
  4  5  1  0  0  0  0
  6  4  1  0  0  0  0
  6 21  1  0  0  0  0
  7  6  2  0  0  0  0
  8  1  2  0  0  0  0
  8  7  1  0  0  0  0
  9  8  1  0  0  0  0
 10  7  1  0  0  0  0
 10 11  1  0  0  0  0
 11 20  1  0  0  0  0
 12 11  2  0  0  0  0
 12 14  1  0  0  0  0
 13 12  1  0  0  0  0
 14 16  2  0  0  0  0
 15 14  1  0  0  0  0
 16 18  1  0  0  0  0
 16 17  1  0  0  0  0
 18 19  1  0  0  0  0
 20 21  1  0  0  0  0
 20 18  2  0  0  0  0
 21 22  1  0  0  0  0
 23  1  1  0  0  0  0
 23 24  2  0  0  0  0
 25 30  1  0  0  0  0
 26 27  1  0  0  0  0
 26 25  2  0  0  0  0
 27 28  2  0  0  0  0
 28 29  1  0  0  0  0
 29 23  1  0  0  0  0
 30 29  2  0  0  0  0
 31 25  1  0  0  0  0
 32 26  1  0  0  0  0
 33 34  1  0  0  0  0
 33 27  1  0  0  0  0
 35 33  1  0  0  0  0
 36 33  1  0  0  0  0
M  END
>  <minimizedAffinity>
-6.00073481

>  <minimizedRMSD>
1.84272087

$$$$
