
 OpenBabel03252502243D

 47 51  0  0  1  0  0  0  0  0999 V2000
   46.9810   34.6410   42.3290 N   0  0  0  0  0  0  0  0  0  0  0  0
   48.4160   34.8460   42.3930 C   0  0  0  0  0  0  0  0  0  0  0  0
   48.7150   35.6560   41.1130 C   0  0  0  0  0  0  0  0  0  0  0  0
   48.4760   34.7650   39.9200 C   0  0  0  0  0  0  0  0  0  0  0  0
   47.2180   33.9860   39.9840 C   0  0  0  0  0  0  0  0  0  0  0  0
   46.2900   34.3150   41.1070 C   0  0  1  0  0  0  0  0  0  0  0  0
   48.9470   33.8740   42.3360 H   0  0  0  0  0  0  0  0  0  0  0  0
   48.6640   35.4390   43.2850 H   0  0  0  0  0  0  0  0  0  0  0  0
   49.7620   35.9740   41.1400 H   0  0  0  0  0  0  0  0  0  0  0  0
   47.9810   36.4920   41.1050 H   0  0  0  0  0  0  0  0  0  0  0  0
   49.3420   34.0580   39.8790 H   0  0  0  0  0  0  0  0  0  0  0  0
   48.5760   35.3820   38.9990 H   0  0  0  0  0  0  0  0  0  0  0  0
   47.4050   32.8820   39.9710 H   0  0  0  0  0  0  0  0  0  0  0  0
   46.6530   34.1750   39.0420 H   0  0  0  0  0  0  0  0  0  0  0  0
   45.6580   35.1910   40.8650 H   0  0  0  0  0  0  0  0  0  0  0  0
   44.4850   35.8350   44.8570 C   0  0  0  0  0  0  0  0  0  0  0  0
   45.2220   35.7960   43.6660 C   0  0  0  0  0  0  0  0  0  0  0  0
   46.1790   34.7600   43.5160 C   0  0  0  0  0  0  0  0  0  0  0  0
   46.3200   33.8740   44.5320 N   0  0  0  0  0  0  0  0  0  0  0  0
   45.5870   33.9470   45.6690 C   0  0  0  0  0  0  0  0  0  0  0  0
   44.6700   34.9340   45.8210 N   0  0  0  0  0  0  0  0  0  0  0  0
   43.7950   36.6720   44.8390 H   0  0  0  0  0  0  0  0  0  0  0  0
   45.1360   36.4820   42.8410 H   0  0  0  0  0  0  0  0  0  0  0  0
   45.7060   33.2390   46.4660 H   0  0  0  0  0  0  0  0  0  0  0  0
   45.4650   33.2140   41.3260 O   0  0  0  0  0  0  0  0  0  0  0  0
   44.1010   33.1390   41.1160 C   0  0  0  0  0  0  0  0  0  0  0  0
   43.2620   34.0120   40.4580 C   0  0  0  0  0  0  0  0  0  0  0  0
   43.7410   34.8710   40.0530 H   0  0  0  0  0  0  0  0  0  0  0  0
   41.9180   33.7200   40.3770 C   0  0  0  0  0  0  0  0  0  0  0  0
   41.3420   34.4830   39.8320 H   0  0  0  0  0  0  0  0  0  0  0  0
   41.3220   32.5980   40.9120 C   0  0  0  0  0  0  0  0  0  0  0  0
   42.1590   31.7300   41.5660 C   0  0  0  0  0  0  0  0  0  0  0  0
   43.4960   32.0010   41.6580 C   0  0  0  0  0  0  0  0  0  0  0  0
   44.0840   31.2480   42.2000 H   0  0  0  0  0  0  0  0  0  0  0  0
   41.4570   30.2570   42.2830 S   0  0  0  0  0  0  0  0  0  0  0  0
   39.7210   30.3140   41.9280 C   0  0  0  0  0  0  0  0  0  0  0  0
   38.9800   29.2680   42.3920 C   0  0  0  0  0  0  0  0  0  0  0  0
   39.3960   28.4500   42.9390 H   0  0  0  0  0  0  0  0  0  0  0  0
   37.6190   29.2370   42.1580 C   0  0  0  0  0  0  0  0  0  0  0  0
   36.9420   28.4570   42.4810 H   0  0  0  0  0  0  0  0  0  0  0  0
   37.0490   30.2780   41.4530 C   0  0  0  0  0  0  0  0  0  0  0  0
   35.9870   30.2850   41.2520 H   0  0  0  0  0  0  0  0  0  0  0  0
   37.8590   31.3050   41.0130 C   0  0  0  0  0  0  0  0  0  0  0  0
   37.3410   32.1000   40.4590 H   0  0  0  0  0  0  0  0  0  0  0  0
   39.2210   31.3790   41.2220 C   0  0  0  0  0  0  0  0  0  0  0  0
   39.9290   32.4780   40.7230 N   0  0  0  0  0  0  0  0  0  0  0  0
   39.3980   33.2070   40.2040 H   0  0  0  0  0  0  0  0  0  0  0  0
  1  2  1  0  0  0  0
  1 18  1  0  0  0  0
  2  8  1  0  0  0  0
  3  9  1  0  0  0  0
  3  2  1  0  0  0  0
  4  5  1  0  0  0  0
  4  3  1  0  0  0  0
  5  6  1  0  0  0  0
  6 15  1  6  0  0  0
  6 25  1  0  0  0  0
  6  1  1  0  0  0  0
  7  2  1  0  0  0  0
 10  3  1  0  0  0  0
 11  4  1  0  0  0  0
 12  4  1  0  0  0  0
 13  5  1  0  0  0  0
 14  5  1  0  0  0  0
 16 21  1  0  0  0  0
 17 16  2  0  0  0  0
 18 17  1  0  0  0  0
 18 19  2  0  0  0  0
 19 20  1  0  0  0  0
 20 21  2  0  0  0  0
 20 24  1  0  0  0  0
 22 16  1  0  0  0  0
 23 17  1  0  0  0  0
 26 25  1  0  0  0  0
 26 33  1  0  0  0  0
 27 26  2  0  0  0  0
 28 27  1  0  0  0  0
 29 27  1  0  0  0  0
 29 31  2  0  0  0  0
 30 29  1  0  0  0  0
 31 32  1  0  0  0  0
 32 33  2  0  0  0  0
 32 35  1  0  0  0  0
 33 34  1  0  0  0  0
 36 35  1  0  0  0  0
 36 37  1  0  0  0  0
 37 38  1  0  0  0  0
 39 37  2  0  0  0  0
 39 40  1  0  0  0  0
 41 39  1  0  0  0  0
 42 41  1  0  0  0  0
 43 45  1  0  0  0  0
 43 41  2  0  0  0  0
 44 43  1  0  0  0  0
 45 36  2  0  0  0  0
 46 31  1  0  0  0  0
 46 45  1  0  0  0  0
 47 46  1  0  0  0  0
M  END
>  <minimizedAffinity>
-7.3871212

>  <minimizedRMSD>
0.521477163

$$$$
