
 OpenBabel03252509013D

 58 62  0  0  1  0  0  0  0  0999 V2000
   46.9870   34.3640   43.3690 N   0  0  0  0  0  0  0  0  0  0  0  0
   46.5450   35.5490   42.7330 C   0  0  0  0  0  0  0  0  0  0  0  0
   45.0570   35.8150   42.8350 C   0  0  0  0  0  0  0  0  0  0  0  0
   44.4310   35.3510   44.1130 C   0  0  0  0  0  0  0  0  0  0  0  0
   45.4520   34.7790   45.0670 C   0  0  0  0  0  0  0  0  0  0  0  0
   46.1500   33.6580   44.2180 C   0  0  2  0  0  0  0  0  0  0  0  0
   46.8230   35.6620   41.6850 H   0  0  0  0  0  0  0  0  0  0  0  0
   47.0380   36.4050   43.2730 H   0  0  0  0  0  0  0  0  0  0  0  0
   44.5540   35.3610   41.9450 H   0  0  0  0  0  0  0  0  0  0  0  0
   44.8940   36.9130   42.7540 H   0  0  0  0  0  0  0  0  0  0  0  0
   43.7990   36.1380   44.5830 H   0  0  0  0  0  0  0  0  0  0  0  0
   43.7220   34.5080   43.8700 H   0  0  0  0  0  0  0  0  0  0  0  0
   46.1960   35.5100   45.3940 H   0  0  0  0  0  0  0  0  0  0  0  0
   44.9130   34.2940   45.9060 H   0  0  0  0  0  0  0  0  0  0  0  0
   45.3120   33.0810   43.7890 H   0  0  0  0  0  0  0  0  0  0  0  0
   48.0000   33.6600   42.6480 C   0  0  0  0  0  0  0  0  0  0  0  0
   48.6090   33.0620   43.3730 H   0  0  0  0  0  0  0  0  0  0  0  0
   48.6760   34.3690   42.1670 H   0  0  0  0  0  0  0  0  0  0  0  0
   47.3520   32.6920   41.7090 C   0  0  0  0  0  0  0  0  0  0  0  0
   46.2550   32.8820   41.6370 H   0  0  0  0  0  0  0  0  0  0  0  0
   47.4580   31.6410   42.0070 H   0  0  0  0  0  0  0  0  0  0  0  0
   49.2700   32.1410   38.5240 C   0  0  0  0  0  0  0  0  0  0  0  0
   48.7490   31.9530   39.8170 C   0  0  0  0  0  0  0  0  0  0  0  0
   47.8980   32.8970   40.3410 C   0  0  0  0  0  0  0  0  0  0  0  0
   47.6030   33.9630   39.5840 N   0  0  0  0  0  0  0  0  0  0  0  0
   48.1070   34.1330   38.3460 C   0  0  0  0  0  0  0  0  0  0  0  0
   48.9410   33.2280   37.8070 N   0  0  0  0  0  0  0  0  0  0  0  0
   49.9420   31.3770   38.1360 H   0  0  0  0  0  0  0  0  0  0  0  0
   49.0100   31.0750   40.4080 H   0  0  0  0  0  0  0  0  0  0  0  0
   47.8220   35.0190   37.7950 H   0  0  0  0  0  0  0  0  0  0  0  0
   46.8670   32.9730   45.1930 O   0  0  0  0  0  0  0  0  0  0  0  0
   45.3690   30.9350   44.3940 O   0  0  0  0  0  0  0  0  0  0  0  0
   46.2120   31.4630   45.5450 P   0  0  2  0  0  0  0  0  0  0  0  0
   45.1090   31.7110   46.8310 O   0  0  0  0  0  0  0  0  0  0  0  0
   45.5890   31.7320   47.6940 H   0  0  0  0  0  0  0  0  0  0  0  0
   47.3710   30.3740   46.0500 O   0  0  0  0  0  0  0  0  0  0  0  0
   47.2030   29.0360   46.2920 C   0  0  0  0  0  0  0  0  0  0  0  0
   48.0250   28.3490   47.1630 C   0  0  0  0  0  0  0  0  0  0  0  0
   48.8190   28.8780   47.6640 H   0  0  0  0  0  0  0  0  0  0  0  0
   47.8120   27.0020   47.3710 C   0  0  0  0  0  0  0  0  0  0  0  0
   48.5130   26.5330   48.0800 H   0  0  0  0  0  0  0  0  0  0  0  0
   46.8070   26.2890   46.7490 C   0  0  0  0  0  0  0  0  0  0  0  0
   45.9800   26.9570   45.8800 C   0  0  0  0  0  0  0  0  0  0  0  0
   46.2100   28.2940   45.6880 C   0  0  0  0  0  0  0  0  0  0  0  0
   45.5520   28.8240   44.9960 H   0  0  0  0  0  0  0  0  0  0  0  0
   44.6730   26.0720   45.0590 S   0  0  0  0  0  0  0  0  0  0  0  0
   44.7890   24.3880   45.6320 C   0  0  0  0  0  0  0  0  0  0  0  0
   43.8780   23.5300   45.1280 C   0  0  0  0  0  0  0  0  0  0  0  0
   43.1120   23.8120   44.4180 H   0  0  0  0  0  0  0  0  0  0  0  0
   43.8870   22.2040   45.5120 C   0  0  0  0  0  0  0  0  0  0  0  0
   43.1590   21.5130   45.1110 H   0  0  0  0  0  0  0  0  0  0  0  0
   44.8450   21.7930   46.4160 C   0  0  0  0  0  0  0  0  0  0  0  0
   44.8890   20.7650   46.7450 H   0  0  0  0  0  0  0  0  0  0  0  0
   45.7440   22.7270   46.8880 C   0  0  0  0  0  0  0  0  0  0  0  0
   46.4810   22.3390   47.6040 H   0  0  0  0  0  0  0  0  0  0  0  0
   45.7710   24.0590   46.5320 C   0  0  0  0  0  0  0  0  0  0  0  0
   46.7430   24.9250   47.0840 N   0  0  0  0  0  0  0  0  0  0  0  0
   47.4090   24.4880   47.7550 H   0  0  0  0  0  0  0  0  0  0  0  0
  1  6  1  0  0  0  0
  2  3  1  0  0  0  0
  2  8  1  0  0  0  0
  2  1  1  0  0  0  0
  3  4  1  0  0  0  0
  4 11  1  0  0  0  0
  4  5  1  0  0  0  0
  5 13  1  0  0  0  0
  5 14  1  0  0  0  0
  6 15  1  6  0  0  0
  6  5  1  0  0  0  0
  6 31  1  0  0  0  0
  7  2  1  0  0  0  0
  9  3  1  0  0  0  0
 10  3  1  0  0  0  0
 12  4  1  0  0  0  0
 16  1  1  0  0  0  0
 16 17  1  0  0  0  0
 18 16  1  0  0  0  0
 19 21  1  0  0  0  0
 19 16  1  0  0  0  0
 20 19  1  0  0  0  0
 22 23  1  0  0  0  0
 23 24  2  0  0  0  0
 23 29  1  0  0  0  0
 24 19  1  0  0  0  0
 25 24  1  0  0  0  0
 26 25  2  0  0  0  0
 27 26  1  0  0  0  0
 27 22  2  0  0  0  0
 28 22  1  0  0  0  0
 30 26  1  0  0  0  0
 31 33  1  0  0  0  0
 33 32  2  6  0  0  0
 33 36  1  0  0  0  0
 33 34  1  0  0  0  0
 34 35  1  0  0  0  0
 36 37  1  0  0  0  0
 37 38  1  0  0  0  0
 38 40  2  0  0  0  0
 38 39  1  0  0  0  0
 40 41  1  0  0  0  0
 42 57  1  0  0  0  0
 42 40  1  0  0  0  0
 43 42  2  0  0  0  0
 44 43  1  0  0  0  0
 44 37  2  0  0  0  0
 45 44  1  0  0  0  0
 46 47  1  0  0  0  0
 46 43  1  0  0  0  0
 47 56  1  0  0  0  0
 48 50  1  0  0  0  0
 48 47  2  0  0  0  0
 49 48  1  0  0  0  0
 50 52  2  0  0  0  0
 51 50  1  0  0  0  0
 52 53  1  0  0  0  0
 52 54  1  0  0  0  0
 54 55  1  0  0  0  0
 56 54  2  0  0  0  0
 56 57  1  0  0  0  0
 57 58  1  0  0  0  0
M  END
>  <minimizedAffinity>
-4.55363989

>  <minimizedRMSD>
2.49585748

$$$$
