
 OpenBabel03252506133D

 49 53  0  0  0  0  0  0  0  0999 V2000
   48.1200   34.6710   37.0980 O   0  0  0  0  0  0  0  0  0  0  0  0
   47.3320   33.4020   37.3140 P   0  0  2  0  0  0  0  0  0  0  0  0
   45.9680   33.3650   36.2900 O   0  0  0  0  0  0  0  0  0  0  0  0
   45.9730   34.1770   35.7600 H   0  0  0  0  0  0  0  0  0  0  0  0
   46.7980   33.2470   38.9040 O   0  0  0  0  0  0  0  0  0  0  0  0
   45.2030   33.5210   41.2090 F   0  0  0  0  0  0  0  0  0  0  0  0
   46.3760   34.1230   41.0930 C   0  0  0  0  0  0  0  0  0  0  0  0
   46.8340   34.9100   42.1330 C   0  0  0  0  0  0  0  0  0  0  0  0
   48.0610   35.5820   42.1000 C   0  0  0  0  0  0  0  0  0  0  0  0
   48.8700   35.4600   40.9700 C   0  0  0  0  0  0  0  0  0  0  0  0
   48.3830   34.6680   39.9540 C   0  0  0  0  0  0  0  0  0  0  0  0
   47.1930   34.0100   39.9720 C   0  0  0  0  0  0  0  0  0  0  0  0
   48.3510   36.1850   42.9640 H   0  0  0  0  0  0  0  0  0  0  0  0
   49.8060   35.9950   40.9890 H   0  0  0  0  0  0  0  0  0  0  0  0
   49.1050   34.6510   39.1460 H   0  0  0  0  0  0  0  0  0  0  0  0
   45.3810   34.2720   45.4420 C   0  0  0  0  0  0  0  0  0  0  0  0
   44.5180   35.3710   45.5990 C   0  0  0  0  0  0  0  0  0  0  0  0
   44.4350   36.3410   44.5570 C   0  0  0  0  0  0  0  0  0  0  0  0
   45.2190   36.1250   43.4570 N   0  0  0  0  0  0  0  0  0  0  0  0
   46.0250   35.0680   43.3470 C   0  0  0  0  0  0  0  0  0  0  0  0
   46.1030   34.1540   44.3290 N   0  0  0  0  0  0  0  0  0  0  0  0
   43.9160   35.5220   46.4630 H   0  0  0  0  0  0  0  0  0  0  0  0
   43.7820   37.1960   44.6480 H   0  0  0  0  0  0  0  0  0  0  0  0
   45.4490   33.3180   46.4870 N   0  0  0  0  0  0  0  0  0  0  0  0
   45.1510   32.3090   46.5200 H   0  0  0  0  0  0  0  0  0  0  0  0
   45.8380   33.5080   47.4400 H   0  0  0  0  0  0  0  0  0  0  0  0
   48.2800   32.0910   36.8100 O   0  0  0  0  0  0  0  0  0  0  0  0
   47.8760   31.3880   35.6820 C   0  0  0  0  0  0  0  0  0  0  0  0
   48.4700   31.7130   34.4780 C   0  0  0  0  0  0  0  0  0  0  0  0
   49.2240   32.4920   34.4340 H   0  0  0  0  0  0  0  0  0  0  0  0
   48.0810   31.0240   33.3430 C   0  0  0  0  0  0  0  0  0  0  0  0
   48.5990   31.3400   32.4230 H   0  0  0  0  0  0  0  0  0  0  0  0
   47.1310   30.0230   33.3250 C   0  0  0  0  0  0  0  0  0  0  0  0
   46.5700   29.7320   34.5210 C   0  0  0  0  0  0  0  0  0  0  0  0
   46.9250   30.3820   35.6470 C   0  0  0  0  0  0  0  0  0  0  0  0
   46.4590   30.1340   36.6140 H   0  0  0  0  0  0  0  0  0  0  0  0
   45.3330   28.4510   34.5860 S   0  0  0  0  0  0  0  0  0  0  0  0
   45.1660   27.8600   32.9120 C   0  0  0  0  0  0  0  0  0  0  0  0
   44.2550   26.8540   32.7030 C   0  0  0  0  0  0  0  0  0  0  0  0
   43.6660   26.4380   33.5160 H   0  0  0  0  0  0  0  0  0  0  0  0
   44.0580   26.3360   31.4460 C   0  0  0  0  0  0  0  0  0  0  0  0
   43.3530   25.5540   31.2710 H   0  0  0  0  0  0  0  0  0  0  0  0
   44.8000   26.8590   30.4180 C   0  0  0  0  0  0  0  0  0  0  0  0
   44.6420   26.4490   29.4330 H   0  0  0  0  0  0  0  0  0  0  0  0
   45.6910   27.8600   30.6860 C   0  0  0  0  0  0  0  0  0  0  0  0
   46.2330   28.2090   29.8010 H   0  0  0  0  0  0  0  0  0  0  0  0
   45.9330   28.4200   31.9240 C   0  0  0  0  0  0  0  0  0  0  0  0
   46.8670   29.4390   32.0860 N   0  0  0  0  0  0  0  0  0  0  0  0
   47.3630   29.7460   31.2220 H   0  0  0  0  0  0  0  0  0  0  0  0
  2  1  2  6  0  0  0
  2  5  1  0  0  0  0
  3  2  1  0  0  0  0
  4  3  1  0  0  0  0
  5 12  1  0  0  0  0
  7  6  1  0  0  0  0
  7  8  1  0  0  0  0
  8 20  1  0  0  0  0
  9  8  2  0  0  0  0
  9 13  1  0  0  0  0
 10 14  1  0  0  0  0
 10  9  1  0  0  0  0
 11 12  1  0  0  0  0
 11 10  2  0  0  0  0
 12  7  2  0  0  0  0
 15 11  1  0  0  0  0
 16 17  1  0  0  0  0
 16 24  1  0  0  0  0
 17 22  1  0  0  0  0
 18 23  1  0  0  0  0
 18 17  2  0  0  0  0
 19 18  1  0  0  0  0
 20 19  2  0  0  0  0
 20 21  1  0  0  0  0
 21 16  2  0  0  0  0
 24 25  1  0  0  0  0
 24 26  1  0  0  0  0
 27  2  1  0  0  0  0
 28 27  1  0  0  0  0
 29 28  2  0  0  0  0
 30 29  1  0  0  0  0
 31 29  1  0  0  0  0
 32 31  1  0  0  0  0
 33 31  2  0  0  0  0
 33 34  1  0  0  0  0
 34 37  1  0  0  0  0
 34 35  2  0  0  0  0
 35 28  1  0  0  0  0
 35 36  1  0  0  0  0
 38 37  1  0  0  0  0
 39 38  1  0  0  0  0
 39 40  1  0  0  0  0
 41 39  2  0  0  0  0
 42 41  1  0  0  0  0
 43 45  2  0  0  0  0
 43 41  1  0  0  0  0
 44 43  1  0  0  0  0
 45 47  1  0  0  0  0
 46 45  1  0  0  0  0
 47 48  1  0  0  0  0
 47 38  2  0  0  0  0
 48 33  1  0  0  0  0
 49 48  1  0  0  0  0
M  END
>  <minimizedAffinity>
-7.35842514

>  <minimizedRMSD>
3.39464521

$$$$
