
 OpenBabel03242523123D

 59 65  0  0  1  0  0  0  0  0999 V2000
   46.4590   32.0060   45.5150 C   0  0  0  0  0  0  0  0  0  0  0  0
   46.7460   32.7420   44.3450 C   0  0  0  0  0  0  0  0  0  0  0  0
   47.6980   32.1100   43.5800 C   0  0  0  0  0  0  0  0  0  0  0  0
   48.3120   30.9330   43.8750 C   0  0  0  0  0  0  0  0  0  0  0  0
   47.9750   30.2710   45.0520 C   0  0  0  0  0  0  0  0  0  0  0  0
   47.0330   30.8190   45.8820 C   0  0  0  0  0  0  0  0  0  0  0  0
   48.7640   29.1320   45.0580 O   0  0  0  0  0  0  0  0  0  0  0  0
   49.5350   29.0640   43.8750 C   0  0  2  0  0  0  0  0  0  0  0  0
   49.2700   30.2550   43.1440 O   0  0  0  0  0  0  0  0  0  0  0  0
   45.7390   32.2260   46.3320 H   0  0  0  0  0  0  0  0  0  0  0  0
   47.9250   32.6370   42.7080 H   0  0  0  0  0  0  0  0  0  0  0  0
   46.8600   30.2290   46.7400 H   0  0  0  0  0  0  0  0  0  0  0  0
   50.6170   28.9990   44.1210 H   0  0  0  0  0  0  0  0  0  0  0  0
   45.1070   36.0070   43.5140 C   0  0  0  0  0  0  0  0  0  0  0  0
   45.9040   34.8880   43.2790 C   0  0  0  0  0  0  0  0  0  0  0  0
   46.0480   33.9480   44.2550 C   0  0  0  0  0  0  0  0  0  0  0  0
   45.3880   34.1680   45.4330 N   0  0  0  0  0  0  0  0  0  0  0  0
   44.6230   35.2430   45.6570 C   0  0  0  0  0  0  0  0  0  0  0  0
   44.4880   36.1410   44.7140 N   0  0  0  0  0  0  0  0  0  0  0  0
   44.9860   36.7560   42.7480 H   0  0  0  0  0  0  0  0  0  0  0  0
   44.0770   35.4730   46.5620 H   0  0  0  0  0  0  0  0  0  0  0  0
   46.5430   34.8080   42.0410 N   0  0  0  0  0  0  0  0  0  0  0  0
   47.8700   35.2970   41.8400 C   0  0  0  0  0  0  0  0  0  0  0  0
   48.4670   34.9740   40.5000 C   0  0  0  0  0  0  0  0  0  0  0  0
   48.1610   33.7100   40.0110 N   0  0  0  0  0  0  0  0  0  0  0  0
   46.8820   33.2500   40.1720 C   0  0  0  0  0  0  0  0  0  0  0  0
   46.0000   34.2640   40.8610 C   0  0  0  0  0  0  0  0  0  0  0  0
   48.5880   35.0200   42.6470 H   0  0  0  0  0  0  0  0  0  0  0  0
   47.8070   36.4190   41.9100 H   0  0  0  0  0  0  0  0  0  0  0  0
   48.0630   35.7390   39.7760 H   0  0  0  0  0  0  0  0  0  0  0  0
   49.5530   35.2010   40.5530 H   0  0  0  0  0  0  0  0  0  0  0  0
   48.8180   33.2390   39.3910 H   0  0  0  0  0  0  0  0  0  0  0  0
   46.7610   32.2700   40.6980 H   0  0  0  0  0  0  0  0  0  0  0  0
   46.4090   33.0610   39.1650 H   0  0  0  0  0  0  0  0  0  0  0  0
   45.0680   33.7000   41.1420 H   0  0  0  0  0  0  0  0  0  0  0  0
   45.6960   35.0020   40.0790 H   0  0  0  0  0  0  0  0  0  0  0  0
   49.0730   27.9670   43.1420 O   0  0  0  0  0  0  0  0  0  0  0  0
   49.7820   26.8710   42.7420 C   0  0  0  0  0  0  0  0  0  0  0  0
   51.1140   26.6060   42.9820 C   0  0  0  0  0  0  0  0  0  0  0  0
   51.6600   27.3470   43.5490 H   0  0  0  0  0  0  0  0  0  0  0  0
   51.6610   25.4380   42.4970 C   0  0  0  0  0  0  0  0  0  0  0  0
   52.7220   25.3070   42.7320 H   0  0  0  0  0  0  0  0  0  0  0  0
   50.9640   24.4980   41.7760 C   0  0  0  0  0  0  0  0  0  0  0  0
   49.6550   24.7700   41.5480 C   0  0  0  0  0  0  0  0  0  0  0  0
   49.0880   25.9020   42.0070 C   0  0  0  0  0  0  0  0  0  0  0  0
   48.0210   26.0650   41.7890 H   0  0  0  0  0  0  0  0  0  0  0  0
   48.6860   23.5970   40.6200 S   0  0  0  0  0  0  0  0  0  0  0  0
   49.8130   22.2740   40.2180 C   0  0  0  0  0  0  0  0  0  0  0  0
   49.2540   21.2520   39.4920 C   0  0  0  0  0  0  0  0  0  0  0  0
   48.2060   21.2160   39.1690 H   0  0  0  0  0  0  0  0  0  0  0  0
   50.0460   20.1740   39.1280 C   0  0  0  0  0  0  0  0  0  0  0  0
   49.6890   19.3280   38.5580 H   0  0  0  0  0  0  0  0  0  0  0  0
   51.3720   20.1660   39.5070 C   0  0  0  0  0  0  0  0  0  0  0  0
   52.0020   19.3320   39.2310 H   0  0  0  0  0  0  0  0  0  0  0  0
   51.8440   21.2390   40.2360 C   0  0  0  0  0  0  0  0  0  0  0  0
   52.9110   21.1560   40.4980 H   0  0  0  0  0  0  0  0  0  0  0  0
   51.1010   22.3350   40.6240 C   0  0  0  0  0  0  0  0  0  0  0  0
   51.6800   23.3670   41.3600 N   0  0  0  0  0  0  0  0  0  0  0  0
   52.6900   23.2570   41.5930 H   0  0  0  0  0  0  0  0  0  0  0  0
  1  6  1  0  0  0  0
  1 10  1  0  0  0  0
  2  1  2  0  0  0  0
  3  4  2  0  0  0  0
  3  2  1  0  0  0  0
  4  5  1  0  0  0  0
  5  7  1  0  0  0  0
  5  6  2  0  0  0  0
  6 12  1  0  0  0  0
  8 13  1  1  0  0  0
  8  7  1  0  0  0  0
  9  4  1  0  0  0  0
  9  8  1  0  0  0  0
 11  3  1  0  0  0  0
 14 19  1  0  0  0  0
 15 14  2  0  0  0  0
 15 16  1  0  0  0  0
 16  2  1  0  0  0  0
 16 17  2  0  0  0  0
 17 18  1  0  0  0  0
 18 21  1  0  0  0  0
 19 18  2  0  0  0  0
 20 14  1  0  0  0  0
 22 15  1  0  0  0  0
 23 29  1  0  0  0  0
 23 22  1  0  0  0  0
 23 28  1  0  0  0  0
 24 31  1  0  0  0  0
 24 23  1  0  0  0  0
 25 26  1  0  0  0  0
 25 24  1  0  0  0  0
 26 33  1  0  0  0  0
 26 27  1  0  0  0  0
 27 35  1  0  0  0  0
 27 22  1  0  0  0  0
 30 24  1  0  0  0  0
 32 25  1  0  0  0  0
 34 26  1  0  0  0  0
 36 27  1  0  0  0  0
 37  8  1  0  0  0  0
 38 39  1  0  0  0  0
 38 37  1  0  0  0  0
 39 40  1  0  0  0  0
 41 42  1  0  0  0  0
 41 39  2  0  0  0  0
 43 41  1  0  0  0  0
 44 43  2  0  0  0  0
 44 45  1  0  0  0  0
 45 38  2  0  0  0  0
 46 45  1  0  0  0  0
 47 44  1  0  0  0  0
 48 47  1  0  0  0  0
 48 57  1  0  0  0  0
 49 48  2  0  0  0  0
 50 49  1  0  0  0  0
 51 49  1  0  0  0  0
 51 53  2  0  0  0  0
 52 51  1  0  0  0  0
 53 55  1  0  0  0  0
 54 53  1  0  0  0  0
 55 56  1  0  0  0  0
 55 57  2  0  0  0  0
 57 58  1  0  0  0  0
 58 59  1  0  0  0  0
 58 43  1  0  0  0  0
M  END
>  <minimizedAffinity>
-4.63602781

>  <minimizedRMSD>
0.0724888518

$$$$
