
 OpenBabel03252506133D

 49 53  0  0  0  0  0  0  0  0999 V2000
   47.8580   33.9340   36.8120 O   0  0  0  0  0  0  0  0  0  0  0  0
   46.5940   33.1700   37.1210 P   0  0  2  0  0  0  0  0  0  0  0  0
   45.2290   34.0170   36.5470 O   0  0  0  0  0  0  0  0  0  0  0  0
   45.5430   34.8310   36.1250 H   0  0  0  0  0  0  0  0  0  0  0  0
   46.3940   32.9100   38.7730 O   0  0  0  0  0  0  0  0  0  0  0  0
   44.9740   33.2800   41.1770 F   0  0  0  0  0  0  0  0  0  0  0  0
   46.1430   33.8610   40.9570 C   0  0  0  0  0  0  0  0  0  0  0  0
   46.6850   34.6740   41.9350 C   0  0  0  0  0  0  0  0  0  0  0  0
   47.9140   35.3270   41.7920 C   0  0  0  0  0  0  0  0  0  0  0  0
   48.6370   35.1570   40.6110 C   0  0  0  0  0  0  0  0  0  0  0  0
   48.0690   34.3410   39.6590 C   0  0  0  0  0  0  0  0  0  0  0  0
   46.8750   33.7010   39.7840 C   0  0  0  0  0  0  0  0  0  0  0  0
   48.2740   35.9530   42.6130 H   0  0  0  0  0  0  0  0  0  0  0  0
   49.5790   35.6790   40.5450 H   0  0  0  0  0  0  0  0  0  0  0  0
   48.7290   34.2880   38.8020 H   0  0  0  0  0  0  0  0  0  0  0  0
   45.3940   34.1150   45.3240 C   0  0  0  0  0  0  0  0  0  0  0  0
   44.6330   35.2780   45.5430 C   0  0  0  0  0  0  0  0  0  0  0  0
   44.5640   36.2630   44.5140 C   0  0  0  0  0  0  0  0  0  0  0  0
   45.2570   35.9980   43.3660 N   0  0  0  0  0  0  0  0  0  0  0  0
   45.9680   34.8810   43.1990 C   0  0  0  0  0  0  0  0  0  0  0  0
   46.0330   33.9530   44.1680 N   0  0  0  0  0  0  0  0  0  0  0  0
   44.1000   35.4660   46.4440 H   0  0  0  0  0  0  0  0  0  0  0  0
   43.9880   37.1670   44.6520 H   0  0  0  0  0  0  0  0  0  0  0  0
   45.4500   33.1470   46.3570 N   0  0  0  0  0  0  0  0  0  0  0  0
   45.0750   32.1650   46.4030 H   0  0  0  0  0  0  0  0  0  0  0  0
   45.9110   33.2950   47.2860 H   0  0  0  0  0  0  0  0  0  0  0  0
   46.6090   31.7290   36.2280 O   0  0  0  0  0  0  0  0  0  0  0  0
   45.3960   31.2330   35.7690 C   0  0  0  0  0  0  0  0  0  0  0  0
   45.2990   30.9180   34.4270 C   0  0  0  0  0  0  0  0  0  0  0  0
   46.1520   31.0590   33.7710 H   0  0  0  0  0  0  0  0  0  0  0  0
   44.0990   30.4220   33.9510 C   0  0  0  0  0  0  0  0  0  0  0  0
   44.1000   30.1950   32.8720 H   0  0  0  0  0  0  0  0  0  0  0  0
   42.9760   30.2170   34.7260 C   0  0  0  0  0  0  0  0  0  0  0  0
   43.1060   30.5360   36.0340 C   0  0  0  0  0  0  0  0  0  0  0  0
   44.2600   31.0210   36.5330 C   0  0  0  0  0  0  0  0  0  0  0  0
   44.3520   31.2770   37.6010 H   0  0  0  0  0  0  0  0  0  0  0  0
   41.7030   30.3020   37.1070 S   0  0  0  0  0  0  0  0  0  0  0  0
   40.4070   29.6560   36.0660 C   0  0  0  0  0  0  0  0  0  0  0  0
   39.2060   29.3890   36.6750 C   0  0  0  0  0  0  0  0  0  0  0  0
   39.0510   29.5620   37.7360 H   0  0  0  0  0  0  0  0  0  0  0  0
   38.1500   28.8890   35.9520 C   0  0  0  0  0  0  0  0  0  0  0  0
   37.2090   28.6770   36.4130 H   0  0  0  0  0  0  0  0  0  0  0  0
   38.3420   28.6690   34.6120 C   0  0  0  0  0  0  0  0  0  0  0  0
   37.5090   28.2760   34.0480 H   0  0  0  0  0  0  0  0  0  0  0  0
   39.5600   28.9530   34.0610 C   0  0  0  0  0  0  0  0  0  0  0  0
   39.6100   28.7430   32.9880 H   0  0  0  0  0  0  0  0  0  0  0  0
   40.6540   29.4550   34.7330 C   0  0  0  0  0  0  0  0  0  0  0  0
   41.8530   29.7090   34.0710 N   0  0  0  0  0  0  0  0  0  0  0  0
   41.8670   29.4980   33.0510 H   0  0  0  0  0  0  0  0  0  0  0  0
  2  1  2  6  0  0  0
  2  5  1  0  0  0  0
  3  2  1  0  0  0  0
  4  3  1  0  0  0  0
  5 12  1  0  0  0  0
  7  6  1  0  0  0  0
  7  8  1  0  0  0  0
  8 20  1  0  0  0  0
  9  8  2  0  0  0  0
  9 13  1  0  0  0  0
 10  9  1  0  0  0  0
 11 12  1  0  0  0  0
 11 10  2  0  0  0  0
 12  7  2  0  0  0  0
 14 10  1  0  0  0  0
 15 11  1  0  0  0  0
 16 17  1  0  0  0  0
 16 24  1  0  0  0  0
 17 22  1  0  0  0  0
 18 23  1  0  0  0  0
 18 17  2  0  0  0  0
 19 18  1  0  0  0  0
 20 19  2  0  0  0  0
 20 21  1  0  0  0  0
 21 16  2  0  0  0  0
 24 25  1  0  0  0  0
 24 26  1  0  0  0  0
 27  2  1  0  0  0  0
 28 27  1  0  0  0  0
 28 35  1  0  0  0  0
 29 28  2  0  0  0  0
 30 29  1  0  0  0  0
 31 29  1  0  0  0  0
 31 33  2  0  0  0  0
 32 31  1  0  0  0  0
 33 34  1  0  0  0  0
 34 35  2  0  0  0  0
 34 37  1  0  0  0  0
 35 36  1  0  0  0  0
 38 39  1  0  0  0  0
 38 37  1  0  0  0  0
 39 40  1  0  0  0  0
 41 42  1  0  0  0  0
 41 39  2  0  0  0  0
 43 41  1  0  0  0  0
 44 43  1  0  0  0  0
 45 43  2  0  0  0  0
 45 47  1  0  0  0  0
 46 45  1  0  0  0  0
 47 38  2  0  0  0  0
 48 33  1  0  0  0  0
 48 47  1  0  0  0  0
 49 48  1  0  0  0  0
M  END
>  <minimizedAffinity>
-7.7008872

>  <minimizedRMSD>
3.22581124

$$$$
