
 OpenBabel03252502563D

 50 54  0  0  0  0  0  0  0  0999 V2000
   44.3900   26.0990   46.9480 O   0  0  0  0  0  0  0  0  0  0  0  0
   44.9840   27.1600   47.8630 P   0  0  2  0  0  0  0  0  0  0  0  0
   44.4310   26.9230   49.4320 O   0  0  0  0  0  0  0  0  0  0  0  0
   45.1460   26.9640   50.1200 H   0  0  0  0  0  0  0  0  0  0  0  0
   44.3960   28.6740   47.3440 O   0  0  0  0  0  0  0  0  0  0  0  0
   45.5890   29.8940   44.7660 Br  0  0  0  0  0  0  0  0  0  0  0  0
   45.6790   30.5820   46.5750 C   0  0  0  0  0  0  0  0  0  0  0  0
   46.3580   31.7580   46.7360 C   0  0  0  0  0  0  0  0  0  0  0  0
   46.4020   32.2210   48.0520 C   0  0  0  0  0  0  0  0  0  0  0  0
   45.8150   31.5580   49.1120 C   0  0  0  0  0  0  0  0  0  0  0  0
   45.1520   30.3820   48.8640 C   0  0  0  0  0  0  0  0  0  0  0  0
   45.0730   29.8720   47.5840 C   0  0  0  0  0  0  0  0  0  0  0  0
   46.9220   33.1470   48.2580 H   0  0  0  0  0  0  0  0  0  0  0  0
   45.8940   31.9840   50.1050 H   0  0  0  0  0  0  0  0  0  0  0  0
   44.6950   29.8690   49.6960 H   0  0  0  0  0  0  0  0  0  0  0  0
   47.0190   32.5500   45.6950 C   0  0  0  0  0  0  0  0  0  0  0  0
   48.0150   32.9390   46.0100 H   0  0  0  0  0  0  0  0  0  0  0  0
   47.2210   31.8540   44.8360 H   0  0  0  0  0  0  0  0  0  0  0  0
   44.5370   35.3220   45.4170 C   0  0  0  0  0  0  0  0  0  0  0  0
   44.7420   35.7520   44.1040 C   0  0  0  0  0  0  0  0  0  0  0  0
   45.7050   35.1030   43.3480 C   0  0  0  0  0  0  0  0  0  0  0  0
   46.4150   34.0810   43.8920 N   0  0  0  0  0  0  0  0  0  0  0  0
   46.1940   33.6780   45.1830 C   0  0  0  0  0  0  0  0  0  0  0  0
   45.2510   34.3200   45.9120 N   0  0  0  0  0  0  0  0  0  0  0  0
   43.8280   35.7310   46.1130 H   0  0  0  0  0  0  0  0  0  0  0  0
   44.1220   36.5750   43.7700 H   0  0  0  0  0  0  0  0  0  0  0  0
   45.8500   35.4490   42.3360 H   0  0  0  0  0  0  0  0  0  0  0  0
   46.6580   27.0580   47.7810 O   0  0  0  0  0  0  0  0  0  0  0  0
   47.4080   26.4360   46.8030 C   0  0  0  0  0  0  0  0  0  0  0  0
   47.8180   25.1300   46.9710 C   0  0  0  0  0  0  0  0  0  0  0  0
   47.5320   24.6350   47.8790 H   0  0  0  0  0  0  0  0  0  0  0  0
   48.5660   24.5380   45.9750 C   0  0  0  0  0  0  0  0  0  0  0  0
   48.8370   23.5140   46.2010 H   0  0  0  0  0  0  0  0  0  0  0  0
   48.9480   25.1460   44.8000 C   0  0  0  0  0  0  0  0  0  0  0  0
   48.5050   26.4430   44.7020 C   0  0  0  0  0  0  0  0  0  0  0  0
   47.7730   27.0750   45.6390 C   0  0  0  0  0  0  0  0  0  0  0  0
   47.4280   28.1050   45.5480 H   0  0  0  0  0  0  0  0  0  0  0  0
   48.9040   27.3940   43.2480 S   0  0  0  0  0  0  0  0  0  0  0  0
   49.8600   26.3050   42.2150 C   0  0  0  0  0  0  0  0  0  0  0  0
   50.3440   26.7000   41.0020 C   0  0  0  0  0  0  0  0  0  0  0  0
   50.1360   27.7250   40.6550 H   0  0  0  0  0  0  0  0  0  0  0  0
   51.1010   25.9280   40.1210 C   0  0  0  0  0  0  0  0  0  0  0  0
   51.4400   26.3170   39.1890 H   0  0  0  0  0  0  0  0  0  0  0  0
   51.3540   24.6450   40.5700 C   0  0  0  0  0  0  0  0  0  0  0  0
   51.9390   23.9920   39.9300 H   0  0  0  0  0  0  0  0  0  0  0  0
   50.8730   24.2230   41.7990 C   0  0  0  0  0  0  0  0  0  0  0  0
   51.1250   23.1860   42.0710 H   0  0  0  0  0  0  0  0  0  0  0  0
   50.1280   25.0280   42.6350 C   0  0  0  0  0  0  0  0  0  0  0  0
   49.7180   24.4540   43.8350 N   0  0  0  0  0  0  0  0  0  0  0  0
   49.9600   23.4720   44.0890 H   0  0  0  0  0  0  0  0  0  0  0  0
  2  1  2  6  0  0  0
  2  3  1  0  0  0  0
  3  4  1  0  0  0  0
  5 12  1  0  0  0  0
  5  2  1  0  0  0  0
  6  7  1  0  0  0  0
  7  8  2  0  0  0  0
  7 12  1  0  0  0  0
  8  9  1  0  0  0  0
  9 13  1  0  0  0  0
  9 10  2  0  0  0  0
 10 14  1  0  0  0  0
 11 10  1  0  0  0  0
 11 15  1  0  0  0  0
 12 11  2  0  0  0  0
 16 17  1  0  0  0  0
 16  8  1  0  0  0  0
 18 16  1  0  0  0  0
 19 24  1  0  0  0  0
 19 25  1  0  0  0  0
 20 19  2  0  0  0  0
 21 22  2  0  0  0  0
 21 20  1  0  0  0  0
 22 23  1  0  0  0  0
 23 16  1  0  0  0  0
 23 24  2  0  0  0  0
 26 20  1  0  0  0  0
 27 21  1  0  0  0  0
 28  2  1  0  0  0  0
 29 30  1  0  0  0  0
 29 28  1  0  0  0  0
 30 31  1  0  0  0  0
 32 33  1  0  0  0  0
 32 30  2  0  0  0  0
 34 32  1  0  0  0  0
 35 34  2  0  0  0  0
 35 36  1  0  0  0  0
 36 29  2  0  0  0  0
 37 36  1  0  0  0  0
 38 35  1  0  0  0  0
 39 48  1  0  0  0  0
 39 38  1  0  0  0  0
 40 39  2  0  0  0  0
 41 40  1  0  0  0  0
 42 44  2  0  0  0  0
 42 40  1  0  0  0  0
 43 42  1  0  0  0  0
 44 46  1  0  0  0  0
 45 44  1  0  0  0  0
 46 47  1  0  0  0  0
 46 48  2  0  0  0  0
 48 49  1  0  0  0  0
 49 50  1  0  0  0  0
 49 34  1  0  0  0  0
M  END
>  <minimizedAffinity>
-4.78915119

>  <minimizedRMSD>
1.03545284

$$$$
