
 OpenBabel03252502243D

 47 51  0  0  1  0  0  0  0  0999 V2000
   47.5870   34.4450   42.5840 N   0  0  0  0  0  0  0  0  0  0  0  0
   48.9730   34.8700   42.6550 C   0  0  0  0  0  0  0  0  0  0  0  0
   49.0580   35.9790   41.5830 C   0  0  0  0  0  0  0  0  0  0  0  0
   48.8870   35.3430   40.2270 C   0  0  0  0  0  0  0  0  0  0  0  0
   47.7750   34.3680   40.1470 C   0  0  0  0  0  0  0  0  0  0  0  0
   46.8800   34.2820   41.3390 C   0  0  1  0  0  0  0  0  0  0  0  0
   49.6460   34.0380   42.3660 H   0  0  0  0  0  0  0  0  0  0  0  0
   49.1800   35.2880   43.6510 H   0  0  0  0  0  0  0  0  0  0  0  0
   50.0400   36.4560   41.6540 H   0  0  0  0  0  0  0  0  0  0  0  0
   48.2010   36.6600   41.7840 H   0  0  0  0  0  0  0  0  0  0  0  0
   49.8500   34.8180   40.0040 H   0  0  0  0  0  0  0  0  0  0  0  0
   48.8290   36.1540   39.4670 H   0  0  0  0  0  0  0  0  0  0  0  0
   48.1340   33.3410   39.8790 H   0  0  0  0  0  0  0  0  0  0  0  0
   47.1280   34.6600   39.2870 H   0  0  0  0  0  0  0  0  0  0  0  0
   46.1040   35.0700   41.3180 H   0  0  0  0  0  0  0  0  0  0  0  0
   45.0550   34.5740   45.3440 C   0  0  0  0  0  0  0  0  0  0  0  0
   45.7080   34.9170   44.1530 C   0  0  0  0  0  0  0  0  0  0  0  0
   46.8540   34.1650   43.7880 C   0  0  0  0  0  0  0  0  0  0  0  0
   47.2440   33.1630   44.6130 N   0  0  0  0  0  0  0  0  0  0  0  0
   46.5850   32.8630   45.7580 C   0  0  0  0  0  0  0  0  0  0  0  0
   45.4890   33.5760   46.1140 N   0  0  0  0  0  0  0  0  0  0  0  0
   44.2010   35.2250   45.5010 H   0  0  0  0  0  0  0  0  0  0  0  0
   45.4250   35.7050   43.4760 H   0  0  0  0  0  0  0  0  0  0  0  0
   46.9030   32.0670   46.4030 H   0  0  0  0  0  0  0  0  0  0  0  0
   46.2560   33.0370   41.3250 O   0  0  0  0  0  0  0  0  0  0  0  0
   44.8990   32.7850   41.2500 C   0  0  0  0  0  0  0  0  0  0  0  0
   44.1060   31.9930   42.0540 C   0  0  0  0  0  0  0  0  0  0  0  0
   44.6200   31.5070   42.8480 H   0  0  0  0  0  0  0  0  0  0  0  0
   42.7580   31.8960   41.7790 C   0  0  0  0  0  0  0  0  0  0  0  0
   42.2210   31.2410   42.4800 H   0  0  0  0  0  0  0  0  0  0  0  0
   42.1180   32.5380   40.7420 C   0  0  0  0  0  0  0  0  0  0  0  0
   42.9090   33.3250   39.9430 C   0  0  0  0  0  0  0  0  0  0  0  0
   44.2470   33.4360   40.1980 C   0  0  0  0  0  0  0  0  0  0  0  0
   44.7970   34.0860   39.5060 H   0  0  0  0  0  0  0  0  0  0  0  0
   42.1470   34.1850   38.5820 S   0  0  0  0  0  0  0  0  0  0  0  0
   40.4260   33.7590   38.6290 C   0  0  0  0  0  0  0  0  0  0  0  0
   39.6460   34.3160   37.6610 C   0  0  0  0  0  0  0  0  0  0  0  0
   40.0220   34.9740   36.9070 H   0  0  0  0  0  0  0  0  0  0  0  0
   38.2940   34.0350   37.6270 C   0  0  0  0  0  0  0  0  0  0  0  0
   37.5870   34.4230   36.9060 H   0  0  0  0  0  0  0  0  0  0  0  0
   37.7740   33.1890   38.5860 C   0  0  0  0  0  0  0  0  0  0  0  0
   36.7210   32.9470   38.5890 H   0  0  0  0  0  0  0  0  0  0  0  0
   38.6230   32.6590   39.5370 C   0  0  0  0  0  0  0  0  0  0  0  0
   38.1450   31.9940   40.2680 H   0  0  0  0  0  0  0  0  0  0  0  0
   39.9780   32.9110   39.6100 C   0  0  0  0  0  0  0  0  0  0  0  0
   40.7310   32.3110   40.6260 N   0  0  0  0  0  0  0  0  0  0  0  0
   40.2360   31.6880   41.2970 H   0  0  0  0  0  0  0  0  0  0  0  0
  1  2  1  0  0  0  0
  1 18  1  0  0  0  0
  2  8  1  0  0  0  0
  3  9  1  0  0  0  0
  3 10  1  0  0  0  0
  3  2  1  0  0  0  0
  4  3  1  0  0  0  0
  5  4  1  0  0  0  0
  5  6  1  0  0  0  0
  6 15  1  6  0  0  0
  6  1  1  0  0  0  0
  7  2  1  0  0  0  0
 11  4  1  0  0  0  0
 12  4  1  0  0  0  0
 13  5  1  0  0  0  0
 14  5  1  0  0  0  0
 16 22  1  0  0  0  0
 16 21  1  0  0  0  0
 17 16  2  0  0  0  0
 18 17  1  0  0  0  0
 18 19  2  0  0  0  0
 19 20  1  0  0  0  0
 20 21  2  0  0  0  0
 20 24  1  0  0  0  0
 23 17  1  0  0  0  0
 25  6  1  0  0  0  0
 26 25  1  0  0  0  0
 26 27  1  0  0  0  0
 27 28  1  0  0  0  0
 29 27  2  0  0  0  0
 29 30  1  0  0  0  0
 31 29  1  0  0  0  0
 32 33  1  0  0  0  0
 32 31  2  0  0  0  0
 33 26  2  0  0  0  0
 34 33  1  0  0  0  0
 35 36  1  0  0  0  0
 35 32  1  0  0  0  0
 36 45  1  0  0  0  0
 37 36  2  0  0  0  0
 38 37  1  0  0  0  0
 39 37  1  0  0  0  0
 39 41  2  0  0  0  0
 40 39  1  0  0  0  0
 41 42  1  0  0  0  0
 41 43  1  0  0  0  0
 43 45  2  0  0  0  0
 43 44  1  0  0  0  0
 45 46  1  0  0  0  0
 46 31  1  0  0  0  0
 46 47  1  0  0  0  0
M  END
>  <minimizedAffinity>
-6.88142109

>  <minimizedRMSD>
1.22218716

$$$$
