
 OpenBabel03252506133D

 49 53  0  0  0  0  0  0  0  0999 V2000
   48.3150   34.6670   36.9620 O   0  0  0  0  0  0  0  0  0  0  0  0
   47.5640   33.3980   37.2830 P   0  0  2  0  0  0  0  0  0  0  0  0
   46.4210   33.0560   36.0640 O   0  0  0  0  0  0  0  0  0  0  0  0
   46.4860   33.7540   35.3930 H   0  0  0  0  0  0  0  0  0  0  0  0
   46.7490   33.4950   38.7540 O   0  0  0  0  0  0  0  0  0  0  0  0
   45.2020   33.5840   41.1070 F   0  0  0  0  0  0  0  0  0  0  0  0
   46.3850   34.1720   41.0230 C   0  0  0  0  0  0  0  0  0  0  0  0
   46.8780   34.8500   42.1220 C   0  0  0  0  0  0  0  0  0  0  0  0
   48.1170   35.5000   42.1270 C   0  0  0  0  0  0  0  0  0  0  0  0
   48.9030   35.4680   40.9730 C   0  0  0  0  0  0  0  0  0  0  0  0
   48.3810   34.7830   39.8990 C   0  0  0  0  0  0  0  0  0  0  0  0
   47.1790   34.1480   39.8800 C   0  0  0  0  0  0  0  0  0  0  0  0
   48.4360   36.0140   43.0360 H   0  0  0  0  0  0  0  0  0  0  0  0
   49.8500   35.9820   41.0230 H   0  0  0  0  0  0  0  0  0  0  0  0
   49.0870   34.8280   39.0780 H   0  0  0  0  0  0  0  0  0  0  0  0
   45.5060   33.9550   45.4050 C   0  0  0  0  0  0  0  0  0  0  0  0
   44.6360   35.0300   45.6620 C   0  0  0  0  0  0  0  0  0  0  0  0
   44.5210   36.0730   44.6960 C   0  0  0  0  0  0  0  0  0  0  0  0
   45.2810   35.9460   43.5660 N   0  0  0  0  0  0  0  0  0  0  0  0
   46.0950   34.9090   43.3610 C   0  0  0  0  0  0  0  0  0  0  0  0
   46.2040   33.9270   44.2710 N   0  0  0  0  0  0  0  0  0  0  0  0
   44.0520   35.1100   46.5470 H   0  0  0  0  0  0  0  0  0  0  0  0
   43.8610   36.9120   44.8640 H   0  0  0  0  0  0  0  0  0  0  0  0
   45.6070   32.9270   46.3760 N   0  0  0  0  0  0  0  0  0  0  0  0
   45.3190   31.9150   46.3410 H   0  0  0  0  0  0  0  0  0  0  0  0
   46.0150   33.0520   47.3320 H   0  0  0  0  0  0  0  0  0  0  0  0
   48.6540   32.1010   37.2220 O   0  0  0  0  0  0  0  0  0  0  0  0
   48.8720   31.3770   38.3880 C   0  0  0  0  0  0  0  0  0  0  0  0
   48.0080   30.3350   38.6650 C   0  0  0  0  0  0  0  0  0  0  0  0
   47.1930   30.1050   37.9880 H   0  0  0  0  0  0  0  0  0  0  0  0
   48.2090   29.6020   39.8220 C   0  0  0  0  0  0  0  0  0  0  0  0
   47.4810   28.7900   39.9750 H   0  0  0  0  0  0  0  0  0  0  0  0
   49.2230   29.8380   40.7290 C   0  0  0  0  0  0  0  0  0  0  0  0
   50.0490   30.8640   40.4240 C   0  0  0  0  0  0  0  0  0  0  0  0
   49.8830   31.5990   39.3070 C   0  0  0  0  0  0  0  0  0  0  0  0
   50.5640   32.4330   39.0720 H   0  0  0  0  0  0  0  0  0  0  0  0
   51.3850   31.2370   41.5430 S   0  0  0  0  0  0  0  0  0  0  0  0
   51.2470   30.0480   42.8650 C   0  0  0  0  0  0  0  0  0  0  0  0
   52.1820   30.1340   43.8680 C   0  0  0  0  0  0  0  0  0  0  0  0
   52.9660   30.8850   43.8560 H   0  0  0  0  0  0  0  0  0  0  0  0
   52.1540   29.2600   44.9280 C   0  0  0  0  0  0  0  0  0  0  0  0
   52.8760   29.3150   45.7140 H   0  0  0  0  0  0  0  0  0  0  0  0
   51.1660   28.3090   44.9450 C   0  0  0  0  0  0  0  0  0  0  0  0
   51.1490   27.6260   45.7800 H   0  0  0  0  0  0  0  0  0  0  0  0
   50.2620   28.2730   43.9190 C   0  0  0  0  0  0  0  0  0  0  0  0
   49.5160   27.4800   44.0270 H   0  0  0  0  0  0  0  0  0  0  0  0
   50.2390   29.1210   42.8310 C   0  0  0  0  0  0  0  0  0  0  0  0
   49.2700   28.9940   41.8400 N   0  0  0  0  0  0  0  0  0  0  0  0
   48.5750   28.2300   41.9730 H   0  0  0  0  0  0  0  0  0  0  0  0
  2  1  2  6  0  0  0
  2  5  1  0  0  0  0
  3  2  1  0  0  0  0
  4  3  1  0  0  0  0
  5 12  1  0  0  0  0
  7  6  1  0  0  0  0
  7  8  1  0  0  0  0
  8  9  2  0  0  0  0
  8 20  1  0  0  0  0
  9 13  1  0  0  0  0
 10 14  1  0  0  0  0
 10  9  1  0  0  0  0
 11 10  2  0  0  0  0
 12 11  1  0  0  0  0
 12  7  2  0  0  0  0
 15 11  1  0  0  0  0
 16 17  1  0  0  0  0
 16 24  1  0  0  0  0
 17 22  1  0  0  0  0
 18 23  1  0  0  0  0
 18 17  2  0  0  0  0
 19 18  1  0  0  0  0
 20 19  2  0  0  0  0
 20 21  1  0  0  0  0
 21 16  2  0  0  0  0
 24 26  1  0  0  0  0
 25 24  1  0  0  0  0
 27  2  1  0  0  0  0
 27 28  1  0  0  0  0
 28 29  2  0  0  0  0
 28 35  1  0  0  0  0
 29 31  1  0  0  0  0
 30 29  1  0  0  0  0
 31 32  1  0  0  0  0
 31 33  2  0  0  0  0
 33 48  1  0  0  0  0
 34 33  1  0  0  0  0
 34 37  1  0  0  0  0
 35 34  2  0  0  0  0
 36 35  1  0  0  0  0
 37 38  1  0  0  0  0
 38 39  1  0  0  0  0
 39 41  2  0  0  0  0
 40 39  1  0  0  0  0
 41 43  1  0  0  0  0
 41 42  1  0  0  0  0
 43 44  1  0  0  0  0
 45 46  1  0  0  0  0
 45 43  2  0  0  0  0
 47 38  2  0  0  0  0
 47 45  1  0  0  0  0
 48 49  1  0  0  0  0
 48 47  1  0  0  0  0
M  END
>  <minimizedAffinity>
-6.50960255

>  <minimizedRMSD>
4.53574944

$$$$
