
 OpenBabel03242523123D

 59 65  0  0  1  0  0  0  0  0999 V2000
   46.6710   31.0980   44.2420 C   0  0  0  0  0  0  0  0  0  0  0  0
   47.3050   32.2810   43.8020 C   0  0  0  0  0  0  0  0  0  0  0  0
   48.5800   32.0270   43.3580 C   0  0  0  0  0  0  0  0  0  0  0  0
   49.1930   30.8130   43.3310 C   0  0  0  0  0  0  0  0  0  0  0  0
   48.5000   29.6950   43.7860 C   0  0  0  0  0  0  0  0  0  0  0  0
   47.2180   29.8450   44.2480 C   0  0  0  0  0  0  0  0  0  0  0  0
   49.3850   28.6410   43.6330 O   0  0  0  0  0  0  0  0  0  0  0  0
   50.5860   29.0920   43.0390 C   0  0  2  0  0  0  0  0  0  0  0  0
   50.4680   30.5020   42.8940 O   0  0  0  0  0  0  0  0  0  0  0  0
   45.6450   30.9510   44.6450 H   0  0  0  0  0  0  0  0  0  0  0  0
   49.0680   32.8890   43.0260 H   0  0  0  0  0  0  0  0  0  0  0  0
   46.7960   28.9310   44.5640 H   0  0  0  0  0  0  0  0  0  0  0  0
   51.4550   28.8460   43.6880 H   0  0  0  0  0  0  0  0  0  0  0  0
   45.4140   35.5120   43.6500 C   0  0  0  0  0  0  0  0  0  0  0  0
   46.2700   34.5170   43.1820 C   0  0  0  0  0  0  0  0  0  0  0  0
   46.5250   33.4290   43.9620 C   0  0  0  0  0  0  0  0  0  0  0  0
   45.9120   33.3830   45.1860 N   0  0  0  0  0  0  0  0  0  0  0  0
   45.0900   34.3390   45.6320 C   0  0  0  0  0  0  0  0  0  0  0  0
   44.8490   35.3800   44.8760 N   0  0  0  0  0  0  0  0  0  0  0  0
   45.2050   36.3760   43.0400 H   0  0  0  0  0  0  0  0  0  0  0  0
   44.5780   34.3610   46.5840 H   0  0  0  0  0  0  0  0  0  0  0  0
   46.8490   34.7090   41.9280 N   0  0  0  0  0  0  0  0  0  0  0  0
   48.0930   35.3920   41.7650 C   0  0  0  0  0  0  0  0  0  0  0  0
   48.6560   35.3570   40.3720 C   0  0  0  0  0  0  0  0  0  0  0  0
   48.4830   34.1530   39.7000 N   0  0  0  0  0  0  0  0  0  0  0  0
   47.2810   33.5120   39.8270 C   0  0  0  0  0  0  0  0  0  0  0  0
   46.3170   34.2860   40.6940 C   0  0  0  0  0  0  0  0  0  0  0  0
   48.8810   35.0910   42.4950 H   0  0  0  0  0  0  0  0  0  0  0  0
   47.8960   36.4720   42.0120 H   0  0  0  0  0  0  0  0  0  0  0  0
   48.1230   36.1640   39.7910 H   0  0  0  0  0  0  0  0  0  0  0  0
   49.7060   35.7120   40.4250 H   0  0  0  0  0  0  0  0  0  0  0  0
   49.1600   33.8720   38.9930 H   0  0  0  0  0  0  0  0  0  0  0  0
   47.3100   32.4560   40.1960 H   0  0  0  0  0  0  0  0  0  0  0  0
   46.7830   33.4180   38.8180 H   0  0  0  0  0  0  0  0  0  0  0  0
   45.4780   33.5690   40.9130 H   0  0  0  0  0  0  0  0  0  0  0  0
   45.8850   35.0880   40.0490 H   0  0  0  0  0  0  0  0  0  0  0  0
   50.6660   28.5080   41.7710 O   0  0  0  0  0  0  0  0  0  0  0  0
   51.3490   28.9670   40.6820 C   0  0  0  0  0  0  0  0  0  0  0  0
   50.8220   29.5690   39.5580 C   0  0  0  0  0  0  0  0  0  0  0  0
   49.7490   29.6920   39.5350 H   0  0  0  0  0  0  0  0  0  0  0  0
   51.6730   29.9690   38.5520 C   0  0  0  0  0  0  0  0  0  0  0  0
   51.1720   30.4370   37.6990 H   0  0  0  0  0  0  0  0  0  0  0  0
   53.0380   29.8120   38.5850 C   0  0  0  0  0  0  0  0  0  0  0  0
   53.5440   29.2180   39.6950 C   0  0  0  0  0  0  0  0  0  0  0  0
   52.7410   28.8150   40.6980 C   0  0  0  0  0  0  0  0  0  0  0  0
   53.2120   28.3410   41.5720 H   0  0  0  0  0  0  0  0  0  0  0  0
   55.3070   28.9800   39.8090 S   0  0  0  0  0  0  0  0  0  0  0  0
   55.9690   29.6470   38.2940 C   0  0  0  0  0  0  0  0  0  0  0  0
   57.3340   29.5590   38.1810 C   0  0  0  0  0  0  0  0  0  0  0  0
   57.9960   29.1220   38.9400 H   0  0  0  0  0  0  0  0  0  0  0  0
   57.9470   30.0510   37.0390 C   0  0  0  0  0  0  0  0  0  0  0  0
   59.0150   30.0220   36.8690 H   0  0  0  0  0  0  0  0  0  0  0  0
   57.1640   30.6120   36.0520 C   0  0  0  0  0  0  0  0  0  0  0  0
   57.6300   31.0000   35.1560 H   0  0  0  0  0  0  0  0  0  0  0  0
   55.8000   30.6570   36.2550 C   0  0  0  0  0  0  0  0  0  0  0  0
   55.2480   31.1180   35.4220 H   0  0  0  0  0  0  0  0  0  0  0  0
   55.1380   30.1830   37.3700 C   0  0  0  0  0  0  0  0  0  0  0  0
   53.7510   30.2780   37.4720 N   0  0  0  0  0  0  0  0  0  0  0  0
   53.2580   30.7210   36.6670 H   0  0  0  0  0  0  0  0  0  0  0  0
  1  6  1  0  0  0  0
  1 10  1  0  0  0  0
  2 16  1  0  0  0  0
  2  1  2  0  0  0  0
  3  2  1  0  0  0  0
  4  3  2  0  0  0  0
  4  5  1  0  0  0  0
  5  6  2  0  0  0  0
  6 12  1  0  0  0  0
  7  5  1  0  0  0  0
  8  7  1  0  0  0  0
  8 13  1  1  0  0  0
  9  8  1  0  0  0  0
  9  4  1  0  0  0  0
 11  3  1  0  0  0  0
 14 19  1  0  0  0  0
 15 14  2  0  0  0  0
 15 16  1  0  0  0  0
 16 17  2  0  0  0  0
 17 18  1  0  0  0  0
 18 21  1  0  0  0  0
 19 18  2  0  0  0  0
 20 14  1  0  0  0  0
 22 15  1  0  0  0  0
 23 22  1  0  0  0  0
 23 29  1  0  0  0  0
 23 28  1  0  0  0  0
 24 31  1  0  0  0  0
 24 23  1  0  0  0  0
 25 26  1  0  0  0  0
 25 24  1  0  0  0  0
 26 33  1  0  0  0  0
 26 27  1  0  0  0  0
 27 35  1  0  0  0  0
 27 22  1  0  0  0  0
 30 24  1  0  0  0  0
 32 25  1  0  0  0  0
 34 26  1  0  0  0  0
 36 27  1  0  0  0  0
 37  8  1  0  0  0  0
 38 45  1  0  0  0  0
 38 37  1  0  0  0  0
 39 38  2  0  0  0  0
 40 39  1  0  0  0  0
 41 43  2  0  0  0  0
 41 39  1  0  0  0  0
 42 41  1  0  0  0  0
 43 44  1  0  0  0  0
 44 47  1  0  0  0  0
 44 45  2  0  0  0  0
 45 46  1  0  0  0  0
 48 47  1  0  0  0  0
 49 48  1  0  0  0  0
 49 50  1  0  0  0  0
 51 49  2  0  0  0  0
 52 51  1  0  0  0  0
 53 55  2  0  0  0  0
 53 51  1  0  0  0  0
 54 53  1  0  0  0  0
 55 57  1  0  0  0  0
 56 55  1  0  0  0  0
 57 58  1  0  0  0  0
 57 48  2  0  0  0  0
 58 43  1  0  0  0  0
 59 58  1  0  0  0  0
M  END
>  <minimizedAffinity>
-5.82774496

>  <minimizedRMSD>
4.70120049

$$$$
