
 OpenBabel03252505473D

 42 46  0  0  1  0  0  0  0  0999 V2000
   52.3580   28.6800   44.7040 C   0  0  0  0  0  0  0  0  0  0  0  0
   52.2280   27.5170   43.9870 C   0  0  0  0  0  0  0  0  0  0  0  0
   52.4540   26.6280   44.5450 H   0  0  0  0  0  0  0  0  0  0  0  0
   51.8460   27.4660   42.6680 C   0  0  0  0  0  0  0  0  0  0  0  0
   51.7940   26.4520   42.2510 H   0  0  0  0  0  0  0  0  0  0  0  0
   51.5590   28.6150   41.9620 C   0  0  0  0  0  0  0  0  0  0  0  0
   51.6630   29.8180   42.6020 C   0  0  0  0  0  0  0  0  0  0  0  0
   52.0470   29.8090   43.9110 C   0  0  0  0  0  0  0  0  0  0  0  0
   52.0880   30.8380   44.2970 H   0  0  0  0  0  0  0  0  0  0  0  0
   51.2910   31.2990   41.6820 S   0  0  0  0  0  0  0  0  0  0  0  0
   50.8460   30.7690   40.0390 C   0  0  0  0  0  0  0  0  0  0  0  0
   50.5250   31.7680   39.1820 C   0  0  0  0  0  0  0  0  0  0  0  0
   50.5260   32.8150   39.4330 H   0  0  0  0  0  0  0  0  0  0  0  0
   50.1660   31.4560   37.8800 C   0  0  0  0  0  0  0  0  0  0  0  0
   49.9060   32.2210   37.1730 H   0  0  0  0  0  0  0  0  0  0  0  0
   50.1520   30.1390   37.5180 C   0  0  0  0  0  0  0  0  0  0  0  0
   49.8730   29.8830   36.5050 H   0  0  0  0  0  0  0  0  0  0  0  0
   50.4880   29.1890   38.4390 C   0  0  0  0  0  0  0  0  0  0  0  0
   50.4490   28.1540   38.0630 H   0  0  0  0  0  0  0  0  0  0  0  0
   50.8550   29.4270   39.7480 C   0  0  0  0  0  0  0  0  0  0  0  0
   51.1880   28.3820   40.6360 N   0  0  0  0  0  0  0  0  0  0  0  0
   51.1270   27.4350   40.2050 H   0  0  0  0  0  0  0  0  0  0  0  0
   52.6950   29.0720   45.9500 O   0  0  0  0  0  0  0  0  0  0  0  0
   51.2550   30.1630   49.0500 C   0  0  0  0  0  0  0  0  0  0  0  0
   49.9520   29.6190   48.9030 C   0  0  0  0  0  0  0  0  0  0  0  0
   49.5970   28.8990   47.7650 C   0  0  0  0  0  0  0  0  0  0  0  0
   50.5630   28.7560   46.8230 N   0  0  0  0  0  0  0  0  0  0  0  0
   51.8190   29.2900   46.9810 C   0  0  0  0  0  0  0  0  0  0  0  0
   52.1500   29.9770   48.0750 N   0  0  0  0  0  0  0  0  0  0  0  0
   49.2480   29.7870   49.7110 H   0  0  0  0  0  0  0  0  0  0  0  0
   48.6240   28.4920   47.6540 H   0  0  0  0  0  0  0  0  0  0  0  0
   51.5660   30.9250   50.2720 C   0  0  1  0  0  0  0  0  0  0  0  0
   51.2350   32.4500   50.0840 C   0  0  1  0  0  0  0  0  0  0  0  0
   50.6160   31.5370   51.1190 C   0  0  0  0  0  0  0  0  0  0  0  0
   52.6230   30.7530   50.6070 H   0  0  0  0  0  0  0  0  0  0  0  0
   50.6440   32.7400   49.2200 H   0  0  0  0  0  0  0  0  0  0  0  0
   50.8860   31.7070   52.1950 H   0  0  0  0  0  0  0  0  0  0  0  0
   49.5100   31.4400   51.0180 H   0  0  0  0  0  0  0  0  0  0  0  0
   52.2930   33.3730   50.6420 C   0  0  0  0  0  0  0  0  0  0  0  0
   52.0810   34.6880   50.3440 F   0  0  0  0  0  0  0  0  0  0  0  0
   52.2980   33.2460   52.0470 F   0  0  0  0  0  0  0  0  0  0  0  0
   53.5610   32.9690   50.2520 F   0  0  0  0  0  0  0  0  0  0  0  0
  1 23  1  0  0  0  0
  2  3  1  0  0  0  0
  2  1  1  0  0  0  0
  4  2  2  0  0  0  0
  5  4  1  0  0  0  0
  6  7  2  0  0  0  0
  6  4  1  0  0  0  0
  7  8  1  0  0  0  0
  8  9  1  0  0  0  0
  8  1  2  0  0  0  0
 10  7  1  0  0  0  0
 11 10  1  0  0  0  0
 12 13  1  0  0  0  0
 12 11  2  0  0  0  0
 14 12  1  0  0  0  0
 15 14  1  0  0  0  0
 16 14  2  0  0  0  0
 16 18  1  0  0  0  0
 17 16  1  0  0  0  0
 18 20  2  0  0  0  0
 19 18  1  0  0  0  0
 20 11  1  0  0  0  0
 20 21  1  0  0  0  0
 21  6  1  0  0  0  0
 22 21  1  0  0  0  0
 23 28  1  0  0  0  0
 24 32  1  0  0  0  0
 25 24  1  0  0  0  0
 25 30  1  0  0  0  0
 26 25  2  0  0  0  0
 27 28  2  0  0  0  0
 27 26  1  0  0  0  0
 28 29  1  0  0  0  0
 29 24  2  0  0  0  0
 31 26  1  0  0  0  0
 32 35  1  1  0  0  0
 32 34  1  0  0  0  0
 33 36  1  6  0  0  0
 33 32  1  0  0  0  0
 33 39  1  0  0  0  0
 33 34  1  0  0  0  0
 34 37  1  0  0  0  0
 38 34  1  0  0  0  0
 39 41  1  0  0  0  0
 40 39  1  0  0  0  0
 42 39  1  0  0  0  0
M  END
>  <minimizedAffinity>
-3.32753992

>  <minimizedRMSD>
10.7472153

$$$$
