
 OpenBabel03252506133D

 49 53  0  0  0  0  0  0  0  0999 V2000
   48.1580   34.5790   37.1070 O   0  0  0  0  0  0  0  0  0  0  0  0
   47.2030   33.4220   37.2660 P   0  0  2  0  0  0  0  0  0  0  0  0
   45.8700   33.5990   36.2160 O   0  0  0  0  0  0  0  0  0  0  0  0
   45.9970   34.4180   35.7130 H   0  0  0  0  0  0  0  0  0  0  0  0
   46.6170   33.2910   38.8400 O   0  0  0  0  0  0  0  0  0  0  0  0
   45.1120   33.4620   41.2150 F   0  0  0  0  0  0  0  0  0  0  0  0
   46.2910   34.0490   41.0890 C   0  0  0  0  0  0  0  0  0  0  0  0
   46.8020   34.7660   42.1550 C   0  0  0  0  0  0  0  0  0  0  0  0
   48.0400   35.4170   42.1140 C   0  0  0  0  0  0  0  0  0  0  0  0
   48.8050   35.3460   40.9490 C   0  0  0  0  0  0  0  0  0  0  0  0
   48.2670   34.6220   39.9090 C   0  0  0  0  0  0  0  0  0  0  0  0
   47.0660   33.9850   39.9340 C   0  0  0  0  0  0  0  0  0  0  0  0
   48.3730   35.9650   43.0000 H   0  0  0  0  0  0  0  0  0  0  0  0
   49.7520   35.8620   40.9640 H   0  0  0  0  0  0  0  0  0  0  0  0
   48.9580   34.6390   39.0750 H   0  0  0  0  0  0  0  0  0  0  0  0
   45.4780   33.9790   45.4850 C   0  0  0  0  0  0  0  0  0  0  0  0
   44.6220   35.0690   45.7240 C   0  0  0  0  0  0  0  0  0  0  0  0
   44.5000   36.0840   44.7310 C   0  0  0  0  0  0  0  0  0  0  0  0
   45.2400   35.9180   43.5930 N   0  0  0  0  0  0  0  0  0  0  0  0
   46.0410   34.8680   43.4050 C   0  0  0  0  0  0  0  0  0  0  0  0
   46.1560   33.9110   44.3410 N   0  0  0  0  0  0  0  0  0  0  0  0
   44.0540   35.1800   46.6170 H   0  0  0  0  0  0  0  0  0  0  0  0
   43.8500   36.9340   44.8850 H   0  0  0  0  0  0  0  0  0  0  0  0
   45.5860   32.9790   46.4830 N   0  0  0  0  0  0  0  0  0  0  0  0
   45.2890   31.9690   46.4820 H   0  0  0  0  0  0  0  0  0  0  0  0
   46.0110   33.1270   47.4280 H   0  0  0  0  0  0  0  0  0  0  0  0
   47.9790   32.0110   36.7370 O   0  0  0  0  0  0  0  0  0  0  0  0
   47.2660   30.8200   36.7750 C   0  0  0  0  0  0  0  0  0  0  0  0
   47.9020   29.7090   37.2920 C   0  0  0  0  0  0  0  0  0  0  0  0
   48.9230   29.7820   37.6520 H   0  0  0  0  0  0  0  0  0  0  0  0
   47.2080   28.5130   37.3390 C   0  0  0  0  0  0  0  0  0  0  0  0
   47.7820   27.6730   37.7640 H   0  0  0  0  0  0  0  0  0  0  0  0
   45.9100   28.3460   36.9010 C   0  0  0  0  0  0  0  0  0  0  0  0
   45.3190   29.4550   36.3990 C   0  0  0  0  0  0  0  0  0  0  0  0
   45.9640   30.6360   36.3390 C   0  0  0  0  0  0  0  0  0  0  0  0
   45.4690   31.5310   35.9290 H   0  0  0  0  0  0  0  0  0  0  0  0
   43.6420   29.3270   35.8120 S   0  0  0  0  0  0  0  0  0  0  0  0
   43.1710   27.6250   36.0690 C   0  0  0  0  0  0  0  0  0  0  0  0
   41.9010   27.2750   35.6870 C   0  0  0  0  0  0  0  0  0  0  0  0
   41.2150   27.9950   35.2500 H   0  0  0  0  0  0  0  0  0  0  0  0
   41.4510   25.9860   35.8480 C   0  0  0  0  0  0  0  0  0  0  0  0
   40.4640   25.7000   35.5550 H   0  0  0  0  0  0  0  0  0  0  0  0
   42.3140   25.0740   36.3990 C   0  0  0  0  0  0  0  0  0  0  0  0
   41.9560   24.0630   36.5220 H   0  0  0  0  0  0  0  0  0  0  0  0
   43.5680   25.4820   36.7590 C   0  0  0  0  0  0  0  0  0  0  0  0
   44.1780   24.6810   37.1880 H   0  0  0  0  0  0  0  0  0  0  0  0
   44.0750   26.7580   36.6240 C   0  0  0  0  0  0  0  0  0  0  0  0
   45.3720   27.0650   37.0260 N   0  0  0  0  0  0  0  0  0  0  0  0
   45.9250   26.2790   37.4300 H   0  0  0  0  0  0  0  0  0  0  0  0
  2  1  2  6  0  0  0
  2  5  1  0  0  0  0
  3  2  1  0  0  0  0
  4  3  1  0  0  0  0
  5 12  1  0  0  0  0
  7  6  1  0  0  0  0
  7  8  1  0  0  0  0
  8 20  1  0  0  0  0
  9  8  2  0  0  0  0
  9 13  1  0  0  0  0
 10 14  1  0  0  0  0
 10  9  1  0  0  0  0
 11 12  1  0  0  0  0
 11 10  2  0  0  0  0
 12  7  2  0  0  0  0
 15 11  1  0  0  0  0
 16 17  1  0  0  0  0
 16 24  1  0  0  0  0
 17 22  1  0  0  0  0
 18 23  1  0  0  0  0
 18 17  2  0  0  0  0
 19 18  1  0  0  0  0
 20 19  2  0  0  0  0
 20 21  1  0  0  0  0
 21 16  2  0  0  0  0
 24 26  1  0  0  0  0
 25 24  1  0  0  0  0
 27 28  1  0  0  0  0
 27  2  1  0  0  0  0
 28 29  1  0  0  0  0
 29 31  2  0  0  0  0
 29 30  1  0  0  0  0
 31 32  1  0  0  0  0
 33 48  1  0  0  0  0
 33 31  1  0  0  0  0
 34 33  2  0  0  0  0
 35 34  1  0  0  0  0
 35 28  2  0  0  0  0
 36 35  1  0  0  0  0
 37 38  1  0  0  0  0
 37 34  1  0  0  0  0
 38 47  1  0  0  0  0
 39 41  1  0  0  0  0
 39 38  2  0  0  0  0
 40 39  1  0  0  0  0
 41 43  2  0  0  0  0
 42 41  1  0  0  0  0
 43 44  1  0  0  0  0
 43 45  1  0  0  0  0
 45 46  1  0  0  0  0
 47 45  2  0  0  0  0
 47 48  1  0  0  0  0
 48 49  1  0  0  0  0
M  END
>  <minimizedAffinity>
-6.10848713

>  <minimizedRMSD>
0.740722299

$$$$
