
 OpenBabel03252509013D

 58 62  0  0  1  0  0  0  0  0999 V2000
   47.1000   34.1310   43.2050 N   0  0  0  0  0  0  0  0  0  0  0  0
   46.6700   35.3530   42.6340 C   0  0  0  0  0  0  0  0  0  0  0  0
   45.1940   35.6510   42.7920 C   0  0  0  0  0  0  0  0  0  0  0  0
   44.5940   35.1470   44.0680 C   0  0  0  0  0  0  0  0  0  0  0  0
   45.6270   34.5100   44.9650 C   0  0  0  0  0  0  0  0  0  0  0  0
   46.2700   33.4100   44.0480 C   0  0  2  0  0  0  0  0  0  0  0  0
   46.9210   35.5050   41.5840 H   0  0  0  0  0  0  0  0  0  0  0  0
   47.2010   36.1720   43.1940 H   0  0  0  0  0  0  0  0  0  0  0  0
   44.6530   35.2490   41.9000 H   0  0  0  0  0  0  0  0  0  0  0  0
   45.0570   36.7550   42.7630 H   0  0  0  0  0  0  0  0  0  0  0  0
   43.9960   35.9290   44.5900 H   0  0  0  0  0  0  0  0  0  0  0  0
   43.8570   34.3340   43.8110 H   0  0  0  0  0  0  0  0  0  0  0  0
   46.4000   35.2080   45.3000 H   0  0  0  0  0  0  0  0  0  0  0  0
   45.1010   34.0020   45.7980 H   0  0  0  0  0  0  0  0  0  0  0  0
   45.4050   32.8730   43.6210 H   0  0  0  0  0  0  0  0  0  0  0  0
   48.0730   33.4340   42.4230 C   0  0  0  0  0  0  0  0  0  0  0  0
   48.6450   32.7420   43.0940 H   0  0  0  0  0  0  0  0  0  0  0  0
   48.7890   34.1410   42.0030 H   0  0  0  0  0  0  0  0  0  0  0  0
   47.3730   32.5880   41.4070 C   0  0  0  0  0  0  0  0  0  0  0  0
   46.2900   32.8520   41.3490 H   0  0  0  0  0  0  0  0  0  0  0  0
   47.4110   31.5120   41.6180 H   0  0  0  0  0  0  0  0  0  0  0  0
   49.3370   32.2170   38.2240 C   0  0  0  0  0  0  0  0  0  0  0  0
   48.7960   31.9560   39.4970 C   0  0  0  0  0  0  0  0  0  0  0  0
   47.9400   32.8700   40.0620 C   0  0  0  0  0  0  0  0  0  0  0  0
   47.6580   33.9790   39.3640 N   0  0  0  0  0  0  0  0  0  0  0  0
   48.1810   34.2200   38.1450 C   0  0  0  0  0  0  0  0  0  0  0  0
   49.0220   33.3450   37.5670 N   0  0  0  0  0  0  0  0  0  0  0  0
   50.0120   31.4740   37.8030 H   0  0  0  0  0  0  0  0  0  0  0  0
   49.0460   31.0440   40.0390 H   0  0  0  0  0  0  0  0  0  0  0  0
   47.9070   35.1360   37.6420 H   0  0  0  0  0  0  0  0  0  0  0  0
   46.9980   32.6660   44.9710 O   0  0  0  0  0  0  0  0  0  0  0  0
   45.2940   30.7660   44.2460 O   0  0  0  0  0  0  0  0  0  0  0  0
   46.2820   31.1850   45.3250 P   0  0  2  0  0  0  0  0  0  0  0  0
   45.3320   31.4390   46.7260 O   0  0  0  0  0  0  0  0  0  0  0  0
   45.8960   31.3880   47.5360 H   0  0  0  0  0  0  0  0  0  0  0  0
   47.4100   30.0020   45.6620 O   0  0  0  0  0  0  0  0  0  0  0  0
   47.2100   28.8400   46.3600 C   0  0  0  0  0  0  0  0  0  0  0  0
   45.9840   28.2050   46.3720 C   0  0  0  0  0  0  0  0  0  0  0  0
   45.1630   28.6330   45.8200 H   0  0  0  0  0  0  0  0  0  0  0  0
   45.8360   27.0360   47.0910 C   0  0  0  0  0  0  0  0  0  0  0  0
   44.8270   26.5960   47.0460 H   0  0  0  0  0  0  0  0  0  0  0  0
   46.8610   26.4550   47.8100 C   0  0  0  0  0  0  0  0  0  0  0  0
   48.0860   27.0730   47.8090 C   0  0  0  0  0  0  0  0  0  0  0  0
   48.2110   28.2320   47.0890 C   0  0  0  0  0  0  0  0  0  0  0  0
   49.1850   28.7240   47.0880 H   0  0  0  0  0  0  0  0  0  0  0  0
   49.4320   26.3550   48.7250 S   0  0  0  0  0  0  0  0  0  0  0  0
   48.7760   24.8790   49.4770 C   0  0  0  0  0  0  0  0  0  0  0  0
   49.6400   24.1660   50.2310 C   0  0  0  0  0  0  0  0  0  0  0  0
   50.6720   24.4450   50.3880 H   0  0  0  0  0  0  0  0  0  0  0  0
   49.2250   23.0070   50.8540 C   0  0  0  0  0  0  0  0  0  0  0  0
   49.9130   22.4330   51.4580 H   0  0  0  0  0  0  0  0  0  0  0  0
   47.9150   22.6080   50.6840 C   0  0  0  0  0  0  0  0  0  0  0  0
   47.5470   21.7060   51.1530 H   0  0  0  0  0  0  0  0  0  0  0  0
   47.0890   23.3860   49.9000 C   0  0  0  0  0  0  0  0  0  0  0  0
   46.0600   23.0170   49.8020 H   0  0  0  0  0  0  0  0  0  0  0  0
   47.4610   24.5490   49.2590 C   0  0  0  0  0  0  0  0  0  0  0  0
   46.5240   25.2650   48.4800 N   0  0  0  0  0  0  0  0  0  0  0  0
   45.5680   24.8560   48.4330 H   0  0  0  0  0  0  0  0  0  0  0  0
  1  6  1  0  0  0  0
  2  3  1  0  0  0  0
  2  8  1  0  0  0  0
  2  1  1  0  0  0  0
  3  4  1  0  0  0  0
  4 11  1  0  0  0  0
  4  5  1  0  0  0  0
  5 13  1  0  0  0  0
  5 14  1  0  0  0  0
  6 15  1  6  0  0  0
  6  5  1  0  0  0  0
  6 31  1  0  0  0  0
  7  2  1  0  0  0  0
  9  3  1  0  0  0  0
 10  3  1  0  0  0  0
 12  4  1  0  0  0  0
 16 17  1  0  0  0  0
 16  1  1  0  0  0  0
 18 16  1  0  0  0  0
 19 21  1  0  0  0  0
 19 16  1  0  0  0  0
 20 19  1  0  0  0  0
 22 23  1  0  0  0  0
 23 29  1  0  0  0  0
 23 24  2  0  0  0  0
 24 19  1  0  0  0  0
 25 24  1  0  0  0  0
 26 25  2  0  0  0  0
 27 26  1  0  0  0  0
 27 22  2  0  0  0  0
 28 22  1  0  0  0  0
 30 26  1  0  0  0  0
 31 33  1  0  0  0  0
 33 32  2  6  0  0  0
 33 36  1  0  0  0  0
 33 34  1  0  0  0  0
 34 35  1  0  0  0  0
 36 37  1  0  0  0  0
 37 38  2  0  0  0  0
 37 44  1  0  0  0  0
 38 40  1  0  0  0  0
 39 38  1  0  0  0  0
 40 42  2  0  0  0  0
 41 40  1  0  0  0  0
 42 57  1  0  0  0  0
 43 42  1  0  0  0  0
 43 46  1  0  0  0  0
 44 43  2  0  0  0  0
 45 44  1  0  0  0  0
 46 47  1  0  0  0  0
 47 48  1  0  0  0  0
 48 49  1  0  0  0  0
 48 50  2  0  0  0  0
 50 51  1  0  0  0  0
 52 50  1  0  0  0  0
 52 53  1  0  0  0  0
 54 52  2  0  0  0  0
 55 54  1  0  0  0  0
 56 47  2  0  0  0  0
 56 54  1  0  0  0  0
 57 56  1  0  0  0  0
 58 57  1  0  0  0  0
M  END
>  <minimizedAffinity>
-5.33687496

>  <minimizedRMSD>
1.14976513

$$$$
