
 OpenBabel03242523123D

 59 65  0  0  1  0  0  0  0  0999 V2000
   45.9590   31.5870   44.7550 C   0  0  0  0  0  0  0  0  0  0  0  0
   46.6980   32.6160   44.1320 C   0  0  0  0  0  0  0  0  0  0  0  0
   47.9290   32.1650   43.7210 C   0  0  0  0  0  0  0  0  0  0  0  0
   48.4150   30.9040   43.8760 C   0  0  0  0  0  0  0  0  0  0  0  0
   47.6230   29.9470   44.5060 C   0  0  0  0  0  0  0  0  0  0  0  0
   46.3750   30.2990   44.9500 C   0  0  0  0  0  0  0  0  0  0  0  0
   48.3910   28.7950   44.5090 O   0  0  0  0  0  0  0  0  0  0  0  0
   49.6170   29.0220   43.8410 C   0  0  2  0  0  0  0  0  0  0  0  0
   49.6400   30.3980   43.4810 O   0  0  0  0  0  0  0  0  0  0  0  0
   44.9340   31.6110   45.1860 H   0  0  0  0  0  0  0  0  0  0  0  0
   48.4940   32.9100   43.2560 H   0  0  0  0  0  0  0  0  0  0  0  0
   45.8700   29.4930   45.4080 H   0  0  0  0  0  0  0  0  0  0  0  0
   50.4720   28.7880   44.5120 H   0  0  0  0  0  0  0  0  0  0  0  0
   45.1680   35.9790   43.5090 C   0  0  0  0  0  0  0  0  0  0  0  0
   45.9200   34.8470   43.1990 C   0  0  0  0  0  0  0  0  0  0  0  0
   46.0440   33.8500   44.1200 C   0  0  0  0  0  0  0  0  0  0  0  0
   45.4110   34.0290   45.3210 N   0  0  0  0  0  0  0  0  0  0  0  0
   44.6900   35.1160   45.6160 C   0  0  0  0  0  0  0  0  0  0  0  0
   44.5740   36.0690   44.7250 N   0  0  0  0  0  0  0  0  0  0  0  0
   45.0630   36.7730   42.7870 H   0  0  0  0  0  0  0  0  0  0  0  0
   44.1670   35.3160   46.5410 H   0  0  0  0  0  0  0  0  0  0  0  0
   46.5360   34.8120   41.9490 N   0  0  0  0  0  0  0  0  0  0  0  0
   47.8610   35.3050   41.7420 C   0  0  0  0  0  0  0  0  0  0  0  0
   48.4330   35.0310   40.3800 C   0  0  0  0  0  0  0  0  0  0  0  0
   48.1140   33.7870   39.8500 N   0  0  0  0  0  0  0  0  0  0  0  0
   46.8370   33.3250   40.0160 C   0  0  0  0  0  0  0  0  0  0  0  0
   45.9700   34.3140   40.7580 C   0  0  0  0  0  0  0  0  0  0  0  0
   48.5930   34.9960   42.5250 H   0  0  0  0  0  0  0  0  0  0  0  0
   47.8030   36.4240   41.8550 H   0  0  0  0  0  0  0  0  0  0  0  0
   48.0180   35.8240   39.6930 H   0  0  0  0  0  0  0  0  0  0  0  0
   49.5200   35.2530   40.4220 H   0  0  0  0  0  0  0  0  0  0  0  0
   48.7580   33.3390   39.2000 H   0  0  0  0  0  0  0  0  0  0  0  0
   46.7220   32.3260   40.5070 H   0  0  0  0  0  0  0  0  0  0  0  0
   46.3440   33.1750   39.0110 H   0  0  0  0  0  0  0  0  0  0  0  0
   45.0420   33.7420   41.0350 H   0  0  0  0  0  0  0  0  0  0  0  0
   45.6550   35.0820   40.0100 H   0  0  0  0  0  0  0  0  0  0  0  0
   49.6050   28.2460   42.6780 O   0  0  0  0  0  0  0  0  0  0  0  0
   50.1310   28.5620   41.4590 C   0  0  0  0  0  0  0  0  0  0  0  0
   51.4350   28.3900   41.0430 C   0  0  0  0  0  0  0  0  0  0  0  0
   52.1180   27.9580   41.7600 H   0  0  0  0  0  0  0  0  0  0  0  0
   51.7850   28.7700   39.7650 C   0  0  0  0  0  0  0  0  0  0  0  0
   52.8370   28.5990   39.5190 H   0  0  0  0  0  0  0  0  0  0  0  0
   50.9140   29.3190   38.8550 C   0  0  0  0  0  0  0  0  0  0  0  0
   49.6350   29.4830   39.2770 C   0  0  0  0  0  0  0  0  0  0  0  0
   49.2580   29.1220   40.5190 C   0  0  0  0  0  0  0  0  0  0  0  0
   48.2060   29.2800   40.8010 H   0  0  0  0  0  0  0  0  0  0  0  0
   48.4460   30.1890   38.1520 S   0  0  0  0  0  0  0  0  0  0  0  0
   49.3560   30.5110   36.6520 C   0  0  0  0  0  0  0  0  0  0  0  0
   48.6110   31.0660   35.6420 C   0  0  0  0  0  0  0  0  0  0  0  0
   47.5420   31.3050   35.7130 H   0  0  0  0  0  0  0  0  0  0  0  0
   49.2270   31.3540   34.4340 C   0  0  0  0  0  0  0  0  0  0  0  0
   48.7160   31.7920   33.5860 H   0  0  0  0  0  0  0  0  0  0  0  0
   50.5680   31.0750   34.2860 C   0  0  0  0  0  0  0  0  0  0  0  0
   51.0610   31.2960   33.3500 H   0  0  0  0  0  0  0  0  0  0  0  0
   51.2350   30.5170   35.3590 C   0  0  0  0  0  0  0  0  0  0  0  0
   52.3010   30.3260   35.1600 H   0  0  0  0  0  0  0  0  0  0  0  0
   50.6740   30.2100   36.5810 C   0  0  0  0  0  0  0  0  0  0  0  0
   51.4410   29.6480   37.6000 N   0  0  0  0  0  0  0  0  0  0  0  0
   52.4460   29.4780   37.3780 H   0  0  0  0  0  0  0  0  0  0  0  0
  1  6  1  0  0  0  0
  1 10  1  0  0  0  0
  2  1  2  0  0  0  0
  3  4  2  0  0  0  0
  3  2  1  0  0  0  0
  4  5  1  0  0  0  0
  5  7  1  0  0  0  0
  5  6  2  0  0  0  0
  6 12  1  0  0  0  0
  8  7  1  0  0  0  0
  8 13  1  1  0  0  0
  9  8  1  0  0  0  0
  9  4  1  0  0  0  0
 11  3  1  0  0  0  0
 14 19  1  0  0  0  0
 15 14  2  0  0  0  0
 15 16  1  0  0  0  0
 16  2  1  0  0  0  0
 16 17  2  0  0  0  0
 17 18  1  0  0  0  0
 18 21  1  0  0  0  0
 19 18  2  0  0  0  0
 20 14  1  0  0  0  0
 22 15  1  0  0  0  0
 23 29  1  0  0  0  0
 23 22  1  0  0  0  0
 23 28  1  0  0  0  0
 24 31  1  0  0  0  0
 24 23  1  0  0  0  0
 25 26  1  0  0  0  0
 25 24  1  0  0  0  0
 26 33  1  0  0  0  0
 26 27  1  0  0  0  0
 27 35  1  0  0  0  0
 27 22  1  0  0  0  0
 30 24  1  0  0  0  0
 32 25  1  0  0  0  0
 34 26  1  0  0  0  0
 36 27  1  0  0  0  0
 37  8  1  0  0  0  0
 38 37  1  0  0  0  0
 39 38  1  0  0  0  0
 39 40  1  0  0  0  0
 41 39  2  0  0  0  0
 42 41  1  0  0  0  0
 43 44  2  0  0  0  0
 43 41  1  0  0  0  0
 44 45  1  0  0  0  0
 45 46  1  0  0  0  0
 45 38  2  0  0  0  0
 47 44  1  0  0  0  0
 48 47  1  0  0  0  0
 49 50  1  0  0  0  0
 49 48  2  0  0  0  0
 51 49  1  0  0  0  0
 52 51  1  0  0  0  0
 53 51  2  0  0  0  0
 53 55  1  0  0  0  0
 54 53  1  0  0  0  0
 55 57  2  0  0  0  0
 56 55  1  0  0  0  0
 57 48  1  0  0  0  0
 57 58  1  0  0  0  0
 58 43  1  0  0  0  0
 59 58  1  0  0  0  0
M  END
>  <minimizedAffinity>
-5.46798038

>  <minimizedRMSD>
4.24417639

$$$$
