
 OpenBabel03242523123D

 59 65  0  0  1  0  0  0  0  0999 V2000
   46.1180   31.7270   45.0980 C   0  0  0  0  0  0  0  0  0  0  0  0
   46.7230   32.6870   44.2560 C   0  0  0  0  0  0  0  0  0  0  0  0
   47.8870   32.2060   43.7080 C   0  0  0  0  0  0  0  0  0  0  0  0
   48.4270   30.9760   43.9230 C   0  0  0  0  0  0  0  0  0  0  0  0
   47.7700   30.0880   44.7710 C   0  0  0  0  0  0  0  0  0  0  0  0
   46.5970   30.4740   45.3640 C   0  0  0  0  0  0  0  0  0  0  0  0
   48.5630   28.9520   44.7800 O   0  0  0  0  0  0  0  0  0  0  0  0
   49.6630   29.1160   43.9070 C   0  0  2  0  0  0  0  0  0  0  0  0
   49.5900   30.4430   43.3990 O   0  0  0  0  0  0  0  0  0  0  0  0
   45.1730   31.7880   45.6790 H   0  0  0  0  0  0  0  0  0  0  0  0
   48.3510   32.9000   43.0810 H   0  0  0  0  0  0  0  0  0  0  0  0
   46.1920   29.7200   45.9820 H   0  0  0  0  0  0  0  0  0  0  0  0
   50.6190   28.9690   44.4560 H   0  0  0  0  0  0  0  0  0  0  0  0
   45.1180   35.9980   43.5470 C   0  0  0  0  0  0  0  0  0  0  0  0
   45.9000   34.8780   43.2690 C   0  0  0  0  0  0  0  0  0  0  0  0
   46.0390   33.9040   44.2120 C   0  0  0  0  0  0  0  0  0  0  0  0
   45.3890   34.0930   45.4020 N   0  0  0  0  0  0  0  0  0  0  0  0
   44.6400   35.1690   45.6670 C   0  0  0  0  0  0  0  0  0  0  0  0
   44.5100   36.0990   44.7550 N   0  0  0  0  0  0  0  0  0  0  0  0
   45.0010   36.7730   42.8070 H   0  0  0  0  0  0  0  0  0  0  0  0
   44.1030   35.3750   46.5830 H   0  0  0  0  0  0  0  0  0  0  0  0
   46.5290   34.8310   42.0250 N   0  0  0  0  0  0  0  0  0  0  0  0
   47.8450   35.3470   41.8210 C   0  0  0  0  0  0  0  0  0  0  0  0
   48.4360   35.0590   40.4710 C   0  0  0  0  0  0  0  0  0  0  0  0
   48.1480   33.7990   39.9610 N   0  0  0  0  0  0  0  0  0  0  0  0
   46.8790   33.3140   40.1240 C   0  0  0  0  0  0  0  0  0  0  0  0
   45.9850   34.2990   40.8390 C   0  0  0  0  0  0  0  0  0  0  0  0
   48.5760   35.0690   42.6170 H   0  0  0  0  0  0  0  0  0  0  0  0
   47.7630   36.4670   41.9120 H   0  0  0  0  0  0  0  0  0  0  0  0
   48.0120   35.8300   39.7640 H   0  0  0  0  0  0  0  0  0  0  0  0
   49.5180   35.3040   40.5180 H   0  0  0  0  0  0  0  0  0  0  0  0
   48.8070   33.3510   39.3270 H   0  0  0  0  0  0  0  0  0  0  0  0
   46.7800   32.3220   40.6340 H   0  0  0  0  0  0  0  0  0  0  0  0
   46.4000   33.1340   39.1180 H   0  0  0  0  0  0  0  0  0  0  0  0
   45.0660   33.7140   41.1180 H   0  0  0  0  0  0  0  0  0  0  0  0
   45.6620   35.0450   40.0730 H   0  0  0  0  0  0  0  0  0  0  0  0
   49.4940   28.2140   42.8520 O   0  0  0  0  0  0  0  0  0  0  0  0
   50.3270   28.0010   41.7930 C   0  0  0  0  0  0  0  0  0  0  0  0
   50.5440   26.8130   41.1260 C   0  0  0  0  0  0  0  0  0  0  0  0
   49.9930   25.9530   41.4790 H   0  0  0  0  0  0  0  0  0  0  0  0
   51.4300   26.7910   40.0710 C   0  0  0  0  0  0  0  0  0  0  0  0
   51.5420   25.8100   39.6000 H   0  0  0  0  0  0  0  0  0  0  0  0
   52.1290   27.8860   39.6230 C   0  0  0  0  0  0  0  0  0  0  0  0
   51.9070   29.0480   40.2880 C   0  0  0  0  0  0  0  0  0  0  0  0
   51.0480   29.1060   41.3230 C   0  0  0  0  0  0  0  0  0  0  0  0
   50.9110   30.0790   41.8220 H   0  0  0  0  0  0  0  0  0  0  0  0
   52.7780   30.5130   39.7640 S   0  0  0  0  0  0  0  0  0  0  0  0
   53.7880   29.9900   38.3910 C   0  0  0  0  0  0  0  0  0  0  0  0
   54.5500   30.9860   37.8340 C   0  0  0  0  0  0  0  0  0  0  0  0
   54.5640   32.0290   38.1780 H   0  0  0  0  0  0  0  0  0  0  0  0
   55.3710   30.6840   36.7590 C   0  0  0  0  0  0  0  0  0  0  0  0
   56.0040   31.4060   36.2610 H   0  0  0  0  0  0  0  0  0  0  0  0
   55.3950   29.3890   36.2830 C   0  0  0  0  0  0  0  0  0  0  0  0
   56.0300   29.1390   35.4460 H   0  0  0  0  0  0  0  0  0  0  0  0
   54.5920   28.4560   36.9090 C   0  0  0  0  0  0  0  0  0  0  0  0
   54.6680   27.4480   36.4690 H   0  0  0  0  0  0  0  0  0  0  0  0
   53.7580   28.7020   37.9800 C   0  0  0  0  0  0  0  0  0  0  0  0
   52.9890   27.6820   38.5360 N   0  0  0  0  0  0  0  0  0  0  0  0
   53.0850   26.7400   38.0980 H   0  0  0  0  0  0  0  0  0  0  0  0
  1  6  1  0  0  0  0
  1 10  1  0  0  0  0
  2  1  2  0  0  0  0
  3  4  2  0  0  0  0
  3  2  1  0  0  0  0
  4  5  1  0  0  0  0
  5  7  1  0  0  0  0
  5  6  2  0  0  0  0
  6 12  1  0  0  0  0
  8 13  1  1  0  0  0
  8  7  1  0  0  0  0
  9  8  1  0  0  0  0
  9  4  1  0  0  0  0
 11  3  1  0  0  0  0
 14 19  1  0  0  0  0
 15 14  2  0  0  0  0
 15 16  1  0  0  0  0
 16  2  1  0  0  0  0
 16 17  2  0  0  0  0
 17 18  1  0  0  0  0
 18 21  1  0  0  0  0
 19 18  2  0  0  0  0
 20 14  1  0  0  0  0
 22 15  1  0  0  0  0
 23 29  1  0  0  0  0
 23 22  1  0  0  0  0
 23 28  1  0  0  0  0
 24 31  1  0  0  0  0
 24 23  1  0  0  0  0
 25 26  1  0  0  0  0
 25 24  1  0  0  0  0
 26 33  1  0  0  0  0
 26 27  1  0  0  0  0
 27 35  1  0  0  0  0
 27 22  1  0  0  0  0
 30 24  1  0  0  0  0
 32 25  1  0  0  0  0
 34 26  1  0  0  0  0
 36 27  1  0  0  0  0
 37  8  1  0  0  0  0
 38 37  1  0  0  0  0
 39 40  1  0  0  0  0
 39 38  2  0  0  0  0
 41 39  1  0  0  0  0
 42 41  1  0  0  0  0
 43 41  2  0  0  0  0
 43 44  1  0  0  0  0
 44 45  2  0  0  0  0
 45 38  1  0  0  0  0
 45 46  1  0  0  0  0
 47 44  1  0  0  0  0
 48 47  1  0  0  0  0
 49 50  1  0  0  0  0
 49 48  2  0  0  0  0
 51 49  1  0  0  0  0
 52 51  1  0  0  0  0
 53 51  2  0  0  0  0
 53 55  1  0  0  0  0
 54 53  1  0  0  0  0
 55 57  2  0  0  0  0
 56 55  1  0  0  0  0
 57 48  1  0  0  0  0
 57 58  1  0  0  0  0
 58 43  1  0  0  0  0
 59 58  1  0  0  0  0
M  END
>  <minimizedAffinity>
-5.68713856

>  <minimizedRMSD>
4.74364996

$$$$
