
 OpenBabel03252509013D

 58 62  0  0  1  0  0  0  0  0999 V2000
   46.7080   34.3830   43.5280 N   0  0  0  0  0  0  0  0  0  0  0  0
   46.2810   35.5200   42.8000 C   0  0  0  0  0  0  0  0  0  0  0  0
   44.7950   35.8040   42.8670 C   0  0  0  0  0  0  0  0  0  0  0  0
   44.1540   35.4430   44.1720 C   0  0  0  0  0  0  0  0  0  0  0  0
   45.1620   34.9390   45.1760 C   0  0  0  0  0  0  0  0  0  0  0  0
   45.8580   33.7510   44.4210 C   0  0  2  0  0  0  0  0  0  0  0  0
   46.5690   35.5500   41.7490 H   0  0  0  0  0  0  0  0  0  0  0  0
   46.7760   36.4110   43.2770 H   0  0  0  0  0  0  0  0  0  0  0  0
   44.2960   35.2860   42.0110 H   0  0  0  0  0  0  0  0  0  0  0  0
   44.6410   36.8930   42.7020 H   0  0  0  0  0  0  0  0  0  0  0  0
   43.5240   36.2680   44.5740 H   0  0  0  0  0  0  0  0  0  0  0  0
   43.4410   34.5890   43.9870 H   0  0  0  0  0  0  0  0  0  0  0  0
   45.9100   35.6870   45.4530 H   0  0  0  0  0  0  0  0  0  0  0  0
   44.6130   34.5230   46.0440 H   0  0  0  0  0  0  0  0  0  0  0  0
   45.0200   33.1490   44.0300 H   0  0  0  0  0  0  0  0  0  0  0  0
   47.7220   33.6180   42.8720 C   0  0  0  0  0  0  0  0  0  0  0  0
   48.2450   32.9850   43.6340 H   0  0  0  0  0  0  0  0  0  0  0  0
   48.4690   34.2850   42.4380 H   0  0  0  0  0  0  0  0  0  0  0  0
   47.0790   32.6910   41.8890 C   0  0  0  0  0  0  0  0  0  0  0  0
   45.9980   32.9340   41.7630 H   0  0  0  0  0  0  0  0  0  0  0  0
   47.1190   31.6340   42.1810 H   0  0  0  0  0  0  0  0  0  0  0  0
   49.1460   32.0860   38.8090 C   0  0  0  0  0  0  0  0  0  0  0  0
   48.5490   31.9110   40.0720 C   0  0  0  0  0  0  0  0  0  0  0  0
   47.7050   32.8820   40.5550 C   0  0  0  0  0  0  0  0  0  0  0  0
   47.4890   33.9610   39.7890 N   0  0  0  0  0  0  0  0  0  0  0  0
   48.0640   34.1190   38.5810 C   0  0  0  0  0  0  0  0  0  0  0  0
   48.8950   33.1870   38.0820 N   0  0  0  0  0  0  0  0  0  0  0  0
   49.8100   31.3000   38.4540 H   0  0  0  0  0  0  0  0  0  0  0  0
   48.7470   31.0220   40.6700 H   0  0  0  0  0  0  0  0  0  0  0  0
   47.8420   35.0160   38.0210 H   0  0  0  0  0  0  0  0  0  0  0  0
   46.5620   33.1370   45.4530 O   0  0  0  0  0  0  0  0  0  0  0  0
   45.3590   31.0090   44.4230 O   0  0  0  0  0  0  0  0  0  0  0  0
   46.2940   31.4780   45.5290 P   0  0  2  0  0  0  0  0  0  0  0  0
   45.4380   31.2010   46.9860 O   0  0  0  0  0  0  0  0  0  0  0  0
   46.0650   31.1600   47.7480 H   0  0  0  0  0  0  0  0  0  0  0  0
   47.7170   30.6090   45.5830 O   0  0  0  0  0  0  0  0  0  0  0  0
   48.0290   29.5780   46.4290 C   0  0  0  0  0  0  0  0  0  0  0  0
   49.0030   29.7060   47.3990 C   0  0  0  0  0  0  0  0  0  0  0  0
   49.5320   30.6400   47.4930 H   0  0  0  0  0  0  0  0  0  0  0  0
   49.2780   28.6350   48.2260 C   0  0  0  0  0  0  0  0  0  0  0  0
   50.0680   28.8240   48.9700 H   0  0  0  0  0  0  0  0  0  0  0  0
   48.6230   27.4240   48.1380 C   0  0  0  0  0  0  0  0  0  0  0  0
   47.6510   27.2790   47.1800 C   0  0  0  0  0  0  0  0  0  0  0  0
   47.3940   28.3530   46.3690 C   0  0  0  0  0  0  0  0  0  0  0  0
   46.6220   28.2390   45.6070 H   0  0  0  0  0  0  0  0  0  0  0  0
   46.7850   25.7320   47.0340 S   0  0  0  0  0  0  0  0  0  0  0  0
   47.4700   24.6710   48.2920 C   0  0  0  0  0  0  0  0  0  0  0  0
   46.9490   23.4280   48.3630 C   0  0  0  0  0  0  0  0  0  0  0  0
   46.1650   23.0650   47.7110 H   0  0  0  0  0  0  0  0  0  0  0  0
   47.4150   22.5330   49.3040 C   0  0  0  0  0  0  0  0  0  0  0  0
   47.0020   21.5350   49.3650 H   0  0  0  0  0  0  0  0  0  0  0  0
   48.4160   22.9470   50.1590 C   0  0  0  0  0  0  0  0  0  0  0  0
   48.8120   22.2790   50.9120 H   0  0  0  0  0  0  0  0  0  0  0  0
   48.8990   24.2320   50.0290 C   0  0  0  0  0  0  0  0  0  0  0  0
   49.6940   24.5020   50.7360 H   0  0  0  0  0  0  0  0  0  0  0  0
   48.4640   25.1580   49.1030 C   0  0  0  0  0  0  0  0  0  0  0  0
   49.0370   26.4500   49.0630 N   0  0  0  0  0  0  0  0  0  0  0  0
   49.7840   26.6350   49.7640 H   0  0  0  0  0  0  0  0  0  0  0  0
  1  6  1  0  0  0  0
  2  3  1  0  0  0  0
  2  8  1  0  0  0  0
  2  1  1  0  0  0  0
  3  4  1  0  0  0  0
  4 11  1  0  0  0  0
  4  5  1  0  0  0  0
  5 13  1  0  0  0  0
  5 14  1  0  0  0  0
  6 15  1  6  0  0  0
  6  5  1  0  0  0  0
  6 31  1  0  0  0  0
  7  2  1  0  0  0  0
  9  3  1  0  0  0  0
 10  3  1  0  0  0  0
 12  4  1  0  0  0  0
 16  1  1  0  0  0  0
 16 17  1  0  0  0  0
 18 16  1  0  0  0  0
 19 21  1  0  0  0  0
 19 16  1  0  0  0  0
 20 19  1  0  0  0  0
 22 23  1  0  0  0  0
 23 24  2  0  0  0  0
 23 29  1  0  0  0  0
 24 19  1  0  0  0  0
 25 24  1  0  0  0  0
 26 25  2  0  0  0  0
 27 26  1  0  0  0  0
 27 22  2  0  0  0  0
 28 22  1  0  0  0  0
 30 26  1  0  0  0  0
 31 33  1  0  0  0  0
 33 32  2  6  0  0  0
 33 36  1  0  0  0  0
 33 34  1  0  0  0  0
 34 35  1  0  0  0  0
 36 37  1  0  0  0  0
 37 38  1  0  0  0  0
 38 39  1  0  0  0  0
 38 40  2  0  0  0  0
 40 41  1  0  0  0  0
 42 40  1  0  0  0  0
 42 57  1  0  0  0  0
 43 42  2  0  0  0  0
 44 37  2  0  0  0  0
 44 43  1  0  0  0  0
 45 44  1  0  0  0  0
 46 43  1  0  0  0  0
 46 47  1  0  0  0  0
 47 48  2  0  0  0  0
 47 56  1  0  0  0  0
 48 50  1  0  0  0  0
 49 48  1  0  0  0  0
 50 51  1  0  0  0  0
 50 52  2  0  0  0  0
 52 53  1  0  0  0  0
 54 52  1  0  0  0  0
 54 55  1  0  0  0  0
 56 54  2  0  0  0  0
 57 56  1  0  0  0  0
 57 58  1  0  0  0  0
M  END
>  <minimizedAffinity>
-5.23263931

>  <minimizedRMSD>
1.00879323

$$$$
