
 OpenBabel03252502563D

 50 54  0  0  0  0  0  0  0  0999 V2000
   43.9720   26.4370   46.8830 O   0  0  0  0  0  0  0  0  0  0  0  0
   44.9590   27.4000   47.5260 P   0  0  2  0  0  0  0  0  0  0  0  0
   44.8160   27.3170   49.1990 O   0  0  0  0  0  0  0  0  0  0  0  0
   45.6860   27.2490   49.6730 H   0  0  0  0  0  0  0  0  0  0  0  0
   44.5140   28.9800   47.0610 O   0  0  0  0  0  0  0  0  0  0  0  0
   45.1580   30.2440   44.3150 Br  0  0  0  0  0  0  0  0  0  0  0  0
   45.7950   30.7810   46.0640 C   0  0  0  0  0  0  0  0  0  0  0  0
   46.6380   31.8560   46.0910 C   0  0  0  0  0  0  0  0  0  0  0  0
   47.0760   32.2120   47.3680 C   0  0  0  0  0  0  0  0  0  0  0  0
   46.6980   31.5430   48.5150 C   0  0  0  0  0  0  0  0  0  0  0  0
   45.8470   30.4720   48.4000 C   0  0  0  0  0  0  0  0  0  0  0  0
   45.3790   30.0710   47.1650 C   0  0  0  0  0  0  0  0  0  0  0  0
   47.7470   33.0540   47.4700 H   0  0  0  0  0  0  0  0  0  0  0  0
   47.0820   31.8820   49.4700 H   0  0  0  0  0  0  0  0  0  0  0  0
   45.5550   29.9530   49.3000 H   0  0  0  0  0  0  0  0  0  0  0  0
   47.1100   32.6430   44.9480 C   0  0  0  0  0  0  0  0  0  0  0  0
   48.1700   32.9700   45.0510 H   0  0  0  0  0  0  0  0  0  0  0  0
   47.0850   31.9630   44.0540 H   0  0  0  0  0  0  0  0  0  0  0  0
   44.5970   35.3930   45.1770 C   0  0  0  0  0  0  0  0  0  0  0  0
   44.7610   36.0270   43.9440 C   0  0  0  0  0  0  0  0  0  0  0  0
   45.7080   35.5170   43.0700 C   0  0  0  0  0  0  0  0  0  0  0  0
   46.4420   34.4320   43.4270 N   0  0  0  0  0  0  0  0  0  0  0  0
   46.2610   33.8280   44.6430 C   0  0  0  0  0  0  0  0  0  0  0  0
   45.3330   34.3340   45.4890 N   0  0  0  0  0  0  0  0  0  0  0  0
   43.9050   35.6770   45.9470 H   0  0  0  0  0  0  0  0  0  0  0  0
   44.1250   36.8840   43.7610 H   0  0  0  0  0  0  0  0  0  0  0  0
   45.8210   36.0210   42.1220 H   0  0  0  0  0  0  0  0  0  0  0  0
   46.5070   26.9930   47.0220 O   0  0  0  0  0  0  0  0  0  0  0  0
   47.0900   27.2840   45.8050 C   0  0  0  0  0  0  0  0  0  0  0  0
   46.5890   26.7280   44.6460 C   0  0  0  0  0  0  0  0  0  0  0  0
   45.7450   26.0730   44.7380 H   0  0  0  0  0  0  0  0  0  0  0  0
   47.1950   27.0390   43.4460 C   0  0  0  0  0  0  0  0  0  0  0  0
   46.7290   26.5530   42.5990 H   0  0  0  0  0  0  0  0  0  0  0  0
   48.2790   27.8760   43.2970 C   0  0  0  0  0  0  0  0  0  0  0  0
   48.7210   28.3930   44.4910 C   0  0  0  0  0  0  0  0  0  0  0  0
   48.1740   28.1260   45.6920 C   0  0  0  0  0  0  0  0  0  0  0  0
   48.5360   28.5440   46.6310 H   0  0  0  0  0  0  0  0  0  0  0  0
   50.1200   29.4990   44.4970 S   0  0  0  0  0  0  0  0  0  0  0  0
   50.6130   29.6520   42.7930 C   0  0  0  0  0  0  0  0  0  0  0  0
   51.6650   30.4320   42.4140 C   0  0  0  0  0  0  0  0  0  0  0  0
   52.2250   30.9820   43.1870 H   0  0  0  0  0  0  0  0  0  0  0  0
   52.1310   30.6190   41.1120 C   0  0  0  0  0  0  0  0  0  0  0  0
   52.9640   31.2490   40.9040 H   0  0  0  0  0  0  0  0  0  0  0  0
   51.4180   29.9220   40.1550 C   0  0  0  0  0  0  0  0  0  0  0  0
   51.7320   30.0250   39.1190 H   0  0  0  0  0  0  0  0  0  0  0  0
   50.3460   29.1240   40.5170 C   0  0  0  0  0  0  0  0  0  0  0  0
   49.8410   28.6090   39.6860 H   0  0  0  0  0  0  0  0  0  0  0  0
   49.9260   28.9730   41.8210 C   0  0  0  0  0  0  0  0  0  0  0  0
   48.8320   28.1350   42.0210 N   0  0  0  0  0  0  0  0  0  0  0  0
   48.3560   27.6500   41.2300 H   0  0  0  0  0  0  0  0  0  0  0  0
  2  1  2  6  0  0  0
  2  3  1  0  0  0  0
  3  4  1  0  0  0  0
  5 12  1  0  0  0  0
  5  2  1  0  0  0  0
  6  7  1  0  0  0  0
  7  8  2  0  0  0  0
  7 12  1  0  0  0  0
  8  9  1  0  0  0  0
  9 13  1  0  0  0  0
  9 10  2  0  0  0  0
 10 14  1  0  0  0  0
 11 10  1  0  0  0  0
 11 15  1  0  0  0  0
 12 11  2  0  0  0  0
 16 17  1  0  0  0  0
 16  8  1  0  0  0  0
 18 16  1  0  0  0  0
 19 24  1  0  0  0  0
 19 25  1  0  0  0  0
 20 19  2  0  0  0  0
 21 22  2  0  0  0  0
 21 20  1  0  0  0  0
 22 23  1  0  0  0  0
 23 16  1  0  0  0  0
 23 24  2  0  0  0  0
 26 20  1  0  0  0  0
 27 21  1  0  0  0  0
 28  2  1  0  0  0  0
 29 28  1  0  0  0  0
 30 31  1  0  0  0  0
 30 29  2  0  0  0  0
 32 30  1  0  0  0  0
 33 32  1  0  0  0  0
 34 32  2  0  0  0  0
 34 35  1  0  0  0  0
 35 38  1  0  0  0  0
 35 36  2  0  0  0  0
 36 29  1  0  0  0  0
 36 37  1  0  0  0  0
 39 38  1  0  0  0  0
 40 39  1  0  0  0  0
 40 41  1  0  0  0  0
 42 40  2  0  0  0  0
 43 42  1  0  0  0  0
 44 46  2  0  0  0  0
 44 42  1  0  0  0  0
 45 44  1  0  0  0  0
 46 48  1  0  0  0  0
 47 46  1  0  0  0  0
 48 49  1  0  0  0  0
 48 39  2  0  0  0  0
 49 34  1  0  0  0  0
 50 49  1  0  0  0  0
M  END
>  <minimizedAffinity>
-5.05125427

>  <minimizedRMSD>
3.43225074

$$$$
