
 OpenBabel03242523313D

 35 38  0  0  0  0  0  0  0  0999 V2000
   37.0460   30.5090   39.2120 C   0  0  0  0  0  0  0  0  0  0  0  0
   37.0540   30.8570   37.8780 C   0  0  0  0  0  0  0  0  0  0  0  0
   36.1840   30.5680   37.3020 H   0  0  0  0  0  0  0  0  0  0  0  0
   38.1310   31.5340   37.3540 C   0  0  0  0  0  0  0  0  0  0  0  0
   38.0450   31.7660   36.2860 H   0  0  0  0  0  0  0  0  0  0  0  0
   39.2390   31.9020   38.0890 C   0  0  0  0  0  0  0  0  0  0  0  0
   39.2120   31.5500   39.4070 C   0  0  0  0  0  0  0  0  0  0  0  0
   38.1650   30.8860   39.9340 C   0  0  0  0  0  0  0  0  0  0  0  0
   38.2180   30.6360   41.0050 H   0  0  0  0  0  0  0  0  0  0  0  0
   40.6200   32.0010   40.4040 S   0  0  0  0  0  0  0  0  0  0  0  0
   41.7560   32.8490   39.3280 C   0  0  0  0  0  0  0  0  0  0  0  0
   42.9180   33.2840   39.9110 C   0  0  0  0  0  0  0  0  0  0  0  0
   43.1730   33.1480   40.9350 H   0  0  0  0  0  0  0  0  0  0  0  0
   43.8510   33.9550   39.1250 C   0  0  0  0  0  0  0  0  0  0  0  0
   44.7740   34.3180   39.5240 H   0  0  0  0  0  0  0  0  0  0  0  0
   43.5790   34.1610   37.7980 C   0  0  0  0  0  0  0  0  0  0  0  0
   44.2960   34.6770   37.1940 H   0  0  0  0  0  0  0  0  0  0  0  0
   42.3840   33.6890   37.2960 C   0  0  0  0  0  0  0  0  0  0  0  0
   42.2380   33.8920   36.2250 H   0  0  0  0  0  0  0  0  0  0  0  0
   41.4120   33.0170   38.0080 C   0  0  0  0  0  0  0  0  0  0  0  0
   40.2420   32.5890   37.3810 N   0  0  0  0  0  0  0  0  0  0  0  0
   40.1480   32.8030   36.3660 H   0  0  0  0  0  0  0  0  0  0  0  0
   35.7360   29.6320   40.0520 S   0  0  0  0  0  0  0  0  0  0  0  0
   36.1590   27.8750   40.1880 C   0  0  0  0  0  0  0  0  0  0  0  0
   35.3030   27.2040   40.2260 H   0  0  0  0  0  0  0  0  0  0  0  0
   36.7530   27.5930   39.2760 H   0  0  0  0  0  0  0  0  0  0  0  0
   37.4310   27.7490   43.6800 C   0  0  0  0  0  0  0  0  0  0  0  0
   38.7660   27.4410   43.4780 C   0  0  0  0  0  0  0  0  0  0  0  0
   39.2120   27.2830   42.1690 C   0  0  0  0  0  0  0  0  0  0  0  0
   38.3380   27.4310   41.1360 N   0  0  0  0  0  0  0  0  0  0  0  0
   37.0380   27.7320   41.3800 C   0  0  0  0  0  0  0  0  0  0  0  0
   36.5940   27.8880   42.6280 N   0  0  0  0  0  0  0  0  0  0  0  0
   36.9360   27.9020   44.6410 H   0  0  0  0  0  0  0  0  0  0  0  0
   39.3800   27.3440   44.3680 H   0  0  0  0  0  0  0  0  0  0  0  0
   40.2560   27.0430   42.0250 H   0  0  0  0  0  0  0  0  0  0  0  0
  1  8  1  0  0  0  0
  1 23  1  0  0  0  0
  2  1  2  0  0  0  0
  3  2  1  0  0  0  0
  4  2  1  0  0  0  0
  4  6  2  0  0  0  0
  5  4  1  0  0  0  0
  6  7  1  0  0  0  0
  7  8  2  0  0  0  0
  7 10  1  0  0  0  0
  8  9  1  0  0  0  0
 11 12  1  0  0  0  0
 11 10  1  0  0  0  0
 12 13  1  0  0  0  0
 14 15  1  0  0  0  0
 14 12  2  0  0  0  0
 16 14  1  0  0  0  0
 17 16  1  0  0  0  0
 18 16  2  0  0  0  0
 18 20  1  0  0  0  0
 19 18  1  0  0  0  0
 20 11  2  0  0  0  0
 21 20  1  0  0  0  0
 21  6  1  0  0  0  0
 22 21  1  0  0  0  0
 23 24  1  0  0  0  0
 24 25  1  0  0  0  0
 24 31  1  0  0  0  0
 26 24  1  0  0  0  0
 27 33  1  0  0  0  0
 28 27  1  0  0  0  0
 28 34  1  0  0  0  0
 29 28  2  0  0  0  0
 30 31  2  0  0  0  0
 30 29  1  0  0  0  0
 31 32  1  0  0  0  0
 32 27  2  0  0  0  0
 35 29  1  0  0  0  0
M  END
>  <minimizedAffinity>
-5.5831995

$$$$

 OpenBabel03242523313D

 35 38  0  0  0  0  0  0  0  0999 V2000
   37.3390   31.9430   39.3810 C   0  0  0  0  0  0  0  0  0  0  0  0
   37.2620   31.2810   38.1740 C   0  0  0  0  0  0  0  0  0  0  0  0
   37.2910   31.8980   37.2860 H   0  0  0  0  0  0  0  0  0  0  0  0
   37.1570   29.9090   38.1530 C   0  0  0  0  0  0  0  0  0  0  0  0
   37.1030   29.4740   37.1470 H   0  0  0  0  0  0  0  0  0  0  0  0
   37.1210   29.1220   39.2860 C   0  0  0  0  0  0  0  0  0  0  0  0
   37.1980   29.7960   40.4700 C   0  0  0  0  0  0  0  0  0  0  0  0
   37.3010   31.1390   40.5070 C   0  0  0  0  0  0  0  0  0  0  0  0
   37.3580   31.6090   41.5010 H   0  0  0  0  0  0  0  0  0  0  0  0
   37.1560   28.8280   41.9660 S   0  0  0  0  0  0  0  0  0  0  0  0
   37.0140   27.1250   41.4680 C   0  0  0  0  0  0  0  0  0  0  0  0
   36.9660   26.2080   42.4860 C   0  0  0  0  0  0  0  0  0  0  0  0
   37.0060   26.4460   43.5230 H   0  0  0  0  0  0  0  0  0  0  0  0
   36.8550   24.8580   42.1660 C   0  0  0  0  0  0  0  0  0  0  0  0
   36.8130   24.0970   42.9160 H   0  0  0  0  0  0  0  0  0  0  0  0
   36.7990   24.4880   40.8470 C   0  0  0  0  0  0  0  0  0  0  0  0
   36.7140   23.4500   40.6010 H   0  0  0  0  0  0  0  0  0  0  0  0
   36.8550   25.4790   39.8900 C   0  0  0  0  0  0  0  0  0  0  0  0
   36.8040   25.1040   38.8570 H   0  0  0  0  0  0  0  0  0  0  0  0
   36.9640   26.8340   40.1270 C   0  0  0  0  0  0  0  0  0  0  0  0
   37.0100   27.7370   39.0650 N   0  0  0  0  0  0  0  0  0  0  0  0
   36.9590   27.3370   38.1050 H   0  0  0  0  0  0  0  0  0  0  0  0
   37.4780   33.7110   39.5920 S   0  0  0  0  0  0  0  0  0  0  0  0
   38.8880   34.0940   40.6650 C   0  0  0  0  0  0  0  0  0  0  0  0
   39.0820   35.1570   40.7990 H   0  0  0  0  0  0  0  0  0  0  0  0
   38.6700   33.6720   41.6830 H   0  0  0  0  0  0  0  0  0  0  0  0
   41.6200   32.9420   38.4210 C   0  0  0  0  0  0  0  0  0  0  0  0
   42.2350   31.9790   39.2030 C   0  0  0  0  0  0  0  0  0  0  0  0
   41.7170   31.7370   40.4720 C   0  0  0  0  0  0  0  0  0  0  0  0
   40.6360   32.4410   40.9060 N   0  0  0  0  0  0  0  0  0  0  0  0
   40.0650   33.3760   40.1050 C   0  0  0  0  0  0  0  0  0  0  0  0
   40.5480   33.6210   38.8860 N   0  0  0  0  0  0  0  0  0  0  0  0
   41.9090   33.2420   37.4120 H   0  0  0  0  0  0  0  0  0  0  0  0
   43.0910   31.4740   38.7660 H   0  0  0  0  0  0  0  0  0  0  0  0
   42.2060   30.9830   41.0740 H   0  0  0  0  0  0  0  0  0  0  0  0
  1 23  1  0  0  0  0
  1  8  1  0  0  0  0
  2  1  2  0  0  0  0
  3  2  1  0  0  0  0
  4  2  1  0  0  0  0
  4  6  2  0  0  0  0
  5  4  1  0  0  0  0
  6  7  1  0  0  0  0
  7  8  2  0  0  0  0
  7 10  1  0  0  0  0
  8  9  1  0  0  0  0
 11 10  1  0  0  0  0
 11 12  1  0  0  0  0
 12 13  1  0  0  0  0
 14 12  2  0  0  0  0
 14 15  1  0  0  0  0
 16 14  1  0  0  0  0
 17 16  1  0  0  0  0
 18 20  1  0  0  0  0
 18 16  2  0  0  0  0
 19 18  1  0  0  0  0
 20 11  2  0  0  0  0
 21  6  1  0  0  0  0
 21 20  1  0  0  0  0
 22 21  1  0  0  0  0
 23 24  1  0  0  0  0
 24 25  1  0  0  0  0
 24 26  1  0  0  0  0
 27 32  2  0  0  0  0
 27 28  1  0  0  0  0
 28 29  2  0  0  0  0
 29 30  1  0  0  0  0
 29 35  1  0  0  0  0
 31 24  1  0  0  0  0
 31 30  2  0  0  0  0
 32 31  1  0  0  0  0
 33 27  1  0  0  0  0
 34 28  1  0  0  0  0
M  END
>  <minimizedAffinity>
-5.38596153

$$$$

 OpenBabel03242523313D

 35 38  0  0  0  0  0  0  0  0999 V2000
   34.4750   28.3490   36.7300 C   0  0  0  0  0  0  0  0  0  0  0  0
   34.8150   27.0150   36.8040 C   0  0  0  0  0  0  0  0  0  0  0  0
   34.5200   26.3970   35.9660 H   0  0  0  0  0  0  0  0  0  0  0  0
   35.4940   26.5420   37.9050 C   0  0  0  0  0  0  0  0  0  0  0  0
   35.7190   25.4700   37.8710 H   0  0  0  0  0  0  0  0  0  0  0  0
   35.8700   27.3300   38.9730 C   0  0  0  0  0  0  0  0  0  0  0  0
   35.5250   28.6470   38.8810 C   0  0  0  0  0  0  0  0  0  0  0  0
   34.8600   29.1240   37.8110 C   0  0  0  0  0  0  0  0  0  0  0  0
   34.6170   30.1980   37.8100 H   0  0  0  0  0  0  0  0  0  0  0  0
   35.9860   29.7110   40.2340 S   0  0  0  0  0  0  0  0  0  0  0  0
   36.8330   28.6890   41.4210 C   0  0  0  0  0  0  0  0  0  0  0  0
   37.2750   29.3270   42.5500 C   0  0  0  0  0  0  0  0  0  0  0  0
   37.1460   30.3630   42.7540 H   0  0  0  0  0  0  0  0  0  0  0  0
   37.9460   28.5850   43.5200 C   0  0  0  0  0  0  0  0  0  0  0  0
   38.3130   29.0280   44.4210 H   0  0  0  0  0  0  0  0  0  0  0  0
   38.1430   27.2440   43.3140 C   0  0  0  0  0  0  0  0  0  0  0  0
   38.6580   26.6750   44.0590 H   0  0  0  0  0  0  0  0  0  0  0  0
   37.6630   26.6860   42.1480 C   0  0  0  0  0  0  0  0  0  0  0  0
   37.8600   25.6080   42.0560 H   0  0  0  0  0  0  0  0  0  0  0  0
   36.9920   27.3520   41.1440 C   0  0  0  0  0  0  0  0  0  0  0  0
   36.5570   26.6690   40.0080 N   0  0  0  0  0  0  0  0  0  0  0  0
   36.7650   25.6500   39.9640 H   0  0  0  0  0  0  0  0  0  0  0  0
   33.5990   29.1270   35.3830 S   0  0  0  0  0  0  0  0  0  0  0  0
   31.8310   28.7430   35.4940 C   0  0  0  0  0  0  0  0  0  0  0  0
   31.3540   28.5180   34.5420 H   0  0  0  0  0  0  0  0  0  0  0  0
   31.7180   27.8280   36.1380 H   0  0  0  0  0  0  0  0  0  0  0  0
   30.3970   32.0810   36.2840 C   0  0  0  0  0  0  0  0  0  0  0  0
   29.9770   31.9010   37.5910 C   0  0  0  0  0  0  0  0  0  0  0  0
   30.1860   30.6580   38.1810 C   0  0  0  0  0  0  0  0  0  0  0  0
   30.7870   29.6650   37.4700 N   0  0  0  0  0  0  0  0  0  0  0  0
   31.1820   29.8860   36.1910 C   0  0  0  0  0  0  0  0  0  0  0  0
   30.9910   31.0720   35.6100 N   0  0  0  0  0  0  0  0  0  0  0  0
   30.3030   32.9920   35.6900 H   0  0  0  0  0  0  0  0  0  0  0  0
   29.5080   32.7540   38.0700 H   0  0  0  0  0  0  0  0  0  0  0  0
   29.8530   30.5290   39.2030 H   0  0  0  0  0  0  0  0  0  0  0  0
  1  2  2  0  0  0  0
  1  8  1  0  0  0  0
  2  4  1  0  0  0  0
  3  2  1  0  0  0  0
  4  6  2  0  0  0  0
  5  4  1  0  0  0  0
  6 21  1  0  0  0  0
  7  6  1  0  0  0  0
  7 10  1  0  0  0  0
  8  7  2  0  0  0  0
  9  8  1  0  0  0  0
 10 11  1  0  0  0  0
 11 12  1  0  0  0  0
 12 13  1  0  0  0  0
 12 14  2  0  0  0  0
 14 15  1  0  0  0  0
 16 14  1  0  0  0  0
 16 17  1  0  0  0  0
 18 16  2  0  0  0  0
 19 18  1  0  0  0  0
 20 11  2  0  0  0  0
 20 18  1  0  0  0  0
 21 20  1  0  0  0  0
 22 21  1  0  0  0  0
 23 24  1  0  0  0  0
 23  1  1  0  0  0  0
 24 26  1  0  0  0  0
 24 31  1  0  0  0  0
 25 24  1  0  0  0  0
 27 28  1  0  0  0  0
 28 34  1  0  0  0  0
 28 29  2  0  0  0  0
 29 35  1  0  0  0  0
 30 29  1  0  0  0  0
 31 30  2  0  0  0  0
 32 31  1  0  0  0  0
 32 27  2  0  0  0  0
 33 27  1  0  0  0  0
M  END
>  <minimizedAffinity>
-5.33039474

$$$$

 OpenBabel03242523313D

 35 38  0  0  0  0  0  0  0  0999 V2000
   38.9680   27.2080   42.9860 C   0  0  0  0  0  0  0  0  0  0  0  0
   37.6240   27.4610   42.8140 C   0  0  0  0  0  0  0  0  0  0  0  0
   36.9450   26.6800   43.1310 H   0  0  0  0  0  0  0  0  0  0  0  0
   37.2170   28.6550   42.2650 C   0  0  0  0  0  0  0  0  0  0  0  0
   36.1300   28.7630   42.1680 H   0  0  0  0  0  0  0  0  0  0  0  0
   38.0830   29.6500   41.8600 C   0  0  0  0  0  0  0  0  0  0  0  0
   39.4090   29.3820   42.0390 C   0  0  0  0  0  0  0  0  0  0  0  0
   39.8220   28.2170   42.5750 C   0  0  0  0  0  0  0  0  0  0  0  0
   40.9080   28.0750   42.6860 H   0  0  0  0  0  0  0  0  0  0  0  0
   40.5720   30.6340   41.5330 S   0  0  0  0  0  0  0  0  0  0  0  0
   39.6160   31.9890   40.8870 C   0  0  0  0  0  0  0  0  0  0  0  0
   40.3340   33.0660   40.4390 C   0  0  0  0  0  0  0  0  0  0  0  0
   41.3960   33.1390   40.4540 H   0  0  0  0  0  0  0  0  0  0  0  0
   39.6480   34.1610   39.9210 C   0  0  0  0  0  0  0  0  0  0  0  0
   40.1530   35.0300   39.5570 H   0  0  0  0  0  0  0  0  0  0  0  0
   38.2780   34.1270   39.8760 C   0  0  0  0  0  0  0  0  0  0  0  0
   37.7500   34.9680   39.4770 H   0  0  0  0  0  0  0  0  0  0  0  0
   37.6380   33.0010   40.3480 C   0  0  0  0  0  0  0  0  0  0  0  0
   36.5410   33.0490   40.2790 H   0  0  0  0  0  0  0  0  0  0  0  0
   38.2460   31.8800   40.8750 C   0  0  0  0  0  0  0  0  0  0  0  0
   37.4820   30.8020   41.3200 N   0  0  0  0  0  0  0  0  0  0  0  0
   36.4480   30.8920   41.2340 H   0  0  0  0  0  0  0  0  0  0  0  0
   39.6680   25.7190   43.6800 S   0  0  0  0  0  0  0  0  0  0  0  0
   40.0740   24.5530   42.3520 C   0  0  0  0  0  0  0  0  0  0  0  0
   41.0170   24.7530   41.8450 H   0  0  0  0  0  0  0  0  0  0  0  0
   40.1620   23.5300   42.8080 H   0  0  0  0  0  0  0  0  0  0  0  0
   37.9270   24.9890   39.3480 C   0  0  0  0  0  0  0  0  0  0  0  0
   36.7200   24.4780   39.7930 C   0  0  0  0  0  0  0  0  0  0  0  0
   36.6520   23.9960   41.0970 C   0  0  0  0  0  0  0  0  0  0  0  0
   37.7580   24.0380   41.8900 N   0  0  0  0  0  0  0  0  0  0  0  0
   38.9210   24.5480   41.4120 C   0  0  0  0  0  0  0  0  0  0  0  0
   39.0030   25.0150   40.1650 N   0  0  0  0  0  0  0  0  0  0  0  0
   38.1350   25.4000   38.3580 H   0  0  0  0  0  0  0  0  0  0  0  0
   35.8990   24.4890   39.0830 H   0  0  0  0  0  0  0  0  0  0  0  0
   35.7040   23.5990   41.4330 H   0  0  0  0  0  0  0  0  0  0  0  0
  1 23  1  0  0  0  0
  2  1  1  0  0  0  0
  2  3  1  0  0  0  0
  4  2  2  0  0  0  0
  5  4  1  0  0  0  0
  6  7  2  0  0  0  0
  6  4  1  0  0  0  0
  7  8  1  0  0  0  0
  8  9  1  0  0  0  0
  8  1  2  0  0  0  0
 10  7  1  0  0  0  0
 11 10  1  0  0  0  0
 12 13  1  0  0  0  0
 12 11  2  0  0  0  0
 14 12  1  0  0  0  0
 15 14  1  0  0  0  0
 16 14  2  0  0  0  0
 16 18  1  0  0  0  0
 17 16  1  0  0  0  0
 18 20  2  0  0  0  0
 19 18  1  0  0  0  0
 20 11  1  0  0  0  0
 20 21  1  0  0  0  0
 21  6  1  0  0  0  0
 22 21  1  0  0  0  0
 24 26  1  0  0  0  0
 24 23  1  0  0  0  0
 25 24  1  0  0  0  0
 27 28  2  0  0  0  0
 27 32  1  0  0  0  0
 28 29  1  0  0  0  0
 29 35  1  0  0  0  0
 29 30  2  0  0  0  0
 31 30  1  0  0  0  0
 31 24  1  0  0  0  0
 32 31  2  0  0  0  0
 33 27  1  0  0  0  0
 34 28  1  0  0  0  0
M  END
>  <minimizedAffinity>
-5.23018217

$$$$

 OpenBabel03242523313D

 35 38  0  0  0  0  0  0  0  0999 V2000
   39.0160   26.6590   42.3350 C   0  0  0  0  0  0  0  0  0  0  0  0
   39.9640   27.3920   43.0160 C   0  0  0  0  0  0  0  0  0  0  0  0
   40.6000   26.8400   43.6960 H   0  0  0  0  0  0  0  0  0  0  0  0
   40.0570   28.7500   42.8090 C   0  0  0  0  0  0  0  0  0  0  0  0
   40.8400   29.2450   43.3960 H   0  0  0  0  0  0  0  0  0  0  0  0
   39.2450   29.4530   41.9430 C   0  0  0  0  0  0  0  0  0  0  0  0
   38.3140   28.7100   41.2780 C   0  0  0  0  0  0  0  0  0  0  0  0
   38.2100   27.3810   41.4710 C   0  0  0  0  0  0  0  0  0  0  0  0
   37.4340   26.8500   40.8970 H   0  0  0  0  0  0  0  0  0  0  0  0
   37.2380   29.5680   40.1460 S   0  0  0  0  0  0  0  0  0  0  0  0
   37.7090   31.2850   40.1970 C   0  0  0  0  0  0  0  0  0  0  0  0
   36.9920   32.1240   39.3850 C   0  0  0  0  0  0  0  0  0  0  0  0
   36.1960   31.8210   38.7470 H   0  0  0  0  0  0  0  0  0  0  0  0
   37.3080   33.4800   39.3760 C   0  0  0  0  0  0  0  0  0  0  0  0
   36.7850   34.1830   38.7640 H   0  0  0  0  0  0  0  0  0  0  0  0
   38.3250   33.9310   40.1780 C   0  0  0  0  0  0  0  0  0  0  0  0
   38.5680   34.9730   40.1720 H   0  0  0  0  0  0  0  0  0  0  0  0
   38.9920   33.0140   40.9630 C   0  0  0  0  0  0  0  0  0  0  0  0
   39.7930   33.4530   41.5760 H   0  0  0  0  0  0  0  0  0  0  0  0
   38.7380   31.6600   41.0250 C   0  0  0  0  0  0  0  0  0  0  0  0
   39.4890   30.8370   41.8640 N   0  0  0  0  0  0  0  0  0  0  0  0
   40.2360   31.2950   42.4260 H   0  0  0  0  0  0  0  0  0  0  0  0
   38.7570   24.8980   42.4820 S   0  0  0  0  0  0  0  0  0  0  0  0
   37.0340   24.4940   42.0930 C   0  0  0  0  0  0  0  0  0  0  0  0
   36.4840   24.0210   42.9050 H   0  0  0  0  0  0  0  0  0  0  0  0
   36.5010   25.4550   41.8570 H   0  0  0  0  0  0  0  0  0  0  0  0
   36.0990   22.8410   38.8970 C   0  0  0  0  0  0  0  0  0  0  0  0
   37.2190   22.0670   38.6460 C   0  0  0  0  0  0  0  0  0  0  0  0
   38.2680   22.1170   39.5600 C   0  0  0  0  0  0  0  0  0  0  0  0
   38.1690   22.9130   40.6590 N   0  0  0  0  0  0  0  0  0  0  0  0
   37.0520   23.6550   40.8650 C   0  0  0  0  0  0  0  0  0  0  0  0
   36.0360   23.6190   40.0000 N   0  0  0  0  0  0  0  0  0  0  0  0
   35.2020   22.9080   38.2780 H   0  0  0  0  0  0  0  0  0  0  0  0
   37.2000   21.4670   37.7420 H   0  0  0  0  0  0  0  0  0  0  0  0
   39.1380   21.5080   39.3530 H   0  0  0  0  0  0  0  0  0  0  0  0
  1 23  1  0  0  0  0
  1  2  1  0  0  0  0
  2  3  1  0  0  0  0
  4  2  2  0  0  0  0
  4  5  1  0  0  0  0
  6  4  1  0  0  0  0
  7  8  1  0  0  0  0
  7  6  2  0  0  0  0
  8  1  2  0  0  0  0
  9  8  1  0  0  0  0
 10 11  1  0  0  0  0
 10  7  1  0  0  0  0
 11 20  1  0  0  0  0
 12 11  2  0  0  0  0
 13 12  1  0  0  0  0
 14 12  1  0  0  0  0
 14 16  2  0  0  0  0
 15 14  1  0  0  0  0
 16 18  1  0  0  0  0
 17 16  1  0  0  0  0
 18 20  2  0  0  0  0
 18 19  1  0  0  0  0
 20 21  1  0  0  0  0
 21  6  1  0  0  0  0
 21 22  1  0  0  0  0
 24 23  1  0  0  0  0
 24 25  1  0  0  0  0
 26 24  1  0  0  0  0
 27 32  1  0  0  0  0
 28 27  2  0  0  0  0
 28 29  1  0  0  0  0
 29 30  2  0  0  0  0
 30 31  1  0  0  0  0
 31 24  1  0  0  0  0
 32 31  2  0  0  0  0
 33 27  1  0  0  0  0
 34 28  1  0  0  0  0
 35 29  1  0  0  0  0
M  END
>  <minimizedAffinity>
-5.20408344

$$$$

 OpenBabel03242523313D

 35 38  0  0  0  0  0  0  0  0999 V2000
   34.6650   29.1610   37.5520 C   0  0  0  0  0  0  0  0  0  0  0  0
   34.1610   28.8960   38.8070 C   0  0  0  0  0  0  0  0  0  0  0  0
   33.1440   28.5270   38.8480 H   0  0  0  0  0  0  0  0  0  0  0  0
   34.9460   29.1050   39.9180 C   0  0  0  0  0  0  0  0  0  0  0  0
   34.4570   28.8660   40.8700 H   0  0  0  0  0  0  0  0  0  0  0  0
   36.2420   29.5750   39.8670 C   0  0  0  0  0  0  0  0  0  0  0  0
   36.7230   29.8310   38.6160 C   0  0  0  0  0  0  0  0  0  0  0  0
   35.9670   29.6320   37.5190 C   0  0  0  0  0  0  0  0  0  0  0  0
   36.4260   29.8620   36.5450 H   0  0  0  0  0  0  0  0  0  0  0  0
   38.3930   30.4410   38.4900 S   0  0  0  0  0  0  0  0  0  0  0  0
   39.0200   30.5580   40.1530 C   0  0  0  0  0  0  0  0  0  0  0  0
   40.3070   31.0130   40.2750 C   0  0  0  0  0  0  0  0  0  0  0  0
   40.9330   31.2930   39.4610 H   0  0  0  0  0  0  0  0  0  0  0  0
   40.8590   31.1290   41.5470 C   0  0  0  0  0  0  0  0  0  0  0  0
   41.8570   31.4780   41.7050 H   0  0  0  0  0  0  0  0  0  0  0  0
   40.1000   30.7830   42.6360 C   0  0  0  0  0  0  0  0  0  0  0  0
   40.5250   30.8720   43.6140 H   0  0  0  0  0  0  0  0  0  0  0  0
   38.8150   30.3340   42.4190 C   0  0  0  0  0  0  0  0  0  0  0  0
   38.2710   30.0770   43.3390 H   0  0  0  0  0  0  0  0  0  0  0  0
   38.1990   30.1930   41.1920 C   0  0  0  0  0  0  0  0  0  0  0  0
   36.8870   29.7260   41.1080 N   0  0  0  0  0  0  0  0  0  0  0  0
   36.4120   29.4960   42.0040 H   0  0  0  0  0  0  0  0  0  0  0  0
   33.7890   28.9470   36.0110 S   0  0  0  0  0  0  0  0  0  0  0  0
   32.0610   28.5120   36.3400 C   0  0  0  0  0  0  0  0  0  0  0  0
   31.5860   27.9160   35.5620 H   0  0  0  0  0  0  0  0  0  0  0  0
   32.0350   27.8970   37.2810 H   0  0  0  0  0  0  0  0  0  0  0  0
   30.0620   31.2140   37.9300 C   0  0  0  0  0  0  0  0  0  0  0  0
   30.0360   32.1670   36.9270 C   0  0  0  0  0  0  0  0  0  0  0  0
   30.6920   31.8810   35.7330 C   0  0  0  0  0  0  0  0  0  0  0  0
   31.3340   30.6900   35.5850 N   0  0  0  0  0  0  0  0  0  0  0  0
   31.3340   29.7850   36.5950 C   0  0  0  0  0  0  0  0  0  0  0  0
   30.7090   30.0420   37.7460 N   0  0  0  0  0  0  0  0  0  0  0  0
   29.5970   31.2920   38.9150 H   0  0  0  0  0  0  0  0  0  0  0  0
   29.4980   33.0840   37.1450 H   0  0  0  0  0  0  0  0  0  0  0  0
   30.6650   32.6340   34.9570 H   0  0  0  0  0  0  0  0  0  0  0  0
  1  2  1  0  0  0  0
  2  3  1  0  0  0  0
  2  4  2  0  0  0  0
  4  5  1  0  0  0  0
  6  4  1  0  0  0  0
  6 21  1  0  0  0  0
  7  6  2  0  0  0  0
  8  1  2  0  0  0  0
  8  7  1  0  0  0  0
  9  8  1  0  0  0  0
 10  7  1  0  0  0  0
 10 11  1  0  0  0  0
 11 12  2  0  0  0  0
 11 20  1  0  0  0  0
 12 14  1  0  0  0  0
 13 12  1  0  0  0  0
 14 15  1  0  0  0  0
 14 16  2  0  0  0  0
 16 17  1  0  0  0  0
 18 16  1  0  0  0  0
 18 19  1  0  0  0  0
 20 18  2  0  0  0  0
 21 20  1  0  0  0  0
 21 22  1  0  0  0  0
 23 24  1  0  0  0  0
 23  1  1  0  0  0  0
 24 31  1  0  0  0  0
 24 26  1  0  0  0  0
 25 24  1  0  0  0  0
 27 33  1  0  0  0  0
 28 34  1  0  0  0  0
 28 27  2  0  0  0  0
 29 28  1  0  0  0  0
 30 29  2  0  0  0  0
 30 31  1  0  0  0  0
 31 32  2  0  0  0  0
 32 27  1  0  0  0  0
 35 29  1  0  0  0  0
M  END
>  <minimizedAffinity>
-5.11129856

$$$$

 OpenBabel03242523313D

 35 38  0  0  0  0  0  0  0  0999 V2000
   39.3160   30.5880   40.5290 C   0  0  0  0  0  0  0  0  0  0  0  0
   40.0550   30.8520   39.3950 C   0  0  0  0  0  0  0  0  0  0  0  0
   41.0700   31.1950   39.5530 H   0  0  0  0  0  0  0  0  0  0  0  0
   39.4890   30.6730   38.1530 C   0  0  0  0  0  0  0  0  0  0  0  0
   40.1550   30.9090   37.3140 H   0  0  0  0  0  0  0  0  0  0  0  0
   38.1960   30.2360   37.9530 C   0  0  0  0  0  0  0  0  0  0  0  0
   37.4820   29.9810   39.0870 C   0  0  0  0  0  0  0  0  0  0  0  0
   38.0210   30.1510   40.3090 C   0  0  0  0  0  0  0  0  0  0  0  0
   37.3810   29.9240   41.1760 H   0  0  0  0  0  0  0  0  0  0  0  0
   35.8040   29.4130   38.8870 S   0  0  0  0  0  0  0  0  0  0  0  0
   35.4990   29.3300   37.1350 C   0  0  0  0  0  0  0  0  0  0  0  0
   34.2490   28.9090   36.7660 C   0  0  0  0  0  0  0  0  0  0  0  0
   33.4730   28.6380   37.4430 H   0  0  0  0  0  0  0  0  0  0  0  0
   33.9440   28.8210   35.4100 C   0  0  0  0  0  0  0  0  0  0  0  0
   32.9860   28.4990   35.0620 H   0  0  0  0  0  0  0  0  0  0  0  0
   34.9020   29.1560   34.4890 C   0  0  0  0  0  0  0  0  0  0  0  0
   34.6680   29.0890   33.4470 H   0  0  0  0  0  0  0  0  0  0  0  0
   36.1340   29.5700   34.9510 C   0  0  0  0  0  0  0  0  0  0  0  0
   36.8480   29.8210   34.1530 H   0  0  0  0  0  0  0  0  0  0  0  0
   36.5100   29.6820   36.2740 C   0  0  0  0  0  0  0  0  0  0  0  0
   37.7930   30.1150   36.6110 N   0  0  0  0  0  0  0  0  0  0  0  0
   38.4340   30.3420   35.8230 H   0  0  0  0  0  0  0  0  0  0  0  0
   39.8910   30.7650   42.2110 S   0  0  0  0  0  0  0  0  0  0  0  0
   40.3880   29.1490   42.8650 C   0  0  0  0  0  0  0  0  0  0  0  0
   41.2270   28.6890   42.3470 H   0  0  0  0  0  0  0  0  0  0  0  0
   40.7050   29.2940   43.9330 H   0  0  0  0  0  0  0  0  0  0  0  0
   36.9900   27.7700   43.4810 C   0  0  0  0  0  0  0  0  0  0  0  0
   37.0250   26.6040   42.7360 C   0  0  0  0  0  0  0  0  0  0  0  0
   38.1930   26.3040   42.0410 C   0  0  0  0  0  0  0  0  0  0  0  0
   39.2550   27.1520   42.1080 N   0  0  0  0  0  0  0  0  0  0  0  0
   39.1770   28.2850   42.8510 C   0  0  0  0  0  0  0  0  0  0  0  0
   38.0660   28.5880   43.5240 N   0  0  0  0  0  0  0  0  0  0  0  0
   36.1520   28.1380   44.0750 H   0  0  0  0  0  0  0  0  0  0  0  0
   36.1250   25.9960   42.7470 H   0  0  0  0  0  0  0  0  0  0  0  0
   38.2070   25.3900   41.4630 H   0  0  0  0  0  0  0  0  0  0  0  0
  1 23  1  0  0  0  0
  2  3  1  0  0  0  0
  2  1  2  0  0  0  0
  4  2  1  0  0  0  0
  5  4  1  0  0  0  0
  6  4  2  0  0  0  0
  6  7  1  0  0  0  0
  7  8  2  0  0  0  0
  8  1  1  0  0  0  0
  8  9  1  0  0  0  0
 10  7  1  0  0  0  0
 11 10  1  0  0  0  0
 12 11  1  0  0  0  0
 12 13  1  0  0  0  0
 14 12  2  0  0  0  0
 15 14  1  0  0  0  0
 16 18  2  0  0  0  0
 16 14  1  0  0  0  0
 17 16  1  0  0  0  0
 18 20  1  0  0  0  0
 19 18  1  0  0  0  0
 20 21  1  0  0  0  0
 20 11  2  0  0  0  0
 21  6  1  0  0  0  0
 22 21  1  0  0  0  0
 23 24  1  0  0  0  0
 24 26  1  0  0  0  0
 25 24  1  0  0  0  0
 27 32  1  0  0  0  0
 27 33  1  0  0  0  0
 28 34  1  0  0  0  0
 28 27  2  0  0  0  0
 29 30  2  0  0  0  0
 29 28  1  0  0  0  0
 30 31  1  0  0  0  0
 31 24  1  0  0  0  0
 31 32  2  0  0  0  0
 35 29  1  0  0  0  0
M  END
>  <minimizedAffinity>
-4.84332991

$$$$

 OpenBabel03242523313D

 35 38  0  0  0  0  0  0  0  0999 V2000
   38.6620   26.7120   41.6190 C   0  0  0  0  0  0  0  0  0  0  0  0
   38.3580   25.6520   42.4480 C   0  0  0  0  0  0  0  0  0  0  0  0
   38.8550   25.6380   43.4090 H   0  0  0  0  0  0  0  0  0  0  0  0
   37.4650   24.6920   42.0310 C   0  0  0  0  0  0  0  0  0  0  0  0
   37.2890   23.8900   42.7580 H   0  0  0  0  0  0  0  0  0  0  0  0
   36.8320   24.7110   40.8050 C   0  0  0  0  0  0  0  0  0  0  0  0
   37.1450   25.7670   40.0000 C   0  0  0  0  0  0  0  0  0  0  0  0
   38.0170   26.7150   40.3940 C   0  0  0  0  0  0  0  0  0  0  0  0
   38.2180   27.5360   39.6880 H   0  0  0  0  0  0  0  0  0  0  0  0
   36.3540   25.8410   38.4040 S   0  0  0  0  0  0  0  0  0  0  0  0
   35.2970   24.4140   38.2910 C   0  0  0  0  0  0  0  0  0  0  0  0
   34.5910   24.2850   37.1240 C   0  0  0  0  0  0  0  0  0  0  0  0
   34.6360   24.9660   36.3070 H   0  0  0  0  0  0  0  0  0  0  0  0
   33.7440   23.1910   36.9700 C   0  0  0  0  0  0  0  0  0  0  0  0
   33.1680   23.0370   36.0820 H   0  0  0  0  0  0  0  0  0  0  0  0
   33.6440   22.2780   37.9880 C   0  0  0  0  0  0  0  0  0  0  0  0
   32.9940   21.4370   37.8700 H   0  0  0  0  0  0  0  0  0  0  0  0
   34.3920   22.4880   39.1270 C   0  0  0  0  0  0  0  0  0  0  0  0
   34.2570   21.7140   39.8980 H   0  0  0  0  0  0  0  0  0  0  0  0
   35.2500   23.5440   39.3540 C   0  0  0  0  0  0  0  0  0  0  0  0
   35.9520   23.6410   40.5550 N   0  0  0  0  0  0  0  0  0  0  0  0
   35.7940   22.8870   41.2540 H   0  0  0  0  0  0  0  0  0  0  0  0
   39.7920   28.0410   41.9990 S   0  0  0  0  0  0  0  0  0  0  0  0
   38.9370   29.3220   42.9550 C   0  0  0  0  0  0  0  0  0  0  0  0
   38.2980   28.9440   43.7510 H   0  0  0  0  0  0  0  0  0  0  0  0
   39.7190   29.9650   43.4440 H   0  0  0  0  0  0  0  0  0  0  0  0
   36.2480   30.7700   40.8340 C   0  0  0  0  0  0  0  0  0  0  0  0
   36.9310   31.7720   40.1650 C   0  0  0  0  0  0  0  0  0  0  0  0
   38.2850   31.9410   40.4420 C   0  0  0  0  0  0  0  0  0  0  0  0
   38.8940   31.1290   41.3500 N   0  0  0  0  0  0  0  0  0  0  0  0
   38.1860   30.1600   41.9810 C   0  0  0  0  0  0  0  0  0  0  0  0
   36.8880   29.9840   41.7270 N   0  0  0  0  0  0  0  0  0  0  0  0
   35.1920   30.5180   40.7240 H   0  0  0  0  0  0  0  0  0  0  0  0
   36.3540   32.3650   39.4620 H   0  0  0  0  0  0  0  0  0  0  0  0
   38.8070   32.7270   39.9140 H   0  0  0  0  0  0  0  0  0  0  0  0
  1 23  1  0  0  0  0
  1  2  1  0  0  0  0
  2  3  1  0  0  0  0
  4  2  2  0  0  0  0
  4  5  1  0  0  0  0
  6  4  1  0  0  0  0
  7  8  1  0  0  0  0
  7  6  2  0  0  0  0
  8  1  2  0  0  0  0
  9  8  1  0  0  0  0
 10  7  1  0  0  0  0
 11 10  1  0  0  0  0
 11 20  1  0  0  0  0
 12 11  2  0  0  0  0
 13 12  1  0  0  0  0
 14 12  1  0  0  0  0
 14 16  2  0  0  0  0
 15 14  1  0  0  0  0
 16 18  1  0  0  0  0
 17 16  1  0  0  0  0
 18 20  2  0  0  0  0
 18 19  1  0  0  0  0
 20 21  1  0  0  0  0
 21  6  1  0  0  0  0
 21 22  1  0  0  0  0
 23 24  1  0  0  0  0
 24 26  1  0  0  0  0
 24 25  1  0  0  0  0
 27 32  1  0  0  0  0
 28 29  1  0  0  0  0
 28 27  2  0  0  0  0
 29 30  2  0  0  0  0
 30 31  1  0  0  0  0
 31 24  1  0  0  0  0
 32 31  2  0  0  0  0
 33 27  1  0  0  0  0
 34 28  1  0  0  0  0
 35 29  1  0  0  0  0
M  END
>  <minimizedAffinity>
-4.80288601

$$$$

 OpenBabel03242523313D

 35 38  0  0  0  0  0  0  0  0999 V2000
   34.7890   28.5230   36.5870 C   0  0  0  0  0  0  0  0  0  0  0  0
   34.9900   29.3340   37.6830 C   0  0  0  0  0  0  0  0  0  0  0  0
   34.6890   30.3680   37.5760 H   0  0  0  0  0  0  0  0  0  0  0  0
   35.5450   28.8110   38.8290 C   0  0  0  0  0  0  0  0  0  0  0  0
   35.6650   29.5340   39.6450 H   0  0  0  0  0  0  0  0  0  0  0  0
   35.9280   27.4930   38.9650 C   0  0  0  0  0  0  0  0  0  0  0  0
   35.7210   26.7060   37.8700 C   0  0  0  0  0  0  0  0  0  0  0  0
   35.1790   27.2030   36.7410 C   0  0  0  0  0  0  0  0  0  0  0  0
   35.0440   26.5060   35.9000 H   0  0  0  0  0  0  0  0  0  0  0  0
   36.1980   24.9930   37.9910 S   0  0  0  0  0  0  0  0  0  0  0  0
   36.8620   24.7620   39.6270 C   0  0  0  0  0  0  0  0  0  0  0  0
   37.2910   23.4950   39.9230 C   0  0  0  0  0  0  0  0  0  0  0  0
   37.2530   22.6670   39.2550 H   0  0  0  0  0  0  0  0  0  0  0  0
   37.8210   23.2460   41.1860 C   0  0  0  0  0  0  0  0  0  0  0  0
   38.1720   22.2780   41.4750 H   0  0  0  0  0  0  0  0  0  0  0  0
   37.8970   24.2730   42.0910 C   0  0  0  0  0  0  0  0  0  0  0  0
   38.3050   24.0810   43.0620 H   0  0  0  0  0  0  0  0  0  0  0  0
   37.4410   25.5160   41.7060 C   0  0  0  0  0  0  0  0  0  0  0  0
   37.5340   26.2860   42.4860 H   0  0  0  0  0  0  0  0  0  0  0  0
   36.9040   25.8400   40.4770 C   0  0  0  0  0  0  0  0  0  0  0  0
   36.4780   27.1420   40.2120 N   0  0  0  0  0  0  0  0  0  0  0  0
   36.5860   27.8370   40.9790 H   0  0  0  0  0  0  0  0  0  0  0  0
   34.0840   29.0340   35.0280 S   0  0  0  0  0  0  0  0  0  0  0  0
   32.2980   28.7230   35.0280 C   0  0  0  0  0  0  0  0  0  0  0  0
   31.9210   28.2390   34.1290 H   0  0  0  0  0  0  0  0  0  0  0  0
   32.0700   28.0350   35.8870 H   0  0  0  0  0  0  0  0  0  0  0  0
   30.4630   31.5280   36.6380 C   0  0  0  0  0  0  0  0  0  0  0  0
   30.4400   32.4650   35.6190 C   0  0  0  0  0  0  0  0  0  0  0  0
   31.0430   32.1340   34.4090 C   0  0  0  0  0  0  0  0  0  0  0  0
   31.6320   30.9160   34.2600 N   0  0  0  0  0  0  0  0  0  0  0  0
   31.6320   30.0280   35.2850 C   0  0  0  0  0  0  0  0  0  0  0  0
   31.0580   30.3280   36.4520 N   0  0  0  0  0  0  0  0  0  0  0  0
   30.0360   31.6400   37.6360 H   0  0  0  0  0  0  0  0  0  0  0  0
   29.9460   33.4060   35.8390 H   0  0  0  0  0  0  0  0  0  0  0  0
   31.0180   32.8740   33.6210 H   0  0  0  0  0  0  0  0  0  0  0  0
  1  8  2  0  0  0  0
  1  2  1  0  0  0  0
  2  4  2  0  0  0  0
  3  2  1  0  0  0  0
  4  6  1  0  0  0  0
  4  5  1  0  0  0  0
  6 21  1  0  0  0  0
  7 10  1  0  0  0  0
  7  6  2  0  0  0  0
  8  7  1  0  0  0  0
  9  8  1  0  0  0  0
 10 11  1  0  0  0  0
 11 12  2  0  0  0  0
 11 20  1  0  0  0  0
 12 14  1  0  0  0  0
 13 12  1  0  0  0  0
 14 15  1  0  0  0  0
 14 16  2  0  0  0  0
 16 17  1  0  0  0  0
 18 16  1  0  0  0  0
 18 19  1  0  0  0  0
 20 18  2  0  0  0  0
 21 20  1  0  0  0  0
 21 22  1  0  0  0  0
 23 24  1  0  0  0  0
 23  1  1  0  0  0  0
 24 31  1  0  0  0  0
 24 26  1  0  0  0  0
 25 24  1  0  0  0  0
 27 33  1  0  0  0  0
 28 34  1  0  0  0  0
 28 27  2  0  0  0  0
 29 28  1  0  0  0  0
 30 29  2  0  0  0  0
 30 31  1  0  0  0  0
 31 32  2  0  0  0  0
 32 27  1  0  0  0  0
 35 29  1  0  0  0  0
M  END
>  <minimizedAffinity>
-4.77966738

$$$$
