
 OpenBabel03242523313D

 35 38  0  0  0  0  0  0  0  0999 V2000
   47.5110   29.8650   47.3900 C   0  0  0  0  0  0  0  0  0  0  0  0
   46.6780   30.4450   48.3230 C   0  0  0  0  0  0  0  0  0  0  0  0
   46.5920   29.9330   49.2730 H   0  0  0  0  0  0  0  0  0  0  0  0
   46.0130   31.6100   48.0150 C   0  0  0  0  0  0  0  0  0  0  0  0
   45.3750   31.9940   48.8200 H   0  0  0  0  0  0  0  0  0  0  0  0
   46.1240   32.2620   46.8040 C   0  0  0  0  0  0  0  0  0  0  0  0
   46.9530   31.6730   45.8950 C   0  0  0  0  0  0  0  0  0  0  0  0
   47.6100   30.5320   46.1810 C   0  0  0  0  0  0  0  0  0  0  0  0
   48.2600   30.1180   45.3950 H   0  0  0  0  0  0  0  0  0  0  0  0
   47.1320   32.4730   44.3120 S   0  0  0  0  0  0  0  0  0  0  0  0
   46.1050   33.9260   44.3560 C   0  0  0  0  0  0  0  0  0  0  0  0
   46.1040   34.6900   43.2180 C   0  0  0  0  0  0  0  0  0  0  0  0
   46.6620   34.4720   42.3380 H   0  0  0  0  0  0  0  0  0  0  0  0
   45.3220   35.8410   43.1850 C   0  0  0  0  0  0  0  0  0  0  0  0
   45.2800   36.4760   42.3260 H   0  0  0  0  0  0  0  0  0  0  0  0
   44.5800   36.1740   44.2890 C   0  0  0  0  0  0  0  0  0  0  0  0
   43.9780   37.0590   44.2630 H   0  0  0  0  0  0  0  0  0  0  0  0
   44.6420   35.3460   45.3900 C   0  0  0  0  0  0  0  0  0  0  0  0
   44.0210   35.6800   46.2340 H   0  0  0  0  0  0  0  0  0  0  0  0
   45.3910   34.1930   45.4990 C   0  0  0  0  0  0  0  0  0  0  0  0
   45.3670   33.4410   46.6730 N   0  0  0  0  0  0  0  0  0  0  0  0
   44.7650   33.7940   47.4450 H   0  0  0  0  0  0  0  0  0  0  0  0
   48.4460   28.3600   47.6210 S   0  0  0  0  0  0  0  0  0  0  0  0
   47.5930   26.9770   46.8180 C   0  0  0  0  0  0  0  0  0  0  0  0
   47.1650   27.2100   45.8450 H   0  0  0  0  0  0  0  0  0  0  0  0
   48.3450   26.1580   46.6540 H   0  0  0  0  0  0  0  0  0  0  0  0
   44.4500   26.5320   48.7550 C   0  0  0  0  0  0  0  0  0  0  0  0
   44.7850   25.4800   49.5900 C   0  0  0  0  0  0  0  0  0  0  0  0
   46.0640   24.9400   49.4840 C   0  0  0  0  0  0  0  0  0  0  0  0
   46.9400   25.4520   48.5760 N   0  0  0  0  0  0  0  0  0  0  0  0
   46.5690   26.4840   47.7780 C   0  0  0  0  0  0  0  0  0  0  0  0
   45.3470   27.0140   47.8670 N   0  0  0  0  0  0  0  0  0  0  0  0
   43.4930   27.0560   48.7200 H   0  0  0  0  0  0  0  0  0  0  0  0
   44.0160   25.1440   50.2780 H   0  0  0  0  0  0  0  0  0  0  0  0
   46.3140   24.1180   50.1410 H   0  0  0  0  0  0  0  0  0  0  0  0
  1 23  1  0  0  0  0
  1  2  1  0  0  0  0
  2  3  1  0  0  0  0
  4  2  2  0  0  0  0
  4  5  1  0  0  0  0
  6  4  1  0  0  0  0
  7  8  1  0  0  0  0
  7  6  2  0  0  0  0
  8  1  2  0  0  0  0
  9  8  1  0  0  0  0
 10 11  1  0  0  0  0
 10  7  1  0  0  0  0
 11 20  1  0  0  0  0
 12 11  2  0  0  0  0
 13 12  1  0  0  0  0
 14 12  1  0  0  0  0
 14 16  2  0  0  0  0
 15 14  1  0  0  0  0
 16 18  1  0  0  0  0
 17 16  1  0  0  0  0
 18 20  2  0  0  0  0
 18 19  1  0  0  0  0
 20 21  1  0  0  0  0
 21  6  1  0  0  0  0
 21 22  1  0  0  0  0
 24 23  1  0  0  0  0
 24 31  1  0  0  0  0
 25 24  1  0  0  0  0
 26 24  1  0  0  0  0
 27 28  1  0  0  0  0
 28 34  1  0  0  0  0
 29 28  2  0  0  0  0
 29 35  1  0  0  0  0
 30 29  1  0  0  0  0
 31 32  1  0  0  0  0
 31 30  2  0  0  0  0
 32 27  2  0  0  0  0
 33 27  1  0  0  0  0
M  END
>  <minimizedAffinity>
-5.84076643

>  <minimizedRMSD>
8.05429363

$$$$
