
 OpenBabel03252509003D

 58 62  0  0  1  0  0  0  0  0999 V2000
   47.2790   34.0710   42.8790 N   0  0  0  0  0  0  0  0  0  0  0  0
   46.8520   35.3790   42.5450 C   0  0  0  0  0  0  0  0  0  0  0  0
   45.3940   35.6710   42.8310 C   0  0  0  0  0  0  0  0  0  0  0  0
   44.8460   34.9690   44.0350 C   0  0  0  0  0  0  0  0  0  0  0  0
   45.9060   34.1720   44.7560 C   0  0  0  0  0  0  0  0  0  0  0  0
   46.4740   33.2320   43.6330 C   0  0  2  0  0  0  0  0  0  0  0  0
   47.0530   35.7020   41.5240 H   0  0  0  0  0  0  0  0  0  0  0  0
   47.4310   36.0830   43.2060 H   0  0  0  0  0  0  0  0  0  0  0  0
   44.7990   35.4340   41.9140 H   0  0  0  0  0  0  0  0  0  0  0  0
   45.2840   36.7660   42.9950 H   0  0  0  0  0  0  0  0  0  0  0  0
   44.2950   35.6610   44.7120 H   0  0  0  0  0  0  0  0  0  0  0  0
   44.0760   34.2230   43.6850 H   0  0  0  0  0  0  0  0  0  0  0  0
   46.7120   34.7900   45.1600 H   0  0  0  0  0  0  0  0  0  0  0  0
   45.4100   33.5400   45.5190 H   0  0  0  0  0  0  0  0  0  0  0  0
   45.5760   32.7900   43.1690 H   0  0  0  0  0  0  0  0  0  0  0  0
   48.1930   33.5000   41.9410 C   0  0  0  0  0  0  0  0  0  0  0  0
   48.8380   32.7550   42.4740 H   0  0  0  0  0  0  0  0  0  0  0  0
   48.8530   34.2740   41.5450 H   0  0  0  0  0  0  0  0  0  0  0  0
   47.4230   32.7530   40.8970 C   0  0  0  0  0  0  0  0  0  0  0  0
   46.3670   33.1080   40.8540 H   0  0  0  0  0  0  0  0  0  0  0  0
   47.3720   31.6710   41.0690 H   0  0  0  0  0  0  0  0  0  0  0  0
   49.3300   32.3280   37.6860 C   0  0  0  0  0  0  0  0  0  0  0  0
   48.7700   32.0670   38.9510 C   0  0  0  0  0  0  0  0  0  0  0  0
   48.0110   33.0360   39.5610 C   0  0  0  0  0  0  0  0  0  0  0  0
   47.8370   34.1960   38.9130 N   0  0  0  0  0  0  0  0  0  0  0  0
   48.3770   34.4360   37.7010 C   0  0  0  0  0  0  0  0  0  0  0  0
   49.1250   33.5090   37.0800 N   0  0  0  0  0  0  0  0  0  0  0  0
   49.9270   31.5410   37.2290 H   0  0  0  0  0  0  0  0  0  0  0  0
   48.9310   31.1130   39.4520 H   0  0  0  0  0  0  0  0  0  0  0  0
   48.1930   35.3960   37.2400 H   0  0  0  0  0  0  0  0  0  0  0  0
   47.2280   32.3310   44.3780 O   0  0  0  0  0  0  0  0  0  0  0  0
   47.0670   29.7210   43.9340 O   0  0  0  0  0  0  0  0  0  0  0  0
   46.4180   30.8850   44.6680 P   0  0  2  0  0  0  0  0  0  0  0  0
   44.8710   31.0560   43.9550 O   0  0  0  0  0  0  0  0  0  0  0  0
   44.2660   31.5460   44.5630 H   0  0  0  0  0  0  0  0  0  0  0  0
   46.2150   30.5900   46.2980 O   0  0  0  0  0  0  0  0  0  0  0  0
   46.1020   29.3710   46.9120 C   0  0  0  0  0  0  0  0  0  0  0  0
   44.8710   28.8420   47.2490 C   0  0  0  0  0  0  0  0  0  0  0  0
   43.9780   29.4010   47.0240 H   0  0  0  0  0  0  0  0  0  0  0  0
   44.8130   27.6080   47.8680 C   0  0  0  0  0  0  0  0  0  0  0  0
   43.7930   27.2640   48.1000 H   0  0  0  0  0  0  0  0  0  0  0  0
   45.9320   26.8610   48.1730 C   0  0  0  0  0  0  0  0  0  0  0  0
   47.1620   27.3730   47.8450 C   0  0  0  0  0  0  0  0  0  0  0  0
   47.1980   28.5970   47.2320 C   0  0  0  0  0  0  0  0  0  0  0  0
   48.1770   29.0040   46.9710 H   0  0  0  0  0  0  0  0  0  0  0  0
   48.6300   26.4390   48.2230 S   0  0  0  0  0  0  0  0  0  0  0  0
   48.0630   24.9390   49.0040 C   0  0  0  0  0  0  0  0  0  0  0  0
   49.0270   24.0710   49.3790 C   0  0  0  0  0  0  0  0  0  0  0  0
   50.0840   24.2420   49.2310 H   0  0  0  0  0  0  0  0  0  0  0  0
   48.6870   22.8820   49.9920 C   0  0  0  0  0  0  0  0  0  0  0  0
   49.4550   22.1830   50.2940 H   0  0  0  0  0  0  0  0  0  0  0  0
   47.3510   22.6160   50.2050 C   0  0  0  0  0  0  0  0  0  0  0  0
   47.0390   21.6960   50.6820 H   0  0  0  0  0  0  0  0  0  0  0  0
   46.4220   23.5510   49.7940 C   0  0  0  0  0  0  0  0  0  0  0  0
   45.3760   23.2810   49.9910 H   0  0  0  0  0  0  0  0  0  0  0  0
   46.7160   24.7480   49.1790 C   0  0  0  0  0  0  0  0  0  0  0  0
   45.6770   25.6310   48.8020 N   0  0  0  0  0  0  0  0  0  0  0  0
   44.7110   25.3100   49.0190 H   0  0  0  0  0  0  0  0  0  0  0  0
  1  6  1  0  0  0  0
  2  3  1  0  0  0  0
  2  1  1  0  0  0  0
  2  8  1  0  0  0  0
  3 10  1  0  0  0  0
  3  4  1  0  0  0  0
  4 11  1  0  0  0  0
  4  5  1  0  0  0  0
  5 13  1  0  0  0  0
  5 14  1  0  0  0  0
  6 15  1  6  0  0  0
  6 31  1  0  0  0  0
  6  5  1  0  0  0  0
  7  2  1  0  0  0  0
  9  3  1  0  0  0  0
 12  4  1  0  0  0  0
 16 17  1  0  0  0  0
 16  1  1  0  0  0  0
 18 16  1  0  0  0  0
 19 21  1  0  0  0  0
 19 16  1  0  0  0  0
 20 19  1  0  0  0  0
 22 23  1  0  0  0  0
 23 29  1  0  0  0  0
 23 24  2  0  0  0  0
 24 19  1  0  0  0  0
 25 24  1  0  0  0  0
 26 25  2  0  0  0  0
 27 22  2  0  0  0  0
 27 26  1  0  0  0  0
 28 22  1  0  0  0  0
 30 26  1  0  0  0  0
 31 33  1  0  0  0  0
 33 32  2  6  0  0  0
 33 36  1  0  0  0  0
 34 35  1  0  0  0  0
 34 33  1  0  0  0  0
 36 37  1  0  0  0  0
 37 44  2  0  0  0  0
 37 38  1  0  0  0  0
 38 40  2  0  0  0  0
 39 38  1  0  0  0  0
 40 41  1  0  0  0  0
 40 42  1  0  0  0  0
 42 57  1  0  0  0  0
 43 42  2  0  0  0  0
 43 46  1  0  0  0  0
 44 43  1  0  0  0  0
 45 44  1  0  0  0  0
 46 47  1  0  0  0  0
 47 56  2  0  0  0  0
 47 48  1  0  0  0  0
 48 50  2  0  0  0  0
 49 48  1  0  0  0  0
 50 52  1  0  0  0  0
 50 51  1  0  0  0  0
 52 53  1  0  0  0  0
 54 55  1  0  0  0  0
 54 52  2  0  0  0  0
 56 54  1  0  0  0  0
 57 58  1  0  0  0  0
 57 56  1  0  0  0  0
M  END
>  <minimizedAffinity>
-5.42628145

>  <minimizedRMSD>
1.19538188

$$$$
