
 OpenBabel03252502563D

 50 54  0  0  0  0  0  0  0  0999 V2000
   44.4090   26.2650   46.9290 O   0  0  0  0  0  0  0  0  0  0  0  0
   45.0740   27.3300   47.7880 P   0  0  2  0  0  0  0  0  0  0  0  0
   44.4770   27.2390   49.3570 O   0  0  0  0  0  0  0  0  0  0  0  0
   45.1820   27.2660   50.0560 H   0  0  0  0  0  0  0  0  0  0  0  0
   44.6200   28.8510   47.1640 O   0  0  0  0  0  0  0  0  0  0  0  0
   45.3450   30.1370   44.4480 Br  0  0  0  0  0  0  0  0  0  0  0  0
   45.8450   30.7220   46.2260 C   0  0  0  0  0  0  0  0  0  0  0  0
   46.6180   31.8470   46.2910 C   0  0  0  0  0  0  0  0  0  0  0  0
   46.9580   32.2360   47.5880 C   0  0  0  0  0  0  0  0  0  0  0  0
   46.5550   31.5520   48.7180 C   0  0  0  0  0  0  0  0  0  0  0  0
   45.7790   30.4300   48.5640 C   0  0  0  0  0  0  0  0  0  0  0  0
   45.4100   29.9940   47.3080 C   0  0  0  0  0  0  0  0  0  0  0  0
   47.5700   33.1180   47.7210 H   0  0  0  0  0  0  0  0  0  0  0  0
   46.8620   31.9200   49.6900 H   0  0  0  0  0  0  0  0  0  0  0  0
   45.4680   29.9000   49.4510 H   0  0  0  0  0  0  0  0  0  0  0  0
   47.1060   32.6550   45.1700 C   0  0  0  0  0  0  0  0  0  0  0  0
   48.1520   33.0130   45.3130 H   0  0  0  0  0  0  0  0  0  0  0  0
   47.1360   31.9790   44.2720 H   0  0  0  0  0  0  0  0  0  0  0  0
   44.5570   35.3740   45.3520 C   0  0  0  0  0  0  0  0  0  0  0  0
   44.6860   35.9640   44.0930 C   0  0  0  0  0  0  0  0  0  0  0  0
   45.6210   35.4360   43.2180 C   0  0  0  0  0  0  0  0  0  0  0  0
   46.3790   34.3750   43.5980 N   0  0  0  0  0  0  0  0  0  0  0  0
   46.2330   33.8140   44.8400 C   0  0  0  0  0  0  0  0  0  0  0  0
   45.3160   34.3390   45.6860 N   0  0  0  0  0  0  0  0  0  0  0  0
   43.8780   35.6780   46.1260 H   0  0  0  0  0  0  0  0  0  0  0  0
   44.0330   36.8040   43.8920 H   0  0  0  0  0  0  0  0  0  0  0  0
   45.7070   35.9050   42.2490 H   0  0  0  0  0  0  0  0  0  0  0  0
   46.7340   27.0880   47.7480 O   0  0  0  0  0  0  0  0  0  0  0  0
   47.6460   27.7080   46.9180 C   0  0  0  0  0  0  0  0  0  0  0  0
   48.6200   28.5280   47.4480 C   0  0  0  0  0  0  0  0  0  0  0  0
   48.6320   28.6570   48.5130 H   0  0  0  0  0  0  0  0  0  0  0  0
   49.5160   29.1330   46.5910 C   0  0  0  0  0  0  0  0  0  0  0  0
   50.2390   29.7540   47.1030 H   0  0  0  0  0  0  0  0  0  0  0  0
   49.5260   28.9870   45.2210 C   0  0  0  0  0  0  0  0  0  0  0  0
   48.5310   28.1580   44.7650 C   0  0  0  0  0  0  0  0  0  0  0  0
   47.6290   27.5400   45.5510 C   0  0  0  0  0  0  0  0  0  0  0  0
   46.8430   26.8850   45.1750 H   0  0  0  0  0  0  0  0  0  0  0  0
   48.3860   27.8490   43.0150 S   0  0  0  0  0  0  0  0  0  0  0  0
   49.6940   28.7860   42.2560 C   0  0  0  0  0  0  0  0  0  0  0  0
   49.8920   28.7880   40.9060 C   0  0  0  0  0  0  0  0  0  0  0  0
   49.2200   28.1920   40.2700 H   0  0  0  0  0  0  0  0  0  0  0  0
   50.8830   29.4860   40.2160 C   0  0  0  0  0  0  0  0  0  0  0  0
   50.9660   29.4330   39.1560 H   0  0  0  0  0  0  0  0  0  0  0  0
   51.7180   30.2300   41.0290 C   0  0  0  0  0  0  0  0  0  0  0  0
   52.5130   30.7970   40.5510 H   0  0  0  0  0  0  0  0  0  0  0  0
   51.5360   30.2420   42.4020 C   0  0  0  0  0  0  0  0  0  0  0  0
   52.2500   30.8630   42.9650 H   0  0  0  0  0  0  0  0  0  0  0  0
   50.5380   29.5330   43.0370 C   0  0  0  0  0  0  0  0  0  0  0  0
   50.4890   29.6500   44.4230 N   0  0  0  0  0  0  0  0  0  0  0  0
   51.1670   30.2390   44.9520 H   0  0  0  0  0  0  0  0  0  0  0  0
  2  1  2  6  0  0  0
  2  3  1  0  0  0  0
  3  4  1  0  0  0  0
  5 12  1  0  0  0  0
  5  2  1  0  0  0  0
  6  7  1  0  0  0  0
  7  8  2  0  0  0  0
  7 12  1  0  0  0  0
  8  9  1  0  0  0  0
  9 13  1  0  0  0  0
  9 10  2  0  0  0  0
 10 14  1  0  0  0  0
 11 10  1  0  0  0  0
 11 15  1  0  0  0  0
 12 11  2  0  0  0  0
 16 17  1  0  0  0  0
 16  8  1  0  0  0  0
 18 16  1  0  0  0  0
 19 24  1  0  0  0  0
 19 25  1  0  0  0  0
 20 19  2  0  0  0  0
 21 22  2  0  0  0  0
 21 20  1  0  0  0  0
 22 23  1  0  0  0  0
 23 16  1  0  0  0  0
 23 24  2  0  0  0  0
 26 20  1  0  0  0  0
 27 21  1  0  0  0  0
 28  2  1  0  0  0  0
 29 30  1  0  0  0  0
 29 28  1  0  0  0  0
 30 31  1  0  0  0  0
 32 33  1  0  0  0  0
 32 30  2  0  0  0  0
 34 32  1  0  0  0  0
 35 34  2  0  0  0  0
 35 36  1  0  0  0  0
 36 29  2  0  0  0  0
 37 36  1  0  0  0  0
 38 35  1  0  0  0  0
 39 38  1  0  0  0  0
 39 48  1  0  0  0  0
 40 39  2  0  0  0  0
 41 40  1  0  0  0  0
 42 40  1  0  0  0  0
 42 44  2  0  0  0  0
 43 42  1  0  0  0  0
 44 46  1  0  0  0  0
 45 44  1  0  0  0  0
 46 47  1  0  0  0  0
 46 48  2  0  0  0  0
 48 49  1  0  0  0  0
 49 50  1  0  0  0  0
 49 34  1  0  0  0  0
M  END
>  <minimizedAffinity>
-5.36297941

>  <minimizedRMSD>
3.95461774

$$$$
