
 OpenBabel03252501353D

 38 41  0  0  0  0  0  0  0  0999 V2000
   45.7540   33.6030   42.8420 C   0  0  0  0  0  0  0  0  0  0  0  0
   46.0190   32.7190   41.8160 C   0  0  0  0  0  0  0  0  0  0  0  0
   46.9350   32.1450   41.8460 H   0  0  0  0  0  0  0  0  0  0  0  0
   45.1160   32.5860   40.7830 C   0  0  0  0  0  0  0  0  0  0  0  0
   45.4050   31.8670   40.0190 H   0  0  0  0  0  0  0  0  0  0  0  0
   43.9340   33.2920   40.6950 C   0  0  0  0  0  0  0  0  0  0  0  0
   43.6960   34.1640   41.7260 C   0  0  0  0  0  0  0  0  0  0  0  0
   44.5720   34.3090   42.7510 C   0  0  0  0  0  0  0  0  0  0  0  0
   44.3130   35.0260   43.5410 H   0  0  0  0  0  0  0  0  0  0  0  0
   42.1880   35.1080   41.6790 S   0  0  0  0  0  0  0  0  0  0  0  0
   41.3230   34.6420   40.2020 C   0  0  0  0  0  0  0  0  0  0  0  0
   40.1250   35.2140   39.9060 C   0  0  0  0  0  0  0  0  0  0  0  0
   39.7000   35.9650   40.5890 H   0  0  0  0  0  0  0  0  0  0  0  0
   39.4030   34.8970   38.7770 C   0  0  0  0  0  0  0  0  0  0  0  0
   38.4620   35.3510   38.5510 H   0  0  0  0  0  0  0  0  0  0  0  0
   39.9470   33.9570   37.9320 C   0  0  0  0  0  0  0  0  0  0  0  0
   39.4070   33.6980   37.0560 H   0  0  0  0  0  0  0  0  0  0  0  0
   41.1570   33.4000   38.2610 C   0  0  0  0  0  0  0  0  0  0  0  0
   41.5170   32.6580   37.5300 H   0  0  0  0  0  0  0  0  0  0  0  0
   41.8980   33.7010   39.3850 C   0  0  0  0  0  0  0  0  0  0  0  0
   43.1290   33.0270   39.5650 N   0  0  0  0  0  0  0  0  0  0  0  0
   43.4290   32.3350   38.8480 H   0  0  0  0  0  0  0  0  0  0  0  0
   46.6440   33.7610   43.8980 O   0  0  0  0  0  0  0  0  0  0  0  0
   46.4450   33.0280   45.0740 C   0  0  0  0  0  0  0  0  0  0  0  0
   45.7760   31.9460   45.1920 O   0  0  0  0  0  0  0  0  0  0  0  0
   47.0090   33.4550   46.3190 N   0  0  0  0  0  0  0  0  0  0  0  0
   47.5850   34.3080   46.3750 H   0  0  0  0  0  0  0  0  0  0  0  0
   46.6230   32.5100   47.3590 C   0  0  0  0  0  0  0  0  0  0  0  0
   45.4470   32.5690   48.0650 C   0  0  0  0  0  0  0  0  0  0  0  0
   45.2660   31.5670   49.0150 C   0  0  0  0  0  0  0  0  0  0  0  0
   46.2340   30.6480   49.1620 N   0  0  0  0  0  0  0  0  0  0  0  0
   47.3670   30.6280   48.4530 C   0  0  0  0  0  0  0  0  0  0  0  0
   47.5930   31.5790   47.5150 N   0  0  0  0  0  0  0  0  0  0  0  0
   44.3400   31.6100   49.5740 H   0  0  0  0  0  0  0  0  0  0  0  0
   48.0830   29.8440   48.6480 H   0  0  0  0  0  0  0  0  0  0  0  0
   44.5530   33.6150   47.7620 N   0  0  0  0  0  0  0  0  0  0  0  0
   44.6000   34.6160   48.0820 H   0  0  0  0  0  0  0  0  0  0  0  0
   43.8750   33.0910   47.1530 H   0  0  0  0  0  0  0  0  0  0  0  0
  1 23  1  0  0  0  0
  2  3  1  0  0  0  0
  2  1  2  0  0  0  0
  4  2  1  0  0  0  0
  5  4  1  0  0  0  0
  6  4  2  0  0  0  0
  6  7  1  0  0  0  0
  7  8  2  0  0  0  0
  8  1  1  0  0  0  0
  8  9  1  0  0  0  0
 10  7  1  0  0  0  0
 11 10  1  0  0  0  0
 12 11  1  0  0  0  0
 12 13  1  0  0  0  0
 14 12  2  0  0  0  0
 15 14  1  0  0  0  0
 16 18  2  0  0  0  0
 16 14  1  0  0  0  0
 17 16  1  0  0  0  0
 18 20  1  0  0  0  0
 19 18  1  0  0  0  0
 20 21  1  0  0  0  0
 20 11  2  0  0  0  0
 21  6  1  0  0  0  0
 22 21  1  0  0  0  0
 23 24  1  0  0  0  0
 24 25  2  0  0  0  0
 24 26  1  0  0  0  0
 26 27  1  0  0  0  0
 26 28  1  0  0  0  0
 28 33  2  0  0  0  0
 28 29  1  0  0  0  0
 29 30  2  0  0  0  0
 30 31  1  0  0  0  0
 30 34  1  0  0  0  0
 32 35  1  0  0  0  0
 32 31  2  0  0  0  0
 33 32  1  0  0  0  0
 36 29  1  0  0  0  0
 36 37  1  0  0  0  0
 38 36  1  0  0  0  0
M  END
>  <minimizedAffinity>
-6.88825655

>  <minimizedRMSD>
3.91057777

$$$$
