
 OpenBabel03242523123D

 59 65  0  0  1  0  0  0  0  0999 V2000
   46.4430   32.0230   45.5360 C   0  0  0  0  0  0  0  0  0  0  0  0
   46.7370   32.7540   44.3640 C   0  0  0  0  0  0  0  0  0  0  0  0
   47.6920   32.1180   43.6080 C   0  0  0  0  0  0  0  0  0  0  0  0
   48.3040   30.9420   43.9110 C   0  0  0  0  0  0  0  0  0  0  0  0
   47.9600   30.2850   45.0890 C   0  0  0  0  0  0  0  0  0  0  0  0
   47.0130   30.8370   45.9110 C   0  0  0  0  0  0  0  0  0  0  0  0
   48.7480   29.1460   45.1040 O   0  0  0  0  0  0  0  0  0  0  0  0
   49.5250   29.0710   43.9250 C   0  0  2  0  0  0  0  0  0  0  0  0
   49.2660   30.2600   43.1880 O   0  0  0  0  0  0  0  0  0  0  0  0
   45.7180   32.2470   46.3490 H   0  0  0  0  0  0  0  0  0  0  0  0
   47.9250   32.6410   42.7340 H   0  0  0  0  0  0  0  0  0  0  0  0
   46.8360   30.2510   46.7710 H   0  0  0  0  0  0  0  0  0  0  0  0
   50.6060   29.0070   44.1780 H   0  0  0  0  0  0  0  0  0  0  0  0
   45.1030   36.0160   43.5100 C   0  0  0  0  0  0  0  0  0  0  0  0
   45.9000   34.8940   43.2830 C   0  0  0  0  0  0  0  0  0  0  0  0
   46.0410   33.9600   44.2650 C   0  0  0  0  0  0  0  0  0  0  0  0
   45.3770   34.1880   45.4410 N   0  0  0  0  0  0  0  0  0  0  0  0
   44.6120   35.2640   45.6560 C   0  0  0  0  0  0  0  0  0  0  0  0
   44.4820   36.1570   44.7070 N   0  0  0  0  0  0  0  0  0  0  0  0
   44.9850   36.7600   42.7390 H   0  0  0  0  0  0  0  0  0  0  0  0
   44.0640   35.5000   46.5580 H   0  0  0  0  0  0  0  0  0  0  0  0
   46.5420   34.8070   42.0480 N   0  0  0  0  0  0  0  0  0  0  0  0
   47.8700   35.2950   41.8480 C   0  0  0  0  0  0  0  0  0  0  0  0
   48.4710   34.9640   40.5120 C   0  0  0  0  0  0  0  0  0  0  0  0
   48.1670   33.6960   40.0300 N   0  0  0  0  0  0  0  0  0  0  0  0
   46.8880   33.2370   40.1900 C   0  0  0  0  0  0  0  0  0  0  0  0
   46.0030   34.2550   40.8700 C   0  0  0  0  0  0  0  0  0  0  0  0
   48.5860   35.0230   42.6590 H   0  0  0  0  0  0  0  0  0  0  0  0
   47.8070   36.4170   41.9110 H   0  0  0  0  0  0  0  0  0  0  0  0
   48.0690   35.7240   39.7810 H   0  0  0  0  0  0  0  0  0  0  0  0
   49.5570   35.1910   40.5660 H   0  0  0  0  0  0  0  0  0  0  0  0
   48.8250   33.2220   39.4140 H   0  0  0  0  0  0  0  0  0  0  0  0
   46.7650   32.2600   40.7220 H   0  0  0  0  0  0  0  0  0  0  0  0
   46.4170   33.0420   39.1830 H   0  0  0  0  0  0  0  0  0  0  0  0
   45.0710   33.6930   41.1520 H   0  0  0  0  0  0  0  0  0  0  0  0
   45.7010   34.9880   40.0820 H   0  0  0  0  0  0  0  0  0  0  0  0
   49.0660   27.9720   43.1940 O   0  0  0  0  0  0  0  0  0  0  0  0
   49.7640   26.8520   42.8450 C   0  0  0  0  0  0  0  0  0  0  0  0
   49.6780   26.1500   41.6600 C   0  0  0  0  0  0  0  0  0  0  0  0
   48.9820   26.5290   40.9240 H   0  0  0  0  0  0  0  0  0  0  0  0
   50.4650   25.0340   41.4850 C   0  0  0  0  0  0  0  0  0  0  0  0
   50.3340   24.5390   40.5180 H   0  0  0  0  0  0  0  0  0  0  0  0
   51.3500   24.5560   42.4230 C   0  0  0  0  0  0  0  0  0  0  0  0
   51.4250   25.2540   43.5830 C   0  0  0  0  0  0  0  0  0  0  0  0
   50.6690   26.3500   43.7880 C   0  0  0  0  0  0  0  0  0  0  0  0
   50.7760   26.8730   44.7510 H   0  0  0  0  0  0  0  0  0  0  0  0
   52.5500   24.6950   44.8480 S   0  0  0  0  0  0  0  0  0  0  0  0
   53.3300   23.2420   44.1690 C   0  0  0  0  0  0  0  0  0  0  0  0
   54.2480   22.6490   45.0000 C   0  0  0  0  0  0  0  0  0  0  0  0
   54.5060   23.0090   46.0030 H   0  0  0  0  0  0  0  0  0  0  0  0
   54.9120   21.5120   44.5650 C   0  0  0  0  0  0  0  0  0  0  0  0
   55.6480   20.9810   45.1530 H   0  0  0  0  0  0  0  0  0  0  0  0
   54.6270   21.0140   43.3110 C   0  0  0  0  0  0  0  0  0  0  0  0
   55.1380   20.1280   42.9580 H   0  0  0  0  0  0  0  0  0  0  0  0
   53.6890   21.6800   42.5480 C   0  0  0  0  0  0  0  0  0  0  0  0
   53.5200   21.2190   41.5610 H   0  0  0  0  0  0  0  0  0  0  0  0
   53.0000   22.8120   42.9290 C   0  0  0  0  0  0  0  0  0  0  0  0
   52.0710   23.4060   42.0770 N   0  0  0  0  0  0  0  0  0  0  0  0
   51.9360   22.9450   41.1510 H   0  0  0  0  0  0  0  0  0  0  0  0
  1  6  1  0  0  0  0
  1 10  1  0  0  0  0
  2  1  2  0  0  0  0
  3  4  2  0  0  0  0
  3  2  1  0  0  0  0
  4  5  1  0  0  0  0
  5  7  1  0  0  0  0
  5  6  2  0  0  0  0
  6 12  1  0  0  0  0
  8 13  1  1  0  0  0
  8  7  1  0  0  0  0
  9  4  1  0  0  0  0
  9  8  1  0  0  0  0
 11  3  1  0  0  0  0
 14 19  1  0  0  0  0
 15 14  2  0  0  0  0
 15 16  1  0  0  0  0
 16  2  1  0  0  0  0
 16 17  2  0  0  0  0
 17 18  1  0  0  0  0
 18 21  1  0  0  0  0
 19 18  2  0  0  0  0
 20 14  1  0  0  0  0
 22 15  1  0  0  0  0
 23 29  1  0  0  0  0
 23 22  1  0  0  0  0
 23 28  1  0  0  0  0
 24 31  1  0  0  0  0
 24 23  1  0  0  0  0
 25 26  1  0  0  0  0
 25 24  1  0  0  0  0
 26 33  1  0  0  0  0
 26 27  1  0  0  0  0
 27 35  1  0  0  0  0
 27 22  1  0  0  0  0
 30 24  1  0  0  0  0
 32 25  1  0  0  0  0
 34 26  1  0  0  0  0
 36 27  1  0  0  0  0
 37  8  1  0  0  0  0
 38 37  1  0  0  0  0
 38 45  1  0  0  0  0
 39 38  2  0  0  0  0
 40 39  1  0  0  0  0
 41 39  1  0  0  0  0
 41 43  2  0  0  0  0
 42 41  1  0  0  0  0
 43 44  1  0  0  0  0
 44 45  2  0  0  0  0
 44 47  1  0  0  0  0
 45 46  1  0  0  0  0
 48 47  1  0  0  0  0
 48 49  1  0  0  0  0
 49 50  1  0  0  0  0
 51 49  2  0  0  0  0
 51 52  1  0  0  0  0
 53 51  1  0  0  0  0
 54 53  1  0  0  0  0
 55 57  1  0  0  0  0
 55 53  2  0  0  0  0
 56 55  1  0  0  0  0
 57 48  2  0  0  0  0
 58 43  1  0  0  0  0
 58 57  1  0  0  0  0
 59 58  1  0  0  0  0
M  END
>  <minimizedAffinity>
-4.64056683

>  <minimizedRMSD>
0.179013312

$$$$
