
 OpenBabel03252509003D

 58 62  0  0  1  0  0  0  0  0999 V2000
   47.1930   34.1170   42.9400 N   0  0  0  0  0  0  0  0  0  0  0  0
   46.7640   35.3680   42.4350 C   0  0  0  0  0  0  0  0  0  0  0  0
   45.2950   35.6720   42.6370 C   0  0  0  0  0  0  0  0  0  0  0  0
   44.7140   35.1130   43.9000 C   0  0  0  0  0  0  0  0  0  0  0  0
   45.7590   34.4260   44.7460 C   0  0  0  0  0  0  0  0  0  0  0  0
   46.3730   33.3640   43.7650 C   0  0  2  0  0  0  0  0  0  0  0  0
   46.9960   35.5670   41.3890 H   0  0  0  0  0  0  0  0  0  0  0  0
   47.3140   36.1560   43.0230 H   0  0  0  0  0  0  0  0  0  0  0  0
   44.7330   35.3160   41.7380 H   0  0  0  0  0  0  0  0  0  0  0  0
   45.1680   36.7770   42.6630 H   0  0  0  0  0  0  0  0  0  0  0  0
   44.1350   35.8750   44.4700 H   0  0  0  0  0  0  0  0  0  0  0  0
   43.9650   34.3200   43.6200 H   0  0  0  0  0  0  0  0  0  0  0  0
   46.5450   35.1000   45.0970 H   0  0  0  0  0  0  0  0  0  0  0  0
   45.2440   33.8840   45.5640 H   0  0  0  0  0  0  0  0  0  0  0  0
   45.4950   32.8560   43.3300 H   0  0  0  0  0  0  0  0  0  0  0  0
   48.1440   33.4490   42.1070 C   0  0  0  0  0  0  0  0  0  0  0  0
   48.7150   32.7140   42.7300 H   0  0  0  0  0  0  0  0  0  0  0  0
   48.8650   34.1670   41.7140 H   0  0  0  0  0  0  0  0  0  0  0  0
   47.4160   32.6700   41.0570 C   0  0  0  0  0  0  0  0  0  0  0  0
   46.3430   32.9730   41.0100 H   0  0  0  0  0  0  0  0  0  0  0  0
   47.4160   31.5850   41.2260 H   0  0  0  0  0  0  0  0  0  0  0  0
   49.3430   32.3420   37.8470 C   0  0  0  0  0  0  0  0  0  0  0  0
   48.7910   32.0500   39.1090 C   0  0  0  0  0  0  0  0  0  0  0  0
   47.9950   32.9850   39.7250 C   0  0  0  0  0  0  0  0  0  0  0  0
   47.7790   34.1440   39.0860 N   0  0  0  0  0  0  0  0  0  0  0  0
   48.3120   34.4130   37.8770 C   0  0  0  0  0  0  0  0  0  0  0  0
   49.0950   33.5190   37.2500 N   0  0  0  0  0  0  0  0  0  0  0  0
   49.9700   31.5830   37.3850 H   0  0  0  0  0  0  0  0  0  0  0  0
   48.9870   31.0990   39.6030 H   0  0  0  0  0  0  0  0  0  0  0  0
   48.0930   35.3700   37.4240 H   0  0  0  0  0  0  0  0  0  0  0  0
   47.1120   32.5710   44.6370 O   0  0  0  0  0  0  0  0  0  0  0  0
   45.2110   30.7990   44.1050 O   0  0  0  0  0  0  0  0  0  0  0  0
   46.2910   31.1790   45.1080 P   0  0  2  0  0  0  0  0  0  0  0  0
   45.4480   31.5870   46.5410 O   0  0  0  0  0  0  0  0  0  0  0  0
   46.0500   31.5250   47.3210 H   0  0  0  0  0  0  0  0  0  0  0  0
   47.3290   29.9180   45.4490 O   0  0  0  0  0  0  0  0  0  0  0  0
   47.0830   28.8360   46.2520 C   0  0  0  0  0  0  0  0  0  0  0  0
   45.8000   28.3850   46.4880 C   0  0  0  0  0  0  0  0  0  0  0  0
   44.9700   28.8970   46.0290 H   0  0  0  0  0  0  0  0  0  0  0  0
   45.6080   27.2900   47.3050 C   0  0  0  0  0  0  0  0  0  0  0  0
   44.5530   26.9980   47.4380 H   0  0  0  0  0  0  0  0  0  0  0  0
   46.6430   26.6080   47.9120 C   0  0  0  0  0  0  0  0  0  0  0  0
   47.9250   27.0430   47.6890 C   0  0  0  0  0  0  0  0  0  0  0  0
   48.0930   28.1310   46.8740 C   0  0  0  0  0  0  0  0  0  0  0  0
   49.1130   28.4770   46.6970 H   0  0  0  0  0  0  0  0  0  0  0  0
   49.2860   26.1890   48.4530 S   0  0  0  0  0  0  0  0  0  0  0  0
   48.5600   24.8650   49.4010 C   0  0  0  0  0  0  0  0  0  0  0  0
   49.4260   24.0770   50.0730 C   0  0  0  0  0  0  0  0  0  0  0  0
   50.4990   24.2140   50.0600 H   0  0  0  0  0  0  0  0  0  0  0  0
   48.9590   23.0270   50.8350 C   0  0  0  0  0  0  0  0  0  0  0  0
   49.6480   22.3930   51.3750 H   0  0  0  0  0  0  0  0  0  0  0  0
   47.5970   22.8100   50.8840 C   0  0  0  0  0  0  0  0  0  0  0  0
   47.1870   21.9980   51.4680 H   0  0  0  0  0  0  0  0  0  0  0  0
   46.7730   23.6560   50.1710 C   0  0  0  0  0  0  0  0  0  0  0  0
   45.7010   23.4330   50.2500 H   0  0  0  0  0  0  0  0  0  0  0  0
   47.1960   24.7170   49.3980 C   0  0  0  0  0  0  0  0  0  0  0  0
   46.2550   25.5170   48.7100 N   0  0  0  0  0  0  0  0  0  0  0  0
   45.2580   25.2480   48.8310 H   0  0  0  0  0  0  0  0  0  0  0  0
  1  6  1  0  0  0  0
  2  3  1  0  0  0  0
  2  1  1  0  0  0  0
  2  8  1  0  0  0  0
  3 10  1  0  0  0  0
  3  4  1  0  0  0  0
  4 11  1  0  0  0  0
  4  5  1  0  0  0  0
  5 13  1  0  0  0  0
  5 14  1  0  0  0  0
  6 15  1  6  0  0  0
  6 31  1  0  0  0  0
  6  5  1  0  0  0  0
  7  2  1  0  0  0  0
  9  3  1  0  0  0  0
 12  4  1  0  0  0  0
 16 17  1  0  0  0  0
 16  1  1  0  0  0  0
 18 16  1  0  0  0  0
 19 21  1  0  0  0  0
 19 16  1  0  0  0  0
 20 19  1  0  0  0  0
 22 23  1  0  0  0  0
 23 29  1  0  0  0  0
 23 24  2  0  0  0  0
 24 19  1  0  0  0  0
 25 24  1  0  0  0  0
 26 25  2  0  0  0  0
 27 22  2  0  0  0  0
 27 26  1  0  0  0  0
 28 22  1  0  0  0  0
 30 26  1  0  0  0  0
 31 33  1  0  0  0  0
 33 32  2  6  0  0  0
 33 36  1  0  0  0  0
 33 34  1  0  0  0  0
 34 35  1  0  0  0  0
 36 37  1  0  0  0  0
 37 38  2  0  0  0  0
 37 44  1  0  0  0  0
 38 40  1  0  0  0  0
 39 38  1  0  0  0  0
 40 41  1  0  0  0  0
 40 42  2  0  0  0  0
 42 57  1  0  0  0  0
 43 42  1  0  0  0  0
 43 46  1  0  0  0  0
 44 43  2  0  0  0  0
 45 44  1  0  0  0  0
 46 47  1  0  0  0  0
 47 48  1  0  0  0  0
 48 50  2  0  0  0  0
 49 48  1  0  0  0  0
 50 52  1  0  0  0  0
 50 51  1  0  0  0  0
 52 53  1  0  0  0  0
 54 55  1  0  0  0  0
 54 52  2  0  0  0  0
 56 47  2  0  0  0  0
 56 54  1  0  0  0  0
 57 58  1  0  0  0  0
 57 56  1  0  0  0  0
M  END
>  <minimizedAffinity>
-5.45091391

>  <minimizedRMSD>
0.854288995

$$$$
