
 OpenBabel03252506133D

 49 53  0  0  0  0  0  0  0  0999 V2000
   48.1860   34.7660   36.8710 O   0  0  0  0  0  0  0  0  0  0  0  0
   47.4060   33.4860   37.0470 P   0  0  2  0  0  0  0  0  0  0  0  0
   45.9190   33.5740   36.2170 O   0  0  0  0  0  0  0  0  0  0  0  0
   45.8720   34.4400   35.7840 H   0  0  0  0  0  0  0  0  0  0  0  0
   47.0830   33.1560   38.6670 O   0  0  0  0  0  0  0  0  0  0  0  0
   45.4670   33.3190   40.9690 F   0  0  0  0  0  0  0  0  0  0  0  0
   46.6000   33.9930   40.8590 C   0  0  0  0  0  0  0  0  0  0  0  0
   47.0060   34.8020   41.9050 C   0  0  0  0  0  0  0  0  0  0  0  0
   48.1890   35.5490   41.8790 C   0  0  0  0  0  0  0  0  0  0  0  0
   49.0070   35.4840   40.7510 C   0  0  0  0  0  0  0  0  0  0  0  0
   48.5730   34.6680   39.7300 C   0  0  0  0  0  0  0  0  0  0  0  0
   47.4270   33.9370   39.7400 C   0  0  0  0  0  0  0  0  0  0  0  0
   48.4380   36.1650   42.7470 H   0  0  0  0  0  0  0  0  0  0  0  0
   49.9080   36.0760   40.7760 H   0  0  0  0  0  0  0  0  0  0  0  0
   49.2970   34.7000   38.9240 H   0  0  0  0  0  0  0  0  0  0  0  0
   45.5050   33.9990   45.1550 C   0  0  0  0  0  0  0  0  0  0  0  0
   44.6570   35.1010   45.3660 C   0  0  0  0  0  0  0  0  0  0  0  0
   44.6010   36.1300   44.3800 C   0  0  0  0  0  0  0  0  0  0  0  0
   45.3940   35.9640   43.2780 N   0  0  0  0  0  0  0  0  0  0  0  0
   46.1850   34.9030   43.1170 C   0  0  0  0  0  0  0  0  0  0  0  0
   46.2380   33.9330   44.0450 N   0  0  0  0  0  0  0  0  0  0  0  0
   44.0470   35.2120   46.2300 H   0  0  0  0  0  0  0  0  0  0  0  0
   43.9590   36.9890   44.5130 H   0  0  0  0  0  0  0  0  0  0  0  0
   45.5470   32.9860   46.1450 N   0  0  0  0  0  0  0  0  0  0  0  0
   45.2330   31.9820   46.1170 H   0  0  0  0  0  0  0  0  0  0  0  0
   45.9270   33.1160   47.1120 H   0  0  0  0  0  0  0  0  0  0  0  0
   48.2520   32.2340   36.2790 O   0  0  0  0  0  0  0  0  0  0  0  0
   47.5380   31.1080   35.8890 C   0  0  0  0  0  0  0  0  0  0  0  0
   46.5980   30.6090   36.7690 C   0  0  0  0  0  0  0  0  0  0  0  0
   46.4350   31.0920   37.7270 H   0  0  0  0  0  0  0  0  0  0  0  0
   45.8770   29.4870   36.3990 C   0  0  0  0  0  0  0  0  0  0  0  0
   45.1470   29.1500   37.1530 H   0  0  0  0  0  0  0  0  0  0  0  0
   46.0300   28.8220   35.1980 C   0  0  0  0  0  0  0  0  0  0  0  0
   46.9590   29.3390   34.3620 C   0  0  0  0  0  0  0  0  0  0  0  0
   47.6800   30.4300   34.6910 C   0  0  0  0  0  0  0  0  0  0  0  0
   48.4330   30.8390   33.9990 H   0  0  0  0  0  0  0  0  0  0  0  0
   47.2200   28.5410   32.7910 S   0  0  0  0  0  0  0  0  0  0  0  0
   46.0860   27.1650   32.7590 C   0  0  0  0  0  0  0  0  0  0  0  0
   46.1010   26.3840   31.6290 C   0  0  0  0  0  0  0  0  0  0  0  0
   46.7680   26.5920   30.7970 H   0  0  0  0  0  0  0  0  0  0  0  0
   45.2610   25.3020   31.5150 C   0  0  0  0  0  0  0  0  0  0  0  0
   45.2620   24.6860   30.6420 H   0  0  0  0  0  0  0  0  0  0  0  0
   44.4180   25.0370   32.5630 C   0  0  0  0  0  0  0  0  0  0  0  0
   43.7600   24.1850   32.4680 H   0  0  0  0  0  0  0  0  0  0  0  0
   44.4480   25.8490   33.6610 C   0  0  0  0  0  0  0  0  0  0  0  0
   43.7380   25.5530   34.4400 H   0  0  0  0  0  0  0  0  0  0  0  0
   45.2660   26.9460   33.8330 C   0  0  0  0  0  0  0  0  0  0  0  0
   45.2150   27.7080   34.9980 N   0  0  0  0  0  0  0  0  0  0  0  0
   44.5290   27.3990   35.7190 H   0  0  0  0  0  0  0  0  0  0  0  0
  2  1  2  6  0  0  0
  2  5  1  0  0  0  0
  3  2  1  0  0  0  0
  4  3  1  0  0  0  0
  5 12  1  0  0  0  0
  7  6  1  0  0  0  0
  7  8  1  0  0  0  0
  8 20  1  0  0  0  0
  9  8  2  0  0  0  0
  9 13  1  0  0  0  0
 10 14  1  0  0  0  0
 10  9  1  0  0  0  0
 11 12  1  0  0  0  0
 11 10  2  0  0  0  0
 12  7  2  0  0  0  0
 15 11  1  0  0  0  0
 16 17  1  0  0  0  0
 16 24  1  0  0  0  0
 17 22  1  0  0  0  0
 18 23  1  0  0  0  0
 18 17  2  0  0  0  0
 19 18  1  0  0  0  0
 20 19  2  0  0  0  0
 20 21  1  0  0  0  0
 21 16  2  0  0  0  0
 24 26  1  0  0  0  0
 25 24  1  0  0  0  0
 27  2  1  0  0  0  0
 28 27  1  0  0  0  0
 28 29  1  0  0  0  0
 29 30  1  0  0  0  0
 31 29  2  0  0  0  0
 31 32  1  0  0  0  0
 33 31  1  0  0  0  0
 34 35  1  0  0  0  0
 34 33  2  0  0  0  0
 35 28  2  0  0  0  0
 36 35  1  0  0  0  0
 37 34  1  0  0  0  0
 38 37  1  0  0  0  0
 38 47  1  0  0  0  0
 39 38  2  0  0  0  0
 40 39  1  0  0  0  0
 41 39  1  0  0  0  0
 41 43  2  0  0  0  0
 42 41  1  0  0  0  0
 43 45  1  0  0  0  0
 44 43  1  0  0  0  0
 45 47  2  0  0  0  0
 45 46  1  0  0  0  0
 47 48  1  0  0  0  0
 48 33  1  0  0  0  0
 48 49  1  0  0  0  0
M  END
>  <minimizedAffinity>
-6.34110928

>  <minimizedRMSD>
2.19105625

$$$$
