
 OpenBabel03252506133D

 49 53  0  0  0  0  0  0  0  0999 V2000
   48.1240   34.6210   37.1020 O   0  0  0  0  0  0  0  0  0  0  0  0
   47.2490   33.4070   37.2920 P   0  0  2  0  0  0  0  0  0  0  0  0
   45.9140   33.4620   36.2330 O   0  0  0  0  0  0  0  0  0  0  0  0
   45.9870   34.2730   35.7070 H   0  0  0  0  0  0  0  0  0  0  0  0
   46.6650   33.2820   38.8670 O   0  0  0  0  0  0  0  0  0  0  0  0
   45.1200   33.5180   41.2110 F   0  0  0  0  0  0  0  0  0  0  0  0
   46.3080   34.0890   41.0940 C   0  0  0  0  0  0  0  0  0  0  0  0
   46.8080   34.8240   42.1540 C   0  0  0  0  0  0  0  0  0  0  0  0
   48.0540   35.4600   42.1220 C   0  0  0  0  0  0  0  0  0  0  0  0
   48.8380   35.3570   40.9720 C   0  0  0  0  0  0  0  0  0  0  0  0
   48.3100   34.6170   39.9380 C   0  0  0  0  0  0  0  0  0  0  0  0
   47.1020   33.9940   39.9550 C   0  0  0  0  0  0  0  0  0  0  0  0
   48.3770   36.0220   43.0020 H   0  0  0  0  0  0  0  0  0  0  0  0
   49.7900   35.8640   40.9940 H   0  0  0  0  0  0  0  0  0  0  0  0
   49.0160   34.6090   39.1160 H   0  0  0  0  0  0  0  0  0  0  0  0
   45.4580   34.1470   45.4980 C   0  0  0  0  0  0  0  0  0  0  0  0
   44.5690   35.2230   45.6770 C   0  0  0  0  0  0  0  0  0  0  0  0
   44.4340   36.1890   44.6380 C   0  0  0  0  0  0  0  0  0  0  0  0
   45.1940   35.9940   43.5180 N   0  0  0  0  0  0  0  0  0  0  0  0
   46.0260   34.9590   43.3880 C   0  0  0  0  0  0  0  0  0  0  0  0
   46.1540   34.0480   44.3670 N   0  0  0  0  0  0  0  0  0  0  0  0
   43.9850   35.3570   46.5560 H   0  0  0  0  0  0  0  0  0  0  0  0
   43.7590   37.0270   44.7460 H   0  0  0  0  0  0  0  0  0  0  0  0
   45.5790   33.1960   46.5410 N   0  0  0  0  0  0  0  0  0  0  0  0
   45.3090   32.1790   46.5820 H   0  0  0  0  0  0  0  0  0  0  0  0
   45.9860   33.3980   47.4840 H   0  0  0  0  0  0  0  0  0  0  0  0
   48.1230   32.0370   36.8080 O   0  0  0  0  0  0  0  0  0  0  0  0
   47.4860   31.1130   35.9890 C   0  0  0  0  0  0  0  0  0  0  0  0
   46.5720   30.2590   36.5770 C   0  0  0  0  0  0  0  0  0  0  0  0
   46.3720   30.3230   37.6410 H   0  0  0  0  0  0  0  0  0  0  0  0
   45.9280   29.3320   35.7780 C   0  0  0  0  0  0  0  0  0  0  0  0
   45.2150   28.6870   36.3180 H   0  0  0  0  0  0  0  0  0  0  0  0
   46.1330   29.1930   34.4200 C   0  0  0  0  0  0  0  0  0  0  0  0
   47.0340   30.0450   33.8800 C   0  0  0  0  0  0  0  0  0  0  0  0
   47.6800   30.9620   34.6270 C   0  0  0  0  0  0  0  0  0  0  0  0
   48.4120   31.6500   34.1710 H   0  0  0  0  0  0  0  0  0  0  0  0
   47.3590   29.9350   32.1300 S   0  0  0  0  0  0  0  0  0  0  0  0
   46.3150   28.6190   31.5320 C   0  0  0  0  0  0  0  0  0  0  0  0
   46.3880   28.3390   30.1900 C   0  0  0  0  0  0  0  0  0  0  0  0
   47.0480   28.8910   29.5250 H   0  0  0  0  0  0  0  0  0  0  0  0
   45.6210   27.3410   29.6390 C   0  0  0  0  0  0  0  0  0  0  0  0
   45.6680   27.1140   28.5960 H   0  0  0  0  0  0  0  0  0  0  0  0
   44.7880   26.6430   30.4750 C   0  0  0  0  0  0  0  0  0  0  0  0
   44.1870   25.8610   30.0370 H   0  0  0  0  0  0  0  0  0  0  0  0
   44.7580   26.9660   31.8020 C   0  0  0  0  0  0  0  0  0  0  0  0
   44.0620   26.3520   32.3830 H   0  0  0  0  0  0  0  0  0  0  0  0
   45.5020   27.9550   32.4120 C   0  0  0  0  0  0  0  0  0  0  0  0
   45.3930   28.2010   33.7780 N   0  0  0  0  0  0  0  0  0  0  0  0
   44.7220   27.5980   34.3000 H   0  0  0  0  0  0  0  0  0  0  0  0
  2  1  2  6  0  0  0
  2  5  1  0  0  0  0
  3  2  1  0  0  0  0
  4  3  1  0  0  0  0
  5 12  1  0  0  0  0
  7  6  1  0  0  0  0
  7  8  1  0  0  0  0
  8 20  1  0  0  0  0
  9  8  2  0  0  0  0
  9 13  1  0  0  0  0
 10 14  1  0  0  0  0
 10  9  1  0  0  0  0
 11 12  1  0  0  0  0
 11 10  2  0  0  0  0
 12  7  2  0  0  0  0
 15 11  1  0  0  0  0
 16 17  1  0  0  0  0
 16 24  1  0  0  0  0
 17 22  1  0  0  0  0
 18 23  1  0  0  0  0
 18 17  2  0  0  0  0
 19 18  1  0  0  0  0
 20 19  2  0  0  0  0
 20 21  1  0  0  0  0
 21 16  2  0  0  0  0
 24 25  1  0  0  0  0
 24 26  1  0  0  0  0
 27  2  1  0  0  0  0
 28 29  1  0  0  0  0
 28 27  1  0  0  0  0
 29 30  1  0  0  0  0
 31 32  1  0  0  0  0
 31 29  2  0  0  0  0
 33 31  1  0  0  0  0
 34 33  2  0  0  0  0
 34 35  1  0  0  0  0
 35 28  2  0  0  0  0
 36 35  1  0  0  0  0
 37 34  1  0  0  0  0
 38 37  1  0  0  0  0
 38 47  1  0  0  0  0
 39 38  2  0  0  0  0
 40 39  1  0  0  0  0
 41 39  1  0  0  0  0
 41 43  2  0  0  0  0
 42 41  1  0  0  0  0
 43 45  1  0  0  0  0
 44 43  1  0  0  0  0
 45 46  1  0  0  0  0
 45 47  2  0  0  0  0
 47 48  1  0  0  0  0
 48 49  1  0  0  0  0
 48 33  1  0  0  0  0
M  END
>  <minimizedAffinity>
-7.45074606

>  <minimizedRMSD>
2.33988714

$$$$
