
 OpenBabel03252506133D

 49 53  0  0  0  0  0  0  0  0999 V2000
   48.2620   34.3100   36.8320 O   0  0  0  0  0  0  0  0  0  0  0  0
   47.1480   33.3770   37.2380 P   0  0  2  0  0  0  0  0  0  0  0  0
   45.6300   34.0810   36.9080 O   0  0  0  0  0  0  0  0  0  0  0  0
   45.7870   34.9520   36.5130 H   0  0  0  0  0  0  0  0  0  0  0  0
   47.2030   32.9930   38.8770 O   0  0  0  0  0  0  0  0  0  0  0  0
   45.5890   33.1380   41.1810 F   0  0  0  0  0  0  0  0  0  0  0  0
   46.6590   33.9010   41.0260 C   0  0  0  0  0  0  0  0  0  0  0  0
   46.9970   34.7960   42.0240 C   0  0  0  0  0  0  0  0  0  0  0  0
   48.1100   35.6410   41.9490 C   0  0  0  0  0  0  0  0  0  0  0  0
   48.9260   35.5860   40.8180 C   0  0  0  0  0  0  0  0  0  0  0  0
   48.5610   34.6830   39.8450 C   0  0  0  0  0  0  0  0  0  0  0  0
   47.4820   33.8570   39.9050 C   0  0  0  0  0  0  0  0  0  0  0  0
   48.3090   36.3210   42.7810 H   0  0  0  0  0  0  0  0  0  0  0  0
   49.7730   36.2550   40.8040 H   0  0  0  0  0  0  0  0  0  0  0  0
   49.2750   34.7350   39.0330 H   0  0  0  0  0  0  0  0  0  0  0  0
   45.5140   33.9870   45.2820 C   0  0  0  0  0  0  0  0  0  0  0  0
   44.6460   35.0740   45.4860 C   0  0  0  0  0  0  0  0  0  0  0  0
   44.5710   36.0960   44.4940 C   0  0  0  0  0  0  0  0  0  0  0  0
   45.3650   35.9380   43.3920 N   0  0  0  0  0  0  0  0  0  0  0  0
   46.1760   34.8900   43.2370 C   0  0  0  0  0  0  0  0  0  0  0  0
   46.2470   33.9270   44.1710 N   0  0  0  0  0  0  0  0  0  0  0  0
   44.0350   35.1790   46.3510 H   0  0  0  0  0  0  0  0  0  0  0  0
   43.9130   36.9440   44.6220 H   0  0  0  0  0  0  0  0  0  0  0  0
   45.5760   32.9810   46.2780 N   0  0  0  0  0  0  0  0  0  0  0  0
   45.2810   31.9710   46.2570 H   0  0  0  0  0  0  0  0  0  0  0  0
   45.9540   33.1240   47.2440 H   0  0  0  0  0  0  0  0  0  0  0  0
   47.2080   32.0060   36.2420 O   0  0  0  0  0  0  0  0  0  0  0  0
   47.9300   30.9060   36.6890 C   0  0  0  0  0  0  0  0  0  0  0  0
   47.2180   29.8000   37.1090 C   0  0  0  0  0  0  0  0  0  0  0  0
   46.1330   29.8070   37.0840 H   0  0  0  0  0  0  0  0  0  0  0  0
   47.9190   28.6950   37.5570 C   0  0  0  0  0  0  0  0  0  0  0  0
   47.2830   27.8530   37.8740 H   0  0  0  0  0  0  0  0  0  0  0  0
   49.2960   28.6160   37.6170 C   0  0  0  0  0  0  0  0  0  0  0  0
   49.9600   29.7170   37.1990 C   0  0  0  0  0  0  0  0  0  0  0  0
   49.3100   30.8110   36.7550 C   0  0  0  0  0  0  0  0  0  0  0  0
   49.8650   31.7000   36.4170 H   0  0  0  0  0  0  0  0  0  0  0  0
   51.7420   29.6990   37.2430 S   0  0  0  0  0  0  0  0  0  0  0  0
   52.1890   28.0940   37.8820 C   0  0  0  0  0  0  0  0  0  0  0  0
   53.5310   27.8380   38.0110 C   0  0  0  0  0  0  0  0  0  0  0  0
   54.2840   28.5710   37.7380 H   0  0  0  0  0  0  0  0  0  0  0  0
   53.9690   26.6280   38.4940 C   0  0  0  0  0  0  0  0  0  0  0  0
   55.0110   26.4150   38.6000 H   0  0  0  0  0  0  0  0  0  0  0  0
   53.0220   25.7000   38.8400 C   0  0  0  0  0  0  0  0  0  0  0  0
   53.3720   24.7510   39.2190 H   0  0  0  0  0  0  0  0  0  0  0  0
   51.7010   26.0120   38.6890 C   0  0  0  0  0  0  0  0  0  0  0  0
   51.0250   25.2050   38.9920 H   0  0  0  0  0  0  0  0  0  0  0  0
   51.2010   27.2050   38.2100 C   0  0  0  0  0  0  0  0  0  0  0  0
   49.8280   27.4190   38.0980 N   0  0  0  0  0  0  0  0  0  0  0  0
   49.2150   26.6300   38.3950 H   0  0  0  0  0  0  0  0  0  0  0  0
  2  1  2  6  0  0  0
  2  5  1  0  0  0  0
  3  2  1  0  0  0  0
  4  3  1  0  0  0  0
  5 12  1  0  0  0  0
  7  6  1  0  0  0  0
  7  8  1  0  0  0  0
  8 20  1  0  0  0  0
  9  8  2  0  0  0  0
  9 13  1  0  0  0  0
 10  9  1  0  0  0  0
 11 12  1  0  0  0  0
 11 10  2  0  0  0  0
 12  7  2  0  0  0  0
 14 10  1  0  0  0  0
 15 11  1  0  0  0  0
 16 17  1  0  0  0  0
 16 24  1  0  0  0  0
 17 22  1  0  0  0  0
 18 23  1  0  0  0  0
 18 17  2  0  0  0  0
 19 18  1  0  0  0  0
 20 19  2  0  0  0  0
 20 21  1  0  0  0  0
 21 16  2  0  0  0  0
 24 26  1  0  0  0  0
 25 24  1  0  0  0  0
 27 28  1  0  0  0  0
 27  2  1  0  0  0  0
 28 35  2  0  0  0  0
 28 29  1  0  0  0  0
 29 31  2  0  0  0  0
 30 29  1  0  0  0  0
 31 33  1  0  0  0  0
 31 32  1  0  0  0  0
 33 48  1  0  0  0  0
 34 37  1  0  0  0  0
 34 33  2  0  0  0  0
 35 34  1  0  0  0  0
 36 35  1  0  0  0  0
 37 38  1  0  0  0  0
 38 39  2  0  0  0  0
 38 47  1  0  0  0  0
 39 41  1  0  0  0  0
 40 39  1  0  0  0  0
 41 42  1  0  0  0  0
 41 43  2  0  0  0  0
 43 44  1  0  0  0  0
 45 43  1  0  0  0  0
 45 46  1  0  0  0  0
 47 45  2  0  0  0  0
 48 47  1  0  0  0  0
 48 49  1  0  0  0  0
M  END
>  <minimizedAffinity>
-5.8341918

>  <minimizedRMSD>
3.09223294

$$$$
