
 OpenBabel03252506133D

 49 53  0  0  0  0  0  0  0  0999 V2000
   48.1790   34.7430   37.1550 O   0  0  0  0  0  0  0  0  0  0  0  0
   47.2760   33.5460   37.3230 P   0  0  2  0  0  0  0  0  0  0  0  0
   45.7960   33.7960   36.5130 O   0  0  0  0  0  0  0  0  0  0  0  0
   45.8320   34.6700   36.0930 H   0  0  0  0  0  0  0  0  0  0  0  0
   46.9400   33.2230   38.9420 O   0  0  0  0  0  0  0  0  0  0  0  0
   45.3330   33.4090   41.2480 F   0  0  0  0  0  0  0  0  0  0  0  0
   46.4780   34.0630   41.1370 C   0  0  0  0  0  0  0  0  0  0  0  0
   46.9000   34.8620   42.1840 C   0  0  0  0  0  0  0  0  0  0  0  0
   48.0960   35.5880   42.1570 C   0  0  0  0  0  0  0  0  0  0  0  0
   48.9100   35.5110   41.0260 C   0  0  0  0  0  0  0  0  0  0  0  0
   48.4590   34.7060   40.0040 C   0  0  0  0  0  0  0  0  0  0  0  0
   47.3000   33.9960   40.0160 C   0  0  0  0  0  0  0  0  0  0  0  0
   48.3590   36.1970   43.0250 H   0  0  0  0  0  0  0  0  0  0  0  0
   49.8210   36.0880   41.0500 H   0  0  0  0  0  0  0  0  0  0  0  0
   49.1810   34.7280   39.1960 H   0  0  0  0  0  0  0  0  0  0  0  0
   45.4820   34.1370   45.4890 C   0  0  0  0  0  0  0  0  0  0  0  0
   44.5650   35.1910   45.6510 C   0  0  0  0  0  0  0  0  0  0  0  0
   44.4330   36.1600   44.6140 C   0  0  0  0  0  0  0  0  0  0  0  0
   45.2260   35.9880   43.5120 N   0  0  0  0  0  0  0  0  0  0  0  0
   46.0840   34.9730   43.3980 C   0  0  0  0  0  0  0  0  0  0  0  0
   46.2080   34.0600   44.3760 N   0  0  0  0  0  0  0  0  0  0  0  0
   43.9560   35.3080   46.5160 H   0  0  0  0  0  0  0  0  0  0  0  0
   43.7370   36.9810   44.7080 H   0  0  0  0  0  0  0  0  0  0  0  0
   45.5980   33.1840   46.5310 N   0  0  0  0  0  0  0  0  0  0  0  0
   45.3510   32.1610   46.5600 H   0  0  0  0  0  0  0  0  0  0  0  0
   45.9770   33.3900   47.4850 H   0  0  0  0  0  0  0  0  0  0  0  0
   47.9820   32.2270   36.5250 O   0  0  0  0  0  0  0  0  0  0  0  0
   47.1600   31.4120   35.7580 C   0  0  0  0  0  0  0  0  0  0  0  0
   47.2780   31.4940   34.3850 C   0  0  0  0  0  0  0  0  0  0  0  0
   47.9930   32.1770   33.9370 H   0  0  0  0  0  0  0  0  0  0  0  0
   46.4680   30.6890   33.6030 C   0  0  0  0  0  0  0  0  0  0  0  0
   46.6200   30.8100   32.5190 H   0  0  0  0  0  0  0  0  0  0  0  0
   45.5390   29.7980   34.1020 C   0  0  0  0  0  0  0  0  0  0  0  0
   45.4510   29.7450   35.4510 C   0  0  0  0  0  0  0  0  0  0  0  0
   46.2240   30.5140   36.2430 C   0  0  0  0  0  0  0  0  0  0  0  0
   46.1400   30.4590   37.3390 H   0  0  0  0  0  0  0  0  0  0  0  0
   44.2750   28.6200   36.1780 S   0  0  0  0  0  0  0  0  0  0  0  0
   43.4740   27.8110   34.8060 C   0  0  0  0  0  0  0  0  0  0  0  0
   42.5110   26.8830   35.1170 C   0  0  0  0  0  0  0  0  0  0  0  0
   42.2490   26.6530   36.1450 H   0  0  0  0  0  0  0  0  0  0  0  0
   41.8410   26.2090   34.1250 C   0  0  0  0  0  0  0  0  0  0  0  0
   41.0890   25.4860   34.3530 H   0  0  0  0  0  0  0  0  0  0  0  0
   42.1690   26.4970   32.8250 C   0  0  0  0  0  0  0  0  0  0  0  0
   41.6390   25.9650   32.0490 H   0  0  0  0  0  0  0  0  0  0  0  0
   43.1360   27.4300   32.5750 C   0  0  0  0  0  0  0  0  0  0  0  0
   43.3240   27.5870   31.5090 H   0  0  0  0  0  0  0  0  0  0  0  0
   43.8420   28.1380   33.5270 C   0  0  0  0  0  0  0  0  0  0  0  0
   44.8100   29.0690   33.1620 N   0  0  0  0  0  0  0  0  0  0  0  0
   44.9640   29.1940   32.1390 H   0  0  0  0  0  0  0  0  0  0  0  0
  2  1  2  6  0  0  0
  2  5  1  0  0  0  0
  3  2  1  0  0  0  0
  4  3  1  0  0  0  0
  5 12  1  0  0  0  0
  7  6  1  0  0  0  0
  7  8  1  0  0  0  0
  8 20  1  0  0  0  0
  9  8  2  0  0  0  0
  9 13  1  0  0  0  0
 10 14  1  0  0  0  0
 10  9  1  0  0  0  0
 11 12  1  0  0  0  0
 11 10  2  0  0  0  0
 12  7  2  0  0  0  0
 15 11  1  0  0  0  0
 16 17  1  0  0  0  0
 16 24  1  0  0  0  0
 17 22  1  0  0  0  0
 18 23  1  0  0  0  0
 18 17  2  0  0  0  0
 19 18  1  0  0  0  0
 20 19  2  0  0  0  0
 20 21  1  0  0  0  0
 21 16  2  0  0  0  0
 24 25  1  0  0  0  0
 24 26  1  0  0  0  0
 27  2  1  0  0  0  0
 28 35  1  0  0  0  0
 28 27  1  0  0  0  0
 29 28  2  0  0  0  0
 30 29  1  0  0  0  0
 31 33  2  0  0  0  0
 31 29  1  0  0  0  0
 32 31  1  0  0  0  0
 33 34  1  0  0  0  0
 34 37  1  0  0  0  0
 34 35  2  0  0  0  0
 35 36  1  0  0  0  0
 38 39  1  0  0  0  0
 38 37  1  0  0  0  0
 39 40  1  0  0  0  0
 41 42  1  0  0  0  0
 41 39  2  0  0  0  0
 43 41  1  0  0  0  0
 44 43  1  0  0  0  0
 45 43  2  0  0  0  0
 45 47  1  0  0  0  0
 46 45  1  0  0  0  0
 47 38  2  0  0  0  0
 48 47  1  0  0  0  0
 48 33  1  0  0  0  0
 49 48  1  0  0  0  0
M  END
>  <minimizedAffinity>
-7.06929922

>  <minimizedRMSD>
2.88109255

$$$$
