
 OpenBabel03252502563D

 50 54  0  0  0  0  0  0  0  0999 V2000
   44.2610   26.1320   47.0010 O   0  0  0  0  0  0  0  0  0  0  0  0
   44.9480   27.1850   47.8580 P   0  0  2  0  0  0  0  0  0  0  0  0
   44.5240   26.9630   49.4690 O   0  0  0  0  0  0  0  0  0  0  0  0
   45.2940   26.9940   50.0950 H   0  0  0  0  0  0  0  0  0  0  0  0
   44.3450   28.7080   47.3840 O   0  0  0  0  0  0  0  0  0  0  0  0
   45.5930   29.9130   44.8250 Br  0  0  0  0  0  0  0  0  0  0  0  0
   45.6550   30.6060   46.6330 C   0  0  0  0  0  0  0  0  0  0  0  0
   46.3370   31.7780   46.8020 C   0  0  0  0  0  0  0  0  0  0  0  0
   46.3600   32.2450   48.1180 C   0  0  0  0  0  0  0  0  0  0  0  0
   45.7500   31.5880   49.1680 C   0  0  0  0  0  0  0  0  0  0  0  0
   45.0840   30.4160   48.9120 C   0  0  0  0  0  0  0  0  0  0  0  0
   45.0260   29.9030   47.6320 C   0  0  0  0  0  0  0  0  0  0  0  0
   46.8830   33.1680   48.3310 H   0  0  0  0  0  0  0  0  0  0  0  0
   45.8140   32.0170   50.1620 H   0  0  0  0  0  0  0  0  0  0  0  0
   44.6100   29.9080   49.7370 H   0  0  0  0  0  0  0  0  0  0  0  0
   47.0220   32.5630   45.7720 C   0  0  0  0  0  0  0  0  0  0  0  0
   48.0050   32.9650   46.1110 H   0  0  0  0  0  0  0  0  0  0  0  0
   47.2560   31.8580   44.9280 H   0  0  0  0  0  0  0  0  0  0  0  0
   44.5390   35.3220   45.3890 C   0  0  0  0  0  0  0  0  0  0  0  0
   44.7630   35.7210   44.0700 C   0  0  0  0  0  0  0  0  0  0  0  0
   45.7390   35.0560   43.3450 C   0  0  0  0  0  0  0  0  0  0  0  0
   46.4430   34.0490   43.9240 N   0  0  0  0  0  0  0  0  0  0  0  0
   46.2030   33.6770   45.2200 C   0  0  0  0  0  0  0  0  0  0  0  0
   45.2470   34.3330   45.9200 N   0  0  0  0  0  0  0  0  0  0  0  0
   43.8190   35.7460   46.0650 H   0  0  0  0  0  0  0  0  0  0  0  0
   44.1470   36.5340   43.7080 H   0  0  0  0  0  0  0  0  0  0  0  0
   45.8980   35.3780   42.3270 H   0  0  0  0  0  0  0  0  0  0  0  0
   46.6070   27.0530   47.6380 O   0  0  0  0  0  0  0  0  0  0  0  0
   47.2720   26.1340   46.8510 C   0  0  0  0  0  0  0  0  0  0  0  0
   47.6190   24.9030   47.3670 C   0  0  0  0  0  0  0  0  0  0  0  0
   47.3520   24.7020   48.3870 H   0  0  0  0  0  0  0  0  0  0  0  0
   48.2820   24.0080   46.5550 C   0  0  0  0  0  0  0  0  0  0  0  0
   48.5100   23.0740   47.0520 H   0  0  0  0  0  0  0  0  0  0  0  0
   48.6380   24.2370   45.2430 C   0  0  0  0  0  0  0  0  0  0  0  0
   48.2610   25.4800   44.7980 C   0  0  0  0  0  0  0  0  0  0  0  0
   47.6130   26.3970   45.5420 C   0  0  0  0  0  0  0  0  0  0  0  0
   47.3190   27.3800   45.1750 H   0  0  0  0  0  0  0  0  0  0  0  0
   48.6370   25.9590   43.1220 S   0  0  0  0  0  0  0  0  0  0  0  0
   49.4800   24.5630   42.4070 C   0  0  0  0  0  0  0  0  0  0  0  0
   49.9230   24.5700   41.1170 C   0  0  0  0  0  0  0  0  0  0  0  0
   49.7530   25.4680   40.5020 H   0  0  0  0  0  0  0  0  0  0  0  0
   50.5920   23.5340   40.4650 C   0  0  0  0  0  0  0  0  0  0  0  0
   50.9030   23.6230   39.4520 H   0  0  0  0  0  0  0  0  0  0  0  0
   50.7970   22.4150   41.2510 C   0  0  0  0  0  0  0  0  0  0  0  0
   51.3130   21.5700   40.8010 H   0  0  0  0  0  0  0  0  0  0  0  0
   50.3560   22.3850   42.5630 C   0  0  0  0  0  0  0  0  0  0  0  0
   50.5660   21.4520   43.1090 H   0  0  0  0  0  0  0  0  0  0  0  0
   49.6990   23.4390   43.1620 C   0  0  0  0  0  0  0  0  0  0  0  0
   49.3200   23.2520   44.4890 N   0  0  0  0  0  0  0  0  0  0  0  0
   49.5210   22.3680   45.0010 H   0  0  0  0  0  0  0  0  0  0  0  0
  2  1  2  6  0  0  0
  2  3  1  0  0  0  0
  3  4  1  0  0  0  0
  5 12  1  0  0  0  0
  5  2  1  0  0  0  0
  6  7  1  0  0  0  0
  7  8  2  0  0  0  0
  7 12  1  0  0  0  0
  8  9  1  0  0  0  0
  9 13  1  0  0  0  0
  9 10  2  0  0  0  0
 10 14  1  0  0  0  0
 11 10  1  0  0  0  0
 11 15  1  0  0  0  0
 12 11  2  0  0  0  0
 16 17  1  0  0  0  0
 16  8  1  0  0  0  0
 18 16  1  0  0  0  0
 19 24  1  0  0  0  0
 19 25  1  0  0  0  0
 20 19  2  0  0  0  0
 21 22  2  0  0  0  0
 21 20  1  0  0  0  0
 22 23  1  0  0  0  0
 23 16  1  0  0  0  0
 23 24  2  0  0  0  0
 26 20  1  0  0  0  0
 27 21  1  0  0  0  0
 28  2  1  0  0  0  0
 29 30  1  0  0  0  0
 29 28  1  0  0  0  0
 30 31  1  0  0  0  0
 32 33  1  0  0  0  0
 32 30  2  0  0  0  0
 34 32  1  0  0  0  0
 35 34  2  0  0  0  0
 35 36  1  0  0  0  0
 36 29  2  0  0  0  0
 37 36  1  0  0  0  0
 38 35  1  0  0  0  0
 39 38  1  0  0  0  0
 39 48  1  0  0  0  0
 40 39  2  0  0  0  0
 41 40  1  0  0  0  0
 42 40  1  0  0  0  0
 42 44  2  0  0  0  0
 43 42  1  0  0  0  0
 44 46  1  0  0  0  0
 45 44  1  0  0  0  0
 46 47  1  0  0  0  0
 46 48  2  0  0  0  0
 48 49  1  0  0  0  0
 49 50  1  0  0  0  0
 49 34  1  0  0  0  0
M  END
>  <minimizedAffinity>
-4.83541965

>  <minimizedRMSD>
1.38661838

$$$$
