
 OpenBabel03242523123D

 59 65  0  0  1  0  0  0  0  0999 V2000
   46.1730   31.7630   45.0930 C   0  0  0  0  0  0  0  0  0  0  0  0
   46.7630   32.7270   44.2470 C   0  0  0  0  0  0  0  0  0  0  0  0
   47.9340   32.2580   43.7000 C   0  0  0  0  0  0  0  0  0  0  0  0
   48.4900   31.0370   43.9200 C   0  0  0  0  0  0  0  0  0  0  0  0
   47.8450   30.1450   44.7720 C   0  0  0  0  0  0  0  0  0  0  0  0
   46.6680   30.5180   45.3660 C   0  0  0  0  0  0  0  0  0  0  0  0
   48.6530   29.0200   44.7860 O   0  0  0  0  0  0  0  0  0  0  0  0
   49.7500   29.1930   43.9110 C   0  0  2  0  0  0  0  0  0  0  0  0
   49.6590   30.5170   43.3960 O   0  0  0  0  0  0  0  0  0  0  0  0
   45.2270   31.8150   45.6750 H   0  0  0  0  0  0  0  0  0  0  0  0
   48.3880   32.9560   43.0690 H   0  0  0  0  0  0  0  0  0  0  0  0
   46.2740   29.7610   45.9870 H   0  0  0  0  0  0  0  0  0  0  0  0
   50.7080   29.0620   44.4600 H   0  0  0  0  0  0  0  0  0  0  0  0
   45.1300   36.0220   43.5300 C   0  0  0  0  0  0  0  0  0  0  0  0
   45.9340   34.9160   43.2600 C   0  0  0  0  0  0  0  0  0  0  0  0
   46.0640   33.9350   44.1970 C   0  0  0  0  0  0  0  0  0  0  0  0
   45.3830   34.1030   45.3730 N   0  0  0  0  0  0  0  0  0  0  0  0
   44.6120   35.1660   45.6300 C   0  0  0  0  0  0  0  0  0  0  0  0
   44.4910   36.1030   44.7240 N   0  0  0  0  0  0  0  0  0  0  0  0
   45.0200   36.8030   42.7950 H   0  0  0  0  0  0  0  0  0  0  0  0
   44.0510   35.3560   46.5350 H   0  0  0  0  0  0  0  0  0  0  0  0
   46.5930   34.8900   42.0310 N   0  0  0  0  0  0  0  0  0  0  0  0
   47.8920   35.4570   41.8570 C   0  0  0  0  0  0  0  0  0  0  0  0
   48.5260   35.1890   40.5210 C   0  0  0  0  0  0  0  0  0  0  0  0
   48.2990   33.9160   40.0110 N   0  0  0  0  0  0  0  0  0  0  0  0
   47.0470   33.3820   40.1460 C   0  0  0  0  0  0  0  0  0  0  0  0
   46.0980   34.3330   40.8360 C   0  0  0  0  0  0  0  0  0  0  0  0
   48.6140   35.2100   42.6700 H   0  0  0  0  0  0  0  0  0  0  0  0
   47.7640   36.5730   41.9410 H   0  0  0  0  0  0  0  0  0  0  0  0
   48.0880   35.9400   39.8010 H   0  0  0  0  0  0  0  0  0  0  0  0
   49.5960   35.4760   40.5930 H   0  0  0  0  0  0  0  0  0  0  0  0
   48.9910   33.4930   39.3930 H   0  0  0  0  0  0  0  0  0  0  0  0
   46.9750   32.3890   40.6580 H   0  0  0  0  0  0  0  0  0  0  0  0
   46.5990   33.1800   39.1300 H   0  0  0  0  0  0  0  0  0  0  0  0
   45.1970   33.7130   41.0960 H   0  0  0  0  0  0  0  0  0  0  0  0
   45.7640   35.0640   40.0600 H   0  0  0  0  0  0  0  0  0  0  0  0
   49.5910   28.2840   42.8610 O   0  0  0  0  0  0  0  0  0  0  0  0
   49.8600   28.4800   41.5380 C   0  0  0  0  0  0  0  0  0  0  0  0
   48.9540   28.7440   40.5320 C   0  0  0  0  0  0  0  0  0  0  0  0
   47.9140   28.8020   40.8200 H   0  0  0  0  0  0  0  0  0  0  0  0
   49.4160   28.9140   39.2440 C   0  0  0  0  0  0  0  0  0  0  0  0
   48.6300   29.1200   38.5100 H   0  0  0  0  0  0  0  0  0  0  0  0
   50.7390   28.8400   38.8800 C   0  0  0  0  0  0  0  0  0  0  0  0
   51.6190   28.5800   39.8790 C   0  0  0  0  0  0  0  0  0  0  0  0
   51.2030   28.4080   41.1480 C   0  0  0  0  0  0  0  0  0  0  0  0
   51.9670   28.1990   41.9130 H   0  0  0  0  0  0  0  0  0  0  0  0
   53.3540   28.4680   39.4820 S   0  0  0  0  0  0  0  0  0  0  0  0
   53.4510   28.7550   37.7250 C   0  0  0  0  0  0  0  0  0  0  0  0
   54.7230   28.7110   37.2120 C   0  0  0  0  0  0  0  0  0  0  0  0
   55.6280   28.5180   37.8010 H   0  0  0  0  0  0  0  0  0  0  0  0
   54.9070   28.9210   35.8540 C   0  0  0  0  0  0  0  0  0  0  0  0
   55.8730   28.9040   35.3660 H   0  0  0  0  0  0  0  0  0  0  0  0
   53.8050   29.1690   35.0640 C   0  0  0  0  0  0  0  0  0  0  0  0
   53.9340   29.3360   34.0020 H   0  0  0  0  0  0  0  0  0  0  0  0
   52.5660   29.1940   35.6710 C   0  0  0  0  0  0  0  0  0  0  0  0
   51.7390   29.3980   34.9720 H   0  0  0  0  0  0  0  0  0  0  0  0
   52.3250   28.9920   37.0140 C   0  0  0  0  0  0  0  0  0  0  0  0
   51.0300   29.0390   37.5240 N   0  0  0  0  0  0  0  0  0  0  0  0
   50.2700   29.2330   36.8360 H   0  0  0  0  0  0  0  0  0  0  0  0
  1  6  1  0  0  0  0
  1 10  1  0  0  0  0
  2  1  2  0  0  0  0
  3  4  2  0  0  0  0
  3  2  1  0  0  0  0
  4  5  1  0  0  0  0
  5  7  1  0  0  0  0
  5  6  2  0  0  0  0
  6 12  1  0  0  0  0
  8 13  1  1  0  0  0
  8  7  1  0  0  0  0
  9  8  1  0  0  0  0
  9  4  1  0  0  0  0
 11  3  1  0  0  0  0
 14 19  1  0  0  0  0
 15 14  2  0  0  0  0
 15 16  1  0  0  0  0
 16  2  1  0  0  0  0
 16 17  2  0  0  0  0
 17 18  1  0  0  0  0
 18 21  1  0  0  0  0
 19 18  2  0  0  0  0
 20 14  1  0  0  0  0
 22 15  1  0  0  0  0
 23 29  1  0  0  0  0
 23 22  1  0  0  0  0
 23 28  1  0  0  0  0
 24 31  1  0  0  0  0
 24 23  1  0  0  0  0
 25 26  1  0  0  0  0
 25 24  1  0  0  0  0
 26 33  1  0  0  0  0
 26 27  1  0  0  0  0
 27 35  1  0  0  0  0
 27 22  1  0  0  0  0
 30 24  1  0  0  0  0
 32 25  1  0  0  0  0
 34 26  1  0  0  0  0
 36 27  1  0  0  0  0
 37  8  1  0  0  0  0
 38 37  1  0  0  0  0
 39 40  1  0  0  0  0
 39 38  2  0  0  0  0
 41 39  1  0  0  0  0
 42 41  1  0  0  0  0
 43 41  2  0  0  0  0
 43 44  1  0  0  0  0
 44 45  2  0  0  0  0
 45 38  1  0  0  0  0
 45 46  1  0  0  0  0
 47 44  1  0  0  0  0
 48 47  1  0  0  0  0
 49 48  1  0  0  0  0
 49 50  1  0  0  0  0
 51 49  2  0  0  0  0
 52 51  1  0  0  0  0
 53 55  2  0  0  0  0
 53 51  1  0  0  0  0
 54 53  1  0  0  0  0
 55 57  1  0  0  0  0
 56 55  1  0  0  0  0
 57 58  1  0  0  0  0
 57 48  2  0  0  0  0
 58 43  1  0  0  0  0
 59 58  1  0  0  0  0
M  END
>  <minimizedAffinity>
-5.20201683

>  <minimizedRMSD>
4.4654026

$$$$
