
 OpenBabel03252509003D

 58 62  0  0  1  0  0  0  0  0999 V2000
   47.1770   34.2900   42.9730 N   0  0  0  0  0  0  0  0  0  0  0  0
   46.5460   35.4080   42.3770 C   0  0  0  0  0  0  0  0  0  0  0  0
   45.0530   35.5010   42.6090 C   0  0  0  0  0  0  0  0  0  0  0  0
   44.5990   34.9820   43.9390 C   0  0  0  0  0  0  0  0  0  0  0  0
   45.7590   34.5440   44.8000 C   0  0  0  0  0  0  0  0  0  0  0  0
   46.5060   33.5020   43.8940 C   0  0  2  0  0  0  0  0  0  0  0  0
   46.7170   35.5400   41.3080 H   0  0  0  0  0  0  0  0  0  0  0  0
   46.9810   36.3210   42.8690 H   0  0  0  0  0  0  0  0  0  0  0  0
   44.5300   34.9810   41.7690 H   0  0  0  0  0  0  0  0  0  0  0  0
   44.7560   36.5710   42.5420 H   0  0  0  0  0  0  0  0  0  0  0  0
   43.9230   35.6960   44.4620 H   0  0  0  0  0  0  0  0  0  0  0  0
   43.9750   34.0600   43.7610 H   0  0  0  0  0  0  0  0  0  0  0  0
   46.4390   35.3610   45.0580 H   0  0  0  0  0  0  0  0  0  0  0  0
   45.3560   34.0100   45.6840 H   0  0  0  0  0  0  0  0  0  0  0  0
   45.7070   32.8260   43.5420 H   0  0  0  0  0  0  0  0  0  0  0  0
   48.1990   33.6990   42.1660 C   0  0  0  0  0  0  0  0  0  0  0  0
   48.8800   33.1030   42.8260 H   0  0  0  0  0  0  0  0  0  0  0  0
   48.8020   34.4790   41.6990 H   0  0  0  0  0  0  0  0  0  0  0  0
   47.5710   32.7440   41.2000 C   0  0  0  0  0  0  0  0  0  0  0  0
   46.4670   32.8960   41.1530 H   0  0  0  0  0  0  0  0  0  0  0  0
   47.7200   31.6870   41.4550 H   0  0  0  0  0  0  0  0  0  0  0  0
   49.3660   32.3370   37.9230 C   0  0  0  0  0  0  0  0  0  0  0  0
   48.8740   32.0800   39.2160 C   0  0  0  0  0  0  0  0  0  0  0  0
   48.0860   33.0220   39.8340 C   0  0  0  0  0  0  0  0  0  0  0  0
   47.8220   34.1530   39.1640 N   0  0  0  0  0  0  0  0  0  0  0  0
   48.2970   34.3890   37.9250 C   0  0  0  0  0  0  0  0  0  0  0  0
   49.0700   33.4870   37.2960 N   0  0  0  0  0  0  0  0  0  0  0  0
   49.9870   31.5720   37.4600 H   0  0  0  0  0  0  0  0  0  0  0  0
   49.1080   31.1500   39.7340 H   0  0  0  0  0  0  0  0  0  0  0  0
   48.0410   35.3250   37.4490 H   0  0  0  0  0  0  0  0  0  0  0  0
   47.3810   32.9160   44.8030 O   0  0  0  0  0  0  0  0  0  0  0  0
   45.5500   31.0020   44.6720 O   0  0  0  0  0  0  0  0  0  0  0  0
   46.8490   31.4150   45.3470 P   0  0  2  0  0  0  0  0  0  0  0  0
   46.4490   31.6220   46.9990 O   0  0  0  0  0  0  0  0  0  0  0  0
   47.2620   31.5650   47.5580 H   0  0  0  0  0  0  0  0  0  0  0  0
   48.0350   30.2470   45.2360 O   0  0  0  0  0  0  0  0  0  0  0  0
   48.2440   29.1930   46.0870 C   0  0  0  0  0  0  0  0  0  0  0  0
   49.5010   28.8880   46.5660 C   0  0  0  0  0  0  0  0  0  0  0  0
   50.3400   29.4920   46.2650 H   0  0  0  0  0  0  0  0  0  0  0  0
   49.6570   27.8150   47.4220 C   0  0  0  0  0  0  0  0  0  0  0  0
   50.6930   27.6430   47.7550 H   0  0  0  0  0  0  0  0  0  0  0  0
   48.6090   27.0160   47.8310 C   0  0  0  0  0  0  0  0  0  0  0  0
   47.3510   27.3050   47.3630 C   0  0  0  0  0  0  0  0  0  0  0  0
   47.2200   28.3740   46.5170 C   0  0  0  0  0  0  0  0  0  0  0  0
   46.2200   28.6040   46.1450 H   0  0  0  0  0  0  0  0  0  0  0  0
   45.9740   26.2980   47.8690 S   0  0  0  0  0  0  0  0  0  0  0  0
   46.6520   25.0570   48.9550 C   0  0  0  0  0  0  0  0  0  0  0  0
   45.7690   24.1720   49.4630 C   0  0  0  0  0  0  0  0  0  0  0  0
   44.7090   24.1870   49.2450 H   0  0  0  0  0  0  0  0  0  0  0  0
   46.1970   23.1740   50.3130 C   0  0  0  0  0  0  0  0  0  0  0  0
   45.4940   22.4620   50.7220 H   0  0  0  0  0  0  0  0  0  0  0  0
   47.5400   23.1130   50.6220 C   0  0  0  0  0  0  0  0  0  0  0  0
   47.9200   22.3470   51.2840 H   0  0  0  0  0  0  0  0  0  0  0  0
   48.3840   24.0510   50.0660 C   0  0  0  0  0  0  0  0  0  0  0  0
   49.4400   23.9500   50.3490 H   0  0  0  0  0  0  0  0  0  0  0  0
   48.0000   25.0640   49.2120 C   0  0  0  0  0  0  0  0  0  0  0  0
   48.9570   25.9700   48.7030 N   0  0  0  0  0  0  0  0  0  0  0  0
   49.9380   25.8130   49.0140 H   0  0  0  0  0  0  0  0  0  0  0  0
  1  6  1  0  0  0  0
  2  3  1  0  0  0  0
  2  8  1  0  0  0  0
  2  1  1  0  0  0  0
  3  4  1  0  0  0  0
  4 11  1  0  0  0  0
  4  5  1  0  0  0  0
  5 13  1  0  0  0  0
  5 14  1  0  0  0  0
  6 15  1  6  0  0  0
  6  5  1  0  0  0  0
  6 31  1  0  0  0  0
  7  2  1  0  0  0  0
  9  3  1  0  0  0  0
 10  3  1  0  0  0  0
 12  4  1  0  0  0  0
 16 17  1  0  0  0  0
 16  1  1  0  0  0  0
 18 16  1  0  0  0  0
 19 21  1  0  0  0  0
 19 16  1  0  0  0  0
 20 19  1  0  0  0  0
 22 23  1  0  0  0  0
 23 29  1  0  0  0  0
 23 24  2  0  0  0  0
 24 19  1  0  0  0  0
 25 24  1  0  0  0  0
 26 25  2  0  0  0  0
 27 22  2  0  0  0  0
 27 26  1  0  0  0  0
 28 22  1  0  0  0  0
 30 26  1  0  0  0  0
 31 33  1  0  0  0  0
 33 32  2  6  0  0  0
 33 34  1  0  0  0  0
 34 35  1  0  0  0  0
 36 33  1  0  0  0  0
 36 37  1  0  0  0  0
 37 44  2  0  0  0  0
 37 38  1  0  0  0  0
 38 40  2  0  0  0  0
 39 38  1  0  0  0  0
 40 41  1  0  0  0  0
 40 42  1  0  0  0  0
 42 57  1  0  0  0  0
 43 42  2  0  0  0  0
 43 46  1  0  0  0  0
 44 43  1  0  0  0  0
 45 44  1  0  0  0  0
 46 47  1  0  0  0  0
 47 56  2  0  0  0  0
 47 48  1  0  0  0  0
 48 50  2  0  0  0  0
 49 48  1  0  0  0  0
 50 52  1  0  0  0  0
 50 51  1  0  0  0  0
 52 53  1  0  0  0  0
 54 55  1  0  0  0  0
 54 52  2  0  0  0  0
 56 54  1  0  0  0  0
 57 58  1  0  0  0  0
 57 56  1  0  0  0  0
M  END
>  <minimizedAffinity>
-5.15188837

>  <minimizedRMSD>
1.22027421

$$$$
