
 OpenBabel03242523123D

 59 65  0  0  1  0  0  0  0  0999 V2000
   46.3870   32.0240   45.5370 C   0  0  0  0  0  0  0  0  0  0  0  0
   46.7120   32.7590   44.3750 C   0  0  0  0  0  0  0  0  0  0  0  0
   47.6780   32.1200   43.6360 C   0  0  0  0  0  0  0  0  0  0  0  0
   48.2750   30.9380   43.9460 C   0  0  0  0  0  0  0  0  0  0  0  0
   47.9010   30.2770   45.1120 C   0  0  0  0  0  0  0  0  0  0  0  0
   46.9410   30.8320   45.9170 C   0  0  0  0  0  0  0  0  0  0  0  0
   48.6800   29.1320   45.1380 O   0  0  0  0  0  0  0  0  0  0  0  0
   49.4820   29.0590   43.9760 C   0  0  2  0  0  0  0  0  0  0  0  0
   49.2470   30.2530   43.2400 O   0  0  0  0  0  0  0  0  0  0  0  0
   45.6460   32.2480   46.3340 H   0  0  0  0  0  0  0  0  0  0  0  0
   47.9330   32.6460   42.7710 H   0  0  0  0  0  0  0  0  0  0  0  0
   46.7400   30.2420   46.7690 H   0  0  0  0  0  0  0  0  0  0  0  0
   50.5570   28.9850   44.2520 H   0  0  0  0  0  0  0  0  0  0  0  0
   45.1090   36.0310   43.4990 C   0  0  0  0  0  0  0  0  0  0  0  0
   45.8970   34.9010   43.2810 C   0  0  0  0  0  0  0  0  0  0  0  0
   46.0260   33.9710   44.2680 C   0  0  0  0  0  0  0  0  0  0  0  0
   45.3610   34.2100   45.4400 N   0  0  0  0  0  0  0  0  0  0  0  0
   44.6050   35.2950   45.6480 C   0  0  0  0  0  0  0  0  0  0  0  0
   44.4850   36.1830   44.6940 N   0  0  0  0  0  0  0  0  0  0  0  0
   45.0000   36.7720   42.7250 H   0  0  0  0  0  0  0  0  0  0  0  0
   44.0570   35.5400   46.5470 H   0  0  0  0  0  0  0  0  0  0  0  0
   46.5420   34.8020   42.0480 N   0  0  0  0  0  0  0  0  0  0  0  0
   47.8690   35.2900   41.8460 C   0  0  0  0  0  0  0  0  0  0  0  0
   48.4740   34.9460   40.5150 C   0  0  0  0  0  0  0  0  0  0  0  0
   48.1730   33.6730   40.0460 N   0  0  0  0  0  0  0  0  0  0  0  0
   46.8940   33.2130   40.2080 C   0  0  0  0  0  0  0  0  0  0  0  0
   46.0060   34.2360   40.8750 C   0  0  0  0  0  0  0  0  0  0  0  0
   48.5840   35.0290   42.6610 H   0  0  0  0  0  0  0  0  0  0  0  0
   47.8030   36.4130   41.8960 H   0  0  0  0  0  0  0  0  0  0  0  0
   48.0710   35.6980   39.7750 H   0  0  0  0  0  0  0  0  0  0  0  0
   49.5580   35.1760   40.5680 H   0  0  0  0  0  0  0  0  0  0  0  0
   48.8340   33.1930   39.4370 H   0  0  0  0  0  0  0  0  0  0  0  0
   46.7730   32.2420   40.7500 H   0  0  0  0  0  0  0  0  0  0  0  0
   46.4260   33.0050   39.2020 H   0  0  0  0  0  0  0  0  0  0  0  0
   45.0740   33.6750   41.1610 H   0  0  0  0  0  0  0  0  0  0  0  0
   45.7050   34.9600   40.0790 H   0  0  0  0  0  0  0  0  0  0  0  0
   49.0310   27.9660   43.2290 O   0  0  0  0  0  0  0  0  0  0  0  0
   49.1350   27.7760   41.8820 C   0  0  0  0  0  0  0  0  0  0  0  0
   48.1160   27.8120   40.9530 C   0  0  0  0  0  0  0  0  0  0  0  0
   47.1240   28.0140   41.3310 H   0  0  0  0  0  0  0  0  0  0  0  0
   48.4140   27.5950   39.6250 C   0  0  0  0  0  0  0  0  0  0  0  0
   47.5480   27.6410   38.9580 H   0  0  0  0  0  0  0  0  0  0  0  0
   49.6750   27.3380   39.1470 C   0  0  0  0  0  0  0  0  0  0  0  0
   50.6690   27.3050   40.0700 C   0  0  0  0  0  0  0  0  0  0  0  0
   50.4140   27.5130   41.3770 C   0  0  0  0  0  0  0  0  0  0  0  0
   51.2630   27.4740   42.0760 H   0  0  0  0  0  0  0  0  0  0  0  0
   52.3340   26.9780   39.5250 S   0  0  0  0  0  0  0  0  0  0  0  0
   52.2140   26.7670   37.7570 C   0  0  0  0  0  0  0  0  0  0  0  0
   53.4080   26.5020   37.1340 C   0  0  0  0  0  0  0  0  0  0  0  0
   54.3750   26.4210   37.6460 H   0  0  0  0  0  0  0  0  0  0  0  0
   53.4230   26.3210   35.7600 C   0  0  0  0  0  0  0  0  0  0  0  0
   54.3170   26.1100   35.1890 H   0  0  0  0  0  0  0  0  0  0  0  0
   52.2360   26.4140   35.0640 C   0  0  0  0  0  0  0  0  0  0  0  0
   52.2330   26.2750   33.9910 H   0  0  0  0  0  0  0  0  0  0  0  0
   51.0870   26.6840   35.7770 C   0  0  0  0  0  0  0  0  0  0  0  0
   50.1830   26.7420   35.1500 H   0  0  0  0  0  0  0  0  0  0  0  0
   51.0140   26.8720   37.1430 C   0  0  0  0  0  0  0  0  0  0  0  0
   49.7960   27.1400   37.7650 N   0  0  0  0  0  0  0  0  0  0  0  0
   48.9610   27.1880   37.1420 H   0  0  0  0  0  0  0  0  0  0  0  0
  1  6  1  0  0  0  0
  1 10  1  0  0  0  0
  2  1  2  0  0  0  0
  3  4  2  0  0  0  0
  3  2  1  0  0  0  0
  4  5  1  0  0  0  0
  5  7  1  0  0  0  0
  5  6  2  0  0  0  0
  6 12  1  0  0  0  0
  8 13  1  1  0  0  0
  8  7  1  0  0  0  0
  9  4  1  0  0  0  0
  9  8  1  0  0  0  0
 11  3  1  0  0  0  0
 14 19  1  0  0  0  0
 15 14  2  0  0  0  0
 15 16  1  0  0  0  0
 16  2  1  0  0  0  0
 16 17  2  0  0  0  0
 17 18  1  0  0  0  0
 18 21  1  0  0  0  0
 19 18  2  0  0  0  0
 20 14  1  0  0  0  0
 22 15  1  0  0  0  0
 23 29  1  0  0  0  0
 23 22  1  0  0  0  0
 23 28  1  0  0  0  0
 24 31  1  0  0  0  0
 24 23  1  0  0  0  0
 25 26  1  0  0  0  0
 25 24  1  0  0  0  0
 26 33  1  0  0  0  0
 26 27  1  0  0  0  0
 27 35  1  0  0  0  0
 27 22  1  0  0  0  0
 30 24  1  0  0  0  0
 32 25  1  0  0  0  0
 34 26  1  0  0  0  0
 36 27  1  0  0  0  0
 37  8  1  0  0  0  0
 38 37  1  0  0  0  0
 39 40  1  0  0  0  0
 39 38  2  0  0  0  0
 41 39  1  0  0  0  0
 42 41  1  0  0  0  0
 43 41  2  0  0  0  0
 43 44  1  0  0  0  0
 44 45  2  0  0  0  0
 45 38  1  0  0  0  0
 45 46  1  0  0  0  0
 47 44  1  0  0  0  0
 48 47  1  0  0  0  0
 49 50  1  0  0  0  0
 49 48  2  0  0  0  0
 51 49  1  0  0  0  0
 52 51  1  0  0  0  0
 53 51  2  0  0  0  0
 53 55  1  0  0  0  0
 54 53  1  0  0  0  0
 55 57  2  0  0  0  0
 56 55  1  0  0  0  0
 57 48  1  0  0  0  0
 57 58  1  0  0  0  0
 58 43  1  0  0  0  0
 59 58  1  0  0  0  0
M  END
>  <minimizedAffinity>
-4.75389528

>  <minimizedRMSD>
2.97783637

$$$$
