
 OpenBabel03252506133D

 49 53  0  0  0  0  0  0  0  0999 V2000
   48.1190   34.6210   37.1010 O   0  0  0  0  0  0  0  0  0  0  0  0
   47.2450   33.4060   37.2910 P   0  0  2  0  0  0  0  0  0  0  0  0
   45.9090   33.4600   36.2320 O   0  0  0  0  0  0  0  0  0  0  0  0
   45.9820   34.2710   35.7050 H   0  0  0  0  0  0  0  0  0  0  0  0
   46.6600   33.2820   38.8670 O   0  0  0  0  0  0  0  0  0  0  0  0
   45.1170   33.5190   41.2110 F   0  0  0  0  0  0  0  0  0  0  0  0
   46.3050   34.0890   41.0940 C   0  0  0  0  0  0  0  0  0  0  0  0
   46.8070   34.8230   42.1530 C   0  0  0  0  0  0  0  0  0  0  0  0
   48.0530   35.4580   42.1210 C   0  0  0  0  0  0  0  0  0  0  0  0
   48.8370   35.3550   40.9710 C   0  0  0  0  0  0  0  0  0  0  0  0
   48.3070   34.6160   39.9370 C   0  0  0  0  0  0  0  0  0  0  0  0
   47.0980   33.9930   39.9540 C   0  0  0  0  0  0  0  0  0  0  0  0
   48.3770   36.0200   43.0000 H   0  0  0  0  0  0  0  0  0  0  0  0
   49.7890   35.8600   40.9920 H   0  0  0  0  0  0  0  0  0  0  0  0
   49.0130   34.6070   39.1150 H   0  0  0  0  0  0  0  0  0  0  0  0
   45.4580   34.1470   45.4980 C   0  0  0  0  0  0  0  0  0  0  0  0
   44.5700   35.2230   45.6780 C   0  0  0  0  0  0  0  0  0  0  0  0
   44.4340   36.1900   44.6380 C   0  0  0  0  0  0  0  0  0  0  0  0
   45.1940   35.9940   43.5180 N   0  0  0  0  0  0  0  0  0  0  0  0
   46.0250   34.9590   43.3870 C   0  0  0  0  0  0  0  0  0  0  0  0
   46.1530   34.0480   44.3670 N   0  0  0  0  0  0  0  0  0  0  0  0
   43.9860   35.3580   46.5570 H   0  0  0  0  0  0  0  0  0  0  0  0
   43.7600   37.0270   44.7460 H   0  0  0  0  0  0  0  0  0  0  0  0
   45.5790   33.1960   46.5410 N   0  0  0  0  0  0  0  0  0  0  0  0
   45.3090   32.1800   46.5820 H   0  0  0  0  0  0  0  0  0  0  0  0
   45.9860   33.3980   47.4840 H   0  0  0  0  0  0  0  0  0  0  0  0
   48.1190   32.0360   36.8070 O   0  0  0  0  0  0  0  0  0  0  0  0
   47.4830   31.1120   35.9890 C   0  0  0  0  0  0  0  0  0  0  0  0
   46.5690   30.2580   36.5760 C   0  0  0  0  0  0  0  0  0  0  0  0
   46.3680   30.3220   37.6410 H   0  0  0  0  0  0  0  0  0  0  0  0
   45.9250   29.3300   35.7770 C   0  0  0  0  0  0  0  0  0  0  0  0
   45.2120   28.6860   36.3170 H   0  0  0  0  0  0  0  0  0  0  0  0
   46.1310   29.1910   34.4200 C   0  0  0  0  0  0  0  0  0  0  0  0
   47.0310   30.0440   33.8780 C   0  0  0  0  0  0  0  0  0  0  0  0
   47.6780   30.9610   34.6270 C   0  0  0  0  0  0  0  0  0  0  0  0
   48.4090   31.6480   34.1710 H   0  0  0  0  0  0  0  0  0  0  0  0
   47.3570   29.9330   32.1300 S   0  0  0  0  0  0  0  0  0  0  0  0
   46.3130   28.6170   31.5310 C   0  0  0  0  0  0  0  0  0  0  0  0
   46.3870   28.3370   30.1890 C   0  0  0  0  0  0  0  0  0  0  0  0
   47.0470   28.8880   29.5250 H   0  0  0  0  0  0  0  0  0  0  0  0
   45.6210   27.3390   29.6380 C   0  0  0  0  0  0  0  0  0  0  0  0
   45.6690   27.1110   28.5950 H   0  0  0  0  0  0  0  0  0  0  0  0
   44.7880   26.6410   30.4740 C   0  0  0  0  0  0  0  0  0  0  0  0
   44.1870   25.8570   30.0350 H   0  0  0  0  0  0  0  0  0  0  0  0
   44.7560   26.9640   31.8020 C   0  0  0  0  0  0  0  0  0  0  0  0
   44.0600   26.3490   32.3820 H   0  0  0  0  0  0  0  0  0  0  0  0
   45.5010   27.9530   32.4110 C   0  0  0  0  0  0  0  0  0  0  0  0
   45.3910   28.1990   33.7780 N   0  0  0  0  0  0  0  0  0  0  0  0
   44.7200   27.5960   34.2990 H   0  0  0  0  0  0  0  0  0  0  0  0
  2  1  2  6  0  0  0
  2  5  1  0  0  0  0
  3  2  1  0  0  0  0
  4  3  1  0  0  0  0
  5 12  1  0  0  0  0
  7  6  1  0  0  0  0
  7  8  1  0  0  0  0
  8 20  1  0  0  0  0
  9  8  2  0  0  0  0
  9 13  1  0  0  0  0
 10 14  1  0  0  0  0
 10  9  1  0  0  0  0
 11 12  1  0  0  0  0
 11 10  2  0  0  0  0
 12  7  2  0  0  0  0
 15 11  1  0  0  0  0
 16 17  1  0  0  0  0
 16 24  1  0  0  0  0
 17 22  1  0  0  0  0
 18 23  1  0  0  0  0
 18 17  2  0  0  0  0
 19 18  1  0  0  0  0
 20 19  2  0  0  0  0
 20 21  1  0  0  0  0
 21 16  2  0  0  0  0
 24 25  1  0  0  0  0
 24 26  1  0  0  0  0
 27  2  1  0  0  0  0
 28 29  1  0  0  0  0
 28 27  1  0  0  0  0
 29 30  1  0  0  0  0
 31 32  1  0  0  0  0
 31 29  2  0  0  0  0
 33 31  1  0  0  0  0
 34 33  2  0  0  0  0
 34 35  1  0  0  0  0
 35 28  2  0  0  0  0
 36 35  1  0  0  0  0
 37 34  1  0  0  0  0
 38 37  1  0  0  0  0
 38 47  1  0  0  0  0
 39 38  2  0  0  0  0
 40 39  1  0  0  0  0
 41 39  1  0  0  0  0
 41 43  2  0  0  0  0
 42 41  1  0  0  0  0
 43 45  1  0  0  0  0
 44 43  1  0  0  0  0
 45 46  1  0  0  0  0
 45 47  2  0  0  0  0
 47 48  1  0  0  0  0
 48 49  1  0  0  0  0
 48 33  1  0  0  0  0
M  END
>  <minimizedAffinity>
-7.45127773

>  <minimizedRMSD>
2.26429439

$$$$
