
 OpenBabel03252509003D

 58 62  0  0  1  0  0  0  0  0999 V2000
   47.1020   34.1260   43.2030 N   0  0  0  0  0  0  0  0  0  0  0  0
   46.6740   35.3490   42.6310 C   0  0  0  0  0  0  0  0  0  0  0  0
   45.1990   35.6510   42.7920 C   0  0  0  0  0  0  0  0  0  0  0  0
   44.6000   35.1500   44.0700 C   0  0  0  0  0  0  0  0  0  0  0  0
   45.6340   34.5120   44.9660 C   0  0  0  0  0  0  0  0  0  0  0  0
   46.2720   33.4080   44.0490 C   0  0  2  0  0  0  0  0  0  0  0  0
   46.9230   35.4980   41.5800 H   0  0  0  0  0  0  0  0  0  0  0  0
   47.2080   36.1670   43.1890 H   0  0  0  0  0  0  0  0  0  0  0  0
   44.6550   35.2480   41.9020 H   0  0  0  0  0  0  0  0  0  0  0  0
   45.0650   36.7550   42.7620 H   0  0  0  0  0  0  0  0  0  0  0  0
   44.0060   35.9340   44.5920 H   0  0  0  0  0  0  0  0  0  0  0  0
   43.8610   34.3380   43.8160 H   0  0  0  0  0  0  0  0  0  0  0  0
   46.4090   35.2080   45.2980 H   0  0  0  0  0  0  0  0  0  0  0  0
   45.1090   34.0060   45.8010 H   0  0  0  0  0  0  0  0  0  0  0  0
   45.4050   32.8730   43.6240 H   0  0  0  0  0  0  0  0  0  0  0  0
   48.0720   33.4250   42.4200 C   0  0  0  0  0  0  0  0  0  0  0  0
   48.6380   32.7270   43.0890 H   0  0  0  0  0  0  0  0  0  0  0  0
   48.7930   34.1300   42.0030 H   0  0  0  0  0  0  0  0  0  0  0  0
   47.3670   32.5880   41.3990 C   0  0  0  0  0  0  0  0  0  0  0  0
   46.2860   32.8590   41.3410 H   0  0  0  0  0  0  0  0  0  0  0  0
   47.3980   31.5110   41.6070 H   0  0  0  0  0  0  0  0  0  0  0  0
   49.3420   32.2180   38.2230 C   0  0  0  0  0  0  0  0  0  0  0  0
   48.7970   31.9570   39.4940 C   0  0  0  0  0  0  0  0  0  0  0  0
   47.9380   32.8710   40.0560 C   0  0  0  0  0  0  0  0  0  0  0  0
   47.6580   33.9800   39.3580 N   0  0  0  0  0  0  0  0  0  0  0  0
   48.1850   34.2210   38.1400 C   0  0  0  0  0  0  0  0  0  0  0  0
   49.0270   33.3460   37.5650 N   0  0  0  0  0  0  0  0  0  0  0  0
   50.0190   31.4770   37.8040 H   0  0  0  0  0  0  0  0  0  0  0  0
   49.0460   31.0450   40.0370 H   0  0  0  0  0  0  0  0  0  0  0  0
   47.9120   35.1370   37.6370 H   0  0  0  0  0  0  0  0  0  0  0  0
   47.0000   32.6640   44.9710 O   0  0  0  0  0  0  0  0  0  0  0  0
   45.2960   30.7650   44.2460 O   0  0  0  0  0  0  0  0  0  0  0  0
   46.2840   31.1830   45.3260 P   0  0  2  0  0  0  0  0  0  0  0  0
   45.3340   31.4380   46.7270 O   0  0  0  0  0  0  0  0  0  0  0  0
   45.8980   31.3870   47.5370 H   0  0  0  0  0  0  0  0  0  0  0  0
   47.4110   30.0000   45.6630 O   0  0  0  0  0  0  0  0  0  0  0  0
   47.2110   28.8380   46.3600 C   0  0  0  0  0  0  0  0  0  0  0  0
   45.9860   28.2030   46.3720 C   0  0  0  0  0  0  0  0  0  0  0  0
   45.1640   28.6310   45.8200 H   0  0  0  0  0  0  0  0  0  0  0  0
   45.8380   27.0330   47.0910 C   0  0  0  0  0  0  0  0  0  0  0  0
   44.8280   26.5950   47.0450 H   0  0  0  0  0  0  0  0  0  0  0  0
   46.8620   26.4520   47.8110 C   0  0  0  0  0  0  0  0  0  0  0  0
   48.0860   27.0720   47.8090 C   0  0  0  0  0  0  0  0  0  0  0  0
   48.2110   28.2300   47.0900 C   0  0  0  0  0  0  0  0  0  0  0  0
   49.1860   28.7220   47.0900 H   0  0  0  0  0  0  0  0  0  0  0  0
   49.4330   26.3530   48.7250 S   0  0  0  0  0  0  0  0  0  0  0  0
   48.7760   24.8760   49.4780 C   0  0  0  0  0  0  0  0  0  0  0  0
   49.6400   24.1640   50.2320 C   0  0  0  0  0  0  0  0  0  0  0  0
   50.6740   24.4430   50.3890 H   0  0  0  0  0  0  0  0  0  0  0  0
   49.2250   23.0060   50.8550 C   0  0  0  0  0  0  0  0  0  0  0  0
   49.9130   22.4310   51.4590 H   0  0  0  0  0  0  0  0  0  0  0  0
   47.9150   22.6060   50.6850 C   0  0  0  0  0  0  0  0  0  0  0  0
   47.5470   21.7050   51.1540 H   0  0  0  0  0  0  0  0  0  0  0  0
   47.0890   23.3850   49.9010 C   0  0  0  0  0  0  0  0  0  0  0  0
   46.0600   23.0140   49.8030 H   0  0  0  0  0  0  0  0  0  0  0  0
   47.4620   24.5470   49.2600 C   0  0  0  0  0  0  0  0  0  0  0  0
   46.5250   25.2640   48.4800 N   0  0  0  0  0  0  0  0  0  0  0  0
   45.5690   24.8550   48.4330 H   0  0  0  0  0  0  0  0  0  0  0  0
  1  6  1  0  0  0  0
  2  3  1  0  0  0  0
  2  8  1  0  0  0  0
  2  1  1  0  0  0  0
  3  4  1  0  0  0  0
  4 11  1  0  0  0  0
  4  5  1  0  0  0  0
  5 13  1  0  0  0  0
  5 14  1  0  0  0  0
  6 15  1  6  0  0  0
  6  5  1  0  0  0  0
  6 31  1  0  0  0  0
  7  2  1  0  0  0  0
  9  3  1  0  0  0  0
 10  3  1  0  0  0  0
 12  4  1  0  0  0  0
 16 17  1  0  0  0  0
 16  1  1  0  0  0  0
 18 16  1  0  0  0  0
 19 21  1  0  0  0  0
 19 16  1  0  0  0  0
 20 19  1  0  0  0  0
 22 23  1  0  0  0  0
 23 29  1  0  0  0  0
 23 24  2  0  0  0  0
 24 19  1  0  0  0  0
 25 24  1  0  0  0  0
 26 25  2  0  0  0  0
 27 26  1  0  0  0  0
 27 22  2  0  0  0  0
 28 22  1  0  0  0  0
 30 26  1  0  0  0  0
 31 33  1  0  0  0  0
 33 32  2  6  0  0  0
 33 36  1  0  0  0  0
 33 34  1  0  0  0  0
 34 35  1  0  0  0  0
 36 37  1  0  0  0  0
 37 38  2  0  0  0  0
 37 44  1  0  0  0  0
 38 40  1  0  0  0  0
 39 38  1  0  0  0  0
 40 42  2  0  0  0  0
 41 40  1  0  0  0  0
 42 57  1  0  0  0  0
 43 42  1  0  0  0  0
 43 46  1  0  0  0  0
 44 45  1  0  0  0  0
 44 43  2  0  0  0  0
 46 47  1  0  0  0  0
 47 48  1  0  0  0  0
 48 49  1  0  0  0  0
 48 50  2  0  0  0  0
 50 51  1  0  0  0  0
 52 50  1  0  0  0  0
 52 53  1  0  0  0  0
 54 52  2  0  0  0  0
 55 54  1  0  0  0  0
 56 47  2  0  0  0  0
 56 54  1  0  0  0  0
 57 56  1  0  0  0  0
 58 57  1  0  0  0  0
M  END
>  <minimizedAffinity>
-5.33709431

>  <minimizedRMSD>
0.968927801

$$$$
