
 OpenBabel03252509003D

 58 62  0  0  1  0  0  0  0  0999 V2000
   46.9810   34.3300   43.3490 N   0  0  0  0  0  0  0  0  0  0  0  0
   46.5560   35.5360   42.7400 C   0  0  0  0  0  0  0  0  0  0  0  0
   45.0740   35.8230   42.8520 C   0  0  0  0  0  0  0  0  0  0  0  0
   44.4430   35.3400   44.1220 C   0  0  0  0  0  0  0  0  0  0  0  0
   45.4570   34.7320   45.0610 C   0  0  0  0  0  0  0  0  0  0  0  0
   46.1350   33.6190   44.1850 C   0  0  2  0  0  0  0  0  0  0  0  0
   46.8340   35.6670   41.6940 H   0  0  0  0  0  0  0  0  0  0  0  0
   47.0640   36.3720   43.2970 H   0  0  0  0  0  0  0  0  0  0  0  0
   44.5610   35.3970   41.9550 H   0  0  0  0  0  0  0  0  0  0  0  0
   44.9270   36.9250   42.7960 H   0  0  0  0  0  0  0  0  0  0  0  0
   43.8250   36.1270   44.6110 H   0  0  0  0  0  0  0  0  0  0  0  0
   43.7210   34.5150   43.8630 H   0  0  0  0  0  0  0  0  0  0  0  0
   46.2140   35.4440   45.4010 H   0  0  0  0  0  0  0  0  0  0  0  0
   44.9130   34.2370   45.8900 H   0  0  0  0  0  0  0  0  0  0  0  0
   45.2870   33.0650   43.7460 H   0  0  0  0  0  0  0  0  0  0  0  0
   47.9810   33.6260   42.6090 C   0  0  0  0  0  0  0  0  0  0  0  0
   48.5800   32.9990   43.3190 H   0  0  0  0  0  0  0  0  0  0  0  0
   48.6690   34.3340   42.1450 H   0  0  0  0  0  0  0  0  0  0  0  0
   47.3150   32.6930   41.6470 C   0  0  0  0  0  0  0  0  0  0  0  0
   46.2240   32.9140   41.5700 H   0  0  0  0  0  0  0  0  0  0  0  0
   47.3900   31.6340   41.9270 H   0  0  0  0  0  0  0  0  0  0  0  0
   49.2760   32.1670   38.4840 C   0  0  0  0  0  0  0  0  0  0  0  0
   48.7380   31.9700   39.7700 C   0  0  0  0  0  0  0  0  0  0  0  0
   47.8780   32.9080   40.2880 C   0  0  0  0  0  0  0  0  0  0  0  0
   47.5890   33.9770   39.5340 N   0  0  0  0  0  0  0  0  0  0  0  0
   48.1090   34.1570   38.3030 C   0  0  0  0  0  0  0  0  0  0  0  0
   48.9530   33.2570   37.7700 N   0  0  0  0  0  0  0  0  0  0  0  0
   49.9540   31.4070   38.1010 H   0  0  0  0  0  0  0  0  0  0  0  0
   48.9940   31.0890   40.3580 H   0  0  0  0  0  0  0  0  0  0  0  0
   47.8290   35.0440   37.7540 H   0  0  0  0  0  0  0  0  0  0  0  0
   46.8440   32.9020   45.1430 O   0  0  0  0  0  0  0  0  0  0  0  0
   45.3090   30.9160   44.2840 O   0  0  0  0  0  0  0  0  0  0  0  0
   46.1880   31.3800   45.4360 P   0  0  2  0  0  0  0  0  0  0  0  0
   45.1230   31.5690   46.7630 O   0  0  0  0  0  0  0  0  0  0  0  0
   45.6270   31.5430   47.6130 H   0  0  0  0  0  0  0  0  0  0  0  0
   47.3530   30.2600   45.8520 O   0  0  0  0  0  0  0  0  0  0  0  0
   47.1820   28.9110   46.0260 C   0  0  0  0  0  0  0  0  0  0  0  0
   48.1600   28.1260   46.6030 C   0  0  0  0  0  0  0  0  0  0  0  0
   49.0810   28.5850   46.9240 H   0  0  0  0  0  0  0  0  0  0  0  0
   47.9380   26.7720   46.7550 C   0  0  0  0  0  0  0  0  0  0  0  0
   48.7700   26.2230   47.2230 H   0  0  0  0  0  0  0  0  0  0  0  0
   46.7730   26.1480   46.3570 C   0  0  0  0  0  0  0  0  0  0  0  0
   45.7900   26.9130   45.7820 C   0  0  0  0  0  0  0  0  0  0  0  0
   46.0310   28.2540   45.6410 C   0  0  0  0  0  0  0  0  0  0  0  0
   45.2490   28.8630   45.1840 H   0  0  0  0  0  0  0  0  0  0  0  0
   44.2750   26.1440   45.2570 S   0  0  0  0  0  0  0  0  0  0  0  0
   44.4440   24.4140   45.6500 C   0  0  0  0  0  0  0  0  0  0  0  0
   43.3920   23.6300   45.3320 C   0  0  0  0  0  0  0  0  0  0  0  0
   42.4870   23.9970   44.8660 H   0  0  0  0  0  0  0  0  0  0  0  0
   43.4290   22.2770   45.5980 C   0  0  0  0  0  0  0  0  0  0  0  0
   42.5890   21.6460   45.3450 H   0  0  0  0  0  0  0  0  0  0  0  0
   44.5620   21.7610   46.1930 C   0  0  0  0  0  0  0  0  0  0  0  0
   44.6340   20.7050   46.4200 H   0  0  0  0  0  0  0  0  0  0  0  0
   45.5980   22.6210   46.4910 C   0  0  0  0  0  0  0  0  0  0  0  0
   46.4710   22.1510   46.9620 H   0  0  0  0  0  0  0  0  0  0  0  0
   45.6030   23.9780   46.2420 C   0  0  0  0  0  0  0  0  0  0  0  0
   46.7260   24.7620   46.5930 N   0  0  0  0  0  0  0  0  0  0  0  0
   47.5160   24.2490   47.0340 H   0  0  0  0  0  0  0  0  0  0  0  0
  1  6  1  0  0  0  0
  2  3  1  0  0  0  0
  2  8  1  0  0  0  0
  2  1  1  0  0  0  0
  3  4  1  0  0  0  0
  4 11  1  0  0  0  0
  4  5  1  0  0  0  0
  5 13  1  0  0  0  0
  5 14  1  0  0  0  0
  6 15  1  6  0  0  0
  6  5  1  0  0  0  0
  6 31  1  0  0  0  0
  7  2  1  0  0  0  0
  9  3  1  0  0  0  0
 10  3  1  0  0  0  0
 12  4  1  0  0  0  0
 16 17  1  0  0  0  0
 16  1  1  0  0  0  0
 18 16  1  0  0  0  0
 19 21  1  0  0  0  0
 19 16  1  0  0  0  0
 20 19  1  0  0  0  0
 22 23  1  0  0  0  0
 23 24  2  0  0  0  0
 23 29  1  0  0  0  0
 24 19  1  0  0  0  0
 25 24  1  0  0  0  0
 26 25  2  0  0  0  0
 27 26  1  0  0  0  0
 27 22  2  0  0  0  0
 28 22  1  0  0  0  0
 30 26  1  0  0  0  0
 31 33  1  0  0  0  0
 33 32  2  6  0  0  0
 33 36  1  0  0  0  0
 33 34  1  0  0  0  0
 34 35  1  0  0  0  0
 36 37  1  0  0  0  0
 37 38  1  0  0  0  0
 38 40  2  0  0  0  0
 38 39  1  0  0  0  0
 40 41  1  0  0  0  0
 42 57  1  0  0  0  0
 42 40  1  0  0  0  0
 43 42  2  0  0  0  0
 44 43  1  0  0  0  0
 44 37  2  0  0  0  0
 45 44  1  0  0  0  0
 46 47  1  0  0  0  0
 46 43  1  0  0  0  0
 47 56  1  0  0  0  0
 48 50  1  0  0  0  0
 48 47  2  0  0  0  0
 49 48  1  0  0  0  0
 50 52  2  0  0  0  0
 51 50  1  0  0  0  0
 52 53  1  0  0  0  0
 52 54  1  0  0  0  0
 54 55  1  0  0  0  0
 56 54  2  0  0  0  0
 56 57  1  0  0  0  0
 57 58  1  0  0  0  0
M  END
>  <minimizedAffinity>
-4.50536299

>  <minimizedRMSD>
2.80337334

$$$$
