
 OpenBabel03242520403D

 52 57  0  0  1  0  0  0  0  0999 V2000
   48.0480   30.0470   47.9800 C   0  0  0  0  0  0  0  0  0  0  0  0
   47.4850   30.8400   48.9570 C   0  0  0  0  0  0  0  0  0  0  0  0
   48.4150   31.4080   49.7320 N   0  0  0  0  0  0  0  0  0  0  0  0
   49.5840   30.9780   49.2490 C   0  0  0  0  0  0  0  0  0  0  0  0
   49.3670   30.1700   48.2100 N   0  0  0  0  0  0  0  0  0  0  0  0
   46.4220   30.9830   49.0770 H   0  0  0  0  0  0  0  0  0  0  0  0
   48.2760   32.0540   50.5450 H   0  0  0  0  0  0  0  0  0  0  0  0
   46.0030   33.3460   45.3470 C   0  0  0  0  0  0  0  0  0  0  0  0
   46.9140   33.4360   44.2640 C   0  0  0  0  0  0  0  0  0  0  0  0
   47.6290   32.2580   43.8910 C   0  0  0  0  0  0  0  0  0  0  0  0
   47.4060   31.1040   44.5870 N   0  0  0  0  0  0  0  0  0  0  0  0
   46.5210   31.0810   45.6140 C   0  0  0  0  0  0  0  0  0  0  0  0
   45.8340   32.1900   45.9830 N   0  0  0  0  0  0  0  0  0  0  0  0
   46.3610   29.8530   46.2710 N   0  0  0  0  0  0  0  0  0  0  0  0
   47.4670   29.2110   46.9020 C   0  0  2  0  0  0  0  0  0  0  0  0
   47.2140   27.8070   47.3290 C   0  0  0  0  0  0  0  0  0  0  0  0
   45.8900   27.4650   47.6810 N   0  0  0  0  0  0  0  0  0  0  0  0
   44.9700   28.5520   47.6510 C   0  0  0  0  0  0  0  0  0  0  0  0
   45.0560   29.2240   46.3090 C   0  0  0  0  0  0  0  0  0  0  0  0
   45.4920   34.2550   45.5870 H   0  0  0  0  0  0  0  0  0  0  0  0
   47.1230   34.3160   43.6900 H   0  0  0  0  0  0  0  0  0  0  0  0
   48.3260   32.2770   43.0830 H   0  0  0  0  0  0  0  0  0  0  0  0
   48.2570   29.1100   46.0950 H   0  0  0  0  0  0  0  0  0  0  0  0
   47.5770   27.0530   46.6000 H   0  0  0  0  0  0  0  0  0  0  0  0
   47.8580   27.6400   48.2390 H   0  0  0  0  0  0  0  0  0  0  0  0
   45.8010   27.0040   48.6200 H   0  0  0  0  0  0  0  0  0  0  0  0
   43.9370   28.0900   47.6930 H   0  0  0  0  0  0  0  0  0  0  0  0
   45.0150   29.2330   48.5150 H   0  0  0  0  0  0  0  0  0  0  0  0
   44.2230   29.9220   46.1220 H   0  0  0  0  0  0  0  0  0  0  0  0
   45.0620   28.4280   45.5490 H   0  0  0  0  0  0  0  0  0  0  0  0
   50.9270   31.2940   49.7230 C   0  0  0  0  0  0  0  0  0  0  0  0
   52.0690   30.6390   49.3110 C   0  0  0  0  0  0  0  0  0  0  0  0
   51.9740   29.8400   48.5900 H   0  0  0  0  0  0  0  0  0  0  0  0
   53.2830   31.0170   49.8230 C   0  0  0  0  0  0  0  0  0  0  0  0
   54.1360   30.4440   49.4400 H   0  0  0  0  0  0  0  0  0  0  0  0
   53.4670   32.0250   50.7410 C   0  0  0  0  0  0  0  0  0  0  0  0
   52.3140   32.6560   51.1310 C   0  0  0  0  0  0  0  0  0  0  0  0
   51.0860   32.3060   50.6430 C   0  0  0  0  0  0  0  0  0  0  0  0
   50.2040   32.8340   50.9810 H   0  0  0  0  0  0  0  0  0  0  0  0
   52.4300   33.9780   52.3170 S   0  0  0  0  0  0  0  0  0  0  0  0
   54.1570   34.1450   52.7160 C   0  0  0  0  0  0  0  0  0  0  0  0
   54.5410   35.1000   53.6170 C   0  0  0  0  0  0  0  0  0  0  0  0
   53.8020   35.7440   54.0790 H   0  0  0  0  0  0  0  0  0  0  0  0
   55.8610   35.2820   53.9710 C   0  0  0  0  0  0  0  0  0  0  0  0
   56.2360   36.0140   54.6730 H   0  0  0  0  0  0  0  0  0  0  0  0
   56.7910   34.4560   53.3750 C   0  0  0  0  0  0  0  0  0  0  0  0
   57.8370   34.5640   53.6240 H   0  0  0  0  0  0  0  0  0  0  0  0
   56.3640   33.5060   52.4730 C   0  0  0  0  0  0  0  0  0  0  0  0
   57.1660   32.8890   52.0440 H   0  0  0  0  0  0  0  0  0  0  0  0
   55.0520   33.3060   52.1050 C   0  0  0  0  0  0  0  0  0  0  0  0
   54.7840   32.2870   51.1640 N   0  0  0  0  0  0  0  0  0  0  0  0
   55.5690   31.7260   50.7830 H   0  0  0  0  0  0  0  0  0  0  0  0
  1  5  1  0  0  0  0
  1  2  2  0  0  0  0
  2  6  1  0  0  0  0
  2  3  1  0  0  0  0
  3  7  1  0  0  0  0
  4 31  1  0  0  0  0
  4  3  1  0  0  0  0
  5  4  2  0  0  0  0
  8 20  1  0  0  0  0
  8 13  1  0  0  0  0
  9  8  2  0  0  0  0
 10  9  1  0  0  0  0
 10 11  2  0  0  0  0
 11 12  1  0  0  0  0
 12 13  2  0  0  0  0
 12 14  1  0  0  0  0
 14 19  1  0  0  0  0
 14 15  1  0  0  0  0
 15 23  1  6  0  0  0
 15 16  1  0  0  0  0
 15  1  1  0  0  0  0
 16 17  1  0  0  0  0
 16 25  1  0  0  0  0
 17 26  1  0  0  0  0
 18 17  1  0  0  0  0
 18 27  1  0  0  0  0
 18 28  1  0  0  0  0
 19 18  1  0  0  0  0
 21  9  1  0  0  0  0
 22 10  1  0  0  0  0
 24 16  1  0  0  0  0
 29 19  1  0  0  0  0
 30 19  1  0  0  0  0
 31 38  1  0  0  0  0
 32 31  2  0  0  0  0
 32 34  1  0  0  0  0
 33 32  1  0  0  0  0
 34 36  2  0  0  0  0
 35 34  1  0  0  0  0
 36 37  1  0  0  0  0
 36 51  1  0  0  0  0
 37 40  1  0  0  0  0
 38 39  1  0  0  0  0
 38 37  2  0  0  0  0
 40 41  1  0  0  0  0
 41 42  1  0  0  0  0
 42 44  2  0  0  0  0
 42 43  1  0  0  0  0
 44 45  1  0  0  0  0
 46 47  1  0  0  0  0
 46 44  1  0  0  0  0
 48 46  2  0  0  0  0
 49 48  1  0  0  0  0
 50 48  1  0  0  0  0
 50 41  2  0  0  0  0
 51 50  1  0  0  0  0
 52 51  1  0  0  0  0
M  END
>  <minimizedAffinity>
-5.66884422

>  <minimizedRMSD>
0.852459192

$$$$
