
 OpenBabel03242520403D

 52 57  0  0  1  0  0  0  0  0999 V2000
   48.1480   30.0560   48.0230 C   0  0  0  0  0  0  0  0  0  0  0  0
   47.7350   30.8900   49.0390 C   0  0  0  0  0  0  0  0  0  0  0  0
   48.7670   31.3630   49.7460 N   0  0  0  0  0  0  0  0  0  0  0  0
   49.8520   30.8300   49.1780 C   0  0  0  0  0  0  0  0  0  0  0  0
   49.4860   30.0530   48.1570 N   0  0  0  0  0  0  0  0  0  0  0  0
   46.7000   31.1310   49.2360 H   0  0  0  0  0  0  0  0  0  0  0  0
   48.7480   32.0130   50.5670 H   0  0  0  0  0  0  0  0  0  0  0  0
   45.8940   33.5240   45.8130 C   0  0  0  0  0  0  0  0  0  0  0  0
   46.6680   33.6440   44.6300 C   0  0  0  0  0  0  0  0  0  0  0  0
   47.2980   32.4690   44.1190 C   0  0  0  0  0  0  0  0  0  0  0  0
   47.1270   31.2880   44.7860 N   0  0  0  0  0  0  0  0  0  0  0  0
   46.3750   31.2370   45.9130 C   0  0  0  0  0  0  0  0  0  0  0  0
   45.7700   32.3430   46.4130 N   0  0  0  0  0  0  0  0  0  0  0  0
   46.2600   29.9830   46.5290 N   0  0  0  0  0  0  0  0  0  0  0  0
   47.4160   29.2860   46.9900 C   0  0  2  0  0  0  0  0  0  0  0  0
   47.1760   27.8700   47.3820 C   0  0  0  0  0  0  0  0  0  0  0  0
   45.8950   27.5420   47.8790 N   0  0  0  0  0  0  0  0  0  0  0  0
   45.0110   28.6510   48.0120 C   0  0  0  0  0  0  0  0  0  0  0  0
   44.9520   29.3840   46.7010 C   0  0  0  0  0  0  0  0  0  0  0  0
   45.4430   34.4320   46.1540 H   0  0  0  0  0  0  0  0  0  0  0  0
   46.8310   34.5450   44.0740 H   0  0  0  0  0  0  0  0  0  0  0  0
   47.8910   32.5090   43.2330 H   0  0  0  0  0  0  0  0  0  0  0  0
   48.0980   29.2050   46.0870 H   0  0  0  0  0  0  0  0  0  0  0  0
   47.4250   27.1430   46.5810 H   0  0  0  0  0  0  0  0  0  0  0  0
   47.9210   27.6450   48.1970 H   0  0  0  0  0  0  0  0  0  0  0  0
   45.9080   27.0390   48.8000 H   0  0  0  0  0  0  0  0  0  0  0  0
   43.9780   28.2120   48.1600 H   0  0  0  0  0  0  0  0  0  0  0  0
   45.1820   29.2890   48.8930 H   0  0  0  0  0  0  0  0  0  0  0  0
   44.1230   30.1100   46.6490 H   0  0  0  0  0  0  0  0  0  0  0  0
   44.8410   28.6260   45.9110 H   0  0  0  0  0  0  0  0  0  0  0  0
   51.2500   31.0150   49.5540 C   0  0  0  0  0  0  0  0  0  0  0  0
   51.8870   32.2360   49.5990 C   0  0  0  0  0  0  0  0  0  0  0  0
   51.3240   33.1220   49.3410 H   0  0  0  0  0  0  0  0  0  0  0  0
   53.2070   32.2950   49.9670 C   0  0  0  0  0  0  0  0  0  0  0  0
   53.6310   33.3050   49.9750 H   0  0  0  0  0  0  0  0  0  0  0  0
   53.9750   31.2060   50.3060 C   0  0  0  0  0  0  0  0  0  0  0  0
   53.3130   30.0050   50.2520 C   0  0  0  0  0  0  0  0  0  0  0  0
   51.9990   29.9080   49.8900 C   0  0  0  0  0  0  0  0  0  0  0  0
   51.5200   28.9380   49.8630 H   0  0  0  0  0  0  0  0  0  0  0  0
   54.2080   28.5250   50.6720 S   0  0  0  0  0  0  0  0  0  0  0  0
   55.8630   29.0370   51.0840 C   0  0  0  0  0  0  0  0  0  0  0  0
   56.7790   28.0890   51.4500 C   0  0  0  0  0  0  0  0  0  0  0  0
   56.4980   27.0440   51.4870 H   0  0  0  0  0  0  0  0  0  0  0  0
   58.0770   28.4170   51.7810 C   0  0  0  0  0  0  0  0  0  0  0  0
   58.8510   27.7250   52.0790 H   0  0  0  0  0  0  0  0  0  0  0  0
   58.4200   29.7520   51.7310 C   0  0  0  0  0  0  0  0  0  0  0  0
   59.4260   30.0540   51.9820 H   0  0  0  0  0  0  0  0  0  0  0  0
   57.4670   30.6760   51.3570 C   0  0  0  0  0  0  0  0  0  0  0  0
   57.8200   31.7160   51.3420 H   0  0  0  0  0  0  0  0  0  0  0  0
   56.1670   30.3720   51.0220 C   0  0  0  0  0  0  0  0  0  0  0  0
   55.3170   31.4400   50.6610 N   0  0  0  0  0  0  0  0  0  0  0  0
   55.6870   32.4090   50.6590 H   0  0  0  0  0  0  0  0  0  0  0  0
  1  5  1  0  0  0  0
  1  2  2  0  0  0  0
  2  6  1  0  0  0  0
  2  3  1  0  0  0  0
  3  7  1  0  0  0  0
  4 31  1  0  0  0  0
  4  3  1  0  0  0  0
  5  4  2  0  0  0  0
  8 20  1  0  0  0  0
  8 13  1  0  0  0  0
  9  8  2  0  0  0  0
 10  9  1  0  0  0  0
 10 11  2  0  0  0  0
 11 12  1  0  0  0  0
 12 13  2  0  0  0  0
 12 14  1  0  0  0  0
 14 19  1  0  0  0  0
 14 15  1  0  0  0  0
 15 23  1  6  0  0  0
 15 16  1  0  0  0  0
 15  1  1  0  0  0  0
 16 17  1  0  0  0  0
 16 25  1  0  0  0  0
 17 18  1  0  0  0  0
 17 26  1  0  0  0  0
 18 27  1  0  0  0  0
 18 28  1  0  0  0  0
 19 18  1  0  0  0  0
 21  9  1  0  0  0  0
 22 10  1  0  0  0  0
 24 16  1  0  0  0  0
 29 19  1  0  0  0  0
 30 19  1  0  0  0  0
 31 32  2  0  0  0  0
 31 38  1  0  0  0  0
 32 34  1  0  0  0  0
 33 32  1  0  0  0  0
 34 35  1  0  0  0  0
 34 36  2  0  0  0  0
 36 51  1  0  0  0  0
 37 36  1  0  0  0  0
 37 40  1  0  0  0  0
 38 37  2  0  0  0  0
 39 38  1  0  0  0  0
 40 41  1  0  0  0  0
 41 42  1  0  0  0  0
 42 43  1  0  0  0  0
 42 44  2  0  0  0  0
 44 45  1  0  0  0  0
 46 44  1  0  0  0  0
 46 47  1  0  0  0  0
 48 46  2  0  0  0  0
 49 48  1  0  0  0  0
 50 41  2  0  0  0  0
 50 48  1  0  0  0  0
 51 50  1  0  0  0  0
 52 51  1  0  0  0  0
M  END
>  <minimizedAffinity>
-5.44533587

>  <minimizedRMSD>
0.186815307

$$$$
