
 OpenBabel03242520403D

 52 57  0  0  1  0  0  0  0  0999 V2000
   48.0250   30.0730   47.9980 C   0  0  0  0  0  0  0  0  0  0  0  0
   47.4030   30.8690   48.9360 C   0  0  0  0  0  0  0  0  0  0  0  0
   48.2850   31.4620   49.7470 N   0  0  0  0  0  0  0  0  0  0  0  0
   49.4830   31.0450   49.3260 C   0  0  0  0  0  0  0  0  0  0  0  0
   49.3290   30.2200   48.2890 N   0  0  0  0  0  0  0  0  0  0  0  0
   46.3330   30.9960   49.0020 H   0  0  0  0  0  0  0  0  0  0  0  0
   48.0970   32.1160   50.5430 H   0  0  0  0  0  0  0  0  0  0  0  0
   45.9970   33.2960   45.2600 C   0  0  0  0  0  0  0  0  0  0  0  0
   46.9470   33.4030   44.2120 C   0  0  0  0  0  0  0  0  0  0  0  0
   47.7090   32.2430   43.8780 C   0  0  0  0  0  0  0  0  0  0  0  0
   47.4890   31.0870   44.5740 N   0  0  0  0  0  0  0  0  0  0  0  0
   46.5650   31.0480   45.5660 C   0  0  0  0  0  0  0  0  0  0  0  0
   45.8340   32.1390   45.8980 N   0  0  0  0  0  0  0  0  0  0  0  0
   46.4130   29.8200   46.2250 N   0  0  0  0  0  0  0  0  0  0  0  0
   47.5100   29.2140   46.9050 C   0  0  2  0  0  0  0  0  0  0  0  0
   47.2790   27.8060   47.3330 C   0  0  0  0  0  0  0  0  0  0  0  0
   45.9510   27.4300   47.6350 N   0  0  0  0  0  0  0  0  0  0  0  0
   45.0040   28.4910   47.5600 C   0  0  0  0  0  0  0  0  0  0  0  0
   45.1250   29.1560   46.2180 C   0  0  0  0  0  0  0  0  0  0  0  0
   45.4520   34.1920   45.4720 H   0  0  0  0  0  0  0  0  0  0  0  0
   47.1550   34.2840   43.6400 H   0  0  0  0  0  0  0  0  0  0  0  0
   48.4360   32.2740   43.0970 H   0  0  0  0  0  0  0  0  0  0  0  0
   48.3340   29.1280   46.1300 H   0  0  0  0  0  0  0  0  0  0  0  0
   47.6900   27.0570   46.6250 H   0  0  0  0  0  0  0  0  0  0  0  0
   47.8900   27.6640   48.2690 H   0  0  0  0  0  0  0  0  0  0  0  0
   45.8370   26.9730   48.5730 H   0  0  0  0  0  0  0  0  0  0  0  0
   43.9830   28.0010   47.5650 H   0  0  0  0  0  0  0  0  0  0  0  0
   44.9960   29.1790   48.4190 H   0  0  0  0  0  0  0  0  0  0  0  0
   44.2820   29.8300   45.9920 H   0  0  0  0  0  0  0  0  0  0  0  0
   45.1830   28.3550   45.4640 H   0  0  0  0  0  0  0  0  0  0  0  0
   50.7960   31.3880   49.8610 C   0  0  0  0  0  0  0  0  0  0  0  0
   51.0520   31.6360   51.1930 C   0  0  0  0  0  0  0  0  0  0  0  0
   50.2330   31.5750   51.8960 H   0  0  0  0  0  0  0  0  0  0  0  0
   52.3270   31.9500   51.5870 C   0  0  0  0  0  0  0  0  0  0  0  0
   52.4380   32.1310   52.6620 H   0  0  0  0  0  0  0  0  0  0  0  0
   53.4080   32.0430   50.7410 C   0  0  0  0  0  0  0  0  0  0  0  0
   53.1210   31.7910   49.4240 C   0  0  0  0  0  0  0  0  0  0  0  0
   51.8630   31.4750   48.9940 C   0  0  0  0  0  0  0  0  0  0  0  0
   51.6880   31.2850   47.9440 H   0  0  0  0  0  0  0  0  0  0  0  0
   54.4450   31.8830   48.2380 S   0  0  0  0  0  0  0  0  0  0  0  0
   55.9110   32.3120   49.1510 C   0  0  0  0  0  0  0  0  0  0  0  0
   57.0950   32.4510   48.4800 C   0  0  0  0  0  0  0  0  0  0  0  0
   57.1350   32.3020   47.4080 H   0  0  0  0  0  0  0  0  0  0  0  0
   58.2680   32.7820   49.1240 C   0  0  0  0  0  0  0  0  0  0  0  0
   59.2360   32.9090   48.6620 H   0  0  0  0  0  0  0  0  0  0  0  0
   58.2010   32.9700   50.4890 C   0  0  0  0  0  0  0  0  0  0  0  0
   59.0960   33.2300   51.0370 H   0  0  0  0  0  0  0  0  0  0  0  0
   56.9890   32.8200   51.1310 C   0  0  0  0  0  0  0  0  0  0  0  0
   57.0210   32.9870   52.2160 H   0  0  0  0  0  0  0  0  0  0  0  0
   55.8070   32.4900   50.5060 C   0  0  0  0  0  0  0  0  0  0  0  0
   54.6510   32.3770   51.3100 N   0  0  0  0  0  0  0  0  0  0  0  0
   54.7230   32.5420   52.3310 H   0  0  0  0  0  0  0  0  0  0  0  0
  1  5  1  0  0  0  0
  1  2  2  0  0  0  0
  2  6  1  0  0  0  0
  2  3  1  0  0  0  0
  3  7  1  0  0  0  0
  4  3  1  0  0  0  0
  4 31  1  0  0  0  0
  5  4  2  0  0  0  0
  8 20  1  0  0  0  0
  8 13  1  0  0  0  0
  9  8  2  0  0  0  0
 10  9  1  0  0  0  0
 10 11  2  0  0  0  0
 11 12  1  0  0  0  0
 12 13  2  0  0  0  0
 12 14  1  0  0  0  0
 14 15  1  0  0  0  0
 15 23  1  6  0  0  0
 15 16  1  0  0  0  0
 15  1  1  0  0  0  0
 16 17  1  0  0  0  0
 16 25  1  0  0  0  0
 17 26  1  0  0  0  0
 18 27  1  0  0  0  0
 18 17  1  0  0  0  0
 18 28  1  0  0  0  0
 19 14  1  0  0  0  0
 19 18  1  0  0  0  0
 21  9  1  0  0  0  0
 22 10  1  0  0  0  0
 24 16  1  0  0  0  0
 29 19  1  0  0  0  0
 30 19  1  0  0  0  0
 31 32  1  0  0  0  0
 32 34  2  0  0  0  0
 32 33  1  0  0  0  0
 34 35  1  0  0  0  0
 36 51  1  0  0  0  0
 36 34  1  0  0  0  0
 37 36  2  0  0  0  0
 38 37  1  0  0  0  0
 38 31  2  0  0  0  0
 39 38  1  0  0  0  0
 40 41  1  0  0  0  0
 40 37  1  0  0  0  0
 41 50  1  0  0  0  0
 42 44  1  0  0  0  0
 42 41  2  0  0  0  0
 43 42  1  0  0  0  0
 44 46  2  0  0  0  0
 45 44  1  0  0  0  0
 46 47  1  0  0  0  0
 46 48  1  0  0  0  0
 48 49  1  0  0  0  0
 50 48  2  0  0  0  0
 50 51  1  0  0  0  0
 51 52  1  0  0  0  0
M  END
>  <minimizedAffinity>
-5.37178564

>  <minimizedRMSD>
0.968745232

$$$$
