
 OpenBabel03242520403D

 52 57  0  0  1  0  0  0  0  0999 V2000
   48.1520   30.0000   48.0580 C   0  0  0  0  0  0  0  0  0  0  0  0
   47.6630   30.7570   49.1000 C   0  0  0  0  0  0  0  0  0  0  0  0
   48.6470   31.3000   49.8250 N   0  0  0  0  0  0  0  0  0  0  0  0
   49.7770   30.8890   49.2430 C   0  0  0  0  0  0  0  0  0  0  0  0
   49.4850   30.1180   48.1950 N   0  0  0  0  0  0  0  0  0  0  0  0
   46.6110   30.8940   49.3030 H   0  0  0  0  0  0  0  0  0  0  0  0
   48.5680   31.9170   50.6680 H   0  0  0  0  0  0  0  0  0  0  0  0
   45.9650   33.3910   45.6670 C   0  0  0  0  0  0  0  0  0  0  0  0
   46.8030   33.5070   44.5280 C   0  0  0  0  0  0  0  0  0  0  0  0
   47.4820   32.3370   44.0730 C   0  0  0  0  0  0  0  0  0  0  0  0
   47.2950   31.1630   44.7490 N   0  0  0  0  0  0  0  0  0  0  0  0
   46.4810   31.1150   45.8310 C   0  0  0  0  0  0  0  0  0  0  0  0
   45.8290   32.2160   46.2780 N   0  0  0  0  0  0  0  0  0  0  0  0
   46.3540   29.8680   46.4600 N   0  0  0  0  0  0  0  0  0  0  0  0
   47.4940   29.2010   46.9970 C   0  0  2  0  0  0  0  0  0  0  0  0
   47.2580   27.7860   47.3980 C   0  0  0  0  0  0  0  0  0  0  0  0
   45.9570   27.4420   47.8270 N   0  0  0  0  0  0  0  0  0  0  0  0
   45.0470   28.5360   47.8910 C   0  0  0  0  0  0  0  0  0  0  0  0
   45.0490   29.2470   46.5670 C   0  0  0  0  0  0  0  0  0  0  0  0
   45.4790   34.2950   45.9670 H   0  0  0  0  0  0  0  0  0  0  0  0
   46.9810   34.4020   43.9680 H   0  0  0  0  0  0  0  0  0  0  0  0
   48.1240   32.3750   43.2220 H   0  0  0  0  0  0  0  0  0  0  0  0
   48.2280   29.1190   46.1360 H   0  0  0  0  0  0  0  0  0  0  0  0
   47.5650   27.0520   46.6240 H   0  0  0  0  0  0  0  0  0  0  0  0
   47.9590   27.5880   48.2580 H   0  0  0  0  0  0  0  0  0  0  0  0
   45.9270   26.9540   48.7550 H   0  0  0  0  0  0  0  0  0  0  0  0
   44.0150   28.0790   47.9880 H   0  0  0  0  0  0  0  0  0  0  0  0
   45.1550   29.1900   48.7700 H   0  0  0  0  0  0  0  0  0  0  0  0
   44.2120   29.9560   46.4570 H   0  0  0  0  0  0  0  0  0  0  0  0
   44.9980   28.4750   45.7840 H   0  0  0  0  0  0  0  0  0  0  0  0
   51.1520   31.1910   49.6290 C   0  0  0  0  0  0  0  0  0  0  0  0
   51.5290   31.6270   50.8820 C   0  0  0  0  0  0  0  0  0  0  0  0
   50.7650   31.7570   51.6350 H   0  0  0  0  0  0  0  0  0  0  0  0
   52.8520   31.8790   51.1360 C   0  0  0  0  0  0  0  0  0  0  0  0
   53.0610   32.2210   52.1570 H   0  0  0  0  0  0  0  0  0  0  0  0
   53.8680   31.7320   50.2220 C   0  0  0  0  0  0  0  0  0  0  0  0
   53.4620   31.2980   48.9870 C   0  0  0  0  0  0  0  0  0  0  0  0
   52.1530   31.0350   48.6950 C   0  0  0  0  0  0  0  0  0  0  0  0
   51.8820   30.6950   47.7050 H   0  0  0  0  0  0  0  0  0  0  0  0
   54.6930   31.0720   47.7200 S   0  0  0  0  0  0  0  0  0  0  0  0
   56.2550   31.5040   48.4560 C   0  0  0  0  0  0  0  0  0  0  0  0
   57.3910   31.4210   47.6980 C   0  0  0  0  0  0  0  0  0  0  0  0
   57.3360   31.0960   46.6660 H   0  0  0  0  0  0  0  0  0  0  0  0
   58.6330   31.7410   48.2040 C   0  0  0  0  0  0  0  0  0  0  0  0
   59.5700   31.7000   47.6660 H   0  0  0  0  0  0  0  0  0  0  0  0
   58.6870   32.1540   49.5190 C   0  0  0  0  0  0  0  0  0  0  0  0
   59.6410   32.4150   49.9570 H   0  0  0  0  0  0  0  0  0  0  0  0
   57.5200   32.2250   50.2500 C   0  0  0  0  0  0  0  0  0  0  0  0
   57.6500   32.5610   51.2870 H   0  0  0  0  0  0  0  0  0  0  0  0
   56.2710   31.9100   49.7640 C   0  0  0  0  0  0  0  0  0  0  0  0
   55.1760   32.0360   50.6470 N   0  0  0  0  0  0  0  0  0  0  0  0
   55.3380   32.3570   51.6190 H   0  0  0  0  0  0  0  0  0  0  0  0
  1  5  1  0  0  0  0
  1  2  2  0  0  0  0
  2  6  1  0  0  0  0
  2  3  1  0  0  0  0
  3  7  1  0  0  0  0
  4 31  1  0  0  0  0
  4  3  1  0  0  0  0
  5  4  2  0  0  0  0
  8 20  1  0  0  0  0
  8 13  1  0  0  0  0
  9  8  2  0  0  0  0
 10  9  1  0  0  0  0
 10 11  2  0  0  0  0
 11 12  1  0  0  0  0
 12 13  2  0  0  0  0
 12 14  1  0  0  0  0
 14 19  1  0  0  0  0
 14 15  1  0  0  0  0
 15 23  1  6  0  0  0
 15 16  1  0  0  0  0
 15  1  1  0  0  0  0
 16 17  1  0  0  0  0
 16 25  1  0  0  0  0
 17 18  1  0  0  0  0
 17 26  1  0  0  0  0
 18 27  1  0  0  0  0
 18 28  1  0  0  0  0
 19 18  1  0  0  0  0
 21  9  1  0  0  0  0
 22 10  1  0  0  0  0
 24 16  1  0  0  0  0
 29 19  1  0  0  0  0
 30 19  1  0  0  0  0
 31 32  1  0  0  0  0
 32 34  2  0  0  0  0
 32 33  1  0  0  0  0
 34 35  1  0  0  0  0
 36 51  1  0  0  0  0
 36 34  1  0  0  0  0
 37 36  2  0  0  0  0
 38 37  1  0  0  0  0
 38 31  2  0  0  0  0
 39 38  1  0  0  0  0
 40 41  1  0  0  0  0
 40 37  1  0  0  0  0
 41 50  1  0  0  0  0
 42 44  1  0  0  0  0
 42 41  2  0  0  0  0
 43 42  1  0  0  0  0
 44 46  2  0  0  0  0
 45 44  1  0  0  0  0
 46 47  1  0  0  0  0
 46 48  1  0  0  0  0
 48 49  1  0  0  0  0
 50 48  2  0  0  0  0
 50 51  1  0  0  0  0
 51 52  1  0  0  0  0
M  END
>  <minimizedAffinity>
-5.28707886

>  <minimizedRMSD>
0.41531387

$$$$
