
 OpenBabel03242512003D

 60 65  0  0  1  0  0  0  0  0999 V2000
   45.3200   33.3690   40.9770 C   0  0  2  0  0  0  0  0  0  0  0  0
   44.5970   33.3500   39.6430 C   0  0  0  0  0  0  0  0  0  0  0  0
   43.9050   33.8190   40.8550 C   0  0  1  0  0  0  0  0  0  0  0  0
   45.5600   32.3410   41.3360 H   0  0  0  0  0  0  0  0  0  0  0  0
   44.3000   32.3900   39.1860 H   0  0  0  0  0  0  0  0  0  0  0  0
   44.8110   34.1460   38.8930 H   0  0  0  0  0  0  0  0  0  0  0  0
   43.7830   34.9120   41.0600 H   0  0  0  0  0  0  0  0  0  0  0  0
   47.0880   34.1000   42.4540 C   0  0  2  0  0  0  0  0  0  0  0  0
   48.4860   34.6300   42.5890 C   0  0  0  0  0  0  0  0  0  0  0  0
   48.8240   35.6030   41.5310 C   0  0  0  0  0  0  0  0  0  0  0  0
   48.6150   35.0640   40.1360 C   0  0  0  0  0  0  0  0  0  0  0  0
   47.3780   34.2270   39.9950 C   0  0  0  0  0  0  0  0  0  0  0  0
   46.4240   34.3750   41.1570 C   0  0  1  0  0  0  0  0  0  0  0  0
   47.1970   32.9780   42.5600 H   0  0  0  0  0  0  0  0  0  0  0  0
   49.2670   33.8450   42.6150 H   0  0  0  0  0  0  0  0  0  0  0  0
   48.5470   35.1400   43.5710 H   0  0  0  0  0  0  0  0  0  0  0  0
   48.2190   36.5460   41.5950 H   0  0  0  0  0  0  0  0  0  0  0  0
   49.8760   35.9330   41.6200 H   0  0  0  0  0  0  0  0  0  0  0  0
   49.4890   34.4110   39.9030 H   0  0  0  0  0  0  0  0  0  0  0  0
   48.6480   35.9220   39.4360 H   0  0  0  0  0  0  0  0  0  0  0  0
   46.8590   34.5430   39.0680 H   0  0  0  0  0  0  0  0  0  0  0  0
   47.6250   33.1410   39.9150 H   0  0  0  0  0  0  0  0  0  0  0  0
   45.9590   35.3630   41.0310 H   0  0  0  0  0  0  0  0  0  0  0  0
   46.2160   34.4980   43.5760 C   0  0  0  0  0  0  0  0  0  0  0  0
   45.5660   35.7010   43.3590 C   0  0  0  0  0  0  0  0  0  0  0  0
   44.6950   36.2110   44.3370 C   0  0  0  0  0  0  0  0  0  0  0  0
   44.5580   35.4250   45.4880 N   0  0  0  0  0  0  0  0  0  0  0  0
   45.2140   34.2580   45.6490 C   0  0  0  0  0  0  0  0  0  0  0  0
   46.0380   33.8110   44.6850 N   0  0  0  0  0  0  0  0  0  0  0  0
   45.5420   36.4420   42.5740 H   0  0  0  0  0  0  0  0  0  0  0  0
   44.1140   37.0950   44.3640 H   0  0  0  0  0  0  0  0  0  0  0  0
   45.0430   33.7180   46.5780 H   0  0  0  0  0  0  0  0  0  0  0  0
   42.9610   32.9680   41.6550 C   0  0  0  0  0  0  0  0  0  0  0  0
   42.5200   33.6070   42.4480 H   0  0  0  0  0  0  0  0  0  0  0  0
   43.5540   32.1870   42.1720 H   0  0  0  0  0  0  0  0  0  0  0  0
   41.8410   32.3820   40.8350 C   0  0  0  0  0  0  0  0  0  0  0  0
   42.0130   32.4460   39.7600 H   0  0  0  0  0  0  0  0  0  0  0  0
   40.9050   32.9210   41.0630 H   0  0  0  0  0  0  0  0  0  0  0  0
   41.6430   30.9820   41.2930 C   0  0  0  0  0  0  0  0  0  0  0  0
   41.5960   29.9660   40.3620 C   0  0  0  0  0  0  0  0  0  0  0  0
   41.7040   30.1970   39.3160 H   0  0  0  0  0  0  0  0  0  0  0  0
   41.4110   28.6750   40.8110 C   0  0  0  0  0  0  0  0  0  0  0  0
   41.3850   27.9260   40.0220 H   0  0  0  0  0  0  0  0  0  0  0  0
   41.2670   28.3060   42.1320 C   0  0  0  0  0  0  0  0  0  0  0  0
   41.3200   29.3450   43.0150 C   0  0  0  0  0  0  0  0  0  0  0  0
   41.5010   30.6380   42.6210 C   0  0  0  0  0  0  0  0  0  0  0  0
   41.5360   31.4370   43.3610 H   0  0  0  0  0  0  0  0  0  0  0  0
   41.1460   28.9920   44.7500 S   0  0  0  0  0  0  0  0  0  0  0  0
   40.9290   27.2280   44.8930 C   0  0  0  0  0  0  0  0  0  0  0  0
   40.7710   26.6750   46.1150 C   0  0  0  0  0  0  0  0  0  0  0  0
   40.7790   27.3270   46.9980 H   0  0  0  0  0  0  0  0  0  0  0  0
   40.5990   25.3210   46.3000 C   0  0  0  0  0  0  0  0  0  0  0  0
   40.4690   24.8380   47.2480 H   0  0  0  0  0  0  0  0  0  0  0  0
   40.5930   24.5260   45.1700 C   0  0  0  0  0  0  0  0  0  0  0  0
   40.4630   23.4720   45.2710 H   0  0  0  0  0  0  0  0  0  0  0  0
   40.7600   25.1370   43.9390 C   0  0  0  0  0  0  0  0  0  0  0  0
   40.7440   24.4450   43.0930 H   0  0  0  0  0  0  0  0  0  0  0  0
   40.9320   26.4900   43.7350 C   0  0  0  0  0  0  0  0  0  0  0  0
   41.0880   26.9510   42.4130 N   0  0  0  0  0  0  0  0  0  0  0  0
   41.0660   26.2560   41.6380 H   0  0  0  0  0  0  0  0  0  0  0  0
  1 13  1  0  0  0  0
  1  4  1  1  0  0  0
  2  3  1  0  0  0  0
  2  1  1  0  0  0  0
  3  1  1  0  0  0  0
  3  7  1  1  0  0  0
  3 33  1  0  0  0  0
  5  2  1  0  0  0  0
  6  2  1  0  0  0  0
  8 14  1  1  0  0  0
  8  9  1  0  0  0  0
  8 24  1  0  0  0  0
  9 15  1  0  0  0  0
  9 16  1  0  0  0  0
 10 17  1  0  0  0  0
 10 18  1  0  0  0  0
 10  9  1  0  0  0  0
 11 10  1  0  0  0  0
 12 11  1  0  0  0  0
 12 13  1  0  0  0  0
 13 23  1  1  0  0  0
 13  8  1  0  0  0  0
 19 11  1  0  0  0  0
 20 11  1  0  0  0  0
 21 12  1  0  0  0  0
 22 12  1  0  0  0  0
 24 29  1  0  0  0  0
 25 24  2  0  0  0  0
 25 26  1  0  0  0  0
 26 31  1  0  0  0  0
 26 27  2  0  0  0  0
 27 28  1  0  0  0  0
 28 32  1  0  0  0  0
 29 28  2  0  0  0  0
 30 25  1  0  0  0  0
 33 35  1  0  0  0  0
 33 34  1  0  0  0  0
 36 38  1  0  0  0  0
 36 39  1  0  0  0  0
 36 33  1  0  0  0  0
 37 36  1  0  0  0  0
 39 46  1  0  0  0  0
 40 42  1  0  0  0  0
 40 39  2  0  0  0  0
 41 40  1  0  0  0  0
 42 44  2  0  0  0  0
 43 42  1  0  0  0  0
 44 59  1  0  0  0  0
 44 45  1  0  0  0  0
 45 48  1  0  0  0  0
 46 45  2  0  0  0  0
 46 47  1  0  0  0  0
 48 49  1  0  0  0  0
 49 50  1  0  0  0  0
 50 52  2  0  0  0  0
 50 51  1  0  0  0  0
 52 53  1  0  0  0  0
 54 55  1  0  0  0  0
 54 52  1  0  0  0  0
 56 54  2  0  0  0  0
 57 56  1  0  0  0  0
 58 56  1  0  0  0  0
 58 49  2  0  0  0  0
 59 58  1  0  0  0  0
 60 59  1  0  0  0  0
M  END
>  <minimizedAffinity>
-6.81684303

>  <minimizedRMSD>
2.56178546

$$$$
