
 OpenBabel03242520403D

 52 57  0  0  1  0  0  0  0  0999 V2000
   48.1340   30.0720   48.0210 C   0  0  0  0  0  0  0  0  0  0  0  0
   47.6980   30.8850   49.0450 C   0  0  0  0  0  0  0  0  0  0  0  0
   48.7160   31.3740   49.7600 N   0  0  0  0  0  0  0  0  0  0  0  0
   49.8160   30.8720   49.1900 C   0  0  0  0  0  0  0  0  0  0  0  0
   49.4710   30.0990   48.1590 N   0  0  0  0  0  0  0  0  0  0  0  0
   46.6580   31.0990   49.2420 H   0  0  0  0  0  0  0  0  0  0  0  0
   48.6800   32.0140   50.5890 H   0  0  0  0  0  0  0  0  0  0  0  0
   45.8740   33.5230   45.7890 C   0  0  0  0  0  0  0  0  0  0  0  0
   46.6610   33.6530   44.6160 C   0  0  0  0  0  0  0  0  0  0  0  0
   47.3090   32.4850   44.1120 C   0  0  0  0  0  0  0  0  0  0  0  0
   47.1420   31.3010   44.7740 N   0  0  0  0  0  0  0  0  0  0  0  0
   46.3760   31.2410   45.8900 C   0  0  0  0  0  0  0  0  0  0  0  0
   45.7540   32.3390   46.3850 N   0  0  0  0  0  0  0  0  0  0  0  0
   46.2660   29.9840   46.5020 N   0  0  0  0  0  0  0  0  0  0  0  0
   47.4220   29.2980   46.9770 C   0  0  2  0  0  0  0  0  0  0  0  0
   47.1920   27.8780   47.3630 C   0  0  0  0  0  0  0  0  0  0  0  0
   45.9080   27.5370   47.8430 N   0  0  0  0  0  0  0  0  0  0  0  0
   45.0110   28.6360   47.9660 C   0  0  0  0  0  0  0  0  0  0  0  0
   44.9610   29.3720   46.6560 C   0  0  0  0  0  0  0  0  0  0  0  0
   45.4090   34.4260   46.1260 H   0  0  0  0  0  0  0  0  0  0  0  0
   46.8220   34.5560   44.0640 H   0  0  0  0  0  0  0  0  0  0  0  0
   47.9130   32.5330   43.2330 H   0  0  0  0  0  0  0  0  0  0  0  0
   48.1170   29.2250   46.0830 H   0  0  0  0  0  0  0  0  0  0  0  0
   47.4570   27.1560   46.5640 H   0  0  0  0  0  0  0  0  0  0  0  0
   47.9280   27.6590   48.1870 H   0  0  0  0  0  0  0  0  0  0  0  0
   45.9140   27.0320   48.7630 H   0  0  0  0  0  0  0  0  0  0  0  0
   43.9800   28.1870   48.1010 H   0  0  0  0  0  0  0  0  0  0  0  0
   45.1640   29.2740   48.8500 H   0  0  0  0  0  0  0  0  0  0  0  0
   44.1260   30.0890   46.5950 H   0  0  0  0  0  0  0  0  0  0  0  0
   44.8690   28.6140   45.8630 H   0  0  0  0  0  0  0  0  0  0  0  0
   51.2070   31.0850   49.5730 C   0  0  0  0  0  0  0  0  0  0  0  0
   51.6070   31.7800   50.6950 C   0  0  0  0  0  0  0  0  0  0  0  0
   50.8470   32.1990   51.3410 H   0  0  0  0  0  0  0  0  0  0  0  0
   52.9440   31.9190   50.9600 C   0  0  0  0  0  0  0  0  0  0  0  0
   53.1700   32.4860   51.8710 H   0  0  0  0  0  0  0  0  0  0  0  0
   53.9560   31.4110   50.1780 C   0  0  0  0  0  0  0  0  0  0  0  0
   53.5270   30.7260   49.0710 C   0  0  0  0  0  0  0  0  0  0  0  0
   52.2020   30.5660   48.7740 C   0  0  0  0  0  0  0  0  0  0  0  0
   51.9140   30.0170   47.8880 H   0  0  0  0  0  0  0  0  0  0  0  0
   54.7490   30.0220   47.9840 S   0  0  0  0  0  0  0  0  0  0  0  0
   56.3350   30.4280   48.6820 C   0  0  0  0  0  0  0  0  0  0  0  0
   57.4690   30.0060   48.0420 C   0  0  0  0  0  0  0  0  0  0  0  0
   57.3980   29.4340   47.1260 H   0  0  0  0  0  0  0  0  0  0  0  0
   58.7290   30.2860   48.5280 C   0  0  0  0  0  0  0  0  0  0  0  0
   59.6650   29.9870   48.0790 H   0  0  0  0  0  0  0  0  0  0  0  0
   58.8040   31.0150   49.6960 C   0  0  0  0  0  0  0  0  0  0  0  0
   59.7710   31.2570   50.1120 H   0  0  0  0  0  0  0  0  0  0  0  0
   57.6380   31.4220   50.3100 C   0  0  0  0  0  0  0  0  0  0  0  0
   57.7850   31.9980   51.2340 H   0  0  0  0  0  0  0  0  0  0  0  0
   56.3710   31.1540   49.8430 C   0  0  0  0  0  0  0  0  0  0  0  0
   55.2800   31.6460   50.5930 N   0  0  0  0  0  0  0  0  0  0  0  0
   55.4590   32.1850   51.4610 H   0  0  0  0  0  0  0  0  0  0  0  0
  1  5  1  0  0  0  0
  1  2  2  0  0  0  0
  2  6  1  0  0  0  0
  2  3  1  0  0  0  0
  3  7  1  0  0  0  0
  4 31  1  0  0  0  0
  4  3  1  0  0  0  0
  5  4  2  0  0  0  0
  8 20  1  0  0  0  0
  8 13  1  0  0  0  0
  9  8  2  0  0  0  0
 10  9  1  0  0  0  0
 10 11  2  0  0  0  0
 11 12  1  0  0  0  0
 12 13  2  0  0  0  0
 12 14  1  0  0  0  0
 14 19  1  0  0  0  0
 14 15  1  0  0  0  0
 15 23  1  6  0  0  0
 15 16  1  0  0  0  0
 15  1  1  0  0  0  0
 16 17  1  0  0  0  0
 16 25  1  0  0  0  0
 17 18  1  0  0  0  0
 17 26  1  0  0  0  0
 18 27  1  0  0  0  0
 18 28  1  0  0  0  0
 19 18  1  0  0  0  0
 21  9  1  0  0  0  0
 22 10  1  0  0  0  0
 24 16  1  0  0  0  0
 29 19  1  0  0  0  0
 30 19  1  0  0  0  0
 31 32  1  0  0  0  0
 32 34  2  0  0  0  0
 32 33  1  0  0  0  0
 34 35  1  0  0  0  0
 36 51  1  0  0  0  0
 36 34  1  0  0  0  0
 37 36  2  0  0  0  0
 38 37  1  0  0  0  0
 38 31  2  0  0  0  0
 39 38  1  0  0  0  0
 40 41  1  0  0  0  0
 40 37  1  0  0  0  0
 41 50  1  0  0  0  0
 42 44  1  0  0  0  0
 42 41  2  0  0  0  0
 43 42  1  0  0  0  0
 44 46  2  0  0  0  0
 45 44  1  0  0  0  0
 46 47  1  0  0  0  0
 46 48  1  0  0  0  0
 48 49  1  0  0  0  0
 50 48  2  0  0  0  0
 50 51  1  0  0  0  0
 51 52  1  0  0  0  0
M  END
>  <minimizedAffinity>
-5.23671341

>  <minimizedRMSD>
0.275020093

$$$$
