
 OpenBabel03242520403D

 52 57  0  0  1  0  0  0  0  0999 V2000
   48.1890   30.0290   48.0080 C   0  0  0  0  0  0  0  0  0  0  0  0
   47.4850   30.8960   48.8150 C   0  0  0  0  0  0  0  0  0  0  0  0
   48.2860   31.5380   49.6720 N   0  0  0  0  0  0  0  0  0  0  0  0
   49.5140   31.0810   49.4120 C   0  0  0  0  0  0  0  0  0  0  0  0
   49.4570   30.1850   48.4250 N   0  0  0  0  0  0  0  0  0  0  0  0
   46.4160   31.0370   48.7580 H   0  0  0  0  0  0  0  0  0  0  0  0
   48.0250   32.2490   50.3950 H   0  0  0  0  0  0  0  0  0  0  0  0
   46.0430   33.0010   45.0830 C   0  0  0  0  0  0  0  0  0  0  0  0
   47.0230   33.1410   44.0660 C   0  0  0  0  0  0  0  0  0  0  0  0
   47.8770   32.0280   43.8020 C   0  0  0  0  0  0  0  0  0  0  0  0
   47.7130   30.8840   44.5320 N   0  0  0  0  0  0  0  0  0  0  0  0
   46.7580   30.8120   45.4910 C   0  0  0  0  0  0  0  0  0  0  0  0
   45.9380   31.8590   45.7570 N   0  0  0  0  0  0  0  0  0  0  0  0
   46.6680   29.6000   46.1890 N   0  0  0  0  0  0  0  0  0  0  0  0
   47.7780   29.0980   46.9300 C   0  0  2  0  0  0  0  0  0  0  0  0
   47.6310   27.6930   47.4010 C   0  0  0  0  0  0  0  0  0  0  0  0
   46.3230   27.2320   47.6690 N   0  0  0  0  0  0  0  0  0  0  0  0
   45.3060   28.2190   47.5210 C   0  0  0  0  0  0  0  0  0  0  0  0
   45.4310   28.8440   46.1610 C   0  0  0  0  0  0  0  0  0  0  0  0
   45.4290   33.8630   45.2420 H   0  0  0  0  0  0  0  0  0  0  0  0
   47.1890   34.0140   43.4700 H   0  0  0  0  0  0  0  0  0  0  0  0
   48.6300   32.0850   43.0470 H   0  0  0  0  0  0  0  0  0  0  0  0
   48.6350   29.0460   46.1880 H   0  0  0  0  0  0  0  0  0  0  0  0
   48.1210   26.9520   46.7360 H   0  0  0  0  0  0  0  0  0  0  0  0
   48.2150   27.6270   48.3630 H   0  0  0  0  0  0  0  0  0  0  0  0
   46.2060   26.8010   48.6190 H   0  0  0  0  0  0  0  0  0  0  0  0
   44.3230   27.6570   47.5080 H   0  0  0  0  0  0  0  0  0  0  0  0
   45.2170   28.9340   48.3540 H   0  0  0  0  0  0  0  0  0  0  0  0
   44.5510   29.4480   45.8810 H   0  0  0  0  0  0  0  0  0  0  0  0
   45.5740   28.0250   45.4400 H   0  0  0  0  0  0  0  0  0  0  0  0
   50.7690   31.4500   50.0580 C   0  0  0  0  0  0  0  0  0  0  0  0
   51.9810   31.5430   49.4050 C   0  0  0  0  0  0  0  0  0  0  0  0
   52.0130   31.3300   48.3450 H   0  0  0  0  0  0  0  0  0  0  0  0
   53.1000   31.8980   50.1100 C   0  0  0  0  0  0  0  0  0  0  0  0
   54.0170   31.9470   49.5120 H   0  0  0  0  0  0  0  0  0  0  0  0
   53.1220   32.1790   51.4570 C   0  0  0  0  0  0  0  0  0  0  0  0
   51.9030   32.0780   52.0780 C   0  0  0  0  0  0  0  0  0  0  0  0
   50.7660   31.7260   51.4070 C   0  0  0  0  0  0  0  0  0  0  0  0
   49.8270   31.6610   51.9420 H   0  0  0  0  0  0  0  0  0  0  0  0
   51.8110   32.4200   53.8220 S   0  0  0  0  0  0  0  0  0  0  0  0
   53.4620   32.8370   54.3420 C   0  0  0  0  0  0  0  0  0  0  0  0
   53.6850   33.1490   55.6550 C   0  0  0  0  0  0  0  0  0  0  0  0
   52.8670   33.1420   56.3640 H   0  0  0  0  0  0  0  0  0  0  0  0
   54.9390   33.4810   56.1240 C   0  0  0  0  0  0  0  0  0  0  0  0
   55.1890   33.7390   57.1430 H   0  0  0  0  0  0  0  0  0  0  0  0
   55.9700   33.4860   55.2090 C   0  0  0  0  0  0  0  0  0  0  0  0
   56.9690   33.7410   55.5330 H   0  0  0  0  0  0  0  0  0  0  0  0
   55.7040   33.1660   53.8940 C   0  0  0  0  0  0  0  0  0  0  0  0
   56.5790   33.1940   53.2310 H   0  0  0  0  0  0  0  0  0  0  0  0
   54.4620   32.8320   53.4050 C   0  0  0  0  0  0  0  0  0  0  0  0
   54.3600   32.5290   52.0290 N   0  0  0  0  0  0  0  0  0  0  0  0
   55.2090   32.5670   51.4340 H   0  0  0  0  0  0  0  0  0  0  0  0
  1  5  1  0  0  0  0
  1  2  2  0  0  0  0
  2  3  1  0  0  0  0
  3  7  1  0  0  0  0
  4  3  1  0  0  0  0
  4 31  1  0  0  0  0
  5  4  2  0  0  0  0
  6  2  1  0  0  0  0
  8 20  1  0  0  0  0
  8 13  1  0  0  0  0
  9  8  2  0  0  0  0
 10  9  1  0  0  0  0
 10 11  2  0  0  0  0
 11 12  1  0  0  0  0
 12 13  2  0  0  0  0
 12 14  1  0  0  0  0
 14 15  1  0  0  0  0
 15 23  1  6  0  0  0
 15 16  1  0  0  0  0
 15  1  1  0  0  0  0
 16 17  1  0  0  0  0
 16 25  1  0  0  0  0
 17 26  1  0  0  0  0
 18 17  1  0  0  0  0
 18 28  1  0  0  0  0
 19 14  1  0  0  0  0
 19 18  1  0  0  0  0
 21  9  1  0  0  0  0
 22 10  1  0  0  0  0
 24 16  1  0  0  0  0
 27 18  1  0  0  0  0
 29 19  1  0  0  0  0
 30 19  1  0  0  0  0
 31 38  1  0  0  0  0
 32 31  2  0  0  0  0
 32 34  1  0  0  0  0
 33 32  1  0  0  0  0
 34 36  2  0  0  0  0
 35 34  1  0  0  0  0
 36 51  1  0  0  0  0
 36 37  1  0  0  0  0
 37 40  1  0  0  0  0
 38 39  1  0  0  0  0
 38 37  2  0  0  0  0
 40 41  1  0  0  0  0
 41 42  1  0  0  0  0
 42 44  2  0  0  0  0
 42 43  1  0  0  0  0
 44 45  1  0  0  0  0
 46 47  1  0  0  0  0
 46 44  1  0  0  0  0
 48 46  2  0  0  0  0
 49 48  1  0  0  0  0
 50 48  1  0  0  0  0
 50 41  2  0  0  0  0
 51 50  1  0  0  0  0
 52 51  1  0  0  0  0
M  END
>  <minimizedAffinity>
-6.36669588

>  <minimizedRMSD>
1.51797521

$$$$
