
 OpenBabel03242520403D

 52 57  0  0  1  0  0  0  0  0999 V2000
   47.9250   30.1290   47.8000 C   0  0  0  0  0  0  0  0  0  0  0  0
   47.2660   30.9120   48.7220 C   0  0  0  0  0  0  0  0  0  0  0  0
   48.1090   31.4620   49.6020 N   0  0  0  0  0  0  0  0  0  0  0  0
   49.3210   31.0300   49.2410 C   0  0  0  0  0  0  0  0  0  0  0  0
   49.2120   30.2390   48.1730 N   0  0  0  0  0  0  0  0  0  0  0  0
   46.1960   31.0620   48.7290 H   0  0  0  0  0  0  0  0  0  0  0  0
   47.8880   32.0970   50.4050 H   0  0  0  0  0  0  0  0  0  0  0  0
   46.0650   33.4650   45.0780 C   0  0  0  0  0  0  0  0  0  0  0  0
   47.0680   33.5990   44.0840 C   0  0  0  0  0  0  0  0  0  0  0  0
   47.8350   32.4430   43.7470 C   0  0  0  0  0  0  0  0  0  0  0  0
   47.5710   31.2660   44.3910 N   0  0  0  0  0  0  0  0  0  0  0  0
   46.5980   31.2020   45.3330 C   0  0  0  0  0  0  0  0  0  0  0  0
   45.8600   32.2890   45.6670 N   0  0  0  0  0  0  0  0  0  0  0  0
   46.4030   29.9540   45.9410 N   0  0  0  0  0  0  0  0  0  0  0  0
   47.4590   29.3140   46.6530 C   0  0  2  0  0  0  0  0  0  0  0  0
   47.1950   27.8940   47.0200 C   0  0  0  0  0  0  0  0  0  0  0  0
   45.8510   27.5220   47.2420 N   0  0  0  0  0  0  0  0  0  0  0  0
   44.9170   28.5940   47.1570 C   0  0  0  0  0  0  0  0  0  0  0  0
   45.1110   29.3040   45.8460 C   0  0  0  0  0  0  0  0  0  0  0  0
   45.5170   34.3590   45.2940 H   0  0  0  0  0  0  0  0  0  0  0  0
   47.3110   34.4970   43.5540 H   0  0  0  0  0  0  0  0  0  0  0  0
   48.6020   32.4940   43.0060 H   0  0  0  0  0  0  0  0  0  0  0  0
   48.3200   29.2470   45.9180 H   0  0  0  0  0  0  0  0  0  0  0  0
   47.6350   27.1670   46.3080 H   0  0  0  0  0  0  0  0  0  0  0  0
   47.7570   27.7140   47.9800 H   0  0  0  0  0  0  0  0  0  0  0  0
   45.6860   27.0340   48.1570 H   0  0  0  0  0  0  0  0  0  0  0  0
   43.8930   28.1150   47.0930 H   0  0  0  0  0  0  0  0  0  0  0  0
   44.8720   29.2530   48.0380 H   0  0  0  0  0  0  0  0  0  0  0  0
   44.2860   29.9930   45.6020 H   0  0  0  0  0  0  0  0  0  0  0  0
   45.2000   28.5290   45.0690 H   0  0  0  0  0  0  0  0  0  0  0  0
   50.6070   31.3280   49.8620 C   0  0  0  0  0  0  0  0  0  0  0  0
   51.8140   31.3040   49.1970 C   0  0  0  0  0  0  0  0  0  0  0  0
   51.8200   31.0490   48.1460 H   0  0  0  0  0  0  0  0  0  0  0  0
   52.9660   31.6000   49.8800 C   0  0  0  0  0  0  0  0  0  0  0  0
   53.8780   31.5570   49.2720 H   0  0  0  0  0  0  0  0  0  0  0  0
   53.0220   31.9310   51.2140 C   0  0  0  0  0  0  0  0  0  0  0  0
   51.8070   31.9460   51.8470 C   0  0  0  0  0  0  0  0  0  0  0  0
   50.6380   31.6560   51.2000 C   0  0  0  0  0  0  0  0  0  0  0  0
   49.7030   31.6810   51.7440 H   0  0  0  0  0  0  0  0  0  0  0  0
   51.7570   32.3610   53.5780 S   0  0  0  0  0  0  0  0  0  0  0  0
   53.4410   32.6720   54.0680 C   0  0  0  0  0  0  0  0  0  0  0  0
   53.7010   33.0170   55.3660 C   0  0  0  0  0  0  0  0  0  0  0  0
   52.8920   33.0990   56.0820 H   0  0  0  0  0  0  0  0  0  0  0  0
   54.9800   33.2710   55.8120 C   0  0  0  0  0  0  0  0  0  0  0  0
   55.2600   33.5480   56.8190 H   0  0  0  0  0  0  0  0  0  0  0  0
   56.0000   33.1640   54.8900 C   0  0  0  0  0  0  0  0  0  0  0  0
   57.0180   33.3540   55.1960 H   0  0  0  0  0  0  0  0  0  0  0  0
   55.6970   32.8140   53.5910 C   0  0  0  0  0  0  0  0  0  0  0  0
   56.5640   32.7490   52.9200 H   0  0  0  0  0  0  0  0  0  0  0  0
   54.4270   32.5550   53.1250 C   0  0  0  0  0  0  0  0  0  0  0  0
   54.2890   32.2090   51.7620 N   0  0  0  0  0  0  0  0  0  0  0  0
   55.1330   32.1590   51.1610 H   0  0  0  0  0  0  0  0  0  0  0  0
  1  5  1  0  0  0  0
  1  2  2  0  0  0  0
  2  6  1  0  0  0  0
  2  3  1  0  0  0  0
  3  7  1  0  0  0  0
  4  3  1  0  0  0  0
  4 31  1  0  0  0  0
  5  4  2  0  0  0  0
  8 20  1  0  0  0  0
  8 13  1  0  0  0  0
  9  8  2  0  0  0  0
 10  9  1  0  0  0  0
 10 11  2  0  0  0  0
 11 12  1  0  0  0  0
 12 13  2  0  0  0  0
 12 14  1  0  0  0  0
 14 15  1  0  0  0  0
 15 23  1  6  0  0  0
 15 16  1  0  0  0  0
 15  1  1  0  0  0  0
 16 17  1  0  0  0  0
 16 25  1  0  0  0  0
 17 26  1  0  0  0  0
 18 17  1  0  0  0  0
 18 28  1  0  0  0  0
 19 14  1  0  0  0  0
 19 18  1  0  0  0  0
 21  9  1  0  0  0  0
 22 10  1  0  0  0  0
 24 16  1  0  0  0  0
 27 18  1  0  0  0  0
 29 19  1  0  0  0  0
 30 19  1  0  0  0  0
 31 38  1  0  0  0  0
 32 31  2  0  0  0  0
 32 34  1  0  0  0  0
 33 32  1  0  0  0  0
 34 36  2  0  0  0  0
 35 34  1  0  0  0  0
 36 51  1  0  0  0  0
 36 37  1  0  0  0  0
 37 40  1  0  0  0  0
 38 39  1  0  0  0  0
 38 37  2  0  0  0  0
 40 41  1  0  0  0  0
 41 42  1  0  0  0  0
 42 44  2  0  0  0  0
 42 43  1  0  0  0  0
 44 45  1  0  0  0  0
 46 47  1  0  0  0  0
 46 44  1  0  0  0  0
 48 46  2  0  0  0  0
 49 48  1  0  0  0  0
 50 48  1  0  0  0  0
 50 41  2  0  0  0  0
 51 50  1  0  0  0  0
 52 51  1  0  0  0  0
M  END
>  <minimizedAffinity>
-6.34193993

>  <minimizedRMSD>
1.35453796

$$$$
