
 OpenBabel03242520403D

 52 57  0  0  1  0  0  0  0  0999 V2000
   48.1350   30.1050   48.0430 C   0  0  0  0  0  0  0  0  0  0  0  0
   47.6750   30.7200   49.1870 C   0  0  0  0  0  0  0  0  0  0  0  0
   48.6630   31.3190   49.8610 N   0  0  0  0  0  0  0  0  0  0  0  0
   49.7660   31.0870   49.1430 C   0  0  0  0  0  0  0  0  0  0  0  0
   49.4540   30.3670   48.0650 N   0  0  0  0  0  0  0  0  0  0  0  0
   46.6410   30.7170   49.4980 H   0  0  0  0  0  0  0  0  0  0  0  0
   48.6040   31.8580   50.7570 H   0  0  0  0  0  0  0  0  0  0  0  0
   45.8440   33.5050   45.7660 C   0  0  0  0  0  0  0  0  0  0  0  0
   46.6530   33.6540   44.6100 C   0  0  0  0  0  0  0  0  0  0  0  0
   47.3370   32.5020   44.1190 C   0  0  0  0  0  0  0  0  0  0  0  0
   47.1830   31.3130   44.7770 N   0  0  0  0  0  0  0  0  0  0  0  0
   46.3950   31.2350   45.8770 C   0  0  0  0  0  0  0  0  0  0  0  0
   45.7390   32.3180   46.3590 N   0  0  0  0  0  0  0  0  0  0  0  0
   46.3010   29.9750   46.4860 N   0  0  0  0  0  0  0  0  0  0  0  0
   47.4630   29.3150   46.9840 C   0  0  2  0  0  0  0  0  0  0  0  0
   47.2570   27.8900   47.3650 C   0  0  0  0  0  0  0  0  0  0  0  0
   45.9710   27.5190   47.8180 N   0  0  0  0  0  0  0  0  0  0  0  0
   45.0470   28.5990   47.9230 C   0  0  0  0  0  0  0  0  0  0  0  0
   45.0080   29.3340   46.6130 C   0  0  0  0  0  0  0  0  0  0  0  0
   45.3530   34.3970   46.0940 H   0  0  0  0  0  0  0  0  0  0  0  0
   46.8040   34.5610   44.0620 H   0  0  0  0  0  0  0  0  0  0  0  0
   47.9580   32.5640   43.2530 H   0  0  0  0  0  0  0  0  0  0  0  0
   48.1770   29.2590   46.1040 H   0  0  0  0  0  0  0  0  0  0  0  0
   47.5550   27.1750   46.5710 H   0  0  0  0  0  0  0  0  0  0  0  0
   47.9810   27.6870   48.2040 H   0  0  0  0  0  0  0  0  0  0  0  0
   45.9700   27.0140   48.7380 H   0  0  0  0  0  0  0  0  0  0  0  0
   44.0240   28.1260   48.0360 H   0  0  0  0  0  0  0  0  0  0  0  0
   45.1670   29.2390   48.8110 H   0  0  0  0  0  0  0  0  0  0  0  0
   44.1580   30.0320   46.5350 H   0  0  0  0  0  0  0  0  0  0  0  0
   44.9490   28.5750   45.8180 H   0  0  0  0  0  0  0  0  0  0  0  0
   51.1310   31.5180   49.4240 C   0  0  0  0  0  0  0  0  0  0  0  0
   51.4580   32.6710   50.1060 C   0  0  0  0  0  0  0  0  0  0  0  0
   50.6580   33.3050   50.4610 H   0  0  0  0  0  0  0  0  0  0  0  0
   52.7770   32.9790   50.3150 C   0  0  0  0  0  0  0  0  0  0  0  0
   52.9440   33.9130   50.8650 H   0  0  0  0  0  0  0  0  0  0  0  0
   53.8380   32.2130   49.8890 C   0  0  0  0  0  0  0  0  0  0  0  0
   53.4820   31.0750   49.2150 C   0  0  0  0  0  0  0  0  0  0  0  0
   52.1770   30.7340   48.9880 C   0  0  0  0  0  0  0  0  0  0  0  0
   51.9470   29.8240   48.4500 H   0  0  0  0  0  0  0  0  0  0  0  0
   54.7730   30.0050   48.6160 S   0  0  0  0  0  0  0  0  0  0  0  0
   56.3120   30.7610   49.0900 C   0  0  0  0  0  0  0  0  0  0  0  0
   57.4860   30.1440   48.7540 C   0  0  0  0  0  0  0  0  0  0  0  0
   57.4740   29.2100   48.2060 H   0  0  0  0  0  0  0  0  0  0  0  0
   58.7140   30.6750   49.0910 C   0  0  0  0  0  0  0  0  0  0  0  0
   59.6780   30.2460   48.8600 H   0  0  0  0  0  0  0  0  0  0  0  0
   58.7130   31.8650   49.7880 C   0  0  0  0  0  0  0  0  0  0  0  0
   59.6530   32.3170   50.0720 H   0  0  0  0  0  0  0  0  0  0  0  0
   57.5090   32.4550   50.1080 C   0  0  0  0  0  0  0  0  0  0  0  0
   57.5950   33.4000   50.6630 H   0  0  0  0  0  0  0  0  0  0  0  0
   56.2730   31.9430   49.7820 C   0  0  0  0  0  0  0  0  0  0  0  0
   55.1340   32.6750   50.1870 N   0  0  0  0  0  0  0  0  0  0  0  0
   55.2580   33.5620   50.7090 H   0  0  0  0  0  0  0  0  0  0  0  0
  1  5  1  0  0  0  0
  1  2  2  0  0  0  0
  2  6  1  0  0  0  0
  2  3  1  0  0  0  0
  3  7  1  0  0  0  0
  4 31  1  0  0  0  0
  4  3  1  0  0  0  0
  5  4  2  0  0  0  0
  8 20  1  0  0  0  0
  8 13  1  0  0  0  0
  9  8  2  0  0  0  0
 10  9  1  0  0  0  0
 10 11  2  0  0  0  0
 11 12  1  0  0  0  0
 12 13  2  0  0  0  0
 12 14  1  0  0  0  0
 14 19  1  0  0  0  0
 14 15  1  0  0  0  0
 15 23  1  6  0  0  0
 15 16  1  0  0  0  0
 15  1  1  0  0  0  0
 16 17  1  0  0  0  0
 16 25  1  0  0  0  0
 17 18  1  0  0  0  0
 17 26  1  0  0  0  0
 18 27  1  0  0  0  0
 18 28  1  0  0  0  0
 19 18  1  0  0  0  0
 21  9  1  0  0  0  0
 22 10  1  0  0  0  0
 24 16  1  0  0  0  0
 29 19  1  0  0  0  0
 30 19  1  0  0  0  0
 31 32  1  0  0  0  0
 32 34  2  0  0  0  0
 32 33  1  0  0  0  0
 34 35  1  0  0  0  0
 36 51  1  0  0  0  0
 36 34  1  0  0  0  0
 37 36  2  0  0  0  0
 38 37  1  0  0  0  0
 38 31  2  0  0  0  0
 39 38  1  0  0  0  0
 40 41  1  0  0  0  0
 40 37  1  0  0  0  0
 41 50  1  0  0  0  0
 42 41  2  0  0  0  0
 42 44  1  0  0  0  0
 43 42  1  0  0  0  0
 44 46  2  0  0  0  0
 45 44  1  0  0  0  0
 46 47  1  0  0  0  0
 46 48  1  0  0  0  0
 48 49  1  0  0  0  0
 50 48  2  0  0  0  0
 50 51  1  0  0  0  0
 51 52  1  0  0  0  0
M  END
>  <minimizedAffinity>
-5.29952526

>  <minimizedRMSD>
0.796448886

$$$$
