
 OpenBabel03242520403D

 52 57  0  0  1  0  0  0  0  0999 V2000
   48.0610   30.0460   47.9900 C   0  0  0  0  0  0  0  0  0  0  0  0
   47.5010   30.7220   49.0530 C   0  0  0  0  0  0  0  0  0  0  0  0
   48.4260   31.3490   49.7870 N   0  0  0  0  0  0  0  0  0  0  0  0
   49.5900   31.0750   49.1900 C   0  0  0  0  0  0  0  0  0  0  0  0
   49.3740   30.3010   48.1250 N   0  0  0  0  0  0  0  0  0  0  0  0
   46.4410   30.7410   49.2630 H   0  0  0  0  0  0  0  0  0  0  0  0
   48.2880   31.9330   50.6450 H   0  0  0  0  0  0  0  0  0  0  0  0
   46.0050   33.3350   45.3540 C   0  0  0  0  0  0  0  0  0  0  0  0
   46.9160   33.4280   44.2710 C   0  0  0  0  0  0  0  0  0  0  0  0
   47.6370   32.2530   43.8990 C   0  0  0  0  0  0  0  0  0  0  0  0
   47.4170   31.0980   44.5970 N   0  0  0  0  0  0  0  0  0  0  0  0
   46.5320   31.0720   45.6230 C   0  0  0  0  0  0  0  0  0  0  0  0
   45.8390   32.1780   45.9900 N   0  0  0  0  0  0  0  0  0  0  0  0
   46.3760   29.8440   46.2800 N   0  0  0  0  0  0  0  0  0  0  0  0
   47.4840   29.2070   46.9130 C   0  0  2  0  0  0  0  0  0  0  0  0
   47.2370   27.8020   47.3410 C   0  0  0  0  0  0  0  0  0  0  0  0
   45.9130   27.4550   47.6920 N   0  0  0  0  0  0  0  0  0  0  0  0
   44.9890   28.5380   47.6600 C   0  0  0  0  0  0  0  0  0  0  0  0
   45.0740   29.2100   46.3180 C   0  0  0  0  0  0  0  0  0  0  0  0
   45.4900   34.2420   45.5930 H   0  0  0  0  0  0  0  0  0  0  0  0
   47.1220   34.3080   43.6970 H   0  0  0  0  0  0  0  0  0  0  0  0
   48.3340   32.2730   43.0920 H   0  0  0  0  0  0  0  0  0  0  0  0
   48.2750   29.1090   46.1060 H   0  0  0  0  0  0  0  0  0  0  0  0
   47.6030   27.0490   46.6120 H   0  0  0  0  0  0  0  0  0  0  0  0
   47.8800   27.6390   48.2510 H   0  0  0  0  0  0  0  0  0  0  0  0
   45.8250   26.9940   48.6310 H   0  0  0  0  0  0  0  0  0  0  0  0
   43.9580   28.0720   47.7020 H   0  0  0  0  0  0  0  0  0  0  0  0
   45.0310   29.2200   48.5240 H   0  0  0  0  0  0  0  0  0  0  0  0
   44.2380   29.9050   46.1300 H   0  0  0  0  0  0  0  0  0  0  0  0
   45.0830   28.4140   45.5580 H   0  0  0  0  0  0  0  0  0  0  0  0
   50.9270   31.5110   49.5780 C   0  0  0  0  0  0  0  0  0  0  0  0
   52.0630   30.7390   49.4500 C   0  0  0  0  0  0  0  0  0  0  0  0
   51.9680   29.7450   49.0360 H   0  0  0  0  0  0  0  0  0  0  0  0
   53.2720   31.2490   49.8470 C   0  0  0  0  0  0  0  0  0  0  0  0
   54.1200   30.5680   49.7080 H   0  0  0  0  0  0  0  0  0  0  0  0
   53.4560   32.5040   50.3780 C   0  0  0  0  0  0  0  0  0  0  0  0
   52.3090   33.2470   50.4930 C   0  0  0  0  0  0  0  0  0  0  0  0
   51.0860   32.7720   50.1080 C   0  0  0  0  0  0  0  0  0  0  0  0
   50.2100   33.3970   50.2190 H   0  0  0  0  0  0  0  0  0  0  0  0
   52.4260   34.8890   51.1690 S   0  0  0  0  0  0  0  0  0  0  0  0
   54.1450   35.1550   51.5500 C   0  0  0  0  0  0  0  0  0  0  0  0
   54.5280   36.3520   52.0900 C   0  0  0  0  0  0  0  0  0  0  0  0
   53.7940   37.1240   52.2820 H   0  0  0  0  0  0  0  0  0  0  0  0
   55.8420   36.6230   52.4070 C   0  0  0  0  0  0  0  0  0  0  0  0
   56.2170   37.5420   52.8350 H   0  0  0  0  0  0  0  0  0  0  0  0
   56.7670   35.6310   52.1570 C   0  0  0  0  0  0  0  0  0  0  0  0
   57.8080   35.8010   52.3910 H   0  0  0  0  0  0  0  0  0  0  0  0
   56.3400   34.4380   51.6120 C   0  0  0  0  0  0  0  0  0  0  0  0
   57.1380   33.7020   51.4440 H   0  0  0  0  0  0  0  0  0  0  0  0
   55.0350   34.1460   51.2870 C   0  0  0  0  0  0  0  0  0  0  0  0
   54.7670   32.8740   50.7350 N   0  0  0  0  0  0  0  0  0  0  0  0
   55.5470   32.2060   50.5910 H   0  0  0  0  0  0  0  0  0  0  0  0
  1  5  1  0  0  0  0
  1  2  2  0  0  0  0
  2  6  1  0  0  0  0
  2  3  1  0  0  0  0
  3  7  1  0  0  0  0
  4 31  1  0  0  0  0
  4  3  1  0  0  0  0
  5  4  2  0  0  0  0
  8 20  1  0  0  0  0
  8 13  1  0  0  0  0
  9  8  2  0  0  0  0
 10  9  1  0  0  0  0
 10 11  2  0  0  0  0
 11 12  1  0  0  0  0
 12 13  2  0  0  0  0
 12 14  1  0  0  0  0
 14 19  1  0  0  0  0
 14 15  1  0  0  0  0
 15 23  1  6  0  0  0
 15 16  1  0  0  0  0
 15  1  1  0  0  0  0
 16 17  1  0  0  0  0
 16 25  1  0  0  0  0
 17 26  1  0  0  0  0
 18 17  1  0  0  0  0
 18 27  1  0  0  0  0
 18 28  1  0  0  0  0
 19 18  1  0  0  0  0
 21  9  1  0  0  0  0
 22 10  1  0  0  0  0
 24 16  1  0  0  0  0
 29 19  1  0  0  0  0
 30 19  1  0  0  0  0
 31 38  1  0  0  0  0
 32 31  2  0  0  0  0
 32 34  1  0  0  0  0
 33 32  1  0  0  0  0
 34 36  2  0  0  0  0
 35 34  1  0  0  0  0
 36 37  1  0  0  0  0
 36 51  1  0  0  0  0
 37 40  1  0  0  0  0
 38 39  1  0  0  0  0
 38 37  2  0  0  0  0
 40 41  1  0  0  0  0
 41 42  1  0  0  0  0
 42 43  1  0  0  0  0
 42 44  2  0  0  0  0
 44 45  1  0  0  0  0
 46 47  1  0  0  0  0
 46 44  1  0  0  0  0
 48 46  2  0  0  0  0
 49 48  1  0  0  0  0
 50 41  2  0  0  0  0
 50 48  1  0  0  0  0
 51 50  1  0  0  0  0
 52 51  1  0  0  0  0
M  END
>  <minimizedAffinity>
-5.76189804

>  <minimizedRMSD>
1.07948804

$$$$
