
 OpenBabel03242518003D

 50 54  0  0  0  0  0  0  0  0999 V2000
   47.7160   32.3650   48.2610 C   0  0  0  0  0  0  0  0  0  0  0  0
   46.9250   31.7470   47.2510 C   0  0  0  0  0  0  0  0  0  0  0  0
   47.0940   30.3660   47.0790 C   0  0  0  0  0  0  0  0  0  0  0  0
   47.9820   29.7090   47.8670 N   0  0  0  0  0  0  0  0  0  0  0  0
   48.7070   30.3260   48.8050 C   0  0  0  0  0  0  0  0  0  0  0  0
   48.5670   31.6320   48.9890 N   0  0  0  0  0  0  0  0  0  0  0  0
   47.6550   33.4260   48.4660 H   0  0  0  0  0  0  0  0  0  0  0  0
   46.5070   29.8600   46.3170 H   0  0  0  0  0  0  0  0  0  0  0  0
   49.6520   29.5820   49.6310 C   0  0  0  0  0  0  0  0  0  0  0  0
   50.1100   30.1220   50.8170 C   0  0  0  0  0  0  0  0  0  0  0  0
   49.7570   31.1090   51.1260 H   0  0  0  0  0  0  0  0  0  0  0  0
   51.0030   29.4120   51.5920 C   0  0  0  0  0  0  0  0  0  0  0  0
   51.3120   29.9150   52.5130 H   0  0  0  0  0  0  0  0  0  0  0  0
   51.4810   28.1640   51.2500 C   0  0  0  0  0  0  0  0  0  0  0  0
   51.0110   27.6490   50.0670 C   0  0  0  0  0  0  0  0  0  0  0  0
   50.1350   28.3410   49.3040 C   0  0  0  0  0  0  0  0  0  0  0  0
   49.7830   27.9090   48.3780 H   0  0  0  0  0  0  0  0  0  0  0  0
   51.5900   26.0480   49.5770 S   0  0  0  0  0  0  0  0  0  0  0  0
   52.7140   25.4930   50.8470 C   0  0  0  0  0  0  0  0  0  0  0  0
   53.2760   24.2660   50.6550 C   0  0  0  0  0  0  0  0  0  0  0  0
   53.0830   23.6380   49.8070 H   0  0  0  0  0  0  0  0  0  0  0  0
   54.1530   23.7820   51.6020 C   0  0  0  0  0  0  0  0  0  0  0  0
   54.6490   22.8230   51.5410 H   0  0  0  0  0  0  0  0  0  0  0  0
   54.4390   24.5450   52.7160 C   0  0  0  0  0  0  0  0  0  0  0  0
   55.1230   24.1890   53.4710 H   0  0  0  0  0  0  0  0  0  0  0  0
   53.8250   25.7750   52.8270 C   0  0  0  0  0  0  0  0  0  0  0  0
   54.0910   26.3400   53.7330 H   0  0  0  0  0  0  0  0  0  0  0  0
   52.9390   26.3200   51.9200 C   0  0  0  0  0  0  0  0  0  0  0  0
   52.3890   27.5780   52.1570 N   0  0  0  0  0  0  0  0  0  0  0  0
   52.6720   28.0710   53.0300 H   0  0  0  0  0  0  0  0  0  0  0  0
   46.0060   32.5430   46.4540 C   0  0  0  0  0  0  0  0  0  0  0  0
   45.5460   33.3940   46.9660 H   0  0  0  0  0  0  0  0  0  0  0  0
   45.1340   31.8670   46.2070 H   0  0  0  0  0  0  0  0  0  0  0  0
   46.7140   32.9030   45.1590 C   0  0  0  0  0  0  0  0  0  0  0  0
   46.7860   31.9920   44.5210 H   0  0  0  0  0  0  0  0  0  0  0  0
   47.7960   33.1730   45.3450 H   0  0  0  0  0  0  0  0  0  0  0  0
   46.7010   34.4640   43.2600 C   0  0  0  0  0  0  0  0  0  0  0  0
   46.1430   34.0550   44.4590 C   0  0  0  0  0  0  0  0  0  0  0  0
   45.0650   34.6850   45.0300 C   0  0  0  0  0  0  0  0  0  0  0  0
   44.5250   35.7710   44.3720 C   0  0  0  0  0  0  0  0  0  0  0  0
   45.0110   36.2420   43.1910 C   0  0  0  0  0  0  0  0  0  0  0  0
   46.1000   35.5520   42.6790 C   0  0  0  0  0  0  0  0  0  0  0  0
   44.5820   34.4400   45.9340 H   0  0  0  0  0  0  0  0  0  0  0  0
   43.6610   36.3260   44.7710 H   0  0  0  0  0  0  0  0  0  0  0  0
   44.5990   37.0860   42.6690 H   0  0  0  0  0  0  0  0  0  0  0  0
   46.5140   35.9050   41.7290 H   0  0  0  0  0  0  0  0  0  0  0  0
   48.0700   33.6930   42.5010 S   0  0  0  0  0  0  0  0  0  0  0  0
   49.3840   34.3320   42.8970 O   0  0  0  0  0  0  0  0  0  0  0  0
   47.9930   33.9400   41.0050 O   0  0  0  0  0  0  0  0  0  0  0  0
   48.0830   32.3400   42.6330 H   0  0  0  0  0  0  0  0  0  0  0  0
  1  7  1  0  0  0  0
  1  6  1  0  0  0  0
  2  1  2  0  0  0  0
  3  2  1  0  0  0  0
  3  4  2  0  0  0  0
  4  5  1  0  0  0  0
  5  6  2  0  0  0  0
  5  9  1  0  0  0  0
  8  3  1  0  0  0  0
  9 10  1  0  0  0  0
 10 11  1  0  0  0  0
 10 12  2  0  0  0  0
 12 13  1  0  0  0  0
 14 12  1  0  0  0  0
 14 29  1  0  0  0  0
 15 14  2  0  0  0  0
 16  9  2  0  0  0  0
 16 15  1  0  0  0  0
 17 16  1  0  0  0  0
 18 15  1  0  0  0  0
 18 19  1  0  0  0  0
 19 28  1  0  0  0  0
 20 19  2  0  0  0  0
 20 22  1  0  0  0  0
 21 20  1  0  0  0  0
 22 24  2  0  0  0  0
 23 22  1  0  0  0  0
 24 26  1  0  0  0  0
 24 25  1  0  0  0  0
 26 27  1  0  0  0  0
 28 29  1  0  0  0  0
 28 26  2  0  0  0  0
 29 30  1  0  0  0  0
 31 32  1  0  0  0  0
 31  2  1  0  0  0  0
 33 31  1  0  0  0  0
 34 36  1  0  0  0  0
 34 31  1  0  0  0  0
 35 34  1  0  0  0  0
 37 38  1  0  0  0  0
 38 39  2  0  0  0  0
 38 34  1  0  0  0  0
 39 43  1  0  0  0  0
 40 44  1  0  0  0  0
 40 39  1  0  0  0  0
 41 40  2  0  0  0  0
 42 41  1  0  0  0  0
 42 37  2  0  0  0  0
 45 41  1  0  0  0  0
 46 42  1  0  0  0  0
 47 50  1  0  0  0  0
 47 48  2  0  0  0  0
 47 37  1  0  0  0  0
 49 47  2  0  0  0  0
M  END
>  <minimizedAffinity>
-6.65891171

>  <minimizedRMSD>
2.09452319

$$$$
