
 OpenBabel03242523323D

 50 55  0  0  0  0  0  0  0  0999 V2000
   44.4150   36.2020   44.8480 C   0  0  0  0  0  0  0  0  0  0  0  0
   45.0830   36.0620   43.6150 C   0  0  0  0  0  0  0  0  0  0  0  0
   45.8950   34.9460   43.4050 C   0  0  0  0  0  0  0  0  0  0  0  0
   46.0150   34.0170   44.4110 N   0  0  0  0  0  0  0  0  0  0  0  0
   45.3530   34.1910   45.5850 C   0  0  0  0  0  0  0  0  0  0  0  0
   44.5750   35.2570   45.7920 N   0  0  0  0  0  0  0  0  0  0  0  0
   43.7730   37.0640   45.0450 H   0  0  0  0  0  0  0  0  0  0  0  0
   44.9520   36.8240   42.8590 H   0  0  0  0  0  0  0  0  0  0  0  0
   46.6020   34.7430   42.1720 C   0  0  0  0  0  0  0  0  0  0  0  0
   47.8730   35.1960   41.9050 C   0  0  0  0  0  0  0  0  0  0  0  0
   48.4000   35.7470   42.6560 H   0  0  0  0  0  0  0  0  0  0  0  0
   48.4750   34.9480   40.6760 C   0  0  0  0  0  0  0  0  0  0  0  0
   49.4920   35.3520   40.5590 H   0  0  0  0  0  0  0  0  0  0  0  0
   47.8490   34.2460   39.6690 C   0  0  0  0  0  0  0  0  0  0  0  0
   46.5870   33.8000   39.9420 C   0  0  0  0  0  0  0  0  0  0  0  0
   46.0160   34.0470   41.1380 C   0  0  0  0  0  0  0  0  0  0  0  0
   45.0020   33.6650   41.3020 H   0  0  0  0  0  0  0  0  0  0  0  0
   45.7370   32.8870   38.6720 S   0  0  0  0  0  0  0  0  0  0  0  0
   46.8440   32.7960   37.2810 C   0  0  0  0  0  0  0  0  0  0  0  0
   46.3940   32.1300   36.1720 C   0  0  0  0  0  0  0  0  0  0  0  0
   45.4190   31.6820   36.1410 H   0  0  0  0  0  0  0  0  0  0  0  0
   47.1980   32.0200   35.0600 C   0  0  0  0  0  0  0  0  0  0  0  0
   46.8430   31.4950   34.1850 H   0  0  0  0  0  0  0  0  0  0  0  0
   48.4530   32.5920   35.0890 C   0  0  0  0  0  0  0  0  0  0  0  0
   49.1030   32.5220   34.2330 H   0  0  0  0  0  0  0  0  0  0  0  0
   48.8390   33.2460   36.2360 C   0  0  0  0  0  0  0  0  0  0  0  0
   49.8500   33.6790   36.1980 H   0  0  0  0  0  0  0  0  0  0  0  0
   48.0790   33.3860   37.3780 C   0  0  0  0  0  0  0  0  0  0  0  0
   48.6010   34.0860   38.4890 N   0  0  0  0  0  0  0  0  0  0  0  0
   49.5620   34.4710   38.3870 H   0  0  0  0  0  0  0  0  0  0  0  0
   45.5710   33.1140   46.5830 C   0  0  0  0  0  0  0  0  0  0  0  0
   44.5930   32.6310   46.8060 H   0  0  0  0  0  0  0  0  0  0  0  0
   45.8750   33.6430   47.5030 H   0  0  0  0  0  0  0  0  0  0  0  0
   46.7800   31.9620   45.9230 S   0  0  0  0  0  0  0  0  0  0  0  0
   47.7390   31.2310   47.2350 C   0  0  0  0  0  0  0  0  0  0  0  0
   48.0170   32.0090   48.3350 C   0  0  0  0  0  0  0  0  0  0  0  0
   48.7480   31.4530   49.3430 C   0  0  0  0  0  0  0  0  0  0  0  0
   49.2150   30.1370   49.2900 C   0  0  0  0  0  0  0  0  0  0  0  0
   49.9300   29.6380   50.3170 N   0  0  0  0  0  0  0  0  0  0  0  0
   50.3890   28.3760   50.2950 C   0  0  0  0  0  0  0  0  0  0  0  0
   50.1160   27.5880   49.1990 C   0  0  0  0  0  0  0  0  0  0  0  0
   49.3780   28.1010   48.1380 C   0  0  0  0  0  0  0  0  0  0  0  0
   48.8980   29.4130   48.1540 C   0  0  0  0  0  0  0  0  0  0  0  0
   48.1650   29.9330   47.1200 C   0  0  0  0  0  0  0  0  0  0  0  0
   47.7250   33.0340   48.5100 H   0  0  0  0  0  0  0  0  0  0  0  0
   49.0110   32.0040   50.2480 H   0  0  0  0  0  0  0  0  0  0  0  0
   50.9530   28.0780   51.1730 H   0  0  0  0  0  0  0  0  0  0  0  0
   50.4950   26.5810   49.2080 H   0  0  0  0  0  0  0  0  0  0  0  0
   49.1670   27.4770   47.2800 H   0  0  0  0  0  0  0  0  0  0  0  0
   47.9390   29.3360   46.2500 H   0  0  0  0  0  0  0  0  0  0  0  0
  1  7  1  0  0  0  0
  1  6  1  0  0  0  0
  2  1  2  0  0  0  0
  3  2  1  0  0  0  0
  3  4  2  0  0  0  0
  4  5  1  0  0  0  0
  5  6  2  0  0  0  0
  5 31  1  0  0  0  0
  8  2  1  0  0  0  0
  9  3  1  0  0  0  0
 10  9  1  0  0  0  0
 10 11  1  0  0  0  0
 12 10  2  0  0  0  0
 13 12  1  0  0  0  0
 14 15  2  0  0  0  0
 14 12  1  0  0  0  0
 15 16  1  0  0  0  0
 16 17  1  0  0  0  0
 16  9  2  0  0  0  0
 18 15  1  0  0  0  0
 19 28  1  0  0  0  0
 19 18  1  0  0  0  0
 20 19  2  0  0  0  0
 21 20  1  0  0  0  0
 22 24  2  0  0  0  0
 22 20  1  0  0  0  0
 23 22  1  0  0  0  0
 24 26  1  0  0  0  0
 25 24  1  0  0  0  0
 26 28  2  0  0  0  0
 27 26  1  0  0  0  0
 28 29  1  0  0  0  0
 29 14  1  0  0  0  0
 30 29  1  0  0  0  0
 31 32  1  0  0  0  0
 31 33  1  0  0  0  0
 34 31  1  0  0  0  0
 34 35  1  0  0  0  0
 35 36  1  0  0  0  0
 36 45  1  0  0  0  0
 36 37  2  0  0  0  0
 37 46  1  0  0  0  0
 38 37  1  0  0  0  0
 38 39  1  0  0  0  0
 40 39  2  0  0  0  0
 40 47  1  0  0  0  0
 41 48  1  0  0  0  0
 41 40  1  0  0  0  0
 42 43  1  0  0  0  0
 42 41  2  0  0  0  0
 43 38  2  0  0  0  0
 44 35  2  0  0  0  0
 44 43  1  0  0  0  0
 49 42  1  0  0  0  0
 50 44  1  0  0  0  0
M  END
>  <minimizedAffinity>
-8.05573273

>  <minimizedRMSD>
1.34749305

$$$$
