
 OpenBabel03242523323D

 50 55  0  0  0  0  0  0  0  0999 V2000
   44.4150   36.2000   44.8510 C   0  0  0  0  0  0  0  0  0  0  0  0
   45.0830   36.0600   43.6180 C   0  0  0  0  0  0  0  0  0  0  0  0
   45.8950   34.9450   43.4070 C   0  0  0  0  0  0  0  0  0  0  0  0
   46.0150   34.0160   44.4130 N   0  0  0  0  0  0  0  0  0  0  0  0
   45.3530   34.1890   45.5880 C   0  0  0  0  0  0  0  0  0  0  0  0
   44.5750   35.2550   45.7950 N   0  0  0  0  0  0  0  0  0  0  0  0
   43.7720   37.0620   45.0490 H   0  0  0  0  0  0  0  0  0  0  0  0
   44.9510   36.8230   42.8630 H   0  0  0  0  0  0  0  0  0  0  0  0
   46.6010   34.7420   42.1750 C   0  0  0  0  0  0  0  0  0  0  0  0
   47.8730   35.1970   41.9080 C   0  0  0  0  0  0  0  0  0  0  0  0
   48.4000   35.7480   42.6590 H   0  0  0  0  0  0  0  0  0  0  0  0
   48.4740   34.9490   40.6780 C   0  0  0  0  0  0  0  0  0  0  0  0
   49.4920   35.3530   40.5610 H   0  0  0  0  0  0  0  0  0  0  0  0
   47.8490   34.2470   39.6710 C   0  0  0  0  0  0  0  0  0  0  0  0
   46.5880   33.7990   39.9440 C   0  0  0  0  0  0  0  0  0  0  0  0
   46.0160   34.0460   41.1400 C   0  0  0  0  0  0  0  0  0  0  0  0
   45.0020   33.6640   41.3050 H   0  0  0  0  0  0  0  0  0  0  0  0
   45.7370   32.8860   38.6750 S   0  0  0  0  0  0  0  0  0  0  0  0
   46.8440   32.7960   37.2830 C   0  0  0  0  0  0  0  0  0  0  0  0
   46.3950   32.1300   36.1740 C   0  0  0  0  0  0  0  0  0  0  0  0
   45.4190   31.6830   36.1440 H   0  0  0  0  0  0  0  0  0  0  0  0
   47.1990   32.0210   35.0620 C   0  0  0  0  0  0  0  0  0  0  0  0
   46.8440   31.4950   34.1870 H   0  0  0  0  0  0  0  0  0  0  0  0
   48.4530   32.5930   35.0910 C   0  0  0  0  0  0  0  0  0  0  0  0
   49.1030   32.5220   34.2350 H   0  0  0  0  0  0  0  0  0  0  0  0
   48.8390   33.2460   36.2390 C   0  0  0  0  0  0  0  0  0  0  0  0
   49.8500   33.6810   36.1990 H   0  0  0  0  0  0  0  0  0  0  0  0
   48.0790   33.3870   37.3800 C   0  0  0  0  0  0  0  0  0  0  0  0
   48.6000   34.0870   38.4910 N   0  0  0  0  0  0  0  0  0  0  0  0
   49.5620   34.4720   38.3880 H   0  0  0  0  0  0  0  0  0  0  0  0
   45.5720   33.1120   46.5850 C   0  0  0  0  0  0  0  0  0  0  0  0
   44.5940   32.6290   46.8080 H   0  0  0  0  0  0  0  0  0  0  0  0
   45.8750   33.6400   47.5050 H   0  0  0  0  0  0  0  0  0  0  0  0
   46.7810   31.9610   45.9250 S   0  0  0  0  0  0  0  0  0  0  0  0
   47.7400   31.2290   47.2370 C   0  0  0  0  0  0  0  0  0  0  0  0
   48.0170   32.0060   48.3370 C   0  0  0  0  0  0  0  0  0  0  0  0
   48.7490   31.4500   49.3440 C   0  0  0  0  0  0  0  0  0  0  0  0
   49.2160   30.1340   49.2910 C   0  0  0  0  0  0  0  0  0  0  0  0
   49.9320   29.6360   50.3180 N   0  0  0  0  0  0  0  0  0  0  0  0
   50.3910   28.3730   50.2950 C   0  0  0  0  0  0  0  0  0  0  0  0
   50.1190   27.5860   49.1980 C   0  0  0  0  0  0  0  0  0  0  0  0
   49.3810   28.0990   48.1370 C   0  0  0  0  0  0  0  0  0  0  0  0
   48.9000   29.4110   48.1540 C   0  0  0  0  0  0  0  0  0  0  0  0
   48.1670   29.9320   47.1200 C   0  0  0  0  0  0  0  0  0  0  0  0
   47.7240   33.0310   48.5130 H   0  0  0  0  0  0  0  0  0  0  0  0
   49.0110   32.0000   50.2510 H   0  0  0  0  0  0  0  0  0  0  0  0
   50.9550   28.0760   51.1730 H   0  0  0  0  0  0  0  0  0  0  0  0
   50.5000   26.5800   49.2060 H   0  0  0  0  0  0  0  0  0  0  0  0
   49.1710   27.4760   47.2790 H   0  0  0  0  0  0  0  0  0  0  0  0
   47.9420   29.3350   46.2500 H   0  0  0  0  0  0  0  0  0  0  0  0
  1  7  1  0  0  0  0
  1  6  1  0  0  0  0
  2  1  2  0  0  0  0
  3  2  1  0  0  0  0
  3  4  2  0  0  0  0
  4  5  1  0  0  0  0
  5  6  2  0  0  0  0
  5 31  1  0  0  0  0
  8  2  1  0  0  0  0
  9  3  1  0  0  0  0
 10  9  1  0  0  0  0
 10 11  1  0  0  0  0
 12 10  2  0  0  0  0
 13 12  1  0  0  0  0
 14 15  2  0  0  0  0
 14 12  1  0  0  0  0
 15 16  1  0  0  0  0
 16 17  1  0  0  0  0
 16  9  2  0  0  0  0
 18 15  1  0  0  0  0
 19 28  1  0  0  0  0
 19 18  1  0  0  0  0
 20 19  2  0  0  0  0
 21 20  1  0  0  0  0
 22 24  2  0  0  0  0
 22 20  1  0  0  0  0
 23 22  1  0  0  0  0
 24 26  1  0  0  0  0
 25 24  1  0  0  0  0
 26 28  2  0  0  0  0
 27 26  1  0  0  0  0
 28 29  1  0  0  0  0
 29 14  1  0  0  0  0
 30 29  1  0  0  0  0
 31 32  1  0  0  0  0
 31 33  1  0  0  0  0
 34 31  1  0  0  0  0
 34 35  1  0  0  0  0
 35 36  1  0  0  0  0
 36 45  1  0  0  0  0
 36 37  2  0  0  0  0
 37 46  1  0  0  0  0
 38 37  1  0  0  0  0
 38 39  1  0  0  0  0
 40 39  2  0  0  0  0
 40 47  1  0  0  0  0
 41 48  1  0  0  0  0
 41 40  1  0  0  0  0
 42 43  1  0  0  0  0
 42 41  2  0  0  0  0
 43 38  2  0  0  0  0
 44 35  2  0  0  0  0
 44 43  1  0  0  0  0
 49 42  1  0  0  0  0
 50 44  1  0  0  0  0
M  END
>  <minimizedAffinity>
-8.05662346

>  <minimizedRMSD>
1.63536644

$$$$
