
 OpenBabel03242523323D

 50 55  0  0  0  0  0  0  0  0999 V2000
   40.7460   27.6030   45.7580 C   0  0  0  0  0  0  0  0  0  0  0  0
   41.6130   28.3940   44.9770 C   0  0  0  0  0  0  0  0  0  0  0  0
   42.9560   28.0300   44.8750 C   0  0  0  0  0  0  0  0  0  0  0  0
   43.3900   26.9100   45.5430 N   0  0  0  0  0  0  0  0  0  0  0  0
   42.5210   26.1750   46.2850 C   0  0  0  0  0  0  0  0  0  0  0  0
   41.2330   26.5180   46.3860 N   0  0  0  0  0  0  0  0  0  0  0  0
   39.6880   27.8600   45.8590 H   0  0  0  0  0  0  0  0  0  0  0  0
   41.2160   29.2650   44.4740 H   0  0  0  0  0  0  0  0  0  0  0  0
   43.8910   28.7910   44.0960 C   0  0  0  0  0  0  0  0  0  0  0  0
   43.5570   29.7800   43.2010 C   0  0  0  0  0  0  0  0  0  0  0  0
   42.5240   30.0230   43.0510 H   0  0  0  0  0  0  0  0  0  0  0  0
   44.5390   30.4630   42.4910 C   0  0  0  0  0  0  0  0  0  0  0  0
   44.1700   31.2360   41.8000 H   0  0  0  0  0  0  0  0  0  0  0  0
   45.8840   30.1970   42.6390 C   0  0  0  0  0  0  0  0  0  0  0  0
   46.2080   29.2140   43.5300 C   0  0  0  0  0  0  0  0  0  0  0  0
   45.2450   28.5610   44.2090 C   0  0  0  0  0  0  0  0  0  0  0  0
   45.5620   27.7810   44.9130 H   0  0  0  0  0  0  0  0  0  0  0  0
   47.9320   28.8330   43.7550 S   0  0  0  0  0  0  0  0  0  0  0  0
   48.8390   29.9200   42.6750 C   0  0  0  0  0  0  0  0  0  0  0  0
   50.2040   29.8040   42.6810 C   0  0  0  0  0  0  0  0  0  0  0  0
   50.7050   29.0910   43.3080 H   0  0  0  0  0  0  0  0  0  0  0  0
   50.9690   30.6140   41.8700 C   0  0  0  0  0  0  0  0  0  0  0  0
   52.0460   30.5220   41.8750 H   0  0  0  0  0  0  0  0  0  0  0  0
   50.3330   31.5320   41.0620 C   0  0  0  0  0  0  0  0  0  0  0  0
   50.9070   32.1790   40.4180 H   0  0  0  0  0  0  0  0  0  0  0  0
   48.9600   31.5940   41.1080 C   0  0  0  0  0  0  0  0  0  0  0  0
   48.5130   32.3470   40.4400 H   0  0  0  0  0  0  0  0  0  0  0  0
   48.1430   30.8120   41.8970 C   0  0  0  0  0  0  0  0  0  0  0  0
   46.7420   30.9800   41.8450 N   0  0  0  0  0  0  0  0  0  0  0  0
   46.3860   31.7090   41.1930 H   0  0  0  0  0  0  0  0  0  0  0  0
   43.1210   24.9930   46.9510 C   0  0  0  0  0  0  0  0  0  0  0  0
   42.5060   24.0970   46.7090 H   0  0  0  0  0  0  0  0  0  0  0  0
   42.9870   25.1810   48.0300 H   0  0  0  0  0  0  0  0  0  0  0  0
   44.8240   24.8340   46.4030 S   0  0  0  0  0  0  0  0  0  0  0  0
   45.8860   24.3870   47.7610 C   0  0  0  0  0  0  0  0  0  0  0  0
   45.4390   24.6450   49.0360 C   0  0  0  0  0  0  0  0  0  0  0  0
   46.2480   24.3030   50.0790 C   0  0  0  0  0  0  0  0  0  0  0  0
   47.4970   23.7060   49.8920 C   0  0  0  0  0  0  0  0  0  0  0  0
   48.2530   23.3850   50.9610 N   0  0  0  0  0  0  0  0  0  0  0  0
   49.4570   22.8080   50.8110 C   0  0  0  0  0  0  0  0  0  0  0  0
   49.9150   22.5450   49.5390 C   0  0  0  0  0  0  0  0  0  0  0  0
   49.1360   22.8750   48.4350 C   0  0  0  0  0  0  0  0  0  0  0  0
   47.8830   23.4750   48.5830 C   0  0  0  0  0  0  0  0  0  0  0  0
   47.1010   23.8030   47.5080 C   0  0  0  0  0  0  0  0  0  0  0  0
   44.5030   25.0990   49.3280 H   0  0  0  0  0  0  0  0  0  0  0  0
   45.9660   24.4750   51.1200 H   0  0  0  0  0  0  0  0  0  0  0  0
   49.9800   22.5930   51.7370 H   0  0  0  0  0  0  0  0  0  0  0  0
   50.8820   22.0820   49.4480 H   0  0  0  0  0  0  0  0  0  0  0  0
   49.5010   22.6650   47.4390 H   0  0  0  0  0  0  0  0  0  0  0  0
   47.4380   23.6070   46.5010 H   0  0  0  0  0  0  0  0  0  0  0  0
  1  7  1  0  0  0  0
  1  6  1  0  0  0  0
  2  1  2  0  0  0  0
  3  2  1  0  0  0  0
  3  4  2  0  0  0  0
  4  5  1  0  0  0  0
  5  6  2  0  0  0  0
  5 31  1  0  0  0  0
  8  2  1  0  0  0  0
  9 16  1  0  0  0  0
  9  3  1  0  0  0  0
 10  9  2  0  0  0  0
 11 10  1  0  0  0  0
 12 14  2  0  0  0  0
 12 10  1  0  0  0  0
 13 12  1  0  0  0  0
 14 15  1  0  0  0  0
 15 18  1  0  0  0  0
 15 16  2  0  0  0  0
 16 17  1  0  0  0  0
 19 20  1  0  0  0  0
 19 18  1  0  0  0  0
 20 21  1  0  0  0  0
 22 23  1  0  0  0  0
 22 20  2  0  0  0  0
 24 26  2  0  0  0  0
 24 22  1  0  0  0  0
 25 24  1  0  0  0  0
 26 28  1  0  0  0  0
 27 26  1  0  0  0  0
 28 19  2  0  0  0  0
 29 28  1  0  0  0  0
 29 14  1  0  0  0  0
 30 29  1  0  0  0  0
 31 33  1  0  0  0  0
 32 31  1  0  0  0  0
 34 31  1  0  0  0  0
 34 35  1  0  0  0  0
 35 36  1  0  0  0  0
 36 45  1  0  0  0  0
 36 37  2  0  0  0  0
 37 46  1  0  0  0  0
 38 37  1  0  0  0  0
 38 39  1  0  0  0  0
 40 39  2  0  0  0  0
 40 47  1  0  0  0  0
 41 40  1  0  0  0  0
 42 43  1  0  0  0  0
 42 41  2  0  0  0  0
 43 38  2  0  0  0  0
 44 35  2  0  0  0  0
 44 43  1  0  0  0  0
 48 41  1  0  0  0  0
 49 42  1  0  0  0  0
 50 44  1  0  0  0  0
M  END
>  <minimizedAffinity>
-3.70936561

>  <minimizedRMSD>
6.53949642

$$$$
