
 OpenBabel03252503493D

 34 37  0  0  0  0  0  0  0  0999 V2000
   47.0530   32.4530   44.9820 C   0  0  0  0  0  0  0  0  0  0  0  0
   46.8280   32.4990   46.3400 C   0  0  0  0  0  0  0  0  0  0  0  0
   46.5120   33.4220   46.7700 H   0  0  0  0  0  0  0  0  0  0  0  0
   47.0180   31.3620   47.1000 C   0  0  0  0  0  0  0  0  0  0  0  0
   46.8160   31.4940   48.1700 H   0  0  0  0  0  0  0  0  0  0  0  0
   47.4260   30.1480   46.5870 C   0  0  0  0  0  0  0  0  0  0  0  0
   47.6420   30.1320   45.2310 C   0  0  0  0  0  0  0  0  0  0  0  0
   47.4610   31.2390   44.4730 C   0  0  0  0  0  0  0  0  0  0  0  0
   47.6490   31.1630   43.3910 H   0  0  0  0  0  0  0  0  0  0  0  0
   48.1680   28.6150   44.4870 S   0  0  0  0  0  0  0  0  0  0  0  0
   48.2900   27.4140   45.7960 C   0  0  0  0  0  0  0  0  0  0  0  0
   48.6810   26.1430   45.4960 C   0  0  0  0  0  0  0  0  0  0  0  0
   48.9130   25.8810   44.4620 H   0  0  0  0  0  0  0  0  0  0  0  0
   48.7950   25.1650   46.4560 C   0  0  0  0  0  0  0  0  0  0  0  0
   49.1000   24.1470   46.2720 H   0  0  0  0  0  0  0  0  0  0  0  0
   48.4990   25.5150   47.7560 C   0  0  0  0  0  0  0  0  0  0  0  0
   48.5740   24.7800   48.5450 H   0  0  0  0  0  0  0  0  0  0  0  0
   48.1070   26.8120   48.0160 C   0  0  0  0  0  0  0  0  0  0  0  0
   47.8870   27.0170   49.0750 H   0  0  0  0  0  0  0  0  0  0  0  0
   47.9840   27.8100   47.0730 C   0  0  0  0  0  0  0  0  0  0  0  0
   47.5740   29.0790   47.5010 N   0  0  0  0  0  0  0  0  0  0  0  0
   47.3740   29.2350   48.5120 H   0  0  0  0  0  0  0  0  0  0  0  0
   47.7040   35.0630   42.3510 C   0  0  0  0  0  0  0  0  0  0  0  0
   47.9130   33.9810   43.2100 C   0  0  0  0  0  0  0  0  0  0  0  0
   46.8920   33.5730   44.0660 C   0  0  0  0  0  0  0  0  0  0  0  0
   45.7260   34.2690   44.0110 N   0  0  0  0  0  0  0  0  0  0  0  0
   45.5350   35.3040   43.1840 C   0  0  0  0  0  0  0  0  0  0  0  0
   46.5160   35.6920   42.3670 N   0  0  0  0  0  0  0  0  0  0  0  0
   48.8500   33.4840   43.2010 H   0  0  0  0  0  0  0  0  0  0  0  0
   44.5710   35.7960   43.2120 H   0  0  0  0  0  0  0  0  0  0  0  0
   48.8210   35.4690   41.4530 C   0  0  0  0  0  0  0  0  0  0  0  0
   48.4790   35.3530   40.1290 F   0  0  0  0  0  0  0  0  0  0  0  0
   49.2130   36.7470   41.7860 F   0  0  0  0  0  0  0  0  0  0  0  0
   49.9300   34.6480   41.7210 F   0  0  0  0  0  0  0  0  0  0  0  0
  1  2  1  0  0  0  0
  2  3  1  0  0  0  0
  2  4  2  0  0  0  0
  4  5  1  0  0  0  0
  6  4  1  0  0  0  0
  6 21  1  0  0  0  0
  7  6  2  0  0  0  0
  8  1  2  0  0  0  0
  8  7  1  0  0  0  0
  9  8  1  0  0  0  0
 10  7  1  0  0  0  0
 10 11  1  0  0  0  0
 11 20  1  0  0  0  0
 12 11  2  0  0  0  0
 12 14  1  0  0  0  0
 13 12  1  0  0  0  0
 14 16  2  0  0  0  0
 15 14  1  0  0  0  0
 16 18  1  0  0  0  0
 16 17  1  0  0  0  0
 18 19  1  0  0  0  0
 20 21  1  0  0  0  0
 20 18  2  0  0  0  0
 21 22  1  0  0  0  0
 23 28  2  0  0  0  0
 23 24  1  0  0  0  0
 24 25  2  0  0  0  0
 25  1  1  0  0  0  0
 26 25  1  0  0  0  0
 27 30  1  0  0  0  0
 27 26  2  0  0  0  0
 28 27  1  0  0  0  0
 29 24  1  0  0  0  0
 31 34  1  0  0  0  0
 31 33  1  0  0  0  0
 31 23  1  0  0  0  0
 32 31  1  0  0  0  0
M  END
>  <minimizedAffinity>
-5.52168226

>  <minimizedRMSD>
1.90626025

$$$$
