
 OpenBabel03252503503D

 34 37  0  0  0  0  0  0  0  0999 V2000
   45.9020   30.9400   43.0520 C   0  0  0  0  0  0  0  0  0  0  0  0
   46.8200   30.4890   43.9760 C   0  0  0  0  0  0  0  0  0  0  0  0
   47.8020   30.9050   43.9600 H   0  0  0  0  0  0  0  0  0  0  0  0
   46.4500   29.5210   44.8870 C   0  0  0  0  0  0  0  0  0  0  0  0
   47.2440   29.2250   45.5810 H   0  0  0  0  0  0  0  0  0  0  0  0
   45.1920   28.9540   44.9440 C   0  0  0  0  0  0  0  0  0  0  0  0
   44.2990   29.4230   44.0130 C   0  0  0  0  0  0  0  0  0  0  0  0
   44.6480   30.3710   43.1130 C   0  0  0  0  0  0  0  0  0  0  0  0
   43.8880   30.7060   42.3920 H   0  0  0  0  0  0  0  0  0  0  0  0
   42.6620   28.7510   44.0150 S   0  0  0  0  0  0  0  0  0  0  0  0
   42.5980   27.5490   45.3280 C   0  0  0  0  0  0  0  0  0  0  0  0
   41.4370   26.8730   45.5530 C   0  0  0  0  0  0  0  0  0  0  0  0
   40.5660   27.0760   44.9270 H   0  0  0  0  0  0  0  0  0  0  0  0
   41.3170   25.9310   46.5500 C   0  0  0  0  0  0  0  0  0  0  0  0
   40.4230   25.3700   46.7670 H   0  0  0  0  0  0  0  0  0  0  0  0
   42.4280   25.6890   47.3280 C   0  0  0  0  0  0  0  0  0  0  0  0
   42.3820   24.9580   48.1230 H   0  0  0  0  0  0  0  0  0  0  0  0
   43.5830   26.3960   47.0670 C   0  0  0  0  0  0  0  0  0  0  0  0
   44.4270   26.1480   47.7300 H   0  0  0  0  0  0  0  0  0  0  0  0
   43.7300   27.3430   46.0760 C   0  0  0  0  0  0  0  0  0  0  0  0
   44.9730   27.9730   45.9410 N   0  0  0  0  0  0  0  0  0  0  0  0
   45.7480   27.7120   46.5860 H   0  0  0  0  0  0  0  0  0  0  0  0
   47.2370   33.9650   41.2580 C   0  0  0  0  0  0  0  0  0  0  0  0
   47.0260   33.0210   42.2660 C   0  0  0  0  0  0  0  0  0  0  0  0
   46.1600   31.9520   42.0390 C   0  0  0  0  0  0  0  0  0  0  0  0
   45.5600   31.8920   40.8220 N   0  0  0  0  0  0  0  0  0  0  0  0
   45.7690   32.8020   39.8620 C   0  0  0  0  0  0  0  0  0  0  0  0
   46.5970   33.8230   40.0830 N   0  0  0  0  0  0  0  0  0  0  0  0
   47.5280   33.1310   43.1940 H   0  0  0  0  0  0  0  0  0  0  0  0
   45.2450   32.6690   38.9250 H   0  0  0  0  0  0  0  0  0  0  0  0
   48.1700   35.0920   41.5400 C   0  0  0  0  0  0  0  0  0  0  0  0
   48.6810   35.6310   40.3870 F   0  0  0  0  0  0  0  0  0  0  0  0
   47.5120   36.0250   42.3130 F   0  0  0  0  0  0  0  0  0  0  0  0
   49.2220   34.6120   42.3360 F   0  0  0  0  0  0  0  0  0  0  0  0
  1  8  2  0  0  0  0
  1  2  1  0  0  0  0
  2  4  2  0  0  0  0
  3  2  1  0  0  0  0
  4  6  1  0  0  0  0
  4  5  1  0  0  0  0
  6 21  1  0  0  0  0
  7 10  1  0  0  0  0
  7  6  2  0  0  0  0
  8  7  1  0  0  0  0
  9  8  1  0  0  0  0
 10 11  1  0  0  0  0
 11 12  2  0  0  0  0
 11 20  1  0  0  0  0
 12 14  1  0  0  0  0
 13 12  1  0  0  0  0
 14 15  1  0  0  0  0
 14 16  2  0  0  0  0
 16 17  1  0  0  0  0
 18 16  1  0  0  0  0
 18 19  1  0  0  0  0
 20 18  2  0  0  0  0
 21 20  1  0  0  0  0
 21 22  1  0  0  0  0
 23 31  1  0  0  0  0
 23 24  1  0  0  0  0
 24 29  1  0  0  0  0
 25 24  2  0  0  0  0
 25  1  1  0  0  0  0
 26 25  1  0  0  0  0
 27 28  1  0  0  0  0
 27 26  2  0  0  0  0
 28 23  2  0  0  0  0
 30 27  1  0  0  0  0
 31 33  1  0  0  0  0
 31 34  1  0  0  0  0
 32 31  1  0  0  0  0
M  END
>  <minimizedAffinity>
-4.90851784

>  <minimizedRMSD>
3.27653551

$$$$
