
 OpenBabel03252503493D

 34 37  0  0  0  0  0  0  0  0999 V2000
   47.0540   32.4050   45.1750 C   0  0  0  0  0  0  0  0  0  0  0  0
   46.8540   32.4920   46.5350 C   0  0  0  0  0  0  0  0  0  0  0  0
   46.5270   33.4220   46.9400 H   0  0  0  0  0  0  0  0  0  0  0  0
   47.0800   31.3850   47.3290 C   0  0  0  0  0  0  0  0  0  0  0  0
   46.8950   31.5490   48.3960 H   0  0  0  0  0  0  0  0  0  0  0  0
   47.5030   30.1630   46.8480 C   0  0  0  0  0  0  0  0  0  0  0  0
   47.6940   30.1060   45.4900 C   0  0  0  0  0  0  0  0  0  0  0  0
   47.4760   31.1810   44.6990 C   0  0  0  0  0  0  0  0  0  0  0  0
   47.6470   31.0730   43.6180 H   0  0  0  0  0  0  0  0  0  0  0  0
   48.2370   28.5740   44.7870 S   0  0  0  0  0  0  0  0  0  0  0  0
   48.4060   27.4190   46.1320 C   0  0  0  0  0  0  0  0  0  0  0  0
   48.8160   26.1480   45.8670 C   0  0  0  0  0  0  0  0  0  0  0  0
   49.0340   25.8560   44.8390 H   0  0  0  0  0  0  0  0  0  0  0  0
   48.9680   25.2040   46.8570 C   0  0  0  0  0  0  0  0  0  0  0  0
   49.2890   24.1880   46.7010 H   0  0  0  0  0  0  0  0  0  0  0  0
   48.6880   25.5930   48.1500 C   0  0  0  0  0  0  0  0  0  0  0  0
   48.7930   24.8860   48.9620 H   0  0  0  0  0  0  0  0  0  0  0  0
   48.2750   26.8900   48.3740 C   0  0  0  0  0  0  0  0  0  0  0  0
   48.0710   27.1260   49.4300 H   0  0  0  0  0  0  0  0  0  0  0  0
   48.1150   27.8530   47.4010 C   0  0  0  0  0  0  0  0  0  0  0  0
   47.6880   29.1280   47.7950 N   0  0  0  0  0  0  0  0  0  0  0  0
   47.5040   29.3130   48.8030 H   0  0  0  0  0  0  0  0  0  0  0  0
   47.5930   34.9110   42.4210 C   0  0  0  0  0  0  0  0  0  0  0  0
   47.8370   33.8610   43.3090 C   0  0  0  0  0  0  0  0  0  0  0  0
   46.8540   33.4900   44.2260 C   0  0  0  0  0  0  0  0  0  0  0  0
   45.6900   34.1880   44.1970 N   0  0  0  0  0  0  0  0  0  0  0  0
   45.4640   35.1930   43.3420 C   0  0  0  0  0  0  0  0  0  0  0  0
   46.4080   35.5450   42.4670 N   0  0  0  0  0  0  0  0  0  0  0  0
   48.7710   33.3590   43.2760 H   0  0  0  0  0  0  0  0  0  0  0  0
   44.5040   35.6900   43.3950 H   0  0  0  0  0  0  0  0  0  0  0  0
   48.6690   35.2770   41.4580 C   0  0  0  0  0  0  0  0  0  0  0  0
   48.2490   35.1630   40.1570 F   0  0  0  0  0  0  0  0  0  0  0  0
   49.1170   36.5450   41.7600 F   0  0  0  0  0  0  0  0  0  0  0  0
   49.7660   34.4250   41.6700 F   0  0  0  0  0  0  0  0  0  0  0  0
  1  2  1  0  0  0  0
  2  3  1  0  0  0  0
  2  4  2  0  0  0  0
  4  5  1  0  0  0  0
  6  4  1  0  0  0  0
  6 21  1  0  0  0  0
  7  6  2  0  0  0  0
  8  1  2  0  0  0  0
  8  7  1  0  0  0  0
  9  8  1  0  0  0  0
 10  7  1  0  0  0  0
 10 11  1  0  0  0  0
 11 20  1  0  0  0  0
 12 11  2  0  0  0  0
 12 14  1  0  0  0  0
 13 12  1  0  0  0  0
 14 16  2  0  0  0  0
 15 14  1  0  0  0  0
 16 18  1  0  0  0  0
 16 17  1  0  0  0  0
 18 19  1  0  0  0  0
 20 21  1  0  0  0  0
 20 18  2  0  0  0  0
 21 22  1  0  0  0  0
 23 28  2  0  0  0  0
 23 24  1  0  0  0  0
 24 25  2  0  0  0  0
 25  1  1  0  0  0  0
 26 25  1  0  0  0  0
 27 30  1  0  0  0  0
 27 26  2  0  0  0  0
 28 27  1  0  0  0  0
 29 24  1  0  0  0  0
 31 34  1  0  0  0  0
 31 33  1  0  0  0  0
 31 23  1  0  0  0  0
 32 31  1  0  0  0  0
M  END
>  <minimizedAffinity>
-5.58921194

>  <minimizedRMSD>
0.267324537

$$$$
