
 OpenBabel03252503503D

 34 37  0  0  0  0  0  0  0  0999 V2000
   46.2490   31.8160   43.9430 C   0  0  0  0  0  0  0  0  0  0  0  0
   46.9700   31.9370   45.1110 C   0  0  0  0  0  0  0  0  0  0  0  0
   47.6730   32.7350   45.1920 H   0  0  0  0  0  0  0  0  0  0  0  0
   46.7660   31.0350   46.1350 C   0  0  0  0  0  0  0  0  0  0  0  0
   47.3830   31.2100   47.0240 H   0  0  0  0  0  0  0  0  0  0  0  0
   45.8680   29.9880   46.0750 C   0  0  0  0  0  0  0  0  0  0  0  0
   45.1650   29.8910   44.9000 C   0  0  0  0  0  0  0  0  0  0  0  0
   45.3550   30.7690   43.8880 C   0  0  0  0  0  0  0  0  0  0  0  0
   44.7610   30.6390   42.9710 H   0  0  0  0  0  0  0  0  0  0  0  0
   43.9920   28.5780   44.7350 S   0  0  0  0  0  0  0  0  0  0  0  0
   44.0340   27.6530   46.2570 C   0  0  0  0  0  0  0  0  0  0  0  0
   43.2170   26.5730   46.4010 C   0  0  0  0  0  0  0  0  0  0  0  0
   42.5500   26.2900   45.5840 H   0  0  0  0  0  0  0  0  0  0  0  0
   43.1970   25.8130   47.5480 C   0  0  0  0  0  0  0  0  0  0  0  0
   42.5720   24.9520   47.7120 H   0  0  0  0  0  0  0  0  0  0  0  0
   44.0460   26.1870   48.5680 C   0  0  0  0  0  0  0  0  0  0  0  0
   44.0680   25.6210   49.4890 H   0  0  0  0  0  0  0  0  0  0  0  0
   44.8580   27.2870   48.3810 C   0  0  0  0  0  0  0  0  0  0  0  0
   45.5080   27.5240   49.2390 H   0  0  0  0  0  0  0  0  0  0  0  0
   44.8960   28.0630   47.2430 C   0  0  0  0  0  0  0  0  0  0  0  0
   45.7790   29.1500   47.2110 N   0  0  0  0  0  0  0  0  0  0  0  0
   46.3780   29.3420   48.0410 H   0  0  0  0  0  0  0  0  0  0  0  0
   47.5120   34.3800   41.4960 C   0  0  0  0  0  0  0  0  0  0  0  0
   47.4510   33.5560   42.6230 C   0  0  0  0  0  0  0  0  0  0  0  0
   46.3660   32.6960   42.7900 C   0  0  0  0  0  0  0  0  0  0  0  0
   45.4120   32.7120   41.8240 N   0  0  0  0  0  0  0  0  0  0  0  0
   45.4790   33.5050   40.7480 C   0  0  0  0  0  0  0  0  0  0  0  0
   46.5180   34.3270   40.5920 N   0  0  0  0  0  0  0  0  0  0  0  0
   48.2320   33.5960   43.3390 H   0  0  0  0  0  0  0  0  0  0  0  0
   44.6700   33.4470   40.0310 H   0  0  0  0  0  0  0  0  0  0  0  0
   48.6870   35.2840   41.3550 C   0  0  0  0  0  0  0  0  0  0  0  0
   48.8600   35.6970   40.0580 F   0  0  0  0  0  0  0  0  0  0  0  0
   48.5380   36.3400   42.2290 F   0  0  0  0  0  0  0  0  0  0  0  0
   49.8340   34.5950   41.7820 F   0  0  0  0  0  0  0  0  0  0  0  0
  1  2  1  0  0  0  0
  2  3  1  0  0  0  0
  2  4  2  0  0  0  0
  4  5  1  0  0  0  0
  6  4  1  0  0  0  0
  6 21  1  0  0  0  0
  7  6  2  0  0  0  0
  8  1  2  0  0  0  0
  8  7  1  0  0  0  0
  9  8  1  0  0  0  0
 10  7  1  0  0  0  0
 10 11  1  0  0  0  0
 11 12  2  0  0  0  0
 11 20  1  0  0  0  0
 12 14  1  0  0  0  0
 13 12  1  0  0  0  0
 14 15  1  0  0  0  0
 14 16  2  0  0  0  0
 16 17  1  0  0  0  0
 18 16  1  0  0  0  0
 18 19  1  0  0  0  0
 20 18  2  0  0  0  0
 21 20  1  0  0  0  0
 21 22  1  0  0  0  0
 23 24  1  0  0  0  0
 24 25  2  0  0  0  0
 24 29  1  0  0  0  0
 25  1  1  0  0  0  0
 26 25  1  0  0  0  0
 27 26  2  0  0  0  0
 28 27  1  0  0  0  0
 28 23  2  0  0  0  0
 30 27  1  0  0  0  0
 31 23  1  0  0  0  0
 31 34  1  0  0  0  0
 31 33  1  0  0  0  0
 32 31  1  0  0  0  0
M  END
>  <minimizedAffinity>
-5.57913733

>  <minimizedRMSD>
1.83498013

$$$$
