
 OpenBabel03252502373D

 37 40  0  0  1  0  0  0  0  0999 V2000
   37.3470   25.8810   42.0750 C   0  0  0  0  0  0  0  0  0  0  0  0
   36.8860   26.7390   43.0550 C   0  0  0  0  0  0  0  0  0  0  0  0
   36.6500   26.2790   43.9890 H   0  0  0  0  0  0  0  0  0  0  0  0
   36.7580   28.0750   42.8050 C   0  0  0  0  0  0  0  0  0  0  0  0
   36.3890   28.6690   43.6350 H   0  0  0  0  0  0  0  0  0  0  0  0
   37.0750   28.6330   41.5860 C   0  0  0  0  0  0  0  0  0  0  0  0
   37.5360   27.8140   40.5850 C   0  0  0  0  0  0  0  0  0  0  0  0
   37.6560   26.4900   40.8510 C   0  0  0  0  0  0  0  0  0  0  0  0
   38.0230   25.8660   40.0430 H   0  0  0  0  0  0  0  0  0  0  0  0
   37.9540   28.5040   38.9960 S   0  0  0  0  0  0  0  0  0  0  0  0
   37.6300   30.2500   39.1400 C   0  0  0  0  0  0  0  0  0  0  0  0
   37.8820   30.9850   38.0320 C   0  0  0  0  0  0  0  0  0  0  0  0
   38.2610   30.5590   37.0920 H   0  0  0  0  0  0  0  0  0  0  0  0
   37.6690   32.3480   38.0260 C   0  0  0  0  0  0  0  0  0  0  0  0
   37.8610   32.9590   37.1550 H   0  0  0  0  0  0  0  0  0  0  0  0
   37.1940   32.9350   39.1800 C   0  0  0  0  0  0  0  0  0  0  0  0
   37.0150   34.0000   39.2110 H   0  0  0  0  0  0  0  0  0  0  0  0
   36.9600   32.1270   40.2680 C   0  0  0  0  0  0  0  0  0  0  0  0
   36.5830   32.6560   41.1520 H   0  0  0  0  0  0  0  0  0  0  0  0
   37.1590   30.7640   40.3170 C   0  0  0  0  0  0  0  0  0  0  0  0
   36.8850   30.0290   41.4910 N   0  0  0  0  0  0  0  0  0  0  0  0
   36.5320   30.5900   42.2910 H   0  0  0  0  0  0  0  0  0  0  0  0
   37.5460   24.4100   42.1740 C   0  0  1  0  0  0  0  0  0  0  0  0
   36.9120   24.0380   43.0130 H   0  0  0  0  0  0  0  0  0  0  0  0
   38.1730   22.8760   40.3740 C   0  0  0  0  0  0  0  0  0  0  0  0
   37.2050   23.6680   40.9810 C   0  0  0  0  0  0  0  0  0  0  0  0
   35.9390   23.6760   40.3650 C   0  0  0  0  0  0  0  0  0  0  0  0
   35.7540   22.9280   39.2480 N   0  0  0  0  0  0  0  0  0  0  0  0
   36.7220   22.1850   38.7090 C   0  0  0  0  0  0  0  0  0  0  0  0
   37.9370   22.1550   39.2690 N   0  0  0  0  0  0  0  0  0  0  0  0
   39.1900   22.8100   40.7870 H   0  0  0  0  0  0  0  0  0  0  0  0
   35.1580   24.2780   40.8060 H   0  0  0  0  0  0  0  0  0  0  0  0
   36.5950   21.5800   37.8170 H   0  0  0  0  0  0  0  0  0  0  0  0
   38.9940   24.1090   42.5120 C   0  0  0  0  0  0  0  0  0  0  0  0
   39.1330   23.0210   42.6990 H   0  0  0  0  0  0  0  0  0  0  0  0
   39.6140   24.4860   41.7000 H   0  0  0  0  0  0  0  0  0  0  0  0
   39.1940   24.6150   43.4890 H   0  0  0  0  0  0  0  0  0  0  0  0
  1 23  1  0  0  0  0
  1  2  1  0  0  0  0
  2  3  1  0  0  0  0
  4  2  2  0  0  0  0
  4  5  1  0  0  0  0
  6  4  1  0  0  0  0
  7  8  1  0  0  0  0
  7  6  2  0  0  0  0
  8  1  2  0  0  0  0
  9  8  1  0  0  0  0
 10 11  1  0  0  0  0
 10  7  1  0  0  0  0
 11 20  1  0  0  0  0
 12 11  2  0  0  0  0
 13 12  1  0  0  0  0
 14 12  1  0  0  0  0
 14 16  2  0  0  0  0
 15 14  1  0  0  0  0
 16 17  1  0  0  0  0
 16 18  1  0  0  0  0
 18 20  2  0  0  0  0
 18 19  1  0  0  0  0
 20 21  1  0  0  0  0
 21  6  1  0  0  0  0
 21 22  1  0  0  0  0
 23 34  1  0  0  0  0
 23 24  1  1  0  0  0
 25 31  1  0  0  0  0
 25 26  1  0  0  0  0
 26 23  1  0  0  0  0
 27 32  1  0  0  0  0
 27 26  2  0  0  0  0
 28 27  1  0  0  0  0
 29 28  2  0  0  0  0
 29 30  1  0  0  0  0
 30 25  2  0  0  0  0
 33 29  1  0  0  0  0
 34 35  1  0  0  0  0
 34 37  1  0  0  0  0
 36 34  1  0  0  0  0
M  END
>  <minimizedAffinity>
-5.88828278

$$$$

 OpenBabel03252502373D

 37 40  0  0  1  0  0  0  0  0999 V2000
   37.7860   31.6240   40.5180 C   0  0  0  0  0  0  0  0  0  0  0  0
   36.5490   31.1030   40.1950 C   0  0  0  0  0  0  0  0  0  0  0  0
   35.8540   31.8010   39.7820 H   0  0  0  0  0  0  0  0  0  0  0  0
   36.2740   29.7820   40.4020 C   0  0  0  0  0  0  0  0  0  0  0  0
   35.2760   29.4640   40.1170 H   0  0  0  0  0  0  0  0  0  0  0  0
   37.1980   28.9100   40.9360 C   0  0  0  0  0  0  0  0  0  0  0  0
   38.4400   29.3890   41.2720 C   0  0  0  0  0  0  0  0  0  0  0  0
   38.6950   30.7040   41.0580 C   0  0  0  0  0  0  0  0  0  0  0  0
   39.6830   31.0550   41.3320 H   0  0  0  0  0  0  0  0  0  0  0  0
   39.6580   28.2870   41.9650 S   0  0  0  0  0  0  0  0  0  0  0  0
   38.8620   26.6960   42.0480 C   0  0  0  0  0  0  0  0  0  0  0  0
   39.6150   25.6910   42.5510 C   0  0  0  0  0  0  0  0  0  0  0  0
   40.6520   25.8200   42.8940 H   0  0  0  0  0  0  0  0  0  0  0  0
   39.1040   24.4140   42.6630 C   0  0  0  0  0  0  0  0  0  0  0  0
   39.6830   23.5930   43.0620 H   0  0  0  0  0  0  0  0  0  0  0  0
   37.8070   24.1970   42.2470 C   0  0  0  0  0  0  0  0  0  0  0  0
   37.3740   23.2090   42.3200 H   0  0  0  0  0  0  0  0  0  0  0  0
   37.1000   25.2640   41.7460 C   0  0  0  0  0  0  0  0  0  0  0  0
   36.0760   25.0230   41.4340 H   0  0  0  0  0  0  0  0  0  0  0  0
   37.5720   26.5530   41.6170 C   0  0  0  0  0  0  0  0  0  0  0  0
   36.7570   27.5770   41.0870 N   0  0  0  0  0  0  0  0  0  0  0  0
   35.8000   27.2820   40.8110 H   0  0  0  0  0  0  0  0  0  0  0  0
   38.2520   33.0280   40.3600 C   0  0  1  0  0  0  0  0  0  0  0  0
   38.2940   33.4870   41.3770 H   0  0  0  0  0  0  0  0  0  0  0  0
   40.5250   33.9340   40.3760 C   0  0  0  0  0  0  0  0  0  0  0  0
   39.5490   33.1730   39.7410 C   0  0  0  0  0  0  0  0  0  0  0  0
   39.9240   32.5900   38.5160 C   0  0  0  0  0  0  0  0  0  0  0  0
   41.1800   32.8040   38.0490 N   0  0  0  0  0  0  0  0  0  0  0  0
   42.0760   33.5460   38.7040 C   0  0  0  0  0  0  0  0  0  0  0  0
   41.7520   34.1140   39.8710 N   0  0  0  0  0  0  0  0  0  0  0  0
   40.3200   34.4270   41.3380 H   0  0  0  0  0  0  0  0  0  0  0  0
   39.1960   31.9890   37.9900 H   0  0  0  0  0  0  0  0  0  0  0  0
   43.0850   33.7300   38.3490 H   0  0  0  0  0  0  0  0  0  0  0  0
   37.2510   33.8120   39.5340 C   0  0  0  0  0  0  0  0  0  0  0  0
   37.5290   34.8890   39.5020 H   0  0  0  0  0  0  0  0  0  0  0  0
   37.1970   33.3550   38.5470 H   0  0  0  0  0  0  0  0  0  0  0  0
   36.2830   33.7640   40.0930 H   0  0  0  0  0  0  0  0  0  0  0  0
  1  8  1  0  0  0  0
  2  4  1  0  0  0  0
  2  1  2  0  0  0  0
  3  2  1  0  0  0  0
  4  6  2  0  0  0  0
  5  4  1  0  0  0  0
  6 21  1  0  0  0  0
  6  7  1  0  0  0  0
  7 10  1  0  0  0  0
  8  7  2  0  0  0  0
  8  9  1  0  0  0  0
 10 11  1  0  0  0  0
 11 12  1  0  0  0  0
 12 14  2  0  0  0  0
 12 13  1  0  0  0  0
 14 15  1  0  0  0  0
 16 17  1  0  0  0  0
 16 14  1  0  0  0  0
 18 16  2  0  0  0  0
 19 18  1  0  0  0  0
 20 18  1  0  0  0  0
 20 11  2  0  0  0  0
 21 20  1  0  0  0  0
 22 21  1  0  0  0  0
 23  1  1  0  0  0  0
 23 24  1  1  0  0  0
 25 31  1  0  0  0  0
 26 23  1  0  0  0  0
 26 25  2  0  0  0  0
 27 26  1  0  0  0  0
 28 27  2  0  0  0  0
 28 29  1  0  0  0  0
 29 30  2  0  0  0  0
 30 25  1  0  0  0  0
 32 27  1  0  0  0  0
 33 29  1  0  0  0  0
 34 37  1  0  0  0  0
 34 23  1  0  0  0  0
 35 34  1  0  0  0  0
 36 34  1  0  0  0  0
M  END
>  <minimizedAffinity>
-5.82361555

$$$$

 OpenBabel03252502373D

 37 40  0  0  1  0  0  0  0  0999 V2000
   39.0590   26.9240   42.5630 C   0  0  0  0  0  0  0  0  0  0  0  0
   40.1680   27.6040   43.0250 C   0  0  0  0  0  0  0  0  0  0  0  0
   40.8530   27.0210   43.6020 H   0  0  0  0  0  0  0  0  0  0  0  0
   40.3410   28.9290   42.7420 C   0  0  0  0  0  0  0  0  0  0  0  0
   41.2420   29.3770   43.1480 H   0  0  0  0  0  0  0  0  0  0  0  0
   39.4350   29.6480   41.9930 C   0  0  0  0  0  0  0  0  0  0  0  0
   38.3180   29.0090   41.5160 C   0  0  0  0  0  0  0  0  0  0  0  0
   38.1640   27.6940   41.8070 C   0  0  0  0  0  0  0  0  0  0  0  0
   37.2730   27.2140   41.4170 H   0  0  0  0  0  0  0  0  0  0  0  0
   37.1270   29.9120   40.5440 S   0  0  0  0  0  0  0  0  0  0  0  0
   37.7640   31.5720   40.4400 C   0  0  0  0  0  0  0  0  0  0  0  0
   37.0090   32.4460   39.7350 C   0  0  0  0  0  0  0  0  0  0  0  0
   36.0600   32.1760   39.2500 H   0  0  0  0  0  0  0  0  0  0  0  0
   37.4020   33.7600   39.5860 C   0  0  0  0  0  0  0  0  0  0  0  0
   36.8180   34.4780   39.0290 H   0  0  0  0  0  0  0  0  0  0  0  0
   38.5860   34.1520   40.1760 C   0  0  0  0  0  0  0  0  0  0  0  0
   38.9250   35.1740   40.0800 H   0  0  0  0  0  0  0  0  0  0  0  0
   39.3030   33.2110   40.8770 C   0  0  0  0  0  0  0  0  0  0  0  0
   40.2330   33.5890   41.3200 H   0  0  0  0  0  0  0  0  0  0  0  0
   38.9470   31.8910   41.0490 C   0  0  0  0  0  0  0  0  0  0  0  0
   39.7610   31.0070   41.7920 N   0  0  0  0  0  0  0  0  0  0  0  0
   40.6260   31.4280   42.1830 H   0  0  0  0  0  0  0  0  0  0  0  0
   38.7150   25.4930   42.7760 C   0  0  1  0  0  0  0  0  0  0  0  0
   37.9350   25.4470   43.5730 H   0  0  0  0  0  0  0  0  0  0  0  0
   36.8760   24.4220   41.5680 C   0  0  0  0  0  0  0  0  0  0  0  0
   38.2110   24.8080   41.6070 C   0  0  0  0  0  0  0  0  0  0  0  0
   38.9770   24.4920   40.4690 C   0  0  0  0  0  0  0  0  0  0  0  0
   38.3760   23.8480   39.4370 N   0  0  0  0  0  0  0  0  0  0  0  0
   37.0880   23.5010   39.4560 C   0  0  0  0  0  0  0  0  0  0  0  0
   36.3310   23.7870   40.5220 N   0  0  0  0  0  0  0  0  0  0  0  0
   36.2030   24.6280   42.4130 H   0  0  0  0  0  0  0  0  0  0  0  0
   40.0200   24.7750   40.4580 H   0  0  0  0  0  0  0  0  0  0  0  0
   36.5870   22.9860   38.6420 H   0  0  0  0  0  0  0  0  0  0  0  0
   39.9340   24.7380   43.2690 C   0  0  0  0  0  0  0  0  0  0  0  0
   39.6640   23.6930   43.5380 H   0  0  0  0  0  0  0  0  0  0  0  0
   40.7010   24.7970   42.4970 H   0  0  0  0  0  0  0  0  0  0  0  0
   40.2360   25.2320   44.2260 H   0  0  0  0  0  0  0  0  0  0  0  0
  1 23  1  0  0  0  0
  1  2  1  0  0  0  0
  2  3  1  0  0  0  0
  4  2  2  0  0  0  0
  4  5  1  0  0  0  0
  6  4  1  0  0  0  0
  7  8  1  0  0  0  0
  7  6  2  0  0  0  0
  8  1  2  0  0  0  0
  9  8  1  0  0  0  0
 10  7  1  0  0  0  0
 11 10  1  0  0  0  0
 11 20  1  0  0  0  0
 12 11  2  0  0  0  0
 13 12  1  0  0  0  0
 14 12  1  0  0  0  0
 14 16  2  0  0  0  0
 15 14  1  0  0  0  0
 16 18  1  0  0  0  0
 17 16  1  0  0  0  0
 18 20  2  0  0  0  0
 18 19  1  0  0  0  0
 20 21  1  0  0  0  0
 21  6  1  0  0  0  0
 21 22  1  0  0  0  0
 23 34  1  0  0  0  0
 23 24  1  1  0  0  0
 25 26  1  0  0  0  0
 25 31  1  0  0  0  0
 26 23  1  0  0  0  0
 27 26  2  0  0  0  0
 28 29  2  0  0  0  0
 28 27  1  0  0  0  0
 29 30  1  0  0  0  0
 30 25  2  0  0  0  0
 32 27  1  0  0  0  0
 33 29  1  0  0  0  0
 34 35  1  0  0  0  0
 34 37  1  0  0  0  0
 36 34  1  0  0  0  0
M  END
>  <minimizedAffinity>
-5.80453205

$$$$

 OpenBabel03252502373D

 37 40  0  0  1  0  0  0  0  0999 V2000
   37.8650   28.6460   42.1100 C   0  0  0  0  0  0  0  0  0  0  0  0
   38.4440   29.3580   43.1430 C   0  0  0  0  0  0  0  0  0  0  0  0
   38.1950   29.0210   44.1250 H   0  0  0  0  0  0  0  0  0  0  0  0
   39.2720   30.4120   42.8820 C   0  0  0  0  0  0  0  0  0  0  0  0
   39.6800   30.9090   43.7570 H   0  0  0  0  0  0  0  0  0  0  0  0
   39.5720   30.8170   41.6000 C   0  0  0  0  0  0  0  0  0  0  0  0
   39.0160   30.1360   40.5450 C   0  0  0  0  0  0  0  0  0  0  0  0
   38.1960   29.0920   40.8230 C   0  0  0  0  0  0  0  0  0  0  0  0
   37.7710   28.5720   39.9720 H   0  0  0  0  0  0  0  0  0  0  0  0
   39.3840   30.6350   38.8740 S   0  0  0  0  0  0  0  0  0  0  0  0
   40.4850   32.0260   39.0290 C   0  0  0  0  0  0  0  0  0  0  0  0
   40.9010   32.5760   37.8650 C   0  0  0  0  0  0  0  0  0  0  0  0
   40.5940   32.2090   36.8740 H   0  0  0  0  0  0  0  0  0  0  0  0
   41.7570   33.6580   37.8600 C   0  0  0  0  0  0  0  0  0  0  0  0
   42.1030   34.1170   36.9450 H   0  0  0  0  0  0  0  0  0  0  0  0
   42.1730   34.1600   39.0760 C   0  0  0  0  0  0  0  0  0  0  0  0
   42.8430   35.0070   39.1100 H   0  0  0  0  0  0  0  0  0  0  0  0
   41.7100   33.5520   40.2190 C   0  0  0  0  0  0  0  0  0  0  0  0
   42.0790   34.0000   41.1510 H   0  0  0  0  0  0  0  0  0  0  0  0
   40.8570   32.4710   40.2680 C   0  0  0  0  0  0  0  0  0  0  0  0
   40.4440   31.9230   41.5030 N   0  0  0  0  0  0  0  0  0  0  0  0
   40.8300   32.3940   42.3450 H   0  0  0  0  0  0  0  0  0  0  0  0
   36.9460   27.4810   42.2120 C   0  0  1  0  0  0  0  0  0  0  0  0
   36.0950   27.6600   41.5120 H   0  0  0  0  0  0  0  0  0  0  0  0
   37.0300   25.4650   40.8280 C   0  0  0  0  0  0  0  0  0  0  0  0
   37.5430   26.2050   41.8870 C   0  0  0  0  0  0  0  0  0  0  0  0
   38.6330   25.6320   42.5680 C   0  0  0  0  0  0  0  0  0  0  0  0
   39.0980   24.4260   42.1550 N   0  0  0  0  0  0  0  0  0  0  0  0
   38.5650   23.7600   41.1300 C   0  0  0  0  0  0  0  0  0  0  0  0
   37.5270   24.2760   40.4610 N   0  0  0  0  0  0  0  0  0  0  0  0
   36.1770   25.8360   40.2400 H   0  0  0  0  0  0  0  0  0  0  0  0
   39.0630   26.1760   43.3970 H   0  0  0  0  0  0  0  0  0  0  0  0
   38.9210   22.7950   40.7840 H   0  0  0  0  0  0  0  0  0  0  0  0
   36.3850   27.3890   43.6180 C   0  0  0  0  0  0  0  0  0  0  0  0
   35.6120   26.5910   43.6780 H   0  0  0  0  0  0  0  0  0  0  0  0
   37.2170   27.2310   44.3020 H   0  0  0  0  0  0  0  0  0  0  0  0
   35.8450   28.3520   43.7980 H   0  0  0  0  0  0  0  0  0  0  0  0
  1 23  1  0  0  0  0
  1  2  1  0  0  0  0
  2  3  1  0  0  0  0
  4  2  2  0  0  0  0
  4  5  1  0  0  0  0
  6  4  1  0  0  0  0
  7  8  1  0  0  0  0
  7  6  2  0  0  0  0
  8  1  2  0  0  0  0
  9  8  1  0  0  0  0
 10 11  1  0  0  0  0
 10  7  1  0  0  0  0
 11 20  1  0  0  0  0
 12 11  2  0  0  0  0
 13 12  1  0  0  0  0
 14 12  1  0  0  0  0
 14 16  2  0  0  0  0
 15 14  1  0  0  0  0
 16 17  1  0  0  0  0
 16 18  1  0  0  0  0
 18 20  2  0  0  0  0
 18 19  1  0  0  0  0
 20 21  1  0  0  0  0
 21  6  1  0  0  0  0
 21 22  1  0  0  0  0
 23 24  1  6  0  0  0
 23 34  1  0  0  0  0
 25 26  1  0  0  0  0
 26 23  1  0  0  0  0
 26 27  2  0  0  0  0
 27 32  1  0  0  0  0
 28 27  1  0  0  0  0
 29 28  2  0  0  0  0
 30 25  2  0  0  0  0
 30 29  1  0  0  0  0
 31 25  1  0  0  0  0
 33 29  1  0  0  0  0
 34 35  1  0  0  0  0
 34 37  1  0  0  0  0
 34 36  1  0  0  0  0
M  END
>  <minimizedAffinity>
-5.71460724

$$$$

 OpenBabel03252502373D

 37 40  0  0  1  0  0  0  0  0999 V2000
   36.9950   30.0000   39.4180 C   0  0  0  0  0  0  0  0  0  0  0  0
   36.6750   31.3320   39.5860 C   0  0  0  0  0  0  0  0  0  0  0  0
   35.6740   31.5240   39.9040 H   0  0  0  0  0  0  0  0  0  0  0  0
   37.6030   32.3060   39.3520 C   0  0  0  0  0  0  0  0  0  0  0  0
   37.2590   33.3230   39.5110 H   0  0  0  0  0  0  0  0  0  0  0  0
   38.8870   32.0200   38.9440 C   0  0  0  0  0  0  0  0  0  0  0  0
   39.2460   30.7070   38.7650 C   0  0  0  0  0  0  0  0  0  0  0  0
   38.3110   29.7540   39.0020 C   0  0  0  0  0  0  0  0  0  0  0  0
   38.6210   28.7250   38.8530 H   0  0  0  0  0  0  0  0  0  0  0  0
   40.9000   30.3030   38.2370 S   0  0  0  0  0  0  0  0  0  0  0  0
   41.7350   31.8660   38.0620 C   0  0  0  0  0  0  0  0  0  0  0  0
   43.0260   31.8000   37.6630 C   0  0  0  0  0  0  0  0  0  0  0  0
   43.5490   30.8560   37.4530 H   0  0  0  0  0  0  0  0  0  0  0  0
   43.7730   32.9470   37.4940 C   0  0  0  0  0  0  0  0  0  0  0  0
   44.8060   32.9220   37.1760 H   0  0  0  0  0  0  0  0  0  0  0  0
   43.1640   34.1590   37.7440 C   0  0  0  0  0  0  0  0  0  0  0  0
   43.7200   35.0780   37.6220 H   0  0  0  0  0  0  0  0  0  0  0  0
   41.8490   34.1520   38.1460 C   0  0  0  0  0  0  0  0  0  0  0  0
   41.4270   35.1480   38.3280 H   0  0  0  0  0  0  0  0  0  0  0  0
   41.0680   33.0320   38.3280 C   0  0  0  0  0  0  0  0  0  0  0  0
   39.7240   33.1400   38.7450 N   0  0  0  0  0  0  0  0  0  0  0  0
   39.3860   34.1110   38.9000 H   0  0  0  0  0  0  0  0  0  0  0  0
   36.1150   28.8190   39.6270 C   0  0  1  0  0  0  0  0  0  0  0  0
   36.0610   28.2620   38.6610 H   0  0  0  0  0  0  0  0  0  0  0  0
   36.9240   26.6100   40.3020 C   0  0  0  0  0  0  0  0  0  0  0  0
   36.5570   27.9040   40.6550 C   0  0  0  0  0  0  0  0  0  0  0  0
   36.6540   28.2200   42.0230 C   0  0  0  0  0  0  0  0  0  0  0  0
   37.0890   27.2650   42.8830 N   0  0  0  0  0  0  0  0  0  0  0  0
   37.4280   26.0370   42.4860 C   0  0  0  0  0  0  0  0  0  0  0  0
   37.3480   25.7040   41.1930 N   0  0  0  0  0  0  0  0  0  0  0  0
   36.8800   26.2760   39.2550 H   0  0  0  0  0  0  0  0  0  0  0  0
   36.3790   29.2160   42.3400 H   0  0  0  0  0  0  0  0  0  0  0  0
   37.7780   25.2590   43.1570 H   0  0  0  0  0  0  0  0  0  0  0  0
   34.7140   29.2780   39.9820 C   0  0  0  0  0  0  0  0  0  0  0  0
   34.0190   28.4100   40.0310 H   0  0  0  0  0  0  0  0  0  0  0  0
   34.7690   29.8340   40.9160 H   0  0  0  0  0  0  0  0  0  0  0  0
   34.3650   29.9000   39.1200 H   0  0  0  0  0  0  0  0  0  0  0  0
  1  2  1  0  0  0  0
  1 23  1  0  0  0  0
  2  3  1  0  0  0  0
  4  5  1  0  0  0  0
  4  2  2  0  0  0  0
  6  4  1  0  0  0  0
  7  6  2  0  0  0  0
  7  8  1  0  0  0  0
  8  1  2  0  0  0  0
  9  8  1  0  0  0  0
 10  7  1  0  0  0  0
 11 10  1  0  0  0  0
 11 20  1  0  0  0  0
 12 11  2  0  0  0  0
 13 12  1  0  0  0  0
 14 12  1  0  0  0  0
 14 16  2  0  0  0  0
 15 14  1  0  0  0  0
 16 18  1  0  0  0  0
 17 16  1  0  0  0  0
 18 19  1  0  0  0  0
 18 20  2  0  0  0  0
 20 21  1  0  0  0  0
 21 22  1  0  0  0  0
 21  6  1  0  0  0  0
 23 24  1  6  0  0  0
 23 34  1  0  0  0  0
 23 26  1  0  0  0  0
 25 26  2  0  0  0  0
 25 30  1  0  0  0  0
 26 27  1  0  0  0  0
 27 32  1  0  0  0  0
 27 28  2  0  0  0  0
 29 28  1  0  0  0  0
 29 33  1  0  0  0  0
 30 29  2  0  0  0  0
 31 25  1  0  0  0  0
 34 35  1  0  0  0  0
 34 36  1  0  0  0  0
 37 34  1  0  0  0  0
M  END
>  <minimizedAffinity>
-5.63066483

$$$$

 OpenBabel03252502373D

 37 40  0  0  1  0  0  0  0  0999 V2000
   38.9540   31.4570   41.2250 C   0  0  0  0  0  0  0  0  0  0  0  0
   39.5240   30.9290   42.3670 C   0  0  0  0  0  0  0  0  0  0  0  0
   40.0780   31.6210   42.9620 H   0  0  0  0  0  0  0  0  0  0  0  0
   39.3650   29.6080   42.6760 C   0  0  0  0  0  0  0  0  0  0  0  0
   39.8490   29.2850   43.5930 H   0  0  0  0  0  0  0  0  0  0  0  0
   38.6410   28.7450   41.8830 C   0  0  0  0  0  0  0  0  0  0  0  0
   38.0590   29.2310   40.7380 C   0  0  0  0  0  0  0  0  0  0  0  0
   38.2280   30.5450   40.4480 C   0  0  0  0  0  0  0  0  0  0  0  0
   37.7570   30.9030   39.5380 H   0  0  0  0  0  0  0  0  0  0  0  0
   37.1170   28.1410   39.6900 S   0  0  0  0  0  0  0  0  0  0  0  0
   37.1860   26.5470   40.4830 C   0  0  0  0  0  0  0  0  0  0  0  0
   36.5260   25.5500   39.8510 C   0  0  0  0  0  0  0  0  0  0  0  0
   35.9760   25.6850   38.9080 H   0  0  0  0  0  0  0  0  0  0  0  0
   36.5100   24.2720   40.3720 C   0  0  0  0  0  0  0  0  0  0  0  0
   35.9920   23.4570   39.8870 H   0  0  0  0  0  0  0  0  0  0  0  0
   37.1850   24.0470   41.5540 C   0  0  0  0  0  0  0  0  0  0  0  0
   37.1940   23.0580   41.9910 H   0  0  0  0  0  0  0  0  0  0  0  0
   37.8340   25.1070   42.1420 C   0  0  0  0  0  0  0  0  0  0  0  0
   38.3500   24.8590   43.0770 H   0  0  0  0  0  0  0  0  0  0  0  0
   37.8740   26.3960   41.6560 C   0  0  0  0  0  0  0  0  0  0  0  0
   38.5730   27.4120   42.3440 N   0  0  0  0  0  0  0  0  0  0  0  0
   39.0390   27.1110   43.2220 H   0  0  0  0  0  0  0  0  0  0  0  0
   39.0260   32.8620   40.7390 C   0  0  1  0  0  0  0  0  0  0  0  0
   39.0200   33.5300   41.6330 H   0  0  0  0  0  0  0  0  0  0  0  0
   41.2600   33.8390   40.5380 C   0  0  0  0  0  0  0  0  0  0  0  0
   40.1930   33.1720   39.9450 C   0  0  0  0  0  0  0  0  0  0  0  0
   40.3510   32.8450   38.5860 C   0  0  0  0  0  0  0  0  0  0  0  0
   41.5030   33.1940   37.9610 N   0  0  0  0  0  0  0  0  0  0  0  0
   42.4950   33.8350   38.5820 C   0  0  0  0  0  0  0  0  0  0  0  0
   42.3780   34.1610   39.8750 N   0  0  0  0  0  0  0  0  0  0  0  0
   41.2240   34.1340   41.5980 H   0  0  0  0  0  0  0  0  0  0  0  0
   39.5450   32.3260   38.0870 H   0  0  0  0  0  0  0  0  0  0  0  0
   43.4250   34.1230   38.1020 H   0  0  0  0  0  0  0  0  0  0  0  0
   37.7980   33.1810   39.9070 C   0  0  0  0  0  0  0  0  0  0  0  0
   37.7840   34.2580   39.6310 H   0  0  0  0  0  0  0  0  0  0  0  0
   37.7960   32.5180   39.0430 H   0  0  0  0  0  0  0  0  0  0  0  0
   36.9200   33.0260   40.5820 H   0  0  0  0  0  0  0  0  0  0  0  0
  1  2  1  0  0  0  0
  2  4  2  0  0  0  0
  2  3  1  0  0  0  0
  4  5  1  0  0  0  0
  6 21  1  0  0  0  0
  6  4  1  0  0  0  0
  7  6  2  0  0  0  0
  8  7  1  0  0  0  0
  8  1  2  0  0  0  0
  9  8  1  0  0  0  0
 10 11  1  0  0  0  0
 10  7  1  0  0  0  0
 11 20  1  0  0  0  0
 12 14  1  0  0  0  0
 12 11  2  0  0  0  0
 13 12  1  0  0  0  0
 14 16  2  0  0  0  0
 15 14  1  0  0  0  0
 16 17  1  0  0  0  0
 16 18  1  0  0  0  0
 18 19  1  0  0  0  0
 20 18  2  0  0  0  0
 20 21  1  0  0  0  0
 21 22  1  0  0  0  0
 23  1  1  0  0  0  0
 23 24  1  1  0  0  0
 25 31  1  0  0  0  0
 26 25  1  0  0  0  0
 26 23  1  0  0  0  0
 27 26  2  0  0  0  0
 28 29  2  0  0  0  0
 28 27  1  0  0  0  0
 29 30  1  0  0  0  0
 30 25  2  0  0  0  0
 32 27  1  0  0  0  0
 33 29  1  0  0  0  0
 34 37  1  0  0  0  0
 34 23  1  0  0  0  0
 35 34  1  0  0  0  0
 36 34  1  0  0  0  0
M  END
>  <minimizedAffinity>
-5.57050705

$$$$

 OpenBabel03252502373D

 37 40  0  0  1  0  0  0  0  0999 V2000
   37.0680   29.9410   38.8340 C   0  0  0  0  0  0  0  0  0  0  0  0
   37.0100   30.4720   37.5600 C   0  0  0  0  0  0  0  0  0  0  0  0
   36.1400   30.2120   36.9970 H   0  0  0  0  0  0  0  0  0  0  0  0
   38.0150   31.2680   37.0920 C   0  0  0  0  0  0  0  0  0  0  0  0
   37.8820   31.6380   36.0810 H   0  0  0  0  0  0  0  0  0  0  0  0
   39.1230   31.5820   37.8490 C   0  0  0  0  0  0  0  0  0  0  0  0
   39.2190   31.0740   39.1210 C   0  0  0  0  0  0  0  0  0  0  0  0
   38.2110   30.2850   39.5690 C   0  0  0  0  0  0  0  0  0  0  0  0
   38.3120   29.8970   40.5770 H   0  0  0  0  0  0  0  0  0  0  0  0
   40.6390   31.4610   40.1260 S   0  0  0  0  0  0  0  0  0  0  0  0
   41.6620   32.5090   39.1130 C   0  0  0  0  0  0  0  0  0  0  0  0
   42.8140   32.9310   39.6840 C   0  0  0  0  0  0  0  0  0  0  0  0
   43.1230   32.6590   40.7040 H   0  0  0  0  0  0  0  0  0  0  0  0
   43.6860   33.7480   38.9950 C   0  0  0  0  0  0  0  0  0  0  0  0
   44.6130   34.0980   39.4270 H   0  0  0  0  0  0  0  0  0  0  0  0
   43.3480   34.1190   37.7110 C   0  0  0  0  0  0  0  0  0  0  0  0
   44.0080   34.7580   37.1410 H   0  0  0  0  0  0  0  0  0  0  0  0
   42.1620   33.6520   37.1930 C   0  0  0  0  0  0  0  0  0  0  0  0
   41.9540   33.9850   36.1680 H   0  0  0  0  0  0  0  0  0  0  0  0
   41.2640   32.8370   37.8460 C   0  0  0  0  0  0  0  0  0  0  0  0
   40.0710   32.4160   37.2180 N   0  0  0  0  0  0  0  0  0  0  0  0
   39.9350   32.7670   36.2490 H   0  0  0  0  0  0  0  0  0  0  0  0
   36.0690   29.0610   39.5000 C   0  0  1  0  0  0  0  0  0  0  0  0
   35.2480   28.8690   38.7690 H   0  0  0  0  0  0  0  0  0  0  0  0
   36.7640   27.5740   41.3140 C   0  0  0  0  0  0  0  0  0  0  0  0
   36.5850   27.7890   39.9520 C   0  0  0  0  0  0  0  0  0  0  0  0
   36.9290   26.7160   39.1080 C   0  0  0  0  0  0  0  0  0  0  0  0
   37.4000   25.5730   39.6670 N   0  0  0  0  0  0  0  0  0  0  0  0
   37.5510   25.4230   40.9840 C   0  0  0  0  0  0  0  0  0  0  0  0
   37.2340   26.4230   41.8150 N   0  0  0  0  0  0  0  0  0  0  0  0
   36.5220   28.3580   42.0470 H   0  0  0  0  0  0  0  0  0  0  0  0
   36.8040   26.8420   38.0430 H   0  0  0  0  0  0  0  0  0  0  0  0
   37.9250   24.5180   41.4520 H   0  0  0  0  0  0  0  0  0  0  0  0
   35.4730   29.7750   40.6980 C   0  0  0  0  0  0  0  0  0  0  0  0
   34.6460   29.1740   41.1380 H   0  0  0  0  0  0  0  0  0  0  0  0
   36.2770   29.9770   41.4040 H   0  0  0  0  0  0  0  0  0  0  0  0
   34.9960   30.7040   40.2970 H   0  0  0  0  0  0  0  0  0  0  0  0
  1 23  1  0  0  0  0
  1  8  1  0  0  0  0
  2  1  2  0  0  0  0
  3  2  1  0  0  0  0
  4  2  1  0  0  0  0
  4  6  2  0  0  0  0
  5  4  1  0  0  0  0
  6  7  1  0  0  0  0
  7  8  2  0  0  0  0
  7 10  1  0  0  0  0
  8  9  1  0  0  0  0
 11 12  1  0  0  0  0
 11 10  1  0  0  0  0
 12 13  1  0  0  0  0
 14 15  1  0  0  0  0
 14 12  2  0  0  0  0
 16 14  1  0  0  0  0
 17 16  1  0  0  0  0
 18 16  2  0  0  0  0
 18 20  1  0  0  0  0
 19 18  1  0  0  0  0
 20 11  2  0  0  0  0
 21 20  1  0  0  0  0
 21  6  1  0  0  0  0
 22 21  1  0  0  0  0
 23 24  1  6  0  0  0
 23 26  1  0  0  0  0
 23 34  1  0  0  0  0
 25 30  1  0  0  0  0
 25 31  1  0  0  0  0
 26 25  2  0  0  0  0
 27 28  2  0  0  0  0
 27 26  1  0  0  0  0
 28 29  1  0  0  0  0
 29 33  1  0  0  0  0
 29 30  2  0  0  0  0
 32 27  1  0  0  0  0
 34 35  1  0  0  0  0
 34 36  1  0  0  0  0
 37 34  1  0  0  0  0
M  END
>  <minimizedAffinity>
-5.43240976

$$$$

 OpenBabel03252502373D

 37 40  0  0  1  0  0  0  0  0999 V2000
   36.6880   30.2440   38.6440 C   0  0  0  0  0  0  0  0  0  0  0  0
   36.8750   30.5370   37.3070 C   0  0  0  0  0  0  0  0  0  0  0  0
   36.1120   30.1800   36.6510 H   0  0  0  0  0  0  0  0  0  0  0  0
   37.9730   31.2360   36.8940 C   0  0  0  0  0  0  0  0  0  0  0  0
   38.0330   31.4180   35.8260 H   0  0  0  0  0  0  0  0  0  0  0  0
   38.9370   31.6820   37.7710 C   0  0  0  0  0  0  0  0  0  0  0  0
   38.7900   31.4110   39.1090 C   0  0  0  0  0  0  0  0  0  0  0  0
   37.6930   30.7160   39.5000 C   0  0  0  0  0  0  0  0  0  0  0  0
   37.6010   30.5160   40.5620 H   0  0  0  0  0  0  0  0  0  0  0  0
   40.0200   31.9740   40.2690 S   0  0  0  0  0  0  0  0  0  0  0  0
   41.2410   32.8230   39.2890 C   0  0  0  0  0  0  0  0  0  0  0  0
   42.2850   33.3410   39.9740 C   0  0  0  0  0  0  0  0  0  0  0  0
   42.3990   33.2580   41.0650 H   0  0  0  0  0  0  0  0  0  0  0  0
   43.2920   34.0210   39.3200 C   0  0  0  0  0  0  0  0  0  0  0  0
   44.1380   34.4440   39.8430 H   0  0  0  0  0  0  0  0  0  0  0  0
   43.1990   34.1540   37.9500 C   0  0  0  0  0  0  0  0  0  0  0  0
   43.9700   34.6810   37.4050 H   0  0  0  0  0  0  0  0  0  0  0  0
   42.1100   33.6020   37.3180 C   0  0  0  0  0  0  0  0  0  0  0  0
   42.0980   33.7440   36.2300 H   0  0  0  0  0  0  0  0  0  0  0  0
   41.0840   32.9170   37.9320 C   0  0  0  0  0  0  0  0  0  0  0  0
   40.0090   32.3890   37.1840 N   0  0  0  0  0  0  0  0  0  0  0  0
   40.0590   32.5590   36.1600 H   0  0  0  0  0  0  0  0  0  0  0  0
   35.5600   29.4980   39.2630 C   0  0  1  0  0  0  0  0  0  0  0  0
   34.7050   30.2070   39.3700 H   0  0  0  0  0  0  0  0  0  0  0  0
   33.9340   28.4370   37.7740 C   0  0  0  0  0  0  0  0  0  0  0  0
   35.1080   28.3480   38.5150 C   0  0  0  0  0  0  0  0  0  0  0  0
   35.7730   27.1080   38.4670 C   0  0  0  0  0  0  0  0  0  0  0  0
   35.2380   26.1100   37.7200 N   0  0  0  0  0  0  0  0  0  0  0  0
   34.1070   26.2540   37.0280 C   0  0  0  0  0  0  0  0  0  0  0  0
   33.4490   27.4190   37.0510 N   0  0  0  0  0  0  0  0  0  0  0  0
   33.3490   29.3680   37.7530 H   0  0  0  0  0  0  0  0  0  0  0  0
   36.6890   26.9960   39.0290 H   0  0  0  0  0  0  0  0  0  0  0  0
   33.6620   25.4690   36.4240 H   0  0  0  0  0  0  0  0  0  0  0  0
   35.9550   29.0280   40.6500 C   0  0  0  0  0  0  0  0  0  0  0  0
   35.0850   28.5660   41.1680 H   0  0  0  0  0  0  0  0  0  0  0  0
   36.8000   28.3480   40.5470 H   0  0  0  0  0  0  0  0  0  0  0  0
   36.2020   29.9510   41.2310 H   0  0  0  0  0  0  0  0  0  0  0  0
  1 23  1  0  0  0  0
  1  8  1  0  0  0  0
  2  1  2  0  0  0  0
  3  2  1  0  0  0  0
  4  2  1  0  0  0  0
  4  6  2  0  0  0  0
  5  4  1  0  0  0  0
  6  7  1  0  0  0  0
  7  8  2  0  0  0  0
  7 10  1  0  0  0  0
  8  9  1  0  0  0  0
 11 12  1  0  0  0  0
 11 10  1  0  0  0  0
 12 13  1  0  0  0  0
 14 15  1  0  0  0  0
 14 12  2  0  0  0  0
 16 14  1  0  0  0  0
 17 16  1  0  0  0  0
 18 20  1  0  0  0  0
 18 16  2  0  0  0  0
 19 18  1  0  0  0  0
 20 11  2  0  0  0  0
 21  6  1  0  0  0  0
 21 20  1  0  0  0  0
 22 21  1  0  0  0  0
 23 24  1  1  0  0  0
 23 34  1  0  0  0  0
 25 26  1  0  0  0  0
 26 23  1  0  0  0  0
 27 26  2  0  0  0  0
 27 32  1  0  0  0  0
 28 27  1  0  0  0  0
 29 30  1  0  0  0  0
 29 28  2  0  0  0  0
 30 25  2  0  0  0  0
 31 25  1  0  0  0  0
 33 29  1  0  0  0  0
 34 35  1  0  0  0  0
 34 37  1  0  0  0  0
 36 34  1  0  0  0  0
M  END
>  <minimizedAffinity>
-5.42911863

$$$$

 OpenBabel03252502373D

 37 40  0  0  1  0  0  0  0  0999 V2000
   33.8750   28.9190   37.0820 C   0  0  0  0  0  0  0  0  0  0  0  0
   34.9830   29.1690   36.2950 C   0  0  0  0  0  0  0  0  0  0  0  0
   34.7990   29.1950   35.2440 H   0  0  0  0  0  0  0  0  0  0  0  0
   36.2090   29.3650   36.8630 C   0  0  0  0  0  0  0  0  0  0  0  0
   37.0180   29.5560   36.1650 H   0  0  0  0  0  0  0  0  0  0  0  0
   36.4070   29.3260   38.2250 C   0  0  0  0  0  0  0  0  0  0  0  0
   35.3320   29.0790   39.0420 C   0  0  0  0  0  0  0  0  0  0  0  0
   34.1220   28.8870   38.4610 C   0  0  0  0  0  0  0  0  0  0  0  0
   33.2900   28.6940   39.1300 H   0  0  0  0  0  0  0  0  0  0  0  0
   35.5560   29.0210   40.8100 S   0  0  0  0  0  0  0  0  0  0  0  0
   37.2900   29.3290   41.0770 C   0  0  0  0  0  0  0  0  0  0  0  0
   37.6920   29.3310   42.3680 C   0  0  0  0  0  0  0  0  0  0  0  0
   37.0140   29.1570   43.2170 H   0  0  0  0  0  0  0  0  0  0  0  0
   39.0120   29.5590   42.6970 C   0  0  0  0  0  0  0  0  0  0  0  0
   39.3600   29.5650   43.7200 H   0  0  0  0  0  0  0  0  0  0  0  0
   39.9050   29.7830   41.6700 C   0  0  0  0  0  0  0  0  0  0  0  0
   40.9480   29.9640   41.8900 H   0  0  0  0  0  0  0  0  0  0  0  0
   39.4270   29.7660   40.3810 C   0  0  0  0  0  0  0  0  0  0  0  0
   40.1890   29.9510   39.6130 H   0  0  0  0  0  0  0  0  0  0  0  0
   38.1190   29.5440   40.0100 C   0  0  0  0  0  0  0  0  0  0  0  0
   37.7350   29.5490   38.6500 N   0  0  0  0  0  0  0  0  0  0  0  0
   38.5050   29.7310   37.9760 H   0  0  0  0  0  0  0  0  0  0  0  0
   32.4760   28.6840   36.6350 C   0  0  1  0  0  0  0  0  0  0  0  0
   32.0750   27.8210   37.2190 H   0  0  0  0  0  0  0  0  0  0  0  0
   31.4600   30.7430   35.7890 C   0  0  0  0  0  0  0  0  0  0  0  0
   31.5840   29.8080   36.8100 C   0  0  0  0  0  0  0  0  0  0  0  0
   30.8050   30.0430   37.9580 C   0  0  0  0  0  0  0  0  0  0  0  0
   30.0050   31.1380   37.9900 N   0  0  0  0  0  0  0  0  0  0  0  0
   29.9270   32.0030   36.9770 C   0  0  0  0  0  0  0  0  0  0  0  0
   30.6540   31.8100   35.8700 N   0  0  0  0  0  0  0  0  0  0  0  0
   32.0320   30.6390   34.8550 H   0  0  0  0  0  0  0  0  0  0  0  0
   30.8710   29.3390   38.7760 H   0  0  0  0  0  0  0  0  0  0  0  0
   29.2940   32.8850   36.9810 H   0  0  0  0  0  0  0  0  0  0  0  0
   32.4620   28.3020   35.1670 C   0  0  0  0  0  0  0  0  0  0  0  0
   31.4360   28.0160   34.8480 H   0  0  0  0  0  0  0  0  0  0  0  0
   32.8680   29.1380   34.5980 H   0  0  0  0  0  0  0  0  0  0  0  0
   33.0790   27.3730   35.0830 H   0  0  0  0  0  0  0  0  0  0  0  0
  1  8  1  0  0  0  0
  2  4  1  0  0  0  0
  2  1  2  0  0  0  0
  3  2  1  0  0  0  0
  4  6  2  0  0  0  0
  5  4  1  0  0  0  0
  6 21  1  0  0  0  0
  6  7  1  0  0  0  0
  7 10  1  0  0  0  0
  8  7  2  0  0  0  0
  8  9  1  0  0  0  0
 10 11  1  0  0  0  0
 11 12  1  0  0  0  0
 12 14  2  0  0  0  0
 12 13  1  0  0  0  0
 14 15  1  0  0  0  0
 16 17  1  0  0  0  0
 16 14  1  0  0  0  0
 18 16  2  0  0  0  0
 19 18  1  0  0  0  0
 20 18  1  0  0  0  0
 20 11  2  0  0  0  0
 21 20  1  0  0  0  0
 22 21  1  0  0  0  0
 23 26  1  0  0  0  0
 23  1  1  0  0  0  0
 23 24  1  1  0  0  0
 25 30  2  0  0  0  0
 25 26  1  0  0  0  0
 26 27  2  0  0  0  0
 27 28  1  0  0  0  0
 27 32  1  0  0  0  0
 29 33  1  0  0  0  0
 29 28  2  0  0  0  0
 30 29  1  0  0  0  0
 31 25  1  0  0  0  0
 34 23  1  0  0  0  0
 35 34  1  0  0  0  0
 36 34  1  0  0  0  0
 37 34  1  0  0  0  0
M  END
>  <minimizedAffinity>
-5.37087822

$$$$
