
 OpenBabel03252502363D

 37 40  0  0  1  0  0  0  0  0999 V2000
   45.8350   34.2920   40.8650 C   0  0  0  0  0  0  0  0  0  0  0  0
   46.5270   33.5110   39.9600 C   0  0  0  0  0  0  0  0  0  0  0  0
   47.5900   33.5980   40.0000 H   0  0  0  0  0  0  0  0  0  0  0  0
   45.8580   32.6990   39.0890 C   0  0  0  0  0  0  0  0  0  0  0  0
   46.4860   32.1230   38.4160 H   0  0  0  0  0  0  0  0  0  0  0  0
   44.4820   32.6130   39.0660 C   0  0  0  0  0  0  0  0  0  0  0  0
   43.7590   33.3730   39.9500 C   0  0  0  0  0  0  0  0  0  0  0  0
   44.4400   34.1740   40.8070 C   0  0  0  0  0  0  0  0  0  0  0  0
   43.8430   34.7640   41.4950 H   0  0  0  0  0  0  0  0  0  0  0  0
   41.9790   33.2850   39.9450 S   0  0  0  0  0  0  0  0  0  0  0  0
   41.5670   32.1170   38.6660 C   0  0  0  0  0  0  0  0  0  0  0  0
   40.2460   31.8900   38.4830 C   0  0  0  0  0  0  0  0  0  0  0  0
   39.4570   32.3810   39.0710 H   0  0  0  0  0  0  0  0  0  0  0  0
   39.8080   31.0040   37.5200 C   0  0  0  0  0  0  0  0  0  0  0  0
   38.7580   30.8060   37.3530 H   0  0  0  0  0  0  0  0  0  0  0  0
   40.7570   30.3610   36.7530 C   0  0  0  0  0  0  0  0  0  0  0  0
   40.4490   29.6590   35.9890 H   0  0  0  0  0  0  0  0  0  0  0  0
   42.0820   30.6380   36.9940 C   0  0  0  0  0  0  0  0  0  0  0  0
   42.7820   30.0940   36.3500 H   0  0  0  0  0  0  0  0  0  0  0  0
   42.5610   31.5140   37.9440 C   0  0  0  0  0  0  0  0  0  0  0  0
   43.9470   31.7250   38.1060 N   0  0  0  0  0  0  0  0  0  0  0  0
   44.5560   31.1790   37.4650 H   0  0  0  0  0  0  0  0  0  0  0  0
   46.3980   35.2270   41.8760 C   0  0  1  0  0  0  0  0  0  0  0  0
   46.1860   36.2660   41.5310 H   0  0  0  0  0  0  0  0  0  0  0  0
   45.0040   36.0400   43.7150 C   0  0  0  0  0  0  0  0  0  0  0  0
   45.8660   35.0720   43.2110 C   0  0  0  0  0  0  0  0  0  0  0  0
   46.1480   33.9920   44.0680 C   0  0  0  0  0  0  0  0  0  0  0  0
   45.5760   33.9700   45.2980 N   0  0  0  0  0  0  0  0  0  0  0  0
   44.7550   34.9290   45.7300 C   0  0  0  0  0  0  0  0  0  0  0  0
   44.4650   35.9700   44.9400 N   0  0  0  0  0  0  0  0  0  0  0  0
   44.7280   36.9190   43.1140 H   0  0  0  0  0  0  0  0  0  0  0  0
   46.8120   33.2170   43.7150 H   0  0  0  0  0  0  0  0  0  0  0  0
   44.2870   34.9310   46.7090 H   0  0  0  0  0  0  0  0  0  0  0  0
   47.9030   35.0570   41.9520 C   0  0  0  0  0  0  0  0  0  0  0  0
   48.3500   35.8250   42.6220 H   0  0  0  0  0  0  0  0  0  0  0  0
   48.1110   34.0370   42.2740 H   0  0  0  0  0  0  0  0  0  0  0  0
   48.2920   35.2820   40.9280 H   0  0  0  0  0  0  0  0  0  0  0  0
  1 23  1  0  0  0  0
  2  3  1  0  0  0  0
  2  1  2  0  0  0  0
  4  2  1  0  0  0  0
  5  4  1  0  0  0  0
  6  4  2  0  0  0  0
  6  7  1  0  0  0  0
  7  8  2  0  0  0  0
  8  1  1  0  0  0  0
  8  9  1  0  0  0  0
 10  7  1  0  0  0  0
 11 10  1  0  0  0  0
 12 11  1  0  0  0  0
 12 13  1  0  0  0  0
 14 12  2  0  0  0  0
 15 14  1  0  0  0  0
 16 18  2  0  0  0  0
 16 14  1  0  0  0  0
 17 16  1  0  0  0  0
 18 20  1  0  0  0  0
 19 18  1  0  0  0  0
 20 21  1  0  0  0  0
 20 11  2  0  0  0  0
 21  6  1  0  0  0  0
 22 21  1  0  0  0  0
 23 24  1  6  0  0  0
 23 34  1  0  0  0  0
 23 26  1  0  0  0  0
 25 30  1  0  0  0  0
 26 25  2  0  0  0  0
 26 27  1  0  0  0  0
 27 28  2  0  0  0  0
 28 29  1  0  0  0  0
 29 33  1  0  0  0  0
 30 29  2  0  0  0  0
 31 25  1  0  0  0  0
 32 27  1  0  0  0  0
 34 36  1  0  0  0  0
 34 35  1  0  0  0  0
 37 34  1  0  0  0  0
M  END
>  <minimizedAffinity>
-5.4312191

>  <minimizedRMSD>
0.742853165

$$$$
