
 OpenBabel03252503493D

 34 37  0  0  0  0  0  0  0  0999 V2000
   45.3790   28.5260   46.3340 C   0  0  0  0  0  0  0  0  0  0  0  0
   44.2450   27.9070   46.8130 C   0  0  0  0  0  0  0  0  0  0  0  0
   43.2960   28.2860   46.5110 H   0  0  0  0  0  0  0  0  0  0  0  0
   44.3660   26.8270   47.6620 C   0  0  0  0  0  0  0  0  0  0  0  0
   43.4110   26.4010   47.9910 H   0  0  0  0  0  0  0  0  0  0  0  0
   45.5720   26.3030   48.0800 C   0  0  0  0  0  0  0  0  0  0  0  0
   46.6860   26.9380   47.5860 C   0  0  0  0  0  0  0  0  0  0  0  0
   46.5830   28.0000   46.7530 C   0  0  0  0  0  0  0  0  0  0  0  0
   47.5100   28.4660   46.3910 H   0  0  0  0  0  0  0  0  0  0  0  0
   48.2750   26.3320   48.0700 S   0  0  0  0  0  0  0  0  0  0  0  0
   47.9940   24.9490   49.1550 C   0  0  0  0  0  0  0  0  0  0  0  0
   49.0640   24.2870   49.6790 C   0  0  0  0  0  0  0  0  0  0  0  0
   50.0740   24.6140   49.4280 H   0  0  0  0  0  0  0  0  0  0  0  0
   48.9190   23.2100   50.5250 C   0  0  0  0  0  0  0  0  0  0  0  0
   49.7300   22.6550   50.9640 H   0  0  0  0  0  0  0  0  0  0  0  0
   47.6340   22.8140   50.8290 C   0  0  0  0  0  0  0  0  0  0  0  0
   47.4710   21.9730   51.4880 H   0  0  0  0  0  0  0  0  0  0  0  0
   46.5800   23.5110   50.2770 C   0  0  0  0  0  0  0  0  0  0  0  0
   45.5860   23.1350   50.5660 H   0  0  0  0  0  0  0  0  0  0  0  0
   46.6980   24.5910   49.4280 C   0  0  0  0  0  0  0  0  0  0  0  0
   45.5250   25.1900   48.9520 N   0  0  0  0  0  0  0  0  0  0  0  0
   44.6020   24.8080   49.2480 H   0  0  0  0  0  0  0  0  0  0  0  0
   45.8500   31.9860   44.9330 C   0  0  0  0  0  0  0  0  0  0  0  0
   45.8570   30.9220   45.8390 C   0  0  0  0  0  0  0  0  0  0  0  0
   45.3960   29.6700   45.4340 C   0  0  0  0  0  0  0  0  0  0  0  0
   44.9570   29.5590   44.1540 N   0  0  0  0  0  0  0  0  0  0  0  0
   44.9550   30.5840   43.2930 C   0  0  0  0  0  0  0  0  0  0  0  0
   45.3960   31.7800   43.6840 N   0  0  0  0  0  0  0  0  0  0  0  0
   46.2130   31.0810   46.8250 H   0  0  0  0  0  0  0  0  0  0  0  0
   44.5860   30.3980   42.2930 H   0  0  0  0  0  0  0  0  0  0  0  0
   46.3500   33.3080   45.4050 C   0  0  0  0  0  0  0  0  0  0  0  0
   47.1900   33.8910   44.4900 F   0  0  0  0  0  0  0  0  0  0  0  0
   45.2680   34.1050   45.7110 F   0  0  0  0  0  0  0  0  0  0  0  0
   47.0390   33.1180   46.6150 F   0  0  0  0  0  0  0  0  0  0  0  0
  1  8  2  0  0  0  0
  1  2  1  0  0  0  0
  2  4  2  0  0  0  0
  3  2  1  0  0  0  0
  4  5  1  0  0  0  0
  4  6  1  0  0  0  0
  6 21  1  0  0  0  0
  7 10  1  0  0  0  0
  7  6  2  0  0  0  0
  8  7  1  0  0  0  0
  9  8  1  0  0  0  0
 10 11  1  0  0  0  0
 11 20  2  0  0  0  0
 11 12  1  0  0  0  0
 12 14  2  0  0  0  0
 13 12  1  0  0  0  0
 14 16  1  0  0  0  0
 14 15  1  0  0  0  0
 16 17  1  0  0  0  0
 18 19  1  0  0  0  0
 18 16  2  0  0  0  0
 20 18  1  0  0  0  0
 21 22  1  0  0  0  0
 21 20  1  0  0  0  0
 23 31  1  0  0  0  0
 23 24  1  0  0  0  0
 24 29  1  0  0  0  0
 25 24  2  0  0  0  0
 25  1  1  0  0  0  0
 26 25  1  0  0  0  0
 27 28  1  0  0  0  0
 27 26  2  0  0  0  0
 28 23  2  0  0  0  0
 30 27  1  0  0  0  0
 31 33  1  0  0  0  0
 31 34  1  0  0  0  0
 32 31  1  0  0  0  0
M  END
>  <minimizedAffinity>
-4.91345119

>  <minimizedRMSD>
4.9717145

$$$$
