
 OpenBabel03252503503D

 34 37  0  0  0  0  0  0  0  0999 V2000
   46.6710   32.3710   45.1360 C   0  0  0  0  0  0  0  0  0  0  0  0
   46.9050   32.4450   46.4920 C   0  0  0  0  0  0  0  0  0  0  0  0
   47.0380   33.4070   46.9310 H   0  0  0  0  0  0  0  0  0  0  0  0
   46.9590   31.2850   47.2380 C   0  0  0  0  0  0  0  0  0  0  0  0
   47.1490   31.4420   48.3050 H   0  0  0  0  0  0  0  0  0  0  0  0
   46.7920   30.0200   46.7120 C   0  0  0  0  0  0  0  0  0  0  0  0
   46.5600   29.9770   45.3590 C   0  0  0  0  0  0  0  0  0  0  0  0
   46.5050   31.1050   44.6150 C   0  0  0  0  0  0  0  0  0  0  0  0
   46.3180   31.0060   43.5360 H   0  0  0  0  0  0  0  0  0  0  0  0
   46.3350   28.3940   44.6010 S   0  0  0  0  0  0  0  0  0  0  0  0
   46.4770   27.1760   45.8930 C   0  0  0  0  0  0  0  0  0  0  0  0
   46.3430   25.8580   45.5800 C   0  0  0  0  0  0  0  0  0  0  0  0
   46.1500   25.5680   44.5470 H   0  0  0  0  0  0  0  0  0  0  0  0
   46.4410   24.8650   46.5290 C   0  0  0  0  0  0  0  0  0  0  0  0
   46.3420   23.8100   46.3330 H   0  0  0  0  0  0  0  0  0  0  0  0
   46.6840   25.2530   47.8280 C   0  0  0  0  0  0  0  0  0  0  0  0
   46.7690   24.5090   48.6090 H   0  0  0  0  0  0  0  0  0  0  0  0
   46.8140   26.5990   48.1020 C   0  0  0  0  0  0  0  0  0  0  0  0
   47.0070   26.8320   49.1610 H   0  0  0  0  0  0  0  0  0  0  0  0
   46.7190   27.6120   47.1720 C   0  0  0  0  0  0  0  0  0  0  0  0
   46.8760   28.9330   47.6130 N   0  0  0  0  0  0  0  0  0  0  0  0
   47.0570   29.1130   48.6230 H   0  0  0  0  0  0  0  0  0  0  0  0
   47.4780   34.9200   42.4880 C   0  0  0  0  0  0  0  0  0  0  0  0
   47.6070   33.8130   43.3300 C   0  0  0  0  0  0  0  0  0  0  0  0
   46.5900   33.5120   44.2340 C   0  0  0  0  0  0  0  0  0  0  0  0
   45.5080   34.3320   44.2420 N   0  0  0  0  0  0  0  0  0  0  0  0
   45.3930   35.3910   43.4310 C   0  0  0  0  0  0  0  0  0  0  0  0
   46.3690   35.6770   42.5680 N   0  0  0  0  0  0  0  0  0  0  0  0
   48.4810   33.2150   43.2720 H   0  0  0  0  0  0  0  0  0  0  0  0
   44.4920   35.9860   43.5090 H   0  0  0  0  0  0  0  0  0  0  0  0
   48.5870   35.2090   41.5370 C   0  0  0  0  0  0  0  0  0  0  0  0
   48.1840   35.0870   40.2320 F   0  0  0  0  0  0  0  0  0  0  0  0
   49.0950   36.4590   41.8190 F   0  0  0  0  0  0  0  0  0  0  0  0
   49.6350   34.3070   41.7870 F   0  0  0  0  0  0  0  0  0  0  0  0
  1  2  1  0  0  0  0
  2  3  1  0  0  0  0
  2  4  2  0  0  0  0
  4  5  1  0  0  0  0
  6  4  1  0  0  0  0
  6 21  1  0  0  0  0
  7  6  2  0  0  0  0
  8  1  2  0  0  0  0
  8  7  1  0  0  0  0
  9  8  1  0  0  0  0
 10  7  1  0  0  0  0
 10 11  1  0  0  0  0
 11 20  1  0  0  0  0
 12 11  2  0  0  0  0
 12 14  1  0  0  0  0
 13 12  1  0  0  0  0
 14 16  2  0  0  0  0
 15 14  1  0  0  0  0
 16 18  1  0  0  0  0
 16 17  1  0  0  0  0
 18 19  1  0  0  0  0
 20 21  1  0  0  0  0
 20 18  2  0  0  0  0
 21 22  1  0  0  0  0
 23 28  2  0  0  0  0
 23 24  1  0  0  0  0
 24 25  2  0  0  0  0
 25 26  1  0  0  0  0
 25  1  1  0  0  0  0
 27 30  1  0  0  0  0
 27 26  2  0  0  0  0
 28 27  1  0  0  0  0
 29 24  1  0  0  0  0
 31 34  1  0  0  0  0
 31 33  1  0  0  0  0
 31 23  1  0  0  0  0
 32 31  1  0  0  0  0
M  END
>  <minimizedAffinity>
-5.50273895

>  <minimizedRMSD>
0.503804743

$$$$
