
 OpenBabel03252503503D

 34 37  0  0  0  0  0  0  0  0999 V2000
   46.3020   31.8410   44.2160 C   0  0  0  0  0  0  0  0  0  0  0  0
   45.3040   30.9240   43.9650 C   0  0  0  0  0  0  0  0  0  0  0  0
   44.5250   31.1950   43.2920 H   0  0  0  0  0  0  0  0  0  0  0  0
   45.3410   29.6930   44.5880 C   0  0  0  0  0  0  0  0  0  0  0  0
   44.5060   29.0300   44.3280 H   0  0  0  0  0  0  0  0  0  0  0  0
   46.3290   29.2980   45.4660 C   0  0  0  0  0  0  0  0  0  0  0  0
   47.3090   30.2320   45.6950 C   0  0  0  0  0  0  0  0  0  0  0  0
   47.2880   31.4430   45.0930 C   0  0  0  0  0  0  0  0  0  0  0  0
   48.1020   32.1480   45.3170 H   0  0  0  0  0  0  0  0  0  0  0  0
   48.6180   29.8100   46.8090 S   0  0  0  0  0  0  0  0  0  0  0  0
   48.2940   28.1560   47.3850 C   0  0  0  0  0  0  0  0  0  0  0  0
   49.1590   27.5790   48.2650 C   0  0  0  0  0  0  0  0  0  0  0  0
   50.0330   28.1360   48.6040 H   0  0  0  0  0  0  0  0  0  0  0  0
   48.9700   26.3040   48.7510 C   0  0  0  0  0  0  0  0  0  0  0  0
   49.6230   25.8040   49.4470 H   0  0  0  0  0  0  0  0  0  0  0  0
   47.8600   25.6190   48.3110 C   0  0  0  0  0  0  0  0  0  0  0  0
   47.6690   24.6140   48.6650 H   0  0  0  0  0  0  0  0  0  0  0  0
   47.0100   26.2400   47.4200 C   0  0  0  0  0  0  0  0  0  0  0  0
   46.1450   25.6290   47.1140 H   0  0  0  0  0  0  0  0  0  0  0  0
   47.1760   27.5140   46.9190 C   0  0  0  0  0  0  0  0  0  0  0  0
   46.2200   28.0000   46.0180 N   0  0  0  0  0  0  0  0  0  0  0  0
   45.4160   27.3940   45.7530 H   0  0  0  0  0  0  0  0  0  0  0  0
   47.4870   34.8460   42.2880 C   0  0  0  0  0  0  0  0  0  0  0  0
   47.4570   33.5570   42.8240 C   0  0  0  0  0  0  0  0  0  0  0  0
   46.3870   33.1710   43.6300 C   0  0  0  0  0  0  0  0  0  0  0  0
   45.4140   34.0940   43.8480 N   0  0  0  0  0  0  0  0  0  0  0  0
   45.4520   35.3270   43.3290 C   0  0  0  0  0  0  0  0  0  0  0  0
   46.4780   35.6930   42.5590 N   0  0  0  0  0  0  0  0  0  0  0  0
   48.2520   32.8870   42.6130 H   0  0  0  0  0  0  0  0  0  0  0  0
   44.6300   35.9920   43.5590 H   0  0  0  0  0  0  0  0  0  0  0  0
   48.6490   35.2200   41.4330 C   0  0  0  0  0  0  0  0  0  0  0  0
   48.3430   35.1500   40.0980 F   0  0  0  0  0  0  0  0  0  0  0  0
   49.0880   36.4720   41.8090 F   0  0  0  0  0  0  0  0  0  0  0  0
   49.7110   34.3440   41.7150 F   0  0  0  0  0  0  0  0  0  0  0  0
  1  8  1  0  0  0  0
  2  1  2  0  0  0  0
  2  4  1  0  0  0  0
  3  2  1  0  0  0  0
  4  6  2  0  0  0  0
  5  4  1  0  0  0  0
  6  7  1  0  0  0  0
  6 21  1  0  0  0  0
  7 10  1  0  0  0  0
  8  9  1  0  0  0  0
  8  7  2  0  0  0  0
 10 11  1  0  0  0  0
 11 12  1  0  0  0  0
 12 13  1  0  0  0  0
 12 14  2  0  0  0  0
 14 15  1  0  0  0  0
 16 17  1  0  0  0  0
 16 14  1  0  0  0  0
 18 16  2  0  0  0  0
 19 18  1  0  0  0  0
 20 11  2  0  0  0  0
 20 18  1  0  0  0  0
 21 20  1  0  0  0  0
 22 21  1  0  0  0  0
 23 28  2  0  0  0  0
 23 24  1  0  0  0  0
 24 25  2  0  0  0  0
 25 26  1  0  0  0  0
 25  1  1  0  0  0  0
 27 30  1  0  0  0  0
 27 26  2  0  0  0  0
 28 27  1  0  0  0  0
 29 24  1  0  0  0  0
 31 34  1  0  0  0  0
 31 33  1  0  0  0  0
 31 23  1  0  0  0  0
 32 31  1  0  0  0  0
M  END
>  <minimizedAffinity>
-5.13119745

>  <minimizedRMSD>
2.10782361

$$$$
