
 OpenBabel03252503503D

 34 37  0  0  0  0  0  0  0  0999 V2000
   46.6270   32.0280   46.2990 C   0  0  0  0  0  0  0  0  0  0  0  0
   46.5350   30.7540   45.7820 C   0  0  0  0  0  0  0  0  0  0  0  0
   45.9350   30.6010   44.9140 H   0  0  0  0  0  0  0  0  0  0  0  0
   47.2170   29.7210   46.3930 C   0  0  0  0  0  0  0  0  0  0  0  0
   47.0860   28.7450   45.9120 H   0  0  0  0  0  0  0  0  0  0  0  0
   48.0070   29.8730   47.5150 C   0  0  0  0  0  0  0  0  0  0  0  0
   48.0780   31.1530   48.0080 C   0  0  0  0  0  0  0  0  0  0  0  0
   47.4160   32.1750   47.4200 C   0  0  0  0  0  0  0  0  0  0  0  0
   47.5130   33.1780   47.8610 H   0  0  0  0  0  0  0  0  0  0  0  0
   49.0680   31.4370   49.4460 S   0  0  0  0  0  0  0  0  0  0  0  0
   49.7660   29.8670   49.9140 C   0  0  0  0  0  0  0  0  0  0  0  0
   50.5800   29.8020   51.0040 C   0  0  0  0  0  0  0  0  0  0  0  0
   50.7930   30.7080   51.5730 H   0  0  0  0  0  0  0  0  0  0  0  0
   51.1540   28.6210   51.4220 C   0  0  0  0  0  0  0  0  0  0  0  0
   51.8030   28.5160   52.2750 H   0  0  0  0  0  0  0  0  0  0  0  0
   50.8740   27.4880   50.6900 C   0  0  0  0  0  0  0  0  0  0  0  0
   51.3000   26.5380   50.9790 H   0  0  0  0  0  0  0  0  0  0  0  0
   50.0440   27.6000   49.5930 C   0  0  0  0  0  0  0  0  0  0  0  0
   49.8670   26.6520   49.0590 H   0  0  0  0  0  0  0  0  0  0  0  0
   49.4580   28.7680   49.1540 C   0  0  0  0  0  0  0  0  0  0  0  0
   48.6380   28.7110   48.0200 N   0  0  0  0  0  0  0  0  0  0  0  0
   48.4940   27.7980   47.5400 H   0  0  0  0  0  0  0  0  0  0  0  0
   45.4570   34.7290   43.9550 C   0  0  0  0  0  0  0  0  0  0  0  0
   46.1170   33.5900   44.4240 C   0  0  0  0  0  0  0  0  0  0  0  0
   45.9630   33.2040   45.7550 C   0  0  0  0  0  0  0  0  0  0  0  0
   45.1610   33.9760   46.5320 N   0  0  0  0  0  0  0  0  0  0  0  0
   44.5320   35.0650   46.0730 C   0  0  0  0  0  0  0  0  0  0  0  0
   44.6830   35.4320   44.8000 N   0  0  0  0  0  0  0  0  0  0  0  0
   46.7300   33.0340   43.7610 H   0  0  0  0  0  0  0  0  0  0  0  0
   43.9130   35.6160   46.7690 H   0  0  0  0  0  0  0  0  0  0  0  0
   45.6480   35.1080   42.5270 C   0  0  0  0  0  0  0  0  0  0  0  0
   44.6580   35.9490   42.0860 F   0  0  0  0  0  0  0  0  0  0  0  0
   46.9070   35.6530   42.3810 F   0  0  0  0  0  0  0  0  0  0  0  0
   45.6470   33.9380   41.7500 F   0  0  0  0  0  0  0  0  0  0  0  0
  1  8  1  0  0  0  0
  2  1  2  0  0  0  0
  2  4  1  0  0  0  0
  3  2  1  0  0  0  0
  4  6  2  0  0  0  0
  5  4  1  0  0  0  0
  6  7  1  0  0  0  0
  6 21  1  0  0  0  0
  7 10  1  0  0  0  0
  8  9  1  0  0  0  0
  8  7  2  0  0  0  0
 10 11  1  0  0  0  0
 11 12  1  0  0  0  0
 12 14  2  0  0  0  0
 12 13  1  0  0  0  0
 14 15  1  0  0  0  0
 16 17  1  0  0  0  0
 16 14  1  0  0  0  0
 18 16  2  0  0  0  0
 19 18  1  0  0  0  0
 20 18  1  0  0  0  0
 20 11  2  0  0  0  0
 21 20  1  0  0  0  0
 22 21  1  0  0  0  0
 23 24  2  0  0  0  0
 23 28  1  0  0  0  0
 24 25  1  0  0  0  0
 25  1  1  0  0  0  0
 25 26  2  0  0  0  0
 27 26  1  0  0  0  0
 27 30  1  0  0  0  0
 28 27  2  0  0  0  0
 29 24  1  0  0  0  0
 31 23  1  0  0  0  0
 32 31  1  0  0  0  0
 33 31  1  0  0  0  0
 34 31  1  0  0  0  0
M  END
>  <minimizedAffinity>
-6.04936171

>  <minimizedRMSD>
2.18760657

$$$$
