
 OpenBabel03242515423D

 51 56  0  0  0  0  0  0  0  0999 V2000
   43.5630   34.4430   40.9190 C   0  0  0  0  0  0  0  0  0  0  0  0
   43.4610   33.5420   39.9160 C   0  0  0  0  0  0  0  0  0  0  0  0
   44.6770   32.9990   39.4370 C   0  0  0  0  0  0  0  0  0  0  0  0
   45.8550   33.3910   39.9800 N   0  0  0  0  0  0  0  0  0  0  0  0
   45.9000   34.2920   40.9720 C   0  0  0  0  0  0  0  0  0  0  0  0
   44.7510   34.7700   41.3910 N   0  0  0  0  0  0  0  0  0  0  0  0
   42.4430   32.9140   39.0920 C   0  0  0  0  0  0  0  0  0  0  0  0
   41.5990   33.2760   38.0720 C   0  0  0  0  0  0  0  0  0  0  0  0
   41.7770   34.3430   37.8670 H   0  0  0  0  0  0  0  0  0  0  0  0
   40.7270   32.4020   37.4820 C   0  0  0  0  0  0  0  0  0  0  0  0
   40.1450   32.8930   36.6870 H   0  0  0  0  0  0  0  0  0  0  0  0
   40.6310   31.0840   37.8720 C   0  0  0  0  0  0  0  0  0  0  0  0
   41.4460   30.6580   38.8880 C   0  0  0  0  0  0  0  0  0  0  0  0
   42.2990   31.5530   39.4480 C   0  0  0  0  0  0  0  0  0  0  0  0
   42.8940   31.0780   40.2500 H   0  0  0  0  0  0  0  0  0  0  0  0
   41.3180   28.9620   39.3830 S   0  0  0  0  0  0  0  0  0  0  0  0
   40.0720   28.2080   38.3570 C   0  0  0  0  0  0  0  0  0  0  0  0
   39.8420   26.8980   38.6020 C   0  0  0  0  0  0  0  0  0  0  0  0
   40.3530   26.3170   39.3550 H   0  0  0  0  0  0  0  0  0  0  0  0
   38.8850   26.2320   37.8470 C   0  0  0  0  0  0  0  0  0  0  0  0
   38.6190   25.1900   37.9550 H   0  0  0  0  0  0  0  0  0  0  0  0
   38.2080   26.9320   36.8750 C   0  0  0  0  0  0  0  0  0  0  0  0
   37.4590   26.4460   36.2690 H   0  0  0  0  0  0  0  0  0  0  0  0
   38.5100   28.2660   36.6950 C   0  0  0  0  0  0  0  0  0  0  0  0
   37.9330   28.7670   35.9020 H   0  0  0  0  0  0  0  0  0  0  0  0
   39.4460   28.9830   37.4110 C   0  0  0  0  0  0  0  0  0  0  0  0
   39.6850   30.3510   37.1530 N   0  0  0  0  0  0  0  0  0  0  0  0
   39.0970   30.7460   36.3870 H   0  0  0  0  0  0  0  0  0  0  0  0
   44.7120   32.0000   38.4100 N   0  0  0  0  0  0  0  0  0  0  0  0
   44.2460   32.3020   37.5160 H   0  0  0  0  0  0  0  0  0  0  0  0
   45.1600   31.0630   38.5440 H   0  0  0  0  0  0  0  0  0  0  0  0
   41.9800   35.1000   41.4950 S   0  0  0  0  0  0  0  0  0  0  0  0
   39.6140   34.2840   40.5820 C   0  0  0  0  0  0  0  0  0  0  0  0
   40.7000   33.8790   41.3770 C   0  0  0  0  0  0  0  0  0  0  0  0
   40.7400   32.6290   41.9640 C   0  0  0  0  0  0  0  0  0  0  0  0
   39.7060   31.7390   41.7800 C   0  0  0  0  0  0  0  0  0  0  0  0
   38.6130   32.1200   40.9910 C   0  0  0  0  0  0  0  0  0  0  0  0
   38.5500   33.3720   40.3920 C   0  0  0  0  0  0  0  0  0  0  0  0
   37.7110   31.0380   40.9640 O   0  0  0  0  0  0  0  0  0  0  0  0
   38.1150   30.1490   41.9450 C   0  0  0  0  0  0  0  0  0  0  0  0
   39.4640   30.4490   42.2200 O   0  0  0  0  0  0  0  0  0  0  0  0
   39.5340   35.2480   40.1030 H   0  0  0  0  0  0  0  0  0  0  0  0
   41.6040   32.3930   42.5620 H   0  0  0  0  0  0  0  0  0  0  0  0
   37.6840   33.6140   39.7940 H   0  0  0  0  0  0  0  0  0  0  0  0
   38.1140   29.1160   41.5040 H   0  0  0  0  0  0  0  0  0  0  0  0
   37.4830   30.0920   42.8400 H   0  0  0  0  0  0  0  0  0  0  0  0
   47.0390   34.7610   41.5870 O   0  0  0  0  0  0  0  0  0  0  0  0
   48.2210   34.8220   40.8250 C   0  0  0  0  0  0  0  0  0  0  0  0
   49.0420   33.7420   41.0540 F   0  0  0  0  0  0  0  0  0  0  0  0
   47.8270   34.8840   39.4780 F   0  0  0  0  0  0  0  0  0  0  0  0
   48.9000   35.9750   41.1760 F   0  0  0  0  0  0  0  0  0  0  0  0
  1  6  1  0  0  0  0
  1 32  1  0  0  0  0
  2  1  2  0  0  0  0
  3  2  1  0  0  0  0
  3  4  2  0  0  0  0
  4  5  1  0  0  0  0
  5  6  2  0  0  0  0
  5 47  1  0  0  0  0
  7 14  1  0  0  0  0
  7  2  1  0  0  0  0
  8  7  2  0  0  0  0
  9  8  1  0  0  0  0
 10 12  2  0  0  0  0
 10  8  1  0  0  0  0
 11 10  1  0  0  0  0
 12 13  1  0  0  0  0
 13 16  1  0  0  0  0
 13 14  2  0  0  0  0
 14 15  1  0  0  0  0
 17 18  1  0  0  0  0
 17 16  1  0  0  0  0
 18 19  1  0  0  0  0
 20 21  1  0  0  0  0
 20 18  2  0  0  0  0
 22 20  1  0  0  0  0
 23 22  1  0  0  0  0
 24 22  2  0  0  0  0
 24 26  1  0  0  0  0
 25 24  1  0  0  0  0
 26 17  2  0  0  0  0
 27 26  1  0  0  0  0
 27 12  1  0  0  0  0
 28 27  1  0  0  0  0
 29 31  1  0  0  0  0
 29  3  1  0  0  0  0
 30 29  1  0  0  0  0
 33 34  1  0  0  0  0
 34 32  1  0  0  0  0
 34 35  2  0  0  0  0
 35 43  1  0  0  0  0
 36 35  1  0  0  0  0
 36 41  1  0  0  0  0
 37 36  2  0  0  0  0
 38 33  2  0  0  0  0
 38 37  1  0  0  0  0
 39 37  1  0  0  0  0
 39 40  1  0  0  0  0
 40 41  1  0  0  0  0
 40 46  1  0  0  0  0
 42 33  1  0  0  0  0
 44 38  1  0  0  0  0
 45 40  1  0  0  0  0
 48 49  1  0  0  0  0
 48 51  1  0  0  0  0
 48 47  1  0  0  0  0
 50 48  1  0  0  0  0
M  END
>  <minimizedAffinity>
-6.05099726

>  <minimizedRMSD>
0.878361404

$$$$
