
 OpenBabel03252503493D

 34 37  0  0  0  0  0  0  0  0999 V2000
   46.8730   31.9520   46.1560 C   0  0  0  0  0  0  0  0  0  0  0  0
   46.9650   30.7230   45.5370 C   0  0  0  0  0  0  0  0  0  0  0  0
   46.4940   30.5970   44.5900 H   0  0  0  0  0  0  0  0  0  0  0  0
   47.6580   29.7020   46.1540 C   0  0  0  0  0  0  0  0  0  0  0  0
   47.6770   28.7630   45.5880 H   0  0  0  0  0  0  0  0  0  0  0  0
   48.2840   29.8200   47.3780 C   0  0  0  0  0  0  0  0  0  0  0  0
   48.1760   31.0540   47.9700 C   0  0  0  0  0  0  0  0  0  0  0  0
   47.5000   32.0650   47.3780 C   0  0  0  0  0  0  0  0  0  0  0  0
   47.4490   33.0310   47.9030 H   0  0  0  0  0  0  0  0  0  0  0  0
   48.9490   31.2950   49.5430 S   0  0  0  0  0  0  0  0  0  0  0  0
   49.7260   29.7520   49.9800 C   0  0  0  0  0  0  0  0  0  0  0  0
   50.4010   29.6600   51.1590 C   0  0  0  0  0  0  0  0  0  0  0  0
   50.4570   30.5290   51.8160 H   0  0  0  0  0  0  0  0  0  0  0  0
   51.0250   28.4990   51.5580 C   0  0  0  0  0  0  0  0  0  0  0  0
   51.5700   28.3750   52.4800 H   0  0  0  0  0  0  0  0  0  0  0  0
   50.9420   27.4140   50.7130 C   0  0  0  0  0  0  0  0  0  0  0  0
   51.4160   26.4810   50.9850 H   0  0  0  0  0  0  0  0  0  0  0  0
   50.2490   27.5510   49.5290 C   0  0  0  0  0  0  0  0  0  0  0  0
   50.2270   26.6420   48.9070 H   0  0  0  0  0  0  0  0  0  0  0  0
   49.6170   28.7010   49.1050 C   0  0  0  0  0  0  0  0  0  0  0  0
   48.9530   28.6750   47.8730 N   0  0  0  0  0  0  0  0  0  0  0  0
   48.9550   27.7970   47.3120 H   0  0  0  0  0  0  0  0  0  0  0  0
   45.6490   34.6480   43.8350 C   0  0  0  0  0  0  0  0  0  0  0  0
   46.3420   33.5270   44.2980 C   0  0  0  0  0  0  0  0  0  0  0  0
   46.1770   33.1120   45.6180 C   0  0  0  0  0  0  0  0  0  0  0  0
   45.3310   33.8390   46.3930 N   0  0  0  0  0  0  0  0  0  0  0  0
   44.6710   34.9120   45.9400 C   0  0  0  0  0  0  0  0  0  0  0  0
   44.8330   35.3070   44.6760 N   0  0  0  0  0  0  0  0  0  0  0  0
   46.9880   33.0060   43.6380 H   0  0  0  0  0  0  0  0  0  0  0  0
   44.0180   35.4280   46.6320 H   0  0  0  0  0  0  0  0  0  0  0  0
   45.8540   35.0600   42.4180 C   0  0  0  0  0  0  0  0  0  0  0  0
   44.8240   35.8430   41.9610 F   0  0  0  0  0  0  0  0  0  0  0  0
   47.0790   35.6840   42.3130 F   0  0  0  0  0  0  0  0  0  0  0  0
   45.9470   33.9040   41.6260 F   0  0  0  0  0  0  0  0  0  0  0  0
  1  8  1  0  0  0  0
  2  4  1  0  0  0  0
  2  1  2  0  0  0  0
  3  2  1  0  0  0  0
  4  6  2  0  0  0  0
  5  4  1  0  0  0  0
  6 21  1  0  0  0  0
  6  7  1  0  0  0  0
  7 10  1  0  0  0  0
  8  9  1  0  0  0  0
  8  7  2  0  0  0  0
 10 11  1  0  0  0  0
 11 12  1  0  0  0  0
 12 14  2  0  0  0  0
 12 13  1  0  0  0  0
 14 15  1  0  0  0  0
 16 17  1  0  0  0  0
 16 14  1  0  0  0  0
 18 16  2  0  0  0  0
 19 18  1  0  0  0  0
 20 18  1  0  0  0  0
 20 11  2  0  0  0  0
 21 20  1  0  0  0  0
 22 21  1  0  0  0  0
 23 24  2  0  0  0  0
 23 28  1  0  0  0  0
 24 25  1  0  0  0  0
 25  1  1  0  0  0  0
 25 26  2  0  0  0  0
 27 26  1  0  0  0  0
 27 30  1  0  0  0  0
 28 27  2  0  0  0  0
 29 24  1  0  0  0  0
 31 23  1  0  0  0  0
 32 31  1  0  0  0  0
 33 31  1  0  0  0  0
 34 31  1  0  0  0  0
M  END
>  <minimizedAffinity>
-6.0815115

>  <minimizedRMSD>
2.24366784

$$$$
