
 OpenBabel03252500093D

 44 48  0  0  0  0  0  0  0  0999 V2000
   45.6020   32.1190   39.7530 Cl  0  0  0  0  0  0  0  0  0  0  0  0
   46.8130   33.2140   39.1950 C   0  0  0  0  0  0  0  0  0  0  0  0
   47.4590   34.0660   40.0510 C   0  0  0  0  0  0  0  0  0  0  0  0
   48.4380   34.9570   39.6280 C   0  0  0  0  0  0  0  0  0  0  0  0
   48.7310   34.9380   38.2820 C   0  0  0  0  0  0  0  0  0  0  0  0
   48.0880   34.0870   37.4100 C   0  0  0  0  0  0  0  0  0  0  0  0
   47.1320   33.2240   37.8550 C   0  0  0  0  0  0  0  0  0  0  0  0
   48.9430   35.6290   40.3210 H   0  0  0  0  0  0  0  0  0  0  0  0
   49.5000   35.6430   37.9670 H   0  0  0  0  0  0  0  0  0  0  0  0
   48.3850   34.1440   36.3650 H   0  0  0  0  0  0  0  0  0  0  0  0
   46.5140   32.3660   36.8510 C   0  0  0  0  0  0  0  0  0  0  0  0
   45.1800   32.0540   37.0130 C   0  0  0  0  0  0  0  0  0  0  0  0
   44.6330   32.4410   37.8600 H   0  0  0  0  0  0  0  0  0  0  0  0
   44.5860   31.2450   36.0740 C   0  0  0  0  0  0  0  0  0  0  0  0
   43.5210   31.0360   36.2640 H   0  0  0  0  0  0  0  0  0  0  0  0
   45.2050   30.7070   34.9660 C   0  0  0  0  0  0  0  0  0  0  0  0
   46.5290   31.0530   34.8590 C   0  0  0  0  0  0  0  0  0  0  0  0
   47.1730   31.8480   35.7550 C   0  0  0  0  0  0  0  0  0  0  0  0
   48.2210   32.0940   35.6270 H   0  0  0  0  0  0  0  0  0  0  0  0
   47.4620   30.4340   33.4770 S   0  0  0  0  0  0  0  0  0  0  0  0
   46.3450   29.4420   32.5100 C   0  0  0  0  0  0  0  0  0  0  0  0
   46.7550   28.8260   31.3830 C   0  0  0  0  0  0  0  0  0  0  0  0
   47.8000   28.9350   31.0490 H   0  0  0  0  0  0  0  0  0  0  0  0
   45.9430   28.0390   30.5800 C   0  0  0  0  0  0  0  0  0  0  0  0
   46.2440   27.5340   29.6720 H   0  0  0  0  0  0  0  0  0  0  0  0
   44.6270   27.9080   31.0090 C   0  0  0  0  0  0  0  0  0  0  0  0
   43.9540   27.3060   30.4190 H   0  0  0  0  0  0  0  0  0  0  0  0
   44.2310   28.5450   32.1600 C   0  0  0  0  0  0  0  0  0  0  0  0
   43.1720   28.3830   32.4180 H   0  0  0  0  0  0  0  0  0  0  0  0
   45.0660   29.3200   32.9340 C   0  0  0  0  0  0  0  0  0  0  0  0
   44.4640   29.8880   34.0800 N   0  0  0  0  0  0  0  0  0  0  0  0
   43.4640   29.7300   34.3170 H   0  0  0  0  0  0  0  0  0  0  0  0
   47.3270   33.0910   43.6140 C   0  0  0  0  0  0  0  0  0  0  0  0
   46.3980   34.0050   44.1440 C   0  0  0  0  0  0  0  0  0  0  0  0
   45.8360   34.9330   43.2790 C   0  0  0  0  0  0  0  0  0  0  0  0
   46.2010   34.9250   41.9660 N   0  0  0  0  0  0  0  0  0  0  0  0
   47.1010   34.0340   41.4730 C   0  0  0  0  0  0  0  0  0  0  0  0
   47.6590   33.1200   42.3050 N   0  0  0  0  0  0  0  0  0  0  0  0
   47.7710   32.3640   44.2780 H   0  0  0  0  0  0  0  0  0  0  0  0
   46.1070   34.0120   45.1880 H   0  0  0  0  0  0  0  0  0  0  0  0
   44.8350   35.9570   43.7270 C   0  0  0  0  0  0  0  0  0  0  0  0
   45.1970   37.2070   43.3260 F   0  0  0  0  0  0  0  0  0  0  0  0
   43.6030   35.6460   43.1540 F   0  0  0  0  0  0  0  0  0  0  0  0
   44.7460   35.8600   45.0860 F   0  0  0  0  0  0  0  0  0  0  0  0
  2  1  1  0  0  0  0
  2  3  1  0  0  0  0
  3 37  1  0  0  0  0
  4  3  2  0  0  0  0
  4  8  1  0  0  0  0
  5  4  1  0  0  0  0
  6  7  1  0  0  0  0
  6  5  2  0  0  0  0
  7  2  2  0  0  0  0
  9  5  1  0  0  0  0
 10  6  1  0  0  0  0
 11 12  1  0  0  0  0
 11  7  1  0  0  0  0
 12 13  1  0  0  0  0
 14 15  1  0  0  0  0
 14 12  2  0  0  0  0
 16 14  1  0  0  0  0
 17 16  2  0  0  0  0
 17 18  1  0  0  0  0
 18 11  2  0  0  0  0
 19 18  1  0  0  0  0
 20 17  1  0  0  0  0
 21 30  1  0  0  0  0
 21 20  1  0  0  0  0
 22 21  2  0  0  0  0
 23 22  1  0  0  0  0
 24 26  2  0  0  0  0
 24 22  1  0  0  0  0
 25 24  1  0  0  0  0
 26 28  1  0  0  0  0
 27 26  1  0  0  0  0
 28 29  1  0  0  0  0
 28 30  2  0  0  0  0
 30 31  1  0  0  0  0
 31 32  1  0  0  0  0
 31 16  1  0  0  0  0
 33 34  1  0  0  0  0
 33 39  1  0  0  0  0
 34 40  1  0  0  0  0
 35 41  1  0  0  0  0
 35 34  2  0  0  0  0
 36 35  1  0  0  0  0
 37 36  2  0  0  0  0
 37 38  1  0  0  0  0
 38 33  2  0  0  0  0
 41 44  1  0  0  0  0
 42 41  1  0  0  0  0
 43 41  1  0  0  0  0
M  END
>  <minimizedAffinity>
-7.07289028

>  <minimizedRMSD>
1.19103575

$$$$
