
 OpenBabel03242515043D

 52 56  0  0  0  0  0  0  0  0999 V2000
   44.7690   34.7900   42.0730 C   0  0  0  0  0  0  0  0  0  0  0  0
   45.9750   34.3420   41.5320 C   0  0  0  0  0  0  0  0  0  0  0  0
   46.9740   33.9030   42.3890 C   0  0  0  0  0  0  0  0  0  0  0  0
   46.7280   33.9300   43.7100 N   0  0  0  0  0  0  0  0  0  0  0  0
   45.5490   34.3680   44.2310 C   0  0  0  0  0  0  0  0  0  0  0  0
   44.6080   34.7830   43.3990 N   0  0  0  0  0  0  0  0  0  0  0  0
   46.1440   34.3290   40.4860 H   0  0  0  0  0  0  0  0  0  0  0  0
   48.2670   33.4150   41.9440 C   0  0  0  0  0  0  0  0  0  0  0  0
   49.3690   33.7280   42.7110 C   0  0  0  0  0  0  0  0  0  0  0  0
   49.2940   34.3080   43.6040 H   0  0  0  0  0  0  0  0  0  0  0  0
   50.6110   33.2530   42.2740 C   0  0  0  0  0  0  0  0  0  0  0  0
   51.4570   33.5320   42.9230 H   0  0  0  0  0  0  0  0  0  0  0  0
   50.7920   32.4980   41.1340 C   0  0  0  0  0  0  0  0  0  0  0  0
   49.6720   32.2200   40.4180 C   0  0  0  0  0  0  0  0  0  0  0  0
   48.4590   32.6610   40.8070 C   0  0  0  0  0  0  0  0  0  0  0  0
   47.6010   32.4040   40.1910 H   0  0  0  0  0  0  0  0  0  0  0  0
   49.8420   31.2500   38.9350 S   0  0  0  0  0  0  0  0  0  0  0  0
   51.5750   30.8750   38.7770 C   0  0  0  0  0  0  0  0  0  0  0  0
   51.9850   30.1270   37.7050 C   0  0  0  0  0  0  0  0  0  0  0  0
   51.2400   29.7800   36.9730 H   0  0  0  0  0  0  0  0  0  0  0  0
   53.2920   29.7950   37.5070 C   0  0  0  0  0  0  0  0  0  0  0  0
   53.5500   29.2030   36.6420 H   0  0  0  0  0  0  0  0  0  0  0  0
   54.2140   30.2370   38.4320 C   0  0  0  0  0  0  0  0  0  0  0  0
   55.2600   29.9970   38.3160 H   0  0  0  0  0  0  0  0  0  0  0  0
   53.7580   30.9860   39.4960 C   0  0  0  0  0  0  0  0  0  0  0  0
   54.5430   31.3060   40.1950 H   0  0  0  0  0  0  0  0  0  0  0  0
   52.4480   31.3420   39.7280 C   0  0  0  0  0  0  0  0  0  0  0  0
   52.1240   32.1160   40.8650 N   0  0  0  0  0  0  0  0  0  0  0  0
   52.9120   32.3870   41.4870 H   0  0  0  0  0  0  0  0  0  0  0  0
   45.4170   34.3450   45.6670 C   0  0  0  0  0  0  0  0  0  0  0  0
   44.4770   35.0170   46.1750 O   0  0  0  0  0  0  0  0  0  0  0  0
   46.3570   33.5650   46.4140 N   0  0  0  0  0  0  0  0  0  0  0  0
   47.1440   34.2280   46.5220 H   0  0  0  0  0  0  0  0  0  0  0  0
   45.9780   32.6110   46.6120 H   0  0  0  0  0  0  0  0  0  0  0  0
   43.5290   35.3410   40.9150 S   0  0  0  0  0  0  0  0  0  0  0  0
   41.8580   35.2390   41.5700 C   0  0  0  0  0  0  0  0  0  0  0  0
   41.5490   34.1620   41.4600 H   0  0  0  0  0  0  0  0  0  0  0  0
   41.8410   35.4460   42.6630 H   0  0  0  0  0  0  0  0  0  0  0  0
   40.8570   36.0650   40.8460 C   0  0  0  0  0  0  0  0  0  0  0  0
   40.0870   36.3870   41.6010 H   0  0  0  0  0  0  0  0  0  0  0  0
   41.3380   36.9280   40.3840 H   0  0  0  0  0  0  0  0  0  0  0  0
   41.7130   36.3040   37.9380 Cl  0  0  0  0  0  0  0  0  0  0  0  0
   40.4250   35.2820   38.4880 C   0  0  0  0  0  0  0  0  0  0  0  0
   40.1150   35.2500   39.8540 C   0  0  0  0  0  0  0  0  0  0  0  0
   39.0840   34.4170   40.2090 C   0  0  0  0  0  0  0  0  0  0  0  0
   38.3260   33.6140   39.3660 C   0  0  0  0  0  0  0  0  0  0  0  0
   38.6580   33.6710   38.0300 C   0  0  0  0  0  0  0  0  0  0  0  0
   37.7630   32.6940   36.8750 Cl  0  0  0  0  0  0  0  0  0  0  0  0
   39.6880   34.4900   37.6040 C   0  0  0  0  0  0  0  0  0  0  0  0
   38.8230   34.3730   41.2610 H   0  0  0  0  0  0  0  0  0  0  0  0
   37.5360   32.9950   39.7490 H   0  0  0  0  0  0  0  0  0  0  0  0
   39.9770   34.5590   36.5600 H   0  0  0  0  0  0  0  0  0  0  0  0
  1  6  1  0  0  0  0
  2  1  2  0  0  0  0
  2  3  1  0  0  0  0
  3  4  2  0  0  0  0
  4  5  1  0  0  0  0
  5 30  1  0  0  0  0
  6  5  2  0  0  0  0
  7  2  1  0  0  0  0
  8  3  1  0  0  0  0
  8  9  1  0  0  0  0
  9 10  1  0  0  0  0
 11  9  2  0  0  0  0
 11 12  1  0  0  0  0
 13 11  1  0  0  0  0
 14 15  1  0  0  0  0
 14 13  2  0  0  0  0
 15  8  2  0  0  0  0
 16 15  1  0  0  0  0
 17 14  1  0  0  0  0
 18 17  1  0  0  0  0
 18 27  1  0  0  0  0
 19 18  2  0  0  0  0
 20 19  1  0  0  0  0
 21 19  1  0  0  0  0
 21 23  2  0  0  0  0
 22 21  1  0  0  0  0
 23 25  1  0  0  0  0
 24 23  1  0  0  0  0
 25 27  2  0  0  0  0
 25 26  1  0  0  0  0
 27 28  1  0  0  0  0
 28 13  1  0  0  0  0
 28 29  1  0  0  0  0
 30 31  2  0  0  0  0
 30 32  1  0  0  0  0
 32 33  1  0  0  0  0
 32 34  1  0  0  0  0
 35 36  1  0  0  0  0
 35  1  1  0  0  0  0
 36 38  1  0  0  0  0
 37 36  1  0  0  0  0
 39 36  1  0  0  0  0
 39 40  1  0  0  0  0
 41 39  1  0  0  0  0
 42 43  1  0  0  0  0
 43 44  1  0  0  0  0
 44 45  2  0  0  0  0
 44 39  1  0  0  0  0
 45 50  1  0  0  0  0
 46 51  1  0  0  0  0
 46 45  1  0  0  0  0
 47 46  2  0  0  0  0
 48 47  1  0  0  0  0
 49 47  1  0  0  0  0
 49 43  2  0  0  0  0
 52 49  1  0  0  0  0
M  END
>  <minimizedAffinity>
-8.42938042

>  <minimizedRMSD>
1.42686641

$$$$
