
 OpenBabel03252500003D

 34 37  0  0  0  0  0  0  0  0999 V2000
   35.0960   28.4700   38.8060 C   0  0  0  0  0  0  0  0  0  0  0  0
   35.0570   29.3400   39.8760 C   0  0  0  0  0  0  0  0  0  0  0  0
   34.4060   30.2010   39.8880 H   0  0  0  0  0  0  0  0  0  0  0  0
   35.8900   29.0780   40.9630 C   0  0  0  0  0  0  0  0  0  0  0  0
   35.8160   29.8040   41.7850 H   0  0  0  0  0  0  0  0  0  0  0  0
   36.7530   28.0060   41.0400 C   0  0  0  0  0  0  0  0  0  0  0  0
   36.7470   27.1780   39.9450 C   0  0  0  0  0  0  0  0  0  0  0  0
   35.9520   27.4060   38.8810 C   0  0  0  0  0  0  0  0  0  0  0  0
   36.0010   26.7100   38.0530 H   0  0  0  0  0  0  0  0  0  0  0  0
   37.8360   25.7680   39.9680 S   0  0  0  0  0  0  0  0  0  0  0  0
   38.6980   25.8200   41.5120 C   0  0  0  0  0  0  0  0  0  0  0  0
   39.6090   24.8350   41.7870 C   0  0  0  0  0  0  0  0  0  0  0  0
   39.7860   24.0450   41.0570 H   0  0  0  0  0  0  0  0  0  0  0  0
   40.3270   24.7910   42.9620 C   0  0  0  0  0  0  0  0  0  0  0  0
   41.0280   24.0170   43.1490 H   0  0  0  0  0  0  0  0  0  0  0  0
   40.0870   25.8010   43.8690 C   0  0  0  0  0  0  0  0  0  0  0  0
   40.6230   25.8140   44.8060 H   0  0  0  0  0  0  0  0  0  0  0  0
   39.1610   26.7760   43.5600 C   0  0  0  0  0  0  0  0  0  0  0  0
   39.0280   27.5460   44.3360 H   0  0  0  0  0  0  0  0  0  0  0  0
   38.4300   26.8410   42.3900 C   0  0  0  0  0  0  0  0  0  0  0  0
   37.5240   27.8920   42.2110 N   0  0  0  0  0  0  0  0  0  0  0  0
   37.4330   28.5950   42.9750 H   0  0  0  0  0  0  0  0  0  0  0  0
   33.6730   28.8680   35.3400 C   0  0  0  0  0  0  0  0  0  0  0  0
   34.6190   28.5570   36.3590 C   0  0  0  0  0  0  0  0  0  0  0  0
   34.2220   28.7500   37.6730 C   0  0  0  0  0  0  0  0  0  0  0  0
   32.9840   29.2130   37.9240 N   0  0  0  0  0  0  0  0  0  0  0  0
   32.1040   29.5010   36.9360 C   0  0  0  0  0  0  0  0  0  0  0  0
   32.4570   29.3250   35.6440 N   0  0  0  0  0  0  0  0  0  0  0  0
   33.9780   28.7200   34.3240 H   0  0  0  0  0  0  0  0  0  0  0  0
   35.5880   28.1930   36.1260 H   0  0  0  0  0  0  0  0  0  0  0  0
   30.7880   29.9980   37.4180 C   0  0  0  0  0  0  0  0  0  0  0  0
   29.7480   29.2910   36.8940 F   0  0  0  0  0  0  0  0  0  0  0  0
   30.6470   31.3430   37.1250 F   0  0  0  0  0  0  0  0  0  0  0  0
   30.7640   29.9350   38.8180 F   0  0  0  0  0  0  0  0  0  0  0  0
  1  8  2  0  0  0  0
  1  2  1  0  0  0  0
  2  3  1  0  0  0  0
  2  4  2  0  0  0  0
  4  6  1  0  0  0  0
  4  5  1  0  0  0  0
  6 21  1  0  0  0  0
  7 10  1  0  0  0  0
  7  6  2  0  0  0  0
  8  7  1  0  0  0  0
  9  8  1  0  0  0  0
 10 11  1  0  0  0  0
 11 12  2  0  0  0  0
 11 20  1  0  0  0  0
 12 14  1  0  0  0  0
 13 12  1  0  0  0  0
 14 15  1  0  0  0  0
 14 16  2  0  0  0  0
 16 17  1  0  0  0  0
 18 16  1  0  0  0  0
 18 19  1  0  0  0  0
 20 18  2  0  0  0  0
 21 20  1  0  0  0  0
 21 22  1  0  0  0  0
 23 28  2  0  0  0  0
 23 24  1  0  0  0  0
 24 25  2  0  0  0  0
 25 26  1  0  0  0  0
 25  1  1  0  0  0  0
 27 31  1  0  0  0  0
 27 26  2  0  0  0  0
 28 27  1  0  0  0  0
 29 23  1  0  0  0  0
 30 24  1  0  0  0  0
 31 34  1  0  0  0  0
 32 31  1  0  0  0  0
 33 31  1  0  0  0  0
M  END
>  <minimizedAffinity>
-6.27302074

$$$$

 OpenBabel03252500003D

 34 37  0  0  0  0  0  0  0  0999 V2000
   37.4590   27.5350   40.9490 C   0  0  0  0  0  0  0  0  0  0  0  0
   36.2560   28.2020   41.0520 C   0  0  0  0  0  0  0  0  0  0  0  0
   35.3250   27.6800   41.2160 H   0  0  0  0  0  0  0  0  0  0  0  0
   36.2670   29.5920   40.9380 C   0  0  0  0  0  0  0  0  0  0  0  0
   35.2810   30.0700   41.0280 H   0  0  0  0  0  0  0  0  0  0  0  0
   37.4020   30.3450   40.7280 C   0  0  0  0  0  0  0  0  0  0  0  0
   38.5670   29.6240   40.6340 C   0  0  0  0  0  0  0  0  0  0  0  0
   38.5860   28.2800   40.7410 C   0  0  0  0  0  0  0  0  0  0  0  0
   39.5420   27.7790   40.6560 H   0  0  0  0  0  0  0  0  0  0  0  0
   40.0790   30.5260   40.3630 S   0  0  0  0  0  0  0  0  0  0  0  0
   39.6390   32.2370   40.2800 C   0  0  0  0  0  0  0  0  0  0  0  0
   40.6310   33.1590   40.0760 C   0  0  0  0  0  0  0  0  0  0  0  0
   41.6630   32.8260   39.9680 H   0  0  0  0  0  0  0  0  0  0  0  0
   40.3860   34.5130   39.9980 C   0  0  0  0  0  0  0  0  0  0  0  0
   41.1720   35.2060   39.8390 H   0  0  0  0  0  0  0  0  0  0  0  0
   39.0730   34.9100   40.1370 C   0  0  0  0  0  0  0  0  0  0  0  0
   38.8250   35.9600   40.0840 H   0  0  0  0  0  0  0  0  0  0  0  0
   38.0990   33.9540   40.3430 C   0  0  0  0  0  0  0  0  0  0  0  0
   37.0780   34.3540   40.4430 H   0  0  0  0  0  0  0  0  0  0  0  0
   38.3210   32.5940   40.4250 C   0  0  0  0  0  0  0  0  0  0  0  0
   37.2330   31.7380   40.6360 N   0  0  0  0  0  0  0  0  0  0  0  0
   36.2860   32.1640   40.7250 H   0  0  0  0  0  0  0  0  0  0  0  0
   38.1620   23.9730   41.9580 C   0  0  0  0  0  0  0  0  0  0  0  0
   38.2780   25.3930   41.9310 C   0  0  0  0  0  0  0  0  0  0  0  0
   37.4390   26.0820   41.0690 C   0  0  0  0  0  0  0  0  0  0  0  0
   36.5670   25.3920   40.3100 N   0  0  0  0  0  0  0  0  0  0  0  0
   36.4780   24.0420   40.3550 C   0  0  0  0  0  0  0  0  0  0  0  0
   37.2800   23.3390   41.1830 N   0  0  0  0  0  0  0  0  0  0  0  0
   38.8100   23.4390   42.6220 H   0  0  0  0  0  0  0  0  0  0  0  0
   38.9760   25.9050   42.5440 H   0  0  0  0  0  0  0  0  0  0  0  0
   35.4530   23.4690   39.4420 C   0  0  0  0  0  0  0  0  0  0  0  0
   35.0900   24.3440   38.4620 F   0  0  0  0  0  0  0  0  0  0  0  0
   34.3400   23.0690   40.1620 F   0  0  0  0  0  0  0  0  0  0  0  0
   35.9560   22.2870   38.8800 F   0  0  0  0  0  0  0  0  0  0  0  0
  1  2  1  0  0  0  0
  1 25  1  0  0  0  0
  2  3  1  0  0  0  0
  4  5  1  0  0  0  0
  4  2  2  0  0  0  0
  6  4  1  0  0  0  0
  7  6  2  0  0  0  0
  7  8  1  0  0  0  0
  8  1  2  0  0  0  0
  9  8  1  0  0  0  0
 10  7  1  0  0  0  0
 11 10  1  0  0  0  0
 11 20  1  0  0  0  0
 12 11  2  0  0  0  0
 13 12  1  0  0  0  0
 14 12  1  0  0  0  0
 14 16  2  0  0  0  0
 15 14  1  0  0  0  0
 16 18  1  0  0  0  0
 17 16  1  0  0  0  0
 18 20  2  0  0  0  0
 18 19  1  0  0  0  0
 20 21  1  0  0  0  0
 21 22  1  0  0  0  0
 21  6  1  0  0  0  0
 23 29  1  0  0  0  0
 24 23  1  0  0  0  0
 24 30  1  0  0  0  0
 25 24  2  0  0  0  0
 26 27  2  0  0  0  0
 26 25  1  0  0  0  0
 27 28  1  0  0  0  0
 28 23  2  0  0  0  0
 31 33  1  0  0  0  0
 31 27  1  0  0  0  0
 32 31  1  0  0  0  0
 34 31  1  0  0  0  0
M  END
>  <minimizedAffinity>
-5.8817668

$$$$

 OpenBabel03252500003D

 34 37  0  0  0  0  0  0  0  0999 V2000
   38.2650   31.1520   39.3240 C   0  0  0  0  0  0  0  0  0  0  0  0
   37.5220   30.9430   38.1810 C   0  0  0  0  0  0  0  0  0  0  0  0
   37.3680   31.7210   37.4490 H   0  0  0  0  0  0  0  0  0  0  0  0
   36.9610   29.6810   37.9870 C   0  0  0  0  0  0  0  0  0  0  0  0
   36.3800   29.5720   37.0600 H   0  0  0  0  0  0  0  0  0  0  0  0
   37.1010   28.6250   38.8630 C   0  0  0  0  0  0  0  0  0  0  0  0
   37.8510   28.8960   39.9800 C   0  0  0  0  0  0  0  0  0  0  0  0
   38.4050   30.1070   40.1940 C   0  0  0  0  0  0  0  0  0  0  0  0
   38.9830   30.2460   41.0990 H   0  0  0  0  0  0  0  0  0  0  0  0
   38.0780   27.5820   41.1620 S   0  0  0  0  0  0  0  0  0  0  0  0
   37.2100   26.1770   40.5290 C   0  0  0  0  0  0  0  0  0  0  0  0
   37.2260   25.0160   41.2550 C   0  0  0  0  0  0  0  0  0  0  0  0
   37.7660   24.9780   42.2000 H   0  0  0  0  0  0  0  0  0  0  0  0
   36.5800   23.8700   40.8430 C   0  0  0  0  0  0  0  0  0  0  0  0
   36.6070   22.9840   41.4250 H   0  0  0  0  0  0  0  0  0  0  0  0
   35.9020   23.9420   39.6440 C   0  0  0  0  0  0  0  0  0  0  0  0
   35.3790   23.0730   39.2750 H   0  0  0  0  0  0  0  0  0  0  0  0
   35.9090   25.1280   38.9380 C   0  0  0  0  0  0  0  0  0  0  0  0
   35.3450   25.1020   37.9930 H   0  0  0  0  0  0  0  0  0  0  0  0
   36.5490   26.2870   39.3310 C   0  0  0  0  0  0  0  0  0  0  0  0
   36.4690   27.4190   38.5120 N   0  0  0  0  0  0  0  0  0  0  0  0
   35.9240   27.3450   37.6260 H   0  0  0  0  0  0  0  0  0  0  0  0
   38.8230   34.7660   40.2330 C   0  0  0  0  0  0  0  0  0  0  0  0
   38.1430   33.5210   40.0950 C   0  0  0  0  0  0  0  0  0  0  0  0
   38.8470   32.4750   39.5210 C   0  0  0  0  0  0  0  0  0  0  0  0
   40.1180   32.6750   39.1260 N   0  0  0  0  0  0  0  0  0  0  0  0
   40.7410   33.8690   39.2690 C   0  0  0  0  0  0  0  0  0  0  0  0
   40.0850   34.9110   39.8240 N   0  0  0  0  0  0  0  0  0  0  0  0
   38.2810   35.5760   40.6760 H   0  0  0  0  0  0  0  0  0  0  0  0
   37.1400   33.3970   40.4180 H   0  0  0  0  0  0  0  0  0  0  0  0
   42.1430   33.8880   38.7740 C   0  0  0  0  0  0  0  0  0  0  0  0
   42.6230   32.6340   38.5410 F   0  0  0  0  0  0  0  0  0  0  0  0
   42.9590   34.5530   39.6720 F   0  0  0  0  0  0  0  0  0  0  0  0
   42.2000   34.6580   37.6040 F   0  0  0  0  0  0  0  0  0  0  0  0
  1 25  1  0  0  0  0
  1  8  1  0  0  0  0
  2  1  2  0  0  0  0
  3  2  1  0  0  0  0
  4  2  1  0  0  0  0
  4  6  2  0  0  0  0
  5  4  1  0  0  0  0
  6  7  1  0  0  0  0
  7  8  2  0  0  0  0
  7 10  1  0  0  0  0
  8  9  1  0  0  0  0
 11 10  1  0  0  0  0
 11 12  1  0  0  0  0
 12 13  1  0  0  0  0
 14 12  2  0  0  0  0
 14 15  1  0  0  0  0
 16 14  1  0  0  0  0
 17 16  1  0  0  0  0
 18 20  1  0  0  0  0
 18 16  2  0  0  0  0
 19 18  1  0  0  0  0
 20 11  2  0  0  0  0
 21  6  1  0  0  0  0
 21 20  1  0  0  0  0
 22 21  1  0  0  0  0
 23 29  1  0  0  0  0
 24 23  1  0  0  0  0
 24 30  1  0  0  0  0
 25 24  2  0  0  0  0
 26 27  2  0  0  0  0
 26 25  1  0  0  0  0
 27 28  1  0  0  0  0
 28 23  2  0  0  0  0
 31 27  1  0  0  0  0
 31 33  1  0  0  0  0
 32 31  1  0  0  0  0
 34 31  1  0  0  0  0
M  END
>  <minimizedAffinity>
-5.86959934

$$$$

 OpenBabel03252500003D

 34 37  0  0  0  0  0  0  0  0999 V2000
   35.4680   28.5010   38.5410 C   0  0  0  0  0  0  0  0  0  0  0  0
   35.0440   29.1600   39.6770 C   0  0  0  0  0  0  0  0  0  0  0  0
   34.2110   29.8460   39.6610 H   0  0  0  0  0  0  0  0  0  0  0  0
   35.7260   28.9160   40.8680 C   0  0  0  0  0  0  0  0  0  0  0  0
   35.3450   29.4680   41.7390 H   0  0  0  0  0  0  0  0  0  0  0  0
   36.7990   28.0590   40.9880 C   0  0  0  0  0  0  0  0  0  0  0  0
   37.1740   27.4340   39.8240 C   0  0  0  0  0  0  0  0  0  0  0  0
   36.5320   27.6500   38.6580 C   0  0  0  0  0  0  0  0  0  0  0  0
   36.8840   27.1220   37.7810 H   0  0  0  0  0  0  0  0  0  0  0  0
   38.5530   26.3090   39.8960 S   0  0  0  0  0  0  0  0  0  0  0  0
   39.1120   26.3000   41.5740 C   0  0  0  0  0  0  0  0  0  0  0  0
   40.1770   25.5060   41.9060 C   0  0  0  0  0  0  0  0  0  0  0  0
   40.6570   24.9000   41.1390 H   0  0  0  0  0  0  0  0  0  0  0  0
   40.6820   25.4320   43.1860 C   0  0  0  0  0  0  0  0  0  0  0  0
   41.5090   24.8100   43.4160 H   0  0  0  0  0  0  0  0  0  0  0  0
   40.0580   26.2090   44.1400 C   0  0  0  0  0  0  0  0  0  0  0  0
   40.4140   26.1890   45.1590 H   0  0  0  0  0  0  0  0  0  0  0  0
   38.9870   26.9960   43.7700 C   0  0  0  0  0  0  0  0  0  0  0  0
   38.5460   27.5850   44.5900 H   0  0  0  0  0  0  0  0  0  0  0  0
   38.4640   27.0850   42.4960 C   0  0  0  0  0  0  0  0  0  0  0  0
   37.3720   27.9300   42.2660 N   0  0  0  0  0  0  0  0  0  0  0  0
   36.9890   28.4650   43.0740 H   0  0  0  0  0  0  0  0  0  0  0  0
   32.8220   28.7540   35.8710 C   0  0  0  0  0  0  0  0  0  0  0  0
   33.4100   28.4490   37.1330 C   0  0  0  0  0  0  0  0  0  0  0  0
   34.7500   28.7610   37.2990 C   0  0  0  0  0  0  0  0  0  0  0  0
   35.4240   29.3290   36.2820 N   0  0  0  0  0  0  0  0  0  0  0  0
   34.8400   29.6080   35.0930 C   0  0  0  0  0  0  0  0  0  0  0  0
   33.5360   29.3160   34.8950 N   0  0  0  0  0  0  0  0  0  0  0  0
   31.7870   28.5120   35.7400 H   0  0  0  0  0  0  0  0  0  0  0  0
   32.8500   28.0010   37.9140 H   0  0  0  0  0  0  0  0  0  0  0  0
   35.7510   30.2360   34.0990 C   0  0  0  0  0  0  0  0  0  0  0  0
   35.1420   31.2370   33.4030 F   0  0  0  0  0  0  0  0  0  0  0  0
   36.2430   29.2790   33.2280 F   0  0  0  0  0  0  0  0  0  0  0  0
   36.8830   30.7240   34.7670 F   0  0  0  0  0  0  0  0  0  0  0  0
  1  8  2  0  0  0  0
  1  2  1  0  0  0  0
  2  4  2  0  0  0  0
  3  2  1  0  0  0  0
  4  6  1  0  0  0  0
  4  5  1  0  0  0  0
  6 21  1  0  0  0  0
  7 10  1  0  0  0  0
  7  6  2  0  0  0  0
  8  7  1  0  0  0  0
  9  8  1  0  0  0  0
 10 11  1  0  0  0  0
 11 12  2  0  0  0  0
 11 20  1  0  0  0  0
 12 14  1  0  0  0  0
 13 12  1  0  0  0  0
 14 15  1  0  0  0  0
 14 16  2  0  0  0  0
 16 17  1  0  0  0  0
 18 16  1  0  0  0  0
 18 19  1  0  0  0  0
 20 18  2  0  0  0  0
 21 20  1  0  0  0  0
 21 22  1  0  0  0  0
 23 24  1  0  0  0  0
 24 25  2  0  0  0  0
 24 30  1  0  0  0  0
 25  1  1  0  0  0  0
 26 25  1  0  0  0  0
 27 26  2  0  0  0  0
 28 27  1  0  0  0  0
 28 23  2  0  0  0  0
 29 23  1  0  0  0  0
 31 34  1  0  0  0  0
 31 27  1  0  0  0  0
 32 31  1  0  0  0  0
 33 31  1  0  0  0  0
M  END
>  <minimizedAffinity>
-5.72140026

$$$$

 OpenBabel03252500003D

 34 37  0  0  0  0  0  0  0  0999 V2000
   39.4100   30.4090   39.6800 C   0  0  0  0  0  0  0  0  0  0  0  0
   39.9760   31.5030   40.3020 C   0  0  0  0  0  0  0  0  0  0  0  0
   39.5050   31.9870   41.1440 H   0  0  0  0  0  0  0  0  0  0  0  0
   41.1900   31.9800   39.8100 C   0  0  0  0  0  0  0  0  0  0  0  0
   41.5930   32.8530   40.3440 H   0  0  0  0  0  0  0  0  0  0  0  0
   41.8660   31.4300   38.7420 C   0  0  0  0  0  0  0  0  0  0  0  0
   41.2530   30.3440   38.1660 C   0  0  0  0  0  0  0  0  0  0  0  0
   40.0790   29.8620   38.6200 C   0  0  0  0  0  0  0  0  0  0  0  0
   39.6550   29.0030   38.1150 H   0  0  0  0  0  0  0  0  0  0  0  0
   42.0650   29.5760   36.7780 S   0  0  0  0  0  0  0  0  0  0  0  0
   43.5540   30.4880   36.4950 C   0  0  0  0  0  0  0  0  0  0  0  0
   44.3750   30.0990   35.4700 C   0  0  0  0  0  0  0  0  0  0  0  0
   44.1000   29.2450   34.8540 H   0  0  0  0  0  0  0  0  0  0  0  0
   45.5550   30.7470   35.1730 C   0  0  0  0  0  0  0  0  0  0  0  0
   46.1720   30.4260   34.3740 H   0  0  0  0  0  0  0  0  0  0  0  0
   45.8810   31.8260   35.9670 C   0  0  0  0  0  0  0  0  0  0  0  0
   46.7950   32.3690   35.7780 H   0  0  0  0  0  0  0  0  0  0  0  0
   45.0310   32.1890   36.9920 C   0  0  0  0  0  0  0  0  0  0  0  0
   45.3640   33.0610   37.5770 H   0  0  0  0  0  0  0  0  0  0  0  0
   43.8460   31.5560   37.3070 C   0  0  0  0  0  0  0  0  0  0  0  0
   43.0810   32.0370   38.3770 N   0  0  0  0  0  0  0  0  0  0  0  0
   43.4380   32.8630   38.9010 H   0  0  0  0  0  0  0  0  0  0  0  0
   35.7610   29.6050   40.1610 C   0  0  0  0  0  0  0  0  0  0  0  0
   36.9340   30.1390   39.5530 C   0  0  0  0  0  0  0  0  0  0  0  0
   38.1400   29.9160   40.1990 C   0  0  0  0  0  0  0  0  0  0  0  0
   38.1500   29.2190   41.3500 N   0  0  0  0  0  0  0  0  0  0  0  0
   37.0200   28.7230   41.9070 C   0  0  0  0  0  0  0  0  0  0  0  0
   35.8270   28.9210   41.3050 N   0  0  0  0  0  0  0  0  0  0  0  0
   34.8280   29.7770   39.6640 H   0  0  0  0  0  0  0  0  0  0  0  0
   36.8900   30.6840   38.6440 H   0  0  0  0  0  0  0  0  0  0  0  0
   37.2410   27.9810   43.1760 C   0  0  0  0  0  0  0  0  0  0  0  0
   37.4030   28.8180   44.2390 F   0  0  0  0  0  0  0  0  0  0  0  0
   38.3350   27.1420   43.0560 F   0  0  0  0  0  0  0  0  0  0  0  0
   36.1550   27.1210   43.3930 F   0  0  0  0  0  0  0  0  0  0  0  0
  1 25  1  0  0  0  0
  1  2  1  0  0  0  0
  2  3  1  0  0  0  0
  4  2  2  0  0  0  0
  4  5  1  0  0  0  0
  6  4  1  0  0  0  0
  7  8  1  0  0  0  0
  7  6  2  0  0  0  0
  8  1  2  0  0  0  0
  9  8  1  0  0  0  0
 10  7  1  0  0  0  0
 11 10  1  0  0  0  0
 11 20  1  0  0  0  0
 12 11  2  0  0  0  0
 13 12  1  0  0  0  0
 14 12  1  0  0  0  0
 14 16  2  0  0  0  0
 15 14  1  0  0  0  0
 16 18  1  0  0  0  0
 17 16  1  0  0  0  0
 18 20  2  0  0  0  0
 18 19  1  0  0  0  0
 20 21  1  0  0  0  0
 21  6  1  0  0  0  0
 21 22  1  0  0  0  0
 23 28  1  0  0  0  0
 24 23  2  0  0  0  0
 24 25  1  0  0  0  0
 25 26  2  0  0  0  0
 26 27  1  0  0  0  0
 27 31  1  0  0  0  0
 28 27  2  0  0  0  0
 29 23  1  0  0  0  0
 30 24  1  0  0  0  0
 31 34  1  0  0  0  0
 31 32  1  0  0  0  0
 33 31  1  0  0  0  0
M  END
>  <minimizedAffinity>
-5.68042898

$$$$

 OpenBabel03252500003D

 34 37  0  0  0  0  0  0  0  0999 V2000
   34.9200   28.2340   38.4820 C   0  0  0  0  0  0  0  0  0  0  0  0
   34.6770   29.1300   39.5030 C   0  0  0  0  0  0  0  0  0  0  0  0
   33.9240   29.8990   39.4210 H   0  0  0  0  0  0  0  0  0  0  0  0
   35.4400   29.0200   40.6660 C   0  0  0  0  0  0  0  0  0  0  0  0
   35.2040   29.7600   41.4440 H   0  0  0  0  0  0  0  0  0  0  0  0
   36.4230   28.0740   40.8630 C   0  0  0  0  0  0  0  0  0  0  0  0
   36.6170   27.2120   39.8120 C   0  0  0  0  0  0  0  0  0  0  0  0
   35.8940   27.2950   38.6770 C   0  0  0  0  0  0  0  0  0  0  0  0
   36.1030   26.5810   37.8900 H   0  0  0  0  0  0  0  0  0  0  0  0
   37.8700   25.9590   39.9910 S   0  0  0  0  0  0  0  0  0  0  0  0
   38.5810   26.1800   41.5950 C   0  0  0  0  0  0  0  0  0  0  0  0
   39.5830   25.3330   41.9890 C   0  0  0  0  0  0  0  0  0  0  0  0
   39.9220   24.5470   41.3150 H   0  0  0  0  0  0  0  0  0  0  0  0
   40.1970   25.4260   43.2200 C   0  0  0  0  0  0  0  0  0  0  0  0
   40.9710   24.7590   43.5000 H   0  0  0  0  0  0  0  0  0  0  0  0
   39.7520   26.4290   44.0550 C   0  0  0  0  0  0  0  0  0  0  0  0
   40.1990   26.5470   45.0310 H   0  0  0  0  0  0  0  0  0  0  0  0
   38.7400   27.2630   43.6260 C   0  0  0  0  0  0  0  0  0  0  0  0
   38.4430   28.0370   44.3510 H   0  0  0  0  0  0  0  0  0  0  0  0
   38.1110   27.1880   42.3990 C   0  0  0  0  0  0  0  0  0  0  0  0
   37.0970   28.1050   42.0970 N   0  0  0  0  0  0  0  0  0  0  0  0
   36.8510   28.8170   42.8160 H   0  0  0  0  0  0  0  0  0  0  0  0
   32.2610   29.1480   35.9740 C   0  0  0  0  0  0  0  0  0  0  0  0
   32.9540   29.1060   37.2180 C   0  0  0  0  0  0  0  0  0  0  0  0
   34.1190   28.3560   37.2700 C   0  0  0  0  0  0  0  0  0  0  0  0
   34.5360   27.7120   36.1650 N   0  0  0  0  0  0  0  0  0  0  0  0
   33.8570   27.7680   34.9940 C   0  0  0  0  0  0  0  0  0  0  0  0
   32.7180   28.4890   34.9070 N   0  0  0  0  0  0  0  0  0  0  0  0
   31.3600   29.7260   35.9320 H   0  0  0  0  0  0  0  0  0  0  0  0
   32.5970   29.6260   38.0710 H   0  0  0  0  0  0  0  0  0  0  0  0
   34.4810   26.9910   33.8900 C   0  0  0  0  0  0  0  0  0  0  0  0
   35.5030   27.6710   33.2970 F   0  0  0  0  0  0  0  0  0  0  0  0
   33.5270   26.6460   32.9490 F   0  0  0  0  0  0  0  0  0  0  0  0
   34.9390   25.7680   34.3990 F   0  0  0  0  0  0  0  0  0  0  0  0
  1  8  2  0  0  0  0
  1  2  1  0  0  0  0
  2  4  2  0  0  0  0
  3  2  1  0  0  0  0
  4  6  1  0  0  0  0
  4  5  1  0  0  0  0
  6 21  1  0  0  0  0
  7 10  1  0  0  0  0
  7  6  2  0  0  0  0
  8  7  1  0  0  0  0
  9  8  1  0  0  0  0
 10 11  1  0  0  0  0
 11 12  2  0  0  0  0
 11 20  1  0  0  0  0
 12 14  1  0  0  0  0
 13 12  1  0  0  0  0
 14 15  1  0  0  0  0
 14 16  2  0  0  0  0
 16 17  1  0  0  0  0
 18 16  1  0  0  0  0
 18 19  1  0  0  0  0
 20 18  2  0  0  0  0
 21 20  1  0  0  0  0
 21 22  1  0  0  0  0
 23 24  1  0  0  0  0
 24 25  2  0  0  0  0
 24 30  1  0  0  0  0
 25  1  1  0  0  0  0
 26 25  1  0  0  0  0
 27 26  2  0  0  0  0
 28 27  1  0  0  0  0
 28 23  2  0  0  0  0
 29 23  1  0  0  0  0
 31 34  1  0  0  0  0
 31 27  1  0  0  0  0
 32 31  1  0  0  0  0
 33 31  1  0  0  0  0
M  END
>  <minimizedAffinity>
-5.58874226

$$$$

 OpenBabel03252500003D

 34 37  0  0  0  0  0  0  0  0999 V2000
   34.7020   28.1250   38.1010 C   0  0  0  0  0  0  0  0  0  0  0  0
   34.5050   29.1980   38.9460 C   0  0  0  0  0  0  0  0  0  0  0  0
   33.8250   30.0000   38.7020 H   0  0  0  0  0  0  0  0  0  0  0  0
   35.2170   29.2260   40.1450 C   0  0  0  0  0  0  0  0  0  0  0  0
   35.0200   30.1030   40.7770 H   0  0  0  0  0  0  0  0  0  0  0  0
   36.1060   28.2510   40.5430 C   0  0  0  0  0  0  0  0  0  0  0  0
   36.2590   27.2100   39.6600 C   0  0  0  0  0  0  0  0  0  0  0  0
   35.5830   27.1570   38.4940 C   0  0  0  0  0  0  0  0  0  0  0  0
   35.7550   26.3060   37.8480 H   0  0  0  0  0  0  0  0  0  0  0  0
   37.3920   25.9090   40.1030 S   0  0  0  0  0  0  0  0  0  0  0  0
   38.0670   26.3410   41.6800 C   0  0  0  0  0  0  0  0  0  0  0  0
   38.9780   25.4960   42.2560 C   0  0  0  0  0  0  0  0  0  0  0  0
   39.2680   24.5830   41.7380 H   0  0  0  0  0  0  0  0  0  0  0  0
   39.5570   25.7470   43.4810 C   0  0  0  0  0  0  0  0  0  0  0  0
   40.2600   25.0770   43.9050 H   0  0  0  0  0  0  0  0  0  0  0  0
   39.1740   26.9100   44.1160 C   0  0  0  0  0  0  0  0  0  0  0  0
   39.5970   27.1550   45.0790 H   0  0  0  0  0  0  0  0  0  0  0  0
   38.2530   27.7370   43.5070 C   0  0  0  0  0  0  0  0  0  0  0  0
   38.0010   28.6440   44.0790 H   0  0  0  0  0  0  0  0  0  0  0  0
   37.6600   27.5060   42.2820 C   0  0  0  0  0  0  0  0  0  0  0  0
   36.7400   28.4370   41.7840 N   0  0  0  0  0  0  0  0  0  0  0  0
   36.5340   29.2780   42.3630 H   0  0  0  0  0  0  0  0  0  0  0  0
   33.3490   27.2140   34.7040 C   0  0  0  0  0  0  0  0  0  0  0  0
   34.1410   27.1250   35.8850 C   0  0  0  0  0  0  0  0  0  0  0  0
   33.9540   28.1040   36.8490 C   0  0  0  0  0  0  0  0  0  0  0  0
   33.0490   29.0760   36.6320 N   0  0  0  0  0  0  0  0  0  0  0  0
   32.3090   29.1360   35.5000 C   0  0  0  0  0  0  0  0  0  0  0  0
   32.4650   28.2000   34.5390 N   0  0  0  0  0  0  0  0  0  0  0  0
   33.4930   26.4600   33.9570 H   0  0  0  0  0  0  0  0  0  0  0  0
   34.8460   26.3450   36.0240 H   0  0  0  0  0  0  0  0  0  0  0  0
   31.3630   30.2830   35.4500 C   0  0  0  0  0  0  0  0  0  0  0  0
   31.6920   31.1780   34.4760 F   0  0  0  0  0  0  0  0  0  0  0  0
   31.3100   30.9140   36.6810 F   0  0  0  0  0  0  0  0  0  0  0  0
   30.0660   29.7930   35.2450 F   0  0  0  0  0  0  0  0  0  0  0  0
  1  8  2  0  0  0  0
  1  2  1  0  0  0  0
  2  4  2  0  0  0  0
  3  2  1  0  0  0  0
  4  6  1  0  0  0  0
  4  5  1  0  0  0  0
  6 21  1  0  0  0  0
  7 10  1  0  0  0  0
  7  6  2  0  0  0  0
  8  7  1  0  0  0  0
  9  8  1  0  0  0  0
 10 11  1  0  0  0  0
 11 12  2  0  0  0  0
 11 20  1  0  0  0  0
 12 14  1  0  0  0  0
 13 12  1  0  0  0  0
 14 15  1  0  0  0  0
 14 16  2  0  0  0  0
 16 17  1  0  0  0  0
 18 19  1  0  0  0  0
 18 16  1  0  0  0  0
 20 18  2  0  0  0  0
 21 20  1  0  0  0  0
 21 22  1  0  0  0  0
 23 24  1  0  0  0  0
 24 30  1  0  0  0  0
 24 25  2  0  0  0  0
 25  1  1  0  0  0  0
 26 25  1  0  0  0  0
 27 26  2  0  0  0  0
 28 23  2  0  0  0  0
 28 27  1  0  0  0  0
 29 23  1  0  0  0  0
 31 27  1  0  0  0  0
 31 33  1  0  0  0  0
 32 31  1  0  0  0  0
 34 31  1  0  0  0  0
M  END
>  <minimizedAffinity>
-5.56562853

$$$$

 OpenBabel03252500003D

 34 37  0  0  0  0  0  0  0  0999 V2000
   39.1790   30.3720   39.8520 C   0  0  0  0  0  0  0  0  0  0  0  0
   39.6260   30.0430   38.5890 C   0  0  0  0  0  0  0  0  0  0  0  0
   39.0690   29.3850   37.9390 H   0  0  0  0  0  0  0  0  0  0  0  0
   40.8360   30.5880   38.1600 C   0  0  0  0  0  0  0  0  0  0  0  0
   41.1420   30.2910   37.1470 H   0  0  0  0  0  0  0  0  0  0  0  0
   41.6180   31.4350   38.9160 C   0  0  0  0  0  0  0  0  0  0  0  0
   41.1200   31.7240   40.1630 C   0  0  0  0  0  0  0  0  0  0  0  0
   39.9530   31.2120   40.6030 C   0  0  0  0  0  0  0  0  0  0  0  0
   39.6240   31.4840   41.5980 H   0  0  0  0  0  0  0  0  0  0  0  0
   42.0730   32.8140   41.2010 S   0  0  0  0  0  0  0  0  0  0  0  0
   43.5130   33.2630   40.2780 C   0  0  0  0  0  0  0  0  0  0  0  0
   44.4240   34.1060   40.8550 C   0  0  0  0  0  0  0  0  0  0  0  0
   44.2500   34.4810   41.8620 H   0  0  0  0  0  0  0  0  0  0  0  0
   45.5750   34.5120   40.2130 C   0  0  0  0  0  0  0  0  0  0  0  0
   46.2650   35.1650   40.6830 H   0  0  0  0  0  0  0  0  0  0  0  0
   45.7740   34.0240   38.9390 C   0  0  0  0  0  0  0  0  0  0  0  0
   46.6600   34.3110   38.3920 H   0  0  0  0  0  0  0  0  0  0  0  0
   44.8340   33.1770   38.3880 C   0  0  0  0  0  0  0  0  0  0  0  0
   45.0680   32.8330   37.3690 H   0  0  0  0  0  0  0  0  0  0  0  0
   43.6760   32.7580   39.0110 C   0  0  0  0  0  0  0  0  0  0  0  0
   42.8110   31.8930   38.3290 N   0  0  0  0  0  0  0  0  0  0  0  0
   43.0760   31.5960   37.3670 H   0  0  0  0  0  0  0  0  0  0  0  0
   35.5310   29.5210   40.2500 C   0  0  0  0  0  0  0  0  0  0  0  0
   36.6970   30.1540   39.7320 C   0  0  0  0  0  0  0  0  0  0  0  0
   37.9140   29.7970   40.2930 C   0  0  0  0  0  0  0  0  0  0  0  0
   37.9400   28.8860   41.2830 N   0  0  0  0  0  0  0  0  0  0  0  0
   36.8150   28.2990   41.7560 C   0  0  0  0  0  0  0  0  0  0  0  0
   35.6120   28.6230   41.2340 N   0  0  0  0  0  0  0  0  0  0  0  0
   34.5890   29.7950   39.8190 H   0  0  0  0  0  0  0  0  0  0  0  0
   36.6410   30.8690   38.9500 H   0  0  0  0  0  0  0  0  0  0  0  0
   37.0530   27.3180   42.8480 C   0  0  0  0  0  0  0  0  0  0  0  0
   38.3070   27.4250   43.3710 F   0  0  0  0  0  0  0  0  0  0  0  0
   36.8340   26.0300   42.3920 F   0  0  0  0  0  0  0  0  0  0  0  0
   36.0890   27.5100   43.8480 F   0  0  0  0  0  0  0  0  0  0  0  0
  1 25  1  0  0  0  0
  1  8  1  0  0  0  0
  2  1  2  0  0  0  0
  3  2  1  0  0  0  0
  4  2  1  0  0  0  0
  4  6  2  0  0  0  0
  5  4  1  0  0  0  0
  6  7  1  0  0  0  0
  7  8  2  0  0  0  0
  7 10  1  0  0  0  0
  8  9  1  0  0  0  0
 11 12  1  0  0  0  0
 11 10  1  0  0  0  0
 12 13  1  0  0  0  0
 14 15  1  0  0  0  0
 14 12  2  0  0  0  0
 16 14  1  0  0  0  0
 17 16  1  0  0  0  0
 18 16  2  0  0  0  0
 18 20  1  0  0  0  0
 19 18  1  0  0  0  0
 20 11  2  0  0  0  0
 21  6  1  0  0  0  0
 21 20  1  0  0  0  0
 22 21  1  0  0  0  0
 23 28  1  0  0  0  0
 24 23  2  0  0  0  0
 24 25  1  0  0  0  0
 25 26  2  0  0  0  0
 26 27  1  0  0  0  0
 27 31  1  0  0  0  0
 28 27  2  0  0  0  0
 29 23  1  0  0  0  0
 30 24  1  0  0  0  0
 31 32  1  0  0  0  0
 31 34  1  0  0  0  0
 33 31  1  0  0  0  0
M  END
>  <minimizedAffinity>
-5.54332829

$$$$

 OpenBabel03252500003D

 34 37  0  0  0  0  0  0  0  0999 V2000
   35.3960   28.2810   38.8770 C   0  0  0  0  0  0  0  0  0  0  0  0
   35.8110   27.0660   38.3730 C   0  0  0  0  0  0  0  0  0  0  0  0
   36.6050   26.4970   38.8330 H   0  0  0  0  0  0  0  0  0  0  0  0
   35.1720   26.5780   37.2330 C   0  0  0  0  0  0  0  0  0  0  0  0
   35.5440   25.6070   36.8770 H   0  0  0  0  0  0  0  0  0  0  0  0
   34.1510   27.2300   36.5750 C   0  0  0  0  0  0  0  0  0  0  0  0
   33.7830   28.4330   37.1250 C   0  0  0  0  0  0  0  0  0  0  0  0
   34.3830   28.9290   38.2260 C   0  0  0  0  0  0  0  0  0  0  0  0
   34.0400   29.8850   38.6030 H   0  0  0  0  0  0  0  0  0  0  0  0
   32.4690   29.3380   36.3320 S   0  0  0  0  0  0  0  0  0  0  0  0
   31.9540   28.3690   34.9450 C   0  0  0  0  0  0  0  0  0  0  0  0
   30.9410   28.8440   34.1540 C   0  0  0  0  0  0  0  0  0  0  0  0
   30.4760   29.8000   34.3910 H   0  0  0  0  0  0  0  0  0  0  0  0
   30.4720   28.1610   33.0540 C   0  0  0  0  0  0  0  0  0  0  0  0
   29.6870   28.5510   32.4580 H   0  0  0  0  0  0  0  0  0  0  0  0
   31.0760   26.9530   32.7740 C   0  0  0  0  0  0  0  0  0  0  0  0
   30.7470   26.3770   31.9230 H   0  0  0  0  0  0  0  0  0  0  0  0
   32.0930   26.5050   33.5930 C   0  0  0  0  0  0  0  0  0  0  0  0
   32.5220   25.5330   33.3020 H   0  0  0  0  0  0  0  0  0  0  0  0
   32.5790   27.1710   34.7000 C   0  0  0  0  0  0  0  0  0  0  0  0
   33.6180   26.5950   35.4400 N   0  0  0  0  0  0  0  0  0  0  0  0
   33.9910   25.6740   35.1240 H   0  0  0  0  0  0  0  0  0  0  0  0
   37.1740   30.4590   41.3850 C   0  0  0  0  0  0  0  0  0  0  0  0
   36.5330   30.0870   40.1680 C   0  0  0  0  0  0  0  0  0  0  0  0
   36.0690   28.7850   40.0680 C   0  0  0  0  0  0  0  0  0  0  0  0
   36.2400   27.9450   41.1060 N   0  0  0  0  0  0  0  0  0  0  0  0
   36.8540   28.3240   42.2520 C   0  0  0  0  0  0  0  0  0  0  0  0
   37.3180   29.5860   42.3830 N   0  0  0  0  0  0  0  0  0  0  0  0
   37.5340   31.4650   41.4640 H   0  0  0  0  0  0  0  0  0  0  0  0
   36.4140   30.7750   39.3700 H   0  0  0  0  0  0  0  0  0  0  0  0
   36.9430   27.2530   43.2790 C   0  0  0  0  0  0  0  0  0  0  0  0
   38.0930   27.3320   44.0050 F   0  0  0  0  0  0  0  0  0  0  0  0
   36.8390   26.0080   42.6830 F   0  0  0  0  0  0  0  0  0  0  0  0
   35.8260   27.3390   44.1220 F   0  0  0  0  0  0  0  0  0  0  0  0
  1 25  1  0  0  0  0
  2  3  1  0  0  0  0
  2  1  1  0  0  0  0
  4  2  2  0  0  0  0
  5  4  1  0  0  0  0
  6  7  2  0  0  0  0
  6  4  1  0  0  0  0
  7  8  1  0  0  0  0
  8  9  1  0  0  0  0
  8  1  2  0  0  0  0
 10  7  1  0  0  0  0
 11 10  1  0  0  0  0
 12 13  1  0  0  0  0
 12 11  2  0  0  0  0
 14 12  1  0  0  0  0
 15 14  1  0  0  0  0
 16 14  2  0  0  0  0
 16 18  1  0  0  0  0
 17 16  1  0  0  0  0
 18 20  2  0  0  0  0
 19 18  1  0  0  0  0
 20 11  1  0  0  0  0
 20 21  1  0  0  0  0
 21  6  1  0  0  0  0
 22 21  1  0  0  0  0
 23 29  1  0  0  0  0
 23 28  1  0  0  0  0
 24 23  2  0  0  0  0
 25 24  1  0  0  0  0
 25 26  2  0  0  0  0
 26 27  1  0  0  0  0
 27 28  2  0  0  0  0
 27 31  1  0  0  0  0
 30 24  1  0  0  0  0
 31 32  1  0  0  0  0
 31 34  1  0  0  0  0
 33 31  1  0  0  0  0
M  END
>  <minimizedAffinity>
-5.51642847

$$$$
