
 OpenBabel03252500123D

 44 48  0  0  0  0  0  0  0  0999 V2000
   41.8400   31.6030   40.3730 Cl  0  0  0  0  0  0  0  0  0  0  0  0
   40.7590   32.9470   40.3520 C   0  0  0  0  0  0  0  0  0  0  0  0
   41.2040   34.2280   40.5510 C   0  0  0  0  0  0  0  0  0  0  0  0
   40.3550   35.3290   40.5380 C   0  0  0  0  0  0  0  0  0  0  0  0
   39.0230   35.0620   40.3130 C   0  0  0  0  0  0  0  0  0  0  0  0
   38.5620   33.7780   40.1120 C   0  0  0  0  0  0  0  0  0  0  0  0
   39.4190   32.7190   40.1290 C   0  0  0  0  0  0  0  0  0  0  0  0
   40.7230   36.3410   40.6980 H   0  0  0  0  0  0  0  0  0  0  0  0
   38.3720   35.9350   40.3060 H   0  0  0  0  0  0  0  0  0  0  0  0
   37.4940   33.6650   39.9420 H   0  0  0  0  0  0  0  0  0  0  0  0
   38.8300   31.4040   39.9060 C   0  0  0  0  0  0  0  0  0  0  0  0
   38.2470   31.1670   38.6790 C   0  0  0  0  0  0  0  0  0  0  0  0
   38.2380   31.9400   37.9250 H   0  0  0  0  0  0  0  0  0  0  0  0
   37.6880   29.9310   38.4560 C   0  0  0  0  0  0  0  0  0  0  0  0
   37.2400   29.8090   37.4570 H   0  0  0  0  0  0  0  0  0  0  0  0
   37.6530   28.8880   39.3570 C   0  0  0  0  0  0  0  0  0  0  0  0
   38.2480   29.1840   40.5580 C   0  0  0  0  0  0  0  0  0  0  0  0
   38.8170   30.3870   40.8380 C   0  0  0  0  0  0  0  0  0  0  0  0
   39.2760   30.5730   41.8030 H   0  0  0  0  0  0  0  0  0  0  0  0
   38.2810   27.9350   41.8240 S   0  0  0  0  0  0  0  0  0  0  0  0
   37.4660   26.5030   41.1490 C   0  0  0  0  0  0  0  0  0  0  0  0
   37.3270   25.3740   41.8720 C   0  0  0  0  0  0  0  0  0  0  0  0
   37.7230   25.3300   42.8990 H   0  0  0  0  0  0  0  0  0  0  0  0
   36.7050   24.2220   41.4130 C   0  0  0  0  0  0  0  0  0  0  0  0
   36.5790   23.3030   41.9700 H   0  0  0  0  0  0  0  0  0  0  0  0
   36.2080   24.2870   40.1160 C   0  0  0  0  0  0  0  0  0  0  0  0
   35.7160   23.4180   39.7130 H   0  0  0  0  0  0  0  0  0  0  0  0
   36.3620   25.4490   39.3980 C   0  0  0  0  0  0  0  0  0  0  0  0
   35.9380   25.4040   38.3820 H   0  0  0  0  0  0  0  0  0  0  0  0
   36.9870   26.5760   39.8860 C   0  0  0  0  0  0  0  0  0  0  0  0
   37.0410   27.6660   38.9880 N   0  0  0  0  0  0  0  0  0  0  0  0
   36.6370   27.6160   38.0310 H   0  0  0  0  0  0  0  0  0  0  0  0
   44.8670   34.2830   40.0660 C   0  0  0  0  0  0  0  0  0  0  0  0
   45.3230   34.8630   41.2640 C   0  0  0  0  0  0  0  0  0  0  0  0
   44.3760   35.2220   42.2120 C   0  0  0  0  0  0  0  0  0  0  0  0
   43.0560   35.0030   41.9490 N   0  0  0  0  0  0  0  0  0  0  0  0
   42.6350   34.4430   40.7850 C   0  0  0  0  0  0  0  0  0  0  0  0
   43.5490   34.0860   39.8480 N   0  0  0  0  0  0  0  0  0  0  0  0
   45.5960   34.0000   39.3200 H   0  0  0  0  0  0  0  0  0  0  0  0
   46.3720   35.0370   41.4740 H   0  0  0  0  0  0  0  0  0  0  0  0
   44.7390   35.8470   43.5260 C   0  0  0  0  0  0  0  0  0  0  0  0
   43.7100   36.5900   44.0190 F   0  0  0  0  0  0  0  0  0  0  0  0
   45.0250   34.8280   44.4330 F   0  0  0  0  0  0  0  0  0  0  0  0
   45.8590   36.5990   43.3150 F   0  0  0  0  0  0  0  0  0  0  0  0
  2  1  1  0  0  0  0
  2  3  1  0  0  0  0
  3 37  1  0  0  0  0
  4  3  2  0  0  0  0
  4  8  1  0  0  0  0
  5  4  1  0  0  0  0
  6  7  1  0  0  0  0
  6  5  2  0  0  0  0
  7  2  2  0  0  0  0
  9  5  1  0  0  0  0
 10  6  1  0  0  0  0
 11  7  1  0  0  0  0
 11 18  1  0  0  0  0
 12 11  2  0  0  0  0
 13 12  1  0  0  0  0
 14 12  1  0  0  0  0
 14 16  2  0  0  0  0
 15 14  1  0  0  0  0
 16 17  1  0  0  0  0
 17 18  2  0  0  0  0
 17 20  1  0  0  0  0
 18 19  1  0  0  0  0
 21 20  1  0  0  0  0
 21 22  1  0  0  0  0
 22 23  1  0  0  0  0
 24 22  2  0  0  0  0
 24 25  1  0  0  0  0
 26 24  1  0  0  0  0
 27 26  1  0  0  0  0
 28 30  1  0  0  0  0
 28 26  2  0  0  0  0
 29 28  1  0  0  0  0
 30 21  2  0  0  0  0
 31 16  1  0  0  0  0
 31 30  1  0  0  0  0
 32 31  1  0  0  0  0
 33 34  1  0  0  0  0
 34 40  1  0  0  0  0
 34 35  2  0  0  0  0
 35 41  1  0  0  0  0
 36 35  1  0  0  0  0
 37 36  2  0  0  0  0
 38 33  2  0  0  0  0
 38 37  1  0  0  0  0
 39 33  1  0  0  0  0
 41 42  1  0  0  0  0
 41 43  1  0  0  0  0
 44 41  1  0  0  0  0
M  END
>  <minimizedAffinity>
-7.78261328

$$$$

 OpenBabel03252500123D

 44 48  0  0  0  0  0  0  0  0999 V2000
   36.4470   26.9920   38.6990 Cl  0  0  0  0  0  0  0  0  0  0  0  0
   36.7760   26.4180   40.2920 C   0  0  0  0  0  0  0  0  0  0  0  0
   36.6890   25.0870   40.6070 C   0  0  0  0  0  0  0  0  0  0  0  0
   36.9490   24.5990   41.8820 C   0  0  0  0  0  0  0  0  0  0  0  0
   37.3050   25.5350   42.8270 C   0  0  0  0  0  0  0  0  0  0  0  0
   37.3950   26.8770   42.5240 C   0  0  0  0  0  0  0  0  0  0  0  0
   37.1350   27.3260   41.2640 C   0  0  0  0  0  0  0  0  0  0  0  0
   36.8760   23.5380   42.1170 H   0  0  0  0  0  0  0  0  0  0  0  0
   37.5050   25.1360   43.8210 H   0  0  0  0  0  0  0  0  0  0  0  0
   37.6820   27.5410   43.3350 H   0  0  0  0  0  0  0  0  0  0  0  0
   37.2590   28.7630   41.0490 C   0  0  0  0  0  0  0  0  0  0  0  0
   36.0950   29.4980   40.9680 C   0  0  0  0  0  0  0  0  0  0  0  0
   35.1380   29.0090   41.0640 H   0  0  0  0  0  0  0  0  0  0  0  0
   36.1990   30.8540   40.7650 C   0  0  0  0  0  0  0  0  0  0  0  0
   35.2330   31.3800   40.7090 H   0  0  0  0  0  0  0  0  0  0  0  0
   37.3750   31.5610   40.6310 C   0  0  0  0  0  0  0  0  0  0  0  0
   38.4970   30.7760   40.7210 C   0  0  0  0  0  0  0  0  0  0  0  0
   38.4600   29.4310   40.9210 C   0  0  0  0  0  0  0  0  0  0  0  0
   39.3740   28.8530   40.9850 H   0  0  0  0  0  0  0  0  0  0  0  0
   40.0920   31.5480   40.5680 S   0  0  0  0  0  0  0  0  0  0  0  0
   39.7970   33.2850   40.3180 C   0  0  0  0  0  0  0  0  0  0  0  0
   40.8170   34.1520   40.1640 C   0  0  0  0  0  0  0  0  0  0  0  0
   41.8560   33.7850   40.1940 H   0  0  0  0  0  0  0  0  0  0  0  0
   40.6630   35.5160   39.9660 C   0  0  0  0  0  0  0  0  0  0  0  0
   41.4620   36.2350   39.8400 H   0  0  0  0  0  0  0  0  0  0  0  0
   39.3490   35.9700   39.9300 C   0  0  0  0  0  0  0  0  0  0  0  0
   39.1760   37.0230   39.7780 H   0  0  0  0  0  0  0  0  0  0  0  0
   38.3250   35.0680   40.0880 C   0  0  0  0  0  0  0  0  0  0  0  0
   37.3210   35.5210   40.0460 H   0  0  0  0  0  0  0  0  0  0  0  0
   38.5150   33.7170   40.2850 C   0  0  0  0  0  0  0  0  0  0  0  0
   37.3300   32.9610   40.4250 N   0  0  0  0  0  0  0  0  0  0  0  0
   36.3860   33.3960   40.3830 H   0  0  0  0  0  0  0  0  0  0  0  0
   36.7660   23.0590   37.5190 C   0  0  0  0  0  0  0  0  0  0  0  0
   35.5490   22.3560   37.5870 C   0  0  0  0  0  0  0  0  0  0  0  0
   34.7280   22.5870   38.6820 C   0  0  0  0  0  0  0  0  0  0  0  0
   35.1260   23.4740   39.6370 N   0  0  0  0  0  0  0  0  0  0  0  0
   36.3060   24.1430   39.5530 C   0  0  0  0  0  0  0  0  0  0  0  0
   37.1200   23.9290   38.4890 N   0  0  0  0  0  0  0  0  0  0  0  0
   37.4130   22.8870   36.6710 H   0  0  0  0  0  0  0  0  0  0  0  0
   35.2310   21.6510   36.8290 H   0  0  0  0  0  0  0  0  0  0  0  0
   33.4090   21.8980   38.8660 C   0  0  0  0  0  0  0  0  0  0  0  0
   33.5790   20.5840   39.1810 F   0  0  0  0  0  0  0  0  0  0  0  0
   32.7300   22.5200   39.9120 F   0  0  0  0  0  0  0  0  0  0  0  0
   32.7080   22.0600   37.7050 F   0  0  0  0  0  0  0  0  0  0  0  0
  1  2  1  0  0  0  0
  2  3  2  0  0  0  0
  2  7  1  0  0  0  0
  3  4  1  0  0  0  0
  4  8  1  0  0  0  0
  4  5  2  0  0  0  0
  5  9  1  0  0  0  0
  6  5  1  0  0  0  0
  6 10  1  0  0  0  0
  7  6  2  0  0  0  0
 11  7  1  0  0  0  0
 12 11  1  0  0  0  0
 12 13  1  0  0  0  0
 14 12  2  0  0  0  0
 15 14  1  0  0  0  0
 16 17  2  0  0  0  0
 16 14  1  0  0  0  0
 17 18  1  0  0  0  0
 18 19  1  0  0  0  0
 18 11  2  0  0  0  0
 20 17  1  0  0  0  0
 21 20  1  0  0  0  0
 22 23  1  0  0  0  0
 22 21  2  0  0  0  0
 24 22  1  0  0  0  0
 25 24  1  0  0  0  0
 26 24  2  0  0  0  0
 26 28  1  0  0  0  0
 27 26  1  0  0  0  0
 28 30  2  0  0  0  0
 29 28  1  0  0  0  0
 30 21  1  0  0  0  0
 30 31  1  0  0  0  0
 31 16  1  0  0  0  0
 32 31  1  0  0  0  0
 33 34  2  0  0  0  0
 33 38  1  0  0  0  0
 34 35  1  0  0  0  0
 35 41  1  0  0  0  0
 35 36  2  0  0  0  0
 37 36  1  0  0  0  0
 37  3  1  0  0  0  0
 38 37  2  0  0  0  0
 39 33  1  0  0  0  0
 40 34  1  0  0  0  0
 41 42  1  0  0  0  0
 41 43  1  0  0  0  0
 44 41  1  0  0  0  0
M  END
>  <minimizedAffinity>
-7.67926264

$$$$

 OpenBabel03252500123D

 44 48  0  0  0  0  0  0  0  0999 V2000
   39.0300   29.7380   40.9010 Cl  0  0  0  0  0  0  0  0  0  0  0  0
   38.3900   30.2370   39.3780 C   0  0  0  0  0  0  0  0  0  0  0  0
   37.5870   29.4130   38.6330 C   0  0  0  0  0  0  0  0  0  0  0  0
   37.0580   29.7900   37.4040 C   0  0  0  0  0  0  0  0  0  0  0  0
   37.3880   31.0530   36.9670 C   0  0  0  0  0  0  0  0  0  0  0  0
   38.1960   31.8910   37.7050 C   0  0  0  0  0  0  0  0  0  0  0  0
   38.6980   31.4940   38.9070 C   0  0  0  0  0  0  0  0  0  0  0  0
   36.4220   29.1240   36.8240 H   0  0  0  0  0  0  0  0  0  0  0  0
   36.9660   31.3320   36.0020 H   0  0  0  0  0  0  0  0  0  0  0  0
   38.4020   32.8700   37.2790 H   0  0  0  0  0  0  0  0  0  0  0  0
   39.5410   32.4560   39.6080 C   0  0  0  0  0  0  0  0  0  0  0  0
   38.9850   33.6780   39.9250 C   0  0  0  0  0  0  0  0  0  0  0  0
   37.9620   33.8940   39.6550 H   0  0  0  0  0  0  0  0  0  0  0  0
   39.7680   34.5940   40.5860 C   0  0  0  0  0  0  0  0  0  0  0  0
   39.2630   35.5480   40.8070 H   0  0  0  0  0  0  0  0  0  0  0  0
   41.0790   34.4060   40.9690 C   0  0  0  0  0  0  0  0  0  0  0  0
   41.5760   33.1730   40.6270 C   0  0  0  0  0  0  0  0  0  0  0  0
   40.8510   32.2250   39.9740 C   0  0  0  0  0  0  0  0  0  0  0  0
   41.2880   31.2650   39.7250 H   0  0  0  0  0  0  0  0  0  0  0  0
   43.2570   32.7820   41.0560 S   0  0  0  0  0  0  0  0  0  0  0  0
   43.9160   34.2100   41.8880 C   0  0  0  0  0  0  0  0  0  0  0  0
   45.1850   34.2300   42.3440 C   0  0  0  0  0  0  0  0  0  0  0  0
   45.8300   33.3480   42.2020 H   0  0  0  0  0  0  0  0  0  0  0  0
   45.7660   35.3050   43.0000 C   0  0  0  0  0  0  0  0  0  0  0  0
   46.7800   35.3490   43.3760 H   0  0  0  0  0  0  0  0  0  0  0  0
   44.9440   36.4130   43.1740 C   0  0  0  0  0  0  0  0  0  0  0  0
   45.3490   37.2750   43.6790 H   0  0  0  0  0  0  0  0  0  0  0  0
   43.6540   36.3710   42.7020 C   0  0  0  0  0  0  0  0  0  0  0  0
   43.0810   37.2940   42.8870 H   0  0  0  0  0  0  0  0  0  0  0  0
   43.1090   35.2840   42.0540 C   0  0  0  0  0  0  0  0  0  0  0  0
   41.7650   35.4420   41.6460 N   0  0  0  0  0  0  0  0  0  0  0  0
   41.2320   36.3170   41.8250 H   0  0  0  0  0  0  0  0  0  0  0  0
   36.6180   25.8510   38.8070 C   0  0  0  0  0  0  0  0  0  0  0  0
   36.6910   25.5840   40.1860 C   0  0  0  0  0  0  0  0  0  0  0  0
   37.0680   26.6200   41.0290 C   0  0  0  0  0  0  0  0  0  0  0  0
   37.3500   27.8430   40.4940 N   0  0  0  0  0  0  0  0  0  0  0  0
   37.2740   28.0800   39.1580 C   0  0  0  0  0  0  0  0  0  0  0  0
   36.9070   27.0780   38.3220 N   0  0  0  0  0  0  0  0  0  0  0  0
   36.3250   25.0510   38.1420 H   0  0  0  0  0  0  0  0  0  0  0  0
   36.4670   24.6130   40.6120 H   0  0  0  0  0  0  0  0  0  0  0  0
   37.1810   26.4580   42.5150 C   0  0  0  0  0  0  0  0  0  0  0  0
   36.7430   27.5700   43.1670 F   0  0  0  0  0  0  0  0  0  0  0  0
   36.3900   25.3770   42.9010 F   0  0  0  0  0  0  0  0  0  0  0  0
   38.4920   26.1860   42.7880 F   0  0  0  0  0  0  0  0  0  0  0  0
  2  1  1  0  0  0  0
  3 37  1  0  0  0  0
  3  2  2  0  0  0  0
  4  3  1  0  0  0  0
  5  4  2  0  0  0  0
  5  6  1  0  0  0  0
  6  7  2  0  0  0  0
  7  2  1  0  0  0  0
  7 11  1  0  0  0  0
  8  4  1  0  0  0  0
  9  5  1  0  0  0  0
 10  6  1  0  0  0  0
 11 12  2  0  0  0  0
 11 18  1  0  0  0  0
 12 14  1  0  0  0  0
 13 12  1  0  0  0  0
 14 15  1  0  0  0  0
 14 16  2  0  0  0  0
 16 31  1  0  0  0  0
 17 16  1  0  0  0  0
 17 20  1  0  0  0  0
 18 17  2  0  0  0  0
 19 18  1  0  0  0  0
 20 21  1  0  0  0  0
 21 30  2  0  0  0  0
 21 22  1  0  0  0  0
 22 24  2  0  0  0  0
 23 22  1  0  0  0  0
 24 26  1  0  0  0  0
 24 25  1  0  0  0  0
 26 27  1  0  0  0  0
 28 29  1  0  0  0  0
 28 26  2  0  0  0  0
 30 28  1  0  0  0  0
 31 32  1  0  0  0  0
 31 30  1  0  0  0  0
 33 34  1  0  0  0  0
 34 40  1  0  0  0  0
 34 35  2  0  0  0  0
 35 41  1  0  0  0  0
 36 35  1  0  0  0  0
 37 36  2  0  0  0  0
 38 33  2  0  0  0  0
 38 37  1  0  0  0  0
 39 33  1  0  0  0  0
 41 44  1  0  0  0  0
 41 43  1  0  0  0  0
 41 42  1  0  0  0  0
M  END
>  <minimizedAffinity>
-7.43984747

$$$$

 OpenBabel03252500123D

 44 48  0  0  0  0  0  0  0  0999 V2000
   37.2630   27.1030   38.6980 Cl  0  0  0  0  0  0  0  0  0  0  0  0
   37.0950   26.5900   40.3370 C   0  0  0  0  0  0  0  0  0  0  0  0
   36.9410   25.2680   40.6620 C   0  0  0  0  0  0  0  0  0  0  0  0
   36.8050   24.8280   41.9740 C   0  0  0  0  0  0  0  0  0  0  0  0
   36.8320   25.8050   42.9440 C   0  0  0  0  0  0  0  0  0  0  0  0
   36.9850   27.1380   42.6300 C   0  0  0  0  0  0  0  0  0  0  0  0
   37.1170   27.5390   41.3350 C   0  0  0  0  0  0  0  0  0  0  0  0
   36.6830   23.7740   42.2170 H   0  0  0  0  0  0  0  0  0  0  0  0
   36.7230   25.4430   43.9660 H   0  0  0  0  0  0  0  0  0  0  0  0
   36.9940   27.8370   43.4630 H   0  0  0  0  0  0  0  0  0  0  0  0
   37.2740   28.9710   41.1110 C   0  0  0  0  0  0  0  0  0  0  0  0
   36.1270   29.7240   40.9730 C   0  0  0  0  0  0  0  0  0  0  0  0
   35.1580   29.2500   41.0320 H   0  0  0  0  0  0  0  0  0  0  0  0
   36.2610   31.0750   40.7620 C   0  0  0  0  0  0  0  0  0  0  0  0
   35.3060   31.6160   40.6600 H   0  0  0  0  0  0  0  0  0  0  0  0
   37.4520   31.7630   40.6720 C   0  0  0  0  0  0  0  0  0  0  0  0
   38.5570   30.9610   40.8180 C   0  0  0  0  0  0  0  0  0  0  0  0
   38.4890   29.6190   41.0290 C   0  0  0  0  0  0  0  0  0  0  0  0
   39.3910   29.0280   41.1380 H   0  0  0  0  0  0  0  0  0  0  0  0
   40.1690   31.7070   40.7270 S   0  0  0  0  0  0  0  0  0  0  0  0
   39.9120   33.4460   40.4480 C   0  0  0  0  0  0  0  0  0  0  0  0
   40.9520   34.2960   40.3300 C   0  0  0  0  0  0  0  0  0  0  0  0
   41.9830   33.9130   40.4090 H   0  0  0  0  0  0  0  0  0  0  0  0
   40.8290   35.6600   40.1130 C   0  0  0  0  0  0  0  0  0  0  0  0
   41.6440   36.3650   40.0140 H   0  0  0  0  0  0  0  0  0  0  0  0
   39.5250   36.1340   40.0150 C   0  0  0  0  0  0  0  0  0  0  0  0
   39.3750   37.1870   39.8460 H   0  0  0  0  0  0  0  0  0  0  0  0
   38.4800   35.2490   40.1380 C   0  0  0  0  0  0  0  0  0  0  0  0
   37.4870   35.7170   40.0480 H   0  0  0  0  0  0  0  0  0  0  0  0
   38.6400   33.8980   40.3550 C   0  0  0  0  0  0  0  0  0  0  0  0
   37.4380   33.1610   40.4510 N   0  0  0  0  0  0  0  0  0  0  0  0
   36.5040   33.6110   40.3640 H   0  0  0  0  0  0  0  0  0  0  0  0
   35.7580   23.1030   37.9100 C   0  0  0  0  0  0  0  0  0  0  0  0
   36.9260   22.4070   37.5480 C   0  0  0  0  0  0  0  0  0  0  0  0
   38.0910   22.6880   38.2480 C   0  0  0  0  0  0  0  0  0  0  0  0
   38.0610   23.6160   39.2460 N   0  0  0  0  0  0  0  0  0  0  0  0
   36.9220   24.2790   39.5800 C   0  0  0  0  0  0  0  0  0  0  0  0
   35.7750   24.0160   38.9060 N   0  0  0  0  0  0  0  0  0  0  0  0
   34.8450   22.8930   37.3720 H   0  0  0  0  0  0  0  0  0  0  0  0
   36.9520   21.6700   36.7550 H   0  0  0  0  0  0  0  0  0  0  0  0
   39.3970   22.0120   37.9540 C   0  0  0  0  0  0  0  0  0  0  0  0
   39.5320   21.7600   36.6220 F   0  0  0  0  0  0  0  0  0  0  0  0
   40.4300   22.8580   38.3530 F   0  0  0  0  0  0  0  0  0  0  0  0
   39.4300   20.8670   38.6980 F   0  0  0  0  0  0  0  0  0  0  0  0
  1  2  1  0  0  0  0
  2  3  2  0  0  0  0
  2  7  1  0  0  0  0
  3  4  1  0  0  0  0
  4  8  1  0  0  0  0
  4  5  2  0  0  0  0
  5  9  1  0  0  0  0
  6  5  1  0  0  0  0
  6 10  1  0  0  0  0
  7  6  2  0  0  0  0
 11  7  1  0  0  0  0
 12 13  1  0  0  0  0
 12 11  2  0  0  0  0
 14 12  1  0  0  0  0
 15 14  1  0  0  0  0
 16 14  2  0  0  0  0
 16 17  1  0  0  0  0
 17 18  2  0  0  0  0
 18 11  1  0  0  0  0
 18 19  1  0  0  0  0
 20 17  1  0  0  0  0
 21 20  1  0  0  0  0
 22 23  1  0  0  0  0
 22 21  2  0  0  0  0
 24 22  1  0  0  0  0
 25 24  1  0  0  0  0
 26 24  2  0  0  0  0
 26 28  1  0  0  0  0
 27 26  1  0  0  0  0
 28 30  2  0  0  0  0
 29 28  1  0  0  0  0
 30 21  1  0  0  0  0
 30 31  1  0  0  0  0
 31 16  1  0  0  0  0
 32 31  1  0  0  0  0
 33 38  1  0  0  0  0
 34 33  2  0  0  0  0
 34 35  1  0  0  0  0
 35 36  2  0  0  0  0
 36 37  1  0  0  0  0
 37  3  1  0  0  0  0
 38 37  2  0  0  0  0
 39 33  1  0  0  0  0
 40 34  1  0  0  0  0
 41 35  1  0  0  0  0
 41 43  1  0  0  0  0
 41 44  1  0  0  0  0
 42 41  1  0  0  0  0
M  END
>  <minimizedAffinity>
-7.40729761

$$$$

 OpenBabel03252500123D

 44 48  0  0  0  0  0  0  0  0999 V2000
   40.8240   31.8660   39.5210 Cl  0  0  0  0  0  0  0  0  0  0  0  0
   40.0020   33.3660   39.7500 C   0  0  0  0  0  0  0  0  0  0  0  0
   40.6820   34.5180   40.0470 C   0  0  0  0  0  0  0  0  0  0  0  0
   40.0450   35.7380   40.2370 C   0  0  0  0  0  0  0  0  0  0  0  0
   38.6730   35.7300   40.1080 C   0  0  0  0  0  0  0  0  0  0  0  0
   37.9770   34.5790   39.8110 C   0  0  0  0  0  0  0  0  0  0  0  0
   38.6300   33.3970   39.6300 C   0  0  0  0  0  0  0  0  0  0  0  0
   40.5980   36.6460   40.4720 H   0  0  0  0  0  0  0  0  0  0  0  0
   38.1900   36.6950   40.2600 H   0  0  0  0  0  0  0  0  0  0  0  0
   36.8970   34.6690   39.7300 H   0  0  0  0  0  0  0  0  0  0  0  0
   37.8010   32.2380   39.3180 C   0  0  0  0  0  0  0  0  0  0  0  0
   37.0580   31.6920   40.3440 C   0  0  0  0  0  0  0  0  0  0  0  0
   37.1040   32.1210   41.3330 H   0  0  0  0  0  0  0  0  0  0  0  0
   36.2730   30.5990   40.0630 C   0  0  0  0  0  0  0  0  0  0  0  0
   35.7070   30.2130   40.9260 H   0  0  0  0  0  0  0  0  0  0  0  0
   36.1540   29.9860   38.8340 C   0  0  0  0  0  0  0  0  0  0  0  0
   36.9150   30.5750   37.8550 C   0  0  0  0  0  0  0  0  0  0  0  0
   37.7120   31.6560   38.0700 C   0  0  0  0  0  0  0  0  0  0  0  0
   38.2950   32.0860   37.2640 H   0  0  0  0  0  0  0  0  0  0  0  0
   36.8660   29.8940   36.2120 S   0  0  0  0  0  0  0  0  0  0  0  0
   35.7480   28.5100   36.2670 C   0  0  0  0  0  0  0  0  0  0  0  0
   35.4930   27.7750   35.1660 C   0  0  0  0  0  0  0  0  0  0  0  0
   35.9820   28.0310   34.2120 H   0  0  0  0  0  0  0  0  0  0  0  0
   34.6350   26.6850   35.1330 C   0  0  0  0  0  0  0  0  0  0  0  0
   34.4120   26.0780   34.2660 H   0  0  0  0  0  0  0  0  0  0  0  0
   34.0230   26.3700   36.3410 C   0  0  0  0  0  0  0  0  0  0  0  0
   33.3470   25.5310   36.3680 H   0  0  0  0  0  0  0  0  0  0  0  0
   34.2980   27.1330   37.4500 C   0  0  0  0  0  0  0  0  0  0  0  0
   33.7660   26.8080   38.3590 H   0  0  0  0  0  0  0  0  0  0  0  0
   35.1560   28.2110   37.4460 C   0  0  0  0  0  0  0  0  0  0  0  0
   35.3030   28.8640   38.6910 N   0  0  0  0  0  0  0  0  0  0  0  0
   34.7970   28.5500   39.5450 H   0  0  0  0  0  0  0  0  0  0  0  0
   44.2510   34.0190   39.2300 C   0  0  0  0  0  0  0  0  0  0  0  0
   44.8890   34.3540   40.4380 C   0  0  0  0  0  0  0  0  0  0  0  0
   44.0920   34.7420   41.5060 C   0  0  0  0  0  0  0  0  0  0  0  0
   42.7380   34.7830   41.3450 N   0  0  0  0  0  0  0  0  0  0  0  0
   42.1420   34.4570   40.1690 C   0  0  0  0  0  0  0  0  0  0  0  0
   42.9070   34.0760   39.1160 N   0  0  0  0  0  0  0  0  0  0  0  0
   44.8620   33.7160   38.3920 H   0  0  0  0  0  0  0  0  0  0  0  0
   45.9640   34.3210   40.5670 H   0  0  0  0  0  0  0  0  0  0  0  0
   44.6550   35.1210   42.8430 C   0  0  0  0  0  0  0  0  0  0  0  0
   44.7430   34.0390   43.6650 F   0  0  0  0  0  0  0  0  0  0  0  0
   45.9350   35.6370   42.6500 F   0  0  0  0  0  0  0  0  0  0  0  0
   43.8430   36.0920   43.3570 F   0  0  0  0  0  0  0  0  0  0  0  0
  1  2  1  0  0  0  0
  2  3  1  0  0  0  0
  3 37  1  0  0  0  0
  3  4  2  0  0  0  0
  4  8  1  0  0  0  0
  5  4  1  0  0  0  0
  5  9  1  0  0  0  0
  6  5  2  0  0  0  0
  7  2  2  0  0  0  0
  7  6  1  0  0  0  0
 10  6  1  0  0  0  0
 11  7  1  0  0  0  0
 11 12  1  0  0  0  0
 12 13  1  0  0  0  0
 14 12  2  0  0  0  0
 14 15  1  0  0  0  0
 16 14  1  0  0  0  0
 17 18  1  0  0  0  0
 17 16  2  0  0  0  0
 18 11  2  0  0  0  0
 19 18  1  0  0  0  0
 20 21  1  0  0  0  0
 20 17  1  0  0  0  0
 21 30  1  0  0  0  0
 22 21  2  0  0  0  0
 23 22  1  0  0  0  0
 24 22  1  0  0  0  0
 24 26  2  0  0  0  0
 25 24  1  0  0  0  0
 26 27  1  0  0  0  0
 26 28  1  0  0  0  0
 28 29  1  0  0  0  0
 30 28  2  0  0  0  0
 30 31  1  0  0  0  0
 31 16  1  0  0  0  0
 31 32  1  0  0  0  0
 33 34  1  0  0  0  0
 34 40  1  0  0  0  0
 34 35  2  0  0  0  0
 35 41  1  0  0  0  0
 36 35  1  0  0  0  0
 37 36  2  0  0  0  0
 38 33  2  0  0  0  0
 38 37  1  0  0  0  0
 39 33  1  0  0  0  0
 41 44  1  0  0  0  0
 41 42  1  0  0  0  0
 43 41  1  0  0  0  0
M  END
>  <minimizedAffinity>
-7.07043886

$$$$

 OpenBabel03252500123D

 44 48  0  0  0  0  0  0  0  0999 V2000
   39.4460   27.5310   40.4520 Cl  0  0  0  0  0  0  0  0  0  0  0  0
   38.4260   27.6930   41.8340 C   0  0  0  0  0  0  0  0  0  0  0  0
   37.5480   26.7050   42.1970 C   0  0  0  0  0  0  0  0  0  0  0  0
   36.7160   26.8090   43.3050 C   0  0  0  0  0  0  0  0  0  0  0  0
   36.8210   27.9740   44.0320 C   0  0  0  0  0  0  0  0  0  0  0  0
   37.6990   28.9750   43.6780 C   0  0  0  0  0  0  0  0  0  0  0  0
   38.5030   28.8440   42.5860 C   0  0  0  0  0  0  0  0  0  0  0  0
   36.0230   26.0150   43.5810 H   0  0  0  0  0  0  0  0  0  0  0  0
   36.1620   28.0390   44.8970 H   0  0  0  0  0  0  0  0  0  0  0  0
   37.7120   29.8590   44.3120 H   0  0  0  0  0  0  0  0  0  0  0  0
   39.3960   29.9610   42.3000 C   0  0  0  0  0  0  0  0  0  0  0  0
   38.9530   30.9200   41.4130 C   0  0  0  0  0  0  0  0  0  0  0  0
   37.9770   30.8280   40.9590 H   0  0  0  0  0  0  0  0  0  0  0  0
   39.7860   31.9770   41.1340 C   0  0  0  0  0  0  0  0  0  0  0  0
   39.3710   32.7050   40.4190 H   0  0  0  0  0  0  0  0  0  0  0  0
   41.0430   32.1750   41.6640 C   0  0  0  0  0  0  0  0  0  0  0  0
   41.4270   31.1890   42.5380 C   0  0  0  0  0  0  0  0  0  0  0  0
   40.6490   30.1190   42.8540 C   0  0  0  0  0  0  0  0  0  0  0  0
   40.9980   29.3660   43.5510 H   0  0  0  0  0  0  0  0  0  0  0  0
   43.0280   31.3070   43.3050 S   0  0  0  0  0  0  0  0  0  0  0  0
   43.7800   32.7980   42.6890 C   0  0  0  0  0  0  0  0  0  0  0  0
   45.0130   33.1730   43.0850 C   0  0  0  0  0  0  0  0  0  0  0  0
   45.5700   32.5500   43.8040 H   0  0  0  0  0  0  0  0  0  0  0  0
   45.6610   34.3190   42.6490 C   0  0  0  0  0  0  0  0  0  0  0  0
   46.6480   34.6450   42.9490 H   0  0  0  0  0  0  0  0  0  0  0  0
   44.9510   35.0990   41.7420 C   0  0  0  0  0  0  0  0  0  0  0  0
   45.4120   36.0000   41.3730 H   0  0  0  0  0  0  0  0  0  0  0  0
   43.6960   34.6970   41.3530 C   0  0  0  0  0  0  0  0  0  0  0  0
   43.2130   35.3780   40.6340 H   0  0  0  0  0  0  0  0  0  0  0  0
   43.0820   33.5500   41.8080 C   0  0  0  0  0  0  0  0  0  0  0  0
   41.7900   33.3150   41.2840 N   0  0  0  0  0  0  0  0  0  0  0  0
   41.3410   33.9640   40.6050 H   0  0  0  0  0  0  0  0  0  0  0  0
   38.2310   23.3110   40.9030 C   0  0  0  0  0  0  0  0  0  0  0  0
   37.3430   23.2170   39.8150 C   0  0  0  0  0  0  0  0  0  0  0  0
   36.5320   24.3100   39.5440 C   0  0  0  0  0  0  0  0  0  0  0  0
   36.6240   25.4180   40.3320 N   0  0  0  0  0  0  0  0  0  0  0  0
   37.4870   25.4890   41.3790 C   0  0  0  0  0  0  0  0  0  0  0  0
   38.2870   24.4290   41.6570 N   0  0  0  0  0  0  0  0  0  0  0  0
   38.8670   22.4660   41.1230 H   0  0  0  0  0  0  0  0  0  0  0  0
   37.2690   22.3370   39.1880 H   0  0  0  0  0  0  0  0  0  0  0  0
   35.5470   24.3280   38.4130 C   0  0  0  0  0  0  0  0  0  0  0  0
   35.2190   25.6040   38.0670 F   0  0  0  0  0  0  0  0  0  0  0  0
   36.1320   23.7060   37.3110 F   0  0  0  0  0  0  0  0  0  0  0  0
   34.4580   23.6110   38.8190 F   0  0  0  0  0  0  0  0  0  0  0  0
  1  2  1  0  0  0  0
  2  3  2  0  0  0  0
  2  7  1  0  0  0  0
  3  4  1  0  0  0  0
  4  8  1  0  0  0  0
  4  5  2  0  0  0  0
  5  9  1  0  0  0  0
  6  5  1  0  0  0  0
  6 10  1  0  0  0  0
  7  6  2  0  0  0  0
 11  7  1  0  0  0  0
 11 18  1  0  0  0  0
 12 11  2  0  0  0  0
 13 12  1  0  0  0  0
 14 12  1  0  0  0  0
 14 16  2  0  0  0  0
 15 14  1  0  0  0  0
 16 17  1  0  0  0  0
 17 18  2  0  0  0  0
 17 20  1  0  0  0  0
 18 19  1  0  0  0  0
 21 22  1  0  0  0  0
 21 20  1  0  0  0  0
 22 23  1  0  0  0  0
 24 25  1  0  0  0  0
 24 22  2  0  0  0  0
 26 24  1  0  0  0  0
 27 26  1  0  0  0  0
 28 26  2  0  0  0  0
 28 30  1  0  0  0  0
 29 28  1  0  0  0  0
 30 21  2  0  0  0  0
 31 16  1  0  0  0  0
 31 30  1  0  0  0  0
 32 31  1  0  0  0  0
 33 39  1  0  0  0  0
 33 38  1  0  0  0  0
 34 33  2  0  0  0  0
 35 34  1  0  0  0  0
 35 36  2  0  0  0  0
 36 37  1  0  0  0  0
 37 38  2  0  0  0  0
 37  3  1  0  0  0  0
 40 34  1  0  0  0  0
 41 44  1  0  0  0  0
 41 35  1  0  0  0  0
 42 41  1  0  0  0  0
 43 41  1  0  0  0  0
M  END
>  <minimizedAffinity>
-6.94672346

$$$$

 OpenBabel03252500123D

 44 48  0  0  0  0  0  0  0  0999 V2000
   41.3050   31.4360   40.0220 Cl  0  0  0  0  0  0  0  0  0  0  0  0
   40.1960   32.7570   40.0760 C   0  0  0  0  0  0  0  0  0  0  0  0
   40.6160   34.0360   40.3320 C   0  0  0  0  0  0  0  0  0  0  0  0
   39.7440   35.1170   40.3800 C   0  0  0  0  0  0  0  0  0  0  0  0
   38.4160   34.8330   40.1550 C   0  0  0  0  0  0  0  0  0  0  0  0
   37.9800   33.5510   39.8970 C   0  0  0  0  0  0  0  0  0  0  0  0
   38.8590   32.5110   39.8550 C   0  0  0  0  0  0  0  0  0  0  0  0
   40.0930   36.1280   40.5850 H   0  0  0  0  0  0  0  0  0  0  0  0
   37.7460   35.6910   40.1970 H   0  0  0  0  0  0  0  0  0  0  0  0
   36.9130   33.4230   39.7320 H   0  0  0  0  0  0  0  0  0  0  0  0
   38.2950   31.1960   39.5750 C   0  0  0  0  0  0  0  0  0  0  0  0
   37.6960   31.0080   38.3470 C   0  0  0  0  0  0  0  0  0  0  0  0
   37.6570   31.8180   37.6340 H   0  0  0  0  0  0  0  0  0  0  0  0
   37.1600   29.7720   38.0700 C   0  0  0  0  0  0  0  0  0  0  0  0
   36.6970   29.6910   37.0740 H   0  0  0  0  0  0  0  0  0  0  0  0
   37.1640   28.6840   38.9160 C   0  0  0  0  0  0  0  0  0  0  0  0
   37.7740   28.9320   40.1210 C   0  0  0  0  0  0  0  0  0  0  0  0
   38.3220   30.1320   40.4530 C   0  0  0  0  0  0  0  0  0  0  0  0
   38.7930   30.2800   41.4180 H   0  0  0  0  0  0  0  0  0  0  0  0
   37.8570   27.6210   41.3200 S   0  0  0  0  0  0  0  0  0  0  0  0
   37.0630   26.2080   40.5870 C   0  0  0  0  0  0  0  0  0  0  0  0
   36.9610   25.0400   41.2530 C   0  0  0  0  0  0  0  0  0  0  0  0
   37.3760   24.9520   42.2700 H   0  0  0  0  0  0  0  0  0  0  0  0
   36.3570   23.8990   40.7460 C   0  0  0  0  0  0  0  0  0  0  0  0
   36.2610   22.9500   41.2570 H   0  0  0  0  0  0  0  0  0  0  0  0
   35.8350   24.0190   39.4620 C   0  0  0  0  0  0  0  0  0  0  0  0
   35.3550   23.1600   39.0230 H   0  0  0  0  0  0  0  0  0  0  0  0
   35.9510   25.2180   38.8020 C   0  0  0  0  0  0  0  0  0  0  0  0
   35.5100   25.2160   37.7930 H   0  0  0  0  0  0  0  0  0  0  0  0
   36.5590   26.3330   39.3370 C   0  0  0  0  0  0  0  0  0  0  0  0
   36.5730   27.4690   38.4960 N   0  0  0  0  0  0  0  0  0  0  0  0
   36.1530   27.4580   37.5440 H   0  0  0  0  0  0  0  0  0  0  0  0
   43.8020   34.9390   41.9720 C   0  0  0  0  0  0  0  0  0  0  0  0
   44.7450   34.6990   40.9560 C   0  0  0  0  0  0  0  0  0  0  0  0
   44.2780   34.2360   39.7340 C   0  0  0  0  0  0  0  0  0  0  0  0
   42.9400   34.0330   39.5670 N   0  0  0  0  0  0  0  0  0  0  0  0
   42.0450   34.2700   40.5620 C   0  0  0  0  0  0  0  0  0  0  0  0
   42.4860   34.7230   41.7620 N   0  0  0  0  0  0  0  0  0  0  0  0
   44.1550   35.2990   42.9280 H   0  0  0  0  0  0  0  0  0  0  0  0
   45.8080   34.8600   41.0880 H   0  0  0  0  0  0  0  0  0  0  0  0
   45.1850   33.9450   38.5760 C   0  0  0  0  0  0  0  0  0  0  0  0
   45.9490   32.8430   38.8140 F   0  0  0  0  0  0  0  0  0  0  0  0
   44.3990   33.7050   37.4510 F   0  0  0  0  0  0  0  0  0  0  0  0
   45.9450   35.0620   38.3740 F   0  0  0  0  0  0  0  0  0  0  0  0
  1  2  1  0  0  0  0
  2  3  1  0  0  0  0
  3  4  2  0  0  0  0
  3 37  1  0  0  0  0
  4  8  1  0  0  0  0
  5  9  1  0  0  0  0
  5  4  1  0  0  0  0
  6  5  2  0  0  0  0
  7  6  1  0  0  0  0
  7  2  2  0  0  0  0
 10  6  1  0  0  0  0
 11  7  1  0  0  0  0
 11 18  1  0  0  0  0
 12 11  2  0  0  0  0
 13 12  1  0  0  0  0
 14 12  1  0  0  0  0
 14 16  2  0  0  0  0
 15 14  1  0  0  0  0
 16 17  1  0  0  0  0
 17 18  2  0  0  0  0
 17 20  1  0  0  0  0
 18 19  1  0  0  0  0
 21 22  1  0  0  0  0
 21 20  1  0  0  0  0
 22 23  1  0  0  0  0
 24 22  2  0  0  0  0
 24 25  1  0  0  0  0
 26 24  1  0  0  0  0
 27 26  1  0  0  0  0
 28 30  1  0  0  0  0
 28 26  2  0  0  0  0
 29 28  1  0  0  0  0
 30 21  2  0  0  0  0
 31 16  1  0  0  0  0
 31 30  1  0  0  0  0
 32 31  1  0  0  0  0
 33 39  1  0  0  0  0
 34 40  1  0  0  0  0
 34 33  2  0  0  0  0
 35 34  1  0  0  0  0
 36 35  2  0  0  0  0
 36 37  1  0  0  0  0
 37 38  2  0  0  0  0
 38 33  1  0  0  0  0
 41 42  1  0  0  0  0
 41 35  1  0  0  0  0
 43 41  1  0  0  0  0
 44 41  1  0  0  0  0
M  END
>  <minimizedAffinity>
-6.91804552

$$$$

 OpenBabel03252500123D

 44 48  0  0  0  0  0  0  0  0999 V2000
   39.6410   28.6100   39.5800 Cl  0  0  0  0  0  0  0  0  0  0  0  0
   38.0500   29.1720   39.9360 C   0  0  0  0  0  0  0  0  0  0  0  0
   37.7230   30.5010   39.8500 C   0  0  0  0  0  0  0  0  0  0  0  0
   36.4490   30.9800   40.1310 C   0  0  0  0  0  0  0  0  0  0  0  0
   35.5180   30.0370   40.5050 C   0  0  0  0  0  0  0  0  0  0  0  0
   35.8330   28.6990   40.5960 C   0  0  0  0  0  0  0  0  0  0  0  0
   37.0910   28.2580   40.3140 C   0  0  0  0  0  0  0  0  0  0  0  0
   36.2040   32.0390   40.0580 H   0  0  0  0  0  0  0  0  0  0  0  0
   34.5250   30.4300   40.7220 H   0  0  0  0  0  0  0  0  0  0  0  0
   35.0330   28.0290   40.9000 H   0  0  0  0  0  0  0  0  0  0  0  0
   37.3200   26.8240   40.4400 C   0  0  0  0  0  0  0  0  0  0  0  0
   37.5440   26.3230   41.7060 C   0  0  0  0  0  0  0  0  0  0  0  0
   37.5450   26.9870   42.5580 H   0  0  0  0  0  0  0  0  0  0  0  0
   37.7620   24.9730   41.8390 C   0  0  0  0  0  0  0  0  0  0  0  0
   37.9340   24.6400   42.8750 H   0  0  0  0  0  0  0  0  0  0  0  0
   37.7790   24.0540   40.8110 C   0  0  0  0  0  0  0  0  0  0  0  0
   37.5500   24.6120   39.5770 C   0  0  0  0  0  0  0  0  0  0  0  0
   37.3280   25.9390   39.3820 C   0  0  0  0  0  0  0  0  0  0  0  0
   37.1520   26.3320   38.3870 H   0  0  0  0  0  0  0  0  0  0  0  0
   37.5410   23.5490   38.1510 S   0  0  0  0  0  0  0  0  0  0  0  0
   37.8570   21.9000   38.7400 C   0  0  0  0  0  0  0  0  0  0  0  0
   37.9140   20.8540   37.8920 C   0  0  0  0  0  0  0  0  0  0  0  0
   37.7620   21.0170   36.8120 H   0  0  0  0  0  0  0  0  0  0  0  0
   38.1550   19.5440   38.2780 C   0  0  0  0  0  0  0  0  0  0  0  0
   38.2060   18.6860   37.6210 H   0  0  0  0  0  0  0  0  0  0  0  0
   38.3460   19.3490   39.6420 C   0  0  0  0  0  0  0  0  0  0  0  0
   38.5370   18.3480   39.9930 H   0  0  0  0  0  0  0  0  0  0  0  0
   38.2830   20.4290   40.4880 C   0  0  0  0  0  0  0  0  0  0  0  0
   38.4450   20.1760   41.5480 H   0  0  0  0  0  0  0  0  0  0  0  0
   38.0400   21.7200   40.0690 C   0  0  0  0  0  0  0  0  0  0  0  0
   38.0160   22.6890   41.0970 N   0  0  0  0  0  0  0  0  0  0  0  0
   38.1710   22.4410   42.0960 H   0  0  0  0  0  0  0  0  0  0  0  0
   40.5820   32.0240   38.0720 C   0  0  0  0  0  0  0  0  0  0  0  0
   40.7080   33.2710   38.7110 C   0  0  0  0  0  0  0  0  0  0  0  0
   39.8180   33.5670   39.7340 C   0  0  0  0  0  0  0  0  0  0  0  0
   38.8680   32.6510   40.0760 N   0  0  0  0  0  0  0  0  0  0  0  0
   38.7620   31.4520   39.4450 C   0  0  0  0  0  0  0  0  0  0  0  0
   39.6240   31.1470   38.4430 N   0  0  0  0  0  0  0  0  0  0  0  0
   41.2690   31.7820   37.2740 H   0  0  0  0  0  0  0  0  0  0  0  0
   41.4620   33.9990   38.4410 H   0  0  0  0  0  0  0  0  0  0  0  0
   39.8530   34.8620   40.4890 C   0  0  0  0  0  0  0  0  0  0  0  0
   41.0870   35.0920   41.0170 F   0  0  0  0  0  0  0  0  0  0  0  0
   39.5490   35.8950   39.6040 F   0  0  0  0  0  0  0  0  0  0  0  0
   38.8890   34.7880   41.4540 F   0  0  0  0  0  0  0  0  0  0  0  0
  1  2  1  0  0  0  0
  2  7  1  0  0  0  0
  3  2  2  0  0  0  0
  3  4  1  0  0  0  0
  4  5  2  0  0  0  0
  5  6  1  0  0  0  0
  5  9  1  0  0  0  0
  6 10  1  0  0  0  0
  7 11  1  0  0  0  0
  7  6  2  0  0  0  0
  8  4  1  0  0  0  0
 11 12  1  0  0  0  0
 12 14  2  0  0  0  0
 12 13  1  0  0  0  0
 14 15  1  0  0  0  0
 16 31  1  0  0  0  0
 16 14  1  0  0  0  0
 17 16  2  0  0  0  0
 18 17  1  0  0  0  0
 18 11  2  0  0  0  0
 19 18  1  0  0  0  0
 20 21  1  0  0  0  0
 20 17  1  0  0  0  0
 21 30  1  0  0  0  0
 22 24  1  0  0  0  0
 22 21  2  0  0  0  0
 23 22  1  0  0  0  0
 24 26  2  0  0  0  0
 25 24  1  0  0  0  0
 26 27  1  0  0  0  0
 26 28  1  0  0  0  0
 28 29  1  0  0  0  0
 30 28  2  0  0  0  0
 30 31  1  0  0  0  0
 31 32  1  0  0  0  0
 33 38  2  0  0  0  0
 33 34  1  0  0  0  0
 34 35  2  0  0  0  0
 35 36  1  0  0  0  0
 35 41  1  0  0  0  0
 37  3  1  0  0  0  0
 37 36  2  0  0  0  0
 38 37  1  0  0  0  0
 39 33  1  0  0  0  0
 40 34  1  0  0  0  0
 41 42  1  0  0  0  0
 41 44  1  0  0  0  0
 43 41  1  0  0  0  0
M  END
>  <minimizedAffinity>
-6.90180111

$$$$

 OpenBabel03252500123D

 44 48  0  0  0  0  0  0  0  0999 V2000
   37.7750   27.0530   38.5010 Cl  0  0  0  0  0  0  0  0  0  0  0  0
   37.3180   26.5120   40.0740 C   0  0  0  0  0  0  0  0  0  0  0  0
   37.1620   25.1800   40.3570 C   0  0  0  0  0  0  0  0  0  0  0  0
   36.7950   24.7170   41.6150 C   0  0  0  0  0  0  0  0  0  0  0  0
   36.5930   25.6810   42.5780 C   0  0  0  0  0  0  0  0  0  0  0  0
   36.7450   27.0230   42.3070 C   0  0  0  0  0  0  0  0  0  0  0  0
   37.1070   27.4470   41.0630 C   0  0  0  0  0  0  0  0  0  0  0  0
   36.6750   23.6550   41.8250 H   0  0  0  0  0  0  0  0  0  0  0  0
   36.3050   25.3010   43.5580 H   0  0  0  0  0  0  0  0  0  0  0  0
   36.5630   27.7110   43.1300 H   0  0  0  0  0  0  0  0  0  0  0  0
   37.2410   28.8870   40.8820 C   0  0  0  0  0  0  0  0  0  0  0  0
   36.0830   29.6350   40.8420 C   0  0  0  0  0  0  0  0  0  0  0  0
   35.1220   29.1520   40.9430 H   0  0  0  0  0  0  0  0  0  0  0  0
   36.1960   30.9950   40.6700 C   0  0  0  0  0  0  0  0  0  0  0  0
   35.2330   31.5310   40.6460 H   0  0  0  0  0  0  0  0  0  0  0  0
   37.3750   31.6950   40.5330 C   0  0  0  0  0  0  0  0  0  0  0  0
   38.4910   30.8970   40.5810 C   0  0  0  0  0  0  0  0  0  0  0  0
   38.4450   29.5480   40.7480 C   0  0  0  0  0  0  0  0  0  0  0  0
   39.3550   28.9600   40.7800 H   0  0  0  0  0  0  0  0  0  0  0  0
   40.0910   31.6590   40.4180 S   0  0  0  0  0  0  0  0  0  0  0  0
   39.8070   33.4040   40.2170 C   0  0  0  0  0  0  0  0  0  0  0  0
   40.8320   34.2650   40.0670 C   0  0  0  0  0  0  0  0  0  0  0  0
   41.8680   33.8880   40.0680 H   0  0  0  0  0  0  0  0  0  0  0  0
   40.6880   35.6360   39.9060 C   0  0  0  0  0  0  0  0  0  0  0  0
   41.4910   36.3500   39.7830 H   0  0  0  0  0  0  0  0  0  0  0  0
   39.3780   36.1020   39.9050 C   0  0  0  0  0  0  0  0  0  0  0  0
   39.2120   37.1600   39.7840 H   0  0  0  0  0  0  0  0  0  0  0  0
   38.3480   35.2060   40.0610 C   0  0  0  0  0  0  0  0  0  0  0  0
   37.3480   35.6680   40.0480 H   0  0  0  0  0  0  0  0  0  0  0  0
   38.5290   33.8490   40.2190 C   0  0  0  0  0  0  0  0  0  0  0  0
   37.3390   33.0990   40.3630 N   0  0  0  0  0  0  0  0  0  0  0  0
   36.3990   33.5440   40.3490 H   0  0  0  0  0  0  0  0  0  0  0  0
   38.5720   22.3650   38.4220 C   0  0  0  0  0  0  0  0  0  0  0  0
   37.8020   22.3890   37.2460 C   0  0  0  0  0  0  0  0  0  0  0  0
   36.8190   23.3630   37.1350 C   0  0  0  0  0  0  0  0  0  0  0  0
   36.6400   24.2470   38.1570 N   0  0  0  0  0  0  0  0  0  0  0  0
   37.3940   24.2060   39.2860 C   0  0  0  0  0  0  0  0  0  0  0  0
   38.3590   23.2600   39.4100 N   0  0  0  0  0  0  0  0  0  0  0  0
   39.3400   21.6110   38.5200 H   0  0  0  0  0  0  0  0  0  0  0  0
   37.9430   21.6870   36.4330 H   0  0  0  0  0  0  0  0  0  0  0  0
   35.9350   23.4890   35.9300 C   0  0  0  0  0  0  0  0  0  0  0  0
   36.0520   22.4030   35.1170 F   0  0  0  0  0  0  0  0  0  0  0  0
   34.6130   23.5800   36.3620 F   0  0  0  0  0  0  0  0  0  0  0  0
   36.2890   24.6460   35.2940 F   0  0  0  0  0  0  0  0  0  0  0  0
  1  2  1  0  0  0  0
  2  3  2  0  0  0  0
  2  7  1  0  0  0  0
  3  4  1  0  0  0  0
  4  8  1  0  0  0  0
  4  5  2  0  0  0  0
  5  9  1  0  0  0  0
  6  5  1  0  0  0  0
  6 10  1  0  0  0  0
  7  6  2  0  0  0  0
 11  7  1  0  0  0  0
 12 11  1  0  0  0  0
 12 13  1  0  0  0  0
 14 12  2  0  0  0  0
 15 14  1  0  0  0  0
 16 17  2  0  0  0  0
 16 14  1  0  0  0  0
 17 18  1  0  0  0  0
 18 19  1  0  0  0  0
 18 11  2  0  0  0  0
 20 17  1  0  0  0  0
 21 30  1  0  0  0  0
 21 20  1  0  0  0  0
 22 23  1  0  0  0  0
 22 21  2  0  0  0  0
 24 22  1  0  0  0  0
 25 24  1  0  0  0  0
 26 24  2  0  0  0  0
 26 28  1  0  0  0  0
 27 26  1  0  0  0  0
 28 30  2  0  0  0  0
 29 28  1  0  0  0  0
 30 31  1  0  0  0  0
 31 16  1  0  0  0  0
 32 31  1  0  0  0  0
 33 39  1  0  0  0  0
 33 38  1  0  0  0  0
 34 33  2  0  0  0  0
 35 34  1  0  0  0  0
 35 36  2  0  0  0  0
 36 37  1  0  0  0  0
 37 38  2  0  0  0  0
 37  3  1  0  0  0  0
 40 34  1  0  0  0  0
 41 43  1  0  0  0  0
 41 35  1  0  0  0  0
 42 41  1  0  0  0  0
 44 41  1  0  0  0  0
M  END
>  <minimizedAffinity>
-6.88388109

$$$$
