
 OpenBabel03252500093D

 44 48  0  0  0  0  0  0  0  0999 V2000
   45.6490   31.9830   39.3170 Cl  0  0  0  0  0  0  0  0  0  0  0  0
   46.8640   33.1070   38.8290 C   0  0  0  0  0  0  0  0  0  0  0  0
   47.4680   33.9460   39.7290 C   0  0  0  0  0  0  0  0  0  0  0  0
   48.4480   34.8600   39.3630 C   0  0  0  0  0  0  0  0  0  0  0  0
   48.7880   34.8790   38.0280 C   0  0  0  0  0  0  0  0  0  0  0  0
   48.1880   34.0420   37.1130 C   0  0  0  0  0  0  0  0  0  0  0  0
   47.2300   33.1550   37.5020 C   0  0  0  0  0  0  0  0  0  0  0  0
   48.9190   35.5210   40.0890 H   0  0  0  0  0  0  0  0  0  0  0  0
   49.5570   35.6020   37.7580 H   0  0  0  0  0  0  0  0  0  0  0  0
   48.5200   34.1290   36.0810 H   0  0  0  0  0  0  0  0  0  0  0  0
   46.6590   32.3150   36.4560 C   0  0  0  0  0  0  0  0  0  0  0  0
   45.4090   32.6520   35.9780 C   0  0  0  0  0  0  0  0  0  0  0  0
   44.8910   33.5100   36.3790 H   0  0  0  0  0  0  0  0  0  0  0  0
   44.8600   31.8670   34.9930 C   0  0  0  0  0  0  0  0  0  0  0  0
   43.8630   32.1920   34.6580 H   0  0  0  0  0  0  0  0  0  0  0  0
   45.4480   30.7570   34.4250 C   0  0  0  0  0  0  0  0  0  0  0  0
   46.6880   30.4730   34.9410 C   0  0  0  0  0  0  0  0  0  0  0  0
   47.2840   31.2100   35.9150 C   0  0  0  0  0  0  0  0  0  0  0  0
   48.2670   30.9450   36.2890 H   0  0  0  0  0  0  0  0  0  0  0  0
   47.5730   29.0660   34.3040 S   0  0  0  0  0  0  0  0  0  0  0  0
   46.5340   28.3300   33.0620 C   0  0  0  0  0  0  0  0  0  0  0  0
   46.9270   27.2320   32.3860 C   0  0  0  0  0  0  0  0  0  0  0  0
   47.9070   26.7780   32.6020 H   0  0  0  0  0  0  0  0  0  0  0  0
   46.1720   26.6030   31.4050 C   0  0  0  0  0  0  0  0  0  0  0  0
   46.4620   25.7230   30.8470 H   0  0  0  0  0  0  0  0  0  0  0  0
   44.9370   27.1830   31.1390 C   0  0  0  0  0  0  0  0  0  0  0  0
   44.3120   26.7330   30.3850 H   0  0  0  0  0  0  0  0  0  0  0  0
   44.5580   28.3010   31.8400 C   0  0  0  0  0  0  0  0  0  0  0  0
   43.5650   28.6890   31.5610 H   0  0  0  0  0  0  0  0  0  0  0  0
   45.3340   28.9000   32.8100 C   0  0  0  0  0  0  0  0  0  0  0  0
   44.7610   30.0430   33.4140 N   0  0  0  0  0  0  0  0  0  0  0  0
   43.8230   30.4010   33.1430 H   0  0  0  0  0  0  0  0  0  0  0  0
   47.2170   32.8720   43.2560 C   0  0  0  0  0  0  0  0  0  0  0  0
   46.2650   33.7670   43.7790 C   0  0  0  0  0  0  0  0  0  0  0  0
   45.7290   34.7160   42.9210 C   0  0  0  0  0  0  0  0  0  0  0  0
   46.1390   34.7460   41.6210 N   0  0  0  0  0  0  0  0  0  0  0  0
   47.0600   33.8730   41.1360 C   0  0  0  0  0  0  0  0  0  0  0  0
   47.5940   32.9390   41.9610 N   0  0  0  0  0  0  0  0  0  0  0  0
   47.6420   32.1290   43.9150 H   0  0  0  0  0  0  0  0  0  0  0  0
   45.9390   33.7440   44.8120 H   0  0  0  0  0  0  0  0  0  0  0  0
   44.7070   35.7230   43.3610 C   0  0  0  0  0  0  0  0  0  0  0  0
   45.1760   36.9940   43.2200 F   0  0  0  0  0  0  0  0  0  0  0  0
   43.5740   35.5770   42.5630 F   0  0  0  0  0  0  0  0  0  0  0  0
   44.3950   35.4330   44.6590 F   0  0  0  0  0  0  0  0  0  0  0  0
  2  1  1  0  0  0  0
  2  3  1  0  0  0  0
  3 37  1  0  0  0  0
  4  3  2  0  0  0  0
  4  8  1  0  0  0  0
  5  4  1  0  0  0  0
  6  7  1  0  0  0  0
  6  5  2  0  0  0  0
  7  2  2  0  0  0  0
  9  5  1  0  0  0  0
 10  6  1  0  0  0  0
 11  7  1  0  0  0  0
 12 13  1  0  0  0  0
 12 11  1  0  0  0  0
 14 12  2  0  0  0  0
 15 14  1  0  0  0  0
 16 17  2  0  0  0  0
 16 14  1  0  0  0  0
 17 18  1  0  0  0  0
 18 19  1  0  0  0  0
 18 11  2  0  0  0  0
 20 17  1  0  0  0  0
 21 20  1  0  0  0  0
 22 23  1  0  0  0  0
 22 21  2  0  0  0  0
 24 22  1  0  0  0  0
 25 24  1  0  0  0  0
 26 24  2  0  0  0  0
 26 28  1  0  0  0  0
 27 26  1  0  0  0  0
 28 30  2  0  0  0  0
 29 28  1  0  0  0  0
 30 21  1  0  0  0  0
 30 31  1  0  0  0  0
 31 16  1  0  0  0  0
 32 31  1  0  0  0  0
 33 34  1  0  0  0  0
 33 39  1  0  0  0  0
 34 40  1  0  0  0  0
 35 41  1  0  0  0  0
 35 34  2  0  0  0  0
 36 35  1  0  0  0  0
 37 36  2  0  0  0  0
 37 38  1  0  0  0  0
 38 33  2  0  0  0  0
 41 44  1  0  0  0  0
 42 41  1  0  0  0  0
 43 41  1  0  0  0  0
M  END
>  <minimizedAffinity>
-6.30947781

>  <minimizedRMSD>
1.32221639

$$$$
