
 OpenBabel03242518123D

 44 48  0  0  0  0  0  0  0  0999 V2000
   49.0330   33.1820   41.9170 C   0  0  0  0  0  0  0  0  0  0  0  0
   48.7390   32.3600   40.7760 C   0  0  0  0  0  0  0  0  0  0  0  0
   49.7440   31.6230   40.2090 C   0  0  0  0  0  0  0  0  0  0  0  0
   51.0670   31.7150   40.8040 C   0  0  0  0  0  0  0  0  0  0  0  0
   50.8740   32.8650   42.1820 S   0  0  0  0  0  0  0  0  0  0  0  0
   47.7170   32.3940   40.4500 H   0  0  0  0  0  0  0  0  0  0  0  0
   49.5660   30.9960   39.3540 H   0  0  0  0  0  0  0  0  0  0  0  0
   52.2260   31.0960   40.4430 C   0  0  0  0  0  0  0  0  0  0  0  0
   52.8050   30.1750   41.2880 C   0  0  0  0  0  0  0  0  0  0  0  0
   52.3570   29.9290   42.2420 H   0  0  0  0  0  0  0  0  0  0  0  0
   53.9980   29.5330   40.9270 C   0  0  0  0  0  0  0  0  0  0  0  0
   54.4010   28.8200   41.6350 H   0  0  0  0  0  0  0  0  0  0  0  0
   54.6420   29.7810   39.7330 C   0  0  0  0  0  0  0  0  0  0  0  0
   54.0300   30.7030   38.9260 C   0  0  0  0  0  0  0  0  0  0  0  0
   52.8750   31.3380   39.2540 C   0  0  0  0  0  0  0  0  0  0  0  0
   52.4140   32.0630   38.5930 H   0  0  0  0  0  0  0  0  0  0  0  0
   54.7990   31.0810   37.3630 S   0  0  0  0  0  0  0  0  0  0  0  0
   56.2700   30.0800   37.2660 C   0  0  0  0  0  0  0  0  0  0  0  0
   57.0490   30.1880   36.1450 C   0  0  0  0  0  0  0  0  0  0  0  0
   56.7570   30.8740   35.3480 H   0  0  0  0  0  0  0  0  0  0  0  0
   58.2020   29.4470   35.9980 C   0  0  0  0  0  0  0  0  0  0  0  0
   58.7630   29.5780   35.1000 H   0  0  0  0  0  0  0  0  0  0  0  0
   58.5420   28.5940   37.0180 C   0  0  0  0  0  0  0  0  0  0  0  0
   59.4350   28.0010   36.9340 H   0  0  0  0  0  0  0  0  0  0  0  0
   57.7190   28.5270   38.1230 C   0  0  0  0  0  0  0  0  0  0  0  0
   58.0600   27.8230   38.8930 H   0  0  0  0  0  0  0  0  0  0  0  0
   56.5590   29.2460   38.3170 C   0  0  0  0  0  0  0  0  0  0  0  0
   55.8280   29.0700   39.4940 N   0  0  0  0  0  0  0  0  0  0  0  0
   56.1930   28.3920   40.1920 H   0  0  0  0  0  0  0  0  0  0  0  0
   48.3140   34.0700   42.7660 C   0  0  0  0  0  0  0  0  0  0  0  0
   47.5300   33.5400   43.3250 H   0  0  0  0  0  0  0  0  0  0  0  0
   49.0270   34.4750   43.5330 H   0  0  0  0  0  0  0  0  0  0  0  0
   47.6960   35.2770   42.1010 C   0  0  0  0  0  0  0  0  0  0  0  0
   47.9700   36.1930   42.6940 H   0  0  0  0  0  0  0  0  0  0  0  0
   48.1090   35.4290   41.1130 H   0  0  0  0  0  0  0  0  0  0  0  0
   46.2550   35.1380   42.1040 C   0  0  0  0  0  0  0  0  0  0  0  0
   45.4600   35.6850   43.1130 C   0  0  0  0  0  0  0  0  0  0  0  0
   44.0800   35.5120   43.0510 C   0  0  0  0  0  0  0  0  0  0  0  0
   43.5780   34.8170   42.0100 N   0  0  0  0  0  0  0  0  0  0  0  0
   44.3600   34.3020   41.0540 C   0  0  0  0  0  0  0  0  0  0  0  0
   45.6720   34.4600   41.1040 N   0  0  0  0  0  0  0  0  0  0  0  0
   45.9900   36.2170   43.8870 H   0  0  0  0  0  0  0  0  0  0  0  0
   43.5120   35.9430   43.8380 H   0  0  0  0  0  0  0  0  0  0  0  0
   43.8820   33.7500   40.2410 H   0  0  0  0  0  0  0  0  0  0  0  0
  1  5  1  0  0  0  0
  1 30  1  0  0  0  0
  2  1  2  0  0  0  0
  3  2  1  0  0  0  0
  3  4  2  0  0  0  0
  4  5  1  0  0  0  0
  6  2  1  0  0  0  0
  7  3  1  0  0  0  0
  8  4  1  0  0  0  0
  8  9  1  0  0  0  0
  9 10  1  0  0  0  0
 11  9  2  0  0  0  0
 11 12  1  0  0  0  0
 13 11  1  0  0  0  0
 14 15  1  0  0  0  0
 14 13  2  0  0  0  0
 15  8  2  0  0  0  0
 16 15  1  0  0  0  0
 17 14  1  0  0  0  0
 18 17  1  0  0  0  0
 18 27  1  0  0  0  0
 19 18  2  0  0  0  0
 20 19  1  0  0  0  0
 21 19  1  0  0  0  0
 21 23  2  0  0  0  0
 22 21  1  0  0  0  0
 23 25  1  0  0  0  0
 24 23  1  0  0  0  0
 25 27  2  0  0  0  0
 25 26  1  0  0  0  0
 27 28  1  0  0  0  0
 28 13  1  0  0  0  0
 28 29  1  0  0  0  0
 30 31  1  0  0  0  0
 30 32  1  0  0  0  0
 33 36  1  0  0  0  0
 33 34  1  0  0  0  0
 33 30  1  0  0  0  0
 35 33  1  0  0  0  0
 36 37  1  0  0  0  0
 37 42  1  0  0  0  0
 38 37  2  0  0  0  0
 38 43  1  0  0  0  0
 39 38  1  0  0  0  0
 40 41  1  0  0  0  0
 40 39  2  0  0  0  0
 41 36  2  0  0  0  0
 44 40  1  0  0  0  0
M  END
>  <minimizedAffinity>
-4.96755886

>  <minimizedRMSD>
1.8865726

$$$$
