
 OpenBabel03242518113D

 44 48  0  0  0  0  0  0  0  0999 V2000
   49.0340   33.1830   41.9190 C   0  0  0  0  0  0  0  0  0  0  0  0
   48.7380   32.3580   40.7810 C   0  0  0  0  0  0  0  0  0  0  0  0
   49.7430   31.6190   40.2140 C   0  0  0  0  0  0  0  0  0  0  0  0
   51.0670   31.7140   40.8070 C   0  0  0  0  0  0  0  0  0  0  0  0
   50.8750   32.8670   42.1820 S   0  0  0  0  0  0  0  0  0  0  0  0
   47.7160   32.3890   40.4560 H   0  0  0  0  0  0  0  0  0  0  0  0
   49.5640   30.9900   39.3610 H   0  0  0  0  0  0  0  0  0  0  0  0
   52.2260   31.0950   40.4450 C   0  0  0  0  0  0  0  0  0  0  0  0
   52.8050   30.1740   41.2910 C   0  0  0  0  0  0  0  0  0  0  0  0
   52.3570   29.9280   42.2440 H   0  0  0  0  0  0  0  0  0  0  0  0
   53.9980   29.5320   40.9290 C   0  0  0  0  0  0  0  0  0  0  0  0
   54.4020   28.8190   41.6370 H   0  0  0  0  0  0  0  0  0  0  0  0
   54.6420   29.7810   39.7350 C   0  0  0  0  0  0  0  0  0  0  0  0
   54.0290   30.7020   38.9280 C   0  0  0  0  0  0  0  0  0  0  0  0
   52.8750   31.3370   39.2570 C   0  0  0  0  0  0  0  0  0  0  0  0
   52.4130   32.0630   38.5970 H   0  0  0  0  0  0  0  0  0  0  0  0
   54.7980   31.0810   37.3660 S   0  0  0  0  0  0  0  0  0  0  0  0
   56.2700   30.0820   37.2670 C   0  0  0  0  0  0  0  0  0  0  0  0
   57.0490   30.1890   36.1470 C   0  0  0  0  0  0  0  0  0  0  0  0
   56.7560   30.8760   35.3490 H   0  0  0  0  0  0  0  0  0  0  0  0
   58.2020   29.4480   35.9990 C   0  0  0  0  0  0  0  0  0  0  0  0
   58.7620   29.5800   35.1010 H   0  0  0  0  0  0  0  0  0  0  0  0
   58.5410   28.5960   37.0190 C   0  0  0  0  0  0  0  0  0  0  0  0
   59.4340   28.0040   36.9340 H   0  0  0  0  0  0  0  0  0  0  0  0
   57.7190   28.5280   38.1240 C   0  0  0  0  0  0  0  0  0  0  0  0
   58.0600   27.8230   38.8930 H   0  0  0  0  0  0  0  0  0  0  0  0
   56.5590   29.2470   38.3190 C   0  0  0  0  0  0  0  0  0  0  0  0
   55.8280   29.0700   39.4950 N   0  0  0  0  0  0  0  0  0  0  0  0
   56.1930   28.3920   40.1930 H   0  0  0  0  0  0  0  0  0  0  0  0
   48.3150   34.0720   42.7670 C   0  0  0  0  0  0  0  0  0  0  0  0
   47.5310   33.5430   43.3280 H   0  0  0  0  0  0  0  0  0  0  0  0
   49.0290   34.4780   43.5330 H   0  0  0  0  0  0  0  0  0  0  0  0
   47.6970   35.2770   42.1010 C   0  0  0  0  0  0  0  0  0  0  0  0
   47.9700   36.1950   42.6920 H   0  0  0  0  0  0  0  0  0  0  0  0
   48.1090   35.4290   41.1120 H   0  0  0  0  0  0  0  0  0  0  0  0
   46.2550   35.1380   42.1040 C   0  0  0  0  0  0  0  0  0  0  0  0
   45.4610   35.6840   43.1140 C   0  0  0  0  0  0  0  0  0  0  0  0
   44.0810   35.5100   43.0530 C   0  0  0  0  0  0  0  0  0  0  0  0
   43.5790   34.8170   42.0110 N   0  0  0  0  0  0  0  0  0  0  0  0
   44.3600   34.3030   41.0540 C   0  0  0  0  0  0  0  0  0  0  0  0
   45.6720   34.4620   41.1030 N   0  0  0  0  0  0  0  0  0  0  0  0
   45.9910   36.2150   43.8890 H   0  0  0  0  0  0  0  0  0  0  0  0
   43.5130   35.9400   43.8410 H   0  0  0  0  0  0  0  0  0  0  0  0
   43.8820   33.7520   40.2400 H   0  0  0  0  0  0  0  0  0  0  0  0
  1  5  1  0  0  0  0
  1 30  1  0  0  0  0
  2  1  2  0  0  0  0
  3  2  1  0  0  0  0
  3  4  2  0  0  0  0
  4  5  1  0  0  0  0
  6  2  1  0  0  0  0
  7  3  1  0  0  0  0
  8  4  1  0  0  0  0
  8  9  1  0  0  0  0
  9 10  1  0  0  0  0
 11  9  2  0  0  0  0
 11 12  1  0  0  0  0
 13 11  1  0  0  0  0
 14 15  1  0  0  0  0
 14 13  2  0  0  0  0
 15  8  2  0  0  0  0
 16 15  1  0  0  0  0
 17 14  1  0  0  0  0
 18 17  1  0  0  0  0
 18 27  1  0  0  0  0
 19 18  2  0  0  0  0
 20 19  1  0  0  0  0
 21 19  1  0  0  0  0
 21 23  2  0  0  0  0
 22 21  1  0  0  0  0
 23 25  1  0  0  0  0
 24 23  1  0  0  0  0
 25 27  2  0  0  0  0
 25 26  1  0  0  0  0
 27 28  1  0  0  0  0
 28 13  1  0  0  0  0
 28 29  1  0  0  0  0
 30 31  1  0  0  0  0
 30 32  1  0  0  0  0
 33 36  1  0  0  0  0
 33 34  1  0  0  0  0
 33 30  1  0  0  0  0
 35 33  1  0  0  0  0
 36 37  1  0  0  0  0
 37 42  1  0  0  0  0
 38 37  2  0  0  0  0
 38 43  1  0  0  0  0
 39 38  1  0  0  0  0
 40 41  1  0  0  0  0
 40 39  2  0  0  0  0
 41 36  2  0  0  0  0
 44 40  1  0  0  0  0
M  END
>  <minimizedAffinity>
-4.96501589

>  <minimizedRMSD>
1.84223509

$$$$
