
 OpenBabel03242513543D

 19 20  0  0  0  0  0  0  0  0999 V2000
   45.1270   35.6360   42.3880 O   0  0  0  0  0  0  0  0  0  0  0  0
   44.5380   35.6100   44.7710 C   0  0  0  0  0  0  0  0  0  0  0  0
   45.2100   35.0790   43.6520 C   0  0  0  0  0  0  0  0  0  0  0  0
   45.9860   33.9450   43.8550 C   0  0  0  0  0  0  0  0  0  0  0  0
   46.0640   33.4080   45.0850 N   0  0  0  0  0  0  0  0  0  0  0  0
   45.4120   33.9320   46.1470 C   0  0  0  0  0  0  0  0  0  0  0  0
   44.6420   35.0430   45.9840 N   0  0  0  0  0  0  0  0  0  0  0  0
   43.9320   36.5040   44.5960 H   0  0  0  0  0  0  0  0  0  0  0  0
   46.5060   33.5290   43.0040 H   0  0  0  0  0  0  0  0  0  0  0  0
   45.5200   33.4450   47.1100 H   0  0  0  0  0  0  0  0  0  0  0  0
   46.3290   33.9350   40.3030 Cl  0  0  0  0  0  0  0  0  0  0  0  0
   44.6070   34.2400   40.4800 C   0  0  0  0  0  0  0  0  0  0  0  0
   44.1980   35.0560   41.5020 C   0  0  0  0  0  0  0  0  0  0  0  0
   42.8450   35.3470   41.7070 C   0  0  0  0  0  0  0  0  0  0  0  0
   42.4640   35.9800   42.4930 H   0  0  0  0  0  0  0  0  0  0  0  0
   41.9340   34.7650   40.8220 C   0  0  0  0  0  0  0  0  0  0  0  0
   40.8610   34.9310   40.8990 H   0  0  0  0  0  0  0  0  0  0  0  0
   42.3600   33.9480   39.7990 C   0  0  0  0  0  0  0  0  0  0  0  0
   43.7100   33.6640   39.6030 C   0  0  0  0  0  0  0  0  0  0  0  0
  1  3  1  0  0  0  0
  2  7  1  0  0  0  0
  3  4  1  0  0  0  0
  3  2  2  0  0  0  0
  4  5  2  0  0  0  0
  5  6  1  0  0  0  0
  6 10  1  0  0  0  0
  7  6  2  0  0  0  0
  8  2  1  0  0  0  0
  9  4  1  0  0  0  0
 11 12  1  0  0  0  0
 12 13  1  0  0  0  0
 13 14  2  0  0  0  0
 13  1  1  0  0  0  0
 14 15  1  0  0  0  0
 16 17  1  0  0  0  0
 16 14  1  0  0  0  0
 18 16  2  0  0  0  0
 19 18  1  0  0  0  0
 19 12  2  0  0  0  0
M  END
>  <minimizedAffinity>
-4.10181904

>  <minimizedRMSD>
1.83468711

$$$$
