
 OpenBabel03242517433D

 19 20  0  0  0  0  0  0  0  0999 V2000
   45.9210   35.3000   42.7730 S   0  0  0  0  0  0  0  0  0  0  0  0
   45.3190   34.3270   45.3100 C   0  0  0  0  0  0  0  0  0  0  0  0
   46.1170   34.1800   44.1730 C   0  0  0  0  0  0  0  0  0  0  0  0
   47.0580   33.1620   44.1410 C   0  0  0  0  0  0  0  0  0  0  0  0
   47.1500   32.3520   45.2410 N   0  0  0  0  0  0  0  0  0  0  0  0
   46.3720   32.5170   46.3140 C   0  0  0  0  0  0  0  0  0  0  0  0
   45.4490   33.5010   46.3680 N   0  0  0  0  0  0  0  0  0  0  0  0
   44.5960   35.1510   45.2710 H   0  0  0  0  0  0  0  0  0  0  0  0
   47.6310   33.1080   43.2450 H   0  0  0  0  0  0  0  0  0  0  0  0
   46.4840   31.8470   47.1630 H   0  0  0  0  0  0  0  0  0  0  0  0
   48.7720   35.7330   41.6570 Cl  0  0  0  0  0  0  0  0  0  0  0  0
   47.6070   34.7380   40.7980 C   0  0  0  0  0  0  0  0  0  0  0  0
   46.3040   34.5020   41.2480 C   0  0  0  0  0  0  0  0  0  0  0  0
   45.4800   33.6980   40.4790 C   0  0  0  0  0  0  0  0  0  0  0  0
   44.4980   33.5850   40.9220 H   0  0  0  0  0  0  0  0  0  0  0  0
   45.9150   33.1400   39.3060 C   0  0  0  0  0  0  0  0  0  0  0  0
   45.1990   32.5140   38.7530 H   0  0  0  0  0  0  0  0  0  0  0  0
   47.2050   33.3740   38.8610 C   0  0  0  0  0  0  0  0  0  0  0  0
   48.0720   34.1800   39.6040 C   0  0  0  0  0  0  0  0  0  0  0  0
  1  3  1  0  0  0  0
  2  7  1  0  0  0  0
  3  2  2  0  0  0  0
  4  3  1  0  0  0  0
  4  5  2  0  0  0  0
  5  6  1  0  0  0  0
  6  7  2  0  0  0  0
  6 10  1  0  0  0  0
  8  2  1  0  0  0  0
  9  4  1  0  0  0  0
 12 13  1  0  0  0  0
 12 11  1  0  0  0  0
 13  1  1  0  0  0  0
 14 15  1  0  0  0  0
 14 13  2  0  0  0  0
 16 14  1  0  0  0  0
 17 16  1  0  0  0  0
 18 16  2  0  0  0  0
 18 19  1  0  0  0  0
 19 12  2  0  0  0  0
M  END
>  <minimizedAffinity>
-4.24156332

>  <minimizedRMSD>
2.3544383

$$$$
