
 OpenBabel03252506333D

 33 35  0  0  1  0  0  0  0  0999 V2000
   44.4570   35.6930   45.0050 C   0  0  0  0  0  0  0  0  0  0  0  0
   45.1400   35.6940   43.7600 C   0  0  0  0  0  0  0  0  0  0  0  0
   46.0810   34.7430   43.5150 C   0  0  0  0  0  0  0  0  0  0  0  0
   46.3060   33.8360   44.5040 N   0  0  0  0  0  0  0  0  0  0  0  0
   45.6690   33.8340   45.6630 C   0  0  0  0  0  0  0  0  0  0  0  0
   44.7350   34.7600   45.9380 N   0  0  0  0  0  0  0  0  0  0  0  0
   45.9860   32.8390   46.6150 N   0  0  0  0  0  0  0  0  0  0  0  0
   45.1970   32.5200   47.8020 C   0  0  0  0  0  0  0  0  0  0  0  0
   46.2670   32.2260   48.8270 C   0  0  0  0  0  0  0  0  0  0  0  0
   47.5730   32.1060   48.0800 C   0  0  0  0  0  0  0  0  0  0  0  0
   47.1020   31.9390   46.6550 C   0  0  1  0  0  0  0  0  0  0  0  0
   43.6980   36.4120   45.2800 H   0  0  0  0  0  0  0  0  0  0  0  0
   46.6000   34.7430   42.5670 H   0  0  0  0  0  0  0  0  0  0  0  0
   44.5050   31.6810   47.6390 H   0  0  0  0  0  0  0  0  0  0  0  0
   44.6890   33.4690   48.1080 H   0  0  0  0  0  0  0  0  0  0  0  0
   46.0390   31.3440   49.4550 H   0  0  0  0  0  0  0  0  0  0  0  0
   46.3970   33.0910   49.5400 H   0  0  0  0  0  0  0  0  0  0  0  0
   48.0500   31.1640   48.4260 H   0  0  0  0  0  0  0  0  0  0  0  0
   48.2210   33.0000   48.2200 H   0  0  0  0  0  0  0  0  0  0  0  0
   47.9140   32.2780   45.9620 H   0  0  0  0  0  0  0  0  0  0  0  0
   44.7710   36.7310   42.8380 N   0  0  0  0  0  0  0  0  0  0  0  0
   45.5870   37.2270   42.3970 H   0  0  0  0  0  0  0  0  0  0  0  0
   43.8090   37.0330   42.5690 H   0  0  0  0  0  0  0  0  0  0  0  0
   46.6560   30.2200   46.3880 S   0  0  0  0  0  0  0  0  0  0  0  0
   48.6390   30.2750   44.0260 Cl  0  0  0  0  0  0  0  0  0  0  0  0
   46.9320   29.9620   43.7480 C   0  0  0  0  0  0  0  0  0  0  0  0
   46.0070   29.9250   44.7670 C   0  0  0  0  0  0  0  0  0  0  0  0
   44.6960   29.6710   44.4290 C   0  0  0  0  0  0  0  0  0  0  0  0
   44.0030   29.6490   45.2570 H   0  0  0  0  0  0  0  0  0  0  0  0
   44.2740   29.4570   43.1360 C   0  0  0  0  0  0  0  0  0  0  0  0
   43.2440   29.2610   42.8970 H   0  0  0  0  0  0  0  0  0  0  0  0
   45.2460   29.5080   42.1610 C   0  0  0  0  0  3  0  0  0  0  0  0
   46.5940   29.7570   42.4100 C   0  0  0  0  0  3  0  0  0  0  0  0
  1 12  1  0  0  0  0
  1  6  1  0  0  0  0
  2  1  2  0  0  0  0
  3  2  1  0  0  0  0
  3  4  2  0  0  0  0
  4  5  1  0  0  0  0
  5  6  2  0  0  0  0
  5  7  1  0  0  0  0
  7 11  1  0  0  0  0
  7  8  1  0  0  0  0
  8 15  1  0  0  0  0
  8  9  1  0  0  0  0
  9 16  1  0  0  0  0
  9 17  1  0  0  0  0
 10 19  1  0  0  0  0
 10 18  1  0  0  0  0
 10  9  1  0  0  0  0
 11 20  1  6  0  0  0
 11 10  1  0  0  0  0
 13  3  1  0  0  0  0
 14  8  1  0  0  0  0
 21  2  1  0  0  0  0
 22 21  1  0  0  0  0
 23 21  1  0  0  0  0
 24 11  1  0  0  0  0
 26 25  1  0  0  0  0
 26 27  1  0  0  0  0
 27 24  1  0  0  0  0
 28 27  2  0  0  0  0
 28 29  1  0  0  0  0
 30 28  1  0  0  0  0
 31 30  1  0  0  0  0
 32 33  1  0  0  0  0
 32 30  2  0  0  0  0
 33 26  2  0  0  0  0
M  END
>  <minimizedAffinity>
-4.94147587

>  <minimizedRMSD>
0.402880758

$$$$
