
 OpenBabel03252509263D

 30 32  0  0  1  0  0  0  0  0999 V2000
   46.8550   35.1770   41.8800 C   0  0  1  0  0  0  0  0  0  0  0  0
   48.3710   35.5050   41.9540 C   0  0  0  0  0  0  0  0  0  0  0  0
   47.7200   34.2890   41.2210 C   0  0  2  0  0  0  0  0  0  0  0  0
   46.2580   35.9540   41.3590 H   0  0  0  0  0  0  0  0  0  0  0  0
   48.6720   36.3290   41.2840 H   0  0  0  0  0  0  0  0  0  0  0  0
   48.9170   35.3090   42.8800 H   0  0  0  0  0  0  0  0  0  0  0  0
   48.0200   33.3120   41.7100 H   0  0  0  0  0  0  0  0  0  0  0  0
   44.8070   35.1050   45.0250 C   0  0  0  0  0  0  0  0  0  0  0  0
   45.2810   35.5420   43.7590 C   0  0  0  0  0  0  0  0  0  0  0  0
   46.3230   34.8370   43.2550 C   0  0  0  0  0  0  0  0  0  0  0  0
   46.8900   33.7660   43.9250 N   0  0  0  0  0  0  0  0  0  0  0  0
   46.3980   33.3910   45.1320 C   0  0  0  0  0  0  0  0  0  0  0  0
   45.3580   34.0600   45.6800 N   0  0  0  0  0  0  0  0  0  0  0  0
   43.9740   35.6300   45.4760 H   0  0  0  0  0  0  0  0  0  0  0  0
   46.9290   32.5440   45.5450 H   0  0  0  0  0  0  0  0  0  0  0  0
   44.7330   36.6480   43.0940 N   0  0  0  0  0  0  0  0  0  0  0  0
   44.1440   36.2230   42.3500 H   0  0  0  0  0  0  0  0  0  0  0  0
   44.8710   37.6840   43.2850 H   0  0  0  0  0  0  0  0  0  0  0  0
   47.8130   34.2410   39.7150 C   0  0  0  0  0  0  0  0  0  0  0  0
   47.5760   35.2270   39.2550 H   0  0  0  0  0  0  0  0  0  0  0  0
   48.8610   34.0030   39.4290 H   0  0  0  0  0  0  0  0  0  0  0  0
   49.4760   31.9750   38.8320 Cl  0  0  0  0  0  0  0  0  0  0  0  0
   47.7300   32.0690   38.7690 C   0  0  0  0  0  0  0  0  0  0  0  0
   46.9640   33.1540   39.1950 C   0  0  0  0  0  0  0  0  0  0  0  0
   45.5940   33.0930   39.0870 C   0  0  0  0  0  0  0  0  0  0  0  0
   45.1170   33.9870   39.4460 H   0  0  0  0  0  0  0  0  0  0  0  0
   44.9850   31.9700   38.5650 C   0  0  0  0  0  0  0  0  0  0  0  0
   43.9050   32.0110   38.5200 H   0  0  0  0  0  0  0  0  0  0  0  0
   45.7500   30.8820   38.1390 C   0  0  0  0  0  3  0  0  0  0  0  0
   47.1250   30.9310   38.2410 C   0  0  0  0  0  3  0  0  0  0  0  0
  1  4  1  6  0  0  0
  1  2  1  0  0  0  0
  1 10  1  0  0  0  0
  2  6  1  0  0  0  0
  3  7  1  1  0  0  0
  3  1  1  0  0  0  0
  3  2  1  0  0  0  0
  5  2  1  0  0  0  0
  8 14  1  0  0  0  0
  8 13  1  0  0  0  0
  9  8  2  0  0  0  0
 10  9  1  0  0  0  0
 10 11  2  0  0  0  0
 11 12  1  0  0  0  0
 12 15  1  0  0  0  0
 12 13  2  0  0  0  0
 16 18  1  0  0  0  0
 16  9  1  0  0  0  0
 17 16  1  0  0  0  0
 19  3  1  0  0  0  0
 20 19  1  0  0  0  0
 21 19  1  0  0  0  0
 23 22  1  0  0  0  0
 23 24  1  0  0  0  0
 24 19  1  0  0  0  0
 25 24  2  0  0  0  0
 25 26  1  0  0  0  0
 27 25  1  0  0  0  0
 28 27  1  0  0  0  0
 29 30  1  0  0  0  0
 29 27  2  0  0  0  0
 30 23  2  0  0  0  0
M  END
>  <minimizedAffinity>
-4.6936717

>  <minimizedRMSD>
2.13974309

$$$$
