
 OpenBabel03252509263D

 30 32  0  0  1  0  0  0  0  0999 V2000
   46.6330   35.1230   41.9370 C   0  0  1  0  0  0  0  0  0  0  0  0
   48.1770   35.2890   41.9550 C   0  0  0  0  0  0  0  0  0  0  0  0
   47.3770   34.1290   41.2810 C   0  0  2  0  0  0  0  0  0  0  0  0
   46.1040   35.9440   41.4100 H   0  0  0  0  0  0  0  0  0  0  0  0
   48.5400   36.0570   41.2520 H   0  0  0  0  0  0  0  0  0  0  0  0
   48.7290   35.0620   42.8700 H   0  0  0  0  0  0  0  0  0  0  0  0
   47.5880   33.1400   41.7920 H   0  0  0  0  0  0  0  0  0  0  0  0
   44.6710   35.3350   45.1300 C   0  0  0  0  0  0  0  0  0  0  0  0
   45.1430   35.6840   43.8370 C   0  0  0  0  0  0  0  0  0  0  0  0
   46.1130   34.8800   43.3370 C   0  0  0  0  0  0  0  0  0  0  0  0
   46.6150   33.7960   44.0380 N   0  0  0  0  0  0  0  0  0  0  0  0
   46.1280   33.5080   45.2710 C   0  0  0  0  0  0  0  0  0  0  0  0
   45.1580   34.2770   45.8150 N   0  0  0  0  0  0  0  0  0  0  0  0
   43.8940   35.9410   45.5790 H   0  0  0  0  0  0  0  0  0  0  0  0
   46.6030   32.6400   45.7060 H   0  0  0  0  0  0  0  0  0  0  0  0
   44.6640   36.8020   43.1390 N   0  0  0  0  0  0  0  0  0  0  0  0
   44.0240   36.3940   42.4280 H   0  0  0  0  0  0  0  0  0  0  0  0
   44.8860   37.8300   43.2830 H   0  0  0  0  0  0  0  0  0  0  0  0
   47.4150   34.0290   39.7750 C   0  0  0  0  0  0  0  0  0  0  0  0
   47.2670   35.0210   39.2920 H   0  0  0  0  0  0  0  0  0  0  0  0
   48.4210   33.6730   39.4660 H   0  0  0  0  0  0  0  0  0  0  0  0
   48.7830   31.5120   39.0850 Cl  0  0  0  0  0  0  0  0  0  0  0  0
   47.0640   31.8240   38.9830 C   0  0  0  0  0  0  0  0  0  0  0  0
   46.4390   33.0250   39.3150 C   0  0  0  0  0  0  0  0  0  0  0  0
   45.0730   33.1310   39.1850 C   0  0  0  0  0  0  0  0  0  0  0  0
   44.7120   34.1010   39.4720 H   0  0  0  0  0  0  0  0  0  0  0  0
   44.3310   32.0600   38.7300 C   0  0  0  0  0  0  0  0  0  0  0  0
   43.2660   32.2350   38.6610 H   0  0  0  0  0  0  0  0  0  0  0  0
   44.9550   30.8560   38.3970 C   0  0  0  0  0  3  0  0  0  0  0  0
   46.3230   30.7360   38.5220 C   0  0  0  0  0  3  0  0  0  0  0  0
  1  4  1  6  0  0  0
  1  2  1  0  0  0  0
  1 10  1  0  0  0  0
  2  6  1  0  0  0  0
  3  7  1  1  0  0  0
  3  1  1  0  0  0  0
  3  2  1  0  0  0  0
  5  2  1  0  0  0  0
  8 14  1  0  0  0  0
  8 13  1  0  0  0  0
  9  8  2  0  0  0  0
 10  9  1  0  0  0  0
 10 11  2  0  0  0  0
 11 12  1  0  0  0  0
 12 15  1  0  0  0  0
 12 13  2  0  0  0  0
 16 18  1  0  0  0  0
 16  9  1  0  0  0  0
 17 16  1  0  0  0  0
 19  3  1  0  0  0  0
 20 19  1  0  0  0  0
 21 19  1  0  0  0  0
 23 22  1  0  0  0  0
 23 24  1  0  0  0  0
 24 19  1  0  0  0  0
 25 24  2  0  0  0  0
 25 26  1  0  0  0  0
 27 25  1  0  0  0  0
 28 27  1  0  0  0  0
 29 30  1  0  0  0  0
 29 27  2  0  0  0  0
 30 23  2  0  0  0  0
M  END
>  <minimizedAffinity>
-4.59613371

>  <minimizedRMSD>
2.4490695

$$$$
