
 OpenBabel03252504513D

 34 36  0  0  0  0  0  0  0  0999 V2000
   35.7830   28.9980   36.8750 C   0  0  0  0  0  0  0  0  0  0  0  0
   34.3810   29.0360   36.8510 C   0  0  0  0  0  0  0  0  0  0  0  0
   33.7260   28.7610   38.0520 C   0  0  0  0  0  0  0  0  0  0  0  0
   34.4700   28.4750   39.1590 N   0  0  0  0  0  0  0  0  0  0  0  0
   35.7980   28.4480   39.1450 C   0  0  0  0  0  0  0  0  0  0  0  0
   36.4630   28.7100   37.9930 N   0  0  0  0  0  0  0  0  0  0  0  0
   36.3480   29.2030   35.9730 H   0  0  0  0  0  0  0  0  0  0  0  0
   32.6270   28.7740   38.1090 H   0  0  0  0  0  0  0  0  0  0  0  0
   36.2270   30.7950   41.0430 Cl  0  0  0  0  0  0  0  0  0  0  0  0
   36.7920   29.1520   41.2820 C   0  0  0  0  0  0  0  0  0  0  0  0
   36.5480   28.1340   40.3600 C   0  0  0  0  0  0  0  0  0  0  0  0
   36.9990   26.8440   40.5630 C   0  0  0  0  0  0  0  0  0  0  0  0
   37.7170   26.5660   41.7290 C   0  0  0  0  0  0  0  0  0  0  0  0
   37.9410   27.5970   42.6210 C   0  0  0  0  0  0  0  0  0  0  0  0
   38.8450   27.1800   44.0530 Cl  0  0  0  0  0  0  0  0  0  0  0  0
   37.5020   28.8770   42.4350 C   0  0  0  0  0  0  0  0  0  0  0  0
   36.8110   26.0640   39.8560 H   0  0  0  0  0  0  0  0  0  0  0  0
   38.0610   25.5520   41.8710 H   0  0  0  0  0  0  0  0  0  0  0  0
   37.7280   29.6250   43.1930 H   0  0  0  0  0  0  0  0  0  0  0  0
   33.6860   29.3520   35.6430 C   0  0  0  0  0  0  0  0  0  0  0  0
   33.8930   30.4040   35.3310 H   0  0  0  0  0  0  0  0  0  0  0  0
   34.0010   28.6720   34.8070 H   0  0  0  0  0  0  0  0  0  0  0  0
   32.2070   29.2030   35.8310 C   0  0  0  0  0  0  0  0  0  0  0  0
   32.0690   28.6170   36.7810 H   0  0  0  0  0  0  0  0  0  0  0  0
   31.8520   28.4730   35.0300 H   0  0  0  0  0  0  0  0  0  0  0  0
   30.5540   30.1840   38.2930 Cl  0  0  0  0  0  0  0  0  0  0  0  0
   30.5700   31.0130   36.7280 C   0  0  0  0  0  0  0  0  0  0  0  0
   31.4200   30.4320   35.8180 C   0  0  0  0  0  0  0  0  0  0  0  0
   31.5130   31.0910   34.5860 C   0  0  0  0  0  0  0  0  0  0  0  0
   32.1320   30.7820   33.7520 H   0  0  0  0  0  0  0  0  0  0  0  0
   30.8140   32.2370   34.2770 C   0  0  0  0  0  0  0  0  0  0  0  0
   30.8630   32.7680   33.3380 H   0  0  0  0  0  0  0  0  0  0  0  0
   29.9630   32.7880   35.2280 C   0  0  0  0  0  3  0  0  0  0  0  0
   29.8620   32.1520   36.4460 C   0  0  0  0  0  3  0  0  0  0  0  0
  1  6  1  0  0  0  0
  2  1  2  0  0  0  0
  2  3  1  0  0  0  0
  3  8  1  0  0  0  0
  3  4  2  0  0  0  0
  5  4  1  0  0  0  0
  5 11  1  0  0  0  0
  6  5  2  0  0  0  0
  7  1  1  0  0  0  0
  9 10  1  0  0  0  0
 10 16  1  0  0  0  0
 11 12  1  0  0  0  0
 11 10  2  0  0  0  0
 12 13  2  0  0  0  0
 13 18  1  0  0  0  0
 13 14  1  0  0  0  0
 14 15  1  0  0  0  0
 16 14  2  0  0  0  0
 16 19  1  0  0  0  0
 17 12  1  0  0  0  0
 20 23  1  0  0  0  0
 20  2  1  0  0  0  0
 21 20  1  0  0  0  0
 22 20  1  0  0  0  0
 23 24  1  0  0  0  0
 25 23  1  0  0  0  0
 27 26  1  0  0  0  0
 28 23  1  0  0  0  0
 28 27  2  0  0  0  0
 29 28  1  0  0  0  0
 30 29  1  0  0  0  0
 31 29  2  0  0  0  0
 31 33  1  0  0  0  0
 32 31  1  0  0  0  0
 33 34  2  0  0  0  0
 34 27  1  0  0  0  0
M  END
>  <minimizedAffinity>
-5.77911806

$$$$

 OpenBabel03252504513D

 34 36  0  0  0  0  0  0  0  0999 V2000
   36.9070   27.7340   41.2420 C   0  0  0  0  0  0  0  0  0  0  0  0
   37.2560   28.8950   41.9480 C   0  0  0  0  0  0  0  0  0  0  0  0
   36.8060   30.1070   41.4240 C   0  0  0  0  0  0  0  0  0  0  0  0
   36.0670   30.0960   40.2770 N   0  0  0  0  0  0  0  0  0  0  0  0
   35.7550   28.9760   39.6350 C   0  0  0  0  0  0  0  0  0  0  0  0
   36.1790   27.7830   40.1190 N   0  0  0  0  0  0  0  0  0  0  0  0
   37.2280   26.7620   41.5990 H   0  0  0  0  0  0  0  0  0  0  0  0
   37.0400   31.0580   41.9260 H   0  0  0  0  0  0  0  0  0  0  0  0
   37.3720   29.0880   37.0530 Cl  0  0  0  0  0  0  0  0  0  0  0  0
   35.6230   29.0760   37.1800 C   0  0  0  0  0  0  0  0  0  0  0  0
   34.9610   29.0210   38.4070 C   0  0  0  0  0  0  0  0  0  0  0  0
   33.5830   29.0120   38.4910 C   0  0  0  0  0  0  0  0  0  0  0  0
   32.8440   29.0590   37.3070 C   0  0  0  0  0  0  0  0  0  0  0  0
   33.5300   29.1130   36.1090 C   0  0  0  0  0  0  0  0  0  0  0  0
   32.5450   29.1720   34.6700 Cl  0  0  0  0  0  0  0  0  0  0  0  0
   34.8920   29.1230   36.0090 C   0  0  0  0  0  0  0  0  0  0  0  0
   33.0760   28.9690   39.4320 H   0  0  0  0  0  0  0  0  0  0  0  0
   31.7670   29.0510   37.3920 H   0  0  0  0  0  0  0  0  0  0  0  0
   35.3460   29.1690   35.0200 H   0  0  0  0  0  0  0  0  0  0  0  0
   38.0300   28.8070   43.1470 C   0  0  0  0  0  0  0  0  0  0  0  0
   39.0850   29.1220   42.9600 H   0  0  0  0  0  0  0  0  0  0  0  0
   37.6070   29.4680   43.9490 H   0  0  0  0  0  0  0  0  0  0  0  0
   38.0460   27.4010   43.6630 C   0  0  0  0  0  0  0  0  0  0  0  0
   37.1260   26.9050   43.2490 H   0  0  0  0  0  0  0  0  0  0  0  0
   37.8210   27.4640   44.7780 H   0  0  0  0  0  0  0  0  0  0  0  0
   37.9960   24.5470   42.3930 Cl  0  0  0  0  0  0  0  0  0  0  0  0
   39.4750   25.3500   42.9440 C   0  0  0  0  0  0  0  0  0  0  0  0
   39.2570   26.6260   43.4070 C   0  0  0  0  0  0  0  0  0  0  0  0
   40.4070   27.3230   43.7950 C   0  0  0  0  0  0  0  0  0  0  0  0
   40.4300   28.3360   44.1810 H   0  0  0  0  0  0  0  0  0  0  0  0
   41.6790   26.7970   43.7310 C   0  0  0  0  0  0  0  0  0  0  0  0
   42.5850   27.3080   44.0230 H   0  0  0  0  0  0  0  0  0  0  0  0
   41.8520   25.5020   43.2590 C   0  0  0  0  0  3  0  0  0  0  0  0
   40.7290   24.8020   42.8710 C   0  0  0  0  0  3  0  0  0  0  0  0
  1  7  1  0  0  0  0
  1  2  1  0  0  0  0
  2 20  1  0  0  0  0
  3  8  1  0  0  0  0
  3  2  2  0  0  0  0
  4  3  1  0  0  0  0
  5  6  1  0  0  0  0
  5  4  2  0  0  0  0
  6  1  2  0  0  0  0
  9 10  1  0  0  0  0
 10 11  1  0  0  0  0
 11 12  2  0  0  0  0
 11  5  1  0  0  0  0
 12 17  1  0  0  0  0
 13 18  1  0  0  0  0
 13 12  1  0  0  0  0
 14 13  2  0  0  0  0
 15 14  1  0  0  0  0
 16 14  1  0  0  0  0
 16 10  2  0  0  0  0
 19 16  1  0  0  0  0
 20 23  1  0  0  0  0
 20 22  1  0  0  0  0
 21 20  1  0  0  0  0
 23 25  1  0  0  0  0
 24 23  1  0  0  0  0
 26 27  1  0  0  0  0
 27 28  1  0  0  0  0
 28 23  1  0  0  0  0
 28 29  2  0  0  0  0
 29 30  1  0  0  0  0
 31 29  1  0  0  0  0
 31 32  1  0  0  0  0
 33 31  2  0  0  0  0
 34 27  2  0  0  0  0
 34 33  1  0  0  0  0
M  END
>  <minimizedAffinity>
-5.67839241

$$$$

 OpenBabel03252504513D

 34 36  0  0  0  0  0  0  0  0999 V2000
   37.3940   29.2540   40.1360 C   0  0  0  0  0  0  0  0  0  0  0  0
   37.3050   29.0290   41.5180 C   0  0  0  0  0  0  0  0  0  0  0  0
   38.2030   29.7270   42.3270 C   0  0  0  0  0  0  0  0  0  0  0  0
   39.1000   30.5700   41.7410 N   0  0  0  0  0  0  0  0  0  0  0  0
   39.1560   30.7590   40.4270 C   0  0  0  0  0  0  0  0  0  0  0  0
   38.2970   30.0950   39.6150 N   0  0  0  0  0  0  0  0  0  0  0  0
   36.7240   28.7410   39.4570 H   0  0  0  0  0  0  0  0  0  0  0  0
   38.1900   29.6020   43.4200 H   0  0  0  0  0  0  0  0  0  0  0  0
   38.2140   33.6420   40.1150 Cl  0  0  0  0  0  0  0  0  0  0  0  0
   39.7890   33.0120   39.6690 C   0  0  0  0  0  0  0  0  0  0  0  0
   40.1400   31.6740   39.8490 C   0  0  0  0  0  0  0  0  0  0  0  0
   41.3850   31.1940   39.4920 C   0  0  0  0  0  0  0  0  0  0  0  0
   42.3080   32.0840   38.9390 C   0  0  0  0  0  0  0  0  0  0  0  0
   41.9290   33.4020   38.7740 C   0  0  0  0  0  0  0  0  0  0  0  0
   43.1280   34.4580   38.0750 Cl  0  0  0  0  0  0  0  0  0  0  0  0
   40.7010   33.8930   39.1210 C   0  0  0  0  0  0  0  0  0  0  0  0
   41.6530   30.1680   39.6320 H   0  0  0  0  0  0  0  0  0  0  0  0
   43.2760   31.6900   38.6670 H   0  0  0  0  0  0  0  0  0  0  0  0
   40.4910   34.9480   38.9520 H   0  0  0  0  0  0  0  0  0  0  0  0
   36.3250   28.1290   42.0430 C   0  0  0  0  0  0  0  0  0  0  0  0
   35.4660   28.6920   42.4810 H   0  0  0  0  0  0  0  0  0  0  0  0
   35.9270   27.4540   41.2400 H   0  0  0  0  0  0  0  0  0  0  0  0
   36.9200   27.2720   43.1190 C   0  0  0  0  0  0  0  0  0  0  0  0
   36.0710   26.9920   43.8010 H   0  0  0  0  0  0  0  0  0  0  0  0
   37.5510   27.9630   43.7690 H   0  0  0  0  0  0  0  0  0  0  0  0
   39.9290   26.8470   43.8440 Cl  0  0  0  0  0  0  0  0  0  0  0  0
   39.0060   25.7520   42.8010 C   0  0  0  0  0  0  0  0  0  0  0  0
   37.6850   26.1090   42.6780 C   0  0  0  0  0  0  0  0  0  0  0  0
   36.9010   25.2370   41.9130 C   0  0  0  0  0  0  0  0  0  0  0  0
   35.8430   25.3540   41.7100 H   0  0  0  0  0  0  0  0  0  0  0  0
   37.3900   24.0980   41.3130 C   0  0  0  0  0  0  0  0  0  0  0  0
   36.8130   23.4050   40.7160 H   0  0  0  0  0  0  0  0  0  0  0  0
   38.7340   23.7770   41.4610 C   0  0  0  0  0  3  0  0  0  0  0  0
   39.5180   24.6250   42.2130 C   0  0  0  0  0  3  0  0  0  0  0  0
  1  2  1  0  0  0  0
  2 20  1  0  0  0  0
  2  3  2  0  0  0  0
  3  8  1  0  0  0  0
  4  3  1  0  0  0  0
  5  4  2  0  0  0  0
  6  1  2  0  0  0  0
  6  5  1  0  0  0  0
  7  1  1  0  0  0  0
 10 11  1  0  0  0  0
 10  9  1  0  0  0  0
 11  5  1  0  0  0  0
 12 17  1  0  0  0  0
 12 11  2  0  0  0  0
 13 12  1  0  0  0  0
 14 13  2  0  0  0  0
 14 16  1  0  0  0  0
 15 14  1  0  0  0  0
 16 10  2  0  0  0  0
 18 13  1  0  0  0  0
 19 16  1  0  0  0  0
 20 21  1  0  0  0  0
 20 23  1  0  0  0  0
 22 20  1  0  0  0  0
 23 25  1  0  0  0  0
 23 24  1  0  0  0  0
 27 26  1  0  0  0  0
 28 27  1  0  0  0  0
 28 23  1  0  0  0  0
 29 28  2  0  0  0  0
 30 29  1  0  0  0  0
 31 33  2  0  0  0  0
 31 29  1  0  0  0  0
 32 31  1  0  0  0  0
 33 34  1  0  0  0  0
 34 27  2  0  0  0  0
M  END
>  <minimizedAffinity>
-5.64931631

$$$$

 OpenBabel03252504513D

 34 36  0  0  0  0  0  0  0  0999 V2000
   38.0010   26.6030   40.7520 C   0  0  0  0  0  0  0  0  0  0  0  0
   37.2610   26.1630   41.8600 C   0  0  0  0  0  0  0  0  0  0  0  0
   36.7480   27.1500   42.7030 C   0  0  0  0  0  0  0  0  0  0  0  0
   36.9920   28.4590   42.4110 N   0  0  0  0  0  0  0  0  0  0  0  0
   37.6980   28.8400   41.3520 C   0  0  0  0  0  0  0  0  0  0  0  0
   38.2090   27.9040   40.5140 N   0  0  0  0  0  0  0  0  0  0  0  0
   38.4240   25.8840   40.0610 H   0  0  0  0  0  0  0  0  0  0  0  0
   36.1560   26.8790   43.5910 H   0  0  0  0  0  0  0  0  0  0  0  0
   40.3040   29.9550   42.4730 Cl  0  0  0  0  0  0  0  0  0  0  0  0
   39.1000   30.8500   41.5650 C   0  0  0  0  0  0  0  0  0  0  0  0
   37.9310   30.2590   41.0840 C   0  0  0  0  0  0  0  0  0  0  0  0
   36.9920   30.9770   40.3700 C   0  0  0  0  0  0  0  0  0  0  0  0
   37.2330   32.3310   40.1300 C   0  0  0  0  0  0  0  0  0  0  0  0
   38.4000   32.8860   40.6190 C   0  0  0  0  0  0  0  0  0  0  0  0
   38.6350   34.5820   40.2850 Cl  0  0  0  0  0  0  0  0  0  0  0  0
   39.3380   32.1900   41.3280 C   0  0  0  0  0  0  0  0  0  0  0  0
   36.0970   30.5220   40.0010 H   0  0  0  0  0  0  0  0  0  0  0  0
   36.4880   32.8770   39.5690 H   0  0  0  0  0  0  0  0  0  0  0  0
   40.2270   32.7120   41.6760 H   0  0  0  0  0  0  0  0  0  0  0  0
   37.0520   24.7670   42.0830 C   0  0  0  0  0  0  0  0  0  0  0  0
   37.4520   24.4610   43.0790 H   0  0  0  0  0  0  0  0  0  0  0  0
   35.9590   24.5130   42.0540 H   0  0  0  0  0  0  0  0  0  0  0  0
   37.7460   23.9550   41.0320 C   0  0  0  0  0  0  0  0  0  0  0  0
   38.5470   23.3730   41.5640 H   0  0  0  0  0  0  0  0  0  0  0  0
   38.3440   24.6910   40.3990 H   0  0  0  0  0  0  0  0  0  0  0  0
   38.7150   21.2240   39.8660 Cl  0  0  0  0  0  0  0  0  0  0  0  0
   37.1270   21.9280   39.5250 C   0  0  0  0  0  0  0  0  0  0  0  0
   36.9010   23.1030   40.2010 C   0  0  0  0  0  0  0  0  0  0  0  0
   35.6320   23.6640   40.0110 C   0  0  0  0  0  0  0  0  0  0  0  0
   35.2750   24.5830   40.4630 H   0  0  0  0  0  0  0  0  0  0  0  0
   34.6600   23.1050   39.2100 C   0  0  0  0  0  0  0  0  0  0  0  0
   33.6740   23.5120   39.0420 H   0  0  0  0  0  0  0  0  0  0  0  0
   34.9340   21.9170   38.5430 C   0  0  0  0  0  3  0  0  0  0  0  0
   36.1780   21.3510   38.7220 C   0  0  0  0  0  3  0  0  0  0  0  0
  1  2  1  0  0  0  0
  2 20  1  0  0  0  0
  2  3  2  0  0  0  0
  3  8  1  0  0  0  0
  4  3  1  0  0  0  0
  5  4  2  0  0  0  0
  6  1  2  0  0  0  0
  6  5  1  0  0  0  0
  7  1  1  0  0  0  0
 10  9  1  0  0  0  0
 11  5  1  0  0  0  0
 11 10  2  0  0  0  0
 12 11  1  0  0  0  0
 13 12  2  0  0  0  0
 13 14  1  0  0  0  0
 14 16  2  0  0  0  0
 15 14  1  0  0  0  0
 16 10  1  0  0  0  0
 16 19  1  0  0  0  0
 17 12  1  0  0  0  0
 18 13  1  0  0  0  0
 20 21  1  0  0  0  0
 22 20  1  0  0  0  0
 23 24  1  0  0  0  0
 23 20  1  0  0  0  0
 25 23  1  0  0  0  0
 27 26  1  0  0  0  0
 27 28  1  0  0  0  0
 28 23  1  0  0  0  0
 29 28  2  0  0  0  0
 29 30  1  0  0  0  0
 31 29  1  0  0  0  0
 32 31  1  0  0  0  0
 33 34  1  0  0  0  0
 33 31  2  0  0  0  0
 34 27  2  0  0  0  0
M  END
>  <minimizedAffinity>
-5.61164618

$$$$

 OpenBabel03252504513D

 34 36  0  0  0  0  0  0  0  0999 V2000
   33.8490   28.7570   38.0110 C   0  0  0  0  0  0  0  0  0  0  0  0
   34.4550   28.9140   36.7560 C   0  0  0  0  0  0  0  0  0  0  0  0
   35.8400   28.7590   36.7040 C   0  0  0  0  0  0  0  0  0  0  0  0
   36.5150   28.4700   37.8530 N   0  0  0  0  0  0  0  0  0  0  0  0
   35.9080   28.3270   39.0260 C   0  0  0  0  0  0  0  0  0  0  0  0
   34.5630   28.4720   39.1090 N   0  0  0  0  0  0  0  0  0  0  0  0
   32.7760   28.8650   38.1150 H   0  0  0  0  0  0  0  0  0  0  0  0
   36.3830   28.8670   35.7520 H   0  0  0  0  0  0  0  0  0  0  0  0
   36.4320   25.3620   39.5000 Cl  0  0  0  0  0  0  0  0  0  0  0  0
   36.9620   26.6840   40.5230 C   0  0  0  0  0  0  0  0  0  0  0  0
   36.6800   28.0180   40.2290 C   0  0  0  0  0  0  0  0  0  0  0  0
   37.1040   29.0490   41.0440 C   0  0  0  0  0  0  0  0  0  0  0  0
   37.8370   28.7320   42.1910 C   0  0  0  0  0  0  0  0  0  0  0  0
   38.0990   27.4010   42.4530 C   0  0  0  0  0  0  0  0  0  0  0  0
   39.0160   27.0760   43.9010 Cl  0  0  0  0  0  0  0  0  0  0  0  0
   37.6860   26.3700   41.6570 C   0  0  0  0  0  0  0  0  0  0  0  0
   36.8880   30.0720   40.8180 H   0  0  0  0  0  0  0  0  0  0  0  0
   38.1610   29.5510   42.8160 H   0  0  0  0  0  0  0  0  0  0  0  0
   37.9390   25.3510   41.9450 H   0  0  0  0  0  0  0  0  0  0  0  0
   33.6630   29.2120   35.6030 C   0  0  0  0  0  0  0  0  0  0  0  0
   33.8720   30.2460   35.2360 H   0  0  0  0  0  0  0  0  0  0  0  0
   33.8830   28.4960   34.7670 H   0  0  0  0  0  0  0  0  0  0  0  0
   32.2030   29.1160   35.9260 C   0  0  0  0  0  0  0  0  0  0  0  0
   32.1370   28.6030   36.9240 H   0  0  0  0  0  0  0  0  0  0  0  0
   31.7650   28.3430   35.2130 H   0  0  0  0  0  0  0  0  0  0  0  0
   30.6020   30.1960   38.3820 Cl  0  0  0  0  0  0  0  0  0  0  0  0
   30.6180   30.9850   36.7960 C   0  0  0  0  0  0  0  0  0  0  0  0
   31.4450   30.3630   35.8910 C   0  0  0  0  0  0  0  0  0  0  0  0
   31.5380   30.9890   34.6420 C   0  0  0  0  0  0  0  0  0  0  0  0
   32.1400   30.6450   33.8090 H   0  0  0  0  0  0  0  0  0  0  0  0
   30.8610   32.1430   34.3130 C   0  0  0  0  0  0  0  0  0  0  0  0
   30.9110   32.6490   33.3600 H   0  0  0  0  0  0  0  0  0  0  0  0
   30.0340   32.7360   35.2590 C   0  0  0  0  0  3  0  0  0  0  0  0
   29.9330   32.1330   36.4940 C   0  0  0  0  0  3  0  0  0  0  0  0
  1  7  1  0  0  0  0
  1  6  1  0  0  0  0
  2  1  2  0  0  0  0
  3  2  1  0  0  0  0
  3  4  2  0  0  0  0
  4  5  1  0  0  0  0
  5  6  2  0  0  0  0
  5 11  1  0  0  0  0
  8  3  1  0  0  0  0
  9 10  1  0  0  0  0
 10 16  1  0  0  0  0
 11 10  2  0  0  0  0
 11 12  1  0  0  0  0
 12 13  2  0  0  0  0
 13 14  1  0  0  0  0
 13 18  1  0  0  0  0
 14 15  1  0  0  0  0
 16 19  1  0  0  0  0
 16 14  2  0  0  0  0
 17 12  1  0  0  0  0
 20 23  1  0  0  0  0
 20  2  1  0  0  0  0
 21 20  1  0  0  0  0
 22 20  1  0  0  0  0
 23 24  1  0  0  0  0
 25 23  1  0  0  0  0
 27 26  1  0  0  0  0
 28 23  1  0  0  0  0
 28 27  2  0  0  0  0
 29 28  1  0  0  0  0
 30 29  1  0  0  0  0
 31 29  2  0  0  0  0
 31 33  1  0  0  0  0
 32 31  1  0  0  0  0
 33 34  2  0  0  0  0
 34 27  1  0  0  0  0
M  END
>  <minimizedAffinity>
-5.5752058

$$$$

 OpenBabel03252504513D

 34 36  0  0  0  0  0  0  0  0999 V2000
   34.0870   29.0870   39.4130 C   0  0  0  0  0  0  0  0  0  0  0  0
   34.1740   28.8880   38.0270 C   0  0  0  0  0  0  0  0  0  0  0  0
   35.4250   29.0840   37.4420 C   0  0  0  0  0  0  0  0  0  0  0  0
   36.4730   29.4520   38.2330 N   0  0  0  0  0  0  0  0  0  0  0  0
   36.3540   29.6320   39.5440 C   0  0  0  0  0  0  0  0  0  0  0  0
   35.1510   29.4490   40.1420 N   0  0  0  0  0  0  0  0  0  0  0  0
   33.1420   28.9500   39.9240 H   0  0  0  0  0  0  0  0  0  0  0  0
   35.5690   28.9440   36.3590 H   0  0  0  0  0  0  0  0  0  0  0  0
   37.0630   32.5940   39.4150 Cl  0  0  0  0  0  0  0  0  0  0  0  0
   37.9050   31.3670   40.3430 C   0  0  0  0  0  0  0  0  0  0  0  0
   37.5100   30.0290   40.3480 C   0  0  0  0  0  0  0  0  0  0  0  0
   38.1830   29.0740   41.0840 C   0  0  0  0  0  0  0  0  0  0  0  0
   39.2870   29.4740   41.8410 C   0  0  0  0  0  0  0  0  0  0  0  0
   39.6510   30.8060   41.8150 C   0  0  0  0  0  0  0  0  0  0  0  0
   41.0390   31.2360   42.7810 Cl  0  0  0  0  0  0  0  0  0  0  0  0
   38.9960   31.7630   41.0910 C   0  0  0  0  0  0  0  0  0  0  0  0
   37.8800   28.0490   41.0880 H   0  0  0  0  0  0  0  0  0  0  0  0
   39.8000   28.7140   42.4120 H   0  0  0  0  0  0  0  0  0  0  0  0
   39.3580   32.7890   41.1300 H   0  0  0  0  0  0  0  0  0  0  0  0
   33.0200   28.4960   37.2780 C   0  0  0  0  0  0  0  0  0  0  0  0
   33.2140   27.5470   36.7220 H   0  0  0  0  0  0  0  0  0  0  0  0
   32.1400   28.3290   37.9540 H   0  0  0  0  0  0  0  0  0  0  0  0
   32.6510   29.5540   36.2850 C   0  0  0  0  0  0  0  0  0  0  0  0
   32.5790   29.0380   35.2890 H   0  0  0  0  0  0  0  0  0  0  0  0
   33.5720   30.2160   36.1620 H   0  0  0  0  0  0  0  0  0  0  0  0
   31.5760   31.7900   34.3860 Cl  0  0  0  0  0  0  0  0  0  0  0  0
   30.8590   31.4110   35.9600 C   0  0  0  0  0  0  0  0  0  0  0  0
   31.4630   30.3460   36.5860 C   0  0  0  0  0  0  0  0  0  0  0  0
   30.8880   29.9690   37.8060 C   0  0  0  0  0  0  0  0  0  0  0  0
   31.2260   29.1550   38.4370 H   0  0  0  0  0  0  0  0  0  0  0  0
   29.7990   30.6010   38.3660 C   0  0  0  0  0  0  0  0  0  0  0  0
   29.3330   30.3350   39.3040 H   0  0  0  0  0  0  0  0  0  0  0  0
   29.2230   31.6750   37.6990 C   0  0  0  0  0  3  0  0  0  0  0  0
   29.7750   32.0570   36.4960 C   0  0  0  0  0  3  0  0  0  0  0  0
  1  7  1  0  0  0  0
  1  6  1  0  0  0  0
  2  1  2  0  0  0  0
  3  2  1  0  0  0  0
  3  4  2  0  0  0  0
  4  5  1  0  0  0  0
  5  6  2  0  0  0  0
  5 11  1  0  0  0  0
  8  3  1  0  0  0  0
  9 10  1  0  0  0  0
 10 11  2  0  0  0  0
 10 16  1  0  0  0  0
 11 12  1  0  0  0  0
 12 17  1  0  0  0  0
 12 13  2  0  0  0  0
 13 18  1  0  0  0  0
 14 13  1  0  0  0  0
 14 15  1  0  0  0  0
 16 19  1  0  0  0  0
 16 14  2  0  0  0  0
 20 22  1  0  0  0  0
 20  2  1  0  0  0  0
 21 20  1  0  0  0  0
 23 28  1  0  0  0  0
 23 20  1  0  0  0  0
 24 23  1  0  0  0  0
 25 23  1  0  0  0  0
 26 27  1  0  0  0  0
 27 34  2  0  0  0  0
 27 28  1  0  0  0  0
 28 29  2  0  0  0  0
 29 31  1  0  0  0  0
 29 30  1  0  0  0  0
 31 32  1  0  0  0  0
 33 31  2  0  0  0  0
 34 33  1  0  0  0  0
M  END
>  <minimizedAffinity>
-5.5284791

$$$$

 OpenBabel03252504513D

 34 36  0  0  0  0  0  0  0  0999 V2000
   37.0860   26.8460   40.5500 C   0  0  0  0  0  0  0  0  0  0  0  0
   36.5730   27.5450   41.6530 C   0  0  0  0  0  0  0  0  0  0  0  0
   35.9660   28.7740   41.3910 C   0  0  0  0  0  0  0  0  0  0  0  0
   35.9090   29.2190   40.1030 N   0  0  0  0  0  0  0  0  0  0  0  0
   36.4060   28.5300   39.0820 C   0  0  0  0  0  0  0  0  0  0  0  0
   37.0020   27.3330   39.3050 N   0  0  0  0  0  0  0  0  0  0  0  0
   37.5680   25.8860   40.6900 H   0  0  0  0  0  0  0  0  0  0  0  0
   35.5400   29.3760   42.2070 H   0  0  0  0  0  0  0  0  0  0  0  0
   34.1260   27.4000   37.4030 Cl  0  0  0  0  0  0  0  0  0  0  0  0
   35.3060   28.5880   36.8820 C   0  0  0  0  0  0  0  0  0  0  0  0
   36.3190   29.0550   37.7190 C   0  0  0  0  0  0  0  0  0  0  0  0
   37.2410   29.9910   37.2940 C   0  0  0  0  0  0  0  0  0  0  0  0
   37.1430   30.4760   35.9880 C   0  0  0  0  0  0  0  0  0  0  0  0
   36.1280   29.9930   35.1850 C   0  0  0  0  0  0  0  0  0  0  0  0
   36.0650   30.6390   33.5660 Cl  0  0  0  0  0  0  0  0  0  0  0  0
   35.2090   29.0670   35.5900 C   0  0  0  0  0  0  0  0  0  0  0  0
   38.0180   30.3490   37.9370 H   0  0  0  0  0  0  0  0  0  0  0  0
   37.8720   31.2080   35.6730 H   0  0  0  0  0  0  0  0  0  0  0  0
   34.4440   28.7430   34.8860 H   0  0  0  0  0  0  0  0  0  0  0  0
   36.6740   26.9950   42.9690 C   0  0  0  0  0  0  0  0  0  0  0  0
   35.6670   26.9250   43.4470 H   0  0  0  0  0  0  0  0  0  0  0  0
   37.1180   25.9650   42.9420 H   0  0  0  0  0  0  0  0  0  0  0  0
   37.5440   27.8550   43.8340 C   0  0  0  0  0  0  0  0  0  0  0  0
   37.2910   27.5870   44.8970 H   0  0  0  0  0  0  0  0  0  0  0  0
   37.1440   28.9180   43.7380 H   0  0  0  0  0  0  0  0  0  0  0  0
   39.1340   30.2350   42.5830 Cl  0  0  0  0  0  0  0  0  0  0  0  0
   39.8600   28.6670   42.9740 C   0  0  0  0  0  0  0  0  0  0  0  0
   38.9800   27.8000   43.5750 C   0  0  0  0  0  0  0  0  0  0  0  0
   39.5260   26.5690   43.9600 C   0  0  0  0  0  0  0  0  0  0  0  0
   38.9870   25.7650   44.4480 H   0  0  0  0  0  0  0  0  0  0  0  0
   40.8450   26.2230   43.7620 C   0  0  0  0  0  0  0  0  0  0  0  0
   41.2970   25.2830   44.0460 H   0  0  0  0  0  0  0  0  0  0  0  0
   41.6980   27.1310   43.1470 C   0  0  0  0  0  3  0  0  0  0  0  0
   41.1760   28.3470   42.7640 C   0  0  0  0  0  3  0  0  0  0  0  0
  1  7  1  0  0  0  0
  1  2  1  0  0  0  0
  2 20  1  0  0  0  0
  3  2  2  0  0  0  0
  3  8  1  0  0  0  0
  4  3  1  0  0  0  0
  5  6  1  0  0  0  0
  5  4  2  0  0  0  0
  6  1  2  0  0  0  0
 10  9  1  0  0  0  0
 10 11  1  0  0  0  0
 11  5  1  0  0  0  0
 12 11  2  0  0  0  0
 12 17  1  0  0  0  0
 13 12  1  0  0  0  0
 14 16  1  0  0  0  0
 14 13  2  0  0  0  0
 15 14  1  0  0  0  0
 16 10  2  0  0  0  0
 18 13  1  0  0  0  0
 19 16  1  0  0  0  0
 20 21  1  0  0  0  0
 20 23  1  0  0  0  0
 22 20  1  0  0  0  0
 23 24  1  0  0  0  0
 25 23  1  0  0  0  0
 26 27  1  0  0  0  0
 27 28  1  0  0  0  0
 28 23  1  0  0  0  0
 28 29  2  0  0  0  0
 29 30  1  0  0  0  0
 31 29  1  0  0  0  0
 31 32  1  0  0  0  0
 33 31  2  0  0  0  0
 34 27  2  0  0  0  0
 34 33  1  0  0  0  0
M  END
>  <minimizedAffinity>
-5.48784351

$$$$

 OpenBabel03252504513D

 34 36  0  0  0  0  0  0  0  0999 V2000
   35.8980   28.7010   41.2560 C   0  0  0  0  0  0  0  0  0  0  0  0
   36.5940   27.5180   41.5450 C   0  0  0  0  0  0  0  0  0  0  0  0
   37.2190   26.8810   40.4730 C   0  0  0  0  0  0  0  0  0  0  0  0
   37.1200   27.4310   39.2290 N   0  0  0  0  0  0  0  0  0  0  0  0
   36.4520   28.5550   38.9920 C   0  0  0  0  0  0  0  0  0  0  0  0
   35.8330   29.1970   40.0130 N   0  0  0  0  0  0  0  0  0  0  0  0
   35.3920   29.2420   42.0470 H   0  0  0  0  0  0  0  0  0  0  0  0
   37.7850   25.9490   40.6240 H   0  0  0  0  0  0  0  0  0  0  0  0
   38.4250   30.7990   38.3900 Cl  0  0  0  0  0  0  0  0  0  0  0  0
   37.2410   30.1350   37.2800 C   0  0  0  0  0  0  0  0  0  0  0  0
   36.3750   29.1020   37.6380 C   0  0  0  0  0  0  0  0  0  0  0  0
   35.4470   28.5890   36.7520 C   0  0  0  0  0  0  0  0  0  0  0  0
   35.3880   29.1290   35.4650 C   0  0  0  0  0  0  0  0  0  0  0  0
   36.2600   30.1510   35.1420 C   0  0  0  0  0  0  0  0  0  0  0  0
   36.1300   30.7800   33.5200 Cl  0  0  0  0  0  0  0  0  0  0  0  0
   37.1820   30.6690   36.0070 C   0  0  0  0  0  0  0  0  0  0  0  0
   34.7840   27.7970   37.0270 H   0  0  0  0  0  0  0  0  0  0  0  0
   34.6570   28.7150   34.7850 H   0  0  0  0  0  0  0  0  0  0  0  0
   37.8270   31.4770   35.6650 H   0  0  0  0  0  0  0  0  0  0  0  0
   36.6490   27.0190   42.8830 C   0  0  0  0  0  0  0  0  0  0  0  0
   35.6250   26.9600   43.3250 H   0  0  0  0  0  0  0  0  0  0  0  0
   37.0990   25.9920   42.9120 H   0  0  0  0  0  0  0  0  0  0  0  0
   37.4800   27.9170   43.7470 C   0  0  0  0  0  0  0  0  0  0  0  0
   37.2110   27.6660   44.8100 H   0  0  0  0  0  0  0  0  0  0  0  0
   37.0580   28.9680   43.6200 H   0  0  0  0  0  0  0  0  0  0  0  0
   39.0240   30.2630   42.3800 Cl  0  0  0  0  0  0  0  0  0  0  0  0
   39.7880   28.7460   42.8810 C   0  0  0  0  0  0  0  0  0  0  0  0
   38.9220   27.8900   43.5190 C   0  0  0  0  0  0  0  0  0  0  0  0
   39.4960   26.7030   43.9890 C   0  0  0  0  0  0  0  0  0  0  0  0
   38.9710   25.9150   44.5160 H   0  0  0  0  0  0  0  0  0  0  0  0
   40.8280   26.3860   43.8380 C   0  0  0  0  0  0  0  0  0  0  0  0
   41.3020   25.4800   44.1880 H   0  0  0  0  0  0  0  0  0  0  0  0
   41.6670   27.2800   43.1840 C   0  0  0  0  0  3  0  0  0  0  0  0
   41.1170   28.4540   42.7160 C   0  0  0  0  0  3  0  0  0  0  0  0
  1  2  1  0  0  0  0
  1  7  1  0  0  0  0
  2 20  1  0  0  0  0
  3  8  1  0  0  0  0
  3  2  2  0  0  0  0
  4  3  1  0  0  0  0
  5  4  2  0  0  0  0
  5  6  1  0  0  0  0
  6  1  2  0  0  0  0
 10 11  1  0  0  0  0
 10  9  1  0  0  0  0
 11  5  1  0  0  0  0
 12 17  1  0  0  0  0
 12 11  2  0  0  0  0
 13 12  1  0  0  0  0
 14 13  2  0  0  0  0
 14 16  1  0  0  0  0
 15 14  1  0  0  0  0
 16 10  2  0  0  0  0
 18 13  1  0  0  0  0
 19 16  1  0  0  0  0
 20 22  1  0  0  0  0
 20 21  1  0  0  0  0
 20 23  1  0  0  0  0
 23 24  1  0  0  0  0
 25 23  1  0  0  0  0
 26 27  1  0  0  0  0
 27 28  1  0  0  0  0
 28 23  1  0  0  0  0
 28 29  2  0  0  0  0
 29 30  1  0  0  0  0
 31 29  1  0  0  0  0
 31 32  1  0  0  0  0
 33 31  2  0  0  0  0
 34 27  2  0  0  0  0
 34 33  1  0  0  0  0
M  END
>  <minimizedAffinity>
-5.46568632

$$$$

 OpenBabel03252504513D

 34 36  0  0  0  0  0  0  0  0999 V2000
   35.5320   27.3660   37.1410 C   0  0  0  0  0  0  0  0  0  0  0  0
   34.7500   28.4750   37.4980 C   0  0  0  0  0  0  0  0  0  0  0  0
   34.8010   28.8730   38.8350 C   0  0  0  0  0  0  0  0  0  0  0  0
   35.5890   28.1760   39.7020 N   0  0  0  0  0  0  0  0  0  0  0  0
   36.3180   27.1300   39.3280 C   0  0  0  0  0  0  0  0  0  0  0  0
   36.2900   26.7180   38.0360 N   0  0  0  0  0  0  0  0  0  0  0  0
   35.5350   27.0100   36.1180 H   0  0  0  0  0  0  0  0  0  0  0  0
   34.2150   29.7360   39.1870 H   0  0  0  0  0  0  0  0  0  0  0  0
   35.6990   24.1590   39.6190 Cl  0  0  0  0  0  0  0  0  0  0  0  0
   36.9270   25.0520   40.4960 C   0  0  0  0  0  0  0  0  0  0  0  0
   37.1460   26.4160   40.2990 C   0  0  0  0  0  0  0  0  0  0  0  0
   38.1180   27.1050   40.9970 C   0  0  0  0  0  0  0  0  0  0  0  0
   38.8950   26.4050   41.9230 C   0  0  0  0  0  0  0  0  0  0  0  0
   38.6530   25.0560   42.0940 C   0  0  0  0  0  0  0  0  0  0  0  0
   39.6570   24.2440   43.2660 Cl  0  0  0  0  0  0  0  0  0  0  0  0
   37.6950   24.3600   41.4110 C   0  0  0  0  0  0  0  0  0  0  0  0
   38.2860   28.1500   40.8440 H   0  0  0  0  0  0  0  0  0  0  0  0
   39.6510   26.9610   42.4590 H   0  0  0  0  0  0  0  0  0  0  0  0
   37.5740   23.2960   41.6140 H   0  0  0  0  0  0  0  0  0  0  0  0
   33.9570   29.1480   36.5170 C   0  0  0  0  0  0  0  0  0  0  0  0
   34.0340   30.2550   36.6390 H   0  0  0  0  0  0  0  0  0  0  0  0
   34.2950   28.8880   35.4790 H   0  0  0  0  0  0  0  0  0  0  0  0
   32.5160   28.7620   36.6490 C   0  0  0  0  0  0  0  0  0  0  0  0
   32.4570   28.0690   37.5330 H   0  0  0  0  0  0  0  0  0  0  0  0
   32.2850   28.0730   35.7710 H   0  0  0  0  0  0  0  0  0  0  0  0
   31.9670   30.7300   34.2860 Cl  0  0  0  0  0  0  0  0  0  0  0  0
   31.2070   30.8730   35.8790 C   0  0  0  0  0  0  0  0  0  0  0  0
   31.5530   29.8550   36.7360 C   0  0  0  0  0  0  0  0  0  0  0  0
   30.9260   29.8920   37.9870 C   0  0  0  0  0  0  0  0  0  0  0  0
   31.0730   29.1750   38.7870 H   0  0  0  0  0  0  0  0  0  0  0  0
   30.0260   30.8650   38.3640 C   0  0  0  0  0  0  0  0  0  0  0  0
   29.5270   30.9220   39.3200 H   0  0  0  0  0  0  0  0  0  0  0  0
   29.7080   31.8770   37.4660 C   0  0  0  0  0  3  0  0  0  0  0  0
   30.3150   31.8530   36.2290 C   0  0  0  0  0  3  0  0  0  0  0  0
  1  2  2  0  0  0  0
  1  6  1  0  0  0  0
  2  3  1  0  0  0  0
  3  8  1  0  0  0  0
  3  4  2  0  0  0  0
  5  4  1  0  0  0  0
  5 11  1  0  0  0  0
  6  5  2  0  0  0  0
  7  1  1  0  0  0  0
  9 10  1  0  0  0  0
 10 16  1  0  0  0  0
 11 10  2  0  0  0  0
 11 12  1  0  0  0  0
 12 13  2  0  0  0  0
 13 14  1  0  0  0  0
 13 18  1  0  0  0  0
 14 15  1  0  0  0  0
 16 19  1  0  0  0  0
 16 14  2  0  0  0  0
 17 12  1  0  0  0  0
 20 21  1  0  0  0  0
 20 23  1  0  0  0  0
 20  2  1  0  0  0  0
 22 20  1  0  0  0  0
 23 28  1  0  0  0  0
 23 24  1  0  0  0  0
 25 23  1  0  0  0  0
 26 27  1  0  0  0  0
 27 34  2  0  0  0  0
 27 28  1  0  0  0  0
 28 29  2  0  0  0  0
 29 31  1  0  0  0  0
 29 30  1  0  0  0  0
 31 32  1  0  0  0  0
 33 31  2  0  0  0  0
 34 33  1  0  0  0  0
M  END
>  <minimizedAffinity>
-5.4431982

$$$$
