
 OpenBabel03242520183D

 31 33  0  0  0  0  0  0  0  0999 V2000
   37.7200   30.8130   40.5220 C   0  0  0  0  0  0  0  0  0  0  0  0
   37.2850   29.8290   41.4250 C   0  0  0  0  0  0  0  0  0  0  0  0
   38.0870   29.6160   42.5700 C   0  0  0  0  0  0  0  0  0  0  0  0
   39.2300   30.3780   42.7210 N   0  0  0  0  0  0  0  0  0  0  0  0
   39.5750   31.3060   41.7960 C   0  0  0  0  0  0  0  0  0  0  0  0
   38.8440   31.5240   40.7230 N   0  0  0  0  0  0  0  0  0  0  0  0
   36.3840   29.2790   41.2330 H   0  0  0  0  0  0  0  0  0  0  0  0
   40.4940   31.7960   42.0890 H   0  0  0  0  0  0  0  0  0  0  0  0
   36.8910   31.0550   39.3120 C   0  0  0  0  0  0  0  0  0  0  0  0
   37.5000   30.4100   38.0290 C   0  0  0  0  0  0  0  0  0  0  0  0
   36.1820   30.0250   38.6190 C   0  0  0  0  0  0  0  0  0  0  0  0
   36.6270   32.1320   39.2080 H   0  0  0  0  0  0  0  0  0  0  0  0
   37.6000   31.0970   37.1900 H   0  0  0  0  0  0  0  0  0  0  0  0
   38.3770   29.7480   38.1610 H   0  0  0  0  0  0  0  0  0  0  0  0
   35.3000   30.3060   37.9900 H   0  0  0  0  0  0  0  0  0  0  0  0
   36.0830   28.9960   39.0040 H   0  0  0  0  0  0  0  0  0  0  0  0
   37.6870   28.5980   43.5630 C   0  0  0  0  0  0  0  0  0  0  0  0
   37.7340   29.0890   44.5790 H   0  0  0  0  0  0  0  0  0  0  0  0
   36.6680   28.2380   43.4240 H   0  0  0  0  0  0  0  0  0  0  0  0
   38.6310   27.4310   43.6010 C   0  0  0  0  0  0  0  0  0  0  0  0
   39.6920   27.7390   43.4010 H   0  0  0  0  0  0  0  0  0  0  0  0
   38.6670   27.1120   44.6730 H   0  0  0  0  0  0  0  0  0  0  0  0
   40.9270   25.6000   43.3900 Cl  0  0  0  0  0  0  0  0  0  0  0  0
   39.3020   25.3600   42.7290 C   0  0  0  0  0  0  0  0  0  0  0  0
   38.2260   26.2510   42.8450 C   0  0  0  0  0  0  0  0  0  0  0  0
   37.0540   25.8820   42.2630 C   0  0  0  0  0  0  0  0  0  0  0  0
   36.2750   26.6170   42.3980 H   0  0  0  0  0  0  0  0  0  0  0  0
   36.9120   24.6870   41.5870 C   0  0  0  0  0  0  0  0  0  0  0  0
   35.9510   24.4620   41.1520 H   0  0  0  0  0  0  0  0  0  0  0  0
   37.9820   23.8150   41.4800 C   0  0  0  0  0  3  0  0  0  0  0  0
   39.1720   24.1580   42.0530 C   0  0  0  0  0  3  0  0  0  0  0  0
  1  6  2  0  0  0  0
  1  2  1  0  0  0  0
  2  3  2  0  0  0  0
  3  4  1  0  0  0  0
  3 17  1  0  0  0  0
  5  8  1  0  0  0  0
  5  4  2  0  0  0  0
  6  5  1  0  0  0  0
  7  2  1  0  0  0  0
  9  1  1  0  0  0  0
 10 14  1  0  0  0  0
 10 11  1  0  0  0  0
 10  9  1  0  0  0  0
 11 16  1  0  0  0  0
 11  9  1  0  0  0  0
 12  9  1  0  0  0  0
 13 10  1  0  0  0  0
 15 11  1  0  0  0  0
 17 20  1  0  0  0  0
 17 18  1  0  0  0  0
 19 17  1  0  0  0  0
 20 22  1  0  0  0  0
 21 20  1  0  0  0  0
 24 25  1  0  0  0  0
 24 23  1  0  0  0  0
 25 20  1  0  0  0  0
 26 27  1  0  0  0  0
 26 25  2  0  0  0  0
 28 26  1  0  0  0  0
 29 28  1  0  0  0  0
 30 28  2  0  0  0  0
 30 31  1  0  0  0  0
 31 24  2  0  0  0  0
M  END
>  <minimizedAffinity>
-5.13541031

$$$$

 OpenBabel03242520183D

 31 33  0  0  0  0  0  0  0  0999 V2000
   37.2520   30.7240   40.0230 C   0  0  0  0  0  0  0  0  0  0  0  0
   37.8210   30.3730   41.2580 C   0  0  0  0  0  0  0  0  0  0  0  0
   37.1810   29.3440   41.9860 C   0  0  0  0  0  0  0  0  0  0  0  0
   36.0530   28.7600   41.4410 N   0  0  0  0  0  0  0  0  0  0  0  0
   35.5710   29.1630   40.2400 C   0  0  0  0  0  0  0  0  0  0  0  0
   36.1500   30.1180   39.5440 N   0  0  0  0  0  0  0  0  0  0  0  0
   38.7000   30.8780   41.6110 H   0  0  0  0  0  0  0  0  0  0  0  0
   34.6890   28.5920   39.9850 H   0  0  0  0  0  0  0  0  0  0  0  0
   37.9100   31.8030   39.2400 C   0  0  0  0  0  0  0  0  0  0  0  0
   37.2960   33.2080   39.5240 C   0  0  0  0  0  0  0  0  0  0  0  0
   38.7100   32.8310   39.8270 C   0  0  0  0  0  0  0  0  0  0  0  0
   37.9810   31.5380   38.1600 H   0  0  0  0  0  0  0  0  0  0  0  0
   37.0040   33.7560   38.6290 H   0  0  0  0  0  0  0  0  0  0  0  0
   36.5580   33.2840   40.3440 H   0  0  0  0  0  0  0  0  0  0  0  0
   39.4690   33.3540   39.1920 H   0  0  0  0  0  0  0  0  0  0  0  0
   39.0150   32.8280   40.8880 H   0  0  0  0  0  0  0  0  0  0  0  0
   37.7280   28.9230   43.2910 C   0  0  0  0  0  0  0  0  0  0  0  0
   38.8280   29.1790   43.2870 H   0  0  0  0  0  0  0  0  0  0  0  0
   37.2780   29.4440   44.1360 H   0  0  0  0  0  0  0  0  0  0  0  0
   37.6290   27.4400   43.5050 C   0  0  0  0  0  0  0  0  0  0  0  0
   37.0840   27.1850   44.4530 H   0  0  0  0  0  0  0  0  0  0  0  0
   36.9290   27.0710   42.7130 H   0  0  0  0  0  0  0  0  0  0  0  0
   37.0120   24.9130   42.1250 Cl  0  0  0  0  0  0  0  0  0  0  0  0
   38.5990   25.4720   42.6780 C   0  0  0  0  0  0  0  0  0  0  0  0
   38.8630   26.6820   43.3340 C   0  0  0  0  0  0  0  0  0  0  0  0
   40.1550   26.9270   43.6800 C   0  0  0  0  0  0  0  0  0  0  0  0
   40.2780   27.8770   44.1760 H   0  0  0  0  0  0  0  0  0  0  0  0
   41.1720   26.0350   43.4030 C   0  0  0  0  0  0  0  0  0  0  0  0
   42.1730   26.2990   43.7070 H   0  0  0  0  0  0  0  0  0  0  0  0
   40.8990   24.8440   42.7540 C   0  0  0  0  0  3  0  0  0  0  0  0
   39.6110   24.5690   42.3950 C   0  0  0  0  0  3  0  0  0  0  0  0
  1  2  1  0  0  0  0
  2  7  1  0  0  0  0
  2  3  2  0  0  0  0
  3 17  1  0  0  0  0
  4  3  1  0  0  0  0
  5  4  2  0  0  0  0
  6  1  2  0  0  0  0
  6  5  1  0  0  0  0
  8  5  1  0  0  0  0
  9 10  1  0  0  0  0
  9 11  1  0  0  0  0
  9  1  1  0  0  0  0
 10 11  1  0  0  0  0
 10 14  1  0  0  0  0
 11 16  1  0  0  0  0
 12  9  1  0  0  0  0
 13 10  1  0  0  0  0
 15 11  1  0  0  0  0
 17 20  1  0  0  0  0
 17 19  1  0  0  0  0
 18 17  1  0  0  0  0
 20 21  1  0  0  0  0
 22 20  1  0  0  0  0
 23 24  1  0  0  0  0
 24 25  1  0  0  0  0
 25 20  1  0  0  0  0
 25 26  2  0  0  0  0
 26 27  1  0  0  0  0
 28 26  1  0  0  0  0
 28 29  1  0  0  0  0
 30 28  2  0  0  0  0
 31 24  2  0  0  0  0
 31 30  1  0  0  0  0
M  END
>  <minimizedAffinity>
-5.12668467

$$$$

 OpenBabel03242520183D

 31 33  0  0  0  0  0  0  0  0999 V2000
   36.0450   29.2600   39.5500 C   0  0  0  0  0  0  0  0  0  0  0  0
   36.3100   28.6520   40.7880 C   0  0  0  0  0  0  0  0  0  0  0  0
   37.0160   29.4230   41.7400 C   0  0  0  0  0  0  0  0  0  0  0  0
   37.3930   30.7060   41.3930 N   0  0  0  0  0  0  0  0  0  0  0  0
   37.0970   31.2140   40.1720 C   0  0  0  0  0  0  0  0  0  0  0  0
   36.4400   30.5160   39.2700 N   0  0  0  0  0  0  0  0  0  0  0  0
   35.9820   27.6470   40.9770 H   0  0  0  0  0  0  0  0  0  0  0  0
   37.4730   32.2250   40.0900 H   0  0  0  0  0  0  0  0  0  0  0  0
   35.3020   28.4680   38.5340 C   0  0  0  0  0  0  0  0  0  0  0  0
   33.8020   28.8820   38.4320 C   0  0  0  0  0  0  0  0  0  0  0  0
   34.7910   29.0200   37.3200 C   0  0  0  0  0  0  0  0  0  0  0  0
   35.4740   27.3750   38.6660 H   0  0  0  0  0  0  0  0  0  0  0  0
   33.1040   28.0490   38.5100 H   0  0  0  0  0  0  0  0  0  0  0  0
   33.4830   29.7760   38.9990 H   0  0  0  0  0  0  0  0  0  0  0  0
   34.6020   28.3370   36.4530 H   0  0  0  0  0  0  0  0  0  0  0  0
   35.0230   30.0420   36.9760 H   0  0  0  0  0  0  0  0  0  0  0  0
   37.3250   28.8450   43.0630 C   0  0  0  0  0  0  0  0  0  0  0  0
   38.4080   29.0800   43.2820 H   0  0  0  0  0  0  0  0  0  0  0  0
   36.7310   29.2730   43.8700 H   0  0  0  0  0  0  0  0  0  0  0  0
   37.1920   27.3500   43.0810 C   0  0  0  0  0  0  0  0  0  0  0  0
   36.4390   27.0010   43.8380 H   0  0  0  0  0  0  0  0  0  0  0  0
   36.7050   27.0820   42.1100 H   0  0  0  0  0  0  0  0  0  0  0  0
   36.8180   24.8070   41.6440 Cl  0  0  0  0  0  0  0  0  0  0  0  0
   38.2900   25.3770   42.4470 C   0  0  0  0  0  0  0  0  0  0  0  0
   38.4390   26.5940   43.1260 C   0  0  0  0  0  0  0  0  0  0  0  0
   39.6550   26.8470   43.6790 C   0  0  0  0  0  0  0  0  0  0  0  0
   39.6920   27.8030   44.1800 H   0  0  0  0  0  0  0  0  0  0  0  0
   40.7060   25.9570   43.5850 C   0  0  0  0  0  0  0  0  0  0  0  0
   41.6410   26.2270   44.0480 H   0  0  0  0  0  0  0  0  0  0  0  0
   40.5460   24.7580   42.9110 C   0  0  0  0  0  3  0  0  0  0  0  0
   39.3360   24.4750   42.3460 C   0  0  0  0  0  3  0  0  0  0  0  0
  1  2  1  0  0  0  0
  2  7  1  0  0  0  0
  2  3  2  0  0  0  0
  3 17  1  0  0  0  0
  4  3  1  0  0  0  0
  5  4  2  0  0  0  0
  6  1  2  0  0  0  0
  6  5  1  0  0  0  0
  8  5  1  0  0  0  0
  9 12  1  0  0  0  0
  9  1  1  0  0  0  0
 10 13  1  0  0  0  0
 10  9  1  0  0  0  0
 10 14  1  0  0  0  0
 11 10  1  0  0  0  0
 11  9  1  0  0  0  0
 15 11  1  0  0  0  0
 16 11  1  0  0  0  0
 17 20  1  0  0  0  0
 17 18  1  0  0  0  0
 17 19  1  0  0  0  0
 20 25  1  0  0  0  0
 20 21  1  0  0  0  0
 22 20  1  0  0  0  0
 23 24  1  0  0  0  0
 24 25  1  0  0  0  0
 25 26  2  0  0  0  0
 26 27  1  0  0  0  0
 28 26  1  0  0  0  0
 28 29  1  0  0  0  0
 30 28  2  0  0  0  0
 31 24  2  0  0  0  0
 31 30  1  0  0  0  0
M  END
>  <minimizedAffinity>
-5.10086203

$$$$

 OpenBabel03242520183D

 31 33  0  0  0  0  0  0  0  0999 V2000
   37.6740   25.0120   42.0810 C   0  0  0  0  0  0  0  0  0  0  0  0
   37.2730   26.3070   42.4490 C   0  0  0  0  0  0  0  0  0  0  0  0
   38.1670   27.0460   43.2580 C   0  0  0  0  0  0  0  0  0  0  0  0
   39.3590   26.4530   43.6280 N   0  0  0  0  0  0  0  0  0  0  0  0
   39.6650   25.1960   43.2270 C   0  0  0  0  0  0  0  0  0  0  0  0
   38.8500   24.4880   42.4730 N   0  0  0  0  0  0  0  0  0  0  0  0
   36.3270   26.6930   42.1200 H   0  0  0  0  0  0  0  0  0  0  0  0
   40.6330   24.9090   43.6150 H   0  0  0  0  0  0  0  0  0  0  0  0
   36.7500   24.2170   41.2290 C   0  0  0  0  0  0  0  0  0  0  0  0
   36.9410   24.5070   39.7090 C   0  0  0  0  0  0  0  0  0  0  0  0
   37.1830   23.1790   40.3490 C   0  0  0  0  0  0  0  0  0  0  0  0
   35.6990   24.2940   41.5880 H   0  0  0  0  0  0  0  0  0  0  0  0
   36.0190   24.7570   39.1840 H   0  0  0  0  0  0  0  0  0  0  0  0
   37.7980   25.1420   39.4160 H   0  0  0  0  0  0  0  0  0  0  0  0
   36.4520   22.3860   40.0490 H   0  0  0  0  0  0  0  0  0  0  0  0
   38.2160   22.7920   40.3320 H   0  0  0  0  0  0  0  0  0  0  0  0
   37.8080   28.4160   43.6790 C   0  0  0  0  0  0  0  0  0  0  0  0
   36.7160   28.5630   43.4320 H   0  0  0  0  0  0  0  0  0  0  0  0
   37.9240   28.5820   44.7490 H   0  0  0  0  0  0  0  0  0  0  0  0
   38.5690   29.4660   42.9230 C   0  0  0  0  0  0  0  0  0  0  0  0
   39.0710   30.2000   43.6080 H   0  0  0  0  0  0  0  0  0  0  0  0
   39.4360   28.9310   42.4590 H   0  0  0  0  0  0  0  0  0  0  0  0
   40.2810   31.5720   41.7800 Cl  0  0  0  0  0  0  0  0  0  0  0  0
   38.6520   31.1160   41.2570 C   0  0  0  0  0  0  0  0  0  0  0  0
   37.8580   30.1070   41.8220 C   0  0  0  0  0  0  0  0  0  0  0  0
   36.6290   29.9110   41.2740 C   0  0  0  0  0  0  0  0  0  0  0  0
   36.0820   29.1180   41.7600 H   0  0  0  0  0  0  0  0  0  0  0  0
   36.1690   30.6610   40.2110 C   0  0  0  0  0  0  0  0  0  0  0  0
   35.1830   30.4470   39.8300 H   0  0  0  0  0  0  0  0  0  0  0  0
   36.9630   31.6540   39.6620 C   0  0  0  0  0  3  0  0  0  0  0  0
   38.2020   31.8750   40.1900 C   0  0  0  0  0  3  0  0  0  0  0  0
  1  2  2  0  0  0  0
  1  6  1  0  0  0  0
  2  3  1  0  0  0  0
  3  4  2  0  0  0  0
  3 17  1  0  0  0  0
  5  8  1  0  0  0  0
  5  4  1  0  0  0  0
  6  5  2  0  0  0  0
  7  2  1  0  0  0  0
  9 12  1  0  0  0  0
  9  1  1  0  0  0  0
 10 11  1  0  0  0  0
 10  9  1  0  0  0  0
 11  9  1  0  0  0  0
 13 10  1  0  0  0  0
 14 10  1  0  0  0  0
 15 11  1  0  0  0  0
 16 11  1  0  0  0  0
 17 19  1  0  0  0  0
 18 17  1  0  0  0  0
 20 21  1  0  0  0  0
 20 17  1  0  0  0  0
 22 20  1  0  0  0  0
 24 23  1  0  0  0  0
 24 25  1  0  0  0  0
 25 20  1  0  0  0  0
 26 27  1  0  0  0  0
 26 25  2  0  0  0  0
 28 26  1  0  0  0  0
 29 28  1  0  0  0  0
 30 31  1  0  0  0  0
 30 28  2  0  0  0  0
 31 24  2  0  0  0  0
M  END
>  <minimizedAffinity>
-5.04545164

$$$$

 OpenBabel03242520183D

 31 33  0  0  0  0  0  0  0  0999 V2000
   37.7010   25.6930   42.2160 C   0  0  0  0  0  0  0  0  0  0  0  0
   37.1630   26.9850   42.1040 C   0  0  0  0  0  0  0  0  0  0  0  0
   37.9420   28.0480   42.6160 C   0  0  0  0  0  0  0  0  0  0  0  0
   39.1650   27.7480   43.1860 N   0  0  0  0  0  0  0  0  0  0  0  0
   39.6070   26.4690   43.2530 C   0  0  0  0  0  0  0  0  0  0  0  0
   38.9000   25.4630   42.7820 N   0  0  0  0  0  0  0  0  0  0  0  0
   36.2020   27.1330   41.6480 H   0  0  0  0  0  0  0  0  0  0  0  0
   40.5780   26.4370   43.7290 H   0  0  0  0  0  0  0  0  0  0  0  0
   36.8990   24.5610   41.6820 C   0  0  0  0  0  0  0  0  0  0  0  0
   36.8980   24.5110   40.1240 C   0  0  0  0  0  0  0  0  0  0  0  0
   37.4670   23.4410   40.9990 C   0  0  0  0  0  0  0  0  0  0  0  0
   35.8880   24.5230   42.1480 H   0  0  0  0  0  0  0  0  0  0  0  0
   35.9040   24.4520   39.6800 H   0  0  0  0  0  0  0  0  0  0  0  0
   37.5740   25.2050   39.5930 H   0  0  0  0  0  0  0  0  0  0  0  0
   36.8970   22.4780   40.9740 H   0  0  0  0  0  0  0  0  0  0  0  0
   38.5530   23.2620   40.9340 H   0  0  0  0  0  0  0  0  0  0  0  0
   37.4370   29.4330   42.5290 C   0  0  0  0  0  0  0  0  0  0  0  0
   36.8940   29.6490   43.4960 H   0  0  0  0  0  0  0  0  0  0  0  0
   38.2270   30.1750   42.4280 H   0  0  0  0  0  0  0  0  0  0  0  0
   36.4370   29.6100   41.4220 C   0  0  0  0  0  0  0  0  0  0  0  0
   36.1070   28.6280   40.9900 H   0  0  0  0  0  0  0  0  0  0  0  0
   35.5060   29.9840   41.9180 H   0  0  0  0  0  0  0  0  0  0  0  0
   36.4520   28.2960   38.7870 Cl  0  0  0  0  0  0  0  0  0  0  0  0
   36.7870   29.9990   39.1360 C   0  0  0  0  0  0  0  0  0  0  0  0
   36.7740   30.5980   40.4040 C   0  0  0  0  0  0  0  0  0  0  0  0
   37.0620   31.9260   40.4610 C   0  0  0  0  0  0  0  0  0  0  0  0
   37.0280   32.3140   41.4680 H   0  0  0  0  0  0  0  0  0  0  0  0
   37.3550   32.6650   39.3330 C   0  0  0  0  0  0  0  0  0  0  0  0
   37.5720   33.7140   39.4580 H   0  0  0  0  0  0  0  0  0  0  0  0
   37.3640   32.0620   38.0870 C   0  0  0  0  0  3  0  0  0  0  0  0
   37.0800   30.7300   37.9970 C   0  0  0  0  0  3  0  0  0  0  0  0
  1  6  1  0  0  0  0
  2  1  2  0  0  0  0
  2  3  1  0  0  0  0
  3  4  2  0  0  0  0
  4  5  1  0  0  0  0
  5  8  1  0  0  0  0
  6  5  2  0  0  0  0
  7  2  1  0  0  0  0
  9 12  1  0  0  0  0
  9  1  1  0  0  0  0
 10 11  1  0  0  0  0
 10  9  1  0  0  0  0
 11  9  1  0  0  0  0
 13 10  1  0  0  0  0
 14 10  1  0  0  0  0
 15 11  1  0  0  0  0
 16 11  1  0  0  0  0
 17  3  1  0  0  0  0
 17 18  1  0  0  0  0
 19 17  1  0  0  0  0
 20 22  1  0  0  0  0
 20 17  1  0  0  0  0
 21 20  1  0  0  0  0
 23 24  1  0  0  0  0
 24 25  1  0  0  0  0
 25 26  2  0  0  0  0
 25 20  1  0  0  0  0
 26 27  1  0  0  0  0
 28 29  1  0  0  0  0
 28 26  1  0  0  0  0
 30 28  2  0  0  0  0
 31 30  1  0  0  0  0
 31 24  2  0  0  0  0
M  END
>  <minimizedAffinity>
-5.02568579

$$$$

 OpenBabel03242520183D

 31 33  0  0  0  0  0  0  0  0999 V2000
   37.3190   32.0760   39.2550 C   0  0  0  0  0  0  0  0  0  0  0  0
   36.5530   31.0820   39.8850 C   0  0  0  0  0  0  0  0  0  0  0  0
   36.2350   29.9380   39.1170 C   0  0  0  0  0  0  0  0  0  0  0  0
   36.6930   29.8760   37.8140 N   0  0  0  0  0  0  0  0  0  0  0  0
   37.4270   30.8840   37.2850 C   0  0  0  0  0  0  0  0  0  0  0  0
   37.7370   31.9580   37.9810 N   0  0  0  0  0  0  0  0  0  0  0  0
   36.2350   31.2090   40.9030 H   0  0  0  0  0  0  0  0  0  0  0  0
   37.6900   30.6530   36.2620 H   0  0  0  0  0  0  0  0  0  0  0  0
   37.6670   33.2870   40.0450 C   0  0  0  0  0  0  0  0  0  0  0  0
   38.9100   33.0670   40.9600 C   0  0  0  0  0  0  0  0  0  0  0  0
   38.8550   34.0520   39.8380 C   0  0  0  0  0  0  0  0  0  0  0  0
   36.7740   33.7020   40.5660 H   0  0  0  0  0  0  0  0  0  0  0  0
   38.7500   33.3410   42.0020 H   0  0  0  0  0  0  0  0  0  0  0  0
   39.4710   32.1220   40.8370 H   0  0  0  0  0  0  0  0  0  0  0  0
   38.8730   35.1220   40.1660 H   0  0  0  0  0  0  0  0  0  0  0  0
   39.5400   33.8870   38.9880 H   0  0  0  0  0  0  0  0  0  0  0  0
   35.4340   28.8530   39.7190 C   0  0  0  0  0  0  0  0  0  0  0  0
   35.0440   29.2390   40.7070 H   0  0  0  0  0  0  0  0  0  0  0  0
   34.5710   28.5700   39.1180 H   0  0  0  0  0  0  0  0  0  0  0  0
   36.2560   27.6340   40.0240 C   0  0  0  0  0  0  0  0  0  0  0  0
   35.6970   26.6840   39.8120 H   0  0  0  0  0  0  0  0  0  0  0  0
   37.0660   27.6200   39.2510 H   0  0  0  0  0  0  0  0  0  0  0  0
   39.1640   27.5220   39.5740 Cl  0  0  0  0  0  0  0  0  0  0  0  0
   38.3230   27.5700   41.1310 C   0  0  0  0  0  0  0  0  0  0  0  0
   36.9340   27.6220   41.3160 C   0  0  0  0  0  0  0  0  0  0  0  0
   36.4830   27.6510   42.5980 C   0  0  0  0  0  0  0  0  0  0  0  0
   35.4060   27.6950   42.6570 H   0  0  0  0  0  0  0  0  0  0  0  0
   37.3400   27.6320   43.6800 C   0  0  0  0  0  0  0  0  0  0  0  0
   36.9080   27.6580   44.6680 H   0  0  0  0  0  0  0  0  0  0  0  0
   38.7100   27.5810   43.4850 C   0  0  0  0  0  3  0  0  0  0  0  0
   39.1930   27.5500   42.2080 C   0  0  0  0  0  3  0  0  0  0  0  0
  1  2  1  0  0  0  0
  1  9  1  0  0  0  0
  2  7  1  0  0  0  0
  3 17  1  0  0  0  0
  3  2  2  0  0  0  0
  4  3  1  0  0  0  0
  5  4  2  0  0  0  0
  5  6  1  0  0  0  0
  6  1  2  0  0  0  0
  8  5  1  0  0  0  0
  9 12  1  0  0  0  0
  9 10  1  0  0  0  0
 10 13  1  0  0  0  0
 11  9  1  0  0  0  0
 11 15  1  0  0  0  0
 11 10  1  0  0  0  0
 14 10  1  0  0  0  0
 16 11  1  0  0  0  0
 17 20  1  0  0  0  0
 17 18  1  0  0  0  0
 19 17  1  0  0  0  0
 20 25  1  0  0  0  0
 21 20  1  0  0  0  0
 22 20  1  0  0  0  0
 23 24  1  0  0  0  0
 24 25  2  0  0  0  0
 24 31  1  0  0  0  0
 25 26  1  0  0  0  0
 26 27  1  0  0  0  0
 26 28  2  0  0  0  0
 28 29  1  0  0  0  0
 30 28  1  0  0  0  0
 31 30  2  0  0  0  0
M  END
>  <minimizedAffinity>
-4.94130659

$$$$

 OpenBabel03242520183D

 31 33  0  0  0  0  0  0  0  0999 V2000
   37.2500   26.9100   41.9960 C   0  0  0  0  0  0  0  0  0  0  0  0
   36.5670   27.8280   41.1820 C   0  0  0  0  0  0  0  0  0  0  0  0
   36.7290   29.1980   41.4910 C   0  0  0  0  0  0  0  0  0  0  0  0
   37.5380   29.5380   42.5590 N   0  0  0  0  0  0  0  0  0  0  0  0
   38.1600   28.5840   43.2930 C   0  0  0  0  0  0  0  0  0  0  0  0
   38.0250   27.3020   43.0240 N   0  0  0  0  0  0  0  0  0  0  0  0
   35.9560   27.4800   40.3710 H   0  0  0  0  0  0  0  0  0  0  0  0
   38.7440   29.0430   44.0790 H   0  0  0  0  0  0  0  0  0  0  0  0
   37.0950   25.4630   41.6880 C   0  0  0  0  0  0  0  0  0  0  0  0
   38.2420   24.9180   40.7830 C   0  0  0  0  0  0  0  0  0  0  0  0
   37.9770   24.4510   42.1780 C   0  0  0  0  0  0  0  0  0  0  0  0
   36.0680   25.2330   41.3250 H   0  0  0  0  0  0  0  0  0  0  0  0
   37.8960   24.3830   39.9000 H   0  0  0  0  0  0  0  0  0  0  0  0
   39.0940   25.5930   40.5810 H   0  0  0  0  0  0  0  0  0  0  0  0
   37.6060   23.3980   42.2450 H   0  0  0  0  0  0  0  0  0  0  0  0
   38.7600   24.6450   42.9310 H   0  0  0  0  0  0  0  0  0  0  0  0
   36.0410   30.2170   40.6730 C   0  0  0  0  0  0  0  0  0  0  0  0
   35.1030   29.7380   40.2670 H   0  0  0  0  0  0  0  0  0  0  0  0
   35.7360   31.0940   41.2440 H   0  0  0  0  0  0  0  0  0  0  0  0
   36.8550   30.6490   39.4880 C   0  0  0  0  0  0  0  0  0  0  0  0
   37.4400   29.7990   39.0460 H   0  0  0  0  0  0  0  0  0  0  0  0
   36.1120   30.8790   38.6840 H   0  0  0  0  0  0  0  0  0  0  0  0
   39.7060   29.9160   39.5800 Cl  0  0  0  0  0  0  0  0  0  0  0  0
   39.0140   31.5400   39.7060 C   0  0  0  0  0  0  0  0  0  0  0  0
   37.6490   31.8600   39.6600 C   0  0  0  0  0  0  0  0  0  0  0  0
   37.3200   33.1740   39.7770 C   0  0  0  0  0  0  0  0  0  0  0  0
   36.2540   33.3400   39.7280 H   0  0  0  0  0  0  0  0  0  0  0  0
   38.2720   34.1600   39.9340 C   0  0  0  0  0  0  0  0  0  0  0  0
   37.9340   35.1810   40.0190 H   0  0  0  0  0  0  0  0  0  0  0  0
   39.6160   33.8320   39.9770 C   0  0  0  0  0  3  0  0  0  0  0  0
   39.9790   32.5210   39.8630 C   0  0  0  0  0  3  0  0  0  0  0  0
  1  6  1  0  0  0  0
  2  3  1  0  0  0  0
  2  1  2  0  0  0  0
  3  4  2  0  0  0  0
  4  5  1  0  0  0  0
  5  8  1  0  0  0  0
  6  5  2  0  0  0  0
  7  2  1  0  0  0  0
  9  1  1  0  0  0  0
  9 11  1  0  0  0  0
 10  9  1  0  0  0  0
 10 11  1  0  0  0  0
 11 15  1  0  0  0  0
 11 16  1  0  0  0  0
 12  9  1  0  0  0  0
 13 10  1  0  0  0  0
 14 10  1  0  0  0  0
 17 19  1  0  0  0  0
 17  3  1  0  0  0  0
 18 17  1  0  0  0  0
 20 25  1  0  0  0  0
 20 17  1  0  0  0  0
 21 20  1  0  0  0  0
 22 20  1  0  0  0  0
 23 24  1  0  0  0  0
 24 31  1  0  0  0  0
 25 24  2  0  0  0  0
 25 26  1  0  0  0  0
 26 28  2  0  0  0  0
 27 26  1  0  0  0  0
 28 30  1  0  0  0  0
 28 29  1  0  0  0  0
 31 30  2  0  0  0  0
M  END
>  <minimizedAffinity>
-4.94045305

$$$$

 OpenBabel03242520183D

 31 33  0  0  0  0  0  0  0  0999 V2000
   38.2770   31.8490   39.5990 C   0  0  0  0  0  0  0  0  0  0  0  0
   38.3580   31.0220   40.7310 C   0  0  0  0  0  0  0  0  0  0  0  0
   39.4790   31.2040   41.5740 C   0  0  0  0  0  0  0  0  0  0  0  0
   40.4070   32.1680   41.2310 N   0  0  0  0  0  0  0  0  0  0  0  0
   40.2490   32.9220   40.1170 C   0  0  0  0  0  0  0  0  0  0  0  0
   39.2140   32.7730   39.3180 N   0  0  0  0  0  0  0  0  0  0  0  0
   37.5930   30.2940   40.9250 H   0  0  0  0  0  0  0  0  0  0  0  0
   41.0730   33.6170   40.0200 H   0  0  0  0  0  0  0  0  0  0  0  0
   37.1050   31.6770   38.7000 C   0  0  0  0  0  0  0  0  0  0  0  0
   37.4640   30.9110   37.3900 C   0  0  0  0  0  0  0  0  0  0  0  0
   36.5020   30.4130   38.4190 C   0  0  0  0  0  0  0  0  0  0  0  0
   36.5690   32.6410   38.5420 H   0  0  0  0  0  0  0  0  0  0  0  0
   37.1510   31.4180   36.4770 H   0  0  0  0  0  0  0  0  0  0  0  0
   38.4750   30.4690   37.3200 H   0  0  0  0  0  0  0  0  0  0  0  0
   35.4370   30.3860   38.0760 H   0  0  0  0  0  0  0  0  0  0  0  0
   36.7700   29.4840   38.9520 H   0  0  0  0  0  0  0  0  0  0  0  0
   39.6260   30.3680   42.7830 C   0  0  0  0  0  0  0  0  0  0  0  0
   40.4970   29.6730   42.6020 H   0  0  0  0  0  0  0  0  0  0  0  0
   39.8510   30.9440   43.6800 H   0  0  0  0  0  0  0  0  0  0  0  0
   38.4250   29.5020   43.0320 C   0  0  0  0  0  0  0  0  0  0  0  0
   37.8510   29.8260   43.9410 H   0  0  0  0  0  0  0  0  0  0  0  0
   37.7130   29.7330   42.1990 H   0  0  0  0  0  0  0  0  0  0  0  0
   36.2110   28.2460   41.5510 Cl  0  0  0  0  0  0  0  0  0  0  0  0
   37.6080   27.4370   42.2790 C   0  0  0  0  0  0  0  0  0  0  0  0
   38.6490   28.0620   42.9800 C   0  0  0  0  0  0  0  0  0  0  0  0
   39.6340   27.2610   43.4650 C   0  0  0  0  0  0  0  0  0  0  0  0
   40.3990   27.8150   43.9880 H   0  0  0  0  0  0  0  0  0  0  0  0
   39.6270   25.8930   43.2830 C   0  0  0  0  0  0  0  0  0  0  0  0
   40.4440   25.3220   43.6960 H   0  0  0  0  0  0  0  0  0  0  0  0
   38.5940   25.2870   42.5880 C   0  0  0  0  0  3  0  0  0  0  0  0
   37.5890   26.0650   42.0900 C   0  0  0  0  0  3  0  0  0  0  0  0
  1  2  1  0  0  0  0
  2  7  1  0  0  0  0
  2  3  2  0  0  0  0
  3 17  1  0  0  0  0
  4  3  1  0  0  0  0
  5  4  2  0  0  0  0
  6  1  2  0  0  0  0
  6  5  1  0  0  0  0
  8  5  1  0  0  0  0
  9  1  1  0  0  0  0
 10 11  1  0  0  0  0
 10  9  1  0  0  0  0
 11  9  1  0  0  0  0
 11 16  1  0  0  0  0
 12  9  1  0  0  0  0
 13 10  1  0  0  0  0
 14 10  1  0  0  0  0
 15 11  1  0  0  0  0
 17 20  1  0  0  0  0
 17 19  1  0  0  0  0
 18 17  1  0  0  0  0
 20 21  1  0  0  0  0
 22 20  1  0  0  0  0
 23 24  1  0  0  0  0
 24 25  1  0  0  0  0
 25 20  1  0  0  0  0
 25 26  2  0  0  0  0
 26 27  1  0  0  0  0
 28 26  1  0  0  0  0
 28 29  1  0  0  0  0
 30 28  2  0  0  0  0
 31 24  2  0  0  0  0
 31 30  1  0  0  0  0
M  END
>  <minimizedAffinity>
-4.93700933

$$$$

 OpenBabel03242520183D

 31 33  0  0  0  0  0  0  0  0999 V2000
   38.7090   26.7040   42.5790 C   0  0  0  0  0  0  0  0  0  0  0  0
   38.1460   26.8410   41.3000 C   0  0  0  0  0  0  0  0  0  0  0  0
   36.9160   27.5340   41.2140 C   0  0  0  0  0  0  0  0  0  0  0  0
   36.3570   28.0220   42.3800 N   0  0  0  0  0  0  0  0  0  0  0  0
   36.9700   27.8420   43.5750 C   0  0  0  0  0  0  0  0  0  0  0  0
   38.1150   27.2020   43.6800 N   0  0  0  0  0  0  0  0  0  0  0  0
   38.6460   26.4300   40.4430 H   0  0  0  0  0  0  0  0  0  0  0  0
   36.3820   28.2930   44.3640 H   0  0  0  0  0  0  0  0  0  0  0  0
   40.0030   25.9810   42.6920 C   0  0  0  0  0  0  0  0  0  0  0  0
   39.8140   24.4510   42.9320 C   0  0  0  0  0  0  0  0  0  0  0  0
   40.4700   25.0390   41.7240 C   0  0  0  0  0  0  0  0  0  0  0  0
   40.6870   26.4820   43.4130 H   0  0  0  0  0  0  0  0  0  0  0  0
   40.3720   24.0610   43.7820 H   0  0  0  0  0  0  0  0  0  0  0  0
   38.7870   24.0480   42.8590 H   0  0  0  0  0  0  0  0  0  0  0  0
   41.5680   24.8350   41.6540 H   0  0  0  0  0  0  0  0  0  0  0  0
   39.9740   24.8760   40.7520 H   0  0  0  0  0  0  0  0  0  0  0  0
   36.2710   27.7170   39.8980 C   0  0  0  0  0  0  0  0  0  0  0  0
   37.0980   27.8130   39.1350 H   0  0  0  0  0  0  0  0  0  0  0  0
   35.6520   26.8710   39.6010 H   0  0  0  0  0  0  0  0  0  0  0  0
   35.4630   28.9810   39.8260 C   0  0  0  0  0  0  0  0  0  0  0  0
   34.6290   28.9060   39.0780 H   0  0  0  0  0  0  0  0  0  0  0  0
   34.9140   29.0400   40.7990 H   0  0  0  0  0  0  0  0  0  0  0  0
   36.1590   29.4260   36.9990 Cl  0  0  0  0  0  0  0  0  0  0  0  0
   36.5650   30.4600   38.3780 C   0  0  0  0  0  0  0  0  0  0  0  0
   36.2210   30.2220   39.7160 C   0  0  0  0  0  0  0  0  0  0  0  0
   36.6300   31.1410   40.6310 C   0  0  0  0  0  0  0  0  0  0  0  0
   36.3240   30.8900   41.6350 H   0  0  0  0  0  0  0  0  0  0  0  0
   37.3510   32.2620   40.2750 C   0  0  0  0  0  0  0  0  0  0  0  0
   37.6400   32.9470   41.0570 H   0  0  0  0  0  0  0  0  0  0  0  0
   37.6850   32.4870   38.9500 C   0  0  0  0  0  3  0  0  0  0  0  0
   37.2890   31.5820   38.0090 C   0  0  0  0  0  3  0  0  0  0  0  0
  1  9  1  0  0  0  0
  1  6  1  0  0  0  0
  2  1  2  0  0  0  0
  3  2  1  0  0  0  0
  3  4  2  0  0  0  0
  4  5  1  0  0  0  0
  5  6  2  0  0  0  0
  5  8  1  0  0  0  0
  7  2  1  0  0  0  0
  9 10  1  0  0  0  0
  9 12  1  0  0  0  0
 10 13  1  0  0  0  0
 11  9  1  0  0  0  0
 11 10  1  0  0  0  0
 14 10  1  0  0  0  0
 15 11  1  0  0  0  0
 16 11  1  0  0  0  0
 17  3  1  0  0  0  0
 18 17  1  0  0  0  0
 19 17  1  0  0  0  0
 20 17  1  0  0  0  0
 20 22  1  0  0  0  0
 21 20  1  0  0  0  0
 23 24  1  0  0  0  0
 24 25  1  0  0  0  0
 25 20  1  0  0  0  0
 25 26  2  0  0  0  0
 26 27  1  0  0  0  0
 28 26  1  0  0  0  0
 28 29  1  0  0  0  0
 30 28  2  0  0  0  0
 31 24  2  0  0  0  0
 31 30  1  0  0  0  0
M  END
>  <minimizedAffinity>
-4.93211794

$$$$
