
 OpenBabel03252506343D

 33 35  0  0  1  0  0  0  0  0999 V2000
   44.4520   35.7330   45.0050 C   0  0  0  0  0  0  0  0  0  0  0  0
   45.1270   35.7080   43.7550 C   0  0  0  0  0  0  0  0  0  0  0  0
   46.0490   34.7380   43.5150 C   0  0  0  0  0  0  0  0  0  0  0  0
   46.2650   33.8380   44.5130 N   0  0  0  0  0  0  0  0  0  0  0  0
   45.6360   33.8610   45.6760 C   0  0  0  0  0  0  0  0  0  0  0  0
   44.7210   34.8070   45.9460 N   0  0  0  0  0  0  0  0  0  0  0  0
   45.9430   32.8730   46.6380 N   0  0  0  0  0  0  0  0  0  0  0  0
   45.1560   32.5810   47.8340 C   0  0  0  0  0  0  0  0  0  0  0  0
   46.2290   32.2800   48.8560 C   0  0  0  0  0  0  0  0  0  0  0  0
   47.5270   32.1290   48.1010 C   0  0  0  0  0  0  0  0  0  0  0  0
   47.0440   31.9530   46.6810 C   0  0  1  0  0  0  0  0  0  0  0  0
   43.7070   36.4690   45.2760 H   0  0  0  0  0  0  0  0  0  0  0  0
   46.5610   34.7180   42.5630 H   0  0  0  0  0  0  0  0  0  0  0  0
   44.4490   31.7520   47.6860 H   0  0  0  0  0  0  0  0  0  0  0  0
   44.6670   33.5420   48.1320 H   0  0  0  0  0  0  0  0  0  0  0  0
   45.9890   31.4100   49.4960 H   0  0  0  0  0  0  0  0  0  0  0  0
   46.3780   33.1510   49.5570 H   0  0  0  0  0  0  0  0  0  0  0  0
   47.9900   31.1830   48.4550 H   0  0  0  0  0  0  0  0  0  0  0  0
   48.1910   33.0140   48.2260 H   0  0  0  0  0  0  0  0  0  0  0  0
   47.8560   32.2700   45.9790 H   0  0  0  0  0  0  0  0  0  0  0  0
   44.7690   36.7400   42.8230 N   0  0  0  0  0  0  0  0  0  0  0  0
   45.5900   37.2170   42.3710 H   0  0  0  0  0  0  0  0  0  0  0  0
   43.8100   37.0560   42.5570 H   0  0  0  0  0  0  0  0  0  0  0  0
   46.5650   30.2390   46.4380 S   0  0  0  0  0  0  0  0  0  0  0  0
   49.3940   29.1870   47.0780 Cl  0  0  0  0  0  0  0  0  0  0  0  0
   48.7220   29.0080   45.4640 C   0  0  0  0  0  0  0  0  0  0  0  0
   47.4640   29.4580   45.1280 C   0  0  0  0  0  0  0  0  0  0  0  0
   47.0420   29.2620   43.8310 C   0  0  0  0  0  0  0  0  0  0  0  0
   46.0500   29.6280   43.6090 H   0  0  0  0  0  0  0  0  0  0  0  0
   47.8110   28.6460   42.8680 C   0  0  0  0  0  0  0  0  0  0  0  0
   47.4590   28.5050   41.8620 H   0  0  0  0  0  0  0  0  0  0  0  0
   49.0580   28.2180   43.2650 C   0  0  0  0  0  3  0  0  0  0  0  0
   49.5670   28.3740   44.5540 C   0  0  0  0  0  3  0  0  0  0  0  0
  1 12  1  0  0  0  0
  1  6  1  0  0  0  0
  2  1  2  0  0  0  0
  3  2  1  0  0  0  0
  3  4  2  0  0  0  0
  4  5  1  0  0  0  0
  5  6  2  0  0  0  0
  5  7  1  0  0  0  0
  7 11  1  0  0  0  0
  7  8  1  0  0  0  0
  8 15  1  0  0  0  0
  8  9  1  0  0  0  0
  9 16  1  0  0  0  0
  9 17  1  0  0  0  0
 10 19  1  0  0  0  0
 10 18  1  0  0  0  0
 10  9  1  0  0  0  0
 11 20  1  6  0  0  0
 11 10  1  0  0  0  0
 13  3  1  0  0  0  0
 14  8  1  0  0  0  0
 21  2  1  0  0  0  0
 22 21  1  0  0  0  0
 23 21  1  0  0  0  0
 24 11  1  0  0  0  0
 26 25  1  0  0  0  0
 27 26  1  0  0  0  0
 27 24  1  0  0  0  0
 28 27  2  0  0  0  0
 29 28  1  0  0  0  0
 30 32  2  0  0  0  0
 30 28  1  0  0  0  0
 31 30  1  0  0  0  0
 32 33  1  0  0  0  0
 33 26  2  0  0  0  0
M  END
>  <minimizedAffinity>
-4.96176577

>  <minimizedRMSD>
2.17125392

$$$$
