
 OpenBabel03252509263D

 30 32  0  0  1  0  0  0  0  0999 V2000
   46.7400   35.1970   41.9470 C   0  0  1  0  0  0  0  0  0  0  0  0
   48.2750   35.4170   42.0080 C   0  0  0  0  0  0  0  0  0  0  0  0
   47.5350   34.2450   41.2890 C   0  0  2  0  0  0  0  0  0  0  0  0
   46.1960   36.0100   41.4230 H   0  0  0  0  0  0  0  0  0  0  0  0
   48.6290   36.2130   41.3310 H   0  0  0  0  0  0  0  0  0  0  0  0
   48.8120   35.1890   42.9330 H   0  0  0  0  0  0  0  0  0  0  0  0
   47.7690   33.2530   41.7840 H   0  0  0  0  0  0  0  0  0  0  0  0
   44.6920   35.2710   45.0920 C   0  0  0  0  0  0  0  0  0  0  0  0
   45.1840   35.6640   43.8190 C   0  0  0  0  0  0  0  0  0  0  0  0
   46.1940   34.9050   43.3270 C   0  0  0  0  0  0  0  0  0  0  0  0
   46.7140   33.8230   44.0170 N   0  0  0  0  0  0  0  0  0  0  0  0
   46.2070   33.4910   45.2300 C   0  0  0  0  0  0  0  0  0  0  0  0
   45.1980   34.2150   45.7660 N   0  0  0  0  0  0  0  0  0  0  0  0
   43.8840   35.8400   45.5340 H   0  0  0  0  0  0  0  0  0  0  0  0
   46.7010   32.6300   45.6590 H   0  0  0  0  0  0  0  0  0  0  0  0
   44.6850   36.7810   43.1330 N   0  0  0  0  0  0  0  0  0  0  0  0
   44.0780   36.3690   42.3980 H   0  0  0  0  0  0  0  0  0  0  0  0
   44.8690   37.8130   43.3060 H   0  0  0  0  0  0  0  0  0  0  0  0
   47.6150   34.1800   39.7830 C   0  0  0  0  0  0  0  0  0  0  0  0
   47.4290   35.1730   39.3160 H   0  0  0  0  0  0  0  0  0  0  0  0
   48.6450   33.8800   39.4920 H   0  0  0  0  0  0  0  0  0  0  0  0
   49.1490   31.9020   38.7150 Cl  0  0  0  0  0  0  0  0  0  0  0  0
   47.4060   32.0490   38.7660 C   0  0  0  0  0  0  0  0  0  0  0  0
   46.7020   33.1380   39.2780 C   0  0  0  0  0  0  0  0  0  0  0  0
   45.3250   33.1200   39.2540 C   0  0  0  0  0  0  0  0  0  0  0  0
   44.9000   34.0130   39.6750 H   0  0  0  0  0  0  0  0  0  0  0  0
   44.6510   32.0350   38.7300 C   0  0  0  0  0  0  0  0  0  0  0  0
   43.5730   32.1100   38.7550 H   0  0  0  0  0  0  0  0  0  0  0  0
   45.3560   30.9440   38.2180 C   0  0  0  0  0  3  0  0  0  0  0  0
   46.7340   30.9500   38.2350 C   0  0  0  0  0  3  0  0  0  0  0  0
  1  4  1  6  0  0  0
  1  2  1  0  0  0  0
  1 10  1  0  0  0  0
  2  6  1  0  0  0  0
  3  7  1  1  0  0  0
  3  1  1  0  0  0  0
  3  2  1  0  0  0  0
  5  2  1  0  0  0  0
  8 14  1  0  0  0  0
  8 13  1  0  0  0  0
  9  8  2  0  0  0  0
 10  9  1  0  0  0  0
 10 11  2  0  0  0  0
 11 12  1  0  0  0  0
 12 15  1  0  0  0  0
 12 13  2  0  0  0  0
 16 18  1  0  0  0  0
 16  9  1  0  0  0  0
 17 16  1  0  0  0  0
 19  3  1  0  0  0  0
 20 19  1  0  0  0  0
 21 19  1  0  0  0  0
 22 23  1  0  0  0  0
 23 24  1  0  0  0  0
 24 19  1  0  0  0  0
 25 24  2  0  0  0  0
 25 26  1  0  0  0  0
 27 28  1  0  0  0  0
 27 25  1  0  0  0  0
 29 30  1  0  0  0  0
 29 27  2  0  0  0  0
 30 23  2  0  0  0  0
M  END
>  <minimizedAffinity>
-4.63905525

>  <minimizedRMSD>
2.2998414

$$$$
