
 OpenBabel03252509263D

 30 32  0  0  1  0  0  0  0  0999 V2000
   46.5500   35.0670   42.0160 C   0  0  1  0  0  0  0  0  0  0  0  0
   48.0780   35.3430   41.9920 C   0  0  0  0  0  0  0  0  0  0  0  0
   47.3470   34.1190   41.3550 C   0  0  2  0  0  0  0  0  0  0  0  0
   45.9510   35.8410   41.4900 H   0  0  0  0  0  0  0  0  0  0  0  0
   48.3690   36.1240   41.2680 H   0  0  0  0  0  0  0  0  0  0  0  0
   48.6670   35.1710   42.8950 H   0  0  0  0  0  0  0  0  0  0  0  0
   47.6400   33.1560   41.8740 H   0  0  0  0  0  0  0  0  0  0  0  0
   44.7000   35.2380   45.2780 C   0  0  0  0  0  0  0  0  0  0  0  0
   45.1210   35.5990   43.9700 C   0  0  0  0  0  0  0  0  0  0  0  0
   46.0840   34.8110   43.4320 C   0  0  0  0  0  0  0  0  0  0  0  0
   46.6240   33.7310   44.1090 N   0  0  0  0  0  0  0  0  0  0  0  0
   46.1860   33.4300   45.3560 C   0  0  0  0  0  0  0  0  0  0  0  0
   45.2260   34.1830   45.9390 N   0  0  0  0  0  0  0  0  0  0  0  0
   43.9310   35.8310   45.7570 H   0  0  0  0  0  0  0  0  0  0  0  0
   46.6880   32.5670   45.7700 H   0  0  0  0  0  0  0  0  0  0  0  0
   44.6020   36.7140   43.2950 N   0  0  0  0  0  0  0  0  0  0  0  0
   43.9440   36.3010   42.6050 H   0  0  0  0  0  0  0  0  0  0  0  0
   44.8160   37.7450   43.4370 H   0  0  0  0  0  0  0  0  0  0  0  0
   47.3540   33.9980   39.8500 C   0  0  0  0  0  0  0  0  0  0  0  0
   46.3480   33.7360   39.4520 H   0  0  0  0  0  0  0  0  0  0  0  0
   47.6210   34.9850   39.4130 H   0  0  0  0  0  0  0  0  0  0  0  0
   48.0490   34.4220   37.0180 Cl  0  0  0  0  0  0  0  0  0  0  0  0
   48.7400   33.2250   38.0900 C   0  0  0  0  0  0  0  0  0  0  0  0
   48.3950   33.0430   39.4290 C   0  0  0  0  0  0  0  0  0  0  0  0
   49.0220   32.0570   40.1570 C   0  0  0  0  0  0  0  0  0  0  0  0
   48.6710   32.0170   41.1720 H   0  0  0  0  0  0  0  0  0  0  0  0
   49.9820   31.2600   39.5680 C   0  0  0  0  0  0  0  0  0  0  0  0
   50.4200   30.5140   40.2170 H   0  0  0  0  0  0  0  0  0  0  0  0
   50.3290   31.4400   38.2280 C   0  0  0  0  0  3  0  0  0  0  0  0
   49.7080   32.4230   37.4870 C   0  0  0  0  0  3  0  0  0  0  0  0
  1  4  1  6  0  0  0
  1 10  1  0  0  0  0
  2  1  1  0  0  0  0
  2  6  1  0  0  0  0
  3  7  1  1  0  0  0
  3  2  1  0  0  0  0
  3  1  1  0  0  0  0
  5  2  1  0  0  0  0
  8 14  1  0  0  0  0
  8 13  1  0  0  0  0
  9  8  2  0  0  0  0
 10  9  1  0  0  0  0
 10 11  2  0  0  0  0
 11 12  1  0  0  0  0
 12 15  1  0  0  0  0
 12 13  2  0  0  0  0
 16 18  1  0  0  0  0
 16  9  1  0  0  0  0
 17 16  1  0  0  0  0
 19  3  1  0  0  0  0
 20 19  1  0  0  0  0
 21 19  1  0  0  0  0
 22 23  1  0  0  0  0
 23 24  1  0  0  0  0
 24 19  1  0  0  0  0
 24 25  2  0  0  0  0
 25 26  1  0  0  0  0
 27 25  1  0  0  0  0
 27 28  1  0  0  0  0
 29 27  2  0  0  0  0
 30 23  2  0  0  0  0
 30 29  1  0  0  0  0
M  END
>  <minimizedAffinity>
-5.19262505

>  <minimizedRMSD>
0.683487296

$$$$
