
 OpenBabel03242512013D

 47 50  0  0  1  0  0  0  0  0999 V2000
   46.8120   33.9950   42.5690 C   0  0  2  0  0  0  0  0  0  0  0  0
   48.2810   34.2450   42.7380 C   0  0  0  0  0  0  0  0  0  0  0  0
   48.8010   35.2470   41.7810 C   0  0  0  0  0  0  0  0  0  0  0  0
   48.5180   34.8750   40.3440 C   0  0  0  0  0  0  0  0  0  0  0  0
   47.1430   34.3020   40.1270 C   0  0  0  0  0  0  0  0  0  0  0  0
   46.2260   34.5140   41.3080 C   0  0  1  0  0  0  0  0  0  0  0  0
   46.6940   32.8680   42.5690 H   0  0  0  0  0  0  0  0  0  0  0  0
   48.8770   33.3210   42.6080 H   0  0  0  0  0  0  0  0  0  0  0  0
   48.4770   34.5880   43.7640 H   0  0  0  0  0  0  0  0  0  0  0  0
   49.9170   35.2900   41.9000 H   0  0  0  0  0  0  0  0  0  0  0  0
   48.4090   36.2490   42.0470 H   0  0  0  0  0  0  0  0  0  0  0  0
   49.2570   34.0610   40.0830 H   0  0  0  0  0  0  0  0  0  0  0  0
   48.7750   35.7090   39.6680 H   0  0  0  0  0  0  0  0  0  0  0  0
   47.1570   33.2310   39.8880 H   0  0  0  0  0  0  0  0  0  0  0  0
   46.6900   34.8590   39.2670 H   0  0  0  0  0  0  0  0  0  0  0  0
   45.9530   35.5780   41.2800 H   0  0  0  0  0  0  0  0  0  0  0  0
   46.0160   34.4420   43.7270 C   0  0  0  0  0  0  0  0  0  0  0  0
   45.3800   35.6540   43.5210 C   0  0  0  0  0  0  0  0  0  0  0  0
   44.5800   36.2040   44.5370 C   0  0  0  0  0  0  0  0  0  0  0  0
   44.4930   35.4490   45.7130 N   0  0  0  0  0  0  0  0  0  0  0  0
   45.1360   34.2700   45.8620 C   0  0  0  0  0  0  0  0  0  0  0  0
   45.8910   33.7830   44.8620 N   0  0  0  0  0  0  0  0  0  0  0  0
   45.3260   36.3770   42.7210 H   0  0  0  0  0  0  0  0  0  0  0  0
   44.0220   37.1010   44.5750 H   0  0  0  0  0  0  0  0  0  0  0  0
   45.0370   33.7320   46.7850 H   0  0  0  0  0  0  0  0  0  0  0  0
   44.9540   33.7530   41.0390 C   0  0  2  0  0  0  0  0  0  0  0  0
   44.6250   33.4190   39.5990 C   0  0  0  0  0  0  0  0  0  0  0  0
   43.8150   34.4140   40.3420 C   0  0  1  0  0  0  0  0  0  0  0  0
   44.7790   32.8820   41.7130 H   0  0  0  0  0  0  0  0  0  0  0  0
   44.0920   32.4710   39.3560 H   0  0  0  0  0  0  0  0  0  0  0  0
   45.2400   33.7950   38.7810 H   0  0  0  0  0  0  0  0  0  0  0  0
   43.9720   35.4960   40.1500 H   0  0  0  0  0  0  0  0  0  0  0  0
   42.4920   34.0890   40.9790 C   0  0  0  0  0  0  0  0  0  0  0  0
   42.1270   33.1450   40.5260 H   0  0  0  0  0  0  0  0  0  0  0  0
   42.6770   33.9000   42.0410 H   0  0  0  0  0  0  0  0  0  0  0  0
   41.4670   35.1740   40.8220 C   0  0  0  0  0  0  0  0  0  0  0  0
   41.0110   35.4250   41.8080 H   0  0  0  0  0  0  0  0  0  0  0  0
   41.8410   36.0650   40.3100 H   0  0  0  0  0  0  0  0  0  0  0  0
   41.6760   35.8640   37.8840 Cl  0  0  0  0  0  0  0  0  0  0  0  0
   40.4150   34.9070   38.6600 C   0  0  0  0  0  0  0  0  0  0  0  0
   40.3530   34.6130   40.0100 C   0  0  0  0  0  0  0  0  0  0  0  0
   39.2980   33.8510   40.4650 C   0  0  0  0  0  0  0  0  0  0  0  0
   39.2920   33.6470   41.5260 H   0  0  0  0  0  0  0  0  0  0  0  0
   38.3550   33.4150   39.5640 C   0  0  0  0  0  0  0  0  0  0  0  0
   37.5400   32.8190   39.9600 H   0  0  0  0  0  0  0  0  0  0  0  0
   38.3920   33.6950   38.2130 C   0  0  0  0  0  0  0  0  0  0  0  0
   39.4660   34.4680   37.7670 C   0  0  0  0  0  0  0  0  0  0  0  0
  1  7  1  6  0  0  0
  1  2  1  0  0  0  0
  1 17  1  0  0  0  0
  2  9  1  0  0  0  0
  3 10  1  0  0  0  0
  3 11  1  0  0  0  0
  3  2  1  0  0  0  0
  4  3  1  0  0  0  0
  5  4  1  0  0  0  0
  5  6  1  0  0  0  0
  6 16  1  1  0  0  0
  6  1  1  0  0  0  0
  8  2  1  0  0  0  0
 12  4  1  0  0  0  0
 13  4  1  0  0  0  0
 14  5  1  0  0  0  0
 15  5  1  0  0  0  0
 17 22  1  0  0  0  0
 18 17  2  0  0  0  0
 18 19  1  0  0  0  0
 19 24  1  0  0  0  0
 19 20  2  0  0  0  0
 20 21  1  0  0  0  0
 21 25  1  0  0  0  0
 22 21  2  0  0  0  0
 23 18  1  0  0  0  0
 26  6  1  0  0  0  0
 26 29  1  1  0  0  0
 27 28  1  0  0  0  0
 27 26  1  0  0  0  0
 28 32  1  6  0  0  0
 28 33  1  0  0  0  0
 28 26  1  0  0  0  0
 30 27  1  0  0  0  0
 31 27  1  0  0  0  0
 33 35  1  0  0  0  0
 34 33  1  0  0  0  0
 36 33  1  0  0  0  0
 36 37  1  0  0  0  0
 38 36  1  0  0  0  0
 39 40  1  0  0  0  0
 40 41  1  0  0  0  0
 41 42  2  0  0  0  0
 41 36  1  0  0  0  0
 42 43  1  0  0  0  0
 44 45  1  0  0  0  0
 44 42  1  0  0  0  0
 46 44  2  0  0  0  0
 47 46  1  0  0  0  0
 47 40  2  0  0  0  0
M  END
>  <minimizedAffinity>
-7.43391705

>  <minimizedRMSD>
2.82885981

$$$$
