
 OpenBabel03242518293D

 21 22  0  0  0  0  0  0  0  0999 V2000
   36.2490   29.6950   41.0320 C   0  0  0  0  0  0  0  0  0  0  0  0
   35.3650   28.8090   40.8930 O   0  0  0  0  0  0  0  0  0  0  0  0
   36.6870   30.6370   40.0520 C   0  0  0  0  0  0  0  0  0  0  0  0
   36.8620   30.0890   38.7800 C   0  0  0  0  0  0  0  0  0  0  0  0
   37.2910   30.9560   37.7630 C   0  0  0  0  0  0  0  0  0  0  0  0
   37.5140   32.2590   38.0540 N   0  0  0  0  0  0  0  0  0  0  0  0
   37.3270   32.7390   39.3120 C   0  0  0  0  0  0  0  0  0  0  0  0
   36.9150   31.9330   40.3130 N   0  0  0  0  0  0  0  0  0  0  0  0
   36.6850   29.0480   38.5400 H   0  0  0  0  0  0  0  0  0  0  0  0
   37.4380   30.5710   36.7670 H   0  0  0  0  0  0  0  0  0  0  0  0
   37.5250   33.7920   39.4710 H   0  0  0  0  0  0  0  0  0  0  0  0
   36.8840   29.7930   42.2610 O   0  0  0  0  0  0  0  0  0  0  0  0
   36.2710   27.2830   43.6790 Cl  0  0  0  0  0  0  0  0  0  0  0  0
   37.8910   27.8570   43.2920 C   0  0  0  0  0  0  0  0  0  0  0  0
   38.0060   29.0730   42.6130 C   0  0  0  0  0  0  0  0  0  0  0  0
   39.2860   29.5310   42.3050 C   0  0  0  0  0  0  0  0  0  0  0  0
   39.4360   30.4600   41.7830 H   0  0  0  0  0  0  0  0  0  0  0  0
   40.4000   28.7850   42.6720 C   0  0  0  0  0  0  0  0  0  0  0  0
   41.4050   29.1330   42.4370 H   0  0  0  0  0  0  0  0  0  0  0  0
   40.2650   27.5830   43.3450 C   0  0  0  0  0  3  0  0  0  0  0  0
   39.0020   27.1190   43.6550 C   0  0  0  0  0  3  0  0  0  0  0  0
  1 12  1  0  0  0  0
  2  1  2  0  0  0  0
  3  8  1  0  0  0  0
  3  1  1  0  0  0  0
  4  3  2  0  0  0  0
  5  6  2  0  0  0  0
  5  4  1  0  0  0  0
  6  7  1  0  0  0  0
  7 11  1  0  0  0  0
  7  8  2  0  0  0  0
  9  4  1  0  0  0  0
 10  5  1  0  0  0  0
 12 15  1  0  0  0  0
 14 21  1  0  0  0  0
 14 13  1  0  0  0  0
 15 14  2  0  0  0  0
 16 15  1  0  0  0  0
 16 18  2  0  0  0  0
 17 16  1  0  0  0  0
 18 20  1  0  0  0  0
 19 18  1  0  0  0  0
 20 21  2  0  0  0  0
M  END
>  <minimizedAffinity>
-4.83256531

$$$$

 OpenBabel03242518293D

 21 22  0  0  0  0  0  0  0  0999 V2000
   35.7540   29.8480   40.3190 C   0  0  0  0  0  0  0  0  0  0  0  0
   34.6480   29.2450   40.3430 O   0  0  0  0  0  0  0  0  0  0  0  0
   36.4250   30.3730   39.1730 C   0  0  0  0  0  0  0  0  0  0  0  0
   36.9270   31.6640   39.3550 C   0  0  0  0  0  0  0  0  0  0  0  0
   37.6010   32.2460   38.2710 C   0  0  0  0  0  0  0  0  0  0  0  0
   37.7310   31.5470   37.1190 N   0  0  0  0  0  0  0  0  0  0  0  0
   37.2220   30.2930   36.9980 C   0  0  0  0  0  0  0  0  0  0  0  0
   36.5690   29.7020   38.0200 N   0  0  0  0  0  0  0  0  0  0  0  0
   36.8260   32.2280   40.2740 H   0  0  0  0  0  0  0  0  0  0  0  0
   38.0030   33.2410   38.3710 H   0  0  0  0  0  0  0  0  0  0  0  0
   37.3640   29.7930   36.0470 H   0  0  0  0  0  0  0  0  0  0  0  0
   36.4160   30.0380   41.5220 O   0  0  0  0  0  0  0  0  0  0  0  0
   39.1890   30.9010   42.0170 Cl  0  0  0  0  0  0  0  0  0  0  0  0
   38.5280   29.3270   42.4500 C   0  0  0  0  0  0  0  0  0  0  0  0
   37.1870   29.0780   42.1430 C   0  0  0  0  0  0  0  0  0  0  0  0
   36.6590   27.8340   42.4840 C   0  0  0  0  0  0  0  0  0  0  0  0
   35.6340   27.5850   42.2720 H   0  0  0  0  0  0  0  0  0  0  0  0
   37.4600   26.8850   43.1090 C   0  0  0  0  0  0  0  0  0  0  0  0
   37.0600   25.9090   43.3790 H   0  0  0  0  0  0  0  0  0  0  0  0
   38.7860   27.1510   43.4040 C   0  0  0  0  0  3  0  0  0  0  0  0
   39.3200   28.3800   43.0720 C   0  0  0  0  0  3  0  0  0  0  0  0
  1  2  2  0  0  0  0
  1 12  1  0  0  0  0
  3  4  1  0  0  0  0
  3  1  1  0  0  0  0
  4  9  1  0  0  0  0
  5 10  1  0  0  0  0
  5  4  2  0  0  0  0
  6  5  1  0  0  0  0
  7  6  2  0  0  0  0
  7  8  1  0  0  0  0
  8  3  2  0  0  0  0
 11  7  1  0  0  0  0
 12 15  1  0  0  0  0
 13 14  1  0  0  0  0
 14 21  1  0  0  0  0
 15 14  2  0  0  0  0
 15 16  1  0  0  0  0
 16 18  2  0  0  0  0
 17 16  1  0  0  0  0
 18 19  1  0  0  0  0
 18 20  1  0  0  0  0
 21 20  2  0  0  0  0
M  END
>  <minimizedAffinity>
-4.63687801

$$$$

 OpenBabel03242518293D

 21 22  0  0  0  0  0  0  0  0999 V2000
   37.3620   31.5000   39.6680 C   0  0  0  0  0  0  0  0  0  0  0  0
   36.7910   31.0130   38.6570 O   0  0  0  0  0  0  0  0  0  0  0  0
   38.4890   32.3760   39.6850 C   0  0  0  0  0  0  0  0  0  0  0  0
   39.4430   32.0870   38.7060 C   0  0  0  0  0  0  0  0  0  0  0  0
   40.5800   32.9080   38.6610 C   0  0  0  0  0  0  0  0  0  0  0  0
   40.7010   33.9220   39.5490 N   0  0  0  0  0  0  0  0  0  0  0  0
   39.7400   34.1580   40.4800 C   0  0  0  0  0  0  0  0  0  0  0  0
   38.6340   33.3880   40.5530 N   0  0  0  0  0  0  0  0  0  0  0  0
   39.3520   31.2780   37.9930 H   0  0  0  0  0  0  0  0  0  0  0  0
   41.3400   32.7180   37.9200 H   0  0  0  0  0  0  0  0  0  0  0  0
   39.9040   34.9870   41.1590 H   0  0  0  0  0  0  0  0  0  0  0  0
   36.8620   31.1660   40.9180 O   0  0  0  0  0  0  0  0  0  0  0  0
   34.9420   28.9720   40.4950 Cl  0  0  0  0  0  0  0  0  0  0  0  0
   36.3790   28.8760   41.5080 C   0  0  0  0  0  0  0  0  0  0  0  0
   37.1870   30.0130   41.6010 C   0  0  0  0  0  0  0  0  0  0  0  0
   38.3260   29.9420   42.4010 C   0  0  0  0  0  0  0  0  0  0  0  0
   38.9850   30.7850   42.5110 H   0  0  0  0  0  0  0  0  0  0  0  0
   38.6290   28.7660   43.0780 C   0  0  0  0  0  0  0  0  0  0  0  0
   39.5160   28.6980   43.7070 H   0  0  0  0  0  0  0  0  0  0  0  0
   37.8150   27.6510   42.9730 C   0  0  0  0  0  3  0  0  0  0  0  0
   36.6850   27.7100   42.1830 C   0  0  0  0  0  3  0  0  0  0  0  0
  1  3  1  0  0  0  0
  1 12  1  0  0  0  0
  2  1  2  0  0  0  0
  3  8  1  0  0  0  0
  4  3  2  0  0  0  0
  5  4  1  0  0  0  0
  5  6  2  0  0  0  0
  6  7  1  0  0  0  0
  7  8  2  0  0  0  0
  7 11  1  0  0  0  0
  9  4  1  0  0  0  0
 10  5  1  0  0  0  0
 12 15  1  0  0  0  0
 13 14  1  0  0  0  0
 14 15  2  0  0  0  0
 14 21  1  0  0  0  0
 15 16  1  0  0  0  0
 16 17  1  0  0  0  0
 16 18  2  0  0  0  0
 18 19  1  0  0  0  0
 20 18  1  0  0  0  0
 21 20  2  0  0  0  0
M  END
>  <minimizedAffinity>
-4.60021591

$$$$

 OpenBabel03242518293D

 21 22  0  0  0  0  0  0  0  0999 V2000
   37.0090   30.9030   40.1430 C   0  0  0  0  0  0  0  0  0  0  0  0
   36.1950   30.4230   39.3110 O   0  0  0  0  0  0  0  0  0  0  0  0
   38.0970   31.7880   39.8740 C   0  0  0  0  0  0  0  0  0  0  0  0
   37.8750   33.1000   40.2980 C   0  0  0  0  0  0  0  0  0  0  0  0
   38.9030   34.0280   40.0670 C   0  0  0  0  0  0  0  0  0  0  0  0
   40.0390   33.6200   39.4570 N   0  0  0  0  0  0  0  0  0  0  0  0
   40.2010   32.3290   39.0650 C   0  0  0  0  0  0  0  0  0  0  0  0
   39.2340   31.4100   39.2710 N   0  0  0  0  0  0  0  0  0  0  0  0
   36.9690   33.4330   40.7880 H   0  0  0  0  0  0  0  0  0  0  0  0
   38.7710   35.0510   40.3800 H   0  0  0  0  0  0  0  0  0  0  0  0
   41.1370   32.0740   38.5820 H   0  0  0  0  0  0  0  0  0  0  0  0
   36.8560   30.5530   41.4760 O   0  0  0  0  0  0  0  0  0  0  0  0
   39.4840   30.7340   42.7970 Cl  0  0  0  0  0  0  0  0  0  0  0  0
   38.5090   29.2720   42.6810 C   0  0  0  0  0  0  0  0  0  0  0  0
   37.2820   29.3590   42.0180 C   0  0  0  0  0  0  0  0  0  0  0  0
   36.5070   28.2040   41.9240 C   0  0  0  0  0  0  0  0  0  0  0  0
   35.5530   28.2100   41.4250 H   0  0  0  0  0  0  0  0  0  0  0  0
   36.9610   27.0130   42.4800 C   0  0  0  0  0  0  0  0  0  0  0  0
   36.3650   26.1040   42.4120 H   0  0  0  0  0  0  0  0  0  0  0  0
   38.1800   26.9480   43.1320 C   0  0  0  0  0  3  0  0  0  0  0  0
   38.9560   28.0850   43.2320 C   0  0  0  0  0  3  0  0  0  0  0  0
  1 12  1  0  0  0  0
  2  1  2  0  0  0  0
  3  1  1  0  0  0  0
  3  4  1  0  0  0  0
  4  9  1  0  0  0  0
  5  4  2  0  0  0  0
  5 10  1  0  0  0  0
  6  5  1  0  0  0  0
  7  8  1  0  0  0  0
  7  6  2  0  0  0  0
  8  3  2  0  0  0  0
 11  7  1  0  0  0  0
 12 15  1  0  0  0  0
 14 13  1  0  0  0  0
 14 21  1  0  0  0  0
 15 14  2  0  0  0  0
 16 15  1  0  0  0  0
 16 18  2  0  0  0  0
 17 16  1  0  0  0  0
 18 20  1  0  0  0  0
 19 18  1  0  0  0  0
 20 21  2  0  0  0  0
M  END
>  <minimizedAffinity>
-4.57496691

$$$$

 OpenBabel03242518293D

 21 22  0  0  0  0  0  0  0  0999 V2000
   37.1360   27.9460   42.8010 C   0  0  0  0  0  0  0  0  0  0  0  0
   37.4120   28.8040   43.6800 O   0  0  0  0  0  0  0  0  0  0  0  0
   37.6980   26.6400   42.6620 C   0  0  0  0  0  0  0  0  0  0  0  0
   39.0350   26.5560   43.0570 C   0  0  0  0  0  0  0  0  0  0  0  0
   39.6550   25.3020   42.9500 C   0  0  0  0  0  0  0  0  0  0  0  0
   38.9460   24.2510   42.4780 N   0  0  0  0  0  0  0  0  0  0  0  0
   37.6460   24.3900   42.1070 C   0  0  0  0  0  0  0  0  0  0  0  0
   37.0180   25.5810   42.1970 N   0  0  0  0  0  0  0  0  0  0  0  0
   39.6070   27.3930   43.4370 H   0  0  0  0  0  0  0  0  0  0  0  0
   40.6860   25.1960   43.2450 H   0  0  0  0  0  0  0  0  0  0  0  0
   37.1410   23.5050   41.7380 H   0  0  0  0  0  0  0  0  0  0  0  0
   36.1830   28.2760   41.8490 O   0  0  0  0  0  0  0  0  0  0  0  0
   36.3110   27.0410   39.1770 Cl  0  0  0  0  0  0  0  0  0  0  0  0
   36.4700   28.7640   39.5020 C   0  0  0  0  0  0  0  0  0  0  0  0
   36.3850   29.1850   40.8330 C   0  0  0  0  0  0  0  0  0  0  0  0
   36.5100   30.5490   41.0950 C   0  0  0  0  0  0  0  0  0  0  0  0
   36.4530   30.9320   42.1000 H   0  0  0  0  0  0  0  0  0  0  0  0
   36.7130   31.4440   40.0510 C   0  0  0  0  0  0  0  0  0  0  0  0
   36.8130   32.5110   40.2440 H   0  0  0  0  0  0  0  0  0  0  0  0
   36.7950   31.0060   38.7410 C   0  0  0  0  0  3  0  0  0  0  0  0
   36.6720   29.6590   38.4680 C   0  0  0  0  0  3  0  0  0  0  0  0
  1  2  2  0  0  0  0
  3  1  1  0  0  0  0
  3  4  1  0  0  0  0
  4  9  1  0  0  0  0
  5  4  2  0  0  0  0
  5 10  1  0  0  0  0
  6  5  1  0  0  0  0
  7  8  1  0  0  0  0
  7  6  2  0  0  0  0
  8  3  2  0  0  0  0
 11  7  1  0  0  0  0
 12  1  1  0  0  0  0
 13 14  1  0  0  0  0
 14 15  1  0  0  0  0
 15 16  2  0  0  0  0
 15 12  1  0  0  0  0
 16 17  1  0  0  0  0
 18 19  1  0  0  0  0
 18 16  1  0  0  0  0
 20 18  2  0  0  0  0
 21 20  1  0  0  0  0
 21 14  2  0  0  0  0
M  END
>  <minimizedAffinity>
-4.51162243

$$$$

 OpenBabel03242518293D

 21 22  0  0  0  0  0  0  0  0999 V2000
   36.7120   27.4660   40.5390 C   0  0  0  0  0  0  0  0  0  0  0  0
   36.6540   26.5630   39.6630 O   0  0  0  0  0  0  0  0  0  0  0  0
   36.6830   28.8780   40.3260 C   0  0  0  0  0  0  0  0  0  0  0  0
   36.8620   29.2520   38.9920 C   0  0  0  0  0  0  0  0  0  0  0  0
   36.8440   30.6250   38.7060 C   0  0  0  0  0  0  0  0  0  0  0  0
   36.6600   31.5090   39.7140 N   0  0  0  0  0  0  0  0  0  0  0  0
   36.4920   31.0890   40.9950 C   0  0  0  0  0  0  0  0  0  0  0  0
   36.5030   29.7760   41.3060 N   0  0  0  0  0  0  0  0  0  0  0  0
   37.0080   28.5490   38.1820 H   0  0  0  0  0  0  0  0  0  0  0  0
   36.9780   30.9550   37.6890 H   0  0  0  0  0  0  0  0  0  0  0  0
   36.3500   31.8530   41.7500 H   0  0  0  0  0  0  0  0  0  0  0  0
   36.8150   27.0770   41.8660 O   0  0  0  0  0  0  0  0  0  0  0  0
   37.1880   24.1550   41.7880 Cl  0  0  0  0  0  0  0  0  0  0  0  0
   38.3160   25.2990   42.5100 C   0  0  0  0  0  0  0  0  0  0  0  0
   37.9860   26.6570   42.4620 C   0  0  0  0  0  0  0  0  0  0  0  0
   38.8750   27.5660   43.0320 C   0  0  0  0  0  0  0  0  0  0  0  0
   38.6740   28.6230   43.0250 H   0  0  0  0  0  0  0  0  0  0  0  0
   40.0480   27.1140   43.6260 C   0  0  0  0  0  0  0  0  0  0  0  0
   40.7510   27.8140   44.0760 H   0  0  0  0  0  0  0  0  0  0  0  0
   40.3560   25.7650   43.6640 C   0  0  0  0  0  3  0  0  0  0  0  0
   39.4830   24.8550   43.1020 C   0  0  0  0  0  3  0  0  0  0  0  0
  1 12  1  0  0  0  0
  2  1  2  0  0  0  0
  3  1  1  0  0  0  0
  3  8  1  0  0  0  0
  4  3  2  0  0  0  0
  5  4  1  0  0  0  0
  5  6  2  0  0  0  0
  6  7  1  0  0  0  0
  7  8  2  0  0  0  0
  7 11  1  0  0  0  0
  9  4  1  0  0  0  0
 10  5  1  0  0  0  0
 12 15  1  0  0  0  0
 13 14  1  0  0  0  0
 14 21  1  0  0  0  0
 15 14  2  0  0  0  0
 15 16  1  0  0  0  0
 16 18  2  0  0  0  0
 17 16  1  0  0  0  0
 18 20  1  0  0  0  0
 18 19  1  0  0  0  0
 21 20  2  0  0  0  0
M  END
>  <minimizedAffinity>
-4.37784529

$$$$

 OpenBabel03242518293D

 21 22  0  0  0  0  0  0  0  0999 V2000
   37.6990   29.7110   41.9510 C   0  0  0  0  0  0  0  0  0  0  0  0
   38.3420   29.7000   43.0330 O   0  0  0  0  0  0  0  0  0  0  0  0
   37.9470   30.5290   40.8070 C   0  0  0  0  0  0  0  0  0  0  0  0
   36.9590   31.4890   40.5750 C   0  0  0  0  0  0  0  0  0  0  0  0
   37.1350   32.3320   39.4670 C   0  0  0  0  0  0  0  0  0  0  0  0
   38.2320   32.1810   38.6880 N   0  0  0  0  0  0  0  0  0  0  0  0
   39.1620   31.2290   38.9610 C   0  0  0  0  0  0  0  0  0  0  0  0
   39.0240   30.4010   40.0180 N   0  0  0  0  0  0  0  0  0  0  0  0
   36.0800   31.6150   41.1940 H   0  0  0  0  0  0  0  0  0  0  0  0
   36.3950   33.0860   39.2530 H   0  0  0  0  0  0  0  0  0  0  0  0
   40.0130   31.1660   38.2940 H   0  0  0  0  0  0  0  0  0  0  0  0
   36.6260   28.8410   41.8250 O   0  0  0  0  0  0  0  0  0  0  0  0
   36.1570   28.2460   38.9780 Cl  0  0  0  0  0  0  0  0  0  0  0  0
   36.5540   27.0500   40.2080 C   0  0  0  0  0  0  0  0  0  0  0  0
   36.7460   27.5030   41.5170 C   0  0  0  0  0  0  0  0  0  0  0  0
   37.0600   26.5590   42.4940 C   0  0  0  0  0  0  0  0  0  0  0  0
   37.2190   26.8480   43.5190 H   0  0  0  0  0  0  0  0  0  0  0  0
   37.1740   25.2160   42.1550 C   0  0  0  0  0  0  0  0  0  0  0  0
   37.4190   24.4700   42.9100 H   0  0  0  0  0  0  0  0  0  0  0  0
   36.9800   24.7890   40.8530 C   0  0  0  0  0  3  0  0  0  0  0  0
   36.6690   25.7130   39.8770 C   0  0  0  0  0  3  0  0  0  0  0  0
  1  2  2  0  0  0  0
  3  1  1  0  0  0  0
  4  3  1  0  0  0  0
  4  9  1  0  0  0  0
  5  4  2  0  0  0  0
  6  7  2  0  0  0  0
  6  5  1  0  0  0  0
  7  8  1  0  0  0  0
  8  3  2  0  0  0  0
 10  5  1  0  0  0  0
 11  7  1  0  0  0  0
 12  1  1  0  0  0  0
 13 14  1  0  0  0  0
 14 15  1  0  0  0  0
 15 12  1  0  0  0  0
 15 16  2  0  0  0  0
 16 17  1  0  0  0  0
 18 16  1  0  0  0  0
 18 19  1  0  0  0  0
 20 18  2  0  0  0  0
 21 14  2  0  0  0  0
 21 20  1  0  0  0  0
M  END
>  <minimizedAffinity>
-4.3313508

$$$$

 OpenBabel03242518293D

 21 22  0  0  0  0  0  0  0  0999 V2000
   36.5570   29.2050   40.5890 C   0  0  0  0  0  0  0  0  0  0  0  0
   35.3770   28.9240   40.9280 O   0  0  0  0  0  0  0  0  0  0  0  0
   37.0590   30.4800   40.1870 C   0  0  0  0  0  0  0  0  0  0  0  0
   37.9650   31.0400   41.0910 C   0  0  0  0  0  0  0  0  0  0  0  0
   38.5020   32.2940   40.7620 C   0  0  0  0  0  0  0  0  0  0  0  0
   38.1260   32.8930   39.6080 N   0  0  0  0  0  0  0  0  0  0  0  0
   37.2410   32.3010   38.7650 C   0  0  0  0  0  0  0  0  0  0  0  0
   36.7050   31.0960   39.0500 N   0  0  0  0  0  0  0  0  0  0  0  0
   38.2690   30.5660   42.0150 H   0  0  0  0  0  0  0  0  0  0  0  0
   39.2040   32.7610   41.4330 H   0  0  0  0  0  0  0  0  0  0  0  0
   36.9860   32.8390   37.8600 H   0  0  0  0  0  0  0  0  0  0  0  0
   37.4950   28.1840   40.6000 O   0  0  0  0  0  0  0  0  0  0  0  0
   37.8550   27.2060   43.3560 Cl  0  0  0  0  0  0  0  0  0  0  0  0
   37.3030   26.2270   42.0010 C   0  0  0  0  0  0  0  0  0  0  0  0
   37.1860   26.8490   40.7540 C   0  0  0  0  0  0  0  0  0  0  0  0
   36.7490   26.0780   39.6780 C   0  0  0  0  0  0  0  0  0  0  0  0
   36.6400   26.5020   38.6950 H   0  0  0  0  0  0  0  0  0  0  0  0
   36.4440   24.7340   39.8620 C   0  0  0  0  0  0  0  0  0  0  0  0
   36.1020   24.1210   39.0290 H   0  0  0  0  0  0  0  0  0  0  0  0
   36.5670   24.1370   41.1050 C   0  0  0  0  0  3  0  0  0  0  0  0
   36.9980   24.8910   42.1780 C   0  0  0  0  0  3  0  0  0  0  0  0
  1 12  1  0  0  0  0
  1  2  2  0  0  0  0
  3  1  1  0  0  0  0
  3  4  1  0  0  0  0
  4  9  1  0  0  0  0
  5  4  2  0  0  0  0
  5 10  1  0  0  0  0
  6  5  1  0  0  0  0
  7  8  1  0  0  0  0
  7  6  2  0  0  0  0
  8  3  2  0  0  0  0
 11  7  1  0  0  0  0
 12 15  1  0  0  0  0
 14 21  1  0  0  0  0
 14 13  1  0  0  0  0
 15 14  2  0  0  0  0
 16 18  2  0  0  0  0
 16 15  1  0  0  0  0
 17 16  1  0  0  0  0
 18 20  1  0  0  0  0
 19 18  1  0  0  0  0
 20 21  2  0  0  0  0
M  END
>  <minimizedAffinity>
-4.30683517

$$$$

 OpenBabel03242518293D

 21 22  0  0  0  0  0  0  0  0999 V2000
   37.2160   27.6910   43.2200 C   0  0  0  0  0  0  0  0  0  0  0  0
   36.1170   27.2700   43.6680 O   0  0  0  0  0  0  0  0  0  0  0  0
   38.3280   26.9060   42.7870 C   0  0  0  0  0  0  0  0  0  0  0  0
   39.4060   26.9160   43.6750 C   0  0  0  0  0  0  0  0  0  0  0  0
   40.5370   26.1660   43.3150 C   0  0  0  0  0  0  0  0  0  0  0  0
   40.5330   25.4810   42.1480 N   0  0  0  0  0  0  0  0  0  0  0  0
   39.4550   25.5080   41.3220 C   0  0  0  0  0  0  0  0  0  0  0  0
   38.3520   26.2180   41.6350 N   0  0  0  0  0  0  0  0  0  0  0  0
   39.4150   27.4610   44.6100 H   0  0  0  0  0  0  0  0  0  0  0  0
   41.3900   26.1470   43.9740 H   0  0  0  0  0  0  0  0  0  0  0  0
   39.5240   24.9360   40.4030 H   0  0  0  0  0  0  0  0  0  0  0  0
   37.3960   29.0620   43.1250 O   0  0  0  0  0  0  0  0  0  0  0  0
   39.8860   30.5300   42.5540 Cl  0  0  0  0  0  0  0  0  0  0  0  0
   38.4600   30.5190   41.5210 C   0  0  0  0  0  0  0  0  0  0  0  0
   37.3580   29.7680   41.9410 C   0  0  0  0  0  0  0  0  0  0  0  0
   36.2270   29.7560   41.1260 C   0  0  0  0  0  0  0  0  0  0  0  0
   35.3490   29.1960   41.3980 H   0  0  0  0  0  0  0  0  0  0  0  0
   36.2160   30.4770   39.9380 C   0  0  0  0  0  0  0  0  0  0  0  0
   35.3380   30.4770   39.2930 H   0  0  0  0  0  0  0  0  0  0  0  0
   37.3180   31.2160   39.5400 C   0  0  0  0  0  3  0  0  0  0  0  0
   38.4440   31.2340   40.3380 C   0  0  0  0  0  3  0  0  0  0  0  0
  1  2  2  0  0  0  0
  3  1  1  0  0  0  0
  3  4  1  0  0  0  0
  4  9  1  0  0  0  0
  5  4  2  0  0  0  0
  5 10  1  0  0  0  0
  6  5  1  0  0  0  0
  7  8  1  0  0  0  0
  7  6  2  0  0  0  0
  8  3  2  0  0  0  0
 11  7  1  0  0  0  0
 12  1  1  0  0  0  0
 14 15  1  0  0  0  0
 14 13  1  0  0  0  0
 15 12  1  0  0  0  0
 16 17  1  0  0  0  0
 16 15  2  0  0  0  0
 18 16  1  0  0  0  0
 19 18  1  0  0  0  0
 20 18  2  0  0  0  0
 20 21  1  0  0  0  0
 21 14  2  0  0  0  0
M  END
>  <minimizedAffinity>
-4.29316521

$$$$
