
 OpenBabel03242517283D

 40 42  0  0  1  0  0  0  0  0999 V2000
   44.9960   34.5900   44.9240 C   0  0  0  0  0  0  0  0  0  0  0  0
   45.9200   34.5750   43.8520 C   0  0  0  0  0  0  0  0  0  0  0  0
   47.0410   33.7510   43.9770 C   0  0  0  0  0  0  0  0  0  0  0  0
   47.1730   33.0230   45.1070 N   0  0  0  0  0  0  0  0  0  0  0  0
   46.2840   33.0480   46.1210 C   0  0  0  0  0  0  0  0  0  0  0  0
   45.2160   33.8330   46.0040 N   0  0  0  0  0  0  0  0  0  0  0  0
   46.5180   32.2540   47.2480 N   0  0  0  0  0  0  0  0  0  0  0  0
   47.7280   32.4160   48.0110 C   0  0  0  0  0  0  0  0  0  0  0  0
   48.0040   31.2870   48.9500 C   0  0  0  0  0  0  0  0  0  0  0  0
   46.8880   30.5880   49.4710 N   0  0  0  0  0  0  0  0  0  0  0  0
   45.6370   31.1860   49.1200 C   0  0  0  0  0  0  0  0  0  0  0  0
   45.5080   31.2550   47.6330 C   0  0  2  0  0  0  0  0  0  0  0  0
   44.1250   35.2240   44.8430 H   0  0  0  0  0  0  0  0  0  0  0  0
   45.7790   35.1730   42.9600 H   0  0  0  0  0  0  0  0  0  0  0  0
   47.7860   33.6960   43.1870 H   0  0  0  0  0  0  0  0  0  0  0  0
   47.7470   33.4170   48.5230 H   0  0  0  0  0  0  0  0  0  0  0  0
   48.5650   32.4440   47.2750 H   0  0  0  0  0  0  0  0  0  0  0  0
   48.7200   30.5570   48.5150 H   0  0  0  0  0  0  0  0  0  0  0  0
   48.5670   31.7220   49.8260 H   0  0  0  0  0  0  0  0  0  0  0  0
   46.9810   30.3430   50.4750 H   0  0  0  0  0  0  0  0  0  0  0  0
   45.4770   32.1790   49.5820 H   0  0  0  0  0  0  0  0  0  0  0  0
   44.8240   30.5430   49.5140 H   0  0  0  0  0  0  0  0  0  0  0  0
   44.5210   31.6890   47.3760 H   0  0  0  0  0  0  0  0  0  0  0  0
   45.7500   29.9400   46.9850 C   0  0  0  0  0  0  0  0  0  0  0  0
   46.7980   29.6220   47.1760 H   0  0  0  0  0  0  0  0  0  0  0  0
   45.5540   30.0000   45.8950 H   0  0  0  0  0  0  0  0  0  0  0  0
   44.7990   28.9440   47.6080 C   0  0  0  0  0  0  0  0  0  0  0  0
   45.1400   27.6620   47.7530 C   0  0  0  0  0  0  0  0  0  0  0  0
   44.2440   26.6480   48.3700 C   0  0  0  0  0  0  0  0  0  0  0  0
   43.3560   27.2270   48.7630 H   0  0  0  0  0  0  0  0  0  0  0  0
   44.7120   26.1700   49.2600 H   0  0  0  0  0  0  0  0  0  0  0  0
   45.8630   24.1480   47.4160 Cl  0  0  0  0  0  0  0  0  0  0  0  0
   44.2260   24.5150   46.8760 C   0  0  0  0  0  0  0  0  0  0  0  0
   43.7360   25.6570   47.4270 C   0  0  0  0  0  0  0  0  0  0  0  0
   42.4460   25.9840   47.0200 C   0  0  0  0  0  0  0  0  0  0  0  0
   41.8530   26.8480   47.3290 H   0  0  0  0  0  0  0  0  0  0  0  0
   41.7270   25.2000   46.1240 C   0  0  0  0  0  0  0  0  0  0  0  0
   40.7290   25.4090   45.7790 H   0  0  0  0  0  0  0  0  0  0  0  0
   42.2670   24.0500   45.5930 C   0  0  0  0  0  0  0  0  0  0  0  0
   43.5610   23.7180   45.9970 C   0  0  0  0  0  0  0  0  0  0  0  0
  1  6  1  0  0  0  0
  2  3  1  0  0  0  0
  2  1  2  0  0  0  0
  3  4  2  0  0  0  0
  4  5  1  0  0  0  0
  5  7  1  0  0  0  0
  6  5  2  0  0  0  0
  7 12  1  0  0  0  0
  7  8  1  0  0  0  0
  8 16  1  0  0  0  0
  8  9  1  0  0  0  0
  9 10  1  0  0  0  0
  9 19  1  0  0  0  0
 10 20  1  0  0  0  0
 11 10  1  0  0  0  0
 11 22  1  0  0  0  0
 11 21  1  0  0  0  0
 12 23  1  6  0  0  0
 12 11  1  0  0  0  0
 13  1  1  0  0  0  0
 14  2  1  0  0  0  0
 15  3  1  0  0  0  0
 17  8  1  0  0  0  0
 18  9  1  0  0  0  0
 24 25  1  0  0  0  0
 24 27  1  0  0  0  0
 24 12  1  0  0  0  0
 26 24  1  0  0  0  0
 27 28  2  0  0  0  0
 28 29  1  0  0  0  0
 29 30  1  0  0  0  0
 29 31  1  0  0  0  0
 33 32  1  0  0  0  0
 33 34  1  0  0  0  0
 34 29  1  0  0  0  0
 35 36  1  0  0  0  0
 35 34  2  0  0  0  0
 37 35  1  0  0  0  0
 38 37  1  0  0  0  0
 39 40  1  0  0  0  0
 39 37  2  0  0  0  0
 40 33  2  0  0  0  0
M  END
>  <minimizedAffinity>
-5.72408915

>  <minimizedRMSD>
0.787972271

$$$$
