
 OpenBabel03242517203D

 39 41  0  0  0  0  0  0  0  0999 V2000
   34.7280   29.1350   39.8850 C   0  0  0  0  0  0  0  0  0  0  0  0
   35.2560   28.7690   38.6110 C   0  0  0  0  0  0  0  0  0  0  0  0
   36.5610   28.3380   38.5310 C   0  0  0  0  0  0  0  0  0  0  0  0
   37.2500   28.2970   39.6910 N   0  0  0  0  0  0  0  0  0  0  0  0
   36.7480   28.6450   40.8930 C   0  0  0  0  0  0  0  0  0  0  0  0
   35.4880   29.0590   40.9680 N   0  0  0  0  0  0  0  0  0  0  0  0
   33.7040   29.4790   39.9760 H   0  0  0  0  0  0  0  0  0  0  0  0
   36.9880   28.0570   37.5970 H   0  0  0  0  0  0  0  0  0  0  0  0
   37.5490   28.5780   42.1230 C   0  0  0  0  0  0  0  0  0  0  0  0
   37.4260   29.4950   42.6960 H   0  0  0  0  0  0  0  0  0  0  0  0
   38.6170   28.3700   41.8320 H   0  0  0  0  0  0  0  0  0  0  0  0
   37.1020   27.3890   42.9740 C   0  0  0  0  0  0  0  0  0  0  0  0
   36.2660   26.8400   42.5480 H   0  0  0  0  0  0  0  0  0  0  0  0
   36.9250   27.7600   44.0170 H   0  0  0  0  0  0  0  0  0  0  0  0
   36.8130   24.9300   41.2950 Cl  0  0  0  0  0  0  0  0  0  0  0  0
   38.2350   25.3060   42.2420 C   0  0  0  0  0  0  0  0  0  0  0  0
   38.3040   26.4820   43.0010 C   0  0  0  0  0  0  0  0  0  0  0  0
   39.3800   26.8720   43.7790 C   0  0  0  0  0  0  0  0  0  0  0  0
   39.3190   27.8010   44.3220 H   0  0  0  0  0  0  0  0  0  0  0  0
   40.4870   26.0120   43.8020 C   0  0  0  0  0  0  0  0  0  0  0  0
   41.3330   26.3130   44.4120 H   0  0  0  0  0  0  0  0  0  0  0  0
   40.4280   24.8510   43.0580 C   0  0  0  0  0  3  0  0  0  0  0  0
   39.3470   24.4790   42.2890 C   0  0  0  0  0  3  0  0  0  0  0  0
   34.3960   28.8640   37.4120 C   0  0  0  0  0  3  0  0  0  0  0  0
   33.1040   28.9550   37.4340 C   0  0  0  0  0  3  0  0  0  0  0  0
   32.2840   29.0500   36.1900 C   0  0  0  0  0  0  0  0  0  0  0  0
   31.6160   28.1610   36.1150 H   0  0  0  0  0  0  0  0  0  0  0  0
   32.9910   28.9550   35.3410 H   0  0  0  0  0  0  0  0  0  0  0  0
   32.1100   30.6730   33.9320 F   0  0  0  0  0  0  0  0  0  0  0  0
   31.4090   31.0410   35.0200 C   0  0  0  0  0  0  0  0  0  0  0  0
   31.4730   30.2540   36.1740 C   0  0  0  0  0  0  0  0  0  0  0  0
   30.7080   30.7460   37.2180 C   0  0  0  0  0  0  0  0  0  0  0  0
   29.9240   31.8820   37.2340 C   0  0  0  0  0  0  0  0  0  0  0  0
   29.9260   32.6050   36.0270 C   0  0  0  0  0  0  0  0  0  0  0  0
   30.6470   32.2100   34.9270 C   0  0  0  0  0  0  0  0  0  0  0  0
   30.7360   30.1550   38.1340 H   0  0  0  0  0  0  0  0  0  0  0  0
   29.3740   32.1650   38.1010 H   0  0  0  0  0  0  0  0  0  0  0  0
   29.3360   33.5040   35.9660 H   0  0  0  0  0  0  0  0  0  0  0  0
   30.6310   32.7830   34.0120 H   0  0  0  0  0  0  0  0  0  0  0  0
  1  7  1  0  0  0  0
  1  6  1  0  0  0  0
  2  1  2  0  0  0  0
  3  2  1  0  0  0  0
  3  4  2  0  0  0  0
  4  5  1  0  0  0  0
  5  6  2  0  0  0  0
  5  9  1  0  0  0  0
  8  3  1  0  0  0  0
  9 10  1  0  0  0  0
  9 12  1  0  0  0  0
 11  9  1  0  0  0  0
 12 17  1  0  0  0  0
 12 14  1  0  0  0  0
 13 12  1  0  0  0  0
 15 16  1  0  0  0  0
 16 23  2  0  0  0  0
 16 17  1  0  0  0  0
 17 18  2  0  0  0  0
 18 20  1  0  0  0  0
 18 19  1  0  0  0  0
 20 21  1  0  0  0  0
 22 20  2  0  0  0  0
 23 22  1  0  0  0  0
 24 25  2  0  0  0  0
 24  2  1  0  0  0  0
 26 25  1  0  0  0  0
 27 26  1  0  0  0  0
 28 26  1  0  0  0  0
 29 30  1  0  0  0  0
 30 31  1  0  0  0  0
 31 26  1  0  0  0  0
 31 32  2  0  0  0  0
 32 33  1  0  0  0  0
 32 36  1  0  0  0  0
 33 37  1  0  0  0  0
 34 33  2  0  0  0  0
 35 30  2  0  0  0  0
 35 34  1  0  0  0  0
 38 34  1  0  0  0  0
 39 35  1  0  0  0  0
M  END
>  <minimizedAffinity>
-6.48402882

$$$$

 OpenBabel03242517203D

 39 41  0  0  0  0  0  0  0  0999 V2000
   36.2810   29.2620   38.2950 C   0  0  0  0  0  0  0  0  0  0  0  0
   35.0630   29.1000   39.0190 C   0  0  0  0  0  0  0  0  0  0  0  0
   35.0940   29.1650   40.3950 C   0  0  0  0  0  0  0  0  0  0  0  0
   36.3020   29.3810   40.9570 N   0  0  0  0  0  0  0  0  0  0  0  0
   37.4510   29.5320   40.2690 C   0  0  0  0  0  0  0  0  0  0  0  0
   37.4190   29.4700   38.9420 N   0  0  0  0  0  0  0  0  0  0  0  0
   36.2860   29.2150   37.2110 H   0  0  0  0  0  0  0  0  0  0  0  0
   34.2040   29.0490   40.9680 H   0  0  0  0  0  0  0  0  0  0  0  0
   38.7380   29.7650   40.9380 C   0  0  0  0  0  0  0  0  0  0  0  0
   39.1500   30.7240   40.6280 H   0  0  0  0  0  0  0  0  0  0  0  0
   39.4110   28.8920   40.7120 H   0  0  0  0  0  0  0  0  0  0  0  0
   38.5450   29.7700   42.4550 C   0  0  0  0  0  0  0  0  0  0  0  0
   37.5190   29.5820   42.7630 H   0  0  0  0  0  0  0  0  0  0  0  0
   38.9770   30.7240   42.8540 H   0  0  0  0  0  0  0  0  0  0  0  0
   37.0090   27.5330   43.7160 Cl  0  0  0  0  0  0  0  0  0  0  0  0
   38.7510   27.5510   43.5490 C   0  0  0  0  0  0  0  0  0  0  0  0
   39.4040   28.6320   42.9400 C   0  0  0  0  0  0  0  0  0  0  0  0
   40.7700   28.7420   42.7570 C   0  0  0  0  0  0  0  0  0  0  0  0
   41.1610   29.6230   42.2750 H   0  0  0  0  0  0  0  0  0  0  0  0
   41.5580   27.6800   43.2230 C   0  0  0  0  0  0  0  0  0  0  0  0
   42.6310   27.7620   43.0830 H   0  0  0  0  0  0  0  0  0  0  0  0
   40.9230   26.6110   43.8240 C   0  0  0  0  0  3  0  0  0  0  0  0
   39.5590   26.5190   43.9980 C   0  0  0  0  0  3  0  0  0  0  0  0
   33.8030   28.8640   38.2830 C   0  0  0  0  0  3  0  0  0  0  0  0
   33.6430   29.0580   37.0120 C   0  0  0  0  0  3  0  0  0  0  0  0
   32.3450   28.8010   36.3180 C   0  0  0  0  0  0  0  0  0  0  0  0
   31.6600   28.2500   37.0010 H   0  0  0  0  0  0  0  0  0  0  0  0
   32.5670   28.0910   35.4940 H   0  0  0  0  0  0  0  0  0  0  0  0
   30.7470   30.2810   38.0530 F   0  0  0  0  0  0  0  0  0  0  0  0
   30.9130   30.7530   36.8040 C   0  0  0  0  0  0  0  0  0  0  0  0
   31.7070   30.0370   35.9020 C   0  0  0  0  0  0  0  0  0  0  0  0
   31.7930   30.6290   34.6540 C   0  0  0  0  0  0  0  0  0  0  0  0
   31.2040   31.8030   34.2290 C   0  0  0  0  0  0  0  0  0  0  0  0
   30.4270   32.4490   35.2080 C   0  0  0  0  0  0  0  0  0  0  0  0
   30.2710   31.9510   36.4780 C   0  0  0  0  0  0  0  0  0  0  0  0
   32.4050   30.0950   33.9260 H   0  0  0  0  0  0  0  0  0  0  0  0
   31.3410   32.1660   33.2380 H   0  0  0  0  0  0  0  0  0  0  0  0
   29.9360   33.3710   34.9480 H   0  0  0  0  0  0  0  0  0  0  0  0
   29.6690   32.4680   37.2120 H   0  0  0  0  0  0  0  0  0  0  0  0
  1  6  2  0  0  0  0
  1  2  1  0  0  0  0
  2  3  2  0  0  0  0
  3  4  1  0  0  0  0
  3  8  1  0  0  0  0
  5  9  1  0  0  0  0
  5  4  2  0  0  0  0
  6  5  1  0  0  0  0
  7  1  1  0  0  0  0
  9 12  1  0  0  0  0
 10  9  1  0  0  0  0
 11  9  1  0  0  0  0
 12 13  1  0  0  0  0
 12 14  1  0  0  0  0
 12 17  1  0  0  0  0
 16 15  1  0  0  0  0
 16 23  1  0  0  0  0
 17 16  2  0  0  0  0
 18 17  1  0  0  0  0
 18 20  2  0  0  0  0
 19 18  1  0  0  0  0
 20 22  1  0  0  0  0
 21 20  1  0  0  0  0
 22 23  2  0  0  0  0
 24  2  1  0  0  0  0
 25 24  2  0  0  0  0
 26 27  1  0  0  0  0
 26 25  1  0  0  0  0
 28 26  1  0  0  0  0
 30 29  1  0  0  0  0
 31 26  1  0  0  0  0
 31 30  2  0  0  0  0
 32 31  1  0  0  0  0
 33 32  2  0  0  0  0
 33 34  1  0  0  0  0
 34 35  2  0  0  0  0
 35 30  1  0  0  0  0
 35 39  1  0  0  0  0
 36 32  1  0  0  0  0
 37 33  1  0  0  0  0
 38 34  1  0  0  0  0
M  END
>  <minimizedAffinity>
-6.41242552

$$$$

 OpenBabel03242517203D

 39 41  0  0  0  0  0  0  0  0999 V2000
   35.9910   27.3190   38.8450 C   0  0  0  0  0  0  0  0  0  0  0  0
   35.2350   28.5150   39.0270 C   0  0  0  0  0  0  0  0  0  0  0  0
   35.2080   29.1010   40.2720 C   0  0  0  0  0  0  0  0  0  0  0  0
   35.9140   28.4820   41.2410 N   0  0  0  0  0  0  0  0  0  0  0  0
   36.6260   27.3510   41.0660 C   0  0  0  0  0  0  0  0  0  0  0  0
   36.6520   26.7870   39.8630 N   0  0  0  0  0  0  0  0  0  0  0  0
   36.0290   26.8350   37.8750 H   0  0  0  0  0  0  0  0  0  0  0  0
   34.6540   29.9950   40.4440 H   0  0  0  0  0  0  0  0  0  0  0  0
   37.3770   26.7230   42.1620 C   0  0  0  0  0  0  0  0  0  0  0  0
   38.3100   26.3100   41.7840 H   0  0  0  0  0  0  0  0  0  0  0  0
   36.7090   25.9550   42.6450 H   0  0  0  0  0  0  0  0  0  0  0  0
   37.6860   27.7570   43.2440 C   0  0  0  0  0  0  0  0  0  0  0  0
   37.2620   27.5120   44.2140 H   0  0  0  0  0  0  0  0  0  0  0  0
   37.3870   28.7640   42.8520 H   0  0  0  0  0  0  0  0  0  0  0  0
   39.0450   30.1230   42.0170 Cl  0  0  0  0  0  0  0  0  0  0  0  0
   39.8910   28.8070   42.8010 C   0  0  0  0  0  0  0  0  0  0  0  0
   39.1880   27.7320   43.3600 C   0  0  0  0  0  0  0  0  0  0  0  0
   39.7600   26.6480   44.0010 C   0  0  0  0  0  0  0  0  0  0  0  0
   39.1160   25.8770   44.3930 H   0  0  0  0  0  0  0  0  0  0  0  0
   41.1580   26.6330   44.0940 C   0  0  0  0  0  0  0  0  0  0  0  0
   41.6120   25.7840   44.5940 H   0  0  0  0  0  0  0  0  0  0  0  0
   41.8600   27.6880   43.5450 C   0  0  0  0  0  3  0  0  0  0  0  0
   41.2730   28.7610   42.9090 C   0  0  0  0  0  3  0  0  0  0  0  0
   34.4990   29.0920   37.8820 C   0  0  0  0  0  3  0  0  0  0  0  0
   33.2560   28.8520   37.6060 C   0  0  0  0  0  3  0  0  0  0  0  0
   32.5600   29.4650   36.4350 C   0  0  0  0  0  0  0  0  0  0  0  0
   32.2360   28.6630   35.7330 H   0  0  0  0  0  0  0  0  0  0  0  0
   33.3290   30.0420   35.8810 H   0  0  0  0  0  0  0  0  0  0  0  0
   31.5950   31.5880   34.9110 F   0  0  0  0  0  0  0  0  0  0  0  0
   30.9430   31.2920   36.0500 C   0  0  0  0  0  0  0  0  0  0  0  0
   31.3990   30.2350   36.8440 C   0  0  0  0  0  0  0  0  0  0  0  0
   30.6420   30.0390   37.9870 C   0  0  0  0  0  0  0  0  0  0  0  0
   29.5330   30.7480   38.4010 C   0  0  0  0  0  0  0  0  0  0  0  0
   29.1540   31.7890   37.5360 C   0  0  0  0  0  0  0  0  0  0  0  0
   29.8320   32.0740   36.3760 C   0  0  0  0  0  0  0  0  0  0  0  0
   30.9710   29.2210   38.6290 H   0  0  0  0  0  0  0  0  0  0  0  0
   29.0260   30.5060   39.3060 H   0  0  0  0  0  0  0  0  0  0  0  0
   28.2960   32.3870   37.7960 H   0  0  0  0  0  0  0  0  0  0  0  0
   29.5190   32.8800   35.7280 H   0  0  0  0  0  0  0  0  0  0  0  0
  1  2  2  0  0  0  0
  1  6  1  0  0  0  0
  2  3  1  0  0  0  0
  3  8  1  0  0  0  0
  3  4  2  0  0  0  0
  5  4  1  0  0  0  0
  5  9  1  0  0  0  0
  6  5  2  0  0  0  0
  7  1  1  0  0  0  0
  9 11  1  0  0  0  0
  9 12  1  0  0  0  0
 10  9  1  0  0  0  0
 12 17  1  0  0  0  0
 12 13  1  0  0  0  0
 14 12  1  0  0  0  0
 15 16  1  0  0  0  0
 16 23  2  0  0  0  0
 16 17  1  0  0  0  0
 17 18  2  0  0  0  0
 18 20  1  0  0  0  0
 18 19  1  0  0  0  0
 20 21  1  0  0  0  0
 22 20  2  0  0  0  0
 23 22  1  0  0  0  0
 24  2  1  0  0  0  0
 25 24  2  0  0  0  0
 26 31  1  0  0  0  0
 26 25  1  0  0  0  0
 27 26  1  0  0  0  0
 28 26  1  0  0  0  0
 29 30  1  0  0  0  0
 30 35  2  0  0  0  0
 30 31  1  0  0  0  0
 31 32  2  0  0  0  0
 32 33  1  0  0  0  0
 32 36  1  0  0  0  0
 33 37  1  0  0  0  0
 34 38  1  0  0  0  0
 34 33  2  0  0  0  0
 35 34  1  0  0  0  0
 39 35  1  0  0  0  0
M  END
>  <minimizedAffinity>
-6.39558315

$$$$

 OpenBabel03242517203D

 39 41  0  0  0  0  0  0  0  0999 V2000
   39.2560   31.2440   41.2830 C   0  0  0  0  0  0  0  0  0  0  0  0
   37.9220   30.9140   40.9000 C   0  0  0  0  0  0  0  0  0  0  0  0
   37.1280   31.8940   40.3480 C   0  0  0  0  0  0  0  0  0  0  0  0
   37.6890   33.1140   40.2100 N   0  0  0  0  0  0  0  0  0  0  0  0
   38.9500   33.4210   40.5740 C   0  0  0  0  0  0  0  0  0  0  0  0
   39.7150   32.4750   41.1070 N   0  0  0  0  0  0  0  0  0  0  0  0
   39.9030   30.4920   41.7220 H   0  0  0  0  0  0  0  0  0  0  0  0
   36.1270   31.6830   40.0500 H   0  0  0  0  0  0  0  0  0  0  0  0
   39.5060   34.7700   40.3990 C   0  0  0  0  0  0  0  0  0  0  0  0
   39.8170   35.1710   41.3620 H   0  0  0  0  0  0  0  0  0  0  0  0
   38.7320   35.4010   39.8790 H   0  0  0  0  0  0  0  0  0  0  0  0
   40.7120   34.7200   39.4620 C   0  0  0  0  0  0  0  0  0  0  0  0
   40.7500   35.5470   38.7570 H   0  0  0  0  0  0  0  0  0  0  0  0
   40.7350   33.7070   38.9840 H   0  0  0  0  0  0  0  0  0  0  0  0
   42.9230   32.8080   38.8260 Cl  0  0  0  0  0  0  0  0  0  0  0  0
   42.9720   33.9540   40.1470 C   0  0  0  0  0  0  0  0  0  0  0  0
   41.8990   34.8260   40.3830 C   0  0  0  0  0  0  0  0  0  0  0  0
   41.8410   35.7670   41.3950 C   0  0  0  0  0  0  0  0  0  0  0  0
   40.9610   36.3850   41.4800 H   0  0  0  0  0  0  0  0  0  0  0  0
   42.9490   35.8470   42.2500 C   0  0  0  0  0  0  0  0  0  0  0  0
   42.9070   36.5830   43.0460 H   0  0  0  0  0  0  0  0  0  0  0  0
   44.0090   34.9920   42.0250 C   0  0  0  0  0  3  0  0  0  0  0  0
   44.0510   34.0590   41.0110 C   0  0  0  0  0  3  0  0  0  0  0  0
   37.4240   29.5380   41.1080 C   0  0  0  0  0  3  0  0  0  0  0  0
   37.1220   29.0280   42.2600 C   0  0  0  0  0  3  0  0  0  0  0  0
   36.6200   27.6290   42.4130 C   0  0  0  0  0  0  0  0  0  0  0  0
   36.1160   27.3090   41.4720 H   0  0  0  0  0  0  0  0  0  0  0  0
   35.8160   27.6670   43.1760 H   0  0  0  0  0  0  0  0  0  0  0  0
   36.5900   24.9990   41.4960 F   0  0  0  0  0  0  0  0  0  0  0  0
   37.6480   25.3910   42.2290 C   0  0  0  0  0  0  0  0  0  0  0  0
   37.6990   26.7030   42.7100 C   0  0  0  0  0  0  0  0  0  0  0  0
   38.8370   26.9740   43.4500 C   0  0  0  0  0  0  0  0  0  0  0  0
   39.8800   26.1200   43.7460 C   0  0  0  0  0  0  0  0  0  0  0  0
   39.7360   24.8240   43.2170 C   0  0  0  0  0  0  0  0  0  0  0  0
   38.6490   24.4450   42.4690 C   0  0  0  0  0  0  0  0  0  0  0  0
   38.9070   27.9900   43.8410 H   0  0  0  0  0  0  0  0  0  0  0  0
   40.7110   26.4400   44.3280 H   0  0  0  0  0  0  0  0  0  0  0  0
   40.5120   24.1020   43.4080 H   0  0  0  0  0  0  0  0  0  0  0  0
   38.5630   23.4430   42.0740 H   0  0  0  0  0  0  0  0  0  0  0  0
  1  7  1  0  0  0  0
  2 24  1  0  0  0  0
  2  1  2  0  0  0  0
  3  2  1  0  0  0  0
  4  3  2  0  0  0  0
  4  5  1  0  0  0  0
  5  6  2  0  0  0  0
  6  1  1  0  0  0  0
  8  3  1  0  0  0  0
  9  5  1  0  0  0  0
  9 10  1  0  0  0  0
 11  9  1  0  0  0  0
 12 17  1  0  0  0  0
 12  9  1  0  0  0  0
 13 12  1  0  0  0  0
 14 12  1  0  0  0  0
 15 16  1  0  0  0  0
 16 17  2  0  0  0  0
 16 23  1  0  0  0  0
 17 18  1  0  0  0  0
 18 19  1  0  0  0  0
 18 20  2  0  0  0  0
 20 21  1  0  0  0  0
 22 20  1  0  0  0  0
 23 22  2  0  0  0  0
 24 25  2  0  0  0  0
 25 26  1  0  0  0  0
 26 31  1  0  0  0  0
 26 28  1  0  0  0  0
 27 26  1  0  0  0  0
 29 30  1  0  0  0  0
 30 35  2  0  0  0  0
 30 31  1  0  0  0  0
 31 32  2  0  0  0  0
 32 33  1  0  0  0  0
 32 36  1  0  0  0  0
 33 37  1  0  0  0  0
 34 38  1  0  0  0  0
 34 33  2  0  0  0  0
 35 34  1  0  0  0  0
 39 35  1  0  0  0  0
M  END
>  <minimizedAffinity>
-6.38557816

$$$$

 OpenBabel03242517203D

 39 41  0  0  0  0  0  0  0  0999 V2000
   34.5190   29.0880   39.7900 C   0  0  0  0  0  0  0  0  0  0  0  0
   35.9110   29.3980   39.8040 C   0  0  0  0  0  0  0  0  0  0  0  0
   36.5730   29.5410   38.6040 C   0  0  0  0  0  0  0  0  0  0  0  0
   35.8330   29.3730   37.4880 N   0  0  0  0  0  0  0  0  0  0  0  0
   34.5180   29.0780   37.4790 C   0  0  0  0  0  0  0  0  0  0  0  0
   33.8800   28.9410   38.6370 N   0  0  0  0  0  0  0  0  0  0  0  0
   33.9740   28.9680   40.7190 H   0  0  0  0  0  0  0  0  0  0  0  0
   37.6120   29.7730   38.5780 H   0  0  0  0  0  0  0  0  0  0  0  0
   33.7640   28.9070   36.2290 C   0  0  0  0  0  0  0  0  0  0  0  0
   34.1060   28.0130   35.7100 H   0  0  0  0  0  0  0  0  0  0  0  0
   33.8770   29.8490   35.6230 H   0  0  0  0  0  0  0  0  0  0  0  0
   32.2720   28.7720   36.5320 C   0  0  0  0  0  0  0  0  0  0  0  0
   32.0510   28.6770   37.5930 H   0  0  0  0  0  0  0  0  0  0  0  0
   31.8670   27.9380   35.9010 H   0  0  0  0  0  0  0  0  0  0  0  0
   30.5330   30.1620   38.5300 Cl  0  0  0  0  0  0  0  0  0  0  0  0
   30.8440   30.7650   36.9170 C   0  0  0  0  0  0  0  0  0  0  0  0
   31.6760   30.0620   36.0350 C   0  0  0  0  0  0  0  0  0  0  0  0
   31.9870   30.4530   34.7450 C   0  0  0  0  0  0  0  0  0  0  0  0
   32.6400   29.8300   34.1560 H   0  0  0  0  0  0  0  0  0  0  0  0
   31.4170   31.6510   34.2920 C   0  0  0  0  0  0  0  0  0  0  0  0
   31.6560   31.9610   33.2800 H   0  0  0  0  0  0  0  0  0  0  0  0
   30.5960   32.3500   35.1550 C   0  0  0  0  0  3  0  0  0  0  0  0
   30.2970   31.9450   36.4380 C   0  0  0  0  0  3  0  0  0  0  0  0
   36.6100   29.5530   41.0970 C   0  0  0  0  0  3  0  0  0  0  0  0
   36.7580   28.6110   41.9750 C   0  0  0  0  0  3  0  0  0  0  0  0
   37.4760   28.8230   43.2680 C   0  0  0  0  0  0  0  0  0  0  0  0
   36.8630   28.4170   44.1040 H   0  0  0  0  0  0  0  0  0  0  0  0
   37.5040   29.9200   43.4330 H   0  0  0  0  0  0  0  0  0  0  0  0
   39.7420   30.0630   42.2260 F   0  0  0  0  0  0  0  0  0  0  0  0
   39.8890   28.8300   42.7420 C   0  0  0  0  0  0  0  0  0  0  0  0
   38.7740   28.1730   43.2720 C   0  0  0  0  0  0  0  0  0  0  0  0
   39.0620   26.9120   43.7680 C   0  0  0  0  0  0  0  0  0  0  0  0
   40.2830   26.2690   43.7920 C   0  0  0  0  0  0  0  0  0  0  0  0
   41.3400   27.0110   43.2360 C   0  0  0  0  0  0  0  0  0  0  0  0
   41.1700   28.2700   42.7160 C   0  0  0  0  0  0  0  0  0  0  0  0
   38.2130   26.3730   44.1890 H   0  0  0  0  0  0  0  0  0  0  0  0
   40.3870   25.2920   44.2020 H   0  0  0  0  0  0  0  0  0  0  0  0
   42.3230   26.5710   43.2200 H   0  0  0  0  0  0  0  0  0  0  0  0
   42.0000   28.8190   42.2950 H   0  0  0  0  0  0  0  0  0  0  0  0
  1  2  1  0  0  0  0
  1  7  1  0  0  0  0
  2 24  1  0  0  0  0
  3  2  2  0  0  0  0
  4  3  1  0  0  0  0
  5  4  2  0  0  0  0
  5  6  1  0  0  0  0
  6  1  2  0  0  0  0
  8  3  1  0  0  0  0
  9 12  1  0  0  0  0
  9  5  1  0  0  0  0
 10  9  1  0  0  0  0
 11  9  1  0  0  0  0
 12 13  1  0  0  0  0
 14 12  1  0  0  0  0
 16 15  1  0  0  0  0
 17 12  1  0  0  0  0
 17 16  2  0  0  0  0
 18 17  1  0  0  0  0
 19 18  1  0  0  0  0
 20 18  2  0  0  0  0
 20 22  1  0  0  0  0
 21 20  1  0  0  0  0
 22 23  2  0  0  0  0
 23 16  1  0  0  0  0
 24 25  2  0  0  0  0
 25 26  1  0  0  0  0
 26 31  1  0  0  0  0
 26 28  1  0  0  0  0
 26 27  1  0  0  0  0
 29 30  1  0  0  0  0
 30 31  1  0  0  0  0
 31 32  2  0  0  0  0
 32 33  1  0  0  0  0
 32 36  1  0  0  0  0
 33 37  1  0  0  0  0
 34 33  2  0  0  0  0
 35 30  2  0  0  0  0
 35 34  1  0  0  0  0
 38 34  1  0  0  0  0
 39 35  1  0  0  0  0
M  END
>  <minimizedAffinity>
-6.2475152

$$$$

 OpenBabel03242517203D

 39 41  0  0  0  0  0  0  0  0999 V2000
   38.7680   30.3190   39.7520 C   0  0  0  0  0  0  0  0  0  0  0  0
   38.2080   31.6080   39.9890 C   0  0  0  0  0  0  0  0  0  0  0  0
   36.9920   31.6980   40.6300 C   0  0  0  0  0  0  0  0  0  0  0  0
   36.4170   30.5310   40.9880 N   0  0  0  0  0  0  0  0  0  0  0  0
   36.9490   29.3130   40.7610 C   0  0  0  0  0  0  0  0  0  0  0  0
   38.1220   29.2290   40.1430 N   0  0  0  0  0  0  0  0  0  0  0  0
   39.7230   30.2190   39.2490 H   0  0  0  0  0  0  0  0  0  0  0  0
   36.5450   32.6450   40.8240 H   0  0  0  0  0  0  0  0  0  0  0  0
   36.2730   28.0760   41.1760 C   0  0  0  0  0  0  0  0  0  0  0  0
   36.5690   27.2560   40.5240 H   0  0  0  0  0  0  0  0  0  0  0  0
   35.1640   28.2700   41.1790 H   0  0  0  0  0  0  0  0  0  0  0  0
   36.6490   27.7330   42.6170 C   0  0  0  0  0  0  0  0  0  0  0  0
   35.7940   27.4910   43.2430 H   0  0  0  0  0  0  0  0  0  0  0  0
   37.2890   28.5650   43.0130 H   0  0  0  0  0  0  0  0  0  0  0  0
   39.5430   28.2070   43.2130 Cl  0  0  0  0  0  0  0  0  0  0  0  0
   38.8800   26.6540   42.7510 C   0  0  0  0  0  0  0  0  0  0  0  0
   37.5110   26.5050   42.4920 C   0  0  0  0  0  0  0  0  0  0  0  0
   36.8900   25.3250   42.1240 C   0  0  0  0  0  0  0  0  0  0  0  0
   35.8260   25.3300   41.9500 H   0  0  0  0  0  0  0  0  0  0  0  0
   37.7060   24.1910   42.0020 C   0  0  0  0  0  0  0  0  0  0  0  0
   37.2240   23.2640   41.7120 H   0  0  0  0  0  0  0  0  0  0  0  0
   39.0560   24.3300   42.2540 C   0  0  0  0  0  3  0  0  0  0  0  0
   39.6590   25.5140   42.6200 C   0  0  0  0  0  3  0  0  0  0  0  0
   38.9380   32.8130   39.5420 C   0  0  0  0  0  3  0  0  0  0  0  0
   39.5600   33.6350   40.3270 C   0  0  0  0  0  3  0  0  0  0  0  0
   40.2850   34.8380   39.8200 C   0  0  0  0  0  0  0  0  0  0  0  0
   40.3590   35.5980   40.6310 H   0  0  0  0  0  0  0  0  0  0  0  0
   39.6300   35.2970   39.0510 H   0  0  0  0  0  0  0  0  0  0  0  0
   42.3930   34.4550   41.5990 F   0  0  0  0  0  0  0  0  0  0  0  0
   42.6540   34.3170   40.2870 C   0  0  0  0  0  0  0  0  0  0  0  0
   41.6220   34.5050   39.3610 C   0  0  0  0  0  0  0  0  0  0  0  0
   42.0240   34.3360   38.0470 C   0  0  0  0  0  0  0  0  0  0  0  0
   43.2820   34.0150   37.5800 C   0  0  0  0  0  0  0  0  0  0  0  0
   44.2500   33.8470   38.5870 C   0  0  0  0  0  0  0  0  0  0  0  0
   43.9630   33.9900   39.9220 C   0  0  0  0  0  0  0  0  0  0  0  0
   41.2420   34.4760   37.3000 H   0  0  0  0  0  0  0  0  0  0  0  0
   43.4770   33.9100   36.5380 H   0  0  0  0  0  0  0  0  0  0  0  0
   45.2560   33.5950   38.2960 H   0  0  0  0  0  0  0  0  0  0  0  0
   44.7250   33.8550   40.6760 H   0  0  0  0  0  0  0  0  0  0  0  0
  1  2  2  0  0  0  0
  1  6  1  0  0  0  0
  2  3  1  0  0  0  0
  3  8  1  0  0  0  0
  3  4  2  0  0  0  0
  5  4  1  0  0  0  0
  5  9  1  0  0  0  0
  6  5  2  0  0  0  0
  7  1  1  0  0  0  0
  9 11  1  0  0  0  0
  9 12  1  0  0  0  0
 10  9  1  0  0  0  0
 12 14  1  0  0  0  0
 12 13  1  0  0  0  0
 16 15  1  0  0  0  0
 17 12  1  0  0  0  0
 17 16  2  0  0  0  0
 18 17  1  0  0  0  0
 19 18  1  0  0  0  0
 20 18  2  0  0  0  0
 20 22  1  0  0  0  0
 21 20  1  0  0  0  0
 22 23  2  0  0  0  0
 23 16  1  0  0  0  0
 24  2  1  0  0  0  0
 24 25  2  0  0  0  0
 26 25  1  0  0  0  0
 26 27  1  0  0  0  0
 28 26  1  0  0  0  0
 30 29  1  0  0  0  0
 31 26  1  0  0  0  0
 31 30  2  0  0  0  0
 32 31  1  0  0  0  0
 33 32  2  0  0  0  0
 33 34  1  0  0  0  0
 34 35  2  0  0  0  0
 35 30  1  0  0  0  0
 35 39  1  0  0  0  0
 36 32  1  0  0  0  0
 37 33  1  0  0  0  0
 38 34  1  0  0  0  0
M  END
>  <minimizedAffinity>
-5.93416977

$$$$

 OpenBabel03242517203D

 39 41  0  0  0  0  0  0  0  0999 V2000
   40.7530   31.2070   41.6460 C   0  0  0  0  0  0  0  0  0  0  0  0
   39.3410   31.2600   41.4580 C   0  0  0  0  0  0  0  0  0  0  0  0
   38.7930   32.3630   40.8420 C   0  0  0  0  0  0  0  0  0  0  0  0
   39.6570   33.3260   40.4590 N   0  0  0  0  0  0  0  0  0  0  0  0
   40.9920   33.2730   40.6390 C   0  0  0  0  0  0  0  0  0  0  0  0
   41.5190   32.2070   41.2330 N   0  0  0  0  0  0  0  0  0  0  0  0
   41.2110   30.3510   42.1280 H   0  0  0  0  0  0  0  0  0  0  0  0
   37.7410   32.4360   40.6850 H   0  0  0  0  0  0  0  0  0  0  0  0
   41.8830   34.3550   40.1990 C   0  0  0  0  0  0  0  0  0  0  0  0
   42.9160   34.1040   40.4360 H   0  0  0  0  0  0  0  0  0  0  0  0
   41.5310   35.3110   40.6770 H   0  0  0  0  0  0  0  0  0  0  0  0
   41.7500   34.5600   38.6900 C   0  0  0  0  0  0  0  0  0  0  0  0
   41.9660   35.5770   38.3690 H   0  0  0  0  0  0  0  0  0  0  0  0
   40.7410   34.1840   38.3790 H   0  0  0  0  0  0  0  0  0  0  0  0
   40.6150   32.2150   37.2210 Cl  0  0  0  0  0  0  0  0  0  0  0  0
   42.3280   32.5190   37.4020 C   0  0  0  0  0  0  0  0  0  0  0  0
   42.7890   33.6440   38.1000 C   0  0  0  0  0  0  0  0  0  0  0  0
   44.1180   33.9750   38.2960 C   0  0  0  0  0  0  0  0  0  0  0  0
   44.3540   34.8680   38.8520 H   0  0  0  0  0  0  0  0  0  0  0  0
   45.0740   33.1080   37.7490 C   0  0  0  0  0  0  0  0  0  0  0  0
   46.1170   33.3630   37.9020 H   0  0  0  0  0  0  0  0  0  0  0  0
   44.6290   31.9970   37.0600 C   0  0  0  0  0  3  0  0  0  0  0  0
   43.3000   31.6820   36.8740 C   0  0  0  0  0  3  0  0  0  0  0  0
   38.5000   30.1380   41.9290 C   0  0  0  0  0  3  0  0  0  0  0  0
   38.6100   29.5680   43.0870 C   0  0  0  0  0  3  0  0  0  0  0  0
   37.7320   28.4370   43.5120 C   0  0  0  0  0  0  0  0  0  0  0  0
   36.7880   28.4570   42.9220 H   0  0  0  0  0  0  0  0  0  0  0  0
   37.4280   28.6540   44.5570 H   0  0  0  0  0  0  0  0  0  0  0  0
   36.6520   26.4780   41.8540 F   0  0  0  0  0  0  0  0  0  0  0  0
   37.8100   26.1960   42.4770 C   0  0  0  0  0  0  0  0  0  0  0  0
   38.3830   27.1530   43.3210 C   0  0  0  0  0  0  0  0  0  0  0  0
   39.5690   26.7360   43.9010 C   0  0  0  0  0  0  0  0  0  0  0  0
   40.2140   25.5270   43.7360 C   0  0  0  0  0  0  0  0  0  0  0  0
   39.5600   24.6340   42.8700 C   0  0  0  0  0  0  0  0  0  0  0  0
   38.3790   24.9410   42.2410 C   0  0  0  0  0  0  0  0  0  0  0  0
   40.0420   27.4600   44.5650 H   0  0  0  0  0  0  0  0  0  0  0  0
   41.1300   25.3150   44.2360 H   0  0  0  0  0  0  0  0  0  0  0  0
   40.0060   23.6690   42.6940 H   0  0  0  0  0  0  0  0  0  0  0  0
   37.8970   24.2360   41.5790 H   0  0  0  0  0  0  0  0  0  0  0  0
  1  7  1  0  0  0  0
  2  1  1  0  0  0  0
  2 24  1  0  0  0  0
  3  2  2  0  0  0  0
  4  5  2  0  0  0  0
  4  3  1  0  0  0  0
  5  6  1  0  0  0  0
  6  1  2  0  0  0  0
  8  3  1  0  0  0  0
  9 10  1  0  0  0  0
  9  5  1  0  0  0  0
  9 11  1  0  0  0  0
 12  9  1  0  0  0  0
 13 12  1  0  0  0  0
 14 12  1  0  0  0  0
 15 16  1  0  0  0  0
 16 17  1  0  0  0  0
 17 18  2  0  0  0  0
 17 12  1  0  0  0  0
 18 19  1  0  0  0  0
 20 21  1  0  0  0  0
 20 18  1  0  0  0  0
 22 20  2  0  0  0  0
 23 22  1  0  0  0  0
 23 16  2  0  0  0  0
 24 25  2  0  0  0  0
 25 26  1  0  0  0  0
 26 28  1  0  0  0  0
 27 26  1  0  0  0  0
 29 30  1  0  0  0  0
 30 31  1  0  0  0  0
 31 26  1  0  0  0  0
 31 32  2  0  0  0  0
 32 36  1  0  0  0  0
 33 32  1  0  0  0  0
 33 37  1  0  0  0  0
 34 33  2  0  0  0  0
 35 30  2  0  0  0  0
 35 34  1  0  0  0  0
 38 34  1  0  0  0  0
 39 35  1  0  0  0  0
M  END
>  <minimizedAffinity>
-5.89287519

$$$$

 OpenBabel03242517203D

 39 41  0  0  0  0  0  0  0  0999 V2000
   36.1030   27.4910   38.7150 C   0  0  0  0  0  0  0  0  0  0  0  0
   35.1880   28.5820   38.7850 C   0  0  0  0  0  0  0  0  0  0  0  0
   34.9720   29.1920   40.0010 C   0  0  0  0  0  0  0  0  0  0  0  0
   35.6590   28.6940   41.0510 N   0  0  0  0  0  0  0  0  0  0  0  0
   36.5220   27.6610   40.9810 C   0  0  0  0  0  0  0  0  0  0  0  0
   36.7300   27.0750   39.8070 N   0  0  0  0  0  0  0  0  0  0  0  0
   36.2910   26.9920   37.7710 H   0  0  0  0  0  0  0  0  0  0  0  0
   34.2960   30.0100   40.0900 H   0  0  0  0  0  0  0  0  0  0  0  0
   37.2420   27.1630   42.1610 C   0  0  0  0  0  0  0  0  0  0  0  0
   38.2190   26.7830   41.8670 H   0  0  0  0  0  0  0  0  0  0  0  0
   36.5930   26.3940   42.6660 H   0  0  0  0  0  0  0  0  0  0  0  0
   37.4280   28.2920   43.1740 C   0  0  0  0  0  0  0  0  0  0  0  0
   37.4030   27.9570   44.2090 H   0  0  0  0  0  0  0  0  0  0  0  0
   36.6850   29.0970   42.9340 H   0  0  0  0  0  0  0  0  0  0  0  0
   39.6520   26.4750   44.0130 Cl  0  0  0  0  0  0  0  0  0  0  0  0
   39.8950   28.0320   43.2530 C   0  0  0  0  0  0  0  0  0  0  0  0
   38.8040   28.8290   42.8810 C   0  0  0  0  0  0  0  0  0  0  0  0
   38.8890   30.0700   42.2740 C   0  0  0  0  0  0  0  0  0  0  0  0
   37.9780   30.5940   42.0330 H   0  0  0  0  0  0  0  0  0  0  0  0
   40.1760   30.5610   42.0160 C   0  0  0  0  0  0  0  0  0  0  0  0
   40.2470   31.5340   41.5410 H   0  0  0  0  0  0  0  0  0  0  0  0
   41.2560   29.7830   42.3800 C   0  0  0  0  0  3  0  0  0  0  0  0
   41.1530   28.5490   42.9850 C   0  0  0  0  0  3  0  0  0  0  0  0
   34.4930   29.0300   37.5600 C   0  0  0  0  0  3  0  0  0  0  0  0
   33.2160   28.9430   37.3600 C   0  0  0  0  0  3  0  0  0  0  0  0
   32.5650   29.4130   36.1010 C   0  0  0  0  0  0  0  0  0  0  0  0
   32.4340   28.5530   35.4060 H   0  0  0  0  0  0  0  0  0  0  0  0
   33.2960   30.0810   35.6020 H   0  0  0  0  0  0  0  0  0  0  0  0
   30.2750   27.8670   36.4510 F   0  0  0  0  0  0  0  0  0  0  0  0
   30.1430   29.2040   36.5330 C   0  0  0  0  0  0  0  0  0  0  0  0
   31.2690   30.0140   36.3600 C   0  0  0  0  0  0  0  0  0  0  0  0
   30.9950   31.3670   36.4670 C   0  0  0  0  0  0  0  0  0  0  0  0
   29.7780   31.9690   36.7170 C   0  0  0  0  0  0  0  0  0  0  0  0
   28.7080   31.0700   36.8760 C   0  0  0  0  0  0  0  0  0  0  0  0
   28.8650   29.7080   36.7900 C   0  0  0  0  0  0  0  0  0  0  0  0
   31.8530   32.0280   36.3370 H   0  0  0  0  0  0  0  0  0  0  0  0
   29.6850   33.0280   36.7790 H   0  0  0  0  0  0  0  0  0  0  0  0
   27.7270   31.4690   37.0740 H   0  0  0  0  0  0  0  0  0  0  0  0
   28.0260   29.0400   36.9170 H   0  0  0  0  0  0  0  0  0  0  0  0
  1  2  2  0  0  0  0
  1  6  1  0  0  0  0
  2  3  1  0  0  0  0
  3  8  1  0  0  0  0
  3  4  2  0  0  0  0
  5  4  1  0  0  0  0
  5  9  1  0  0  0  0
  6  5  2  0  0  0  0
  7  1  1  0  0  0  0
  9 11  1  0  0  0  0
  9 12  1  0  0  0  0
 10  9  1  0  0  0  0
 12 13  1  0  0  0  0
 14 12  1  0  0  0  0
 16 15  1  0  0  0  0
 17 12  1  0  0  0  0
 17 16  2  0  0  0  0
 18 17  1  0  0  0  0
 19 18  1  0  0  0  0
 20 18  2  0  0  0  0
 20 22  1  0  0  0  0
 21 20  1  0  0  0  0
 22 23  2  0  0  0  0
 23 16  1  0  0  0  0
 24  2  1  0  0  0  0
 25 24  2  0  0  0  0
 26 31  1  0  0  0  0
 26 25  1  0  0  0  0
 27 26  1  0  0  0  0
 28 26  1  0  0  0  0
 29 30  1  0  0  0  0
 30 35  1  0  0  0  0
 31 32  1  0  0  0  0
 31 30  2  0  0  0  0
 32 33  2  0  0  0  0
 33 37  1  0  0  0  0
 33 34  1  0  0  0  0
 34 38  1  0  0  0  0
 35 34  2  0  0  0  0
 35 39  1  0  0  0  0
 36 32  1  0  0  0  0
M  END
>  <minimizedAffinity>
-5.74370241

$$$$

 OpenBabel03242517203D

 39 41  0  0  0  0  0  0  0  0999 V2000
   34.6710   28.7140   38.7130 C   0  0  0  0  0  0  0  0  0  0  0  0
   35.6060   27.6470   38.5660 C   0  0  0  0  0  0  0  0  0  0  0  0
   35.6630   26.9730   37.3660 C   0  0  0  0  0  0  0  0  0  0  0  0
   34.8100   27.3870   36.4060 N   0  0  0  0  0  0  0  0  0  0  0  0
   33.9270   28.3950   36.5490 C   0  0  0  0  0  0  0  0  0  0  0  0
   33.8740   29.0450   37.7070 N   0  0  0  0  0  0  0  0  0  0  0  0
   34.6040   29.2600   39.6470 H   0  0  0  0  0  0  0  0  0  0  0  0
   36.3500   26.1710   37.2220 H   0  0  0  0  0  0  0  0  0  0  0  0
   33.0230   28.8010   35.4640 C   0  0  0  0  0  0  0  0  0  0  0  0
   33.1230   28.1180   34.6230 H   0  0  0  0  0  0  0  0  0  0  0  0
   33.2500   29.8720   35.2040 H   0  0  0  0  0  0  0  0  0  0  0  0
   31.5760   28.7810   35.9560 C   0  0  0  0  0  0  0  0  0  0  0  0
   31.4750   28.5020   37.0020 H   0  0  0  0  0  0  0  0  0  0  0  0
   30.9810   28.1450   35.2500 H   0  0  0  0  0  0  0  0  0  0  0  0
   30.4680   29.9890   38.4590 Cl  0  0  0  0  0  0  0  0  0  0  0  0
   30.5760   30.8340   36.9300 C   0  0  0  0  0  0  0  0  0  0  0  0
   31.1130   30.2060   35.7980 C   0  0  0  0  0  0  0  0  0  0  0  0
   31.2440   30.7840   34.5480 C   0  0  0  0  0  0  0  0  0  0  0  0
   31.6730   30.2020   33.7490 H   0  0  0  0  0  0  0  0  0  0  0  0
   30.8000   32.1070   34.4140 C   0  0  0  0  0  0  0  0  0  0  0  0
   30.9000   32.5650   33.4350 H   0  0  0  0  0  0  0  0  0  0  0  0
   30.2690   32.7330   35.5240 C   0  0  0  0  0  3  0  0  0  0  0  0
   30.1460   32.1410   36.7620 C   0  0  0  0  0  3  0  0  0  0  0  0
   36.4850   27.2870   39.7000 C   0  0  0  0  0  3  0  0  0  0  0  0
   36.7550   26.0750   40.0690 C   0  0  0  0  0  3  0  0  0  0  0  0
   37.6520   25.7690   41.2240 C   0  0  0  0  0  0  0  0  0  0  0  0
   38.5510   25.2190   40.8610 H   0  0  0  0  0  0  0  0  0  0  0  0
   37.1050   25.0440   41.8610 H   0  0  0  0  0  0  0  0  0  0  0  0
   36.2010   26.8510   43.3400 F   0  0  0  0  0  0  0  0  0  0  0  0
   37.3250   27.4880   42.9660 C   0  0  0  0  0  0  0  0  0  0  0  0
   38.0800   26.9770   41.9050 C   0  0  0  0  0  0  0  0  0  0  0  0
   39.2080   27.7280   41.6210 C   0  0  0  0  0  0  0  0  0  0  0  0
   39.6430   28.8760   42.2510 C   0  0  0  0  0  0  0  0  0  0  0  0
   38.8170   29.3090   43.3040 C   0  0  0  0  0  0  0  0  0  0  0  0
   37.6740   28.6430   43.6720 C   0  0  0  0  0  0  0  0  0  0  0  0
   39.8190   27.3570   40.7980 H   0  0  0  0  0  0  0  0  0  0  0  0
   40.5340   29.3730   41.9450 H   0  0  0  0  0  0  0  0  0  0  0  0
   39.0950   30.2000   43.8420 H   0  0  0  0  0  0  0  0  0  0  0  0
   37.0580   28.9960   44.4850 H   0  0  0  0  0  0  0  0  0  0  0  0
  1  7  1  0  0  0  0
  2  1  1  0  0  0  0
  2 24  1  0  0  0  0
  3  2  2  0  0  0  0
  4  5  2  0  0  0  0
  4  3  1  0  0  0  0
  5  6  1  0  0  0  0
  6  1  2  0  0  0  0
  8  3  1  0  0  0  0
  9 12  1  0  0  0  0
  9  5  1  0  0  0  0
 10  9  1  0  0  0  0
 11  9  1  0  0  0  0
 12 13  1  0  0  0  0
 14 12  1  0  0  0  0
 16 15  1  0  0  0  0
 17 12  1  0  0  0  0
 17 16  2  0  0  0  0
 18 17  1  0  0  0  0
 19 18  1  0  0  0  0
 20 18  2  0  0  0  0
 20 22  1  0  0  0  0
 21 20  1  0  0  0  0
 22 23  2  0  0  0  0
 23 16  1  0  0  0  0
 24 25  2  0  0  0  0
 25 26  1  0  0  0  0
 26 28  1  0  0  0  0
 26 31  1  0  0  0  0
 27 26  1  0  0  0  0
 30 29  1  0  0  0  0
 30 35  1  0  0  0  0
 31 30  2  0  0  0  0
 32 31  1  0  0  0  0
 32 33  2  0  0  0  0
 33 34  1  0  0  0  0
 34 35  2  0  0  0  0
 34 38  1  0  0  0  0
 35 39  1  0  0  0  0
 36 32  1  0  0  0  0
 37 33  1  0  0  0  0
M  END
>  <minimizedAffinity>
-5.65415287

$$$$
