
 OpenBabel03252500393D

 21 22  0  0  0  0  0  0  0  0999 V2000
   44.0430   35.7250   41.7340 C   0  0  0  0  0  0  0  0  0  0  0  0
   44.8950   35.5380   41.0480 H   0  0  0  0  0  0  0  0  0  0  0  0
   43.9030   36.8230   41.7980 H   0  0  0  0  0  0  0  0  0  0  0  0
   44.4650   35.2080   43.0700 C   0  0  0  0  0  0  0  0  0  0  0  0
   45.1130   33.9580   43.1100 C   0  0  0  0  0  0  0  0  0  0  0  0
   45.5230   33.4420   44.3440 C   0  0  0  0  0  0  0  0  0  0  0  0
   45.2640   34.1960   45.4520 N   0  0  0  0  0  0  0  0  0  0  0  0
   44.6370   35.3930   45.3780 C   0  0  0  0  0  0  0  0  0  0  0  0
   44.2360   35.9050   44.2000 N   0  0  0  0  0  0  0  0  0  0  0  0
   45.3030   33.3880   42.2010 H   0  0  0  0  0  0  0  0  0  0  0  0
   46.0210   32.5000   44.4370 H   0  0  0  0  0  0  0  0  0  0  0  0
   44.4610   35.9480   46.3080 H   0  0  0  0  0  0  0  0  0  0  0  0
   44.3240   33.5670   39.5660 Cl  0  0  0  0  0  0  0  0  0  0  0  0
   42.8120   34.0620   40.2770 C   0  0  0  0  0  0  0  0  0  0  0  0
   42.8180   35.0420   41.2400 C   0  0  0  0  0  0  0  0  0  0  0  0
   41.5930   35.4060   41.7770 C   0  0  0  0  0  0  0  0  0  0  0  0
   41.5650   36.1760   42.5380 H   0  0  0  0  0  0  0  0  0  0  0  0
   40.3900   34.8430   41.3980 C   0  0  0  0  0  0  0  0  0  0  0  0
   39.4530   35.1740   41.8590 H   0  0  0  0  0  0  0  0  0  0  0  0
   40.3780   33.8520   40.4250 C   0  0  0  0  0  0  0  0  0  0  0  0
   41.6060   33.5030   39.9030 C   0  0  0  0  0  0  0  0  0  0  0  0
  1  3  1  0  0  0  0
  1  4  1  0  0  0  0
  2  1  1  0  0  0  0
  4  5  2  0  0  0  0
  4  9  1  0  0  0  0
  5  6  1  0  0  0  0
  6 11  1  0  0  0  0
  6  7  2  0  0  0  0
  8  7  1  0  0  0  0
  8 12  1  0  0  0  0
  9  8  2  0  0  0  0
 10  5  1  0  0  0  0
 13 14  1  0  0  0  0
 14 15  1  0  0  0  0
 15  1  1  0  0  0  0
 15 16  2  0  0  0  0
 16 17  1  0  0  0  0
 18 16  1  0  0  0  0
 18 19  1  0  0  0  0
 20 18  2  0  0  0  0
 21 14  2  0  0  0  0
 21 20  1  0  0  0  0
M  END
>  <minimizedAffinity>
-4.29512262

>  <minimizedRMSD>
1.85184526

$$$$
