
 OpenBabel03252509293D

 21 22  0  0  0  0  0  0  0  0999 V2000
   47.7120   34.9340   42.4010 C   0  0  0  0  0  0  0  0  0  0  0  0
   47.9580   35.2760   43.4370 H   0  0  0  0  0  0  0  0  0  0  0  0
   48.2220   35.6760   41.7500 H   0  0  0  0  0  0  0  0  0  0  0  0
   44.4590   34.2880   40.6770 C   0  0  0  0  0  0  0  0  0  0  0  0
   45.8430   34.2940   40.9510 C   0  0  0  0  0  0  0  0  0  0  0  0
   46.2750   34.9350   42.1240 C   0  0  0  0  0  0  0  0  0  0  0  0
   45.3330   35.5140   42.9310 N   0  0  0  0  0  0  0  0  0  0  0  0
   44.0190   35.4820   42.6250 C   0  0  0  0  0  0  0  0  0  0  0  0
   43.5900   34.8730   41.5090 N   0  0  0  0  0  0  0  0  0  0  0  0
   44.2370   33.7600   39.7370 H   0  0  0  0  0  0  0  0  0  0  0  0
   46.5720   33.8330   40.3020 H   0  0  0  0  0  0  0  0  0  0  0  0
   43.2530   35.9290   43.2420 H   0  0  0  0  0  0  0  0  0  0  0  0
   47.1610   33.0140   44.6550 Cl  0  0  0  0  0  0  0  0  0  0  0  0
   48.0940   32.7060   43.1920 C   0  0  0  0  0  0  0  0  0  0  0  0
   48.3470   33.6060   42.1500 C   0  0  0  0  0  0  0  0  0  0  0  0
   49.1050   33.1780   41.0820 C   0  0  0  0  0  0  0  0  0  0  0  0
   49.2360   33.9500   40.3410 H   0  0  0  0  0  0  0  0  0  0  0  0
   49.6060   31.9120   41.0270 C   0  0  0  0  0  0  0  0  0  0  0  0
   50.1990   31.6670   40.1350 H   0  0  0  0  0  0  0  0  0  0  0  0
   49.3730   30.9860   42.0520 C   0  0  0  0  0  3  0  0  0  0  0  0
   48.6140   31.4090   43.1220 C   0  0  0  0  0  3  0  0  0  0  0  0
  1  2  1  0  0  0  0
  3  1  1  0  0  0  0
  4  5  2  0  0  0  0
  4  9  1  0  0  0  0
  5  6  1  0  0  0  0
  6  1  1  0  0  0  0
  6  7  2  0  0  0  0
  8  7  1  0  0  0  0
  8 12  1  0  0  0  0
  9  8  2  0  0  0  0
 10  4  1  0  0  0  0
 11  5  1  0  0  0  0
 14 13  1  0  0  0  0
 15  1  1  0  0  0  0
 15 14  2  0  0  0  0
 16 15  1  0  0  0  0
 17 16  1  0  0  0  0
 18 16  2  0  0  0  0
 18 20  1  0  0  0  0
 19 18  1  0  0  0  0
 20 21  2  0  0  0  0
 21 14  1  0  0  0  0
M  END
>  <minimizedAffinity>
-3.50692201

>  <minimizedRMSD>
3.4801302

$$$$
