
 OpenBabel03252509303D

 21 22  0  0  0  0  0  0  0  0999 V2000
   36.5850   27.3950   42.8310 C   0  0  0  0  0  0  0  0  0  0  0  0
   35.8140   26.6080   42.6360 H   0  0  0  0  0  0  0  0  0  0  0  0
   36.2820   27.8260   43.8080 H   0  0  0  0  0  0  0  0  0  0  0  0
   36.2120   29.0900   39.5200 C   0  0  0  0  0  0  0  0  0  0  0  0
   36.2010   28.0860   40.5120 C   0  0  0  0  0  0  0  0  0  0  0  0
   36.6020   28.4430   41.8100 C   0  0  0  0  0  0  0  0  0  0  0  0
   36.9780   29.7390   42.0390 N   0  0  0  0  0  0  0  0  0  0  0  0
   36.9720   30.6640   41.0560 C   0  0  0  0  0  0  0  0  0  0  0  0
   36.5910   30.3400   39.8110 N   0  0  0  0  0  0  0  0  0  0  0  0
   35.8810   28.6990   38.5470 H   0  0  0  0  0  0  0  0  0  0  0  0
   35.9020   27.0680   40.3120 H   0  0  0  0  0  0  0  0  0  0  0  0
   37.2630   31.6940   41.2070 H   0  0  0  0  0  0  0  0  0  0  0  0
   36.6140   24.5930   41.7220 Cl  0  0  0  0  0  0  0  0  0  0  0  0
   37.9420   25.4490   42.5050 C   0  0  0  0  0  0  0  0  0  0  0  0
   37.9190   26.7500   43.0180 C   0  0  0  0  0  0  0  0  0  0  0  0
   39.0650   27.2480   43.5990 C   0  0  0  0  0  0  0  0  0  0  0  0
   38.9340   28.2560   43.9590 H   0  0  0  0  0  0  0  0  0  0  0  0
   40.2040   26.5020   43.6790 C   0  0  0  0  0  0  0  0  0  0  0  0
   41.0650   26.9870   44.1600 H   0  0  0  0  0  0  0  0  0  0  0  0
   40.2630   25.1960   43.1770 C   0  0  0  0  0  3  0  0  0  0  0  0
   39.1180   24.6940   42.5950 C   0  0  0  0  0  3  0  0  0  0  0  0
  1 15  1  0  0  0  0
  1  3  1  0  0  0  0
  2  1  1  0  0  0  0
  4  9  2  0  0  0  0
  4  5  1  0  0  0  0
  5  6  2  0  0  0  0
  6  7  1  0  0  0  0
  6  1  1  0  0  0  0
  8 12  1  0  0  0  0
  8  7  2  0  0  0  0
  9  8  1  0  0  0  0
 10  4  1  0  0  0  0
 11  5  1  0  0  0  0
 13 14  1  0  0  0  0
 14 21  2  0  0  0  0
 14 15  1  0  0  0  0
 15 16  2  0  0  0  0
 16 18  1  0  0  0  0
 16 17  1  0  0  0  0
 18 19  1  0  0  0  0
 20 18  2  0  0  0  0
 21 20  1  0  0  0  0
M  END
>  <minimizedAffinity>
-4.5895648

$$$$

 OpenBabel03252509303D

 21 22  0  0  0  0  0  0  0  0999 V2000
   37.8940   28.4940   43.5850 C   0  0  0  0  0  0  0  0  0  0  0  0
   37.0750   28.5890   44.3410 H   0  0  0  0  0  0  0  0  0  0  0  0
   38.8210   28.6280   44.1830 H   0  0  0  0  0  0  0  0  0  0  0  0
   38.9480   31.2110   41.2450 C   0  0  0  0  0  0  0  0  0  0  0  0
   39.0030   30.2270   42.2540 C   0  0  0  0  0  0  0  0  0  0  0  0
   37.8260   29.5140   42.5380 C   0  0  0  0  0  0  0  0  0  0  0  0
   36.6990   29.8120   41.8210 N   0  0  0  0  0  0  0  0  0  0  0  0
   36.6970   30.7630   40.8640 C   0  0  0  0  0  0  0  0  0  0  0  0
   37.8130   31.4530   40.5800 N   0  0  0  0  0  0  0  0  0  0  0  0
   39.9230   31.7030   41.1090 H   0  0  0  0  0  0  0  0  0  0  0  0
   39.9020   30.0060   42.8100 H   0  0  0  0  0  0  0  0  0  0  0  0
   35.8230   31.0200   40.2820 H   0  0  0  0  0  0  0  0  0  0  0  0
   40.6630   27.3110   43.6790 Cl  0  0  0  0  0  0  0  0  0  0  0  0
   39.1920   26.5460   43.0800 C   0  0  0  0  0  0  0  0  0  0  0  0
   37.9100   27.1050   43.0380 C   0  0  0  0  0  0  0  0  0  0  0  0
   36.8790   26.3460   42.5290 C   0  0  0  0  0  0  0  0  0  0  0  0
   35.9380   26.8740   42.5460 H   0  0  0  0  0  0  0  0  0  0  0  0
   37.0870   25.0790   42.0710 C   0  0  0  0  0  0  0  0  0  0  0  0
   36.2010   24.5550   41.6840 H   0  0  0  0  0  0  0  0  0  0  0  0
   38.3560   24.4880   42.0960 C   0  0  0  0  0  3  0  0  0  0  0  0
   39.3910   25.2440   42.6050 C   0  0  0  0  0  3  0  0  0  0  0  0
  1  3  1  0  0  0  0
  1  2  1  0  0  0  0
  4  5  1  0  0  0  0
  5  6  2  0  0  0  0
  5 11  1  0  0  0  0
  6  1  1  0  0  0  0
  7  6  1  0  0  0  0
  8  7  2  0  0  0  0
  9  8  1  0  0  0  0
  9  4  2  0  0  0  0
 10  4  1  0  0  0  0
 12  8  1  0  0  0  0
 14 13  1  0  0  0  0
 15 14  1  0  0  0  0
 15  1  1  0  0  0  0
 16 17  1  0  0  0  0
 16 15  2  0  0  0  0
 18 20  2  0  0  0  0
 18 16  1  0  0  0  0
 19 18  1  0  0  0  0
 20 21  1  0  0  0  0
 21 14  2  0  0  0  0
M  END
>  <minimizedAffinity>
-4.55659723

$$$$

 OpenBabel03252509303D

 21 22  0  0  0  0  0  0  0  0999 V2000
   35.5940   28.9110   40.8350 C   0  0  0  0  0  0  0  0  0  0  0  0
   35.0640   28.2330   40.1210 H   0  0  0  0  0  0  0  0  0  0  0  0
   34.7890   29.2550   41.5190 H   0  0  0  0  0  0  0  0  0  0  0  0
   37.0380   31.0760   38.1520 C   0  0  0  0  0  0  0  0  0  0  0  0
   36.4420   29.9700   38.7950 C   0  0  0  0  0  0  0  0  0  0  0  0
   36.2140   30.0620   40.1790 C   0  0  0  0  0  0  0  0  0  0  0  0
   36.5810   31.2130   40.8210 N   0  0  0  0  0  0  0  0  0  0  0  0
   37.1480   32.2450   40.1610 C   0  0  0  0  0  0  0  0  0  0  0  0
   37.3720   32.1740   38.8400 N   0  0  0  0  0  0  0  0  0  0  0  0
   37.1680   30.8930   37.0750 H   0  0  0  0  0  0  0  0  0  0  0  0
   36.1600   29.0690   38.2720 H   0  0  0  0  0  0  0  0  0  0  0  0
   37.4480   33.1660   40.6410 H   0  0  0  0  0  0  0  0  0  0  0  0
   36.4090   26.3840   39.4110 Cl  0  0  0  0  0  0  0  0  0  0  0  0
   36.9500   26.9430   40.9930 C   0  0  0  0  0  0  0  0  0  0  0  0
   36.5640   28.1180   41.6480 C   0  0  0  0  0  0  0  0  0  0  0  0
   37.0980   28.3840   42.8900 C   0  0  0  0  0  0  0  0  0  0  0  0
   36.7330   29.3120   43.3000 H   0  0  0  0  0  0  0  0  0  0  0  0
   37.9830   27.5310   43.4810 C   0  0  0  0  0  0  0  0  0  0  0  0
   38.3520   27.8310   44.4720 H   0  0  0  0  0  0  0  0  0  0  0  0
   38.3910   26.3470   42.8550 C   0  0  0  0  0  3  0  0  0  0  0  0
   37.8590   26.0770   41.6120 C   0  0  0  0  0  3  0  0  0  0  0  0
  1  3  1  0  0  0  0
  1 15  1  0  0  0  0
  2  1  1  0  0  0  0
  4  5  2  0  0  0  0
  4  9  1  0  0  0  0
  5  6  1  0  0  0  0
  6  7  2  0  0  0  0
  6  1  1  0  0  0  0
  8 12  1  0  0  0  0
  8  7  1  0  0  0  0
  9  8  2  0  0  0  0
 10  4  1  0  0  0  0
 11  5  1  0  0  0  0
 13 14  1  0  0  0  0
 14 21  2  0  0  0  0
 14 15  1  0  0  0  0
 15 16  2  0  0  0  0
 16 17  1  0  0  0  0
 16 18  1  0  0  0  0
 18 19  1  0  0  0  0
 20 18  2  0  0  0  0
 21 20  1  0  0  0  0
M  END
>  <minimizedAffinity>
-4.52308178

$$$$

 OpenBabel03252509303D

 21 22  0  0  0  0  0  0  0  0999 V2000
   36.2100   30.5490   41.0360 C   0  0  0  0  0  0  0  0  0  0  0  0
   36.4080   31.5720   41.4440 H   0  0  0  0  0  0  0  0  0  0  0  0
   35.1110   30.4320   41.1420 H   0  0  0  0  0  0  0  0  0  0  0  0
   38.8470   28.7740   43.0020 C   0  0  0  0  0  0  0  0  0  0  0  0
   38.1780   29.7840   42.2800 C   0  0  0  0  0  0  0  0  0  0  0  0
   36.8960   29.4940   41.7820 C   0  0  0  0  0  0  0  0  0  0  0  0
   36.3720   28.2540   42.0260 N   0  0  0  0  0  0  0  0  0  0  0  0
   37.0530   27.3190   42.7230 C   0  0  0  0  0  0  0  0  0  0  0  0
   38.2770   27.5810   43.2050 N   0  0  0  0  0  0  0  0  0  0  0  0
   39.8380   29.1110   43.3420 H   0  0  0  0  0  0  0  0  0  0  0  0
   38.6080   30.7570   42.0960 H   0  0  0  0  0  0  0  0  0  0  0  0
   36.6650   26.3320   42.9310 H   0  0  0  0  0  0  0  0  0  0  0  0
   37.6700   33.0440   40.1870 Cl  0  0  0  0  0  0  0  0  0  0  0  0
   37.2060   31.6780   39.1740 C   0  0  0  0  0  0  0  0  0  0  0  0
   36.5260   30.5240   39.5770 C   0  0  0  0  0  0  0  0  0  0  0  0
   36.2490   29.5600   38.6320 C   0  0  0  0  0  0  0  0  0  0  0  0
   35.7240   28.7170   39.0520 H   0  0  0  0  0  0  0  0  0  0  0  0
   36.6220   29.7140   37.3290 C   0  0  0  0  0  0  0  0  0  0  0  0
   36.3560   28.8900   36.6520 H   0  0  0  0  0  0  0  0  0  0  0  0
   37.3030   30.8560   36.8910 C   0  0  0  0  0  3  0  0  0  0  0  0
   37.5820   31.8230   37.8330 C   0  0  0  0  0  3  0  0  0  0  0  0
  1  3  1  0  0  0  0
  1  2  1  0  0  0  0
  1  6  1  0  0  0  0
  4  9  1  0  0  0  0
  4 10  1  0  0  0  0
  5  4  2  0  0  0  0
  6  7  2  0  0  0  0
  6  5  1  0  0  0  0
  7  8  1  0  0  0  0
  8 12  1  0  0  0  0
  8  9  2  0  0  0  0
 11  5  1  0  0  0  0
 14 15  1  0  0  0  0
 14 13  1  0  0  0  0
 15  1  1  0  0  0  0
 16 17  1  0  0  0  0
 16 15  2  0  0  0  0
 18 16  1  0  0  0  0
 19 18  1  0  0  0  0
 20 18  2  0  0  0  0
 20 21  1  0  0  0  0
 21 14  2  0  0  0  0
M  END
>  <minimizedAffinity>
-4.48626709

$$$$

 OpenBabel03252509303D

 21 22  0  0  0  0  0  0  0  0999 V2000
   37.2330   28.1560   43.3350 C   0  0  0  0  0  0  0  0  0  0  0  0
   37.7510   28.8570   44.0370 H   0  0  0  0  0  0  0  0  0  0  0  0
   36.2730   27.9310   43.8470 H   0  0  0  0  0  0  0  0  0  0  0  0
   39.9880   25.6330   43.4690 C   0  0  0  0  0  0  0  0  0  0  0  0
   39.2610   26.8240   43.6780 C   0  0  0  0  0  0  0  0  0  0  0  0
   37.9790   26.9170   43.1110 C   0  0  0  0  0  0  0  0  0  0  0  0
   37.5090   25.8520   42.3920 N   0  0  0  0  0  0  0  0  0  0  0  0
   38.2430   24.7320   42.2200 C   0  0  0  0  0  0  0  0  0  0  0  0
   39.4690   24.6270   42.7560 N   0  0  0  0  0  0  0  0  0  0  0  0
   40.9730   25.6710   43.9570 H   0  0  0  0  0  0  0  0  0  0  0  0
   39.6490   27.6550   44.2480 H   0  0  0  0  0  0  0  0  0  0  0  0
   37.8990   23.8750   41.6580 H   0  0  0  0  0  0  0  0  0  0  0  0
   39.2340   30.3340   42.7630 Cl  0  0  0  0  0  0  0  0  0  0  0  0
   37.8340   29.8850   41.7910 C   0  0  0  0  0  0  0  0  0  0  0  0
   36.9080   28.8720   42.0660 C   0  0  0  0  0  0  0  0  0  0  0  0
   35.8720   28.6710   41.1810 C   0  0  0  0  0  0  0  0  0  0  0  0
   35.2220   27.8680   41.4910 H   0  0  0  0  0  0  0  0  0  0  0  0
   35.7370   29.4330   40.0580 C   0  0  0  0  0  0  0  0  0  0  0  0
   34.8770   29.1960   39.4150 H   0  0  0  0  0  0  0  0  0  0  0  0
   36.6430   30.4560   39.7520 C   0  0  0  0  0  3  0  0  0  0  0  0
   37.6820   30.6600   40.6350 C   0  0  0  0  0  3  0  0  0  0  0  0
  1  3  1  0  0  0  0
  1  2  1  0  0  0  0
  4  5  1  0  0  0  0
  4 10  1  0  0  0  0
  5 11  1  0  0  0  0
  6  1  1  0  0  0  0
  6  5  2  0  0  0  0
  7  6  1  0  0  0  0
  8  7  2  0  0  0  0
  8  9  1  0  0  0  0
  9  4  2  0  0  0  0
 12  8  1  0  0  0  0
 14 15  1  0  0  0  0
 14 13  1  0  0  0  0
 15  1  1  0  0  0  0
 16 17  1  0  0  0  0
 16 15  2  0  0  0  0
 18 16  1  0  0  0  0
 19 18  1  0  0  0  0
 20 18  2  0  0  0  0
 20 21  1  0  0  0  0
 21 14  2  0  0  0  0
M  END
>  <minimizedAffinity>
-4.45477962

$$$$

 OpenBabel03252509303D

 21 22  0  0  0  0  0  0  0  0999 V2000
   36.8550   31.2380   40.9840 C   0  0  0  0  0  0  0  0  0  0  0  0
   36.0320   31.0030   40.2650 H   0  0  0  0  0  0  0  0  0  0  0  0
   36.3770   31.9190   41.7200 H   0  0  0  0  0  0  0  0  0  0  0  0
   39.5640   32.0100   38.5270 C   0  0  0  0  0  0  0  0  0  0  0  0
   38.4690   31.3700   39.1450 C   0  0  0  0  0  0  0  0  0  0  0  0
   37.9930   31.9070   40.3530 C   0  0  0  0  0  0  0  0  0  0  0  0
   38.6150   33.0160   40.8590 N   0  0  0  0  0  0  0  0  0  0  0  0
   39.6610   33.5930   40.2300 C   0  0  0  0  0  0  0  0  0  0  0  0
   40.1270   33.0930   39.0750 N   0  0  0  0  0  0  0  0  0  0  0  0
   39.8500   31.5060   37.5920 H   0  0  0  0  0  0  0  0  0  0  0  0
   37.9910   30.4950   38.7310 H   0  0  0  0  0  0  0  0  0  0  0  0
   40.1710   34.4690   40.6050 H   0  0  0  0  0  0  0  0  0  0  0  0
   34.9630   28.9710   40.3870 Cl  0  0  0  0  0  0  0  0  0  0  0  0
   36.3770   28.9360   41.4400 C   0  0  0  0  0  0  0  0  0  0  0  0
   37.2490   29.9950   41.7130 C   0  0  0  0  0  0  0  0  0  0  0  0
   38.3040   29.7730   42.5700 C   0  0  0  0  0  0  0  0  0  0  0  0
   38.9100   30.6550   42.7080 H   0  0  0  0  0  0  0  0  0  0  0  0
   38.5070   28.5540   43.1480 C   0  0  0  0  0  0  0  0  0  0  0  0
   39.3760   28.4760   43.8170 H   0  0  0  0  0  0  0  0  0  0  0  0
   37.6540   27.4720   42.8980 C   0  0  0  0  0  3  0  0  0  0  0  0
   36.5970   27.6900   42.0400 C   0  0  0  0  0  3  0  0  0  0  0  0
  1 15  1  0  0  0  0
  1  3  1  0  0  0  0
  2  1  1  0  0  0  0
  4  9  2  0  0  0  0
  4  5  1  0  0  0  0
  5  6  2  0  0  0  0
  6  7  1  0  0  0  0
  6  1  1  0  0  0  0
  8 12  1  0  0  0  0
  8  7  2  0  0  0  0
  9  8  1  0  0  0  0
 10  4  1  0  0  0  0
 11  5  1  0  0  0  0
 13 14  1  0  0  0  0
 14 15  2  0  0  0  0
 14 21  1  0  0  0  0
 15 16  1  0  0  0  0
 16 17  1  0  0  0  0
 16 18  2  0  0  0  0
 18 19  1  0  0  0  0
 20 18  1  0  0  0  0
 21 20  2  0  0  0  0
M  END
>  <minimizedAffinity>
-4.4087491

$$$$

 OpenBabel03252509303D

 21 22  0  0  0  0  0  0  0  0999 V2000
   38.1530   29.6090   39.9160 C   0  0  0  0  0  0  0  0  0  0  0  0
   39.0120   29.2140   39.3190 H   0  0  0  0  0  0  0  0  0  0  0  0
   37.2600   29.2870   39.3390 H   0  0  0  0  0  0  0  0  0  0  0  0
   37.2000   33.1900   39.4310 C   0  0  0  0  0  0  0  0  0  0  0  0
   37.1980   31.7840   39.3170 C   0  0  0  0  0  0  0  0  0  0  0  0
   38.1650   31.0670   40.0400 C   0  0  0  0  0  0  0  0  0  0  0  0
   39.0510   31.7690   40.8110 N   0  0  0  0  0  0  0  0  0  0  0  0
   39.0130   33.1160   40.8880 C   0  0  0  0  0  0  0  0  0  0  0  0
   38.0950   33.8160   40.2040 N   0  0  0  0  0  0  0  0  0  0  0  0
   36.4030   33.6460   38.8240 H   0  0  0  0  0  0  0  0  0  0  0  0
   36.4910   31.2470   38.7020 H   0  0  0  0  0  0  0  0  0  0  0  0
   39.6980   33.6980   41.4880 H   0  0  0  0  0  0  0  0  0  0  0  0
   35.3280   28.8820   40.6720 Cl  0  0  0  0  0  0  0  0  0  0  0  0
   36.7970   28.5750   41.5970 C   0  0  0  0  0  0  0  0  0  0  0  0
   38.1050   28.9180   41.2390 C   0  0  0  0  0  0  0  0  0  0  0  0
   39.1290   28.5920   42.1010 C   0  0  0  0  0  0  0  0  0  0  0  0
   40.0920   28.9020   41.7250 H   0  0  0  0  0  0  0  0  0  0  0  0
   38.8900   27.9510   43.2800 C   0  0  0  0  0  0  0  0  0  0  0  0
   39.7720   27.7350   43.8990 H   0  0  0  0  0  0  0  0  0  0  0  0
   37.5940   27.5930   43.6710 C   0  0  0  0  0  3  0  0  0  0  0  0
   36.5660   27.9170   42.8110 C   0  0  0  0  0  3  0  0  0  0  0  0
  1  6  1  0  0  0  0
  1 15  1  0  0  0  0
  2  1  1  0  0  0  0
  3  1  1  0  0  0  0
  4  9  1  0  0  0  0
  5  4  2  0  0  0  0
  5  6  1  0  0  0  0
  6  7  2  0  0  0  0
  7  8  1  0  0  0  0
  8 12  1  0  0  0  0
  9  8  2  0  0  0  0
 10  4  1  0  0  0  0
 11  5  1  0  0  0  0
 13 14  1  0  0  0  0
 14 21  1  0  0  0  0
 15 14  2  0  0  0  0
 15 16  1  0  0  0  0
 16 18  2  0  0  0  0
 17 16  1  0  0  0  0
 18 20  1  0  0  0  0
 18 19  1  0  0  0  0
 21 20  2  0  0  0  0
M  END
>  <minimizedAffinity>
-4.39434147

$$$$

 OpenBabel03252509303D

 21 22  0  0  0  0  0  0  0  0999 V2000
   35.3650   29.1760   40.2070 C   0  0  0  0  0  0  0  0  0  0  0  0
   34.4580   29.4890   40.7820 H   0  0  0  0  0  0  0  0  0  0  0  0
   34.9530   28.8070   39.2440 H   0  0  0  0  0  0  0  0  0  0  0  0
   37.3040   26.0170   40.6890 C   0  0  0  0  0  0  0  0  0  0  0  0
   36.5740   27.0500   40.0630 C   0  0  0  0  0  0  0  0  0  0  0  0
   36.1180   28.1090   40.8660 C   0  0  0  0  0  0  0  0  0  0  0  0
   36.4070   28.0780   42.2030 N   0  0  0  0  0  0  0  0  0  0  0  0
   37.1080   27.0660   42.7560 C   0  0  0  0  0  0  0  0  0  0  0  0
   37.5520   26.0480   42.0030 N   0  0  0  0  0  0  0  0  0  0  0  0
   37.6090   25.2440   39.9670 H   0  0  0  0  0  0  0  0  0  0  0  0
   36.3560   27.0560   39.0060 H   0  0  0  0  0  0  0  0  0  0  0  0
   37.3520   27.0150   43.8080 H   0  0  0  0  0  0  0  0  0  0  0  0
   36.0150   29.3510   37.2700 Cl  0  0  0  0  0  0  0  0  0  0  0  0
   36.5090   30.4650   38.5440 C   0  0  0  0  0  0  0  0  0  0  0  0
   36.2040   30.3740   39.9070 C   0  0  0  0  0  0  0  0  0  0  0  0
   36.6870   31.3470   40.7540 C   0  0  0  0  0  0  0  0  0  0  0  0
   36.3920   31.1790   41.7780 H   0  0  0  0  0  0  0  0  0  0  0  0
   37.4460   32.3810   40.2920 C   0  0  0  0  0  0  0  0  0  0  0  0
   37.7840   33.1060   41.0450 H   0  0  0  0  0  0  0  0  0  0  0  0
   37.7720   32.5030   38.9350 C   0  0  0  0  0  3  0  0  0  0  0  0
   37.2910   31.5310   38.0830 C   0  0  0  0  0  3  0  0  0  0  0  0
  1  2  1  0  0  0  0
  1  6  1  0  0  0  0
  3  1  1  0  0  0  0
  4  9  1  0  0  0  0
  5  4  2  0  0  0  0
  5  6  1  0  0  0  0
  6  7  2  0  0  0  0
  7  8  1  0  0  0  0
  8 12  1  0  0  0  0
  9  8  2  0  0  0  0
 10  4  1  0  0  0  0
 11  5  1  0  0  0  0
 13 14  1  0  0  0  0
 14 15  1  0  0  0  0
 15  1  1  0  0  0  0
 15 16  2  0  0  0  0
 16 17  1  0  0  0  0
 18 16  1  0  0  0  0
 18 19  1  0  0  0  0
 20 18  2  0  0  0  0
 21 14  2  0  0  0  0
 21 20  1  0  0  0  0
M  END
>  <minimizedAffinity>
-4.38112497

$$$$

 OpenBabel03252509303D

 21 22  0  0  0  0  0  0  0  0999 V2000
   36.4720   30.6770   41.0870 C   0  0  0  0  0  0  0  0  0  0  0  0
   35.3960   30.8440   41.3440 H   0  0  0  0  0  0  0  0  0  0  0  0
   36.9890   31.5510   41.5380 H   0  0  0  0  0  0  0  0  0  0  0  0
   37.6640   31.6980   37.6950 C   0  0  0  0  0  0  0  0  0  0  0  0
   37.4200   31.7220   39.0850 C   0  0  0  0  0  0  0  0  0  0  0  0
   36.7170   30.6430   39.6450 C   0  0  0  0  0  0  0  0  0  0  0  0
   36.3110   29.6330   38.8160 N   0  0  0  0  0  0  0  0  0  0  0  0
   36.5680   29.6560   37.4910 C   0  0  0  0  0  0  0  0  0  0  0  0
   37.2390   30.6790   36.9400 N   0  0  0  0  0  0  0  0  0  0  0  0
   38.2200   32.5900   37.3680 H   0  0  0  0  0  0  0  0  0  0  0  0
   37.7480   32.5290   39.7240 H   0  0  0  0  0  0  0  0  0  0  0  0
   36.2600   28.8730   36.8110 H   0  0  0  0  0  0  0  0  0  0  0  0
   39.2630   31.0750   42.1500 Cl  0  0  0  0  0  0  0  0  0  0  0  0
   38.2620   29.6300   42.2840 C   0  0  0  0  0  0  0  0  0  0  0  0
   36.9670   29.4530   41.7860 C   0  0  0  0  0  0  0  0  0  0  0  0
   36.3430   28.2420   41.9910 C   0  0  0  0  0  0  0  0  0  0  0  0
   35.3520   28.2170   41.5660 H   0  0  0  0  0  0  0  0  0  0  0  0
   36.9610   27.2280   42.6620 C   0  0  0  0  0  0  0  0  0  0  0  0
   36.3810   26.3010   42.7740 H   0  0  0  0  0  0  0  0  0  0  0  0
   38.2560   27.3690   43.1740 C   0  0  0  0  0  3  0  0  0  0  0  0
   38.8840   28.5800   42.9710 C   0  0  0  0  0  3  0  0  0  0  0  0
  1  2  1  0  0  0  0
  1  3  1  0  0  0  0
  1 15  1  0  0  0  0
  4  5  1  0  0  0  0
  5  6  2  0  0  0  0
  5 11  1  0  0  0  0
  6  1  1  0  0  0  0
  7  6  1  0  0  0  0
  8  7  2  0  0  0  0
  9  8  1  0  0  0  0
  9  4  2  0  0  0  0
 10  4  1  0  0  0  0
 12  8  1  0  0  0  0
 13 14  1  0  0  0  0
 14 21  1  0  0  0  0
 15 16  1  0  0  0  0
 15 14  2  0  0  0  0
 16 18  2  0  0  0  0
 17 16  1  0  0  0  0
 18 19  1  0  0  0  0
 18 20  1  0  0  0  0
 21 20  2  0  0  0  0
M  END
>  <minimizedAffinity>
-4.37092066

$$$$
