
 OpenBabel03242519533D

 40 42  0  0  1  0  0  0  0  0999 V2000
   47.3270   34.1250   42.4800 C   0  0  2  0  0  0  0  0  0  0  0  0
   48.6710   34.7250   42.6340 C   0  0  0  0  0  0  0  0  0  0  0  0
   48.9550   35.7680   41.6030 C   0  0  0  0  0  0  0  0  0  0  0  0
   48.7840   35.2720   40.1900 C   0  0  0  0  0  0  0  0  0  0  0  0
   47.6330   34.3290   40.0100 C   0  0  2  0  0  0  0  0  0  0  0  0
   46.6650   34.4010   41.1720 C   0  0  0  0  0  0  0  0  0  0  0  0
   47.4790   33.0020   42.5690 H   0  0  0  0  0  0  0  0  0  0  0  0
   48.7100   35.2350   43.6230 H   0  0  0  0  0  0  0  0  0  0  0  0
   49.4830   33.9750   42.5950 H   0  0  0  0  0  0  0  0  0  0  0  0
   50.0150   36.1080   41.7370 H   0  0  0  0  0  0  0  0  0  0  0  0
   48.2870   36.6370   41.8030 H   0  0  0  0  0  0  0  0  0  0  0  0
   49.7700   34.8050   39.9140 H   0  0  0  0  0  0  0  0  0  0  0  0
   48.7230   36.1810   39.5240 H   0  0  0  0  0  0  0  0  0  0  0  0
   47.0610   34.7130   39.1150 H   0  0  0  0  0  0  0  0  0  0  0  0
   46.1030   35.3070   41.0500 H   0  0  0  0  0  0  0  0  0  0  0  0
   45.9410   33.5560   41.0070 H   0  0  0  0  0  0  0  0  0  0  0  0
   46.4010   34.4600   43.5740 C   0  0  0  0  0  0  0  0  0  0  0  0
   45.6030   35.5730   43.3180 C   0  0  0  0  0  0  0  0  0  0  0  0
   44.6650   35.9890   44.2630 C   0  0  0  0  0  0  0  0  0  0  0  0
   44.6000   35.2410   45.4270 N   0  0  0  0  0  0  0  0  0  0  0  0
   45.3910   34.1730   45.6370 C   0  0  0  0  0  0  0  0  0  0  0  0
   46.2780   33.7970   44.7120 N   0  0  0  0  0  0  0  0  0  0  0  0
   45.4840   36.2960   42.5240 H   0  0  0  0  0  0  0  0  0  0  0  0
   43.9650   36.7850   44.2870 H   0  0  0  0  0  0  0  0  0  0  0  0
   45.3100   33.6150   46.5600 H   0  0  0  0  0  0  0  0  0  0  0  0
   48.1730   32.9770   39.7620 C   0  0  0  0  0  0  0  0  0  0  0  0
   48.9890   33.0870   39.0060 H   0  0  0  0  0  0  0  0  0  0  0  0
   48.6840   32.6150   40.6770 H   0  0  0  0  0  0  0  0  0  0  0  0
   47.2180   31.9530   39.2650 C   0  0  0  0  0  0  0  0  0  0  0  0
   46.2910   32.0450   39.8670 H   0  0  0  0  0  0  0  0  0  0  0  0
   47.6100   30.9410   39.4940 H   0  0  0  0  0  0  0  0  0  0  0  0
   44.5050   33.1070   38.4270 Cl  0  0  0  0  0  0  0  0  0  0  0  0
   45.7560   32.5050   37.3270 C   0  0  0  0  0  0  0  0  0  0  0  0
   46.9390   32.0080   37.8290 C   0  0  0  0  0  0  0  0  0  0  0  0
   47.8330   31.5700   36.8700 C   0  0  0  0  0  0  0  0  0  0  0  0
   48.7920   31.1610   37.1630 H   0  0  0  0  0  0  0  0  0  0  0  0
   47.6040   31.6070   35.5330 C   0  0  0  0  0  0  0  0  0  0  0  0
   48.2920   31.2680   34.7690 H   0  0  0  0  0  0  0  0  0  0  0  0
   46.3930   32.1180   35.0650 C   0  0  0  0  0  0  0  0  0  0  0  0
   45.4370   32.5810   35.9760 C   0  0  0  0  0  0  0  0  0  0  0  0
  1  7  1  1  0  0  0
  1  2  1  0  0  0  0
  1 17  1  0  0  0  0
  2  8  1  0  0  0  0
  3 10  1  0  0  0  0
  3 11  1  0  0  0  0
  3  2  1  0  0  0  0
  4  3  1  0  0  0  0
  5 14  1  6  0  0  0
  5  4  1  0  0  0  0
  5  6  1  0  0  0  0
  6  1  1  0  0  0  0
  9  2  1  0  0  0  0
 12  4  1  0  0  0  0
 13  4  1  0  0  0  0
 15  6  1  0  0  0  0
 16  6  1  0  0  0  0
 17 22  1  0  0  0  0
 18 17  2  0  0  0  0
 18 19  1  0  0  0  0
 19 24  1  0  0  0  0
 19 20  2  0  0  0  0
 20 21  1  0  0  0  0
 21 25  1  0  0  0  0
 22 21  2  0  0  0  0
 23 18  1  0  0  0  0
 26  5  1  0  0  0  0
 26 28  1  0  0  0  0
 27 26  1  0  0  0  0
 29 31  1  0  0  0  0
 29 26  1  0  0  0  0
 29 30  1  0  0  0  0
 33 34  1  0  0  0  0
 33 32  1  0  0  0  0
 34 29  1  0  0  0  0
 35 36  1  0  0  0  0
 35 34  2  0  0  0  0
 37 35  1  0  0  0  0
 38 37  1  0  0  0  0
 39 37  2  0  0  0  0
 39 40  1  0  0  0  0
 40 33  2  0  0  0  0
M  END
>  <minimizedAffinity>
-5.5274992

>  <minimizedRMSD>
1.20439959

$$$$
