
 OpenBabel03252509283D

 21 22  0  0  0  0  0  0  0  0999 V2000
   46.4370   35.2980   42.1750 C   0  0  0  0  0  0  0  0  0  0  0  0
   47.4660   35.7370   42.1600 H   0  0  0  0  0  0  0  0  0  0  0  0
   45.7950   36.1160   41.7850 H   0  0  0  0  0  0  0  0  0  0  0  0
   44.5680   35.3470   45.4110 C   0  0  0  0  0  0  0  0  0  0  0  0
   45.0010   35.7060   44.1180 C   0  0  0  0  0  0  0  0  0  0  0  0
   45.9970   34.9170   43.5170 C   0  0  0  0  0  0  0  0  0  0  0  0
   46.4870   33.8490   44.2170 N   0  0  0  0  0  0  0  0  0  0  0  0
   46.0400   33.5450   45.4540 C   0  0  0  0  0  0  0  0  0  0  0  0
   45.0890   34.2880   46.0410 N   0  0  0  0  0  0  0  0  0  0  0  0
   43.7900   36.0310   45.7800 H   0  0  0  0  0  0  0  0  0  0  0  0
   44.6030   36.5540   43.5800 H   0  0  0  0  0  0  0  0  0  0  0  0
   46.4070   32.7080   46.0310 H   0  0  0  0  0  0  0  0  0  0  0  0
   43.7520   35.1970   40.8130 Cl  0  0  0  0  0  0  0  0  0  0  0  0
   45.1210   34.1140   40.5630 C   0  0  0  0  0  0  0  0  0  0  0  0
   46.3640   34.1670   41.2010 C   0  0  0  0  0  0  0  0  0  0  0  0
   47.3130   33.2250   40.8700 C   0  0  0  0  0  0  0  0  0  0  0  0
   48.2300   33.3600   41.4220 H   0  0  0  0  0  0  0  0  0  0  0  0
   47.0630   32.2570   39.9440 C   0  0  0  0  0  0  0  0  0  0  0  0
   47.8830   31.5520   39.7490 H   0  0  0  0  0  0  0  0  0  0  0  0
   45.8290   32.1740   39.2860 C   0  0  0  0  0  3  0  0  0  0  0  0
   44.8760   33.1150   39.6140 C   0  0  0  0  0  3  0  0  0  0  0  0
  1  6  1  0  0  0  0
  2  1  1  0  0  0  0
  3  1  1  0  0  0  0
  4 10  1  0  0  0  0
  4  9  1  0  0  0  0
  5  4  2  0  0  0  0
  6  5  1  0  0  0  0
  6  7  2  0  0  0  0
  7  8  1  0  0  0  0
  8 12  1  0  0  0  0
  8  9  2  0  0  0  0
 11  5  1  0  0  0  0
 14 13  1  0  0  0  0
 14 15  1  0  0  0  0
 15  1  1  0  0  0  0
 16 15  2  0  0  0  0
 16 17  1  0  0  0  0
 18 16  1  0  0  0  0
 19 18  1  0  0  0  0
 20 21  1  0  0  0  0
 20 18  2  0  0  0  0
 21 14  2  0  0  0  0
M  END
>  <minimizedAffinity>
-3.88375235

>  <minimizedRMSD>
0.909438789

$$$$
