
 OpenBabel03242517193D

 39 41  0  0  0  0  0  0  0  0999 V2000
   44.3940   35.6310   43.4240 C   0  0  0  0  0  0  0  0  0  0  0  0
   43.8520   34.8280   42.3780 C   0  0  0  0  0  0  0  0  0  0  0  0
   44.2020   33.4980   42.3100 C   0  0  0  0  0  0  0  0  0  0  0  0
   45.0510   33.0530   43.2610 N   0  0  0  0  0  0  0  0  0  0  0  0
   45.5620   33.8160   44.2480 C   0  0  0  0  0  0  0  0  0  0  0  0
   45.2220   35.0980   44.3120 N   0  0  0  0  0  0  0  0  0  0  0  0
   44.1360   36.6810   43.5000 H   0  0  0  0  0  0  0  0  0  0  0  0
   43.8150   32.8680   41.5430 H   0  0  0  0  0  0  0  0  0  0  0  0
   46.4830   33.2730   45.2560 C   0  0  0  0  0  0  0  0  0  0  0  0
   47.2170   34.0280   45.5330 H   0  0  0  0  0  0  0  0  0  0  0  0
   46.9400   32.3330   44.8390 H   0  0  0  0  0  0  0  0  0  0  0  0
   45.7040   32.8510   46.5020 C   0  0  0  0  0  0  0  0  0  0  0  0
   44.7870   32.3100   46.2780 H   0  0  0  0  0  0  0  0  0  0  0  0
   45.5580   33.7600   47.1410 H   0  0  0  0  0  0  0  0  0  0  0  0
   45.3390   29.9640   45.8030 Cl  0  0  0  0  0  0  0  0  0  0  0  0
   46.5220   30.5510   46.9520 C   0  0  0  0  0  0  0  0  0  0  0  0
   46.6410   31.9200   47.2260 C   0  0  0  0  0  0  0  0  0  0  0  0
   47.5420   32.4840   48.1110 C   0  0  0  0  0  0  0  0  0  0  0  0
   47.5420   33.5540   48.2420 H   0  0  0  0  0  0  0  0  0  0  0  0
   48.4010   31.6050   48.7850 C   0  0  0  0  0  0  0  0  0  0  0  0
   49.1090   32.0430   49.4820 H   0  0  0  0  0  0  0  0  0  0  0  0
   48.2910   30.2550   48.5220 C   0  0  0  0  0  0  0  0  0  0  0  0
   47.3860   29.7100   47.6360 C   0  0  0  0  0  0  0  0  0  0  0  0
   42.9340   35.4380   41.3920 C   0  0  0  0  0  0  0  0  0  0  0  0
   41.6410   35.4110   41.4710 C   0  0  0  0  0  0  0  0  0  0  0  0
   40.7600   36.0460   40.4460 C   0  0  0  0  0  0  0  0  0  0  0  0
   41.3870   36.5780   39.6940 H   0  0  0  0  0  0  0  0  0  0  0  0
   40.1950   36.8440   40.9700 H   0  0  0  0  0  0  0  0  0  0  0  0
   40.7890   35.7770   37.6740 F   0  0  0  0  0  0  0  0  0  0  0  0
   39.9810   34.9580   38.3700 C   0  0  0  0  0  0  0  0  0  0  0  0
   39.9360   35.0640   39.7650 C   0  0  0  0  0  0  0  0  0  0  0  0
   39.0650   34.1660   40.3570 C   0  0  0  0  0  0  0  0  0  0  0  0
   38.2740   33.2190   39.7390 C   0  0  0  0  0  0  0  0  0  0  0  0
   38.3900   33.1900   38.3380 C   0  0  0  0  0  0  0  0  0  0  0  0
   39.2220   34.0350   37.6450 C   0  0  0  0  0  0  0  0  0  0  0  0
   39.0060   34.2220   41.4440 H   0  0  0  0  0  0  0  0  0  0  0  0
   37.6370   32.5760   40.3010 H   0  0  0  0  0  0  0  0  0  0  0  0
   37.8000   32.4750   37.7880 H   0  0  0  0  0  0  0  0  0  0  0  0
   39.2930   33.9910   36.5680 H   0  0  0  0  0  0  0  0  0  0  0  0
  1  7  1  0  0  0  0
  1  6  1  0  0  0  0
  2  1  2  0  0  0  0
  3  2  1  0  0  0  0
  3  4  2  0  0  0  0
  4  5  1  0  0  0  0
  5  6  2  0  0  0  0
  5  9  1  0  0  0  0
  8  3  1  0  0  0  0
  9 10  1  0  0  0  0
  9 12  1  0  0  0  0
 11  9  1  0  0  0  0
 12 14  1  0  0  0  0
 12 17  1  0  0  0  0
 13 12  1  0  0  0  0
 15 16  1  0  0  0  0
 16 17  2  0  0  0  0
 16 23  1  0  0  0  0
 17 18  1  0  0  0  0
 18 19  1  0  0  0  0
 18 20  2  0  0  0  0
 20 21  1  0  0  0  0
 22 20  1  0  0  0  0
 23 22  2  0  0  0  0
 24 25  2  0  0  0  0
 24  2  1  0  0  0  0
 26 28  1  0  0  0  0
 26 25  1  0  0  0  0
 27 26  1  0  0  0  0
 29 30  1  0  0  0  0
 30 31  1  0  0  0  0
 31 32  2  0  0  0  0
 31 26  1  0  0  0  0
 32 36  1  0  0  0  0
 33 37  1  0  0  0  0
 33 32  1  0  0  0  0
 34 33  2  0  0  0  0
 35 34  1  0  0  0  0
 35 30  2  0  0  0  0
 38 34  1  0  0  0  0
 39 35  1  0  0  0  0
M  END
>  <minimizedAffinity>
-6.78801966

>  <minimizedRMSD>
1.1114285

$$$$
