
 OpenBabel03252500523D

 35 37  0  0  0  0  0  0  0  0999 V2000
   35.5890   29.1880   35.8200 C   0  0  0  0  0  0  0  0  0  0  0  0
   36.4350   28.8730   34.9540 O   0  0  0  0  0  0  0  0  0  0  0  0
   35.4360   28.0490   37.9770 C   0  0  0  0  0  0  0  0  0  0  0  0
   35.9610   29.0670   37.2240 C   0  0  0  0  0  0  0  0  0  0  0  0
   36.8590   30.0000   37.7860 C   0  0  0  0  0  0  0  0  0  0  0  0
   37.1720   29.8330   39.1130 N   0  0  0  0  0  0  0  0  0  0  0  0
   36.6500   28.8350   39.8320 C   0  0  0  0  0  0  0  0  0  0  0  0
   35.7990   27.9630   39.2680 N   0  0  0  0  0  0  0  0  0  0  0  0
   34.7590   27.3490   37.5470 H   0  0  0  0  0  0  0  0  0  0  0  0
   37.2810   30.8020   37.2150 H   0  0  0  0  0  0  0  0  0  0  0  0
   36.9980   28.6830   41.2330 C   0  0  0  0  0  0  0  0  0  0  0  0
   36.4580   27.7100   42.0210 C   0  0  0  0  0  0  0  0  0  0  0  0
   36.7670   27.5480   43.3410 C   0  0  0  0  0  0  0  0  0  0  0  0
   37.6660   28.4210   43.8640 N   0  0  0  0  0  0  0  0  0  0  0  0
   38.1830   29.3580   43.0960 C   0  0  0  0  0  0  0  0  0  0  0  0
   37.9000   29.5460   41.7930 N   0  0  0  0  0  0  0  0  0  0  0  0
   35.7370   27.0220   41.5730 H   0  0  0  0  0  0  0  0  0  0  0  0
   36.2930   26.7430   43.9140 H   0  0  0  0  0  0  0  0  0  0  0  0
   38.8980   30.0140   43.6070 H   0  0  0  0  0  0  0  0  0  0  0  0
   34.4530   29.5930   35.1840 O   0  0  0  0  0  0  0  0  0  0  0  0
   33.2750   28.8850   35.1900 C   0  0  0  0  0  0  0  0  0  0  0  0
   33.0230   28.2970   36.0850 H   0  0  0  0  0  0  0  0  0  0  0  0
   33.4030   28.0880   34.3940 H   0  0  0  0  0  0  0  0  0  0  0  0
   32.0700   29.6760   34.6950 C   0  0  0  0  0  0  0  0  0  0  0  0
   32.4650   30.4550   34.0090 H   0  0  0  0  0  0  0  0  0  0  0  0
   31.4000   29.0540   34.0810 H   0  0  0  0  0  0  0  0  0  0  0  0
   31.0160   32.4860   34.1240 Cl  0  0  0  0  0  0  0  0  0  0  0  0
   30.8140   31.6380   35.6450 C   0  0  0  0  0  0  0  0  0  0  0  0
   31.3400   30.3570   35.7880 C   0  0  0  0  0  0  0  0  0  0  0  0
   31.1550   29.7190   37.0190 C   0  0  0  0  0  0  0  0  0  0  0  0
   31.5850   28.7090   37.0920 H   0  0  0  0  0  0  0  0  0  0  0  0
   30.4740   30.3250   38.0740 C   0  0  0  0  0  0  0  0  0  0  0  0
   30.3830   29.7360   39.0010 H   0  0  0  0  0  0  0  0  0  0  0  0
   29.9630   31.5970   37.9030 C   0  0  0  0  0  3  0  0  0  0  0  0
   30.1430   32.2400   36.6820 C   0  0  0  0  0  3  0  0  0  0  0  0
  1  4  1  0  0  0  0
  2  1  2  0  0  0  0
  3  8  1  0  0  0  0
  4  5  1  0  0  0  0
  4  3  2  0  0  0  0
  5  6  2  0  0  0  0
  6  7  1  0  0  0  0
  7 11  1  0  0  0  0
  8  7  2  0  0  0  0
  9  3  1  0  0  0  0
 10  5  1  0  0  0  0
 11 16  2  0  0  0  0
 11 12  1  0  0  0  0
 12 13  2  0  0  0  0
 13 14  1  0  0  0  0
 13 18  1  0  0  0  0
 15 19  1  0  0  0  0
 15 14  2  0  0  0  0
 16 15  1  0  0  0  0
 17 12  1  0  0  0  0
 20 21  1  0  0  0  0
 20  1  1  0  0  0  0
 21 22  1  0  0  0  0
 23 21  1  0  0  0  0
 24 21  1  0  0  0  0
 24 29  1  0  0  0  0
 25 24  1  0  0  0  0
 26 24  1  0  0  0  0
 27 28  1  0  0  0  0
 28 29  2  0  0  0  0
 28 35  1  0  0  0  0
 29 30  1  0  0  0  0
 30 31  1  0  0  0  0
 30 32  2  0  0  0  0
 32 33  1  0  0  0  0
 34 32  1  0  0  0  0
 35 34  2  0  0  0  0
M  END
>  <minimizedAffinity>
-5.42672157

$$$$

 OpenBabel03252500523D

 35 37  0  0  0  0  0  0  0  0999 V2000
   35.3380   28.3680   37.2230 C   0  0  0  0  0  0  0  0  0  0  0  0
   35.9260   27.3530   36.7870 O   0  0  0  0  0  0  0  0  0  0  0  0
   36.0630   29.8510   39.0250 C   0  0  0  0  0  0  0  0  0  0  0  0
   36.1480   29.4790   37.7090 C   0  0  0  0  0  0  0  0  0  0  0  0
   37.0080   30.1520   36.8150 C   0  0  0  0  0  0  0  0  0  0  0  0
   37.7460   31.1880   37.3320 N   0  0  0  0  0  0  0  0  0  0  0  0
   37.6500   31.5390   38.6180 C   0  0  0  0  0  0  0  0  0  0  0  0
   36.8230   30.8780   39.4430 N   0  0  0  0  0  0  0  0  0  0  0  0
   35.4120   29.3400   39.6940 H   0  0  0  0  0  0  0  0  0  0  0  0
   37.0900   29.8750   35.7830 H   0  0  0  0  0  0  0  0  0  0  0  0
   38.4410   32.6400   39.1370 C   0  0  0  0  0  0  0  0  0  0  0  0
   37.8910   33.6720   39.8370 C   0  0  0  0  0  0  0  0  0  0  0  0
   38.6130   34.7190   40.3330 C   0  0  0  0  0  0  0  0  0  0  0  0
   39.9500   34.6980   40.0990 N   0  0  0  0  0  0  0  0  0  0  0  0
   40.4750   33.6970   39.4220 C   0  0  0  0  0  0  0  0  0  0  0  0
   39.7920   32.6510   38.9190 N   0  0  0  0  0  0  0  0  0  0  0  0
   36.8120   33.6630   40.0100 H   0  0  0  0  0  0  0  0  0  0  0  0
   38.1020   35.5150   40.8870 H   0  0  0  0  0  0  0  0  0  0  0  0
   41.5600   33.7680   39.2830 H   0  0  0  0  0  0  0  0  0  0  0  0
   33.9950   28.1610   37.1250 O   0  0  0  0  0  0  0  0  0  0  0  0
   33.2130   28.6580   36.1090 C   0  0  0  0  0  0  0  0  0  0  0  0
   33.3560   28.2560   35.0950 H   0  0  0  0  0  0  0  0  0  0  0  0
   33.5260   29.7420   35.9960 H   0  0  0  0  0  0  0  0  0  0  0  0
   31.7330   28.7620   36.4560 C   0  0  0  0  0  0  0  0  0  0  0  0
   31.1980   28.0810   35.7600 H   0  0  0  0  0  0  0  0  0  0  0  0
   31.5230   28.3770   37.4650 H   0  0  0  0  0  0  0  0  0  0  0  0
   30.2350   30.0080   38.8090 Cl  0  0  0  0  0  0  0  0  0  0  0  0
   30.4920   30.7960   37.2650 C   0  0  0  0  0  0  0  0  0  0  0  0
   31.1910   30.1270   36.2640 C   0  0  0  0  0  0  0  0  0  0  0  0
   31.3720   30.7950   35.0480 C   0  0  0  0  0  0  0  0  0  0  0  0
   31.9290   30.2320   34.2840 H   0  0  0  0  0  0  0  0  0  0  0  0
   30.8770   32.0790   34.8260 C   0  0  0  0  0  0  0  0  0  0  0  0
   31.0740   32.5150   33.8340 H   0  0  0  0  0  0  0  0  0  0  0  0
   30.1870   32.7180   35.8380 C   0  0  0  0  0  3  0  0  0  0  0  0
   30.0020   32.0620   37.0510 C   0  0  0  0  0  3  0  0  0  0  0  0
  1  4  1  0  0  0  0
  2  1  2  0  0  0  0
  3  8  1  0  0  0  0
  3  9  1  0  0  0  0
  4  3  2  0  0  0  0
  5  6  2  0  0  0  0
  5  4  1  0  0  0  0
  6  7  1  0  0  0  0
  7 11  1  0  0  0  0
  7  8  2  0  0  0  0
 10  5  1  0  0  0  0
 11 12  1  0  0  0  0
 12 17  1  0  0  0  0
 12 13  2  0  0  0  0
 13 18  1  0  0  0  0
 14 13  1  0  0  0  0
 15 14  2  0  0  0  0
 16 11  2  0  0  0  0
 16 15  1  0  0  0  0
 19 15  1  0  0  0  0
 20  1  1  0  0  0  0
 21 24  1  0  0  0  0
 21 20  1  0  0  0  0
 22 21  1  0  0  0  0
 23 21  1  0  0  0  0
 24 26  1  0  0  0  0
 25 24  1  0  0  0  0
 28 27  1  0  0  0  0
 29 24  1  0  0  0  0
 29 28  2  0  0  0  0
 30 29  1  0  0  0  0
 31 30  1  0  0  0  0
 32 30  2  0  0  0  0
 32 34  1  0  0  0  0
 33 32  1  0  0  0  0
 34 35  2  0  0  0  0
 35 28  1  0  0  0  0
M  END
>  <minimizedAffinity>
-5.37627506

$$$$

 OpenBabel03252500523D

 35 37  0  0  0  0  0  0  0  0999 V2000
   36.8600   25.8610   39.2480 C   0  0  0  0  0  0  0  0  0  0  0  0
   35.8490   25.5070   38.6000 O   0  0  0  0  0  0  0  0  0  0  0  0
   38.3760   27.7480   39.5780 C   0  0  0  0  0  0  0  0  0  0  0  0
   37.0930   27.2870   39.4350 C   0  0  0  0  0  0  0  0  0  0  0  0
   35.9940   28.1720   39.4650 C   0  0  0  0  0  0  0  0  0  0  0  0
   36.2790   29.5040   39.6430 N   0  0  0  0  0  0  0  0  0  0  0  0
   37.5360   29.9350   39.7810 C   0  0  0  0  0  0  0  0  0  0  0  0
   38.5600   29.0680   39.7480 N   0  0  0  0  0  0  0  0  0  0  0  0
   39.2020   27.0760   39.5560 H   0  0  0  0  0  0  0  0  0  0  0  0
   34.9840   27.8320   39.3540 H   0  0  0  0  0  0  0  0  0  0  0  0
   37.8080   31.3490   39.9690 C   0  0  0  0  0  0  0  0  0  0  0  0
   37.0990   32.3230   39.3310 C   0  0  0  0  0  0  0  0  0  0  0  0
   37.3360   33.6580   39.4890 C   0  0  0  0  0  0  0  0  0  0  0  0
   38.3400   33.9980   40.3370 N   0  0  0  0  0  0  0  0  0  0  0  0
   39.0210   33.0520   40.9510 C   0  0  0  0  0  0  0  0  0  0  0  0
   38.8130   31.7270   40.8160 N   0  0  0  0  0  0  0  0  0  0  0  0
   36.2960   32.0200   38.6540 H   0  0  0  0  0  0  0  0  0  0  0  0
   36.7250   34.3860   38.9430 H   0  0  0  0  0  0  0  0  0  0  0  0
   39.8100   33.4230   41.6140 H   0  0  0  0  0  0  0  0  0  0  0  0
   37.5310   24.7420   39.6420 O   0  0  0  0  0  0  0  0  0  0  0  0
   37.1320   23.9330   40.6800 C   0  0  0  0  0  0  0  0  0  0  0  0
   37.7010   23.0120   40.8740 H   0  0  0  0  0  0  0  0  0  0  0  0
   36.1130   23.5390   40.3750 H   0  0  0  0  0  0  0  0  0  0  0  0
   36.8380   24.6800   41.9750 C   0  0  0  0  0  0  0  0  0  0  0  0
   36.1340   25.4980   41.7140 H   0  0  0  0  0  0  0  0  0  0  0  0
   36.3000   24.0470   42.6970 H   0  0  0  0  0  0  0  0  0  0  0  0
   36.5950   27.5600   42.9680 Cl  0  0  0  0  0  0  0  0  0  0  0  0
   38.0560   26.5960   43.0600 C   0  0  0  0  0  0  0  0  0  0  0  0
   38.0460   25.2920   42.5730 C   0  0  0  0  0  0  0  0  0  0  0  0
   39.2360   24.5610   42.6680 C   0  0  0  0  0  0  0  0  0  0  0  0
   39.1860   23.5360   42.2730 H   0  0  0  0  0  0  0  0  0  0  0  0
   40.3950   25.0990   43.2230 C   0  0  0  0  0  0  0  0  0  0  0  0
   41.2770   24.4400   43.2510 H   0  0  0  0  0  0  0  0  0  0  0  0
   40.3740   26.3970   43.6980 C   0  0  0  0  0  3  0  0  0  0  0  0
   39.1960   27.1310   43.6080 C   0  0  0  0  0  3  0  0  0  0  0  0
  1  4  1  0  0  0  0
  1 20  1  0  0  0  0
  2  1  2  0  0  0  0
  3  8  1  0  0  0  0
  4  5  1  0  0  0  0
  4  3  2  0  0  0  0
  5  6  2  0  0  0  0
  6  7  1  0  0  0  0
  7 11  1  0  0  0  0
  8  7  2  0  0  0  0
  9  3  1  0  0  0  0
 10  5  1  0  0  0  0
 11 16  1  0  0  0  0
 12 13  1  0  0  0  0
 12 11  2  0  0  0  0
 13 14  2  0  0  0  0
 14 15  1  0  0  0  0
 15 19  1  0  0  0  0
 16 15  2  0  0  0  0
 17 12  1  0  0  0  0
 18 13  1  0  0  0  0
 20 21  1  0  0  0  0
 21 22  1  0  0  0  0
 21 24  1  0  0  0  0
 23 21  1  0  0  0  0
 24 29  1  0  0  0  0
 24 26  1  0  0  0  0
 25 24  1  0  0  0  0
 27 28  1  0  0  0  0
 28 35  1  0  0  0  0
 29 30  1  0  0  0  0
 29 28  2  0  0  0  0
 30 32  2  0  0  0  0
 31 30  1  0  0  0  0
 32 33  1  0  0  0  0
 32 34  1  0  0  0  0
 35 34  2  0  0  0  0
M  END
>  <minimizedAffinity>
-5.36598444

$$$$

 OpenBabel03252500523D

 35 37  0  0  0  0  0  0  0  0999 V2000
   40.4060   31.9330   40.9270 C   0  0  0  0  0  0  0  0  0  0  0  0
   41.5870   32.2300   41.2170 O   0  0  0  0  0  0  0  0  0  0  0  0
   39.9620   29.6520   40.1720 C   0  0  0  0  0  0  0  0  0  0  0  0
   39.9540   30.5720   41.1880 C   0  0  0  0  0  0  0  0  0  0  0  0
   39.5180   30.2220   42.4840 C   0  0  0  0  0  0  0  0  0  0  0  0
   39.1060   28.9250   42.6670 N   0  0  0  0  0  0  0  0  0  0  0  0
   39.1200   28.0410   41.6640 C   0  0  0  0  0  0  0  0  0  0  0  0
   39.5410   28.4040   40.4430 N   0  0  0  0  0  0  0  0  0  0  0  0
   40.2920   29.9210   39.1960 H   0  0  0  0  0  0  0  0  0  0  0  0
   39.5050   30.9260   43.2910 H   0  0  0  0  0  0  0  0  0  0  0  0
   38.6770   26.6760   41.8870 C   0  0  0  0  0  0  0  0  0  0  0  0
   37.3780   26.2930   41.7340 C   0  0  0  0  0  0  0  0  0  0  0  0
   36.9370   25.0170   41.9390 C   0  0  0  0  0  0  0  0  0  0  0  0
   37.8720   24.1060   42.3140 N   0  0  0  0  0  0  0  0  0  0  0  0
   39.1250   24.4840   42.4590 C   0  0  0  0  0  0  0  0  0  0  0  0
   39.5930   25.7330   42.2650 N   0  0  0  0  0  0  0  0  0  0  0  0
   36.6470   27.0480   41.4330 H   0  0  0  0  0  0  0  0  0  0  0  0
   35.8770   24.7810   41.7980 H   0  0  0  0  0  0  0  0  0  0  0  0
   39.8050   23.6800   42.7630 H   0  0  0  0  0  0  0  0  0  0  0  0
   39.8010   33.0370   40.4050 O   0  0  0  0  0  0  0  0  0  0  0  0
   38.5260   33.4390   40.7290 C   0  0  0  0  0  0  0  0  0  0  0  0
   38.3920   34.4270   41.1940 H   0  0  0  0  0  0  0  0  0  0  0  0
   38.1890   32.7290   41.5460 H   0  0  0  0  0  0  0  0  0  0  0  0
   37.5010   33.2060   39.6260 C   0  0  0  0  0  0  0  0  0  0  0  0
   36.6470   33.8830   39.8410 H   0  0  0  0  0  0  0  0  0  0  0  0
   37.8840   33.5190   38.6420 H   0  0  0  0  0  0  0  0  0  0  0  0
   37.7030   31.6950   36.9770 Cl  0  0  0  0  0  0  0  0  0  0  0  0
   37.0270   31.0320   38.4520 C   0  0  0  0  0  0  0  0  0  0  0  0
   36.9880   31.8180   39.6000 C   0  0  0  0  0  0  0  0  0  0  0  0
   36.4380   31.2460   40.7540 C   0  0  0  0  0  0  0  0  0  0  0  0
   36.4260   31.8990   41.6380 H   0  0  0  0  0  0  0  0  0  0  0  0
   35.9430   29.9430   40.7720 C   0  0  0  0  0  0  0  0  0  0  0  0
   35.5320   29.5890   41.7310 H   0  0  0  0  0  0  0  0  0  0  0  0
   35.9950   29.1870   39.6170 C   0  0  0  0  0  3  0  0  0  0  0  0
   36.5390   29.7480   38.4650 C   0  0  0  0  0  3  0  0  0  0  0  0
  1  4  1  0  0  0  0
  1  2  2  0  0  0  0
  3  8  2  0  0  0  0
  3  4  1  0  0  0  0
  4  5  2  0  0  0  0
  5  6  1  0  0  0  0
  5 10  1  0  0  0  0
  7 11  1  0  0  0  0
  7  6  2  0  0  0  0
  8  7  1  0  0  0  0
  9  3  1  0  0  0  0
 11 16  1  0  0  0  0
 12 11  2  0  0  0  0
 12 13  1  0  0  0  0
 13 14  2  0  0  0  0
 14 15  1  0  0  0  0
 15 19  1  0  0  0  0
 16 15  2  0  0  0  0
 17 12  1  0  0  0  0
 18 13  1  0  0  0  0
 20 21  1  0  0  0  0
 20  1  1  0  0  0  0
 21 22  1  0  0  0  0
 21 23  1  0  0  0  0
 24 25  1  0  0  0  0
 24 21  1  0  0  0  0
 26 24  1  0  0  0  0
 27 28  1  0  0  0  0
 28 35  2  0  0  0  0
 28 29  1  0  0  0  0
 29 24  1  0  0  0  0
 29 30  2  0  0  0  0
 30 32  1  0  0  0  0
 30 31  1  0  0  0  0
 32 33  1  0  0  0  0
 34 32  2  0  0  0  0
 35 34  1  0  0  0  0
M  END
>  <minimizedAffinity>
-5.298316

$$$$

 OpenBabel03252500523D

 35 37  0  0  0  0  0  0  0  0999 V2000
   36.5400   26.0150   39.1570 C   0  0  0  0  0  0  0  0  0  0  0  0
   35.7360   25.7210   38.2440 O   0  0  0  0  0  0  0  0  0  0  0  0
   38.1200   27.8790   39.1420 C   0  0  0  0  0  0  0  0  0  0  0  0
   36.8490   27.4220   39.3770 C   0  0  0  0  0  0  0  0  0  0  0  0
   35.8330   28.2930   39.8260 C   0  0  0  0  0  0  0  0  0  0  0  0
   36.1850   29.6070   40.0140 N   0  0  0  0  0  0  0  0  0  0  0  0
   37.4290   30.0350   39.7810 C   0  0  0  0  0  0  0  0  0  0  0  0
   38.3730   29.1820   39.3530 N   0  0  0  0  0  0  0  0  0  0  0  0
   38.8820   27.2170   38.8040 H   0  0  0  0  0  0  0  0  0  0  0  0
   34.8330   27.9560   40.0140 H   0  0  0  0  0  0  0  0  0  0  0  0
   37.7740   31.4300   39.9890 C   0  0  0  0  0  0  0  0  0  0  0  0
   37.1030   32.4490   39.3810 C   0  0  0  0  0  0  0  0  0  0  0  0
   37.4090   33.7680   39.5580 C   0  0  0  0  0  0  0  0  0  0  0  0
   38.4430   34.0420   40.3930 N   0  0  0  0  0  0  0  0  0  0  0  0
   39.0870   33.0520   40.9770 C   0  0  0  0  0  0  0  0  0  0  0  0
   38.8120   31.7420   40.8230 N   0  0  0  0  0  0  0  0  0  0  0  0
   36.2750   32.1980   38.7130 H   0  0  0  0  0  0  0  0  0  0  0  0
   36.8250   34.5350   39.0360 H   0  0  0  0  0  0  0  0  0  0  0  0
   39.9060   33.3720   41.6320 H   0  0  0  0  0  0  0  0  0  0  0  0
   36.9500   24.8610   39.7560 O   0  0  0  0  0  0  0  0  0  0  0  0
   36.5090   24.4350   40.9860 C   0  0  0  0  0  0  0  0  0  0  0  0
   35.9660   23.4800   41.0450 H   0  0  0  0  0  0  0  0  0  0  0  0
   35.7230   25.1900   41.2980 H   0  0  0  0  0  0  0  0  0  0  0  0
   37.5500   24.5450   42.0930 C   0  0  0  0  0  0  0  0  0  0  0  0
   37.1250   24.0270   42.9790 H   0  0  0  0  0  0  0  0  0  0  0  0
   38.4700   23.9950   41.8430 H   0  0  0  0  0  0  0  0  0  0  0  0
   40.3980   25.5600   41.6470 Cl  0  0  0  0  0  0  0  0  0  0  0  0
   39.0940   26.5180   42.3220 C   0  0  0  0  0  0  0  0  0  0  0  0
   37.8350   25.9460   42.4790 C   0  0  0  0  0  0  0  0  0  0  0  0
   36.8260   26.7490   43.0220 C   0  0  0  0  0  0  0  0  0  0  0  0
   35.8470   26.2600   43.1290 H   0  0  0  0  0  0  0  0  0  0  0  0
   37.0520   28.0720   43.3980 C   0  0  0  0  0  0  0  0  0  0  0  0
   36.1900   28.6170   43.8150 H   0  0  0  0  0  0  0  0  0  0  0  0
   38.3130   28.6130   43.2310 C   0  0  0  0  0  3  0  0  0  0  0  0
   39.3230   27.8220   42.6920 C   0  0  0  0  0  3  0  0  0  0  0  0
  1  4  1  0  0  0  0
  1 20  1  0  0  0  0
  2  1  2  0  0  0  0
  3  8  2  0  0  0  0
  3  4  1  0  0  0  0
  4  5  2  0  0  0  0
  5  6  1  0  0  0  0
  5 10  1  0  0  0  0
  7 11  1  0  0  0  0
  7  6  2  0  0  0  0
  8  7  1  0  0  0  0
  9  3  1  0  0  0  0
 11 16  1  0  0  0  0
 12 13  1  0  0  0  0
 12 11  2  0  0  0  0
 13 14  2  0  0  0  0
 14 15  1  0  0  0  0
 15 19  1  0  0  0  0
 16 15  2  0  0  0  0
 17 12  1  0  0  0  0
 18 13  1  0  0  0  0
 20 21  1  0  0  0  0
 21 22  1  0  0  0  0
 21 23  1  0  0  0  0
 21 24  1  0  0  0  0
 24 29  1  0  0  0  0
 24 25  1  0  0  0  0
 26 24  1  0  0  0  0
 27 28  1  0  0  0  0
 28 29  2  0  0  0  0
 28 35  1  0  0  0  0
 29 30  1  0  0  0  0
 30 31  1  0  0  0  0
 30 32  2  0  0  0  0
 32 33  1  0  0  0  0
 34 32  1  0  0  0  0
 35 34  2  0  0  0  0
M  END
>  <minimizedAffinity>
-5.27263594

$$$$

 OpenBabel03252500523D

 35 37  0  0  0  0  0  0  0  0999 V2000
   34.9390   28.4140   35.3160 C   0  0  0  0  0  0  0  0  0  0  0  0
   35.4070   28.3930   34.1540 O   0  0  0  0  0  0  0  0  0  0  0  0
   36.7060   29.9750   35.9570 C   0  0  0  0  0  0  0  0  0  0  0  0
   35.6330   29.2060   36.3240 C   0  0  0  0  0  0  0  0  0  0  0  0
   35.1860   29.1680   37.6620 C   0  0  0  0  0  0  0  0  0  0  0  0
   35.8800   29.9370   38.5650 N   0  0  0  0  0  0  0  0  0  0  0  0
   36.9250   30.6800   38.1900 C   0  0  0  0  0  0  0  0  0  0  0  0
   37.3240   30.6950   36.9090 N   0  0  0  0  0  0  0  0  0  0  0  0
   37.0380   29.9990   34.9460 H   0  0  0  0  0  0  0  0  0  0  0  0
   34.3490   28.5740   37.9690 H   0  0  0  0  0  0  0  0  0  0  0  0
   37.6400   31.4820   39.1670 C   0  0  0  0  0  0  0  0  0  0  0  0
   38.6150   30.9650   39.9670 C   0  0  0  0  0  0  0  0  0  0  0  0
   39.3000   31.6970   40.8940 C   0  0  0  0  0  0  0  0  0  0  0  0
   38.9670   33.0090   40.9960 N   0  0  0  0  0  0  0  0  0  0  0  0
   38.0230   33.5010   40.2190 C   0  0  0  0  0  0  0  0  0  0  0  0
   37.3290   32.8080   39.2970 N   0  0  0  0  0  0  0  0  0  0  0  0
   38.8620   29.9050   39.8630 H   0  0  0  0  0  0  0  0  0  0  0  0
   40.0730   31.2140   41.5020 H   0  0  0  0  0  0  0  0  0  0  0  0
   37.8240   34.5680   40.3740 H   0  0  0  0  0  0  0  0  0  0  0  0
   33.8210   27.6360   35.3420 O   0  0  0  0  0  0  0  0  0  0  0  0
   32.5680   28.1010   35.6670 C   0  0  0  0  0  0  0  0  0  0  0  0
   32.2160   27.9730   36.7010 H   0  0  0  0  0  0  0  0  0  0  0  0
   31.8480   27.4570   35.0750 H   0  0  0  0  0  0  0  0  0  0  0  0
   32.2740   29.5060   35.1550 C   0  0  0  0  0  0  0  0  0  0  0  0
   33.2530   30.0220   35.0700 H   0  0  0  0  0  0  0  0  0  0  0  0
   31.8590   29.4890   34.1360 H   0  0  0  0  0  0  0  0  0  0  0  0
   31.2870   32.2260   34.1730 Cl  0  0  0  0  0  0  0  0  0  0  0  0
   30.9170   31.5410   35.7430 C   0  0  0  0  0  0  0  0  0  0  0  0
   31.4250   30.2900   36.0800 C   0  0  0  0  0  0  0  0  0  0  0  0
   31.1030   29.7830   37.3450 C   0  0  0  0  0  0  0  0  0  0  0  0
   31.5230   28.7930   37.5720 H   0  0  0  0  0  0  0  0  0  0  0  0
   30.3070   30.4890   38.2460 C   0  0  0  0  0  0  0  0  0  0  0  0
   30.1130   30.0010   39.2150 H   0  0  0  0  0  0  0  0  0  0  0  0
   29.8170   31.7290   37.8840 C   0  0  0  0  0  3  0  0  0  0  0  0
   30.1330   32.2410   36.6290 C   0  0  0  0  0  3  0  0  0  0  0  0
  1 20  1  0  0  0  0
  1  4  1  0  0  0  0
  2  1  2  0  0  0  0
  3  4  2  0  0  0  0
  3  8  1  0  0  0  0
  4  5  1  0  0  0  0
  5 10  1  0  0  0  0
  5  6  2  0  0  0  0
  7  6  1  0  0  0  0
  7 11  1  0  0  0  0
  8  7  2  0  0  0  0
  9  3  1  0  0  0  0
 11 16  2  0  0  0  0
 11 12  1  0  0  0  0
 12 13  2  0  0  0  0
 13 14  1  0  0  0  0
 13 18  1  0  0  0  0
 15 19  1  0  0  0  0
 15 14  2  0  0  0  0
 16 15  1  0  0  0  0
 17 12  1  0  0  0  0
 20 21  1  0  0  0  0
 21 22  1  0  0  0  0
 23 21  1  0  0  0  0
 24 21  1  0  0  0  0
 24 29  1  0  0  0  0
 25 24  1  0  0  0  0
 26 24  1  0  0  0  0
 27 28  1  0  0  0  0
 28 29  2  0  0  0  0
 28 35  1  0  0  0  0
 29 30  1  0  0  0  0
 30 31  1  0  0  0  0
 30 32  2  0  0  0  0
 32 33  1  0  0  0  0
 34 32  1  0  0  0  0
 35 34  2  0  0  0  0
M  END
>  <minimizedAffinity>
-5.18126011

$$$$

 OpenBabel03252500523D

 35 37  0  0  0  0  0  0  0  0999 V2000
   34.8510   28.5900   35.9560 C   0  0  0  0  0  0  0  0  0  0  0  0
   35.3300   29.4990   35.2410 O   0  0  0  0  0  0  0  0  0  0  0  0
   35.7130   29.5000   38.0530 C   0  0  0  0  0  0  0  0  0  0  0  0
   35.3990   28.4030   37.2930 C   0  0  0  0  0  0  0  0  0  0  0  0
   35.5970   27.0950   37.7850 C   0  0  0  0  0  0  0  0  0  0  0  0
   36.1150   26.9850   39.0530 N   0  0  0  0  0  0  0  0  0  0  0  0
   36.4160   28.0660   39.7790 C   0  0  0  0  0  0  0  0  0  0  0  0
   36.2160   29.2960   39.2830 N   0  0  0  0  0  0  0  0  0  0  0  0
   35.5620   30.4840   37.6760 H   0  0  0  0  0  0  0  0  0  0  0  0
   35.3570   26.2250   37.2080 H   0  0  0  0  0  0  0  0  0  0  0  0
   36.9650   27.9190   41.1160 C   0  0  0  0  0  0  0  0  0  0  0  0
   37.0860   28.9690   41.9780 C   0  0  0  0  0  0  0  0  0  0  0  0
   37.5990   28.8570   43.2370 C   0  0  0  0  0  0  0  0  0  0  0  0
   38.0010   27.6180   43.6200 N   0  0  0  0  0  0  0  0  0  0  0  0
   37.8810   26.6090   42.7820 C   0  0  0  0  0  0  0  0  0  0  0  0
   37.3800   26.6850   41.5330 N   0  0  0  0  0  0  0  0  0  0  0  0
   36.7540   29.9550   41.6420 H   0  0  0  0  0  0  0  0  0  0  0  0
   37.6660   29.7450   43.8760 H   0  0  0  0  0  0  0  0  0  0  0  0
   38.2320   25.6490   43.1790 H   0  0  0  0  0  0  0  0  0  0  0  0
   33.8680   27.9620   35.2500 O   0  0  0  0  0  0  0  0  0  0  0  0
   32.5290   28.0580   35.5480 C   0  0  0  0  0  0  0  0  0  0  0  0
   31.9330   27.1330   35.5810 H   0  0  0  0  0  0  0  0  0  0  0  0
   32.0700   28.6210   34.6780 H   0  0  0  0  0  0  0  0  0  0  0  0
   32.2180   28.9550   36.7400 C   0  0  0  0  0  0  0  0  0  0  0  0
   31.5700   28.3620   37.4200 H   0  0  0  0  0  0  0  0  0  0  0  0
   33.1230   29.1860   37.3220 H   0  0  0  0  0  0  0  0  0  0  0  0
   30.2670   30.0970   38.7960 Cl  0  0  0  0  0  0  0  0  0  0  0  0
   30.5660   30.7920   37.2150 C   0  0  0  0  0  0  0  0  0  0  0  0
   31.4800   30.1810   36.3610 C   0  0  0  0  0  0  0  0  0  0  0  0
   31.6860   30.7710   35.1090 C   0  0  0  0  0  0  0  0  0  0  0  0
   32.4150   30.2580   34.4650 H   0  0  0  0  0  0  0  0  0  0  0  0
   31.0110   31.9250   34.7120 C   0  0  0  0  0  0  0  0  0  0  0  0
   31.2460   32.3080   33.7070 H   0  0  0  0  0  0  0  0  0  0  0  0
   30.1090   32.5090   35.5810 C   0  0  0  0  0  3  0  0  0  0  0  0
   29.8980   31.9290   36.8280 C   0  0  0  0  0  3  0  0  0  0  0  0
  1  4  1  0  0  0  0
  2  1  2  0  0  0  0
  3  8  1  0  0  0  0
  4  5  1  0  0  0  0
  4  3  2  0  0  0  0
  5  6  2  0  0  0  0
  6  7  1  0  0  0  0
  7 11  1  0  0  0  0
  8  7  2  0  0  0  0
  9  3  1  0  0  0  0
 10  5  1  0  0  0  0
 11 16  2  0  0  0  0
 11 12  1  0  0  0  0
 12 13  2  0  0  0  0
 13 14  1  0  0  0  0
 13 18  1  0  0  0  0
 15 19  1  0  0  0  0
 15 14  2  0  0  0  0
 16 15  1  0  0  0  0
 17 12  1  0  0  0  0
 20 21  1  0  0  0  0
 20  1  1  0  0  0  0
 21 22  1  0  0  0  0
 21 24  1  0  0  0  0
 23 21  1  0  0  0  0
 24 26  1  0  0  0  0
 24 25  1  0  0  0  0
 28 27  1  0  0  0  0
 29 24  1  0  0  0  0
 29 28  2  0  0  0  0
 30 29  1  0  0  0  0
 31 30  1  0  0  0  0
 32 30  2  0  0  0  0
 32 34  1  0  0  0  0
 33 32  1  0  0  0  0
 34 35  2  0  0  0  0
 35 28  1  0  0  0  0
M  END
>  <minimizedAffinity>
-5.07351589

$$$$

 OpenBabel03252500523D

 35 37  0  0  0  0  0  0  0  0999 V2000
   35.2270   27.5650   37.4870 C   0  0  0  0  0  0  0  0  0  0  0  0
   35.7560   27.7520   36.3680 O   0  0  0  0  0  0  0  0  0  0  0  0
   36.2190   25.9120   38.9880 C   0  0  0  0  0  0  0  0  0  0  0  0
   36.0920   27.2230   38.6100 C   0  0  0  0  0  0  0  0  0  0  0  0
   36.7850   28.2490   39.2880 C   0  0  0  0  0  0  0  0  0  0  0  0
   37.5850   27.8640   40.3360 N   0  0  0  0  0  0  0  0  0  0  0  0
   37.6970   26.5810   40.6920 C   0  0  0  0  0  0  0  0  0  0  0  0
   37.0240   25.6290   40.0270 N   0  0  0  0  0  0  0  0  0  0  0  0
   35.6930   25.1430   38.4730 H   0  0  0  0  0  0  0  0  0  0  0  0
   36.7000   29.2790   39.0070 H   0  0  0  0  0  0  0  0  0  0  0  0
   38.5490   26.2020   41.8060 C   0  0  0  0  0  0  0  0  0  0  0  0
   39.1600   24.9860   41.8800 C   0  0  0  0  0  0  0  0  0  0  0  0
   39.9630   24.6060   42.9170 C   0  0  0  0  0  0  0  0  0  0  0  0
   40.1410   25.5150   43.9100 N   0  0  0  0  0  0  0  0  0  0  0  0
   39.5470   26.6880   43.8300 C   0  0  0  0  0  0  0  0  0  0  0  0
   38.7490   27.0940   42.8240 N   0  0  0  0  0  0  0  0  0  0  0  0
   38.9980   24.2750   41.0670 H   0  0  0  0  0  0  0  0  0  0  0  0
   40.4230   23.6110   42.9100 H   0  0  0  0  0  0  0  0  0  0  0  0
   39.7500   27.3530   44.6780 H   0  0  0  0  0  0  0  0  0  0  0  0
   33.8820   27.7420   37.3600 O   0  0  0  0  0  0  0  0  0  0  0  0
   33.2890   28.9520   37.0860 C   0  0  0  0  0  0  0  0  0  0  0  0
   33.8330   29.6690   36.4540 H   0  0  0  0  0  0  0  0  0  0  0  0
   33.2330   29.4880   38.0830 H   0  0  0  0  0  0  0  0  0  0  0  0
   31.8270   28.8490   36.6680 C   0  0  0  0  0  0  0  0  0  0  0  0
   31.8110   28.2740   35.7180 H   0  0  0  0  0  0  0  0  0  0  0  0
   31.2400   28.2530   37.3840 H   0  0  0  0  0  0  0  0  0  0  0  0
   30.0810   30.0200   38.8860 Cl  0  0  0  0  0  0  0  0  0  0  0  0
   30.3930   30.8010   37.3480 C   0  0  0  0  0  0  0  0  0  0  0  0
   31.2070   30.1690   36.4120 C   0  0  0  0  0  0  0  0  0  0  0  0
   31.4270   30.8300   35.1990 C   0  0  0  0  0  0  0  0  0  0  0  0
   32.0750   30.2980   34.4880 H   0  0  0  0  0  0  0  0  0  0  0  0
   30.8610   32.0730   34.9180 C   0  0  0  0  0  0  0  0  0  0  0  0
   31.0970   32.5070   33.9330 H   0  0  0  0  0  0  0  0  0  0  0  0
   30.0570   32.6760   35.8660 C   0  0  0  0  0  3  0  0  0  0  0  0
   29.8320   32.0250   37.0750 C   0  0  0  0  0  3  0  0  0  0  0  0
  1  4  1  0  0  0  0
  2  1  2  0  0  0  0
  3  8  1  0  0  0  0
  4  3  2  0  0  0  0
  4  5  1  0  0  0  0
  5  6  2  0  0  0  0
  6  7  1  0  0  0  0
  7 11  1  0  0  0  0
  8  7  2  0  0  0  0
  9  3  1  0  0  0  0
 10  5  1  0  0  0  0
 11 12  2  0  0  0  0
 11 16  1  0  0  0  0
 12 13  1  0  0  0  0
 13 14  2  0  0  0  0
 15 14  1  0  0  0  0
 15 19  1  0  0  0  0
 16 15  2  0  0  0  0
 17 12  1  0  0  0  0
 18 13  1  0  0  0  0
 20  1  1  0  0  0  0
 21 20  1  0  0  0  0
 21 23  1  0  0  0  0
 22 21  1  0  0  0  0
 24 21  1  0  0  0  0
 24 26  1  0  0  0  0
 25 24  1  0  0  0  0
 28 27  1  0  0  0  0
 29 24  1  0  0  0  0
 29 28  2  0  0  0  0
 30 29  1  0  0  0  0
 31 30  1  0  0  0  0
 32 30  2  0  0  0  0
 32 34  1  0  0  0  0
 33 32  1  0  0  0  0
 34 35  2  0  0  0  0
 35 28  1  0  0  0  0
M  END
>  <minimizedAffinity>
-5.06695843

$$$$

 OpenBabel03252500523D

 35 37  0  0  0  0  0  0  0  0999 V2000
   37.2110   28.3860   37.0090 C   0  0  0  0  0  0  0  0  0  0  0  0
   37.4690   27.9080   35.8810 O   0  0  0  0  0  0  0  0  0  0  0  0
   37.5030   30.7830   37.3820 C   0  0  0  0  0  0  0  0  0  0  0  0
   38.0080   29.5120   37.4790 C   0  0  0  0  0  0  0  0  0  0  0  0
   39.2860   29.2760   38.0280 C   0  0  0  0  0  0  0  0  0  0  0  0
   39.9880   30.3780   38.4540 N   0  0  0  0  0  0  0  0  0  0  0  0
   39.4800   31.6100   38.3510 C   0  0  0  0  0  0  0  0  0  0  0  0
   38.2610   31.8010   37.8240 N   0  0  0  0  0  0  0  0  0  0  0  0
   36.5380   30.9550   36.9660 H   0  0  0  0  0  0  0  0  0  0  0  0
   39.6980   28.2910   38.1140 H   0  0  0  0  0  0  0  0  0  0  0  0
   40.2450   32.7560   38.8080 C   0  0  0  0  0  0  0  0  0  0  0  0
   39.9330   33.4390   39.9470 C   0  0  0  0  0  0  0  0  0  0  0  0
   40.6340   34.5200   40.3960 C   0  0  0  0  0  0  0  0  0  0  0  0
   41.6950   34.9090   39.6430 N   0  0  0  0  0  0  0  0  0  0  0  0
   41.9900   34.2450   38.5450 C   0  0  0  0  0  0  0  0  0  0  0  0
   41.3190   33.1760   38.0730 N   0  0  0  0  0  0  0  0  0  0  0  0
   39.0730   33.1030   40.5320 H   0  0  0  0  0  0  0  0  0  0  0  0
   40.3260   35.0200   41.3210 H   0  0  0  0  0  0  0  0  0  0  0  0
   42.8610   34.6340   38.0040 H   0  0  0  0  0  0  0  0  0  0  0  0
   36.1760   27.6810   37.5480 O   0  0  0  0  0  0  0  0  0  0  0  0
   35.7940   27.7650   38.8660 C   0  0  0  0  0  0  0  0  0  0  0  0
   34.7190   27.7500   39.1000 H   0  0  0  0  0  0  0  0  0  0  0  0
   36.1080   28.8010   39.2010 H   0  0  0  0  0  0  0  0  0  0  0  0
   36.5730   26.8490   39.8010 C   0  0  0  0  0  0  0  0  0  0  0  0
   35.8940   26.0080   40.0570 H   0  0  0  0  0  0  0  0  0  0  0  0
   37.4350   26.3880   39.2940 H   0  0  0  0  0  0  0  0  0  0  0  0
   36.9330   25.0730   42.2620 Cl  0  0  0  0  0  0  0  0  0  0  0  0
   37.1640   26.8110   42.2460 C   0  0  0  0  0  0  0  0  0  0  0  0
   36.9710   27.5160   41.0610 C   0  0  0  0  0  0  0  0  0  0  0  0
   37.1660   28.9010   41.0970 C   0  0  0  0  0  0  0  0  0  0  0  0
   37.0030   29.4200   40.1420 H   0  0  0  0  0  0  0  0  0  0  0  0
   37.5390   29.5680   42.2630 C   0  0  0  0  0  0  0  0  0  0  0  0
   37.6670   30.6590   42.1840 H   0  0  0  0  0  0  0  0  0  0  0  0
   37.7240   28.8410   43.4240 C   0  0  0  0  0  3  0  0  0  0  0  0
   37.5310   27.4640   43.3980 C   0  0  0  0  0  3  0  0  0  0  0  0
  1  4  1  0  0  0  0
  1 20  1  0  0  0  0
  2  1  2  0  0  0  0
  3  4  2  0  0  0  0
  3  8  1  0  0  0  0
  4  5  1  0  0  0  0
  5 10  1  0  0  0  0
  5  6  2  0  0  0  0
  7  6  1  0  0  0  0
  7 11  1  0  0  0  0
  8  7  2  0  0  0  0
  9  3  1  0  0  0  0
 11 12  1  0  0  0  0
 12 13  2  0  0  0  0
 12 17  1  0  0  0  0
 13 18  1  0  0  0  0
 14 13  1  0  0  0  0
 15 14  2  0  0  0  0
 16 15  1  0  0  0  0
 16 11  2  0  0  0  0
 19 15  1  0  0  0  0
 20 21  1  0  0  0  0
 21 22  1  0  0  0  0
 21 23  1  0  0  0  0
 21 24  1  0  0  0  0
 24 25  1  0  0  0  0
 24 29  1  0  0  0  0
 26 24  1  0  0  0  0
 28 27  1  0  0  0  0
 28 35  1  0  0  0  0
 29 30  1  0  0  0  0
 29 28  2  0  0  0  0
 30 32  2  0  0  0  0
 31 30  1  0  0  0  0
 32 34  1  0  0  0  0
 33 32  1  0  0  0  0
 35 34  2  0  0  0  0
M  END
>  <minimizedAffinity>
-5.05284214

$$$$
