
 OpenBabel03252508463D

 45 47  0  0  0  0  0  0  0  0999 V2000
   42.5570   31.6710   42.5620 N   0  0  0  0  0  0  0  0  0  0  0  0
   42.6420   32.0190   43.5450 H   0  0  0  0  0  0  0  0  0  0  0  0
   43.1370   32.5570   41.6060 C   0  0  0  0  0  0  0  0  0  0  0  0
   42.3130   33.0280   40.9930 H   0  0  0  0  0  0  0  0  0  0  0  0
   43.7540   32.0230   40.8320 H   0  0  0  0  0  0  0  0  0  0  0  0
   43.6970   34.9800   41.8870 C   0  0  0  0  0  0  0  0  0  0  0  0
   43.9710   33.6520   42.1770 C   0  0  0  0  0  0  0  0  0  0  0  0
   45.0320   33.3700   43.0030 C   0  0  0  0  0  0  0  0  0  0  0  0
   45.7900   34.3790   43.5200 C   0  0  0  0  0  0  0  0  0  0  0  0
   45.5380   35.7060   43.2470 C   0  0  0  0  0  0  0  0  0  0  0  0
   44.4610   35.9500   42.4100 C   0  0  0  0  0  0  0  0  0  0  0  0
   45.2140   32.3160   43.2060 H   0  0  0  0  0  0  0  0  0  0  0  0
   46.6150   34.0800   44.1680 H   0  0  0  0  0  0  0  0  0  0  0  0
   46.1580   36.4840   43.6720 H   0  0  0  0  0  0  0  0  0  0  0  0
   44.2390   36.9880   42.1760 H   0  0  0  0  0  0  0  0  0  0  0  0
   40.2640   35.8070   40.5170 C   0  0  0  0  0  0  0  0  0  0  0  0
   41.2920   35.6040   41.4590 C   0  0  0  0  0  0  0  0  0  0  0  0
   42.5540   35.2200   41.0020 C   0  0  0  0  0  0  0  0  0  0  0  0
   42.7120   35.0630   39.6640 N   0  0  0  0  0  0  0  0  0  0  0  0
   41.7020   35.2660   38.7750 C   0  0  0  0  0  0  0  0  0  0  0  0
   40.4950   35.6350   39.2200 N   0  0  0  0  0  0  0  0  0  0  0  0
   39.3160   36.1010   40.9180 H   0  0  0  0  0  0  0  0  0  0  0  0
   41.1630   35.7310   42.5370 H   0  0  0  0  0  0  0  0  0  0  0  0
   41.9820   35.1020   37.7420 H   0  0  0  0  0  0  0  0  0  0  0  0
   40.8870   31.3710   42.2630 S   0  0  0  0  0  0  0  0  0  0  0  0
   40.0660   32.6210   42.4410 O   0  0  0  0  0  0  0  0  0  0  0  0
   39.4010   32.9790   41.7950 H   0  0  0  0  0  0  0  0  0  0  0  0
   40.3670   30.2850   43.1260 O   0  0  0  0  0  0  0  0  0  0  0  0
   39.5540   30.3520   43.6500 H   0  0  0  0  0  0  0  0  0  0  0  0
   40.7620   30.8950   40.6490 O   0  0  0  0  0  0  0  0  0  0  0  0
   39.5380   30.2470   40.5080 C   0  0  0  0  0  0  0  0  0  0  0  0
   38.8860   30.2840   41.3760 H   0  0  0  0  0  0  0  0  0  0  0  0
   38.9940   30.7620   39.6730 H   0  0  0  0  0  0  0  0  0  0  0  0
   39.7770   28.8250   40.0250 C   0  0  0  0  0  0  0  0  0  0  0  0
   39.8080   28.1850   40.9450 H   0  0  0  0  0  0  0  0  0  0  0  0
   40.7050   28.7420   39.4390 H   0  0  0  0  0  0  0  0  0  0  0  0
   37.3010   27.6090   41.4280 Cl  0  0  0  0  0  0  0  0  0  0  0  0
   37.4750   27.8980   39.7140 C   0  0  0  0  0  0  0  0  0  0  0  0
   38.6310   28.4470   39.1680 C   0  0  0  0  0  0  0  0  0  0  0  0
   38.6470   28.6180   37.7990 C   0  0  0  0  0  0  0  0  0  0  0  0
   39.5270   29.0480   37.3000 H   0  0  0  0  0  0  0  0  0  0  0  0
   37.5660   28.2580   37.0210 C   0  0  0  0  0  0  0  0  0  0  0  0
   37.5300   28.3740   35.9270 H   0  0  0  0  0  0  0  0  0  0  0  0
   36.4170   27.7140   37.5540 C   0  0  0  0  0  3  0  0  0  0  0  0
   36.3860   27.5380   38.9080 C   0  0  0  0  0  3  0  0  0  0  0  0
  1  2  1  0  0  0  0
  3  7  1  0  0  0  0
  3  1  1  0  0  0  0
  4  3  1  0  0  0  0
  5  3  1  0  0  0  0
  6  7  2  0  0  0  0
  6 11  1  0  0  0  0
  7  8  1  0  0  0  0
  8 12  1  0  0  0  0
  8  9  2  0  0  0  0
  9 13  1  0  0  0  0
 10  9  1  0  0  0  0
 10 14  1  0  0  0  0
 11 10  2  0  0  0  0
 15 11  1  0  0  0  0
 16 22  1  0  0  0  0
 16 17  1  0  0  0  0
 17 23  1  0  0  0  0
 18 17  2  0  0  0  0
 18  6  1  0  0  0  0
 19 18  1  0  0  0  0
 20 21  1  0  0  0  0
 20 19  2  0  0  0  0
 21 16  2  0  0  0  0
 24 20  1  0  0  0  0
 25 26  1  0  0  0  0
 25  1  1  0  0  0  0
 25 28  1  0  0  0  0
 27 26  1  0  0  0  0
 28 29  1  0  0  0  0
 30 25  1  0  0  0  0
 31 30  1  0  0  0  0
 31 32  1  0  0  0  0
 33 31  1  0  0  0  0
 34 31  1  0  0  0  0
 34 35  1  0  0  0  0
 36 34  1  0  0  0  0
 38 37  1  0  0  0  0
 39 38  1  0  0  0  0
 39 34  1  0  0  0  0
 40 39  2  0  0  0  0
 41 40  1  0  0  0  0
 42 44  2  0  0  0  0
 42 40  1  0  0  0  0
 43 42  1  0  0  0  0
 44 45  1  0  0  0  0
 45 38  2  0  0  0  0
M  END
>  <minimizedAffinity>
-5.20836687

>  <minimizedRMSD>
2.55398011

$$$$
