
 OpenBabel03252500513D

 35 37  0  0  0  0  0  0  0  0999 V2000
   44.3460   34.9660   41.9930 C   0  0  0  0  0  0  0  0  0  0  0  0
   45.0720   34.8360   40.9810 O   0  0  0  0  0  0  0  0  0  0  0  0
   44.7890   35.1040   44.3920 C   0  0  0  0  0  0  0  0  0  0  0  0
   44.7900   34.3590   43.2420 C   0  0  0  0  0  0  0  0  0  0  0  0
   45.2110   33.0120   43.2460 C   0  0  0  0  0  0  0  0  0  0  0  0
   45.6160   32.4970   44.4540 N   0  0  0  0  0  0  0  0  0  0  0  0
   45.6100   33.2380   45.5650 C   0  0  0  0  0  0  0  0  0  0  0  0
   45.2020   34.5160   45.5280 N   0  0  0  0  0  0  0  0  0  0  0  0
   44.4700   36.1200   44.3820 H   0  0  0  0  0  0  0  0  0  0  0  0
   45.2190   32.4120   42.3590 H   0  0  0  0  0  0  0  0  0  0  0  0
   46.0440   32.6670   46.8280 C   0  0  0  0  0  0  0  0  0  0  0  0
   47.3060   32.1870   47.0190 C   0  0  0  0  0  0  0  0  0  0  0  0
   47.7370   31.6440   48.1950 C   0  0  0  0  0  0  0  0  0  0  0  0
   46.8350   31.5970   49.2080 N   0  0  0  0  0  0  0  0  0  0  0  0
   45.6180   32.0630   49.0150 C   0  0  0  0  0  0  0  0  0  0  0  0
   45.1600   32.6040   47.8690 N   0  0  0  0  0  0  0  0  0  0  0  0
   48.0110   32.2370   46.1860 H   0  0  0  0  0  0  0  0  0  0  0  0
   48.7670   31.2770   48.2770 H   0  0  0  0  0  0  0  0  0  0  0  0
   44.9610   31.9820   49.8900 H   0  0  0  0  0  0  0  0  0  0  0  0
   43.2490   35.6950   41.6440 O   0  0  0  0  0  0  0  0  0  0  0  0
   41.9750   35.1820   41.5810 C   0  0  0  0  0  0  0  0  0  0  0  0
   41.5000   34.8470   42.5150 H   0  0  0  0  0  0  0  0  0  0  0  0
   42.0700   34.2210   40.9880 H   0  0  0  0  0  0  0  0  0  0  0  0
   41.0110   36.0110   40.7400 C   0  0  0  0  0  0  0  0  0  0  0  0
   40.3460   36.5410   41.4530 H   0  0  0  0  0  0  0  0  0  0  0  0
   41.5350   36.8010   40.1810 H   0  0  0  0  0  0  0  0  0  0  0  0
   41.6130   36.1060   37.7450 Cl  0  0  0  0  0  0  0  0  0  0  0  0
   40.3410   35.1450   38.4740 C   0  0  0  0  0  0  0  0  0  0  0  0
   40.1620   35.1830   39.8540 C   0  0  0  0  0  0  0  0  0  0  0  0
   39.1340   34.3990   40.3910 C   0  0  0  0  0  0  0  0  0  0  0  0
   39.0250   34.4570   41.4840 H   0  0  0  0  0  0  0  0  0  0  0  0
   38.3110   33.6060   39.5930 C   0  0  0  0  0  0  0  0  0  0  0  0
   37.5320   33.0280   40.1140 H   0  0  0  0  0  0  0  0  0  0  0  0
   38.5130   33.5890   38.2260 C   0  0  0  0  0  0  0  0  0  0  0  0
   39.5330   34.3660   37.6830 C   0  0  0  0  0  0  0  0  0  0  0  0
  1  4  1  0  0  0  0
  2  1  2  0  0  0  0
  3  8  1  0  0  0  0
  4  5  1  0  0  0  0
  4  3  2  0  0  0  0
  5  6  2  0  0  0  0
  6  7  1  0  0  0  0
  7 11  1  0  0  0  0
  8  7  2  0  0  0  0
  9  3  1  0  0  0  0
 10  5  1  0  0  0  0
 11 12  2  0  0  0  0
 11 16  1  0  0  0  0
 12 13  1  0  0  0  0
 13 18  1  0  0  0  0
 13 14  2  0  0  0  0
 15 14  1  0  0  0  0
 15 19  1  0  0  0  0
 16 15  2  0  0  0  0
 17 12  1  0  0  0  0
 20  1  1  0  0  0  0
 21 20  1  0  0  0  0
 21 22  1  0  0  0  0
 23 21  1  0  0  0  0
 24 25  1  0  0  0  0
 24 21  1  0  0  0  0
 26 24  1  0  0  0  0
 27 28  1  0  0  0  0
 28 29  1  0  0  0  0
 29 30  2  0  0  0  0
 29 24  1  0  0  0  0
 30 31  1  0  0  0  0
 32 33  1  0  0  0  0
 32 30  1  0  0  0  0
 34 32  2  0  0  0  0
 35 34  1  0  0  0  0
 35 28  2  0  0  0  0
M  END
>  <minimizedAffinity>
-6.71456861

>  <minimizedRMSD>
0.887139201

$$$$
