
 OpenBabel03242522403D

 40 42  0  0  0  0  0  0  0  0999 V2000
   37.3460   29.4680   39.0650 C   0  0  0  0  0  0  0  0  0  0  0  0
   38.0690   29.7350   38.2410 H   0  0  0  0  0  0  0  0  0  0  0  0
   37.3860   30.3060   39.7550 H   0  0  0  0  0  0  0  0  0  0  0  0
   35.9430   29.2570   37.0060 C   0  0  0  0  0  0  0  0  0  0  0  0
   36.0400   29.2750   38.4270 C   0  0  0  0  0  0  0  0  0  0  0  0
   34.8650   29.1130   39.1620 C   0  0  0  0  0  0  0  0  0  0  0  0
   33.7000   28.9460   38.4940 N   0  0  0  0  0  0  0  0  0  0  0  0
   33.6540   28.9340   37.1530 C   0  0  0  0  0  0  0  0  0  0  0  0
   34.7460   29.0860   36.4130 N   0  0  0  0  0  0  0  0  0  0  0  0
   36.8570   29.3850   36.4770 H   0  0  0  0  0  0  0  0  0  0  0  0
   34.9000   29.1210   40.2360 H   0  0  0  0  0  0  0  0  0  0  0  0
   32.3140   28.7270   36.5000 C   0  0  0  0  0  0  0  0  0  0  0  0
   32.4410   28.0520   35.6250 H   0  0  0  0  0  0  0  0  0  0  0  0
   31.6940   28.1740   37.2230 H   0  0  0  0  0  0  0  0  0  0  0  0
   30.5200   30.1960   38.5050 Cl  0  0  0  0  0  0  0  0  0  0  0  0
   30.8520   30.7350   36.8660 C   0  0  0  0  0  0  0  0  0  0  0  0
   31.6710   29.9760   36.0860 C   0  0  0  0  0  0  0  0  0  0  0  0
   31.9090   30.4380   34.7910 C   0  0  0  0  0  0  0  0  0  0  0  0
   32.5630   29.8620   34.1250 H   0  0  0  0  0  0  0  0  0  0  0  0
   31.3560   31.6120   34.2850 C   0  0  0  0  0  0  0  0  0  0  0  0
   31.5910   31.9050   33.2630 H   0  0  0  0  0  0  0  0  0  0  0  0
   30.5260   32.3550   35.1170 C   0  0  0  0  0  3  0  0  0  0  0  0
   30.2660   31.9190   36.4180 C   0  0  0  0  0  3  0  0  0  0  0  0
   37.7800   28.1370   39.6240 C   0  0  0  0  0  0  0  0  0  0  0  0
   38.8510   27.9170   39.3440 H   0  0  0  0  0  0  0  0  0  0  0  0
   37.2240   27.2830   39.1450 H   0  0  0  0  0  0  0  0  0  0  0  0
   37.2720   26.7240   41.5630 C   0  0  0  0  0  0  0  0  0  0  0  0
   37.5930   27.9770   41.0680 C   0  0  0  0  0  0  0  0  0  0  0  0
   37.7470   29.0760   41.8570 C   0  0  0  0  0  0  0  0  0  0  0  0
   37.5740   28.9330   43.2170 C   0  0  0  0  0  0  0  0  0  0  0  0
   37.2580   27.7470   43.7960 C   0  0  0  0  0  0  0  0  0  0  0  0
   37.1170   26.6630   42.9280 C   0  0  0  0  0  0  0  0  0  0  0  0
   37.9890   30.0680   41.5600 H   0  0  0  0  0  0  0  0  0  0  0  0
   37.6810   29.7710   43.9230 H   0  0  0  0  0  0  0  0  0  0  0  0
   37.1160   27.5960   44.8600 H   0  0  0  0  0  0  0  0  0  0  0  0
   36.8620   25.7060   43.3840 H   0  0  0  0  0  0  0  0  0  0  0  0
   37.0630   25.2990   40.5980 S   0  0  0  0  0  0  0  0  0  0  0  0
   36.3860   24.1710   41.3650 O   0  0  0  0  0  0  0  0  0  0  0  0
   38.4290   24.7300   40.2450 O   0  0  0  0  0  0  0  0  0  0  0  0
   36.4140   25.5280   39.4220 H   0  0  0  0  0  0  0  0  0  0  0  0
  1 24  1  0  0  0  0
  1  3  1  0  0  0  0
  2  1  1  0  0  0  0
  4  5  1  0  0  0  0
  5  1  1  0  0  0  0
  5  6  2  0  0  0  0
  6 11  1  0  0  0  0
  7  6  1  0  0  0  0
  8  7  2  0  0  0  0
  9  4  2  0  0  0  0
  9  8  1  0  0  0  0
 10  4  1  0  0  0  0
 12  8  1  0  0  0  0
 12 14  1  0  0  0  0
 13 12  1  0  0  0  0
 16 15  1  0  0  0  0
 17 12  1  0  0  0  0
 17 16  2  0  0  0  0
 18 17  1  0  0  0  0
 19 18  1  0  0  0  0
 20 18  2  0  0  0  0
 20 22  1  0  0  0  0
 21 20  1  0  0  0  0
 22 23  2  0  0  0  0
 23 16  1  0  0  0  0
 24 28  1  0  0  0  0
 25 24  1  0  0  0  0
 26 24  1  0  0  0  0
 27 32  1  0  0  0  0
 28 27  2  0  0  0  0
 28 29  1  0  0  0  0
 29 30  2  0  0  0  0
 30 31  1  0  0  0  0
 30 34  1  0  0  0  0
 31 35  1  0  0  0  0
 32 36  1  0  0  0  0
 32 31  2  0  0  0  0
 33 29  1  0  0  0  0
 37 38  2  0  0  0  0
 37 27  1  0  0  0  0
 39 37  2  0  0  0  0
 40 37  1  0  0  0  0
M  END
>  <minimizedAffinity>
-5.95162106

$$$$

 OpenBabel03242522403D

 40 42  0  0  0  0  0  0  0  0999 V2000
   37.0200   29.1570   39.0390 C   0  0  0  0  0  0  0  0  0  0  0  0
   37.3280   28.0960   39.2720 H   0  0  0  0  0  0  0  0  0  0  0  0
   37.8310   29.5580   38.4360 H   0  0  0  0  0  0  0  0  0  0  0  0
   35.7010   29.0970   36.9170 C   0  0  0  0  0  0  0  0  0  0  0  0
   35.7340   29.0740   38.3400 C   0  0  0  0  0  0  0  0  0  0  0  0
   34.5190   28.9780   39.0190 C   0  0  0  0  0  0  0  0  0  0  0  0
   33.3760   28.9110   38.2960 N   0  0  0  0  0  0  0  0  0  0  0  0
   33.3910   28.9360   36.9550 C   0  0  0  0  0  0  0  0  0  0  0  0
   34.5230   29.0260   36.2680 N   0  0  0  0  0  0  0  0  0  0  0  0
   36.6450   29.1720   36.4310 H   0  0  0  0  0  0  0  0  0  0  0  0
   34.5050   28.9580   40.0930 H   0  0  0  0  0  0  0  0  0  0  0  0
   32.0700   28.8400   36.2390 C   0  0  0  0  0  0  0  0  0  0  0  0
   32.2080   28.2490   35.3060 H   0  0  0  0  0  0  0  0  0  0  0  0
   31.4070   28.2430   36.8820 H   0  0  0  0  0  0  0  0  0  0  0  0
   30.2700   30.1810   38.3260 Cl  0  0  0  0  0  0  0  0  0  0  0  0
   30.6690   30.8590   36.7540 C   0  0  0  0  0  0  0  0  0  0  0  0
   31.4840   30.1450   35.9280 C   0  0  0  0  0  0  0  0  0  0  0  0
   31.7770   30.7180   34.6890 C   0  0  0  0  0  0  0  0  0  0  0  0
   32.4300   30.1820   33.9890 H   0  0  0  0  0  0  0  0  0  0  0  0
   31.2800   31.9530   34.2810 C   0  0  0  0  0  0  0  0  0  0  0  0
   31.5560   32.3310   33.2980 H   0  0  0  0  0  0  0  0  0  0  0  0
   30.4520   32.6450   35.1570 C   0  0  0  0  0  3  0  0  0  0  0  0
   30.1380   32.1010   36.4040 C   0  0  0  0  0  3  0  0  0  0  0  0
   36.7790   29.8500   40.3560 C   0  0  0  0  0  0  0  0  0  0  0  0
   35.6990   30.1670   40.4480 H   0  0  0  0  0  0  0  0  0  0  0  0
   37.3250   30.8330   40.4150 H   0  0  0  0  0  0  0  0  0  0  0  0
   38.3440   29.4680   42.2050 C   0  0  0  0  0  0  0  0  0  0  0  0
   37.1860   29.0940   41.5430 C   0  0  0  0  0  0  0  0  0  0  0  0
   36.3990   28.0560   41.9380 C   0  0  0  0  0  0  0  0  0  0  0  0
   36.7750   27.3400   43.0550 C   0  0  0  0  0  0  0  0  0  0  0  0
   37.8920   27.6290   43.7700 C   0  0  0  0  0  0  0  0  0  0  0  0
   38.6500   28.7050   43.3080 C   0  0  0  0  0  0  0  0  0  0  0  0
   35.5020   27.7050   41.4890 H   0  0  0  0  0  0  0  0  0  0  0  0
   36.1940   26.4880   43.4400 H   0  0  0  0  0  0  0  0  0  0  0  0
   38.2180   27.0910   44.6520 H   0  0  0  0  0  0  0  0  0  0  0  0
   39.5500   28.9450   43.8750 H   0  0  0  0  0  0  0  0  0  0  0  0
   39.3780   30.7780   41.7360 S   0  0  0  0  0  0  0  0  0  0  0  0
   40.2830   30.4160   40.5660 O   0  0  0  0  0  0  0  0  0  0  0  0
   40.3500   31.0770   42.8680 O   0  0  0  0  0  0  0  0  0  0  0  0
   38.7070   31.9340   41.4760 H   0  0  0  0  0  0  0  0  0  0  0  0
  1  2  1  0  0  0  0
  1 24  1  0  0  0  0
  3  1  1  0  0  0  0
  4  5  1  0  0  0  0
  5  6  2  0  0  0  0
  5  1  1  0  0  0  0
  6 11  1  0  0  0  0
  7  6  1  0  0  0  0
  8  7  2  0  0  0  0
  9  4  2  0  0  0  0
  9  8  1  0  0  0  0
 10  4  1  0  0  0  0
 12 14  1  0  0  0  0
 12  8  1  0  0  0  0
 13 12  1  0  0  0  0
 16 15  1  0  0  0  0
 17 12  1  0  0  0  0
 17 16  2  0  0  0  0
 18 17  1  0  0  0  0
 19 18  1  0  0  0  0
 20 18  2  0  0  0  0
 20 22  1  0  0  0  0
 21 20  1  0  0  0  0
 22 23  2  0  0  0  0
 23 16  1  0  0  0  0
 24 26  1  0  0  0  0
 24 25  1  0  0  0  0
 24 28  1  0  0  0  0
 27 32  1  0  0  0  0
 28 29  1  0  0  0  0
 28 27  2  0  0  0  0
 29 30  2  0  0  0  0
 30 34  1  0  0  0  0
 30 31  1  0  0  0  0
 31 35  1  0  0  0  0
 32 31  2  0  0  0  0
 32 36  1  0  0  0  0
 33 29  1  0  0  0  0
 37 27  1  0  0  0  0
 37 39  2  0  0  0  0
 38 37  2  0  0  0  0
 40 37  1  0  0  0  0
M  END
>  <minimizedAffinity>
-5.95159197

$$$$

 OpenBabel03242522403D

 40 42  0  0  0  0  0  0  0  0999 V2000
   35.8350   26.1020   37.9960 C   0  0  0  0  0  0  0  0  0  0  0  0
   35.2620   25.5570   38.8020 H   0  0  0  0  0  0  0  0  0  0  0  0
   36.2890   25.3180   37.3960 H   0  0  0  0  0  0  0  0  0  0  0  0
   35.1790   28.2720   36.9420 C   0  0  0  0  0  0  0  0  0  0  0  0
   34.8590   26.9240   37.2740 C   0  0  0  0  0  0  0  0  0  0  0  0
   33.6070   26.4390   36.8960 C   0  0  0  0  0  0  0  0  0  0  0  0
   32.7630   27.2670   36.2360 N   0  0  0  0  0  0  0  0  0  0  0  0
   33.1050   28.5310   35.9430 C   0  0  0  0  0  0  0  0  0  0  0  0
   34.2860   29.0350   36.2840 N   0  0  0  0  0  0  0  0  0  0  0  0
   36.1410   28.6090   37.2460 H   0  0  0  0  0  0  0  0  0  0  0  0
   33.3320   25.4270   37.1290 H   0  0  0  0  0  0  0  0  0  0  0  0
   32.1060   29.3700   35.1930 C   0  0  0  0  0  0  0  0  0  0  0  0
   32.6430   29.9650   34.4220 H   0  0  0  0  0  0  0  0  0  0  0  0
   31.4590   28.6710   34.6420 H   0  0  0  0  0  0  0  0  0  0  0  0
   31.3530   32.1570   34.1620 Cl  0  0  0  0  0  0  0  0  0  0  0  0
   30.9180   31.5140   35.7380 C   0  0  0  0  0  0  0  0  0  0  0  0
   31.3250   30.2540   36.0600 C   0  0  0  0  0  0  0  0  0  0  0  0
   30.9580   29.7810   37.3210 C   0  0  0  0  0  0  0  0  0  0  0  0
   31.2620   28.7710   37.6260 H   0  0  0  0  0  0  0  0  0  0  0  0
   30.2160   30.5280   38.2320 C   0  0  0  0  0  0  0  0  0  0  0  0
   29.9700   30.0850   39.1970 H   0  0  0  0  0  0  0  0  0  0  0  0
   29.8220   31.8080   37.8600 C   0  0  0  0  0  3  0  0  0  0  0  0
   30.1730   32.3130   36.6060 C   0  0  0  0  0  3  0  0  0  0  0  0
   36.7950   27.0360   38.6870 C   0  0  0  0  0  0  0  0  0  0  0  0
   36.5930   28.1070   38.3910 H   0  0  0  0  0  0  0  0  0  0  0  0
   37.8530   26.8830   38.3320 H   0  0  0  0  0  0  0  0  0  0  0  0
   36.4540   28.0000   40.9160 C   0  0  0  0  0  0  0  0  0  0  0  0
   36.8410   26.9160   40.1470 C   0  0  0  0  0  0  0  0  0  0  0  0
   37.2630   25.7350   40.6760 C   0  0  0  0  0  0  0  0  0  0  0  0
   37.3070   25.6130   42.0480 C   0  0  0  0  0  0  0  0  0  0  0  0
   36.9490   26.6190   42.8860 C   0  0  0  0  0  0  0  0  0  0  0  0
   36.5270   27.8000   42.2750 C   0  0  0  0  0  0  0  0  0  0  0  0
   37.5760   24.8590   40.1600 H   0  0  0  0  0  0  0  0  0  0  0  0
   37.6350   24.6920   42.5550 H   0  0  0  0  0  0  0  0  0  0  0  0
   36.9690   26.5600   43.9680 H   0  0  0  0  0  0  0  0  0  0  0  0
   36.2380   28.6140   42.9400 H   0  0  0  0  0  0  0  0  0  0  0  0
   35.9150   29.5230   40.2860 S   0  0  0  0  0  0  0  0  0  0  0  0
   36.0850   30.6590   41.2860 O   0  0  0  0  0  0  0  0  0  0  0  0
   34.4110   29.4630   40.0570 O   0  0  0  0  0  0  0  0  0  0  0  0
   36.4840   29.8510   39.0940 H   0  0  0  0  0  0  0  0  0  0  0  0
  1 24  1  0  0  0  0
  1  2  1  0  0  0  0
  3  1  1  0  0  0  0
  4 10  1  0  0  0  0
  4  5  1  0  0  0  0
  5  1  1  0  0  0  0
  6 11  1  0  0  0  0
  6  5  2  0  0  0  0
  7  6  1  0  0  0  0
  8  7  2  0  0  0  0
  8  9  1  0  0  0  0
  9  4  2  0  0  0  0
 12  8  1  0  0  0  0
 12 17  1  0  0  0  0
 13 12  1  0  0  0  0
 14 12  1  0  0  0  0
 15 16  1  0  0  0  0
 16 17  2  0  0  0  0
 16 23  1  0  0  0  0
 17 18  1  0  0  0  0
 18 19  1  0  0  0  0
 18 20  2  0  0  0  0
 20 21  1  0  0  0  0
 22 20  1  0  0  0  0
 23 22  2  0  0  0  0
 24 28  1  0  0  0  0
 25 24  1  0  0  0  0
 26 24  1  0  0  0  0
 27 32  1  0  0  0  0
 28 29  1  0  0  0  0
 28 27  2  0  0  0  0
 29 30  2  0  0  0  0
 30 34  1  0  0  0  0
 30 31  1  0  0  0  0
 31 35  1  0  0  0  0
 32 31  2  0  0  0  0
 32 36  1  0  0  0  0
 33 29  1  0  0  0  0
 37 27  1  0  0  0  0
 37 38  2  0  0  0  0
 39 37  2  0  0  0  0
 40 37  1  0  0  0  0
M  END
>  <minimizedAffinity>
-5.84304237

$$$$

 OpenBabel03242522403D

 40 42  0  0  0  0  0  0  0  0999 V2000
   37.3360   29.3530   38.6630 C   0  0  0  0  0  0  0  0  0  0  0  0
   37.7330   28.3070   38.8150 H   0  0  0  0  0  0  0  0  0  0  0  0
   38.0530   29.8300   38.0000 H   0  0  0  0  0  0  0  0  0  0  0  0
   34.8710   29.0610   38.9590 C   0  0  0  0  0  0  0  0  0  0  0  0
   35.9930   29.2110   38.0940 C   0  0  0  0  0  0  0  0  0  0  0  0
   35.7600   29.2090   36.7180 C   0  0  0  0  0  0  0  0  0  0  0  0
   34.4880   29.0680   36.2760 N   0  0  0  0  0  0  0  0  0  0  0  0
   33.4600   28.9300   37.1270 C   0  0  0  0  0  0  0  0  0  0  0  0
   33.6350   28.9250   38.4440 N   0  0  0  0  0  0  0  0  0  0  0  0
   35.0850   29.0660   40.0010 H   0  0  0  0  0  0  0  0  0  0  0  0
   36.5810   29.3200   36.0350 H   0  0  0  0  0  0  0  0  0  0  0  0
   32.0800   28.7940   36.5420 C   0  0  0  0  0  0  0  0  0  0  0  0
   32.1460   28.2150   35.5940 H   0  0  0  0  0  0  0  0  0  0  0  0
   31.5020   28.1690   37.2400 H   0  0  0  0  0  0  0  0  0  0  0  0
   30.3740   30.0140   38.7780 Cl  0  0  0  0  0  0  0  0  0  0  0  0
   30.6380   30.7410   37.2000 C   0  0  0  0  0  0  0  0  0  0  0  0
   31.4220   30.0800   36.3030 C   0  0  0  0  0  0  0  0  0  0  0  0
   31.6070   30.6910   35.0620 C   0  0  0  0  0  0  0  0  0  0  0  0
   32.2310   30.1980   34.3070 H   0  0  0  0  0  0  0  0  0  0  0  0
   31.0340   31.9140   34.7190 C   0  0  0  0  0  0  0  0  0  0  0  0
   31.2270   32.3240   33.7290 H   0  0  0  0  0  0  0  0  0  0  0  0
   30.2410   32.5520   35.6660 C   0  0  0  0  0  3  0  0  0  0  0  0
   30.0350   31.9670   36.9180 C   0  0  0  0  0  3  0  0  0  0  0  0
   37.1900   29.9760   40.0270 C   0  0  0  0  0  0  0  0  0  0  0  0
   37.6860   29.3350   40.8140 H   0  0  0  0  0  0  0  0  0  0  0  0
   36.1160   29.9870   40.3670 H   0  0  0  0  0  0  0  0  0  0  0  0
   38.7450   31.6330   40.9500 C   0  0  0  0  0  0  0  0  0  0  0  0
   37.6590   31.3600   40.1350 C   0  0  0  0  0  0  0  0  0  0  0  0
   36.9990   32.3130   39.4220 C   0  0  0  0  0  0  0  0  0  0  0  0
   37.4350   33.6180   39.5160 C   0  0  0  0  0  0  0  0  0  0  0  0
   38.4890   33.9850   40.2880 C   0  0  0  0  0  0  0  0  0  0  0  0
   39.1180   32.9570   40.9900 C   0  0  0  0  0  0  0  0  0  0  0  0
   36.1620   32.1900   38.7780 H   0  0  0  0  0  0  0  0  0  0  0  0
   36.9570   34.4470   38.9720 H   0  0  0  0  0  0  0  0  0  0  0  0
   38.8610   34.9980   40.3860 H   0  0  0  0  0  0  0  0  0  0  0  0
   39.9660   33.2410   41.6140 H   0  0  0  0  0  0  0  0  0  0  0  0
   39.6120   30.4530   41.8770 S   0  0  0  0  0  0  0  0  0  0  0  0
   40.5430   31.0880   42.9020 O   0  0  0  0  0  0  0  0  0  0  0  0
   40.5530   29.6880   40.9580 O   0  0  0  0  0  0  0  0  0  0  0  0
   38.8070   29.5320   42.4750 H   0  0  0  0  0  0  0  0  0  0  0  0
  1  2  1  0  0  0  0
  1 24  1  0  0  0  0
  3  1  1  0  0  0  0
  4 10  1  0  0  0  0
  5  1  1  0  0  0  0
  5  4  2  0  0  0  0
  6  5  1  0  0  0  0
  7  6  2  0  0  0  0
  7  8  1  0  0  0  0
  8  9  2  0  0  0  0
  9  4  1  0  0  0  0
 11  6  1  0  0  0  0
 12  8  1  0  0  0  0
 12 14  1  0  0  0  0
 13 12  1  0  0  0  0
 16 15  1  0  0  0  0
 17 12  1  0  0  0  0
 17 16  2  0  0  0  0
 18 17  1  0  0  0  0
 19 18  1  0  0  0  0
 20 18  2  0  0  0  0
 20 22  1  0  0  0  0
 21 20  1  0  0  0  0
 22 23  2  0  0  0  0
 23 16  1  0  0  0  0
 24 28  1  0  0  0  0
 24 26  1  0  0  0  0
 24 25  1  0  0  0  0
 27 32  1  0  0  0  0
 27 37  1  0  0  0  0
 28 27  2  0  0  0  0
 29 30  2  0  0  0  0
 29 28  1  0  0  0  0
 30 31  1  0  0  0  0
 31 35  1  0  0  0  0
 31 32  2  0  0  0  0
 32 36  1  0  0  0  0
 33 29  1  0  0  0  0
 34 30  1  0  0  0  0
 37 40  1  0  0  0  0
 37 38  2  0  0  0  0
 39 37  2  0  0  0  0
M  END
>  <minimizedAffinity>
-5.77230835

$$$$

 OpenBabel03242522403D

 40 42  0  0  0  0  0  0  0  0999 V2000
   36.2960   30.0230   38.1680 C   0  0  0  0  0  0  0  0  0  0  0  0
   36.0490   29.3760   37.2760 H   0  0  0  0  0  0  0  0  0  0  0  0
   35.4560   30.7070   38.2590 H   0  0  0  0  0  0  0  0  0  0  0  0
   37.1120   27.8630   39.1260 C   0  0  0  0  0  0  0  0  0  0  0  0
   36.4600   29.1160   39.3080 C   0  0  0  0  0  0  0  0  0  0  0  0
   35.9930   29.4290   40.5850 C   0  0  0  0  0  0  0  0  0  0  0  0
   36.1810   28.5320   41.5820 N   0  0  0  0  0  0  0  0  0  0  0  0
   36.8010   27.3620   41.3660 C   0  0  0  0  0  0  0  0  0  0  0  0
   37.2620   27.0230   40.1680 N   0  0  0  0  0  0  0  0  0  0  0  0
   37.4550   27.6570   38.1400 H   0  0  0  0  0  0  0  0  0  0  0  0
   35.4970   30.3650   40.7590 H   0  0  0  0  0  0  0  0  0  0  0  0
   36.9780   26.4360   42.5400 C   0  0  0  0  0  0  0  0  0  0  0  0
   36.4890   26.8880   43.4320 H   0  0  0  0  0  0  0  0  0  0  0  0
   36.4060   25.5240   42.3090 H   0  0  0  0  0  0  0  0  0  0  0  0
   38.1320   23.7590   41.5940 Cl  0  0  0  0  0  0  0  0  0  0  0  0
   39.0270   24.9880   42.4750 C   0  0  0  0  0  0  0  0  0  0  0  0
   38.3800   26.1320   42.8320 C   0  0  0  0  0  0  0  0  0  0  0  0
   39.1260   27.0820   43.5300 C   0  0  0  0  0  0  0  0  0  0  0  0
   38.6490   28.0210   43.8390 H   0  0  0  0  0  0  0  0  0  0  0  0
   40.4670   26.9060   43.8650 C   0  0  0  0  0  0  0  0  0  0  0  0
   40.9790   27.6970   44.4120 H   0  0  0  0  0  0  0  0  0  0  0  0
   41.0860   25.7230   43.4800 C   0  0  0  0  0  3  0  0  0  0  0  0
   40.3680   24.7500   42.7810 C   0  0  0  0  0  3  0  0  0  0  0  0
   37.6350   30.6610   37.8970 C   0  0  0  0  0  0  0  0  0  0  0  0
   37.6820   31.0550   36.8400 H   0  0  0  0  0  0  0  0  0  0  0  0
   38.4670   29.9030   37.9100 H   0  0  0  0  0  0  0  0  0  0  0  0
   39.1670   31.5150   39.6100 C   0  0  0  0  0  0  0  0  0  0  0  0
   38.0300   31.7070   38.8430 C   0  0  0  0  0  0  0  0  0  0  0  0
   37.2540   32.8230   38.9200 C   0  0  0  0  0  0  0  0  0  0  0  0
   37.6200   33.8130   39.8070 C   0  0  0  0  0  0  0  0  0  0  0  0
   38.7160   33.7170   40.6010 C   0  0  0  0  0  0  0  0  0  0  0  0
   39.4650   32.5470   40.4700 C   0  0  0  0  0  0  0  0  0  0  0  0
   36.3710   33.0480   38.3720 H   0  0  0  0  0  0  0  0  0  0  0  0
   37.0480   34.7460   39.9290 H   0  0  0  0  0  0  0  0  0  0  0  0
   39.0360   34.4740   41.3090 H   0  0  0  0  0  0  0  0  0  0  0  0
   40.3470   32.4610   41.1050 H   0  0  0  0  0  0  0  0  0  0  0  0
   40.1810   30.1110   39.5490 S   0  0  0  0  0  0  0  0  0  0  0  0
   39.9500   29.1750   40.7280 O   0  0  0  0  0  0  0  0  0  0  0  0
   41.6340   30.5370   39.7030 O   0  0  0  0  0  0  0  0  0  0  0  0
   40.0920   29.4270   38.3750 H   0  0  0  0  0  0  0  0  0  0  0  0
  1  3  1  0  0  0  0
  1  5  1  0  0  0  0
  2  1  1  0  0  0  0
  4  5  2  0  0  0  0
  4  9  1  0  0  0  0
  5  6  1  0  0  0  0
  6 11  1  0  0  0  0
  6  7  2  0  0  0  0
  8  7  1  0  0  0  0
  8 12  1  0  0  0  0
  9  8  2  0  0  0  0
 10  4  1  0  0  0  0
 12 17  1  0  0  0  0
 12 13  1  0  0  0  0
 14 12  1  0  0  0  0
 15 16  1  0  0  0  0
 16 23  2  0  0  0  0
 16 17  1  0  0  0  0
 17 18  2  0  0  0  0
 18 19  1  0  0  0  0
 18 20  1  0  0  0  0
 20 21  1  0  0  0  0
 22 20  2  0  0  0  0
 23 22  1  0  0  0  0
 24 26  1  0  0  0  0
 24  1  1  0  0  0  0
 24 28  1  0  0  0  0
 25 24  1  0  0  0  0
 27 32  1  0  0  0  0
 28 29  1  0  0  0  0
 28 27  2  0  0  0  0
 29 30  2  0  0  0  0
 30 34  1  0  0  0  0
 30 31  1  0  0  0  0
 31 35  1  0  0  0  0
 32 31  2  0  0  0  0
 32 36  1  0  0  0  0
 33 29  1  0  0  0  0
 37 27  1  0  0  0  0
 37 39  2  0  0  0  0
 37 38  2  0  0  0  0
 40 37  1  0  0  0  0
M  END
>  <minimizedAffinity>
-5.75268126

$$$$

 OpenBabel03242522403D

 40 42  0  0  0  0  0  0  0  0999 V2000
   39.6400   26.7330   43.8670 C   0  0  0  0  0  0  0  0  0  0  0  0
   40.6960   27.0480   43.6240 H   0  0  0  0  0  0  0  0  0  0  0  0
   39.5790   26.7750   44.9520 H   0  0  0  0  0  0  0  0  0  0  0  0
   39.2620   28.9300   42.7360 C   0  0  0  0  0  0  0  0  0  0  0  0
   38.7540   27.6750   43.1770 C   0  0  0  0  0  0  0  0  0  0  0  0
   37.4090   27.3940   42.9330 C   0  0  0  0  0  0  0  0  0  0  0  0
   36.6590   28.3220   42.2930 N   0  0  0  0  0  0  0  0  0  0  0  0
   37.1790   29.4920   41.8940 C   0  0  0  0  0  0  0  0  0  0  0  0
   38.4530   29.8020   42.1050 N   0  0  0  0  0  0  0  0  0  0  0  0
   40.2910   29.1110   42.9380 H   0  0  0  0  0  0  0  0  0  0  0  0
   36.9910   26.4570   43.2510 H   0  0  0  0  0  0  0  0  0  0  0  0
   36.2700   30.4540   41.1760 C   0  0  0  0  0  0  0  0  0  0  0  0
   35.2200   30.0990   41.2750 H   0  0  0  0  0  0  0  0  0  0  0  0
   36.3230   31.4060   41.7270 H   0  0  0  0  0  0  0  0  0  0  0  0
   37.8310   32.9570   40.3420 Cl  0  0  0  0  0  0  0  0  0  0  0  0
   37.3010   31.6870   39.2480 C   0  0  0  0  0  0  0  0  0  0  0  0
   36.6130   30.6310   39.7640 C   0  0  0  0  0  0  0  0  0  0  0  0
   36.2110   29.6450   38.8620 C   0  0  0  0  0  0  0  0  0  0  0  0
   35.6540   28.7730   39.2300 H   0  0  0  0  0  0  0  0  0  0  0  0
   36.4790   29.7020   37.4970 C   0  0  0  0  0  0  0  0  0  0  0  0
   36.1310   28.8910   36.8590 H   0  0  0  0  0  0  0  0  0  0  0  0
   37.1840   30.7990   37.0150 C   0  0  0  0  0  3  0  0  0  0  0  0
   37.6010   31.8040   37.8900 C   0  0  0  0  0  3  0  0  0  0  0  0
   39.4280   25.3730   43.2520 C   0  0  0  0  0  0  0  0  0  0  0  0
   38.3270   25.1290   43.1950 H   0  0  0  0  0  0  0  0  0  0  0  0
   39.8230   24.5510   43.9130 H   0  0  0  0  0  0  0  0  0  0  0  0
   39.3100   24.6150   40.9230 C   0  0  0  0  0  0  0  0  0  0  0  0
   40.0590   25.1740   41.9450 C   0  0  0  0  0  0  0  0  0  0  0  0
   41.3580   25.5540   41.8000 C   0  0  0  0  0  0  0  0  0  0  0  0
   41.9580   25.3730   40.5720 C   0  0  0  0  0  0  0  0  0  0  0  0
   41.3080   24.8320   39.5110 C   0  0  0  0  0  0  0  0  0  0  0  0
   39.9800   24.4660   39.7310 C   0  0  0  0  0  0  0  0  0  0  0  0
   42.0000   25.9870   42.5280 H   0  0  0  0  0  0  0  0  0  0  0  0
   43.0040   25.6530   40.3730 H   0  0  0  0  0  0  0  0  0  0  0  0
   41.7460   24.6750   38.5320 H   0  0  0  0  0  0  0  0  0  0  0  0
   39.4490   24.0310   38.8840 H   0  0  0  0  0  0  0  0  0  0  0  0
   37.6560   24.1130   41.0630 S   0  0  0  0  0  0  0  0  0  0  0  0
   37.4090   22.7460   40.4390 O   0  0  0  0  0  0  0  0  0  0  0  0
   36.7800   25.0500   40.2450 O   0  0  0  0  0  0  0  0  0  0  0  0
   37.1850   24.1450   42.3400 H   0  0  0  0  0  0  0  0  0  0  0  0
  1  3  1  0  0  0  0
  2  1  1  0  0  0  0
  4 10  1  0  0  0  0
  4  5  1  0  0  0  0
  5  1  1  0  0  0  0
  6  5  2  0  0  0  0
  6 11  1  0  0  0  0
  7  6  1  0  0  0  0
  8  9  1  0  0  0  0
  8  7  2  0  0  0  0
  9  4  2  0  0  0  0
 12 13  1  0  0  0  0
 12 14  1  0  0  0  0
 12  8  1  0  0  0  0
 16 17  1  0  0  0  0
 16 15  1  0  0  0  0
 17 12  1  0  0  0  0
 18 19  1  0  0  0  0
 18 17  2  0  0  0  0
 20 18  1  0  0  0  0
 21 20  1  0  0  0  0
 22 20  2  0  0  0  0
 22 23  1  0  0  0  0
 23 16  2  0  0  0  0
 24  1  1  0  0  0  0
 24 26  1  0  0  0  0
 25 24  1  0  0  0  0
 27 37  1  0  0  0  0
 27 28  1  0  0  0  0
 28 24  1  0  0  0  0
 29 28  2  0  0  0  0
 29 33  1  0  0  0  0
 30 29  1  0  0  0  0
 31 32  1  0  0  0  0
 31 30  2  0  0  0  0
 32 27  2  0  0  0  0
 34 30  1  0  0  0  0
 35 31  1  0  0  0  0
 36 32  1  0  0  0  0
 37 40  1  0  0  0  0
 38 37  2  0  0  0  0
 39 37  2  0  0  0  0
M  END
>  <minimizedAffinity>
-5.72723198

$$$$

 OpenBabel03242522403D

 40 42  0  0  0  0  0  0  0  0999 V2000
   37.6010   32.2910   39.8180 C   0  0  0  0  0  0  0  0  0  0  0  0
   36.5900   32.2730   39.3150 H   0  0  0  0  0  0  0  0  0  0  0  0
   37.6800   33.2860   40.2500 H   0  0  0  0  0  0  0  0  0  0  0  0
   38.7730   30.9360   41.5610 C   0  0  0  0  0  0  0  0  0  0  0  0
   37.5980   31.2050   40.8030 C   0  0  0  0  0  0  0  0  0  0  0  0
   36.4780   30.4050   41.0290 C   0  0  0  0  0  0  0  0  0  0  0  0
   36.5610   29.4200   41.9540 N   0  0  0  0  0  0  0  0  0  0  0  0
   37.6880   29.2010   42.6480 C   0  0  0  0  0  0  0  0  0  0  0  0
   38.7790   29.9370   42.4640 N   0  0  0  0  0  0  0  0  0  0  0  0
   39.6080   31.5650   41.3630 H   0  0  0  0  0  0  0  0  0  0  0  0
   35.5740   30.5790   40.4760 H   0  0  0  0  0  0  0  0  0  0  0  0
   37.6800   28.0920   43.6650 C   0  0  0  0  0  0  0  0  0  0  0  0
   38.4050   28.3390   44.4720 H   0  0  0  0  0  0  0  0  0  0  0  0
   36.6850   28.1060   44.1360 H   0  0  0  0  0  0  0  0  0  0  0  0
   40.5490   27.0310   43.8670 Cl  0  0  0  0  0  0  0  0  0  0  0  0
   39.2100   26.1810   43.1100 C   0  0  0  0  0  0  0  0  0  0  0  0
   37.9860   26.7790   43.0950 C   0  0  0  0  0  0  0  0  0  0  0  0
   36.9500   26.0720   42.4840 C   0  0  0  0  0  0  0  0  0  0  0  0
   35.9450   26.5120   42.4480 H   0  0  0  0  0  0  0  0  0  0  0  0
   37.1180   24.8150   41.9080 C   0  0  0  0  0  0  0  0  0  0  0  0
   36.2580   24.3280   41.4510 H   0  0  0  0  0  0  0  0  0  0  0  0
   38.3850   24.2430   41.9470 C   0  0  0  0  0  3  0  0  0  0  0  0
   39.4440   24.9250   42.5490 C   0  0  0  0  0  3  0  0  0  0  0  0
   38.6270   31.9500   38.7670 C   0  0  0  0  0  0  0  0  0  0  0  0
   39.6480   31.8280   39.2310 H   0  0  0  0  0  0  0  0  0  0  0  0
   38.7880   32.8040   38.0510 H   0  0  0  0  0  0  0  0  0  0  0  0
   39.2330   29.7620   37.8410 C   0  0  0  0  0  0  0  0  0  0  0  0
   38.3060   30.7870   37.9370 C   0  0  0  0  0  0  0  0  0  0  0  0
   37.1040   30.7700   37.2990 C   0  0  0  0  0  0  0  0  0  0  0  0
   36.7940   29.6780   36.5170 C   0  0  0  0  0  0  0  0  0  0  0  0
   37.6360   28.6260   36.3610 C   0  0  0  0  0  0  0  0  0  0  0  0
   38.8500   28.7090   37.0440 C   0  0  0  0  0  0  0  0  0  0  0  0
   36.3410   31.5100   37.3180 H   0  0  0  0  0  0  0  0  0  0  0  0
   35.8430   29.5870   35.9690 H   0  0  0  0  0  0  0  0  0  0  0  0
   37.4280   27.7500   35.7570 H   0  0  0  0  0  0  0  0  0  0  0  0
   39.5340   27.8690   36.9230 H   0  0  0  0  0  0  0  0  0  0  0  0
   40.7760   29.7420   38.6320 S   0  0  0  0  0  0  0  0  0  0  0  0
   41.9030   29.3210   37.6980 O   0  0  0  0  0  0  0  0  0  0  0  0
   40.7720   28.6630   39.7050 O   0  0  0  0  0  0  0  0  0  0  0  0
   41.0860   30.9140   39.2500 H   0  0  0  0  0  0  0  0  0  0  0  0
  1  3  1  0  0  0  0
  1  5  1  0  0  0  0
  2  1  1  0  0  0  0
  4  9  1  0  0  0  0
  5  6  1  0  0  0  0
  5  4  2  0  0  0  0
  6  7  2  0  0  0  0
  7  8  1  0  0  0  0
  8 12  1  0  0  0  0
  9  8  2  0  0  0  0
 10  4  1  0  0  0  0
 11  6  1  0  0  0  0
 12 14  1  0  0  0  0
 12 13  1  0  0  0  0
 16 15  1  0  0  0  0
 17 16  1  0  0  0  0
 17 12  1  0  0  0  0
 18 17  2  0  0  0  0
 19 18  1  0  0  0  0
 20 22  2  0  0  0  0
 20 18  1  0  0  0  0
 21 20  1  0  0  0  0
 22 23  1  0  0  0  0
 23 16  2  0  0  0  0
 24 25  1  0  0  0  0
 24  1  1  0  0  0  0
 26 24  1  0  0  0  0
 27 28  1  0  0  0  0
 27 37  1  0  0  0  0
 28 24  1  0  0  0  0
 29 33  1  0  0  0  0
 29 28  2  0  0  0  0
 30 29  1  0  0  0  0
 31 30  2  0  0  0  0
 31 32  1  0  0  0  0
 32 27  2  0  0  0  0
 34 30  1  0  0  0  0
 35 31  1  0  0  0  0
 36 32  1  0  0  0  0
 37 40  1  0  0  0  0
 37 39  2  0  0  0  0
 38 37  2  0  0  0  0
M  END
>  <minimizedAffinity>
-5.57700586

$$$$

 OpenBabel03242522403D

 40 42  0  0  0  0  0  0  0  0999 V2000
   39.0790   26.8070   43.8670 C   0  0  0  0  0  0  0  0  0  0  0  0
   39.5950   27.3420   44.7170 H   0  0  0  0  0  0  0  0  0  0  0  0
   38.4390   26.0720   44.3470 H   0  0  0  0  0  0  0  0  0  0  0  0
   36.9990   27.6080   42.7350 C   0  0  0  0  0  0  0  0  0  0  0  0
   38.3550   27.8310   43.1080 C   0  0  0  0  0  0  0  0  0  0  0  0
   38.9480   29.0330   42.7210 C   0  0  0  0  0  0  0  0  0  0  0  0
   38.2090   29.9230   42.0170 N   0  0  0  0  0  0  0  0  0  0  0  0
   36.9330   29.6720   41.6870 C   0  0  0  0  0  0  0  0  0  0  0  0
   36.3290   28.5410   42.0340 N   0  0  0  0  0  0  0  0  0  0  0  0
   36.5790   26.6810   43.0450 H   0  0  0  0  0  0  0  0  0  0  0  0
   39.9690   29.2370   42.9850 H   0  0  0  0  0  0  0  0  0  0  0  0
   36.1880   30.7290   40.9160 C   0  0  0  0  0  0  0  0  0  0  0  0
   35.0970   30.5230   40.9860 H   0  0  0  0  0  0  0  0  0  0  0  0
   36.3530   31.6790   41.4470 H   0  0  0  0  0  0  0  0  0  0  0  0
   37.7520   33.1980   39.9940 Cl  0  0  0  0  0  0  0  0  0  0  0  0
   37.2940   31.8510   38.9620 C   0  0  0  0  0  0  0  0  0  0  0  0
   36.5970   30.8190   39.5130 C   0  0  0  0  0  0  0  0  0  0  0  0
   36.2520   29.7690   38.6610 C   0  0  0  0  0  0  0  0  0  0  0  0
   35.6910   28.9140   39.0580 H   0  0  0  0  0  0  0  0  0  0  0  0
   36.5860   29.7420   37.3090 C   0  0  0  0  0  0  0  0  0  0  0  0
   36.2800   28.8850   36.7100 H   0  0  0  0  0  0  0  0  0  0  0  0
   37.2980   30.8170   36.7900 C   0  0  0  0  0  3  0  0  0  0  0  0
   37.6580   31.8840   37.6150 C   0  0  0  0  0  3  0  0  0  0  0  0
   40.1570   26.2520   42.9710 C   0  0  0  0  0  0  0  0  0  0  0  0
   40.9550   25.7360   43.5800 H   0  0  0  0  0  0  0  0  0  0  0  0
   40.7360   27.0720   42.4610 H   0  0  0  0  0  0  0  0  0  0  0  0
   40.1400   25.5840   40.6120 C   0  0  0  0  0  0  0  0  0  0  0  0
   39.6860   25.3690   41.9020 C   0  0  0  0  0  0  0  0  0  0  0  0
   38.8200   24.3720   42.2340 C   0  0  0  0  0  0  0  0  0  0  0  0
   38.3730   23.5350   41.2340 C   0  0  0  0  0  0  0  0  0  0  0  0
   38.7600   23.6660   39.9400 C   0  0  0  0  0  0  0  0  0  0  0  0
   39.6490   24.7080   39.6720 C   0  0  0  0  0  0  0  0  0  0  0  0
   38.4230   24.1400   43.1930 H   0  0  0  0  0  0  0  0  0  0  0  0
   37.6730   22.7050   41.4200 H   0  0  0  0  0  0  0  0  0  0  0  0
   38.4320   23.0280   39.1280 H   0  0  0  0  0  0  0  0  0  0  0  0
   39.9660   24.8210   38.6350 H   0  0  0  0  0  0  0  0  0  0  0  0
   41.2390   26.8410   40.1420 S   0  0  0  0  0  0  0  0  0  0  0  0
   41.2280   27.0910   38.6400 O   0  0  0  0  0  0  0  0  0  0  0  0
   42.6640   26.3890   40.4260 O   0  0  0  0  0  0  0  0  0  0  0  0
   41.0520   28.0070   40.8190 H   0  0  0  0  0  0  0  0  0  0  0  0
  1  3  1  0  0  0  0
  1  2  1  0  0  0  0
  4 10  1  0  0  0  0
  4  5  1  0  0  0  0
  5  1  1  0  0  0  0
  6 11  1  0  0  0  0
  6  5  2  0  0  0  0
  7  6  1  0  0  0  0
  8  7  2  0  0  0  0
  8  9  1  0  0  0  0
  9  4  2  0  0  0  0
 12 13  1  0  0  0  0
 12 14  1  0  0  0  0
 12  8  1  0  0  0  0
 16 17  1  0  0  0  0
 16 15  1  0  0  0  0
 17 12  1  0  0  0  0
 18 19  1  0  0  0  0
 18 17  2  0  0  0  0
 20 18  1  0  0  0  0
 21 20  1  0  0  0  0
 22 20  2  0  0  0  0
 22 23  1  0  0  0  0
 23 16  2  0  0  0  0
 24 25  1  0  0  0  0
 24  1  1  0  0  0  0
 26 24  1  0  0  0  0
 27 28  1  0  0  0  0
 28 29  2  0  0  0  0
 28 24  1  0  0  0  0
 29 33  1  0  0  0  0
 30 34  1  0  0  0  0
 30 29  1  0  0  0  0
 31 30  2  0  0  0  0
 32 31  1  0  0  0  0
 32 27  2  0  0  0  0
 35 31  1  0  0  0  0
 36 32  1  0  0  0  0
 37 39  2  0  0  0  0
 37 27  1  0  0  0  0
 37 40  1  0  0  0  0
 38 37  2  0  0  0  0
M  END
>  <minimizedAffinity>
-5.56228065

$$$$

 OpenBabel03242522403D

 40 42  0  0  0  0  0  0  0  0999 V2000
   36.9480   31.9180   39.9280 C   0  0  0  0  0  0  0  0  0  0  0  0
   35.8940   32.3080   39.8230 H   0  0  0  0  0  0  0  0  0  0  0  0
   37.4940   32.7180   40.4220 H   0  0  0  0  0  0  0  0  0  0  0  0
   37.8740   30.3680   41.6570 C   0  0  0  0  0  0  0  0  0  0  0  0
   36.8600   30.6790   40.7060 C   0  0  0  0  0  0  0  0  0  0  0  0
   35.8130   29.7710   40.5490 C   0  0  0  0  0  0  0  0  0  0  0  0
   35.8100   28.6470   41.3050 N   0  0  0  0  0  0  0  0  0  0  0  0
   36.7860   28.3940   42.1900 C   0  0  0  0  0  0  0  0  0  0  0  0
   37.8020   29.2300   42.3720 N   0  0  0  0  0  0  0  0  0  0  0  0
   38.6570   31.0820   41.7500 H   0  0  0  0  0  0  0  0  0  0  0  0
   35.0300   29.9720   39.8410 H   0  0  0  0  0  0  0  0  0  0  0  0
   36.6890   27.1260   42.9960 C   0  0  0  0  0  0  0  0  0  0  0  0
   37.0350   27.3310   44.0330 H   0  0  0  0  0  0  0  0  0  0  0  0
   35.6170   26.8860   43.0750 H   0  0  0  0  0  0  0  0  0  0  0  0
   39.6000   26.7210   43.8650 Cl  0  0  0  0  0  0  0  0  0  0  0  0
   38.7430   25.7110   42.7100 C   0  0  0  0  0  0  0  0  0  0  0  0
   37.4470   26.0140   42.4200 C   0  0  0  0  0  0  0  0  0  0  0  0
   36.8020   25.1880   41.4980 C   0  0  0  0  0  0  0  0  0  0  0  0
   35.7570   25.3910   41.2320 H   0  0  0  0  0  0  0  0  0  0  0  0
   37.4180   24.1000   40.8840 C   0  0  0  0  0  0  0  0  0  0  0  0
   36.8450   23.5040   40.1750 H   0  0  0  0  0  0  0  0  0  0  0  0
   38.7410   23.8290   41.2120 C   0  0  0  0  0  3  0  0  0  0  0  0
   39.4170   24.6360   42.1300 C   0  0  0  0  0  3  0  0  0  0  0  0
   37.4270   31.5550   38.5450 C   0  0  0  0  0  0  0  0  0  0  0  0
   36.9890   32.2550   37.7750 H   0  0  0  0  0  0  0  0  0  0  0  0
   37.0290   30.5550   38.2160 H   0  0  0  0  0  0  0  0  0  0  0  0
   39.4400   30.3010   37.9230 C   0  0  0  0  0  0  0  0  0  0  0  0
   38.8820   31.4790   38.3890 C   0  0  0  0  0  0  0  0  0  0  0  0
   39.6160   32.5800   38.7110 C   0  0  0  0  0  0  0  0  0  0  0  0
   40.9850   32.5170   38.5650 C   0  0  0  0  0  0  0  0  0  0  0  0
   41.6250   31.4070   38.1170 C   0  0  0  0  0  0  0  0  0  0  0  0
   40.8110   30.3180   37.8050 C   0  0  0  0  0  0  0  0  0  0  0  0
   39.2690   33.5160   39.0740 H   0  0  0  0  0  0  0  0  0  0  0  0
   41.6490   33.3620   38.8030 H   0  0  0  0  0  0  0  0  0  0  0  0
   42.6980   31.3210   37.9880 H   0  0  0  0  0  0  0  0  0  0  0  0
   41.3160   29.4220   37.4440 H   0  0  0  0  0  0  0  0  0  0  0  0
   38.5470   28.8750   37.5040 S   0  0  0  0  0  0  0  0  0  0  0  0
   38.2380   28.0060   38.7160 O   0  0  0  0  0  0  0  0  0  0  0  0
   39.4130   27.9830   36.6270 O   0  0  0  0  0  0  0  0  0  0  0  0
   37.4080   29.1330   36.8040 H   0  0  0  0  0  0  0  0  0  0  0  0
  1  3  1  0  0  0  0
  1  5  1  0  0  0  0
  2  1  1  0  0  0  0
  4 10  1  0  0  0  0
  4  9  1  0  0  0  0
  5  4  2  0  0  0  0
  6  5  1  0  0  0  0
  6  7  2  0  0  0  0
  7  8  1  0  0  0  0
  8  9  2  0  0  0  0
  8 12  1  0  0  0  0
 11  6  1  0  0  0  0
 12 14  1  0  0  0  0
 12 13  1  0  0  0  0
 16 15  1  0  0  0  0
 17 16  1  0  0  0  0
 17 12  1  0  0  0  0
 18 17  2  0  0  0  0
 19 18  1  0  0  0  0
 20 22  2  0  0  0  0
 20 18  1  0  0  0  0
 21 20  1  0  0  0  0
 22 23  1  0  0  0  0
 23 16  2  0  0  0  0
 24  1  1  0  0  0  0
 25 24  1  0  0  0  0
 26 24  1  0  0  0  0
 27 28  1  0  0  0  0
 28 24  1  0  0  0  0
 28 29  2  0  0  0  0
 29 33  1  0  0  0  0
 30 29  1  0  0  0  0
 30 34  1  0  0  0  0
 31 30  2  0  0  0  0
 32 27  2  0  0  0  0
 32 31  1  0  0  0  0
 35 31  1  0  0  0  0
 36 32  1  0  0  0  0
 37 27  1  0  0  0  0
 37 38  2  0  0  0  0
 39 37  2  0  0  0  0
 40 37  1  0  0  0  0
M  END
>  <minimizedAffinity>
-5.54626703

$$$$
