
 OpenBabel03242522393D

 40 42  0  0  0  0  0  0  0  0999 V2000
   46.1500   31.6970   45.7540 C   0  0  0  0  0  0  0  0  0  0  0  0
   45.9780   30.7510   45.1620 H   0  0  0  0  0  0  0  0  0  0  0  0
   45.1590   32.0170   46.0640 H   0  0  0  0  0  0  0  0  0  0  0  0
   47.4280   32.3310   47.8070 C   0  0  0  0  0  0  0  0  0  0  0  0
   47.0420   31.3390   46.8620 C   0  0  0  0  0  0  0  0  0  0  0  0
   47.5420   30.0470   47.0310 C   0  0  0  0  0  0  0  0  0  0  0  0
   48.3640   29.8030   48.0790 N   0  0  0  0  0  0  0  0  0  0  0  0
   48.7020   30.7680   48.9470 C   0  0  0  0  0  0  0  0  0  0  0  0
   48.2500   32.0110   48.8240 N   0  0  0  0  0  0  0  0  0  0  0  0
   47.0290   33.3050   47.6470 H   0  0  0  0  0  0  0  0  0  0  0  0
   47.2720   29.2730   46.3380 H   0  0  0  0  0  0  0  0  0  0  0  0
   49.6090   30.3970   50.0890 C   0  0  0  0  0  0  0  0  0  0  0  0
   49.0310   30.4470   51.0380 H   0  0  0  0  0  0  0  0  0  0  0  0
   49.8720   29.3370   49.9490 H   0  0  0  0  0  0  0  0  0  0  0  0
   51.8650   29.9770   48.0560 Cl  0  0  0  0  0  0  0  0  0  0  0  0
   51.8800   31.1690   49.3480 C   0  0  0  0  0  0  0  0  0  0  0  0
   50.8030   31.2400   50.1790 C   0  0  0  0  0  0  0  0  0  0  0  0
   50.8550   32.1990   51.1910 C   0  0  0  0  0  0  0  0  0  0  0  0
   50.0110   32.2950   51.8850 H   0  0  0  0  0  0  0  0  0  0  0  0
   51.9360   33.0580   51.3760 C   0  0  0  0  0  0  0  0  0  0  0  0
   51.8990   33.7790   52.1910 H   0  0  0  0  0  0  0  0  0  0  0  0
   53.0130   32.9490   50.5040 C   0  0  0  0  0  0  0  0  0  0  0  0
   52.9940   31.9990   49.4800 C   0  0  0  0  0  0  0  0  0  0  0  0
   46.8970   32.6520   44.8590 C   0  0  0  0  0  0  0  0  0  0  0  0
   47.2500   32.1280   43.9230 H   0  0  0  0  0  0  0  0  0  0  0  0
   47.8650   32.9900   45.3250 H   0  0  0  0  0  0  0  0  0  0  0  0
   46.4590   34.4990   43.3070 C   0  0  0  0  0  0  0  0  0  0  0  0
   46.1720   33.8760   44.5100 C   0  0  0  0  0  0  0  0  0  0  0  0
   45.2440   34.3400   45.3910 C   0  0  0  0  0  0  0  0  0  0  0  0
   44.5560   35.4910   45.0690 C   0  0  0  0  0  0  0  0  0  0  0  0
   44.7670   36.1730   43.9150 C   0  0  0  0  0  0  0  0  0  0  0  0
   45.7310   35.6400   43.0590 C   0  0  0  0  0  0  0  0  0  0  0  0
   44.9660   33.9260   46.3290 H   0  0  0  0  0  0  0  0  0  0  0  0
   43.7900   35.9310   45.7260 H   0  0  0  0  0  0  0  0  0  0  0  0
   44.2450   37.0780   43.6270 H   0  0  0  0  0  0  0  0  0  0  0  0
   45.9080   36.1810   42.1290 H   0  0  0  0  0  0  0  0  0  0  0  0
   47.6330   33.9470   42.1570 S   0  0  0  0  0  0  0  0  0  0  0  0
   49.0490   34.3730   42.5200 O   0  0  0  0  0  0  0  0  0  0  0  0
   47.3800   34.6270   40.8200 O   0  0  0  0  0  0  0  0  0  0  0  0
   47.5850   32.6050   41.9330 H   0  0  0  0  0  0  0  0  0  0  0  0
  1  3  1  0  0  0  0
  1  5  1  0  0  0  0
  2  1  1  0  0  0  0
  4  9  1  0  0  0  0
  5  6  1  0  0  0  0
  5  4  2  0  0  0  0
  6  7  2  0  0  0  0
  7  8  1  0  0  0  0
  8 12  1  0  0  0  0
  9  8  2  0  0  0  0
 10  4  1  0  0  0  0
 11  6  1  0  0  0  0
 12 17  1  0  0  0  0
 12 13  1  0  0  0  0
 14 12  1  0  0  0  0
 15 16  1  0  0  0  0
 16 23  2  0  0  0  0
 16 17  1  0  0  0  0
 17 18  2  0  0  0  0
 18 20  1  0  0  0  0
 18 19  1  0  0  0  0
 20 21  1  0  0  0  0
 22 20  2  0  0  0  0
 23 22  1  0  0  0  0
 24 26  1  0  0  0  0
 24  1  1  0  0  0  0
 25 24  1  0  0  0  0
 27 28  1  0  0  0  0
 28 24  1  0  0  0  0
 28 29  2  0  0  0  0
 29 33  1  0  0  0  0
 30 29  1  0  0  0  0
 30 34  1  0  0  0  0
 31 30  2  0  0  0  0
 32 27  2  0  0  0  0
 32 31  1  0  0  0  0
 35 31  1  0  0  0  0
 36 32  1  0  0  0  0
 37 38  2  0  0  0  0
 37 27  1  0  0  0  0
 39 37  2  0  0  0  0
 40 37  1  0  0  0  0
M  END
>  <minimizedAffinity>
-5.8294611

>  <minimizedRMSD>
0.935064435

$$$$
