
 OpenBabel03252508463D

 45 47  0  0  0  0  0  0  0  0999 V2000
   42.2200   31.9110   42.4870 N   0  0  0  0  0  0  0  0  0  0  0  0
   42.2210   32.3540   43.4350 H   0  0  0  0  0  0  0  0  0  0  0  0
   43.1210   32.5380   41.5780 C   0  0  0  0  0  0  0  0  0  0  0  0
   42.5330   32.9690   40.7140 H   0  0  0  0  0  0  0  0  0  0  0  0
   43.8130   31.8090   41.0730 H   0  0  0  0  0  0  0  0  0  0  0  0
   43.7190   34.9550   41.8270 C   0  0  0  0  0  0  0  0  0  0  0  0
   43.9540   33.6290   42.1570 C   0  0  0  0  0  0  0  0  0  0  0  0
   44.9760   33.3450   43.0310 C   0  0  0  0  0  0  0  0  0  0  0  0
   45.7320   34.3500   43.5560 C   0  0  0  0  0  0  0  0  0  0  0  0
   45.5190   35.6750   43.2440 C   0  0  0  0  0  0  0  0  0  0  0  0
   44.4820   35.9220   42.3600 C   0  0  0  0  0  0  0  0  0  0  0  0
   45.1280   32.2920   43.2630 H   0  0  0  0  0  0  0  0  0  0  0  0
   46.5250   34.0500   44.2430 H   0  0  0  0  0  0  0  0  0  0  0  0
   46.1370   36.4510   43.6770 H   0  0  0  0  0  0  0  0  0  0  0  0
   44.2900   36.9580   42.0950 H   0  0  0  0  0  0  0  0  0  0  0  0
   40.3700   35.8490   40.3010 C   0  0  0  0  0  0  0  0  0  0  0  0
   41.3560   35.6510   41.2870 C   0  0  0  0  0  0  0  0  0  0  0  0
   42.6170   35.1980   40.8930 C   0  0  0  0  0  0  0  0  0  0  0  0
   42.8140   34.9740   39.5700 N   0  0  0  0  0  0  0  0  0  0  0  0
   41.8430   35.1740   38.6370 C   0  0  0  0  0  0  0  0  0  0  0  0
   40.6370   35.6090   39.0220 N   0  0  0  0  0  0  0  0  0  0  0  0
   39.4210   36.1960   40.6540 H   0  0  0  0  0  0  0  0  0  0  0  0
   41.1960   35.8320   42.3530 H   0  0  0  0  0  0  0  0  0  0  0  0
   42.1510   34.9530   37.6230 H   0  0  0  0  0  0  0  0  0  0  0  0
   40.5930   31.9120   41.9190 S   0  0  0  0  0  0  0  0  0  0  0  0
   39.7750   32.9750   42.6050 O   0  0  0  0  0  0  0  0  0  0  0  0
   39.1980   33.6470   42.1550 H   0  0  0  0  0  0  0  0  0  0  0  0
   39.9570   30.5840   42.0870 O   0  0  0  0  0  0  0  0  0  0  0  0
   39.0880   30.4480   42.4960 H   0  0  0  0  0  0  0  0  0  0  0  0
   40.6540   32.2860   40.2750 O   0  0  0  0  0  0  0  0  0  0  0  0
   40.2520   31.1480   39.5830 C   0  0  0  0  0  0  0  0  0  0  0  0
   41.0040   30.7010   38.9390 H   0  0  0  0  0  0  0  0  0  0  0  0
   39.9870   30.3770   40.3530 H   0  0  0  0  0  0  0  0  0  0  0  0
   38.9590   31.4440   38.8400 C   0  0  0  0  0  0  0  0  0  0  0  0
   39.2580   31.7570   37.8060 H   0  0  0  0  0  0  0  0  0  0  0  0
   38.3650   32.2220   39.3440 H   0  0  0  0  0  0  0  0  0  0  0  0
   39.1820   29.7230   36.2780 Cl  0  0  0  0  0  0  0  0  0  0  0  0
   38.2150   29.3550   37.6870 C   0  0  0  0  0  0  0  0  0  0  0  0
   38.1710   30.1920   38.7960 C   0  0  0  0  0  0  0  0  0  0  0  0
   37.3630   29.7930   39.8410 C   0  0  0  0  0  0  0  0  0  0  0  0
   37.2810   30.4060   40.7490 H   0  0  0  0  0  0  0  0  0  0  0  0
   36.6400   28.6200   39.7770 C   0  0  0  0  0  0  0  0  0  0  0  0
   35.9810   28.2590   40.5820 H   0  0  0  0  0  0  0  0  0  0  0  0
   36.6770   27.7830   38.6800 C   0  0  0  0  0  3  0  0  0  0  0  0
   37.4740   28.1660   37.6380 C   0  0  0  0  0  3  0  0  0  0  0  0
  1  2  1  0  0  0  0
  3  7  1  0  0  0  0
  3  1  1  0  0  0  0
  4  3  1  0  0  0  0
  5  3  1  0  0  0  0
  6  7  2  0  0  0  0
  6 11  1  0  0  0  0
  7  8  1  0  0  0  0
  8 12  1  0  0  0  0
  8  9  2  0  0  0  0
  9 13  1  0  0  0  0
 10  9  1  0  0  0  0
 10 14  1  0  0  0  0
 11 10  2  0  0  0  0
 15 11  1  0  0  0  0
 16 22  1  0  0  0  0
 16 17  1  0  0  0  0
 17 23  1  0  0  0  0
 18 17  2  0  0  0  0
 18  6  1  0  0  0  0
 19 18  1  0  0  0  0
 20 21  1  0  0  0  0
 20 19  2  0  0  0  0
 21 16  2  0  0  0  0
 24 20  1  0  0  0  0
 25 28  1  0  0  0  0
 25  1  1  0  0  0  0
 25 26  1  0  0  0  0
 27 26  1  0  0  0  0
 28 29  1  0  0  0  0
 30 25  1  0  0  0  0
 31 30  1  0  0  0  0
 31 33  1  0  0  0  0
 32 31  1  0  0  0  0
 34 36  1  0  0  0  0
 34 31  1  0  0  0  0
 35 34  1  0  0  0  0
 37 38  1  0  0  0  0
 38 39  1  0  0  0  0
 39 34  1  0  0  0  0
 39 40  2  0  0  0  0
 40 41  1  0  0  0  0
 42 40  1  0  0  0  0
 42 43  1  0  0  0  0
 44 42  2  0  0  0  0
 45 38  2  0  0  0  0
 45 44  1  0  0  0  0
M  END
>  <minimizedAffinity>
-5.66561508

>  <minimizedRMSD>
3.29905415

$$$$
