
 OpenBabel03252503193D

 39 42  0  0  0  0  0  0  0  0999 V2000
   44.5170   34.8520   41.2470 C   0  0  0  0  0  0  0  0  0  0  0  0
   43.3180   35.4900   41.3290 C   0  0  0  0  0  0  0  0  0  0  0  0
   42.6010   35.1070   40.2670 N   0  0  0  0  0  0  0  0  0  0  0  0
   43.3470   34.2450   39.5450 C   0  0  0  0  0  0  0  0  0  0  0  0
   44.5440   34.0820   40.1530 N   0  0  0  0  0  0  0  0  0  0  0  0
   43.0600   33.5550   38.3380 N   0  0  0  0  0  0  0  0  0  0  0  0
   43.0070   36.1790   42.1000 H   0  0  0  0  0  0  0  0  0  0  0  0
   42.8140   32.5720   38.0940 H   0  0  0  0  0  0  0  0  0  0  0  0
   43.0920   34.1370   37.4790 H   0  0  0  0  0  0  0  0  0  0  0  0
   41.2680   35.4840   39.8460 C   0  0  0  0  0  0  0  0  0  0  0  0
   41.2570   35.9510   38.8630 H   0  0  0  0  0  0  0  0  0  0  0  0
   40.9690   36.3030   40.5590 H   0  0  0  0  0  0  0  0  0  0  0  0
   39.4230   34.5740   37.5230 Cl  0  0  0  0  0  0  0  0  0  0  0  0
   39.3530   33.8800   39.1340 C   0  0  0  0  0  0  0  0  0  0  0  0
   40.2650   34.4150   40.0070 C   0  0  0  0  0  0  0  0  0  0  0  0
   40.2500   33.8770   41.3010 C   0  0  0  0  0  0  0  0  0  0  0  0
   40.9080   34.1870   42.1190 H   0  0  0  0  0  0  0  0  0  0  0  0
   39.3720   32.8770   41.6580 C   0  0  0  0  0  0  0  0  0  0  0  0
   39.2920   32.4080   42.6280 H   0  0  0  0  0  0  0  0  0  0  0  0
   38.4690   32.3620   40.7610 C   0  0  0  0  0  0  0  0  0  0  0  0
   38.4610   32.8810   39.4590 C   0  0  0  0  0  0  0  0  0  0  0  0
   45.6630   34.9590   42.2090 C   0  0  0  0  0  0  0  0  0  0  0  0
   46.8430   35.2660   41.8970 O   0  0  0  0  0  0  0  0  0  0  0  0
   44.7480   35.6270   44.3820 C   0  0  0  0  0  0  0  0  0  0  0  0
   45.4450   34.7020   43.6020 C   0  0  0  0  0  0  0  0  0  0  0  0
   45.8770   33.5780   44.2820 C   0  0  0  0  0  0  0  0  0  0  0  0
   45.6550   33.3790   45.5790 N   0  0  0  0  0  0  0  0  0  0  0  0
   44.9650   34.3190   46.3000 C   0  0  0  0  0  0  0  0  0  0  0  0
   44.5230   35.4220   45.6980 N   0  0  0  0  0  0  0  0  0  0  0  0
   44.3930   36.5270   43.8690 H   0  0  0  0  0  0  0  0  0  0  0  0
   44.7970   34.1390   47.3380 H   0  0  0  0  0  0  0  0  0  0  0  0
   46.5990   32.5900   43.5570 C   0  0  0  0  0  0  0  0  0  0  0  0
   47.9090   32.3080   43.3530 C   0  0  0  0  0  0  0  0  0  0  0  0
   48.3220   31.3020   42.6140 C   0  0  0  0  0  0  0  0  0  0  0  0
   47.3450   30.5450   42.0560 C   0  0  0  0  0  0  0  0  0  0  0  0
   45.7970   31.3140   42.6150 S   0  0  0  0  0  0  0  0  0  0  0  0
   48.6020   33.0060   43.8680 H   0  0  0  0  0  0  0  0  0  0  0  0
   49.3480   31.0180   42.4100 H   0  0  0  0  0  0  0  0  0  0  0  0
   47.4020   29.6540   41.4000 H   0  0  0  0  0  0  0  0  0  0  0  0
  1  2  2  0  0  0  0
  1 22  1  0  0  0  0
  2  7  1  0  0  0  0
  3  2  1  0  0  0  0
  4  5  2  0  0  0  0
  4  3  1  0  0  0  0
  5  1  1  0  0  0  0
  6  4  1  0  0  0  0
  8  6  1  0  0  0  0
  9  6  1  0  0  0  0
 10 15  1  0  0  0  0
 10  3  1  0  0  0  0
 10 12  1  0  0  0  0
 11 10  1  0  0  0  0
 13 14  1  0  0  0  0
 14 21  2  0  0  0  0
 14 15  1  0  0  0  0
 15 16  2  0  0  0  0
 16 18  1  0  0  0  0
 16 17  1  0  0  0  0
 18 19  1  0  0  0  0
 20 18  2  0  0  0  0
 21 20  1  0  0  0  0
 22 25  1  0  0  0  0
 23 22  2  0  0  0  0
 24 29  1  0  0  0  0
 25 26  1  0  0  0  0
 25 24  2  0  0  0  0
 26 27  2  0  0  0  0
 27 28  1  0  0  0  0
 28 31  1  0  0  0  0
 29 28  2  0  0  0  0
 30 24  1  0  0  0  0
 32 26  1  0  0  0  0
 33 32  2  0  0  0  0
 33 37  1  0  0  0  0
 34 33  1  0  0  0  0
 35 34  2  0  0  0  0
 35 36  1  0  0  0  0
 36 32  1  0  0  0  0
 38 34  1  0  0  0  0
 39 35  1  0  0  0  0
M  END
>  <minimizedAffinity>
-6.41538477

>  <minimizedRMSD>
2.38591552

$$$$
