
 OpenBabel03242516313D

 46 50  0  0  0  0  0  0  0  0999 V2000
   37.6330   30.6290   39.2820 C   0  0  0  0  0  0  0  0  0  0  0  0
   37.7020   31.2790   38.0740 N   0  0  0  0  0  0  0  0  0  0  0  0
   37.3360   30.7280   36.9200 C   0  0  0  0  0  0  0  0  0  0  0  0
   36.8780   29.4670   36.9560 N   0  0  0  0  0  0  0  0  0  0  0  0
   36.7830   28.7700   38.0880 C   0  0  0  0  0  0  0  0  0  0  0  0
   36.2980   27.4720   38.1290 C   0  0  0  0  0  0  0  0  0  0  0  0
   36.1990   26.7850   39.3020 C   0  0  0  0  0  0  0  0  0  0  0  0
   36.5790   27.3620   40.4760 C   0  0  0  0  0  0  0  0  0  0  0  0
   37.0770   28.6710   40.4870 C   0  0  0  0  0  0  0  0  0  0  0  0
   37.1680   29.3530   39.2970 C   0  0  0  0  0  0  0  0  0  0  0  0
   37.3950   31.2440   35.9910 H   0  0  0  0  0  0  0  0  0  0  0  0
   36.0170   27.0770   37.1630 H   0  0  0  0  0  0  0  0  0  0  0  0
   35.8090   25.8000   39.1840 H   0  0  0  0  0  0  0  0  0  0  0  0
   36.4450   26.6970   41.3090 H   0  0  0  0  0  0  0  0  0  0  0  0
   37.4910   29.1890   41.8080 C   0  0  0  0  0  0  0  0  0  0  0  0
   36.7260   29.0430   42.6000 H   0  0  0  0  0  0  0  0  0  0  0  0
   38.0500   30.1200   41.8070 H   0  0  0  0  0  0  0  0  0  0  0  0
   36.7660   27.7860   44.2900 Cl  0  0  0  0  0  0  0  0  0  0  0  0
   38.3620   27.5960   43.5440 C   0  0  0  0  0  0  0  0  0  0  0  0
   38.5890   28.3070   42.3860 C   0  0  0  0  0  0  0  0  0  0  0  0
   39.8660   28.1290   41.8290 C   0  0  0  0  0  0  0  0  0  0  0  0
   40.0350   28.6930   40.9150 H   0  0  0  0  0  0  0  0  0  0  0  0
   40.7600   27.2900   42.4540 C   0  0  0  0  0  0  0  0  0  0  0  0
   41.7320   27.2200   41.9350 H   0  0  0  0  0  0  0  0  0  0  0  0
   40.4630   26.6090   43.6140 C   0  0  0  0  0  3  0  0  0  0  0  0
   39.2180   26.7480   44.2080 C   0  0  0  0  0  3  0  0  0  0  0  0
   38.0830   31.4120   40.7460 S   0  0  0  0  0  0  0  0  0  0  0  0
   40.9770   34.1360   40.3220 C   0  0  0  0  0  0  0  0  0  0  0  0
   40.2870   32.9570   40.4980 C   0  0  0  0  0  0  0  0  0  0  0  0
   38.9150   32.9340   40.4870 C   0  0  0  0  0  0  0  0  0  0  0  0
   38.1980   34.0970   40.2970 C   0  0  0  0  0  0  0  0  0  0  0  0
   38.8390   35.2860   40.1180 C   0  0  0  0  0  0  0  0  0  0  0  0
   40.2210   35.2860   40.1340 C   0  0  0  0  0  0  0  0  0  0  0  0
   40.8540   32.0440   40.6480 H   0  0  0  0  0  0  0  0  0  0  0  0
   37.1170   34.0280   40.2960 H   0  0  0  0  0  0  0  0  0  0  0  0
   38.2950   36.2030   39.9690 H   0  0  0  0  0  0  0  0  0  0  0  0
   40.7830   36.2110   39.9960 H   0  0  0  0  0  0  0  0  0  0  0  0
   44.3800   34.5520   41.5930 C   0  0  0  0  0  0  0  0  0  0  0  0
   45.1860   34.1940   40.4830 C   0  0  0  0  0  0  0  0  0  0  0  0
   44.5590   33.8130   39.3070 C   0  0  0  0  0  0  0  0  0  0  0  0
   43.1860   33.7850   39.2310 N   0  0  0  0  0  0  0  0  0  0  0  0
   42.4440   34.1430   40.3400 C   0  0  0  0  0  0  0  0  0  0  0  0
   43.0400   34.5230   41.5070 N   0  0  0  0  0  0  0  0  0  0  0  0
   44.9090   34.8430   42.4910 H   0  0  0  0  0  0  0  0  0  0  0  0
   46.2740   34.2080   40.5200 H   0  0  0  0  0  0  0  0  0  0  0  0
   45.0610   33.5260   38.4160 H   0  0  0  0  0  0  0  0  0  0  0  0
  1 10  1  0  0  0  0
  1 27  1  0  0  0  0
  2  1  2  0  0  0  0
  3  4  2  0  0  0  0
  3  2  1  0  0  0  0
  4  5  1  0  0  0  0
  5  6  2  0  0  0  0
  5 10  1  0  0  0  0
  6  7  1  0  0  0  0
  7  8  2  0  0  0  0
  8  9  1  0  0  0  0
  8 14  1  0  0  0  0
  9 15  1  0  0  0  0
 10  9  2  0  0  0  0
 11  3  1  0  0  0  0
 12  6  1  0  0  0  0
 13  7  1  0  0  0  0
 15 20  1  0  0  0  0
 15 16  1  0  0  0  0
 17 15  1  0  0  0  0
 19 26  1  0  0  0  0
 19 18  1  0  0  0  0
 20 19  2  0  0  0  0
 21 20  1  0  0  0  0
 21 23  2  0  0  0  0
 22 21  1  0  0  0  0
 23 25  1  0  0  0  0
 24 23  1  0  0  0  0
 25 26  2  0  0  0  0
 28 42  1  0  0  0  0
 28 29  1  0  0  0  0
 29 34  1  0  0  0  0
 30 29  2  0  0  0  0
 30 27  1  0  0  0  0
 31 30  1  0  0  0  0
 32 33  1  0  0  0  0
 32 31  2  0  0  0  0
 33 28  2  0  0  0  0
 35 31  1  0  0  0  0
 36 32  1  0  0  0  0
 37 33  1  0  0  0  0
 38 44  1  0  0  0  0
 39 45  1  0  0  0  0
 39 38  2  0  0  0  0
 40 39  1  0  0  0  0
 41 40  2  0  0  0  0
 41 42  1  0  0  0  0
 42 43  2  0  0  0  0
 43 38  1  0  0  0  0
 46 40  1  0  0  0  0
M  END
>  <minimizedAffinity>
-6.98586845

$$$$

 OpenBabel03242516313D

 46 50  0  0  0  0  0  0  0  0999 V2000
   37.8070   28.4020   37.0570 C   0  0  0  0  0  0  0  0  0  0  0  0
   37.6890   28.4230   35.6880 N   0  0  0  0  0  0  0  0  0  0  0  0
   36.5360   28.6080   35.0520 C   0  0  0  0  0  0  0  0  0  0  0  0
   35.4370   28.7820   35.8030 N   0  0  0  0  0  0  0  0  0  0  0  0
   35.4700   28.7740   37.1350 C   0  0  0  0  0  0  0  0  0  0  0  0
   34.3380   28.9660   37.9120 C   0  0  0  0  0  0  0  0  0  0  0  0
   34.4010   28.9660   39.2740 C   0  0  0  0  0  0  0  0  0  0  0  0
   35.5890   28.7730   39.9110 C   0  0  0  0  0  0  0  0  0  0  0  0
   36.7610   28.5730   39.1710 C   0  0  0  0  0  0  0  0  0  0  0  0
   36.6830   28.5790   37.7990 C   0  0  0  0  0  0  0  0  0  0  0  0
   36.4600   28.6210   33.9900 H   0  0  0  0  0  0  0  0  0  0  0  0
   33.4320   29.1110   37.3410 H   0  0  0  0  0  0  0  0  0  0  0  0
   33.4560   29.1270   39.7410 H   0  0  0  0  0  0  0  0  0  0  0  0
   35.4750   28.7960   40.9800 H   0  0  0  0  0  0  0  0  0  0  0  0
   37.9870   28.3400   39.9620 C   0  0  0  0  0  0  0  0  0  0  0  0
   38.6060   29.2520   40.0960 H   0  0  0  0  0  0  0  0  0  0  0  0
   38.4990   27.3980   39.7890 H   0  0  0  0  0  0  0  0  0  0  0  0
   38.7340   30.5130   41.7990 Cl  0  0  0  0  0  0  0  0  0  0  0  0
   37.9190   29.0470   42.3710 C   0  0  0  0  0  0  0  0  0  0  0  0
   37.6230   28.0960   41.4200 C   0  0  0  0  0  0  0  0  0  0  0  0
   36.9780   26.9510   41.9150 C   0  0  0  0  0  0  0  0  0  0  0  0
   36.7480   26.2070   41.1570 H   0  0  0  0  0  0  0  0  0  0  0  0
   36.6990   26.8660   43.2600 C   0  0  0  0  0  0  0  0  0  0  0  0
   36.1920   25.9290   43.5450 H   0  0  0  0  0  0  0  0  0  0  0  0
   37.0250   27.8600   44.1570 C   0  0  0  0  0  3  0  0  0  0  0  0
   37.6620   29.0130   43.7220 C   0  0  0  0  0  3  0  0  0  0  0  0
   39.3350   28.1990   37.8200 S   0  0  0  0  0  0  0  0  0  0  0  0
   40.7380   31.9000   38.3750 C   0  0  0  0  0  0  0  0  0  0  0  0
   39.9830   30.7500   38.4360 C   0  0  0  0  0  0  0  0  0  0  0  0
   40.3460   29.6290   37.7320 C   0  0  0  0  0  0  0  0  0  0  0  0
   41.4800   29.6330   36.9460 C   0  0  0  0  0  0  0  0  0  0  0  0
   42.2570   30.7500   36.8560 C   0  0  0  0  0  0  0  0  0  0  0  0
   41.8720   31.8670   37.5730 C   0  0  0  0  0  0  0  0  0  0  0  0
   39.0920   30.7500   39.0550 H   0  0  0  0  0  0  0  0  0  0  0  0
   41.7240   28.7250   36.4100 H   0  0  0  0  0  0  0  0  0  0  0  0
   43.1440   30.7710   36.2470 H   0  0  0  0  0  0  0  0  0  0  0  0
   42.4590   32.7860   37.5350 H   0  0  0  0  0  0  0  0  0  0  0  0
   38.5760   34.2520   40.1510 C   0  0  0  0  0  0  0  0  0  0  0  0
   39.4690   35.2800   40.5460 C   0  0  0  0  0  0  0  0  0  0  0  0
   40.8070   35.1600   40.2010 C   0  0  0  0  0  0  0  0  0  0  0  0
   41.2440   34.0650   39.4930 N   0  0  0  0  0  0  0  0  0  0  0  0
   40.3340   33.0900   39.1310 C   0  0  0  0  0  0  0  0  0  0  0  0
   39.0140   33.1880   39.4590 N   0  0  0  0  0  0  0  0  0  0  0  0
   37.5420   34.3850   40.4400 H   0  0  0  0  0  0  0  0  0  0  0  0
   39.1470   36.1550   41.1070 H   0  0  0  0  0  0  0  0  0  0  0  0
   41.5630   35.8670   40.4420 H   0  0  0  0  0  0  0  0  0  0  0  0
  1 10  1  0  0  0  0
  1 27  1  0  0  0  0
  2  1  2  0  0  0  0
  3  2  1  0  0  0  0
  3  4  2  0  0  0  0
  4  5  1  0  0  0  0
  5 10  2  0  0  0  0
  5  6  1  0  0  0  0
  6  7  2  0  0  0  0
  7 13  1  0  0  0  0
  7  8  1  0  0  0  0
  8 14  1  0  0  0  0
  9  8  2  0  0  0  0
  9 15  1  0  0  0  0
 10  9  1  0  0  0  0
 11  3  1  0  0  0  0
 12  6  1  0  0  0  0
 15 16  1  0  0  0  0
 15 20  1  0  0  0  0
 17 15  1  0  0  0  0
 18 19  1  0  0  0  0
 19 26  1  0  0  0  0
 20 21  1  0  0  0  0
 20 19  2  0  0  0  0
 21 23  2  0  0  0  0
 22 21  1  0  0  0  0
 23 24  1  0  0  0  0
 23 25  1  0  0  0  0
 26 25  2  0  0  0  0
 28 29  1  0  0  0  0
 28 42  1  0  0  0  0
 29 34  1  0  0  0  0
 30 27  1  0  0  0  0
 30 29  2  0  0  0  0
 31 30  1  0  0  0  0
 32 31  2  0  0  0  0
 32 33  1  0  0  0  0
 33 28  2  0  0  0  0
 35 31  1  0  0  0  0
 36 32  1  0  0  0  0
 37 33  1  0  0  0  0
 38 44  1  0  0  0  0
 38 39  1  0  0  0  0
 39 45  1  0  0  0  0
 40 46  1  0  0  0  0
 40 39  2  0  0  0  0
 41 40  1  0  0  0  0
 42 43  1  0  0  0  0
 42 41  2  0  0  0  0
 43 38  2  0  0  0  0
M  END
>  <minimizedAffinity>
-6.81622171

$$$$

 OpenBabel03242516313D

 46 50  0  0  0  0  0  0  0  0999 V2000
   38.7100   26.7290   42.8340 C   0  0  0  0  0  0  0  0  0  0  0  0
   39.6150   26.1100   43.6620 N   0  0  0  0  0  0  0  0  0  0  0  0
   39.9390   24.8230   43.5670 C   0  0  0  0  0  0  0  0  0  0  0  0
   39.3400   24.1060   42.6030 N   0  0  0  0  0  0  0  0  0  0  0  0
   38.4520   24.6340   41.7620 C   0  0  0  0  0  0  0  0  0  0  0  0
   37.8420   23.8970   40.7590 C   0  0  0  0  0  0  0  0  0  0  0  0
   36.9450   24.4640   39.9040 C   0  0  0  0  0  0  0  0  0  0  0  0
   36.6220   25.7830   40.0150 C   0  0  0  0  0  0  0  0  0  0  0  0
   37.2090   26.5700   41.0130 C   0  0  0  0  0  0  0  0  0  0  0  0
   38.1140   25.9850   41.8670 C   0  0  0  0  0  0  0  0  0  0  0  0
   40.6420   24.3570   44.2160 H   0  0  0  0  0  0  0  0  0  0  0  0
   38.1440   22.8600   40.7300 H   0  0  0  0  0  0  0  0  0  0  0  0
   36.5570   23.7810   39.1830 H   0  0  0  0  0  0  0  0  0  0  0  0
   35.9020   26.0800   39.2740 H   0  0  0  0  0  0  0  0  0  0  0  0
   36.7630   27.9770   41.0660 C   0  0  0  0  0  0  0  0  0  0  0  0
   37.4020   28.6200   41.7080 H   0  0  0  0  0  0  0  0  0  0  0  0
   35.6890   28.1410   41.0910 H   0  0  0  0  0  0  0  0  0  0  0  0
   34.3860   29.1410   39.7820 Cl  0  0  0  0  0  0  0  0  0  0  0  0
   35.9910   29.2400   39.0370 C   0  0  0  0  0  0  0  0  0  0  0  0
   37.0280   28.6540   39.7290 C   0  0  0  0  0  0  0  0  0  0  0  0
   38.2820   28.7540   39.1040 C   0  0  0  0  0  0  0  0  0  0  0  0
   39.0930   28.2900   39.6580 H   0  0  0  0  0  0  0  0  0  0  0  0
   38.3790   29.4060   37.8950 C   0  0  0  0  0  0  0  0  0  0  0  0
   39.4060   29.4290   37.4910 H   0  0  0  0  0  0  0  0  0  0  0  0
   37.2950   29.9710   37.2590 C   0  0  0  0  0  3  0  0  0  0  0  0
   36.0340   29.9010   37.8310 C   0  0  0  0  0  3  0  0  0  0  0  0
   38.3640   28.4070   42.9830 S   0  0  0  0  0  0  0  0  0  0  0  0
   40.4670   31.5040   41.5820 C   0  0  0  0  0  0  0  0  0  0  0  0
   39.4440   30.6780   41.9900 C   0  0  0  0  0  0  0  0  0  0  0  0
   39.7040   29.4330   42.5070 C   0  0  0  0  0  0  0  0  0  0  0  0
   41.0030   28.9850   42.6300 C   0  0  0  0  0  0  0  0  0  0  0  0
   42.0470   29.7690   42.2400 C   0  0  0  0  0  0  0  0  0  0  0  0
   41.7620   31.0180   41.7220 C   0  0  0  0  0  0  0  0  0  0  0  0
   38.4230   31.0330   41.8910 H   0  0  0  0  0  0  0  0  0  0  0  0
   41.1570   27.9960   43.0440 H   0  0  0  0  0  0  0  0  0  0  0  0
   43.0670   29.4350   42.3280 H   0  0  0  0  0  0  0  0  0  0  0  0
   42.5610   31.6850   41.3950 H   0  0  0  0  0  0  0  0  0  0  0  0
   38.5130   34.3390   40.3570 C   0  0  0  0  0  0  0  0  0  0  0  0
   39.5050   35.2860   39.9980 C   0  0  0  0  0  0  0  0  0  0  0  0
   40.8370   34.9470   40.1770 C   0  0  0  0  0  0  0  0  0  0  0  0
   41.1750   33.7180   40.6940 N   0  0  0  0  0  0  0  0  0  0  0  0
   40.1710   32.8290   41.0290 C   0  0  0  0  0  0  0  0  0  0  0  0
   38.8540   33.1420   40.8590 N   0  0  0  0  0  0  0  0  0  0  0  0
   37.4860   34.6440   40.2010 H   0  0  0  0  0  0  0  0  0  0  0  0
   39.2610   36.2650   39.5880 H   0  0  0  0  0  0  0  0  0  0  0  0
   41.6610   35.5750   39.9430 H   0  0  0  0  0  0  0  0  0  0  0  0
  1 27  1  0  0  0  0
  1  2  1  0  0  0  0
  3  2  2  0  0  0  0
  3 11  1  0  0  0  0
  4  3  1  0  0  0  0
  5 10  1  0  0  0  0
  5  4  2  0  0  0  0
  6  5  1  0  0  0  0
  7  8  1  0  0  0  0
  7  6  2  0  0  0  0
  8  9  2  0  0  0  0
  9 15  1  0  0  0  0
  9 10  1  0  0  0  0
 10  1  2  0  0  0  0
 12  6  1  0  0  0  0
 13  7  1  0  0  0  0
 14  8  1  0  0  0  0
 15 17  1  0  0  0  0
 15 16  1  0  0  0  0
 19 20  1  0  0  0  0
 19 18  1  0  0  0  0
 20 15  1  0  0  0  0
 21 22  1  0  0  0  0
 21 20  2  0  0  0  0
 23 21  1  0  0  0  0
 24 23  1  0  0  0  0
 25 26  1  0  0  0  0
 25 23  2  0  0  0  0
 26 19  2  0  0  0  0
 28 33  2  0  0  0  0
 28 29  1  0  0  0  0
 29 30  2  0  0  0  0
 30 31  1  0  0  0  0
 30 27  1  0  0  0  0
 31 35  1  0  0  0  0
 32 36  1  0  0  0  0
 32 31  2  0  0  0  0
 33 32  1  0  0  0  0
 34 29  1  0  0  0  0
 37 33  1  0  0  0  0
 38 43  1  0  0  0  0
 39 40  1  0  0  0  0
 39 38  2  0  0  0  0
 40 41  2  0  0  0  0
 41 42  1  0  0  0  0
 42 28  1  0  0  0  0
 43 42  2  0  0  0  0
 44 38  1  0  0  0  0
 45 39  1  0  0  0  0
 46 40  1  0  0  0  0
M  END
>  <minimizedAffinity>
-6.7895546

$$$$

 OpenBabel03242516313D

 46 50  0  0  0  0  0  0  0  0999 V2000
   36.8410   26.8180   37.8890 C   0  0  0  0  0  0  0  0  0  0  0  0
   36.0820   27.0840   36.7750 N   0  0  0  0  0  0  0  0  0  0  0  0
   35.0900   26.3030   36.3560 C   0  0  0  0  0  0  0  0  0  0  0  0
   34.8300   25.1980   37.0740 N   0  0  0  0  0  0  0  0  0  0  0  0
   35.5210   24.8720   38.1650 C   0  0  0  0  0  0  0  0  0  0  0  0
   35.2450   23.7390   38.9140 C   0  0  0  0  0  0  0  0  0  0  0  0
   35.9600   23.4330   40.0330 C   0  0  0  0  0  0  0  0  0  0  0  0
   36.9740   24.2420   40.4490 C   0  0  0  0  0  0  0  0  0  0  0  0
   37.2930   25.3980   39.7260 C   0  0  0  0  0  0  0  0  0  0  0  0
   36.5620   25.6950   38.6000 C   0  0  0  0  0  0  0  0  0  0  0  0
   34.5110   26.5220   35.4900 H   0  0  0  0  0  0  0  0  0  0  0  0
   34.4300   23.1440   38.5260 H   0  0  0  0  0  0  0  0  0  0  0  0
   35.6380   22.5350   40.5100 H   0  0  0  0  0  0  0  0  0  0  0  0
   37.4420   23.8680   41.3410 H   0  0  0  0  0  0  0  0  0  0  0  0
   38.4320   26.1850   40.2430 C   0  0  0  0  0  0  0  0  0  0  0  0
   38.6620   27.0830   39.6320 H   0  0  0  0  0  0  0  0  0  0  0  0
   39.2650   25.6170   40.6480 H   0  0  0  0  0  0  0  0  0  0  0  0
   40.3980   28.1250   41.2550 Cl  0  0  0  0  0  0  0  0  0  0  0  0
   38.8720   27.8180   42.1000 C   0  0  0  0  0  0  0  0  0  0  0  0
   38.0310   26.8840   41.5350 C   0  0  0  0  0  0  0  0  0  0  0  0
   36.8340   26.6700   42.2370 C   0  0  0  0  0  0  0  0  0  0  0  0
   36.1780   25.9330   41.7830 H   0  0  0  0  0  0  0  0  0  0  0  0
   36.5960   27.3820   43.3910 C   0  0  0  0  0  0  0  0  0  0  0  0
   35.6280   27.1400   43.8630 H   0  0  0  0  0  0  0  0  0  0  0  0
   37.4840   28.3040   43.8990 C   0  0  0  0  0  3  0  0  0  0  0  0
   38.6820   28.5540   43.2470 C   0  0  0  0  0  3  0  0  0  0  0  0
   38.0840   27.8900   38.4010 S   0  0  0  0  0  0  0  0  0  0  0  0
   37.8110   31.5790   39.9150 C   0  0  0  0  0  0  0  0  0  0  0  0
   38.2450   30.4480   39.2600 C   0  0  0  0  0  0  0  0  0  0  0  0
   37.4730   29.3140   39.2220 C   0  0  0  0  0  0  0  0  0  0  0  0
   36.2400   29.2870   39.8400 C   0  0  0  0  0  0  0  0  0  0  0  0
   35.7700   30.3830   40.4990 C   0  0  0  0  0  0  0  0  0  0  0  0
   36.5650   31.5130   40.5260 C   0  0  0  0  0  0  0  0  0  0  0  0
   39.2160   30.4730   38.7750 H   0  0  0  0  0  0  0  0  0  0  0  0
   35.6680   28.3690   39.7820 H   0  0  0  0  0  0  0  0  0  0  0  0
   34.8110   30.3790   40.9880 H   0  0  0  0  0  0  0  0  0  0  0  0
   36.2360   32.4180   41.0400 H   0  0  0  0  0  0  0  0  0  0  0  0
   40.8130   33.6600   39.7600 C   0  0  0  0  0  0  0  0  0  0  0  0
   40.3150   34.9660   39.9930 C   0  0  0  0  0  0  0  0  0  0  0  0
   38.9540   35.1250   40.2020 C   0  0  0  0  0  0  0  0  0  0  0  0
   38.1170   34.0350   40.1800 N   0  0  0  0  0  0  0  0  0  0  0  0
   38.6510   32.7810   39.9490 C   0  0  0  0  0  0  0  0  0  0  0  0
   39.9870   32.6010   39.7420 N   0  0  0  0  0  0  0  0  0  0  0  0
   41.8810   33.5790   39.6010 H   0  0  0  0  0  0  0  0  0  0  0  0
   40.9580   35.8440   40.0150 H   0  0  0  0  0  0  0  0  0  0  0  0
   38.4720   36.0540   40.3880 H   0  0  0  0  0  0  0  0  0  0  0  0
  1 27  1  0  0  0  0
  1 10  1  0  0  0  0
  2  1  2  0  0  0  0
  3  2  1  0  0  0  0
  3  4  2  0  0  0  0
  4  5  1  0  0  0  0
  5 10  2  0  0  0  0
  5  6  1  0  0  0  0
  6  7  2  0  0  0  0
  7  8  1  0  0  0  0
  7 13  1  0  0  0  0
  8 14  1  0  0  0  0
  9 15  1  0  0  0  0
  9  8  2  0  0  0  0
 10  9  1  0  0  0  0
 11  3  1  0  0  0  0
 12  6  1  0  0  0  0
 15 17  1  0  0  0  0
 15 20  1  0  0  0  0
 16 15  1  0  0  0  0
 18 19  1  0  0  0  0
 19 26  1  0  0  0  0
 20 19  2  0  0  0  0
 20 21  1  0  0  0  0
 21 23  2  0  0  0  0
 22 21  1  0  0  0  0
 23 24  1  0  0  0  0
 23 25  1  0  0  0  0
 26 25  2  0  0  0  0
 27 30  1  0  0  0  0
 28 42  1  0  0  0  0
 28 33  1  0  0  0  0
 29 28  2  0  0  0  0
 30 29  1  0  0  0  0
 30 31  2  0  0  0  0
 31 32  1  0  0  0  0
 32 33  2  0  0  0  0
 32 36  1  0  0  0  0
 33 37  1  0  0  0  0
 34 29  1  0  0  0  0
 35 31  1  0  0  0  0
 38 39  1  0  0  0  0
 39 45  1  0  0  0  0
 39 40  2  0  0  0  0
 40 46  1  0  0  0  0
 41 40  1  0  0  0  0
 42 41  2  0  0  0  0
 43 38  2  0  0  0  0
 43 42  1  0  0  0  0
 44 38  1  0  0  0  0
M  END
>  <minimizedAffinity>
-6.76872158

$$$$

 OpenBabel03242516313D

 46 50  0  0  0  0  0  0  0  0999 V2000
   36.3090   27.4810   39.7560 C   0  0  0  0  0  0  0  0  0  0  0  0
   35.7700   27.6990   38.5110 N   0  0  0  0  0  0  0  0  0  0  0  0
   35.4970   26.7240   37.6470 C   0  0  0  0  0  0  0  0  0  0  0  0
   35.7690   25.4660   38.0290 N   0  0  0  0  0  0  0  0  0  0  0  0
   36.2920   25.1750   39.2200 C   0  0  0  0  0  0  0  0  0  0  0  0
   36.5620   23.8760   39.6200 C   0  0  0  0  0  0  0  0  0  0  0  0
   37.0870   23.6040   40.8480 C   0  0  0  0  0  0  0  0  0  0  0  0
   37.3630   24.6130   41.7210 C   0  0  0  0  0  0  0  0  0  0  0  0
   37.1100   25.9430   41.3630 C   0  0  0  0  0  0  0  0  0  0  0  0
   36.5780   26.2020   40.1220 C   0  0  0  0  0  0  0  0  0  0  0  0
   35.0800   26.9080   36.6850 H   0  0  0  0  0  0  0  0  0  0  0  0
   36.3200   23.1280   38.8790 H   0  0  0  0  0  0  0  0  0  0  0  0
   37.2410   22.5640   41.0230 H   0  0  0  0  0  0  0  0  0  0  0  0
   37.7740   24.2410   42.6420 H   0  0  0  0  0  0  0  0  0  0  0  0
   37.4780   26.9600   42.3700 C   0  0  0  0  0  0  0  0  0  0  0  0
   36.9460   26.8360   43.3370 H   0  0  0  0  0  0  0  0  0  0  0  0
   37.6340   27.9690   42.0000 H   0  0  0  0  0  0  0  0  0  0  0  0
   39.0140   29.3950   42.9710 Cl  0  0  0  0  0  0  0  0  0  0  0  0
   39.7110   27.7800   43.1750 C   0  0  0  0  0  0  0  0  0  0  0  0
   38.8990   26.7130   42.8570 C   0  0  0  0  0  0  0  0  0  0  0  0
   39.4900   25.4510   43.0320 C   0  0  0  0  0  0  0  0  0  0  0  0
   38.8410   24.6170   42.7800 H   0  0  0  0  0  0  0  0  0  0  0  0
   40.7860   25.3750   43.4910 C   0  0  0  0  0  0  0  0  0  0  0  0
   41.1540   24.3400   43.5950 H   0  0  0  0  0  0  0  0  0  0  0  0
   41.5410   26.4880   43.7910 C   0  0  0  0  0  3  0  0  0  0  0  0
   41.0070   27.7580   43.6360 C   0  0  0  0  0  3  0  0  0  0  0  0
   36.6010   28.7820   40.8430 S   0  0  0  0  0  0  0  0  0  0  0  0
   39.0560   31.1220   38.7290 C   0  0  0  0  0  0  0  0  0  0  0  0
   38.4590   30.0400   39.3350 C   0  0  0  0  0  0  0  0  0  0  0  0
   37.3060   30.1870   40.0650 C   0  0  0  0  0  0  0  0  0  0  0  0
   36.7200   31.4280   40.2040 C   0  0  0  0  0  0  0  0  0  0  0  0
   37.2760   32.5270   39.6210 C   0  0  0  0  0  0  0  0  0  0  0  0
   38.4370   32.3560   38.8910 C   0  0  0  0  0  0  0  0  0  0  0  0
   38.9230   29.0650   39.2240 H   0  0  0  0  0  0  0  0  0  0  0  0
   35.8110   31.4930   40.7890 H   0  0  0  0  0  0  0  0  0  0  0  0
   36.8330   33.5030   39.7200 H   0  0  0  0  0  0  0  0  0  0  0  0
   38.9230   33.2030   38.4040 H   0  0  0  0  0  0  0  0  0  0  0  0
   41.7440   29.4390   36.9100 C   0  0  0  0  0  0  0  0  0  0  0  0
   42.5830   30.5080   36.5080 C   0  0  0  0  0  0  0  0  0  0  0  0
   42.2230   31.7990   36.8630 C   0  0  0  0  0  0  0  0  0  0  0  0
   41.0750   32.0240   37.5870 N   0  0  0  0  0  0  0  0  0  0  0  0
   40.2900   30.9480   37.9550 C   0  0  0  0  0  0  0  0  0  0  0  0
   40.6260   29.6700   37.6180 N   0  0  0  0  0  0  0  0  0  0  0  0
   42.0610   28.4480   36.6130 H   0  0  0  0  0  0  0  0  0  0  0  0
   43.4950   30.3550   35.9340 H   0  0  0  0  0  0  0  0  0  0  0  0
   42.7750   32.6740   36.6180 H   0  0  0  0  0  0  0  0  0  0  0  0
  1 10  1  0  0  0  0
  1 27  1  0  0  0  0
  2  1  2  0  0  0  0
  3  4  2  0  0  0  0
  3  2  1  0  0  0  0
  4  5  1  0  0  0  0
  5  6  2  0  0  0  0
  5 10  1  0  0  0  0
  6  7  1  0  0  0  0
  7 13  1  0  0  0  0
  7  8  2  0  0  0  0
  8 14  1  0  0  0  0
  9  8  1  0  0  0  0
  9 15  1  0  0  0  0
 10  9  2  0  0  0  0
 11  3  1  0  0  0  0
 12  6  1  0  0  0  0
 15 20  1  0  0  0  0
 15 16  1  0  0  0  0
 17 15  1  0  0  0  0
 18 19  1  0  0  0  0
 19 26  1  0  0  0  0
 20 21  1  0  0  0  0
 20 19  2  0  0  0  0
 21 23  2  0  0  0  0
 22 21  1  0  0  0  0
 23 24  1  0  0  0  0
 23 25  1  0  0  0  0
 26 25  2  0  0  0  0
 28 33  2  0  0  0  0
 28 29  1  0  0  0  0
 29 30  2  0  0  0  0
 30 31  1  0  0  0  0
 30 27  1  0  0  0  0
 31 35  1  0  0  0  0
 32 36  1  0  0  0  0
 32 31  2  0  0  0  0
 33 32  1  0  0  0  0
 34 29  1  0  0  0  0
 37 33  1  0  0  0  0
 38 43  1  0  0  0  0
 39 40  1  0  0  0  0
 39 38  2  0  0  0  0
 40 41  2  0  0  0  0
 41 42  1  0  0  0  0
 42 28  1  0  0  0  0
 43 42  2  0  0  0  0
 44 38  1  0  0  0  0
 45 39  1  0  0  0  0
 46 40  1  0  0  0  0
M  END
>  <minimizedAffinity>
-6.74514961

$$$$

 OpenBabel03242516313D

 46 50  0  0  0  0  0  0  0  0999 V2000
   38.7550   30.8500   41.3940 C   0  0  0  0  0  0  0  0  0  0  0  0
   37.8400   31.5950   40.6890 N   0  0  0  0  0  0  0  0  0  0  0  0
   36.5690   31.2360   40.5260 C   0  0  0  0  0  0  0  0  0  0  0  0
   36.1770   30.0820   41.0870 N   0  0  0  0  0  0  0  0  0  0  0  0
   37.0050   29.3040   41.7840 C   0  0  0  0  0  0  0  0  0  0  0  0
   36.5990   28.1180   42.3740 C   0  0  0  0  0  0  0  0  0  0  0  0
   37.4630   27.3470   43.0920 C   0  0  0  0  0  0  0  0  0  0  0  0
   38.7620   27.7260   43.2490 C   0  0  0  0  0  0  0  0  0  0  0  0
   39.2220   28.9160   42.6710 C   0  0  0  0  0  0  0  0  0  0  0  0
   38.3390   29.6850   41.9510 C   0  0  0  0  0  0  0  0  0  0  0  0
   35.8710   31.8240   39.9770 H   0  0  0  0  0  0  0  0  0  0  0  0
   35.5580   27.8790   42.2080 H   0  0  0  0  0  0  0  0  0  0  0  0
   37.0140   26.4650   43.4890 H   0  0  0  0  0  0  0  0  0  0  0  0
   39.3160   27.0160   43.8350 H   0  0  0  0  0  0  0  0  0  0  0  0
   40.6550   29.2150   42.8740 C   0  0  0  0  0  0  0  0  0  0  0  0
   40.8830   29.6240   43.8810 H   0  0  0  0  0  0  0  0  0  0  0  0
   41.1840   29.6340   42.0230 H   0  0  0  0  0  0  0  0  0  0  0  0
   41.4390   28.0570   40.2860 Cl  0  0  0  0  0  0  0  0  0  0  0  0
   41.8720   27.2860   41.8220 C   0  0  0  0  0  0  0  0  0  0  0  0
   41.4450   27.9170   42.9700 C   0  0  0  0  0  0  0  0  0  0  0  0
   41.8070   27.2730   44.1640 C   0  0  0  0  0  0  0  0  0  0  0  0
   41.4670   27.7790   45.0630 H   0  0  0  0  0  0  0  0  0  0  0  0
   42.5340   26.1060   44.1030 C   0  0  0  0  0  0  0  0  0  0  0  0
   42.7670   25.6820   45.0950 H   0  0  0  0  0  0  0  0  0  0  0  0
   42.9280   25.5290   42.9150 C   0  0  0  0  0  3  0  0  0  0  0  0
   42.5970   26.1230   41.7060 C   0  0  0  0  0  3  0  0  0  0  0  0
   40.3750   31.3900   41.6030 S   0  0  0  0  0  0  0  0  0  0  0  0
   42.2790   32.3430   38.2210 C   0  0  0  0  0  0  0  0  0  0  0  0
   41.7630   31.6600   39.2990 C   0  0  0  0  0  0  0  0  0  0  0  0
   40.9830   32.2970   40.2310 C   0  0  0  0  0  0  0  0  0  0  0  0
   40.6990   33.6420   40.1040 C   0  0  0  0  0  0  0  0  0  0  0  0
   41.1880   34.3570   39.0520 C   0  0  0  0  0  0  0  0  0  0  0  0
   41.9710   33.6950   38.1260 C   0  0  0  0  0  0  0  0  0  0  0  0
   41.9890   30.6030   39.3970 H   0  0  0  0  0  0  0  0  0  0  0  0
   40.0800   34.1000   40.8650 H   0  0  0  0  0  0  0  0  0  0  0  0
   40.9780   35.4070   38.9380 H   0  0  0  0  0  0  0  0  0  0  0  0
   42.3880   34.2210   37.2660 H   0  0  0  0  0  0  0  0  0  0  0  0
   43.2080   30.0070   35.5670 C   0  0  0  0  0  0  0  0  0  0  0  0
   44.5830   30.2800   35.3610 C   0  0  0  0  0  0  0  0  0  0  0  0
   45.1840   31.2620   36.1330 C   0  0  0  0  0  0  0  0  0  0  0  0
   44.4520   31.9500   37.0720 N   0  0  0  0  0  0  0  0  0  0  0  0
   43.1130   31.6470   37.2350 C   0  0  0  0  0  0  0  0  0  0  0  0
   42.5020   30.6830   36.4880 N   0  0  0  0  0  0  0  0  0  0  0  0
   42.7780   29.2330   34.9440 H   0  0  0  0  0  0  0  0  0  0  0  0
   45.1830   29.7490   34.6240 H   0  0  0  0  0  0  0  0  0  0  0  0
   46.2050   31.5490   36.0660 H   0  0  0  0  0  0  0  0  0  0  0  0
  1 27  1  0  0  0  0
  1 10  1  0  0  0  0
  2  1  2  0  0  0  0
  3  2  1  0  0  0  0
  3  4  2  0  0  0  0
  4  5  1  0  0  0  0
  5 10  2  0  0  0  0
  5  6  1  0  0  0  0
  6  7  2  0  0  0  0
  7  8  1  0  0  0  0
  7 13  1  0  0  0  0
  8 14  1  0  0  0  0
  9 15  1  0  0  0  0
  9  8  2  0  0  0  0
 10  9  1  0  0  0  0
 11  3  1  0  0  0  0
 12  6  1  0  0  0  0
 15 20  1  0  0  0  0
 15 16  1  0  0  0  0
 17 15  1  0  0  0  0
 18 19  1  0  0  0  0
 19 20  1  0  0  0  0
 20 21  2  0  0  0  0
 21 22  1  0  0  0  0
 23 21  1  0  0  0  0
 23 24  1  0  0  0  0
 25 23  2  0  0  0  0
 26 19  2  0  0  0  0
 26 25  1  0  0  0  0
 28 29  1  0  0  0  0
 29 34  1  0  0  0  0
 29 30  2  0  0  0  0
 30 27  1  0  0  0  0
 31 30  1  0  0  0  0
 31 35  1  0  0  0  0
 32 31  2  0  0  0  0
 33 28  2  0  0  0  0
 33 32  1  0  0  0  0
 36 32  1  0  0  0  0
 37 33  1  0  0  0  0
 38 43  1  0  0  0  0
 39 38  2  0  0  0  0
 39 40  1  0  0  0  0
 40 41  2  0  0  0  0
 41 42  1  0  0  0  0
 42 28  1  0  0  0  0
 43 42  2  0  0  0  0
 44 38  1  0  0  0  0
 45 39  1  0  0  0  0
 46 40  1  0  0  0  0
M  END
>  <minimizedAffinity>
-6.66350555

$$$$

 OpenBabel03242516313D

 46 50  0  0  0  0  0  0  0  0999 V2000
   37.0340   29.3120   41.5660 C   0  0  0  0  0  0  0  0  0  0  0  0
   37.6620   29.2930   42.7880 N   0  0  0  0  0  0  0  0  0  0  0  0
   38.0890   28.1800   43.3790 C   0  0  0  0  0  0  0  0  0  0  0  0
   37.8860   27.0220   42.7320 N   0  0  0  0  0  0  0  0  0  0  0  0
   37.2840   26.9580   41.5450 C   0  0  0  0  0  0  0  0  0  0  0  0
   37.0850   25.7640   40.8700 C   0  0  0  0  0  0  0  0  0  0  0  0
   36.4770   25.7280   39.6510 C   0  0  0  0  0  0  0  0  0  0  0  0
   36.0440   26.8760   39.0590 C   0  0  0  0  0  0  0  0  0  0  0  0
   36.2200   28.1080   39.7010 C   0  0  0  0  0  0  0  0  0  0  0  0
   36.8370   28.1300   40.9290 C   0  0  0  0  0  0  0  0  0  0  0  0
   38.5740   28.1810   44.3260 H   0  0  0  0  0  0  0  0  0  0  0  0
   37.4520   24.8950   41.3970 H   0  0  0  0  0  0  0  0  0  0  0  0
   36.3920   24.7440   39.2480 H   0  0  0  0  0  0  0  0  0  0  0  0
   35.5840   26.6840   38.1070 H   0  0  0  0  0  0  0  0  0  0  0  0
   35.6830   29.2850   38.9880 C   0  0  0  0  0  0  0  0  0  0  0  0
   36.3030   30.1980   39.1130 H   0  0  0  0  0  0  0  0  0  0  0  0
   34.6030   29.4000   38.9920 H   0  0  0  0  0  0  0  0  0  0  0  0
   33.1650   28.9760   37.4980 Cl  0  0  0  0  0  0  0  0  0  0  0  0
   34.7390   28.9510   36.6850 C   0  0  0  0  0  0  0  0  0  0  0  0
   35.8500   29.1000   37.4860 C   0  0  0  0  0  0  0  0  0  0  0  0
   37.0760   29.0720   36.8020 C   0  0  0  0  0  0  0  0  0  0  0  0
   37.9450   29.1920   37.4430 H   0  0  0  0  0  0  0  0  0  0  0  0
   37.0780   28.9060   35.4360 C   0  0  0  0  0  0  0  0  0  0  0  0
   38.0910   28.9000   34.9970 H   0  0  0  0  0  0  0  0  0  0  0  0
   35.9250   28.7640   34.6960 C   0  0  0  0  0  3  0  0  0  0  0  0
   34.6870   28.7830   35.3200 C   0  0  0  0  0  3  0  0  0  0  0  0
   36.5420   30.7910   40.8370 S   0  0  0  0  0  0  0  0  0  0  0  0
   39.8520   31.7680   38.8210 C   0  0  0  0  0  0  0  0  0  0  0  0
   38.7760   31.0860   39.3440 C   0  0  0  0  0  0  0  0  0  0  0  0
   37.8790   31.7110   40.1730 C   0  0  0  0  0  0  0  0  0  0  0  0
   38.0390   33.0420   40.5000 C   0  0  0  0  0  0  0  0  0  0  0  0
   39.0890   33.7560   40.0050 C   0  0  0  0  0  0  0  0  0  0  0  0
   39.9800   33.1060   39.1730 C   0  0  0  0  0  0  0  0  0  0  0  0
   38.6540   30.0390   39.0860 H   0  0  0  0  0  0  0  0  0  0  0  0
   37.3050   33.4910   41.1580 H   0  0  0  0  0  0  0  0  0  0  0  0
   39.2300   34.7950   40.2500 H   0  0  0  0  0  0  0  0  0  0  0  0
   40.8380   33.6320   38.7500 H   0  0  0  0  0  0  0  0  0  0  0  0
   41.4220   29.0660   36.9250 C   0  0  0  0  0  0  0  0  0  0  0  0
   42.5260   29.7040   36.3040 C   0  0  0  0  0  0  0  0  0  0  0  0
   42.7240   31.0550   36.5390 C   0  0  0  0  0  0  0  0  0  0  0  0
   41.8640   31.7500   37.3570 N   0  0  0  0  0  0  0  0  0  0  0  0
   40.8030   31.0830   37.9390 C   0  0  0  0  0  0  0  0  0  0  0  0
   40.5890   29.7540   37.7230 N   0  0  0  0  0  0  0  0  0  0  0  0
   41.3040   28.0110   36.7150 H   0  0  0  0  0  0  0  0  0  0  0  0
   43.2190   29.1750   35.6530 H   0  0  0  0  0  0  0  0  0  0  0  0
   43.5160   31.6340   36.1300 H   0  0  0  0  0  0  0  0  0  0  0  0
  1  2  1  0  0  0  0
  2  3  2  0  0  0  0
  3 11  1  0  0  0  0
  4  3  1  0  0  0  0
  5  4  2  0  0  0  0
  6 12  1  0  0  0  0
  6  5  1  0  0  0  0
  7  6  2  0  0  0  0
  8  7  1  0  0  0  0
  8  9  2  0  0  0  0
  9 10  1  0  0  0  0
 10  5  1  0  0  0  0
 10  1  2  0  0  0  0
 13  7  1  0  0  0  0
 14  8  1  0  0  0  0
 15 17  1  0  0  0  0
 15 16  1  0  0  0  0
 15  9  1  0  0  0  0
 19 20  1  0  0  0  0
 19 18  1  0  0  0  0
 20 15  1  0  0  0  0
 21 22  1  0  0  0  0
 21 20  2  0  0  0  0
 23 21  1  0  0  0  0
 24 23  1  0  0  0  0
 25 26  1  0  0  0  0
 25 23  2  0  0  0  0
 26 19  2  0  0  0  0
 27  1  1  0  0  0  0
 28 33  2  0  0  0  0
 28 29  1  0  0  0  0
 29 30  2  0  0  0  0
 30 31  1  0  0  0  0
 30 27  1  0  0  0  0
 31 35  1  0  0  0  0
 32 36  1  0  0  0  0
 32 31  2  0  0  0  0
 33 32  1  0  0  0  0
 34 29  1  0  0  0  0
 37 33  1  0  0  0  0
 38 43  1  0  0  0  0
 39 40  1  0  0  0  0
 39 38  2  0  0  0  0
 40 41  2  0  0  0  0
 41 42  1  0  0  0  0
 42 28  1  0  0  0  0
 43 42  2  0  0  0  0
 44 38  1  0  0  0  0
 45 39  1  0  0  0  0
 46 40  1  0  0  0  0
M  END
>  <minimizedAffinity>
-6.64989948

$$$$

 OpenBabel03242516313D

 46 50  0  0  0  0  0  0  0  0999 V2000
   38.3120   29.8800   42.0900 C   0  0  0  0  0  0  0  0  0  0  0  0
   39.4330   30.2150   42.8110 N   0  0  0  0  0  0  0  0  0  0  0  0
   40.2580   31.2030   42.4720 C   0  0  0  0  0  0  0  0  0  0  0  0
   39.9630   31.9000   41.3630 N   0  0  0  0  0  0  0  0  0  0  0  0
   38.8950   31.6350   40.6120 C   0  0  0  0  0  0  0  0  0  0  0  0
   38.5820   32.3620   39.4740 C   0  0  0  0  0  0  0  0  0  0  0  0
   37.4770   32.0780   38.7290 C   0  0  0  0  0  0  0  0  0  0  0  0
   36.6430   31.0630   39.0870 C   0  0  0  0  0  0  0  0  0  0  0  0
   36.9150   30.2980   40.2280 C   0  0  0  0  0  0  0  0  0  0  0  0
   38.0330   30.5970   40.9710 C   0  0  0  0  0  0  0  0  0  0  0  0
   41.1230   31.4510   43.0400 H   0  0  0  0  0  0  0  0  0  0  0  0
   39.2870   33.1500   39.2490 H   0  0  0  0  0  0  0  0  0  0  0  0
   37.3600   32.7180   37.8830 H   0  0  0  0  0  0  0  0  0  0  0  0
   35.8210   30.9610   38.4020 H   0  0  0  0  0  0  0  0  0  0  0  0
   35.9660   29.2000   40.5070 C   0  0  0  0  0  0  0  0  0  0  0  0
   34.9090   29.5350   40.5660 H   0  0  0  0  0  0  0  0  0  0  0  0
   36.3000   28.4420   41.2100 H   0  0  0  0  0  0  0  0  0  0  0  0
   33.3670   29.3040   39.1340 Cl  0  0  0  0  0  0  0  0  0  0  0  0
   34.6820   28.2640   38.5620 C   0  0  0  0  0  0  0  0  0  0  0  0
   35.8520   28.2950   39.2890 C   0  0  0  0  0  0  0  0  0  0  0  0
   36.8680   27.4560   38.8020 C   0  0  0  0  0  0  0  0  0  0  0  0
   37.7870   27.4880   39.3810 H   0  0  0  0  0  0  0  0  0  0  0  0
   36.6300   26.6950   37.6800 C   0  0  0  0  0  0  0  0  0  0  0  0
   37.4920   26.0730   37.3810 H   0  0  0  0  0  0  0  0  0  0  0  0
   35.4320   26.7150   37.0010 C   0  0  0  0  0  3  0  0  0  0  0  0
   34.3940   27.5250   37.4380 C   0  0  0  0  0  3  0  0  0  0  0  0
   37.2630   28.6180   42.6050 S   0  0  0  0  0  0  0  0  0  0  0  0
   38.1310   24.8020   41.7910 C   0  0  0  0  0  0  0  0  0  0  0  0
   37.5680   26.0590   41.7890 C   0  0  0  0  0  0  0  0  0  0  0  0
   38.0350   27.0430   42.6230 C   0  0  0  0  0  0  0  0  0  0  0  0
   39.0860   26.7920   43.4820 C   0  0  0  0  0  0  0  0  0  0  0  0
   39.6740   25.5640   43.5170 C   0  0  0  0  0  0  0  0  0  0  0  0
   39.1870   24.5870   42.6690 C   0  0  0  0  0  0  0  0  0  0  0  0
   36.7410   26.2530   41.1140 H   0  0  0  0  0  0  0  0  0  0  0  0
   39.4180   27.6010   44.1200 H   0  0  0  0  0  0  0  0  0  0  0  0
   40.4940   25.3500   44.1810 H   0  0  0  0  0  0  0  0  0  0  0  0
   39.6220   23.5870   42.6580 H   0  0  0  0  0  0  0  0  0  0  0  0
   35.8630   23.0700   39.5070 C   0  0  0  0  0  0  0  0  0  0  0  0
   36.5590   21.8730   39.2050 C   0  0  0  0  0  0  0  0  0  0  0  0
   37.8000   21.6660   39.7860 C   0  0  0  0  0  0  0  0  0  0  0  0
   38.3350   22.6090   40.6330 N   0  0  0  0  0  0  0  0  0  0  0  0
   37.6170   23.7600   40.8960 C   0  0  0  0  0  0  0  0  0  0  0  0
   36.3930   23.9840   40.3360 N   0  0  0  0  0  0  0  0  0  0  0  0
   34.8980   23.1920   39.0330 H   0  0  0  0  0  0  0  0  0  0  0  0
   36.1570   21.1120   38.5370 H   0  0  0  0  0  0  0  0  0  0  0  0
   38.4080   20.8080   39.6330 H   0  0  0  0  0  0  0  0  0  0  0  0
  1 27  1  0  0  0  0
  1  2  1  0  0  0  0
  3  2  2  0  0  0  0
  3 11  1  0  0  0  0
  4  3  1  0  0  0  0
  5 10  1  0  0  0  0
  5  4  2  0  0  0  0
  6  5  1  0  0  0  0
  7  8  1  0  0  0  0
  7  6  2  0  0  0  0
  8  9  2  0  0  0  0
  9 15  1  0  0  0  0
  9 10  1  0  0  0  0
 10  1  2  0  0  0  0
 12  6  1  0  0  0  0
 13  7  1  0  0  0  0
 14  8  1  0  0  0  0
 15 16  1  0  0  0  0
 15 17  1  0  0  0  0
 19 18  1  0  0  0  0
 19 20  1  0  0  0  0
 20 15  1  0  0  0  0
 21 20  2  0  0  0  0
 21 22  1  0  0  0  0
 23 21  1  0  0  0  0
 24 23  1  0  0  0  0
 25 26  1  0  0  0  0
 25 23  2  0  0  0  0
 26 19  2  0  0  0  0
 27 30  1  0  0  0  0
 28 33  1  0  0  0  0
 29 28  2  0  0  0  0
 29 30  1  0  0  0  0
 30 31  2  0  0  0  0
 31 32  1  0  0  0  0
 31 35  1  0  0  0  0
 32 36  1  0  0  0  0
 33 32  2  0  0  0  0
 34 29  1  0  0  0  0
 37 33  1  0  0  0  0
 38 43  1  0  0  0  0
 39 38  2  0  0  0  0
 39 40  1  0  0  0  0
 40 41  2  0  0  0  0
 41 42  1  0  0  0  0
 42 28  1  0  0  0  0
 43 42  2  0  0  0  0
 44 38  1  0  0  0  0
 45 39  1  0  0  0  0
 46 40  1  0  0  0  0
M  END
>  <minimizedAffinity>
-6.62710524

$$$$

 OpenBabel03242516313D

 46 50  0  0  0  0  0  0  0  0999 V2000
   36.8780   28.1670   41.4790 C   0  0  0  0  0  0  0  0  0  0  0  0
   37.1690   29.0690   42.4740 N   0  0  0  0  0  0  0  0  0  0  0  0
   37.9790   28.8020   43.4950 C   0  0  0  0  0  0  0  0  0  0  0  0
   38.5320   27.5800   43.5400 N   0  0  0  0  0  0  0  0  0  0  0  0
   38.2990   26.6510   42.6140 C   0  0  0  0  0  0  0  0  0  0  0  0
   38.8790   25.3930   42.6520 C   0  0  0  0  0  0  0  0  0  0  0  0
   38.6330   24.4650   41.6850 C   0  0  0  0  0  0  0  0  0  0  0  0
   37.8000   24.7520   40.6470 C   0  0  0  0  0  0  0  0  0  0  0  0
   37.1870   26.0090   40.5630 C   0  0  0  0  0  0  0  0  0  0  0  0
   37.4470   26.9360   41.5440 C   0  0  0  0  0  0  0  0  0  0  0  0
   38.1950   29.5100   44.2590 H   0  0  0  0  0  0  0  0  0  0  0  0
   39.5260   25.2340   43.5030 H   0  0  0  0  0  0  0  0  0  0  0  0
   39.1470   23.5440   41.8410 H   0  0  0  0  0  0  0  0  0  0  0  0
   37.7040   23.9220   39.9710 H   0  0  0  0  0  0  0  0  0  0  0  0
   36.2770   26.2040   39.4150 C   0  0  0  0  0  0  0  0  0  0  0  0
   36.0670   27.2710   39.1940 H   0  0  0  0  0  0  0  0  0  0  0  0
   35.4590   25.4950   39.3240 H   0  0  0  0  0  0  0  0  0  0  0  0
   34.9700   24.0900   37.8410 Cl  0  0  0  0  0  0  0  0  0  0  0  0
   36.4680   24.8650   37.2990 C   0  0  0  0  0  0  0  0  0  0  0  0
   36.9910   25.8390   38.1220 C   0  0  0  0  0  0  0  0  0  0  0  0
   38.1790   26.4260   37.6560 C   0  0  0  0  0  0  0  0  0  0  0  0
   38.5820   27.1930   38.3110 H   0  0  0  0  0  0  0  0  0  0  0  0
   38.7110   26.0040   36.4590 C   0  0  0  0  0  0  0  0  0  0  0  0
   39.6420   26.5290   36.1840 H   0  0  0  0  0  0  0  0  0  0  0  0
   38.1320   25.0220   35.6850 C   0  0  0  0  0  3  0  0  0  0  0  0
   36.9590   24.4080   36.0980 C   0  0  0  0  0  3  0  0  0  0  0  0
   35.8540   28.5880   40.1620 S   0  0  0  0  0  0  0  0  0  0  0  0
   37.8840   31.6990   38.6870 C   0  0  0  0  0  0  0  0  0  0  0  0
   37.3050   30.7810   39.5340 C   0  0  0  0  0  0  0  0  0  0  0  0
   36.5980   29.7130   39.0410 C   0  0  0  0  0  0  0  0  0  0  0  0
   36.4560   29.5370   37.6800 C   0  0  0  0  0  0  0  0  0  0  0  0
   37.0130   30.4200   36.8050 C   0  0  0  0  0  0  0  0  0  0  0  0
   37.7190   31.4890   37.3240 C   0  0  0  0  0  0  0  0  0  0  0  0
   37.4180   30.9220   40.6040 H   0  0  0  0  0  0  0  0  0  0  0  0
   35.8900   28.6790   37.3400 H   0  0  0  0  0  0  0  0  0  0  0  0
   36.9110   30.3000   35.7400 H   0  0  0  0  0  0  0  0  0  0  0  0
   38.1850   32.2250   36.6670 H   0  0  0  0  0  0  0  0  0  0  0  0
   40.7260   33.8560   39.4840 C   0  0  0  0  0  0  0  0  0  0  0  0
   40.1320   34.9200   40.2090 C   0  0  0  0  0  0  0  0  0  0  0  0
   38.7620   34.8920   40.4190 C   0  0  0  0  0  0  0  0  0  0  0  0
   38.0070   33.8510   39.9310 N   0  0  0  0  0  0  0  0  0  0  0  0
   38.6330   32.8370   39.2310 C   0  0  0  0  0  0  0  0  0  0  0  0
   39.9790   32.8440   39.0130 N   0  0  0  0  0  0  0  0  0  0  0  0
   41.7970   33.9170   39.3430 H   0  0  0  0  0  0  0  0  0  0  0  0
   40.7090   35.7550   40.6040 H   0  0  0  0  0  0  0  0  0  0  0  0
   38.2130   35.6320   40.9470 H   0  0  0  0  0  0  0  0  0  0  0  0
  1 10  2  0  0  0  0
  1  2  1  0  0  0  0
  2  3  2  0  0  0  0
  3  4  1  0  0  0  0
  3 11  1  0  0  0  0
  5  6  1  0  0  0  0
  5  4  2  0  0  0  0
  6 12  1  0  0  0  0
  7 13  1  0  0  0  0
  7  6  2  0  0  0  0
  8  7  1  0  0  0  0
  9  8  2  0  0  0  0
  9 10  1  0  0  0  0
 10  5  1  0  0  0  0
 14  8  1  0  0  0  0
 15  9  1  0  0  0  0
 16 15  1  0  0  0  0
 17 15  1  0  0  0  0
 19 18  1  0  0  0  0
 19 20  1  0  0  0  0
 20 15  1  0  0  0  0
 21 20  2  0  0  0  0
 21 22  1  0  0  0  0
 23 21  1  0  0  0  0
 24 23  1  0  0  0  0
 25 26  1  0  0  0  0
 25 23  2  0  0  0  0
 26 19  2  0  0  0  0
 27  1  1  0  0  0  0
 28 42  1  0  0  0  0
 28 29  1  0  0  0  0
 29 34  1  0  0  0  0
 30 29  2  0  0  0  0
 30 27  1  0  0  0  0
 31 30  1  0  0  0  0
 32 33  1  0  0  0  0
 32 31  2  0  0  0  0
 33 28  2  0  0  0  0
 35 31  1  0  0  0  0
 36 32  1  0  0  0  0
 37 33  1  0  0  0  0
 38 39  1  0  0  0  0
 39 40  2  0  0  0  0
 39 45  1  0  0  0  0
 40 46  1  0  0  0  0
 41 40  1  0  0  0  0
 42 41  2  0  0  0  0
 43 42  1  0  0  0  0
 43 38  2  0  0  0  0
 44 38  1  0  0  0  0
M  END
>  <minimizedAffinity>
-6.60715675

$$$$
