
 OpenBabel03252508463D

 45 47  0  0  0  0  0  0  0  0999 V2000
   42.7320   31.5340   42.5890 N   0  0  0  0  0  0  0  0  0  0  0  0
   42.9820   31.7840   43.5740 H   0  0  0  0  0  0  0  0  0  0  0  0
   43.0860   32.5480   41.6500 C   0  0  0  0  0  0  0  0  0  0  0  0
   42.1430   33.0040   41.2270 H   0  0  0  0  0  0  0  0  0  0  0  0
   43.6010   32.1400   40.7370 H   0  0  0  0  0  0  0  0  0  0  0  0
   43.6560   34.9740   41.8790 C   0  0  0  0  0  0  0  0  0  0  0  0
   43.9280   33.6510   42.1920 C   0  0  0  0  0  0  0  0  0  0  0  0
   44.9960   33.3820   43.0140 C   0  0  0  0  0  0  0  0  0  0  0  0
   45.7610   34.3980   43.5040 C   0  0  0  0  0  0  0  0  0  0  0  0
   45.5110   35.7200   43.2080 C   0  0  0  0  0  0  0  0  0  0  0  0
   44.4270   35.9520   42.3760 C   0  0  0  0  0  0  0  0  0  0  0  0
   45.1770   32.3310   43.2350 H   0  0  0  0  0  0  0  0  0  0  0  0
   46.5920   34.1090   44.1500 H   0  0  0  0  0  0  0  0  0  0  0  0
   46.1370   36.5050   43.6120 H   0  0  0  0  0  0  0  0  0  0  0  0
   44.2060   36.9860   42.1240 H   0  0  0  0  0  0  0  0  0  0  0  0
   40.2020   35.7430   40.5290 C   0  0  0  0  0  0  0  0  0  0  0  0
   41.2360   35.5510   41.4660 C   0  0  0  0  0  0  0  0  0  0  0  0
   42.5050   35.2010   41.0010 C   0  0  0  0  0  0  0  0  0  0  0  0
   42.6630   35.0660   39.6600 N   0  0  0  0  0  0  0  0  0  0  0  0
   41.6460   35.2580   38.7760 C   0  0  0  0  0  0  0  0  0  0  0  0
   40.4320   35.5940   39.2290 N   0  0  0  0  0  0  0  0  0  0  0  0
   39.2480   36.0100   40.9360 H   0  0  0  0  0  0  0  0  0  0  0  0
   41.1070   35.6600   42.5450 H   0  0  0  0  0  0  0  0  0  0  0  0
   41.9260   35.1140   37.7400 H   0  0  0  0  0  0  0  0  0  0  0  0
   41.0500   31.1620   42.5620 S   0  0  0  0  0  0  0  0  0  0  0  0
   40.2130   32.4130   42.5100 O   0  0  0  0  0  0  0  0  0  0  0  0
   39.4720   32.5920   41.8720 H   0  0  0  0  0  0  0  0  0  0  0  0
   40.6590   30.3280   43.7240 O   0  0  0  0  0  0  0  0  0  0  0  0
   39.9040   30.5240   44.3010 H   0  0  0  0  0  0  0  0  0  0  0  0
   40.7690   30.2910   41.1450 O   0  0  0  0  0  0  0  0  0  0  0  0
   40.1750   29.0880   41.5150 C   0  0  0  0  0  0  0  0  0  0  0  0
   40.6690   28.5500   42.3200 H   0  0  0  0  0  0  0  0  0  0  0  0
   39.1430   29.3350   41.8770 H   0  0  0  0  0  0  0  0  0  0  0  0
   39.9790   28.2240   40.2790 C   0  0  0  0  0  0  0  0  0  0  0  0
   40.5690   27.2880   40.4560 H   0  0  0  0  0  0  0  0  0  0  0  0
   40.3020   28.7410   39.3630 H   0  0  0  0  0  0  0  0  0  0  0  0
   38.2110   30.2490   38.7470 Cl  0  0  0  0  0  0  0  0  0  0  0  0
   37.6670   28.7680   39.4990 C   0  0  0  0  0  0  0  0  0  0  0  0
   38.5360   27.9170   40.1740 C   0  0  0  0  0  0  0  0  0  0  0  0
   37.9810   26.7830   40.7310 C   0  0  0  0  0  0  0  0  0  0  0  0
   38.6080   26.0660   41.2770 H   0  0  0  0  0  0  0  0  0  0  0  0
   36.6320   26.5180   40.6180 C   0  0  0  0  0  0  0  0  0  0  0  0
   36.1410   25.6290   41.0450 H   0  0  0  0  0  0  0  0  0  0  0  0
   35.7630   27.3560   39.9500 C   0  0  0  0  0  3  0  0  0  0  0  0
   36.2990   28.4830   39.3930 C   0  0  0  0  0  3  0  0  0  0  0  0
  1  2  1  0  0  0  0
  3  7  1  0  0  0  0
  3  1  1  0  0  0  0
  4  3  1  0  0  0  0
  5  3  1  0  0  0  0
  6  7  2  0  0  0  0
  6 11  1  0  0  0  0
  7  8  1  0  0  0  0
  8 12  1  0  0  0  0
  8  9  2  0  0  0  0
  9 13  1  0  0  0  0
 10  9  1  0  0  0  0
 10 14  1  0  0  0  0
 11 10  2  0  0  0  0
 15 11  1  0  0  0  0
 16 22  1  0  0  0  0
 16 17  1  0  0  0  0
 17 23  1  0  0  0  0
 18 17  2  0  0  0  0
 18  6  1  0  0  0  0
 19 18  1  0  0  0  0
 20 21  1  0  0  0  0
 20 19  2  0  0  0  0
 21 16  2  0  0  0  0
 24 20  1  0  0  0  0
 25  1  1  0  0  0  0
 25 28  1  0  0  0  0
 26 25  1  0  0  0  0
 27 26  1  0  0  0  0
 28 29  1  0  0  0  0
 30 31  1  0  0  0  0
 30 25  1  0  0  0  0
 31 33  1  0  0  0  0
 31 32  1  0  0  0  0
 34 35  1  0  0  0  0
 34 31  1  0  0  0  0
 36 34  1  0  0  0  0
 37 38  1  0  0  0  0
 38 39  1  0  0  0  0
 39 34  1  0  0  0  0
 39 40  2  0  0  0  0
 40 41  1  0  0  0  0
 42 40  1  0  0  0  0
 42 43  1  0  0  0  0
 44 42  2  0  0  0  0
 45 38  2  0  0  0  0
 45 44  1  0  0  0  0
M  END
>  <minimizedAffinity>
-5.44123888

>  <minimizedRMSD>
2.06165195

$$$$
