
 OpenBabel03252506453D

 42 45  0  0  1  0  0  0  0  0999 V2000
   49.6770   33.6220   41.4740 N   0  0  1  0  0  0  0  0  0  0  0  0
   50.7640   33.1830   42.3000 C   0  0  0  0  0  0  0  0  0  0  0  0
   51.3540   31.8750   41.8620 C   0  0  0  0  0  0  0  0  0  0  0  0
   50.3300   30.7940   42.0960 C   0  0  0  0  0  0  0  0  0  0  0  0
   48.9490   31.2850   41.7690 C   0  0  0  0  0  0  0  0  0  0  0  0
   49.0380   32.5050   40.8330 C   0  0  2  0  0  0  0  0  0  0  0  0
   51.5640   33.9530   42.3610 H   0  0  0  0  0  0  0  0  0  0  0  0
   50.3620   33.0340   43.3320 H   0  0  0  0  0  0  0  0  0  0  0  0
   52.2340   31.7200   42.5690 H   0  0  0  0  0  0  0  0  0  0  0  0
   51.7910   31.8860   40.8790 H   0  0  0  0  0  0  0  0  0  0  0  0
   50.3660   30.6110   43.2250 H   0  0  0  0  0  0  0  0  0  0  0  0
   50.5580   29.8210   41.6670 H   0  0  0  0  0  0  0  0  0  0  0  0
   48.4320   31.6530   42.6870 H   0  0  0  0  0  0  0  0  0  0  0  0
   48.3640   30.5320   41.2230 H   0  0  0  0  0  0  0  0  0  0  0  0
   47.9410   32.7840   40.7590 H   0  0  0  0  0  0  0  0  0  0  0  0
   47.3880   34.7190   41.9610 C   0  0  1  0  0  0  0  0  0  0  0  0
   48.4250   35.7510   41.7150 C   0  0  0  0  0  0  0  0  0  0  0  0
   48.8160   34.4290   42.2550 C   0  0  2  0  0  0  0  0  0  0  0  0
   46.9820   34.2200   41.0420 H   0  0  0  0  0  0  0  0  0  0  0  0
   48.3510   36.6580   42.3670 H   0  0  0  0  0  0  0  0  0  0  0  0
   48.6770   36.0230   40.6580 H   0  0  0  0  0  0  0  0  0  0  0  0
   49.0360   34.3900   43.3570 H   0  0  0  0  0  0  0  0  0  0  0  0
   45.5810   36.0370   43.1180 C   0  0  0  0  0  0  0  0  0  0  0  0
   46.4340   34.9210   43.0610 C   0  0  0  0  0  0  0  0  0  0  0  0
   46.3410   33.9780   44.1100 C   0  0  0  0  0  0  0  0  0  0  0  0
   45.4410   34.2040   45.1030 N   0  0  0  0  0  0  0  0  0  0  0  0
   44.6370   35.2850   45.1270 C   0  0  0  0  0  0  0  0  0  0  0  0
   44.6970   36.2230   44.1280 N   0  0  0  0  0  0  0  0  0  0  0  0
   45.6230   36.7770   42.3370 H   0  0  0  0  0  0  0  0  0  0  0  0
   46.9630   33.1030   44.1280 H   0  0  0  0  0  0  0  0  0  0  0  0
   43.9220   35.4520   45.9270 H   0  0  0  0  0  0  0  0  0  0  0  0
   49.5860   32.1000   39.6100 N   0  0  0  0  0  0  0  0  0  0  0  0
   49.4540   33.1200   39.3290 H   0  0  0  0  0  0  0  0  0  0  0  0
   47.8600   31.8510   37.0540 Cl  0  0  0  0  0  0  0  0  0  0  0  0
   49.5690   31.4920   37.1320 C   0  0  0  0  0  0  0  0  0  0  0  0
   50.1280   31.6990   38.4020 C   0  0  0  0  0  0  0  0  0  0  0  0
   51.4990   31.4200   38.4990 C   0  0  0  0  0  0  0  0  0  0  0  0
   52.1560   31.5030   39.3860 H   0  0  0  0  0  0  0  0  0  0  0  0
   52.2750   30.9760   37.4530 C   0  0  0  0  0  0  0  0  0  0  0  0
   53.3280   30.7430   37.4520 H   0  0  0  0  0  0  0  0  0  0  0  0
   51.5910   30.8200   36.2740 C   0  0  0  0  0  0  0  0  0  0  0  0
   50.2630   31.0540   36.0420 C   0  0  0  0  0  0  0  0  0  0  0  0
  1 18  1  0  0  0  0
  1  2  1  1  0  0  0
  2  7  1  0  0  0  0
  2  8  1  0  0  0  0
  3  4  1  0  0  0  0
  3  2  1  0  0  0  0
  3  9  1  0  0  0  0
  4 11  1  0  0  0  0
  5  4  1  0  0  0  0
  5 13  1  0  0  0  0
  6 15  1  6  0  0  0
  6  1  1  0  0  0  0
  6  5  1  0  0  0  0
 10  3  1  0  0  0  0
 12  4  1  0  0  0  0
 14  5  1  0  0  0  0
 16 19  1  6  0  0  0
 16 18  1  0  0  0  0
 16 24  1  0  0  0  0
 17 16  1  0  0  0  0
 17 18  1  0  0  0  0
 17 20  1  0  0  0  0
 18 22  1  1  0  0  0
 21 17  1  0  0  0  0
 23 28  1  0  0  0  0
 24 23  2  0  0  0  0
 24 25  1  0  0  0  0
 25 30  1  0  0  0  0
 25 26  2  0  0  0  0
 26 27  1  0  0  0  0
 27 31  1  0  0  0  0
 28 27  2  0  0  0  0
 29 23  1  0  0  0  0
 32  6  1  0  0  0  0
 33 32  1  0  0  0  0
 34 35  1  0  0  0  0
 35 36  1  0  0  0  0
 36 37  2  0  0  0  0
 36 32  1  0  0  0  0
 37 38  1  0  0  0  0
 39 37  1  0  0  0  0
 40 39  1  0  0  0  0
 41 39  2  0  0  0  0
 42 41  1  0  0  0  0
 42 35  2  0  0  0  0
M  END
>  <minimizedAffinity>
-5.22414541

>  <minimizedRMSD>
1.40443206

$$$$
