
 OpenBabel03252506203D

 33 35  0  0  0  0  0  0  0  0999 V2000
   42.7730   34.0600   40.4350 C   0  0  0  0  0  0  0  0  0  0  0  0
   42.5890   35.3630   39.9420 C   0  0  0  0  0  0  0  0  0  0  0  0
   41.8490   35.4900   38.7570 C   0  0  0  0  0  0  0  0  0  0  0  0
   41.3600   34.3820   38.1610 N   0  0  0  0  0  0  0  0  0  0  0  0
   41.5580   33.1440   38.6660 C   0  0  0  0  0  0  0  0  0  0  0  0
   42.2660   32.9820   39.8040 N   0  0  0  0  0  0  0  0  0  0  0  0
   42.9960   36.2320   40.4460 H   0  0  0  0  0  0  0  0  0  0  0  0
   41.6620   36.4400   38.3180 H   0  0  0  0  0  0  0  0  0  0  0  0
   43.5770   31.4020   37.2320 Cl  0  0  0  0  0  0  0  0  0  0  0  0
   41.8600   31.1580   37.2620 C   0  0  0  0  0  0  0  0  0  0  0  0
   40.9880   32.0070   37.9470 C   0  0  0  0  0  0  0  0  0  0  0  0
   39.6310   31.8410   37.9900 C   0  0  0  0  0  0  0  0  0  0  0  0
   39.1300   30.7540   37.3010 C   0  0  0  0  0  0  0  0  0  0  0  0
   39.8920   29.8490   36.5910 C   0  0  0  0  0  0  0  0  0  0  0  0
   41.2640   30.1050   36.6070 C   0  0  0  0  0  0  0  0  0  0  0  0
   38.9930   32.5270   38.5350 H   0  0  0  0  0  0  0  0  0  0  0  0
   38.0390   30.6210   37.3340 H   0  0  0  0  0  0  0  0  0  0  0  0
   39.4450   29.0330   36.0800 H   0  0  0  0  0  0  0  0  0  0  0  0
   41.8750   29.3930   36.0470 H   0  0  0  0  0  0  0  0  0  0  0  0
   43.5470   33.8720   41.6850 C   0  0  0  0  0  0  0  0  0  0  0  0
   44.7550   34.3770   41.7350 C   0  0  0  0  0  0  0  0  0  0  0  0
   45.5860   34.2170   42.9710 C   0  0  0  0  0  0  0  0  0  0  0  0
   45.2290   34.9880   43.6840 H   0  0  0  0  0  0  0  0  0  0  0  0
   45.4270   33.2290   43.4480 H   0  0  0  0  0  0  0  0  0  0  0  0
   47.3730   32.2800   44.2810 Cl  0  0  0  0  0  0  0  0  0  0  0  0
   47.9060   33.5880   43.2340 C   0  0  0  0  0  0  0  0  0  0  0  0
   47.0240   34.4650   42.6480 C   0  0  0  0  0  0  0  0  0  0  0  0
   47.4480   35.4990   41.8210 C   0  0  0  0  0  0  0  0  0  0  0  0
   46.7260   36.1550   41.3910 H   0  0  0  0  0  0  0  0  0  0  0  0
   48.8000   35.6320   41.5960 C   0  0  0  0  0  0  0  0  0  0  0  0
   49.1950   36.4160   40.9620 H   0  0  0  0  0  0  0  0  0  0  0  0
   49.6980   34.7550   42.1790 C   0  0  0  0  0  0  0  0  0  0  0  0
   49.2500   33.7320   43.0010 C   0  0  0  0  0  0  0  0  0  0  0  0
  1 20  1  0  0  0  0
  2  1  1  0  0  0  0
  2  7  1  0  0  0  0
  3  2  2  0  0  0  0
  4  5  2  0  0  0  0
  4  3  1  0  0  0  0
  5  6  1  0  0  0  0
  6  1  2  0  0  0  0
  8  3  1  0  0  0  0
  9 10  1  0  0  0  0
 10 11  1  0  0  0  0
 11 12  2  0  0  0  0
 11  5  1  0  0  0  0
 12 16  1  0  0  0  0
 13 17  1  0  0  0  0
 13 12  1  0  0  0  0
 14 15  1  0  0  0  0
 14 13  2  0  0  0  0
 15 10  2  0  0  0  0
 18 14  1  0  0  0  0
 19 15  1  0  0  0  0
 20 21  2  0  0  0  0
 21 22  1  0  0  0  0
 22 24  1  0  0  0  0
 22 23  1  0  0  0  0
 26 25  1  0  0  0  0
 27 22  1  0  0  0  0
 27 26  2  0  0  0  0
 28 27  1  0  0  0  0
 29 28  1  0  0  0  0
 30 28  2  0  0  0  0
 30 32  1  0  0  0  0
 31 30  1  0  0  0  0
 32 33  2  0  0  0  0
 33 26  1  0  0  0  0
M  END
>  <minimizedAffinity>
-5.31383801

>  <minimizedRMSD>
7.33282948

$$$$
