
 OpenBabel03242515133D

 27 28  0  0  0  0  0  0  0  0999 V2000
   46.8930   33.2040   45.2580 C   0  0  0  0  0  0  0  0  0  0  0  0
   47.1080   32.1200   45.1260 H   0  0  0  0  0  0  0  0  0  0  0  0
   47.7470   33.7520   45.6940 H   0  0  0  0  0  0  0  0  0  0  0  0
   45.4440   34.3290   41.9890 C   0  0  0  0  0  0  0  0  0  0  0  0
   46.6020   34.8790   41.3900 C   0  0  0  0  0  0  0  0  0  0  0  0
   47.7860   34.8320   42.1290 C   0  0  0  0  0  0  0  0  0  0  0  0
   47.7480   34.2680   43.3620 N   0  0  0  0  0  0  0  0  0  0  0  0
   46.6290   33.7560   43.9020 C   0  0  0  0  0  0  0  0  0  0  0  0
   45.4710   33.7860   43.2150 N   0  0  0  0  0  0  0  0  0  0  0  0
   44.5070   34.3480   41.4470 H   0  0  0  0  0  0  0  0  0  0  0  0
   46.4780   35.2940   40.4010 H   0  0  0  0  0  0  0  0  0  0  0  0
   48.9580   35.4030   41.4860 C   0  0  0  0  0  0  0  0  0  0  0  0
   49.1060   36.7340   41.8840 F   0  0  0  0  0  0  0  0  0  0  0  0
   48.6830   35.4490   40.1300 F   0  0  0  0  0  0  0  0  0  0  0  0
   50.1220   34.7440   41.7700 F   0  0  0  0  0  0  0  0  0  0  0  0
   45.7170   33.3010   46.1680 C   0  0  0  0  0  0  0  0  0  0  0  0
   44.7650   33.3450   45.5690 H   0  0  0  0  0  0  0  0  0  0  0  0
   45.7600   34.2510   46.7310 H   0  0  0  0  0  0  0  0  0  0  0  0
   45.5620   30.4430   45.0760 Cl  0  0  0  0  0  0  0  0  0  0  0  0
   45.5230   30.8500   46.7820 C   0  0  0  0  0  0  0  0  0  0  0  0
   45.6010   32.1850   47.1210 C   0  0  0  0  0  0  0  0  0  0  0  0
   45.5650   32.4460   48.4840 C   0  0  0  0  0  0  0  0  0  0  0  0
   45.6250   33.4970   48.7970 H   0  0  0  0  0  0  0  0  0  0  0  0
   45.4610   31.4960   49.4760 C   0  0  0  0  0  0  0  0  0  0  0  0
   45.4420   31.8240   50.5200 H   0  0  0  0  0  0  0  0  0  0  0  0
   45.3860   30.1850   49.0860 C   0  0  0  0  0  0  0  0  0  0  0  0
   45.4160   29.8490   47.7380 C   0  0  0  0  0  0  0  0  0  0  0  0
  1  3  1  0  0  0  0
  1 16  1  0  0  0  0
  2  1  1  0  0  0  0
  4  9  1  0  0  0  0
  5  4  2  0  0  0  0
  5  6  1  0  0  0  0
  6  7  2  0  0  0  0
  7  8  1  0  0  0  0
  8  1  1  0  0  0  0
  9  8  2  0  0  0  0
 10  4  1  0  0  0  0
 11  5  1  0  0  0  0
 12 15  1  0  0  0  0
 12 13  1  0  0  0  0
 12  6  1  0  0  0  0
 14 12  1  0  0  0  0
 16 18  1  0  0  0  0
 16 21  1  0  0  0  0
 17 16  1  0  0  0  0
 19 20  1  0  0  0  0
 20 21  2  0  0  0  0
 20 27  1  0  0  0  0
 21 22  1  0  0  0  0
 22 23  1  0  0  0  0
 22 24  2  0  0  0  0
 24 25  1  0  0  0  0
 26 24  1  0  0  0  0
 27 26  2  0  0  0  0
M  END
>  <minimizedAffinity>
-5.62698936

>  <minimizedRMSD>
2.39455652

$$$$
