
 OpenBabel03252508463D

 45 47  0  0  0  0  0  0  0  0999 V2000
   42.6480   31.5490   42.6020 N   0  0  0  0  0  0  0  0  0  0  0  0
   42.8310   31.8470   43.5880 H   0  0  0  0  0  0  0  0  0  0  0  0
   43.0890   32.5040   41.6400 C   0  0  0  0  0  0  0  0  0  0  0  0
   42.1890   32.9600   41.1330 H   0  0  0  0  0  0  0  0  0  0  0  0
   43.6520   32.0370   40.7850 H   0  0  0  0  0  0  0  0  0  0  0  0
   43.6400   34.9340   41.8700 C   0  0  0  0  0  0  0  0  0  0  0  0
   43.9240   33.6130   42.1810 C   0  0  0  0  0  0  0  0  0  0  0  0
   44.9960   33.3530   43.0010 C   0  0  0  0  0  0  0  0  0  0  0  0
   45.7530   34.3740   43.4900 C   0  0  0  0  0  0  0  0  0  0  0  0
   45.4910   35.6940   43.1960 C   0  0  0  0  0  0  0  0  0  0  0  0
   44.4040   35.9180   42.3670 C   0  0  0  0  0  0  0  0  0  0  0  0
   45.1850   32.3030   43.2200 H   0  0  0  0  0  0  0  0  0  0  0  0
   46.5870   34.0910   44.1350 H   0  0  0  0  0  0  0  0  0  0  0  0
   46.1120   36.4840   43.6000 H   0  0  0  0  0  0  0  0  0  0  0  0
   44.1740   36.9500   42.1170 H   0  0  0  0  0  0  0  0  0  0  0  0
   40.1830   35.7030   40.5260 C   0  0  0  0  0  0  0  0  0  0  0  0
   41.2220   35.5220   41.4600 C   0  0  0  0  0  0  0  0  0  0  0  0
   42.4860   35.1530   40.9940 C   0  0  0  0  0  0  0  0  0  0  0  0
   42.6340   34.9900   39.6560 N   0  0  0  0  0  0  0  0  0  0  0  0
   41.6130   35.1720   38.7740 C   0  0  0  0  0  0  0  0  0  0  0  0
   40.4050   35.5260   39.2280 N   0  0  0  0  0  0  0  0  0  0  0  0
   39.2340   35.9860   40.9330 H   0  0  0  0  0  0  0  0  0  0  0  0
   41.1010   35.6540   42.5380 H   0  0  0  0  0  0  0  0  0  0  0  0
   41.8860   35.0060   37.7400 H   0  0  0  0  0  0  0  0  0  0  0  0
   40.9650   31.2020   42.4710 S   0  0  0  0  0  0  0  0  0  0  0  0
   40.1420   32.4630   42.5200 O   0  0  0  0  0  0  0  0  0  0  0  0
   39.4290   32.7180   41.8770 H   0  0  0  0  0  0  0  0  0  0  0  0
   40.5210   30.2560   43.5220 O   0  0  0  0  0  0  0  0  0  0  0  0
   39.7460   30.4000   44.0870 H   0  0  0  0  0  0  0  0  0  0  0  0
   40.7330   30.4900   40.9600 O   0  0  0  0  0  0  0  0  0  0  0  0
   39.5060   29.8350   41.0010 C   0  0  0  0  0  0  0  0  0  0  0  0
   39.0750   29.7080   41.9910 H   0  0  0  0  0  0  0  0  0  0  0  0
   38.7850   30.4620   40.4140 H   0  0  0  0  0  0  0  0  0  0  0  0
   39.6130   28.5200   40.2460 C   0  0  0  0  0  0  0  0  0  0  0  0
   40.1490   27.8110   40.9290 H   0  0  0  0  0  0  0  0  0  0  0  0
   40.1420   28.6400   39.2880 H   0  0  0  0  0  0  0  0  0  0  0  0
   38.2750   29.4630   37.6200 Cl  0  0  0  0  0  0  0  0  0  0  0  0
   37.5610   28.4130   38.8210 C   0  0  0  0  0  0  0  0  0  0  0  0
   38.2370   28.0450   39.9790 C   0  0  0  0  0  0  0  0  0  0  0  0
   37.5600   27.2190   40.8520 C   0  0  0  0  0  0  0  0  0  0  0  0
   38.0340   26.8870   41.7860 H   0  0  0  0  0  0  0  0  0  0  0  0
   36.2780   26.7880   40.5800 C   0  0  0  0  0  0  0  0  0  0  0  0
   35.6950   26.1300   41.2440 H   0  0  0  0  0  0  0  0  0  0  0  0
   35.6010   27.1500   39.4340 C   0  0  0  0  0  3  0  0  0  0  0  0
   36.2590   27.9670   38.5590 C   0  0  0  0  0  3  0  0  0  0  0  0
  1  2  1  0  0  0  0
  3  7  1  0  0  0  0
  3  1  1  0  0  0  0
  4  3  1  0  0  0  0
  5  3  1  0  0  0  0
  6  7  2  0  0  0  0
  6 11  1  0  0  0  0
  7  8  1  0  0  0  0
  8 12  1  0  0  0  0
  8  9  2  0  0  0  0
  9 13  1  0  0  0  0
 10  9  1  0  0  0  0
 10 14  1  0  0  0  0
 11 10  2  0  0  0  0
 15 11  1  0  0  0  0
 16 22  1  0  0  0  0
 16 17  1  0  0  0  0
 17 23  1  0  0  0  0
 18 17  2  0  0  0  0
 18  6  1  0  0  0  0
 19 18  1  0  0  0  0
 20 21  1  0  0  0  0
 20 19  2  0  0  0  0
 21 16  2  0  0  0  0
 24 20  1  0  0  0  0
 25 26  1  0  0  0  0
 25  1  1  0  0  0  0
 25 28  1  0  0  0  0
 27 26  1  0  0  0  0
 28 29  1  0  0  0  0
 30 31  1  0  0  0  0
 30 25  1  0  0  0  0
 31 32  1  0  0  0  0
 33 31  1  0  0  0  0
 34 35  1  0  0  0  0
 34 31  1  0  0  0  0
 36 34  1  0  0  0  0
 37 38  1  0  0  0  0
 38 39  1  0  0  0  0
 39 34  1  0  0  0  0
 39 40  2  0  0  0  0
 40 41  1  0  0  0  0
 42 40  1  0  0  0  0
 42 43  1  0  0  0  0
 44 42  2  0  0  0  0
 45 38  2  0  0  0  0
 45 44  1  0  0  0  0
M  END
>  <minimizedAffinity>
-5.32556152

>  <minimizedRMSD>
2.36906362

$$$$
