
 OpenBabel03252508463D

 45 47  0  0  0  0  0  0  0  0999 V2000
   42.6730   31.3830   42.5820 N   0  0  0  0  0  0  0  0  0  0  0  0
   42.9920   31.5740   43.5600 H   0  0  0  0  0  0  0  0  0  0  0  0
   42.9780   32.4450   41.6800 C   0  0  0  0  0  0  0  0  0  0  0  0
   42.0150   32.9370   41.3510 H   0  0  0  0  0  0  0  0  0  0  0  0
   43.4210   32.0840   40.7110 H   0  0  0  0  0  0  0  0  0  0  0  0
   43.6710   34.8390   41.9080 C   0  0  0  0  0  0  0  0  0  0  0  0
   43.8750   33.5040   42.2230 C   0  0  0  0  0  0  0  0  0  0  0  0
   44.9260   33.1810   43.0470 C   0  0  0  0  0  0  0  0  0  0  0  0
   45.7410   34.1570   43.5380 C   0  0  0  0  0  0  0  0  0  0  0  0
   45.5590   35.4900   43.2410 C   0  0  0  0  0  0  0  0  0  0  0  0
   44.4910   35.7760   42.4060 C   0  0  0  0  0  0  0  0  0  0  0  0
   45.0520   32.1230   43.2700 H   0  0  0  0  0  0  0  0  0  0  0  0
   46.5540   33.8270   44.1870 H   0  0  0  0  0  0  0  0  0  0  0  0
   46.2240   36.2420   43.6460 H   0  0  0  0  0  0  0  0  0  0  0  0
   44.3230   36.8200   42.1530 H   0  0  0  0  0  0  0  0  0  0  0  0
   40.2540   35.7470   40.5510 C   0  0  0  0  0  0  0  0  0  0  0  0
   41.2730   35.4980   41.4910 C   0  0  0  0  0  0  0  0  0  0  0  0
   42.5360   35.1240   41.0270 C   0  0  0  0  0  0  0  0  0  0  0  0
   42.7020   35.0200   39.6840 N   0  0  0  0  0  0  0  0  0  0  0  0
   41.6990   35.2660   38.7980 C   0  0  0  0  0  0  0  0  0  0  0  0
   40.4910   35.6260   39.2500 N   0  0  0  0  0  0  0  0  0  0  0  0
   39.3050   36.0310   40.9570 H   0  0  0  0  0  0  0  0  0  0  0  0
   41.1380   35.5820   42.5720 H   0  0  0  0  0  0  0  0  0  0  0  0
   41.9850   35.1430   37.7600 H   0  0  0  0  0  0  0  0  0  0  0  0
   40.9880   31.0290   42.6480 S   0  0  0  0  0  0  0  0  0  0  0  0
   40.1600   32.2810   42.5090 O   0  0  0  0  0  0  0  0  0  0  0  0
   39.4000   32.4090   41.8840 H   0  0  0  0  0  0  0  0  0  0  0  0
   40.6320   30.3110   43.8940 O   0  0  0  0  0  0  0  0  0  0  0  0
   39.8990   30.5670   44.4760 H   0  0  0  0  0  0  0  0  0  0  0  0
   40.6500   30.0360   41.3270 O   0  0  0  0  0  0  0  0  0  0  0  0
   40.0510   28.8830   41.8260 C   0  0  0  0  0  0  0  0  0  0  0  0
   39.8990   28.8620   42.9010 H   0  0  0  0  0  0  0  0  0  0  0  0
   39.0350   28.8180   41.3550 H   0  0  0  0  0  0  0  0  0  0  0  0
   40.8120   27.6650   41.3270 C   0  0  0  0  0  0  0  0  0  0  0  0
   41.8630   27.7800   41.7010 H   0  0  0  0  0  0  0  0  0  0  0  0
   40.7780   27.5820   40.2300 H   0  0  0  0  0  0  0  0  0  0  0  0
   42.2090   26.3920   43.7770 Cl  0  0  0  0  0  0  0  0  0  0  0  0
   40.7330   25.8340   43.0260 C   0  0  0  0  0  0  0  0  0  0  0  0
   40.1770   26.4680   41.9200 C   0  0  0  0  0  0  0  0  0  0  0  0
   39.0130   25.9240   41.4160 C   0  0  0  0  0  0  0  0  0  0  0  0
   38.5190   26.3740   40.5450 H   0  0  0  0  0  0  0  0  0  0  0  0
   38.4410   24.8060   41.9880 C   0  0  0  0  0  0  0  0  0  0  0  0
   37.5150   24.3340   41.6220 H   0  0  0  0  0  0  0  0  0  0  0  0
   38.9870   24.1710   43.0850 C   0  0  0  0  0  3  0  0  0  0  0  0
   40.1380   24.6990   43.5950 C   0  0  0  0  0  3  0  0  0  0  0  0
  1 25  1  0  0  0  0
  1  2  1  0  0  0  0
  3  7  1  0  0  0  0
  3  1  1  0  0  0  0
  4  3  1  0  0  0  0
  5  3  1  0  0  0  0
  6  7  2  0  0  0  0
  6 11  1  0  0  0  0
  7  8  1  0  0  0  0
  8 12  1  0  0  0  0
  8  9  2  0  0  0  0
  9 13  1  0  0  0  0
 10  9  1  0  0  0  0
 10 14  1  0  0  0  0
 11 10  2  0  0  0  0
 15 11  1  0  0  0  0
 16 22  1  0  0  0  0
 16 17  1  0  0  0  0
 17 23  1  0  0  0  0
 18 17  2  0  0  0  0
 18  6  1  0  0  0  0
 19 18  1  0  0  0  0
 20 21  1  0  0  0  0
 20 19  2  0  0  0  0
 21 16  2  0  0  0  0
 24 20  1  0  0  0  0
 25 28  1  0  0  0  0
 26 25  1  0  0  0  0
 27 26  1  0  0  0  0
 28 29  1  0  0  0  0
 30 31  1  0  0  0  0
 30 25  1  0  0  0  0
 31 32  1  0  0  0  0
 33 31  1  0  0  0  0
 34 35  1  0  0  0  0
 34 31  1  0  0  0  0
 34 39  1  0  0  0  0
 36 34  1  0  0  0  0
 38 45  1  0  0  0  0
 38 37  1  0  0  0  0
 39 38  2  0  0  0  0
 40 39  1  0  0  0  0
 40 42  2  0  0  0  0
 41 40  1  0  0  0  0
 42 44  1  0  0  0  0
 43 42  1  0  0  0  0
 44 45  2  0  0  0  0
M  END
>  <minimizedAffinity>
-5.08346319

>  <minimizedRMSD>
0.283387601

$$$$
