
 OpenBabel03252507223D

 47 50  0  0  1  0  0  0  0  0999 V2000
   45.2390   31.7530   43.0280 C   0  0  0  0  0  0  0  0  0  0  0  0
   44.3740   30.8210   43.0130 O   0  0  0  0  0  0  0  0  0  0  0  0
   44.8940   33.1300   43.0010 N   0  0  0  0  0  0  0  0  0  0  0  0
   45.4180   34.2570   43.7870 C   0  0  0  0  0  0  0  0  0  0  0  0
   45.8240   35.3760   42.8330 C   0  0  0  0  0  0  0  0  0  0  0  0
   44.6260   35.9130   42.1240 C   0  0  0  0  0  0  0  0  0  0  0  0
   43.4590   34.9620   42.2990 C   0  0  0  0  0  0  0  0  0  0  0  0
   43.8660   33.5430   42.0770 C   0  0  2  0  0  0  0  0  0  0  0  0
   44.6470   34.5770   44.5150 H   0  0  0  0  0  0  0  0  0  0  0  0
   46.3110   33.9500   44.3810 H   0  0  0  0  0  0  0  0  0  0  0  0
   46.4550   36.1180   43.3070 H   0  0  0  0  0  0  0  0  0  0  0  0
   46.4660   34.8560   42.0630 H   0  0  0  0  0  0  0  0  0  0  0  0
   44.3110   36.8790   42.5960 H   0  0  0  0  0  0  0  0  0  0  0  0
   44.7900   36.1130   41.0500 H   0  0  0  0  0  0  0  0  0  0  0  0
   42.7620   35.2200   41.4470 H   0  0  0  0  0  0  0  0  0  0  0  0
   42.8960   35.1500   43.2250 H   0  0  0  0  0  0  0  0  0  0  0  0
   44.3080   33.5160   41.0360 H   0  0  0  0  0  0  0  0  0  0  0  0
   47.3570   31.4140   41.8650 C   0  0  0  0  0  0  0  0  0  0  0  0
   46.6310   31.3850   43.0750 C   0  0  0  0  0  0  0  0  0  0  0  0
   47.2510   31.0150   44.2600 C   0  0  0  0  0  0  0  0  0  0  0  0
   48.5620   30.6890   44.2040 N   0  0  0  0  0  0  0  0  0  0  0  0
   49.2830   30.7110   43.0420 C   0  0  0  0  0  0  0  0  0  0  0  0
   48.6610   31.0730   41.8960 N   0  0  0  0  0  0  0  0  0  0  0  0
   46.9100   31.6920   40.9420 H   0  0  0  0  0  0  0  0  0  0  0  0
   50.3000   30.4280   43.1750 H   0  0  0  0  0  0  0  0  0  0  0  0
   46.4750   30.9920   45.4710 C   0  0  0  0  0  0  0  0  0  0  0  0
   46.4210   32.0730   46.2820 C   0  0  0  0  0  0  0  0  0  0  0  0
   45.6660   32.0220   47.4370 C   0  0  0  0  0  0  0  0  0  0  0  0
   44.9460   30.8910   47.8140 C   0  0  0  0  0  0  0  0  0  0  0  0
   45.0330   29.7990   46.9450 C   0  0  0  0  0  0  0  0  0  0  0  0
   45.7750   29.8920   45.8380 N   0  0  0  0  0  0  0  0  0  0  0  0
   46.9210   33.0120   46.1310 H   0  0  0  0  0  0  0  0  0  0  0  0
   45.5670   32.8380   48.1400 H   0  0  0  0  0  0  0  0  0  0  0  0
   44.3470   30.7860   48.6860 H   0  0  0  0  0  0  0  0  0  0  0  0
   44.5240   28.8550   47.1140 H   0  0  0  0  0  0  0  0  0  0  0  0
   42.6690   32.6540   42.0480 C   0  0  0  0  0  0  0  0  0  0  0  0
   41.9440   32.8160   42.8420 H   0  0  0  0  0  0  0  0  0  0  0  0
   42.9200   31.5510   41.9960 H   0  0  0  0  0  0  0  0  0  0  0  0
   39.7980   33.7590   41.9400 Cl  0  0  0  0  0  0  0  0  0  0  0  0
   40.7640   33.3600   40.5350 C   0  0  0  0  0  0  0  0  0  0  0  0
   42.0440   32.8720   40.6850 C   0  0  0  0  0  0  0  0  0  0  0  0
   42.8310   32.5520   39.5910 C   0  0  0  0  0  0  0  0  0  0  0  0
   43.8270   32.1730   39.7400 H   0  0  0  0  0  0  0  0  0  0  0  0
   42.3700   32.7060   38.2990 C   0  0  0  0  0  0  0  0  0  0  0  0
   43.0340   32.4380   37.4880 H   0  0  0  0  0  0  0  0  0  0  0  0
   41.0900   33.1940   38.1330 C   0  0  0  0  0  3  0  0  0  0  0  0
   40.3080   33.5120   39.2310 C   0  0  0  0  0  3  0  0  0  0  0  0
  1 19  1  0  0  0  0
  2  1  2  0  0  0  0
  3  1  1  0  0  0  0
  3  4  1  0  0  0  0
  4 10  1  0  0  0  0
  4  9  1  0  0  0  0
  5 11  1  0  0  0  0
  5  4  1  0  0  0  0
  6  7  1  0  0  0  0
  6 13  1  0  0  0  0
  6  5  1  0  0  0  0
  7 16  1  0  0  0  0
  8 17  1  6  0  0  0
  8  7  1  0  0  0  0
  8  3  1  0  0  0  0
 12  5  1  0  0  0  0
 14  6  1  0  0  0  0
 15  7  1  0  0  0  0
 18 23  2  0  0  0  0
 18 19  1  0  0  0  0
 19 20  2  0  0  0  0
 20 26  1  0  0  0  0
 21 20  1  0  0  0  0
 22 25  1  0  0  0  0
 22 21  2  0  0  0  0
 23 22  1  0  0  0  0
 24 18  1  0  0  0  0
 26 31  2  0  0  0  0
 26 27  1  0  0  0  0
 27 28  2  0  0  0  0
 28 29  1  0  0  0  0
 28 33  1  0  0  0  0
 29 34  1  0  0  0  0
 30 35  1  0  0  0  0
 30 29  2  0  0  0  0
 31 30  1  0  0  0  0
 32 27  1  0  0  0  0
 36  8  1  0  0  0  0
 36 37  1  0  0  0  0
 38 36  1  0  0  0  0
 40 41  1  0  0  0  0
 40 39  1  0  0  0  0
 41 36  1  0  0  0  0
 42 43  1  0  0  0  0
 42 41  2  0  0  0  0
 44 42  1  0  0  0  0
 45 44  1  0  0  0  0
 46 44  2  0  0  0  0
 46 47  1  0  0  0  0
 47 40  2  0  0  0  0
M  END
>  <minimizedAffinity>
-4.96703196

>  <minimizedRMSD>
6.33835697

$$$$
