
 OpenBabel03252507223D

 47 48  0  0  0  0  0  0  0  0999 V2000
   47.2670   33.6230   42.7210 C   0  0  0  0  0  0  0  0  0  0  0  0
   48.4110   33.4260   43.2400 O   0  0  0  0  0  0  0  0  0  0  0  0
   46.8940   33.1070   41.4520 N   0  0  0  0  0  0  0  0  0  0  0  0
   45.6510   32.4490   41.0220 C   0  0  0  0  0  0  0  0  0  0  0  0
   45.1350   33.1460   39.7660 C   0  0  0  0  0  0  0  0  0  0  0  0
   46.0920   32.9560   38.6380 C   0  0  0  0  0  3  0  0  0  0  0  0
   47.4190   32.4520   39.1710 C   0  0  0  0  0  2  0  0  0  0  0  0
   47.8520   33.2140   40.3800 C   0  0  0  0  0  3  0  0  0  0  0  0
   45.8520   31.3720   40.8600 H   0  0  0  0  0  0  0  0  0  0  0  0
   44.8690   32.5130   41.8140 H   0  0  0  0  0  0  0  0  0  0  0  0
   44.1030   32.8970   39.5470 H   0  0  0  0  0  0  0  0  0  0  0  0
   45.1480   34.2420   40.0390 H   0  0  0  0  0  0  0  0  0  0  0  0
   45.7110   32.1570   37.9510 H   0  0  0  0  0  0  0  0  0  0  0  0
   46.2530   33.8630   38.0260 H   0  0  0  0  0  0  0  0  0  0  0  0
   48.1600   32.7130   38.3590 H   0  0  0  0  0  0  0  0  0  0  0  0
   47.4440   31.3570   39.2710 H   0  0  0  0  0  0  0  0  0  0  0  0
   47.8880   34.2970   40.0560 H   0  0  0  0  0  0  0  0  0  0  0  0
   45.9450   35.6640   42.9330 C   0  0  0  0  0  0  0  0  0  0  0  0
   46.3130   34.4070   43.4620 C   0  0  0  0  0  0  0  0  0  0  0  0
   45.7620   33.9560   44.6540 C   0  0  0  0  0  0  0  0  0  0  0  0
   44.8720   34.7630   45.2750 N   0  0  0  0  0  0  0  0  0  0  0  0
   44.5040   35.9830   44.7780 C   0  0  0  0  0  0  0  0  0  0  0  0
   45.0520   36.4060   43.6160 N   0  0  0  0  0  0  0  0  0  0  0  0
   46.3510   36.0360   42.0240 H   0  0  0  0  0  0  0  0  0  0  0  0
   43.7930   36.4870   45.3910 H   0  0  0  0  0  0  0  0  0  0  0  0
   46.1660   32.6730   45.1630 C   0  0  0  0  0  0  0  0  0  0  0  0
   45.7430   31.5300   44.5770 C   0  0  0  0  0  0  0  0  0  0  0  0
   46.1500   30.3120   45.0870 C   0  0  0  0  0  0  0  0  0  0  0  0
   46.9880   30.2040   46.1940 C   0  0  0  0  0  0  0  0  0  0  0  0
   47.3970   31.4130   46.7650 C   0  0  0  0  0  0  0  0  0  0  0  0
   46.9810   32.5680   46.2400 N   0  0  0  0  0  0  0  0  0  0  0  0
   45.0960   31.4490   43.7240 H   0  0  0  0  0  0  0  0  0  0  0  0
   45.8610   29.3520   44.6820 H   0  0  0  0  0  0  0  0  0  0  0  0
   47.3370   29.3020   46.6360 H   0  0  0  0  0  0  0  0  0  0  0  0
   48.0500   31.4770   47.6310 H   0  0  0  0  0  0  0  0  0  0  0  0
   49.2460   32.8440   40.7580 C   0  0  0  0  0  0  0  0  0  0  0  0
   49.5850   33.2160   41.7220 H   0  0  0  0  0  0  0  0  0  0  0  0
   50.0180   33.1020   39.9710 H   0  0  0  0  0  0  0  0  0  0  0  0
   50.9630   31.3820   42.8540 Cl  0  0  0  0  0  0  0  0  0  0  0  0
   50.0240   30.5880   41.6080 C   0  0  0  0  0  0  0  0  0  0  0  0
   49.2830   31.3300   40.7140 C   0  0  0  0  0  0  0  0  0  0  0  0
   48.5290   30.7270   39.7220 C   0  0  0  0  0  0  0  0  0  0  0  0
   47.9590   31.3330   39.0390 H   0  0  0  0  0  0  0  0  0  0  0  0
   48.4840   29.3550   39.5800 C   0  0  0  0  0  0  0  0  0  0  0  0
   47.8760   28.9460   38.7850 H   0  0  0  0  0  0  0  0  0  0  0  0
   49.2220   28.5980   40.4670 C   0  0  0  0  0  3  0  0  0  0  0  0
   49.9740   29.2080   41.4580 C   0  0  0  0  0  3  0  0  0  0  0  0
  1  2  2  0  0  0  0
  1 19  1  0  0  0  0
  3  1  1  0  0  0  0
  4  3  1  0  0  0  0
  4 10  1  0  0  0  0
  5 12  1  0  0  0  0
  5  4  1  0  0  0  0
  6  5  1  0  0  0  0
  7 16  1  0  0  0  0
  8 36  1  0  0  0  0
  8  3  1  0  0  0  0
  9  4  1  0  0  0  0
 11  5  1  0  0  0  0
 13  6  1  0  0  0  0
 14  6  1  0  0  0  0
 15  7  1  0  0  0  0
 17  8  1  0  0  0  0
 18 19  2  0  0  0  0
 18 23  1  0  0  0  0
 19 20  1  0  0  0  0
 20 26  1  0  0  0  0
 20 21  2  0  0  0  0
 22 21  1  0  0  0  0
 22 25  1  0  0  0  0
 23 22  2  0  0  0  0
 24 18  1  0  0  0  0
 26 31  1  0  0  0  0
 27 28  1  0  0  0  0
 27 26  2  0  0  0  0
 28 29  2  0  0  0  0
 29 34  1  0  0  0  0
 29 30  1  0  0  0  0
 30 35  1  0  0  0  0
 31 30  2  0  0  0  0
 32 27  1  0  0  0  0
 33 28  1  0  0  0  0
 36 37  1  0  0  0  0
 38 36  1  0  0  0  0
 40 39  1  0  0  0  0
 41 36  1  0  0  0  0
 41 40  2  0  0  0  0
 42 41  1  0  0  0  0
 43 42  1  0  0  0  0
 44 42  2  0  0  0  0
 44 46  1  0  0  0  0
 45 44  1  0  0  0  0
 46 47  2  0  0  0  0
 47 40  1  0  0  0  0
M  END
>  <minimizedAffinity>
-4.84082937

>  <minimizedRMSD>
2.07227588

$$$$
