
 OpenBabel03252502413D

 24 25  0  0  0  0  0  0  0  0999 V2000
   46.2180   34.9340   41.7220 C   0  0  0  0  0  0  0  0  0  0  0  0
   45.9270   33.9430   41.2990 H   0  0  0  0  0  0  0  0  0  0  0  0
   45.7990   35.7820   41.1850 H   0  0  0  0  0  0  0  0  0  0  0  0
   44.4820   35.9880   44.8860 C   0  0  0  0  0  0  0  0  0  0  0  0
   44.9450   35.9920   43.5620 C   0  0  0  0  0  0  0  0  0  0  0  0
   45.7320   34.9280   43.1220 C   0  0  0  0  0  0  0  0  0  0  0  0
   46.0090   33.9410   44.0080 N   0  0  0  0  0  0  0  0  0  0  0  0
   45.5510   33.9580   45.2830 C   0  0  0  0  0  0  0  0  0  0  0  0
   44.7980   34.9680   45.7170 N   0  0  0  0  0  0  0  0  0  0  0  0
   43.8880   36.8690   45.0920 H   0  0  0  0  0  0  0  0  0  0  0  0
   44.7220   36.7850   42.8460 H   0  0  0  0  0  0  0  0  0  0  0  0
   45.8110   33.1340   45.9420 H   0  0  0  0  0  0  0  0  0  0  0  0
   47.7290   34.9410   41.7310 C   0  0  0  0  0  0  0  0  0  0  0  0
   48.1010   35.9780   41.6080 H   0  0  0  0  0  0  0  0  0  0  0  0
   48.1450   34.4930   42.6460 H   0  0  0  0  0  0  0  0  0  0  0  0
   49.0010   32.4490   42.7270 Cl  0  0  0  0  0  0  0  0  0  0  0  0
   48.7790   32.9110   41.0400 C   0  0  0  0  0  0  0  0  0  0  0  0
   48.1750   34.0900   40.5970 C   0  0  0  0  0  0  0  0  0  0  0  0
   48.0670   34.3210   39.2410 C   0  0  0  0  0  0  0  0  0  0  0  0
   47.5840   35.2610   39.0100 H   0  0  0  0  0  0  0  0  0  0  0  0
   48.5530   33.3900   38.3480 C   0  0  0  0  0  0  0  0  0  0  0  0
   48.4410   33.6290   37.2980 H   0  0  0  0  0  0  0  0  0  0  0  0
   49.1530   32.2230   38.7990 C   0  0  0  0  0  3  0  0  0  0  0  0
   49.2690   31.9750   40.1530 C   0  0  0  0  0  3  0  0  0  0  0  0
  1 13  1  0  0  0  0
  1  6  1  0  0  0  0
  2  1  1  0  0  0  0
  3  1  1  0  0  0  0
  4 10  1  0  0  0  0
  4  9  1  0  0  0  0
  5  4  2  0  0  0  0
  6  5  1  0  0  0  0
  6  7  2  0  0  0  0
  7  8  1  0  0  0  0
  8  9  2  0  0  0  0
  8 12  1  0  0  0  0
 11  5  1  0  0  0  0
 13 15  1  0  0  0  0
 14 13  1  0  0  0  0
 17 16  1  0  0  0  0
 18 17  1  0  0  0  0
 18 13  1  0  0  0  0
 19 18  2  0  0  0  0
 20 19  1  0  0  0  0
 21 23  2  0  0  0  0
 21 19  1  0  0  0  0
 22 21  1  0  0  0  0
 23 24  1  0  0  0  0
 24 17  2  0  0  0  0
M  END
>  <minimizedAffinity>
-4.46286488

>  <minimizedRMSD>
1.38180518

$$$$
