
 OpenBabel03252507223D

 47 50  0  0  1  0  0  0  0  0999 V2000
   43.8400   29.8900   42.0120 C   0  0  0  0  0  0  0  0  0  0  0  0
   44.6080   29.2610   41.2180 O   0  0  0  0  0  0  0  0  0  0  0  0
   42.5140   29.4720   42.3010 N   0  0  0  0  0  0  0  0  0  0  0  0
   41.8020   29.3900   43.5850 C   0  0  0  0  0  0  0  0  0  0  0  0
   40.4680   30.1190   43.4550 C   0  0  0  0  0  0  0  0  0  0  0  0
   39.5900   29.4210   42.4720 C   0  0  0  0  0  0  0  0  0  0  0  0
   40.4100   28.4390   41.6600 C   0  0  0  0  0  0  0  0  0  0  0  0
   41.6930   29.0440   41.1960 C   0  0  2  0  0  0  0  0  0  0  0  0
   41.6800   28.3240   43.8610 H   0  0  0  0  0  0  0  0  0  0  0  0
   42.3930   29.8660   44.4020 H   0  0  0  0  0  0  0  0  0  0  0  0
   40.0140   30.3290   44.4170 H   0  0  0  0  0  0  0  0  0  0  0  0
   40.7470   31.1180   43.0090 H   0  0  0  0  0  0  0  0  0  0  0  0
   38.8250   28.8090   43.0170 H   0  0  0  0  0  0  0  0  0  0  0  0
   39.0410   30.1020   41.7960 H   0  0  0  0  0  0  0  0  0  0  0  0
   39.7940   28.2690   40.7280 H   0  0  0  0  0  0  0  0  0  0  0  0
   40.5030   27.4590   42.1510 H   0  0  0  0  0  0  0  0  0  0  0  0
   41.3970   29.9650   40.6090 H   0  0  0  0  0  0  0  0  0  0  0  0
   43.9700   32.3260   42.0960 C   0  0  0  0  0  0  0  0  0  0  0  0
   44.3480   31.0800   42.6440 C   0  0  0  0  0  0  0  0  0  0  0  0
   45.1780   31.0230   43.7550 C   0  0  0  0  0  0  0  0  0  0  0  0
   45.6010   32.1950   44.2800 N   0  0  0  0  0  0  0  0  0  0  0  0
   45.2470   33.4110   43.7630 C   0  0  0  0  0  0  0  0  0  0  0  0
   44.4370   33.4470   42.6790 N   0  0  0  0  0  0  0  0  0  0  0  0
   43.3370   32.4010   41.2460 H   0  0  0  0  0  0  0  0  0  0  0  0
   45.6660   34.2310   44.2970 H   0  0  0  0  0  0  0  0  0  0  0  0
   45.5460   29.7350   44.2800 C   0  0  0  0  0  0  0  0  0  0  0  0
   44.8500   29.1760   45.2970 C   0  0  0  0  0  0  0  0  0  0  0  0
   45.2250   27.9370   45.7780 C   0  0  0  0  0  0  0  0  0  0  0  0
   46.3040   27.2250   45.2600 C   0  0  0  0  0  0  0  0  0  0  0  0
   46.9920   27.8440   44.2120 C   0  0  0  0  0  0  0  0  0  0  0  0
   46.5950   29.0430   43.7770 N   0  0  0  0  0  0  0  0  0  0  0  0
   44.0020   29.5990   45.8010 H   0  0  0  0  0  0  0  0  0  0  0  0
   44.7260   27.4180   46.5860 H   0  0  0  0  0  0  0  0  0  0  0  0
   46.6440   26.2710   45.5840 H   0  0  0  0  0  0  0  0  0  0  0  0
   47.8510   27.4030   43.7150 H   0  0  0  0  0  0  0  0  0  0  0  0
   42.3810   28.1370   40.2310 C   0  0  0  0  0  0  0  0  0  0  0  0
   42.4010   27.0860   40.5080 H   0  0  0  0  0  0  0  0  0  0  0  0
   43.4290   28.4670   39.9600 H   0  0  0  0  0  0  0  0  0  0  0  0
   40.8720   25.7380   39.0280 Cl  0  0  0  0  0  0  0  0  0  0  0  0
   40.9630   27.3270   38.2950 C   0  0  0  0  0  0  0  0  0  0  0  0
   41.6630   28.3400   38.9130 C   0  0  0  0  0  0  0  0  0  0  0  0
   41.7480   29.6060   38.3560 C   0  0  0  0  0  0  0  0  0  0  0  0
   42.3030   30.3770   38.8620 H   0  0  0  0  0  0  0  0  0  0  0  0
   41.1380   29.9110   37.1580 C   0  0  0  0  0  0  0  0  0  0  0  0
   41.2420   30.9180   36.7760 H   0  0  0  0  0  0  0  0  0  0  0  0
   40.4340   28.9070   36.5260 C   0  0  0  0  0  3  0  0  0  0  0  0
   40.3520   27.6420   37.0890 C   0  0  0  0  0  3  0  0  0  0  0  0
  1  3  1  0  0  0  0
  1 19  1  0  0  0  0
  2  1  2  0  0  0  0
  3  4  1  0  0  0  0
  4  9  1  0  0  0  0
  4 10  1  0  0  0  0
  5  4  1  0  0  0  0
  5 11  1  0  0  0  0
  6 13  1  0  0  0  0
  6  5  1  0  0  0  0
  7 16  1  0  0  0  0
  7  6  1  0  0  0  0
  8 17  1  6  0  0  0
  8  7  1  0  0  0  0
  8  3  1  0  0  0  0
 12  5  1  0  0  0  0
 14  6  1  0  0  0  0
 15  7  1  0  0  0  0
 18 19  2  0  0  0  0
 18 23  1  0  0  0  0
 19 20  1  0  0  0  0
 20 26  1  0  0  0  0
 20 21  2  0  0  0  0
 22 21  1  0  0  0  0
 22 25  1  0  0  0  0
 23 22  2  0  0  0  0
 24 18  1  0  0  0  0
 26 27  1  0  0  0  0
 27 28  2  0  0  0  0
 27 32  1  0  0  0  0
 28 33  1  0  0  0  0
 29 34  1  0  0  0  0
 29 28  1  0  0  0  0
 30 29  2  0  0  0  0
 31 30  1  0  0  0  0
 31 26  2  0  0  0  0
 35 30  1  0  0  0  0
 36 37  1  0  0  0  0
 36  8  1  0  0  0  0
 38 36  1  0  0  0  0
 40 41  1  0  0  0  0
 40 39  1  0  0  0  0
 41 36  1  0  0  0  0
 42 43  1  0  0  0  0
 42 41  2  0  0  0  0
 44 42  1  0  0  0  0
 45 44  1  0  0  0  0
 46 47  1  0  0  0  0
 46 44  2  0  0  0  0
 47 40  2  0  0  0  0
M  END
>  <minimizedAffinity>
-2.63469768

>  <minimizedRMSD>
7.39225006

$$$$
