
 OpenBabel03252506313D

 32 34  0  0  1  0  0  0  0  0999 V2000
   44.5810   35.7620   44.7190 C   0  0  0  0  0  0  0  0  0  0  0  0
   44.5610   35.3930   43.3740 C   0  0  0  0  0  0  0  0  0  0  0  0
   44.9250   34.0950   43.0220 C   0  0  0  0  0  0  0  0  0  0  0  0
   45.2790   33.2650   44.0380 N   0  0  0  0  0  0  0  0  0  0  0  0
   45.2900   33.6380   45.3150 C   0  0  0  0  0  0  0  0  0  0  0  0
   44.9450   34.8760   45.6710 N   0  0  0  0  0  0  0  0  0  0  0  0
   45.6750   32.6740   46.2830 N   0  0  0  0  0  0  0  0  0  0  0  0
   45.4640   32.8290   47.7320 C   0  0  0  0  0  0  0  0  0  0  0  0
   46.7110   32.1940   48.2850 C   0  0  0  0  0  0  0  0  0  0  0  0
   47.3850   31.4740   47.1500 C   0  0  0  0  0  0  0  0  0  0  0  0
   46.3110   31.4080   46.1130 C   0  0  2  0  0  0  0  0  0  0  0  0
   44.3210   36.7360   45.1210 H   0  0  0  0  0  0  0  0  0  0  0  0
   44.8950   33.8640   41.9880 H   0  0  0  0  0  0  0  0  0  0  0  0
   44.5460   32.2800   48.0440 H   0  0  0  0  0  0  0  0  0  0  0  0
   45.4650   33.8960   47.9550 H   0  0  0  0  0  0  0  0  0  0  0  0
   47.3630   32.9170   48.8130 H   0  0  0  0  0  0  0  0  0  0  0  0
   46.3870   31.4270   49.0300 H   0  0  0  0  0  0  0  0  0  0  0  0
   48.1770   32.1670   46.7430 H   0  0  0  0  0  0  0  0  0  0  0  0
   47.8010   30.4860   47.4250 H   0  0  0  0  0  0  0  0  0  0  0  0
   45.5580   30.6470   46.4800 H   0  0  0  0  0  0  0  0  0  0  0  0
   44.6200   29.4670   44.5110 Cl  0  0  0  0  0  0  0  0  0  0  0  0
   46.1390   30.1710   43.9420 C   0  0  0  0  0  0  0  0  0  0  0  0
   46.8090   31.0660   44.7840 C   0  0  0  0  0  0  0  0  0  0  0  0
   47.9680   31.5260   44.2050 C   0  0  0  0  0  0  0  0  0  0  0  0
   48.5880   32.2270   44.7770 H   0  0  0  0  0  0  0  0  0  0  0  0
   48.4530   31.1850   42.9670 C   0  0  0  0  0  0  0  0  0  0  0  0
   49.3770   31.5900   42.5790 H   0  0  0  0  0  0  0  0  0  0  0  0
   47.7290   30.2970   42.2090 C   0  0  0  0  0  3  0  0  0  0  0  0
   46.5620   29.7860   42.7020 C   0  0  0  0  0  3  0  0  0  0  0  0
   44.1500   36.4240   42.4550 N   0  0  0  0  0  0  0  0  0  0  0  0
   43.3330   36.3000   41.7960 H   0  0  0  0  0  0  0  0  0  0  0  0
   44.6360   37.3540   42.3870 H   0  0  0  0  0  0  0  0  0  0  0  0
  1 12  1  0  0  0  0
  1  6  1  0  0  0  0
  2  1  2  0  0  0  0
  3  2  1  0  0  0  0
  3  4  2  0  0  0  0
  4  5  1  0  0  0  0
  5  6  2  0  0  0  0
  5  7  1  0  0  0  0
  7  8  1  0  0  0  0
  8 15  1  0  0  0  0
  8 14  1  0  0  0  0
  8  9  1  0  0  0  0
  9 16  1  0  0  0  0
  9 17  1  0  0  0  0
 10 19  1  0  0  0  0
 10  9  1  0  0  0  0
 11  7  1  0  0  0  0
 11 20  1  1  0  0  0
 11 10  1  0  0  0  0
 13  3  1  0  0  0  0
 18 10  1  0  0  0  0
 22 21  1  0  0  0  0
 22 23  1  0  0  0  0
 23 11  1  0  0  0  0
 24 25  1  0  0  0  0
 24 23  2  0  0  0  0
 26 24  1  0  0  0  0
 27 26  1  0  0  0  0
 28 29  1  0  0  0  0
 28 26  2  0  0  0  0
 29 22  2  0  0  0  0
 30  2  1  0  0  0  0
 31 30  1  0  0  0  0
 32 30  1  0  0  0  0
M  END
>  <minimizedAffinity>
-4.58633757

>  <minimizedRMSD>
1.94191444

$$$$
