
 OpenBabel03242518083D

 35 37  0  0  1  0  0  0  0  0999 V2000
   37.7800   28.7070   41.0580 N   0  0  0  0  0  0  0  0  0  0  0  0
   38.9480   28.7170   41.9000 C   0  0  0  0  0  0  0  0  0  0  0  0
   38.5550   28.7230   43.3210 C   0  0  0  0  0  0  0  0  0  0  0  0
   37.1760   28.3100   43.6690 C   0  0  0  0  0  0  0  0  0  0  0  0
   36.4590   27.4800   42.6820 C   0  0  0  0  0  0  0  0  0  0  0  0
   36.7580   27.7410   41.2300 C   0  0  2  0  0  0  0  0  0  0  0  0
   39.6870   27.9300   41.6480 H   0  0  0  0  0  0  0  0  0  0  0  0
   39.5360   29.6720   41.7290 H   0  0  0  0  0  0  0  0  0  0  0  0
   38.7470   29.6930   43.8250 H   0  0  0  0  0  0  0  0  0  0  0  0
   39.2510   28.0120   43.8570 H   0  0  0  0  0  0  0  0  0  0  0  0
   37.1510   27.7810   44.6460 H   0  0  0  0  0  0  0  0  0  0  0  0
   36.5410   29.2260   43.8580 H   0  0  0  0  0  0  0  0  0  0  0  0
   35.3770   27.4680   42.9190 H   0  0  0  0  0  0  0  0  0  0  0  0
   36.7810   26.4100   42.8550 H   0  0  0  0  0  0  0  0  0  0  0  0
   35.8030   28.2420   40.8630 H   0  0  0  0  0  0  0  0  0  0  0  0
   36.7610   30.7660   40.2190 C   0  0  0  0  0  0  0  0  0  0  0  0
   37.6610   29.7090   40.0460 C   0  0  0  0  0  0  0  0  0  0  0  0
   38.4340   29.6810   38.8520 C   0  0  0  0  0  0  0  0  0  0  0  0
   38.2480   30.6760   37.9650 N   0  0  0  0  0  0  0  0  0  0  0  0
   37.3710   31.6790   38.1650 C   0  0  0  0  0  0  0  0  0  0  0  0
   36.6230   31.7280   39.2980 N   0  0  0  0  0  0  0  0  0  0  0  0
   35.9950   30.8050   41.4000 N   0  0  0  0  0  0  0  0  0  0  0  0
   39.1290   28.8660   38.7160 H   0  0  0  0  0  0  0  0  0  0  0  0
   37.3330   32.4040   37.3650 H   0  0  0  0  0  0  0  0  0  0  0  0
   35.3100   30.0140   41.2370 H   0  0  0  0  0  0  0  0  0  0  0  0
   36.0620   31.4350   42.2350 H   0  0  0  0  0  0  0  0  0  0  0  0
   38.3380   25.4990   42.4690 Cl  0  0  0  0  0  0  0  0  0  0  0  0
   37.5590   25.3730   40.8830 C   0  0  0  0  0  0  0  0  0  0  0  0
   36.8450   26.5000   40.4410 C   0  0  0  0  0  0  0  0  0  0  0  0
   36.2870   26.2790   39.1990 C   0  0  0  0  0  0  0  0  0  0  0  0
   35.7150   27.0710   38.7470 H   0  0  0  0  0  0  0  0  0  0  0  0
   36.3840   25.1300   38.4480 C   0  0  0  0  0  0  0  0  0  0  0  0
   35.9110   25.0430   37.4790 H   0  0  0  0  0  0  0  0  0  0  0  0
   37.1070   24.0800   38.9710 C   0  0  0  0  0  3  0  0  0  0  0  0
   37.7100   24.1840   40.2040 C   0  0  0  0  0  3  0  0  0  0  0  0
  1  6  1  0  0  0  0
  1  2  1  0  0  0  0
  2  3  1  0  0  0  0
  3  4  1  0  0  0  0
  3  9  1  0  0  0  0
  3 10  1  0  0  0  0
  4 12  1  0  0  0  0
  4 11  1  0  0  0  0
  5 14  1  0  0  0  0
  5 13  1  0  0  0  0
  5  4  1  0  0  0  0
  6 15  1  6  0  0  0
  6  5  1  0  0  0  0
  7  2  1  0  0  0  0
  8  2  1  0  0  0  0
 16 22  1  0  0  0  0
 17 16  1  0  0  0  0
 17  1  1  0  0  0  0
 18 17  2  0  0  0  0
 19 20  2  0  0  0  0
 19 18  1  0  0  0  0
 20 21  1  0  0  0  0
 21 16  2  0  0  0  0
 22 26  1  0  0  0  0
 23 18  1  0  0  0  0
 24 20  1  0  0  0  0
 25 22  1  0  0  0  0
 28 27  1  0  0  0  0
 29 28  1  0  0  0  0
 29  6  1  0  0  0  0
 30 29  2  0  0  0  0
 31 30  1  0  0  0  0
 32 34  2  0  0  0  0
 32 30  1  0  0  0  0
 33 32  1  0  0  0  0
 34 35  1  0  0  0  0
 35 28  2  0  0  0  0
M  END
>  <minimizedAffinity>
-5.60426998

$$$$

 OpenBabel03242518083D

 35 37  0  0  1  0  0  0  0  0999 V2000
   37.8070   28.8350   41.0370 N   0  0  0  0  0  0  0  0  0  0  0  0
   38.9630   28.7880   41.8940 C   0  0  0  0  0  0  0  0  0  0  0  0
   38.5500   28.7540   43.3090 C   0  0  0  0  0  0  0  0  0  0  0  0
   37.1570   28.3610   43.6240 C   0  0  0  0  0  0  0  0  0  0  0  0
   36.4360   27.5840   42.5980 C   0  0  0  0  0  0  0  0  0  0  0  0
   36.7610   27.8880   41.1610 C   0  0  2  0  0  0  0  0  0  0  0  0
   39.6870   27.9940   41.6240 H   0  0  0  0  0  0  0  0  0  0  0  0
   39.5750   29.7340   41.7650 H   0  0  0  0  0  0  0  0  0  0  0  0
   38.7570   29.7010   43.8490 H   0  0  0  0  0  0  0  0  0  0  0  0
   39.2220   28.0080   43.8300 H   0  0  0  0  0  0  0  0  0  0  0  0
   37.1060   27.7990   44.5810 H   0  0  0  0  0  0  0  0  0  0  0  0
   36.5410   29.2850   43.8360 H   0  0  0  0  0  0  0  0  0  0  0  0
   35.3500   27.5890   42.8200 H   0  0  0  0  0  0  0  0  0  0  0  0
   36.7300   26.5010   42.7380 H   0  0  0  0  0  0  0  0  0  0  0  0
   35.8230   28.4230   40.7980 H   0  0  0  0  0  0  0  0  0  0  0  0
   36.8070   30.9150   40.2280 C   0  0  0  0  0  0  0  0  0  0  0  0
   37.7260   29.8740   40.0590 C   0  0  0  0  0  0  0  0  0  0  0  0
   38.5560   29.9000   38.9040 C   0  0  0  0  0  0  0  0  0  0  0  0
   38.4020   30.9270   38.0480 N   0  0  0  0  0  0  0  0  0  0  0  0
   37.5050   31.9130   38.2430 C   0  0  0  0  0  0  0  0  0  0  0  0
   36.7020   31.9110   39.3380 N   0  0  0  0  0  0  0  0  0  0  0  0
   35.9840   30.9000   41.3710 N   0  0  0  0  0  0  0  0  0  0  0  0
   39.2670   29.0970   38.7710 H   0  0  0  0  0  0  0  0  0  0  0  0
   37.4970   32.6680   37.4700 H   0  0  0  0  0  0  0  0  0  0  0  0
   35.3160   30.1100   41.1440 H   0  0  0  0  0  0  0  0  0  0  0  0
   36.0030   31.4990   42.2310 H   0  0  0  0  0  0  0  0  0  0  0  0
   35.2710   27.9920   38.5480 Cl  0  0  0  0  0  0  0  0  0  0  0  0
   36.1760   26.5690   39.0910 C   0  0  0  0  0  0  0  0  0  0  0  0
   36.8310   26.6740   40.3300 C   0  0  0  0  0  0  0  0  0  0  0  0
   37.4970   25.5060   40.6410 C   0  0  0  0  0  0  0  0  0  0  0  0
   38.0380   25.4580   41.5690 H   0  0  0  0  0  0  0  0  0  0  0  0
   37.5480   24.3610   39.8780 C   0  0  0  0  0  0  0  0  0  0  0  0
   38.0980   23.4880   40.2010 H   0  0  0  0  0  0  0  0  0  0  0  0
   36.8710   24.3590   38.6770 C   0  0  0  0  0  3  0  0  0  0  0  0
   36.1700   25.4690   38.2610 C   0  0  0  0  0  3  0  0  0  0  0  0
  1  6  1  0  0  0  0
  1  2  1  0  0  0  0
  2  3  1  0  0  0  0
  3  4  1  0  0  0  0
  3 10  1  0  0  0  0
  3  9  1  0  0  0  0
  4 12  1  0  0  0  0
  4 11  1  0  0  0  0
  5 14  1  0  0  0  0
  5 13  1  0  0  0  0
  5  4  1  0  0  0  0
  6 15  1  6  0  0  0
  6  5  1  0  0  0  0
  7  2  1  0  0  0  0
  8  2  1  0  0  0  0
 16 22  1  0  0  0  0
 17 16  1  0  0  0  0
 17  1  1  0  0  0  0
 18 17  2  0  0  0  0
 19 20  2  0  0  0  0
 19 18  1  0  0  0  0
 20 21  1  0  0  0  0
 21 16  2  0  0  0  0
 22 26  1  0  0  0  0
 23 18  1  0  0  0  0
 24 20  1  0  0  0  0
 25 22  1  0  0  0  0
 27 28  1  0  0  0  0
 28 29  1  0  0  0  0
 29 30  2  0  0  0  0
 29  6  1  0  0  0  0
 30 31  1  0  0  0  0
 32 33  1  0  0  0  0
 32 30  1  0  0  0  0
 34 32  2  0  0  0  0
 35 34  1  0  0  0  0
 35 28  2  0  0  0  0
M  END
>  <minimizedAffinity>
-5.56944752

$$$$

 OpenBabel03242518083D

 35 37  0  0  1  0  0  0  0  0999 V2000
   39.3850   31.6970   39.7630 N   0  0  0  0  0  0  0  0  0  0  0  0
   39.5430   32.9360   40.4800 C   0  0  0  0  0  0  0  0  0  0  0  0
   38.5000   33.8970   40.0770 C   0  0  0  0  0  0  0  0  0  0  0  0
   37.2900   33.3770   39.4000 C   0  0  0  0  0  0  0  0  0  0  0  0
   36.9780   31.9490   39.5980 C   0  0  0  0  0  0  0  0  0  0  0  0
   38.1460   31.0110   39.7460 C   0  0  2  0  0  0  0  0  0  0  0  0
   39.6300   32.8090   41.5770 H   0  0  0  0  0  0  0  0  0  0  0  0
   40.5360   33.4130   40.2080 H   0  0  0  0  0  0  0  0  0  0  0  0
   38.8900   34.7350   39.4630 H   0  0  0  0  0  0  0  0  0  0  0  0
   38.1470   34.4120   41.0200 H   0  0  0  0  0  0  0  0  0  0  0  0
   36.3910   33.9680   39.6780 H   0  0  0  0  0  0  0  0  0  0  0  0
   37.3760   33.5480   38.2860 H   0  0  0  0  0  0  0  0  0  0  0  0
   36.2350   31.6210   38.8450 H   0  0  0  0  0  0  0  0  0  0  0  0
   36.4160   31.8670   40.5760 H   0  0  0  0  0  0  0  0  0  0  0  0
   38.1320   30.4360   38.7630 H   0  0  0  0  0  0  0  0  0  0  0  0
   40.6780   31.4930   37.6970 C   0  0  0  0  0  0  0  0  0  0  0  0
   40.5080   31.1750   39.0490 C   0  0  0  0  0  0  0  0  0  0  0  0
   41.4780   30.3370   39.6640 C   0  0  0  0  0  0  0  0  0  0  0  0
   42.5000   29.9020   38.9020 N   0  0  0  0  0  0  0  0  0  0  0  0
   42.6320   30.2290   37.6020 C   0  0  0  0  0  0  0  0  0  0  0  0
   41.7190   31.0280   36.9930 N   0  0  0  0  0  0  0  0  0  0  0  0
   39.7240   32.3260   37.0810 N   0  0  0  0  0  0  0  0  0  0  0  0
   41.3490   30.0900   40.7070 H   0  0  0  0  0  0  0  0  0  0  0  0
   43.5020   29.8050   37.1220 H   0  0  0  0  0  0  0  0  0  0  0  0
   38.8900   31.6780   37.0070 H   0  0  0  0  0  0  0  0  0  0  0  0
   39.7930   33.3240   36.7690 H   0  0  0  0  0  0  0  0  0  0  0  0
   36.6390   28.5660   38.8480 Cl  0  0  0  0  0  0  0  0  0  0  0  0
   37.2160   28.7920   40.5070 C   0  0  0  0  0  0  0  0  0  0  0  0
   37.9160   29.9820   40.7740 C   0  0  0  0  0  0  0  0  0  0  0  0
   38.3110   30.0410   42.0940 C   0  0  0  0  0  0  0  0  0  0  0  0
   38.8550   30.9070   42.4270 H   0  0  0  0  0  0  0  0  0  0  0  0
   38.0800   29.0910   43.0640 C   0  0  0  0  0  0  0  0  0  0  0  0
   38.4290   29.2210   44.0800 H   0  0  0  0  0  0  0  0  0  0  0  0
   37.3850   27.9590   42.7010 C   0  0  0  0  0  3  0  0  0  0  0  0
   36.9390   27.7890   41.4090 C   0  0  0  0  0  3  0  0  0  0  0  0
  1  2  1  0  0  0  0
  2  7  1  0  0  0  0
  3  2  1  0  0  0  0
  3 10  1  0  0  0  0
  4  5  1  0  0  0  0
  4 11  1  0  0  0  0
  4  3  1  0  0  0  0
  5  6  1  0  0  0  0
  5 14  1  0  0  0  0
  6 15  1  6  0  0  0
  6  1  1  0  0  0  0
  6 29  1  0  0  0  0
  8  2  1  0  0  0  0
  9  3  1  0  0  0  0
 12  4  1  0  0  0  0
 13  5  1  0  0  0  0
 16 17  1  0  0  0  0
 17 18  2  0  0  0  0
 17  1  1  0  0  0  0
 18 23  1  0  0  0  0
 19 18  1  0  0  0  0
 20 19  2  0  0  0  0
 21 20  1  0  0  0  0
 21 16  2  0  0  0  0
 22 16  1  0  0  0  0
 24 20  1  0  0  0  0
 25 22  1  0  0  0  0
 26 22  1  0  0  0  0
 27 28  1  0  0  0  0
 28 29  2  0  0  0  0
 28 35  1  0  0  0  0
 29 30  1  0  0  0  0
 30 31  1  0  0  0  0
 30 32  2  0  0  0  0
 32 33  1  0  0  0  0
 34 32  1  0  0  0  0
 35 34  2  0  0  0  0
M  END
>  <minimizedAffinity>
-5.52267218

$$$$

 OpenBabel03242518083D

 35 37  0  0  1  0  0  0  0  0999 V2000
   39.0680   31.5560   39.3400 N   0  0  0  0  0  0  0  0  0  0  0  0
   39.4380   31.9330   40.6790 C   0  0  0  0  0  0  0  0  0  0  0  0
   39.1410   33.3580   40.9100 C   0  0  0  0  0  0  0  0  0  0  0  0
   38.1930   34.0350   39.9950 C   0  0  0  0  0  0  0  0  0  0  0  0
   37.2610   33.1730   39.2440 C   0  0  0  0  0  0  0  0  0  0  0  0
   37.7690   31.8160   38.8360 C   0  0  2  0  0  0  0  0  0  0  0  0
   39.0290   31.2620   41.4610 H   0  0  0  0  0  0  0  0  0  0  0  0
   40.5580   31.8160   40.8150 H   0  0  0  0  0  0  0  0  0  0  0  0
   40.0500   33.9910   40.9720 H   0  0  0  0  0  0  0  0  0  0  0  0
   38.7010   33.4380   41.9490 H   0  0  0  0  0  0  0  0  0  0  0  0
   37.5950   34.8010   40.5340 H   0  0  0  0  0  0  0  0  0  0  0  0
   38.7680   34.6450   39.2370 H   0  0  0  0  0  0  0  0  0  0  0  0
   36.8070   33.7480   38.4130 H   0  0  0  0  0  0  0  0  0  0  0  0
   36.3860   32.9590   39.9280 H   0  0  0  0  0  0  0  0  0  0  0  0
   37.8990   31.9260   37.7090 H   0  0  0  0  0  0  0  0  0  0  0  0
   40.8290   31.6940   37.6480 C   0  0  0  0  0  0  0  0  0  0  0  0
   40.0470   30.9220   38.5150 C   0  0  0  0  0  0  0  0  0  0  0  0
   40.2710   29.5180   38.5400 C   0  0  0  0  0  0  0  0  0  0  0  0
   41.2210   29.0220   37.7260 N   0  0  0  0  0  0  0  0  0  0  0  0
   41.9550   29.7970   36.9030 C   0  0  0  0  0  0  0  0  0  0  0  0
   41.7610   31.1410   36.8620 N   0  0  0  0  0  0  0  0  0  0  0  0
   40.6170   33.0860   37.6200 N   0  0  0  0  0  0  0  0  0  0  0  0
   39.6690   28.9190   39.2080 H   0  0  0  0  0  0  0  0  0  0  0  0
   42.6790   29.2570   36.3100 H   0  0  0  0  0  0  0  0  0  0  0  0
   39.6840   33.1510   37.1230 H   0  0  0  0  0  0  0  0  0  0  0  0
   41.2080   33.8720   37.9850 H   0  0  0  0  0  0  0  0  0  0  0  0
   37.0390   30.3240   36.3260 Cl  0  0  0  0  0  0  0  0  0  0  0  0
   36.2980   29.9920   37.9000 C   0  0  0  0  0  0  0  0  0  0  0  0
   36.7500   30.7640   38.9850 C   0  0  0  0  0  0  0  0  0  0  0  0
   36.1000   30.4130   40.1500 C   0  0  0  0  0  0  0  0  0  0  0  0
   36.3560   30.9340   41.0550 H   0  0  0  0  0  0  0  0  0  0  0  0
   35.1310   29.4450   40.2900 C   0  0  0  0  0  0  0  0  0  0  0  0
   34.6730   29.2350   41.2470 H   0  0  0  0  0  0  0  0  0  0  0  0
   34.7570   28.7420   39.1650 C   0  0  0  0  0  3  0  0  0  0  0  0
   35.3380   29.0050   37.9440 C   0  0  0  0  0  3  0  0  0  0  0  0
  1  2  1  0  0  0  0
  2  8  1  0  0  0  0
  2  3  1  0  0  0  0
  2  7  1  0  0  0  0
  3  9  1  0  0  0  0
  3 10  1  0  0  0  0
  4 11  1  0  0  0  0
  4  3  1  0  0  0  0
  5 14  1  0  0  0  0
  5  4  1  0  0  0  0
  6 15  1  6  0  0  0
  6 29  1  0  0  0  0
  6  5  1  0  0  0  0
  6  1  1  0  0  0  0
 12  4  1  0  0  0  0
 13  5  1  0  0  0  0
 16 17  1  0  0  0  0
 17 18  2  0  0  0  0
 17  1  1  0  0  0  0
 18 23  1  0  0  0  0
 19 18  1  0  0  0  0
 20 19  2  0  0  0  0
 21 20  1  0  0  0  0
 21 16  2  0  0  0  0
 22 16  1  0  0  0  0
 22 26  1  0  0  0  0
 24 20  1  0  0  0  0
 25 22  1  0  0  0  0
 27 28  1  0  0  0  0
 28 35  2  0  0  0  0
 28 29  1  0  0  0  0
 29 30  2  0  0  0  0
 30 32  1  0  0  0  0
 30 31  1  0  0  0  0
 32 33  1  0  0  0  0
 34 32  2  0  0  0  0
 35 34  1  0  0  0  0
M  END
>  <minimizedAffinity>
-5.5061903

$$$$

 OpenBabel03242518083D

 35 37  0  0  1  0  0  0  0  0999 V2000
   36.2290   29.2080   39.2970 N   0  0  0  0  0  0  0  0  0  0  0  0
   34.8140   28.9820   39.1530 C   0  0  0  0  0  0  0  0  0  0  0  0
   34.5650   27.9160   38.1650 C   0  0  0  0  0  0  0  0  0  0  0  0
   35.6800   27.0050   37.8180 C   0  0  0  0  0  0  0  0  0  0  0  0
   36.7820   26.9000   38.7930 C   0  0  0  0  0  0  0  0  0  0  0  0
   37.1190   28.1410   39.5750 C   0  0  2  0  0  0  0  0  0  0  0  0
   34.2860   28.8270   40.1150 H   0  0  0  0  0  0  0  0  0  0  0  0
   34.3160   29.9160   38.7450 H   0  0  0  0  0  0  0  0  0  0  0  0
   34.1360   28.2930   37.2130 H   0  0  0  0  0  0  0  0  0  0  0  0
   33.7360   27.2700   38.5820 H   0  0  0  0  0  0  0  0  0  0  0  0
   35.3080   25.9800   37.6080 H   0  0  0  0  0  0  0  0  0  0  0  0
   36.1350   27.3210   36.8330 H   0  0  0  0  0  0  0  0  0  0  0  0
   37.6590   26.4220   38.3150 H   0  0  0  0  0  0  0  0  0  0  0  0
   36.4610   26.1460   39.5730 H   0  0  0  0  0  0  0  0  0  0  0  0
   38.1180   28.4570   39.1270 H   0  0  0  0  0  0  0  0  0  0  0  0
   36.5720   31.4640   40.1780 C   0  0  0  0  0  0  0  0  0  0  0  0
   36.7260   30.5380   39.1390 C   0  0  0  0  0  0  0  0  0  0  0  0
   37.3870   30.9700   37.9560 C   0  0  0  0  0  0  0  0  0  0  0  0
   37.8210   32.2430   37.9120 N   0  0  0  0  0  0  0  0  0  0  0  0
   37.6550   33.1070   38.9320 C   0  0  0  0  0  0  0  0  0  0  0  0
   37.0280   32.7190   40.0730 N   0  0  0  0  0  0  0  0  0  0  0  0
   35.9240   31.0440   41.3550 N   0  0  0  0  0  0  0  0  0  0  0  0
   37.5060   30.2570   37.1530 H   0  0  0  0  0  0  0  0  0  0  0  0
   38.0560   34.0940   38.7510 H   0  0  0  0  0  0  0  0  0  0  0  0
   34.9180   30.9730   41.0320 H   0  0  0  0  0  0  0  0  0  0  0  0
   36.3080   30.8480   42.3110 H   0  0  0  0  0  0  0  0  0  0  0  0
   40.0370   28.1310   40.3110 Cl  0  0  0  0  0  0  0  0  0  0  0  0
   38.7440   27.8000   41.4750 C   0  0  0  0  0  0  0  0  0  0  0  0
   37.4270   27.8520   40.9860 C   0  0  0  0  0  0  0  0  0  0  0  0
   36.5150   27.5780   41.9840 C   0  0  0  0  0  0  0  0  0  0  0  0
   35.4680   27.5850   41.7350 H   0  0  0  0  0  0  0  0  0  0  0  0
   36.7980   27.2870   43.2990 C   0  0  0  0  0  0  0  0  0  0  0  0
   36.0150   27.0840   44.0170 H   0  0  0  0  0  0  0  0  0  0  0  0
   38.1220   27.2600   43.6800 C   0  0  0  0  0  3  0  0  0  0  0  0
   39.1230   27.5180   42.7690 C   0  0  0  0  0  3  0  0  0  0  0  0
  1  6  1  0  0  0  0
  2  1  1  0  0  0  0
  2  7  1  0  0  0  0
  3 10  1  0  0  0  0
  3  2  1  0  0  0  0
  4  3  1  0  0  0  0
  4  5  1  0  0  0  0
  5 14  1  0  0  0  0
  5  6  1  0  0  0  0
  6 15  1  6  0  0  0
  6 29  1  0  0  0  0
  8  2  1  0  0  0  0
  9  3  1  0  0  0  0
 11  4  1  0  0  0  0
 12  4  1  0  0  0  0
 13  5  1  0  0  0  0
 16 22  1  0  0  0  0
 17  1  1  0  0  0  0
 17 16  2  0  0  0  0
 18 17  1  0  0  0  0
 19 18  2  0  0  0  0
 19 20  1  0  0  0  0
 20 21  2  0  0  0  0
 21 16  1  0  0  0  0
 22 26  1  0  0  0  0
 23 18  1  0  0  0  0
 24 20  1  0  0  0  0
 25 22  1  0  0  0  0
 27 28  1  0  0  0  0
 28 35  1  0  0  0  0
 29 28  2  0  0  0  0
 29 30  1  0  0  0  0
 30 32  2  0  0  0  0
 31 30  1  0  0  0  0
 32 34  1  0  0  0  0
 32 33  1  0  0  0  0
 35 34  2  0  0  0  0
M  END
>  <minimizedAffinity>
-5.49677992

$$$$

 OpenBabel03242518083D

 35 37  0  0  1  0  0  0  0  0999 V2000
   38.0580   30.4900   38.9630 N   0  0  0  0  0  0  0  0  0  0  0  0
   36.9280   30.4830   38.0720 C   0  0  0  0  0  0  0  0  0  0  0  0
   37.1510   29.5290   36.9700 C   0  0  0  0  0  0  0  0  0  0  0  0
   38.1900   28.4880   37.1420 C   0  0  0  0  0  0  0  0  0  0  0  0
   38.5830   28.1620   38.5270 C   0  0  0  0  0  0  0  0  0  0  0  0
   38.5600   29.2890   39.5230 C   0  0  2  0  0  0  0  0  0  0  0  0
   35.9550   30.3480   38.5850 H   0  0  0  0  0  0  0  0  0  0  0  0
   36.8130   31.5040   37.5890 H   0  0  0  0  0  0  0  0  0  0  0  0
   37.3350   30.0220   35.9930 H   0  0  0  0  0  0  0  0  0  0  0  0
   36.1730   28.9860   36.8030 H   0  0  0  0  0  0  0  0  0  0  0  0
   37.8970   27.5430   36.6360 H   0  0  0  0  0  0  0  0  0  0  0  0
   39.1290   28.7940   36.5930 H   0  0  0  0  0  0  0  0  0  0  0  0
   39.5320   27.5910   38.5210 H   0  0  0  0  0  0  0  0  0  0  0  0
   37.8280   27.4160   38.9170 H   0  0  0  0  0  0  0  0  0  0  0  0
   39.6670   29.4820   39.7100 H   0  0  0  0  0  0  0  0  0  0  0  0
   38.0480   32.6410   40.1280 C   0  0  0  0  0  0  0  0  0  0  0  0
   38.6820   31.7410   39.2640 C   0  0  0  0  0  0  0  0  0  0  0  0
   39.9410   32.1150   38.7200 C   0  0  0  0  0  0  0  0  0  0  0  0
   40.4410   33.3140   39.0720 N   0  0  0  0  0  0  0  0  0  0  0  0
   39.8030   34.1550   39.9070 C   0  0  0  0  0  0  0  0  0  0  0  0
   38.5990   33.8210   40.4400 N   0  0  0  0  0  0  0  0  0  0  0  0
   36.8020   32.2770   40.6750 N   0  0  0  0  0  0  0  0  0  0  0  0
   40.4320   31.4220   38.0520 H   0  0  0  0  0  0  0  0  0  0  0  0
   40.3280   35.0810   40.0960 H   0  0  0  0  0  0  0  0  0  0  0  0
   36.1650   32.3610   39.8340 H   0  0  0  0  0  0  0  0  0  0  0  0
   36.5440   31.9930   41.6510 H   0  0  0  0  0  0  0  0  0  0  0  0
   40.2460   30.0170   41.9080 Cl  0  0  0  0  0  0  0  0  0  0  0  0
   38.7190   29.1290   42.0360 C   0  0  0  0  0  0  0  0  0  0  0  0
   38.0360   28.8720   40.8350 C   0  0  0  0  0  0  0  0  0  0  0  0
   36.8670   28.1770   41.0660 C   0  0  0  0  0  0  0  0  0  0  0  0
   36.2520   27.9150   40.2230 H   0  0  0  0  0  0  0  0  0  0  0  0
   36.3840   27.7650   42.2880 C   0  0  0  0  0  0  0  0  0  0  0  0
   35.4520   27.2230   42.3770 H   0  0  0  0  0  0  0  0  0  0  0  0
   37.1280   28.0670   43.4080 C   0  0  0  0  0  3  0  0  0  0  0  0
   38.3150   28.7580   43.3000 C   0  0  0  0  0  3  0  0  0  0  0  0
  1 17  1  0  0  0  0
  1  6  1  0  0  0  0
  2  7  1  0  0  0  0
  2  1  1  0  0  0  0
  3  4  1  0  0  0  0
  3  2  1  0  0  0  0
  4  5  1  0  0  0  0
  5 14  1  0  0  0  0
  5  6  1  0  0  0  0
  6 15  1  1  0  0  0
  6 29  1  0  0  0  0
  8  2  1  0  0  0  0
  9  3  1  0  0  0  0
 10  3  1  0  0  0  0
 11  4  1  0  0  0  0
 12  4  1  0  0  0  0
 13  5  1  0  0  0  0
 16 21  1  0  0  0  0
 16 22  1  0  0  0  0
 17 16  2  0  0  0  0
 18 19  2  0  0  0  0
 18 17  1  0  0  0  0
 19 20  1  0  0  0  0
 20 24  1  0  0  0  0
 20 21  2  0  0  0  0
 22 26  1  0  0  0  0
 23 18  1  0  0  0  0
 25 22  1  0  0  0  0
 27 28  1  0  0  0  0
 28 35  1  0  0  0  0
 29 30  1  0  0  0  0
 29 28  2  0  0  0  0
 30 32  2  0  0  0  0
 31 30  1  0  0  0  0
 32 33  1  0  0  0  0
 32 34  1  0  0  0  0
 35 34  2  0  0  0  0
M  END
>  <minimizedAffinity>
-5.48916197

$$$$

 OpenBabel03242518083D

 35 37  0  0  1  0  0  0  0  0999 V2000
   39.7030   32.0440   39.7180 N   0  0  0  0  0  0  0  0  0  0  0  0
   39.5540   33.3060   40.3960 C   0  0  0  0  0  0  0  0  0  0  0  0
   38.2890   33.9520   40.0020 C   0  0  0  0  0  0  0  0  0  0  0  0
   37.2380   33.1160   39.3790 C   0  0  0  0  0  0  0  0  0  0  0  0
   37.3090   31.6630   39.6250 C   0  0  0  0  0  0  0  0  0  0  0  0
   38.6820   31.0630   39.7600 C   0  0  2  0  0  0  0  0  0  0  0  0
   39.6980   33.2420   41.4930 H   0  0  0  0  0  0  0  0  0  0  0  0
   40.3840   34.0120   40.0790 H   0  0  0  0  0  0  0  0  0  0  0  0
   38.4340   34.8400   39.3530 H   0  0  0  0  0  0  0  0  0  0  0  0
   37.8390   34.3920   40.9420 H   0  0  0  0  0  0  0  0  0  0  0  0
   36.2240   33.4650   39.6700 H   0  0  0  0  0  0  0  0  0  0  0  0
   37.2490   33.2650   38.2590 H   0  0  0  0  0  0  0  0  0  0  0  0
   36.6580   31.1300   38.9050 H   0  0  0  0  0  0  0  0  0  0  0  0
   36.8120   31.4740   40.6230 H   0  0  0  0  0  0  0  0  0  0  0  0
   38.7930   30.4700   38.7930 H   0  0  0  0  0  0  0  0  0  0  0  0
   40.9160   31.9880   37.5950 C   0  0  0  0  0  0  0  0  0  0  0  0
   40.9040   31.8040   38.9820 C   0  0  0  0  0  0  0  0  0  0  0  0
   42.1100   31.3830   39.6080 C   0  0  0  0  0  0  0  0  0  0  0  0
   43.1860   31.1890   38.8230 N   0  0  0  0  0  0  0  0  0  0  0  0
   43.1610   31.3760   37.4890 C   0  0  0  0  0  0  0  0  0  0  0  0
   42.0210   31.7780   36.8680 N   0  0  0  0  0  0  0  0  0  0  0  0
   39.7280   32.4080   36.9670 N   0  0  0  0  0  0  0  0  0  0  0  0
   42.1040   31.2400   40.6780 H   0  0  0  0  0  0  0  0  0  0  0  0
   44.1010   31.1810   36.9930 H   0  0  0  0  0  0  0  0  0  0  0  0
   39.1340   31.5330   37.0240 H   0  0  0  0  0  0  0  0  0  0  0  0
   39.4710   33.3340   36.5460 H   0  0  0  0  0  0  0  0  0  0  0  0
   39.7600   28.3750   38.9410 Cl  0  0  0  0  0  0  0  0  0  0  0  0
   39.2190   28.7400   40.5870 C   0  0  0  0  0  0  0  0  0  0  0  0
   38.7510   30.0450   40.8220 C   0  0  0  0  0  0  0  0  0  0  0  0
   38.3610   30.2040   42.1350 C   0  0  0  0  0  0  0  0  0  0  0  0
   37.9790   31.1620   42.4430 H   0  0  0  0  0  0  0  0  0  0  0  0
   38.4030   29.2490   43.1270 C   0  0  0  0  0  0  0  0  0  0  0  0
   38.0750   29.4640   44.1350 H   0  0  0  0  0  0  0  0  0  0  0  0
   38.8800   28.0000   42.7950 C   0  0  0  0  0  3  0  0  0  0  0  0
   39.2990   27.7230   41.5130 C   0  0  0  0  0  3  0  0  0  0  0  0
  1  6  1  0  0  0  0
  1  2  1  0  0  0  0
  2  7  1  0  0  0  0
  3  2  1  0  0  0  0
  3 10  1  0  0  0  0
  4  5  1  0  0  0  0
  4 11  1  0  0  0  0
  4  3  1  0  0  0  0
  5  6  1  0  0  0  0
  5 14  1  0  0  0  0
  6 15  1  6  0  0  0
  6 29  1  0  0  0  0
  8  2  1  0  0  0  0
  9  3  1  0  0  0  0
 12  4  1  0  0  0  0
 13  5  1  0  0  0  0
 16 17  1  0  0  0  0
 17 18  2  0  0  0  0
 17  1  1  0  0  0  0
 18 23  1  0  0  0  0
 19 18  1  0  0  0  0
 20 19  2  0  0  0  0
 21 20  1  0  0  0  0
 21 16  2  0  0  0  0
 22 25  1  0  0  0  0
 22 16  1  0  0  0  0
 24 20  1  0  0  0  0
 26 22  1  0  0  0  0
 27 28  1  0  0  0  0
 28 29  2  0  0  0  0
 28 35  1  0  0  0  0
 29 30  1  0  0  0  0
 30 31  1  0  0  0  0
 30 32  2  0  0  0  0
 32 33  1  0  0  0  0
 34 32  1  0  0  0  0
 35 34  2  0  0  0  0
M  END
>  <minimizedAffinity>
-5.40579557

$$$$

 OpenBabel03242518083D

 35 37  0  0  1  0  0  0  0  0999 V2000
   38.1340   28.8340   42.4190 N   0  0  0  0  0  0  0  0  0  0  0  0
   37.4570   28.6680   43.6790 C   0  0  0  0  0  0  0  0  0  0  0  0
   36.6310   27.4470   43.6600 C   0  0  0  0  0  0  0  0  0  0  0  0
   36.9180   26.4210   42.6310 C   0  0  0  0  0  0  0  0  0  0  0  0
   38.2640   26.4430   42.0260 C   0  0  0  0  0  0  0  0  0  0  0  0
   38.9140   27.7900   41.8620 C   0  0  2  0  0  0  0  0  0  0  0  0
   38.1280   28.7360   44.5580 H   0  0  0  0  0  0  0  0  0  0  0  0
   36.7420   29.5330   43.8460 H   0  0  0  0  0  0  0  0  0  0  0  0
   35.5420   27.6550   43.6240 H   0  0  0  0  0  0  0  0  0  0  0  0
   36.7640   26.9450   44.6640 H   0  0  0  0  0  0  0  0  0  0  0  0
   36.7340   25.3990   43.0240 H   0  0  0  0  0  0  0  0  0  0  0  0
   36.1720   26.5110   41.7870 H   0  0  0  0  0  0  0  0  0  0  0  0
   38.2690   25.8290   41.1040 H   0  0  0  0  0  0  0  0  0  0  0  0
   38.9480   25.8760   42.7250 H   0  0  0  0  0  0  0  0  0  0  0  0
   38.8740   27.9520   40.7340 H   0  0  0  0  0  0  0  0  0  0  0  0
   36.7960   30.3640   41.0580 C   0  0  0  0  0  0  0  0  0  0  0  0
   37.9920   30.0760   41.7270 C   0  0  0  0  0  0  0  0  0  0  0  0
   39.0260   31.0510   41.6910 C   0  0  0  0  0  0  0  0  0  0  0  0
   38.7870   32.1890   41.0140 N   0  0  0  0  0  0  0  0  0  0  0  0
   37.6230   32.4330   40.3810 C   0  0  0  0  0  0  0  0  0  0  0  0
   36.6200   31.5180   40.4020 N   0  0  0  0  0  0  0  0  0  0  0  0
   35.7650   29.4060   41.0920 N   0  0  0  0  0  0  0  0  0  0  0  0
   39.9500   30.8310   42.2060 H   0  0  0  0  0  0  0  0  0  0  0  0
   37.5790   33.3900   39.8810 H   0  0  0  0  0  0  0  0  0  0  0  0
   36.1490   28.6540   40.4520 H   0  0  0  0  0  0  0  0  0  0  0  0
   34.8500   29.4080   41.6050 H   0  0  0  0  0  0  0  0  0  0  0  0
   40.7680   28.5180   39.6050 Cl  0  0  0  0  0  0  0  0  0  0  0  0
   41.3380   28.0670   41.2200 C   0  0  0  0  0  0  0  0  0  0  0  0
   40.3520   27.7640   42.1750 C   0  0  0  0  0  0  0  0  0  0  0  0
   40.9200   27.4300   43.3870 C   0  0  0  0  0  0  0  0  0  0  0  0
   40.2690   27.1740   44.2040 H   0  0  0  0  0  0  0  0  0  0  0  0
   42.2650   27.3840   43.6790 C   0  0  0  0  0  0  0  0  0  0  0  0
   42.6230   27.1100   44.6630 H   0  0  0  0  0  0  0  0  0  0  0  0
   43.1520   27.6990   42.6740 C   0  0  0  0  0  3  0  0  0  0  0  0
   42.7010   28.0490   41.4200 C   0  0  0  0  0  3  0  0  0  0  0  0
  1  2  1  0  0  0  0
  2  8  1  0  0  0  0
  2  7  1  0  0  0  0
  3  2  1  0  0  0  0
  3 10  1  0  0  0  0
  4 11  1  0  0  0  0
  4  3  1  0  0  0  0
  5  4  1  0  0  0  0
  5 14  1  0  0  0  0
  6 15  1  6  0  0  0
  6  5  1  0  0  0  0
  6 29  1  0  0  0  0
  6  1  1  0  0  0  0
  9  3  1  0  0  0  0
 12  4  1  0  0  0  0
 13  5  1  0  0  0  0
 16 22  1  0  0  0  0
 16 17  1  0  0  0  0
 17  1  1  0  0  0  0
 18 17  2  0  0  0  0
 18 23  1  0  0  0  0
 19 18  1  0  0  0  0
 20 21  1  0  0  0  0
 20 19  2  0  0  0  0
 21 16  2  0  0  0  0
 22 26  1  0  0  0  0
 24 20  1  0  0  0  0
 25 22  1  0  0  0  0
 27 28  1  0  0  0  0
 28 35  2  0  0  0  0
 28 29  1  0  0  0  0
 29 30  2  0  0  0  0
 30 32  1  0  0  0  0
 30 31  1  0  0  0  0
 32 33  1  0  0  0  0
 34 32  2  0  0  0  0
 35 34  1  0  0  0  0
M  END
>  <minimizedAffinity>
-5.23534775

$$$$

 OpenBabel03242518083D

 35 37  0  0  1  0  0  0  0  0999 V2000
   38.5460   29.8960   40.5600 N   0  0  0  0  0  0  0  0  0  0  0  0
   39.4880   30.4580   39.6260 C   0  0  0  0  0  0  0  0  0  0  0  0
   39.8500   31.8290   40.0270 C   0  0  0  0  0  0  0  0  0  0  0  0
   39.5810   32.2470   41.4230 C   0  0  0  0  0  0  0  0  0  0  0  0
   39.4330   31.1720   42.4230 C   0  0  0  0  0  0  0  0  0  0  0  0
   38.8090   29.8860   41.9520 C   0  0  2  0  0  0  0  0  0  0  0  0
   40.3630   29.8070   39.4290 H   0  0  0  0  0  0  0  0  0  0  0  0
   39.0070   30.5430   38.6020 H   0  0  0  0  0  0  0  0  0  0  0  0
   39.4240   32.6080   39.3610 H   0  0  0  0  0  0  0  0  0  0  0  0
   40.9640   31.9350   39.8670 H   0  0  0  0  0  0  0  0  0  0  0  0
   40.3600   32.9500   41.7870 H   0  0  0  0  0  0  0  0  0  0  0  0
   38.6370   32.8670   41.4580 H   0  0  0  0  0  0  0  0  0  0  0  0
   38.9730   31.5800   43.3440 H   0  0  0  0  0  0  0  0  0  0  0  0
   40.4760   30.8830   42.7520 H   0  0  0  0  0  0  0  0  0  0  0  0
   37.7860   29.9060   42.4530 H   0  0  0  0  0  0  0  0  0  0  0  0
   36.1210   30.0390   40.2750 C   0  0  0  0  0  0  0  0  0  0  0  0
   37.3230   29.3570   40.0540 C   0  0  0  0  0  0  0  0  0  0  0  0
   37.2730   28.1420   39.3170 C   0  0  0  0  0  0  0  0  0  0  0  0
   36.0700   27.7250   38.8820 N   0  0  0  0  0  0  0  0  0  0  0  0
   34.9320   28.4070   39.1140 C   0  0  0  0  0  0  0  0  0  0  0  0
   34.9540   29.5710   39.8140 N   0  0  0  0  0  0  0  0  0  0  0  0
   36.1610   31.2460   41.0000 N   0  0  0  0  0  0  0  0  0  0  0  0
   38.2000   27.6140   39.1450 H   0  0  0  0  0  0  0  0  0  0  0  0
   34.0450   27.9480   38.7020 H   0  0  0  0  0  0  0  0  0  0  0  0
   36.3530   30.9000   41.9820 H   0  0  0  0  0  0  0  0  0  0  0  0
   36.0380   32.2360   40.6790 H   0  0  0  0  0  0  0  0  0  0  0  0
   36.9850   27.7930   43.1130 Cl  0  0  0  0  0  0  0  0  0  0  0  0
   38.7500   27.6440   43.1070 C   0  0  0  0  0  0  0  0  0  0  0  0
   39.4690   28.6980   42.5180 C   0  0  0  0  0  0  0  0  0  0  0  0
   40.8280   28.4660   42.5760 C   0  0  0  0  0  0  0  0  0  0  0  0
   41.4910   29.2040   42.1590 H   0  0  0  0  0  0  0  0  0  0  0  0
   41.4510   27.3670   43.1240 C   0  0  0  0  0  0  0  0  0  0  0  0
   42.5280   27.2670   43.1240 H   0  0  0  0  0  0  0  0  0  0  0  0
   40.6560   26.3870   43.6760 C   0  0  0  0  0  3  0  0  0  0  0  0
   39.2840   26.5090   43.6780 C   0  0  0  0  0  3  0  0  0  0  0  0
  1  6  1  0  0  0  0
  2  3  1  0  0  0  0
  2  1  1  0  0  0  0
  3  4  1  0  0  0  0
  4 12  1  0  0  0  0
  4 11  1  0  0  0  0
  4  5  1  0  0  0  0
  5 14  1  0  0  0  0
  5 13  1  0  0  0  0
  6  5  1  0  0  0  0
  6 15  1  1  0  0  0
  6 29  1  0  0  0  0
  7  2  1  0  0  0  0
  8  2  1  0  0  0  0
  9  3  1  0  0  0  0
 10  3  1  0  0  0  0
 16 22  1  0  0  0  0
 17 16  1  0  0  0  0
 17  1  1  0  0  0  0
 18 17  2  0  0  0  0
 19 20  2  0  0  0  0
 19 18  1  0  0  0  0
 20 21  1  0  0  0  0
 21 16  2  0  0  0  0
 22 25  1  0  0  0  0
 23 18  1  0  0  0  0
 24 20  1  0  0  0  0
 26 22  1  0  0  0  0
 28 27  1  0  0  0  0
 28 35  1  0  0  0  0
 29 30  1  0  0  0  0
 29 28  2  0  0  0  0
 30 32  2  0  0  0  0
 31 30  1  0  0  0  0
 32 33  1  0  0  0  0
 32 34  1  0  0  0  0
 34 35  2  0  0  0  0
M  END
>  <minimizedAffinity>
-5.17218447

$$$$
