
 OpenBabel03242523333D

 37 40  0  0  0  0  0  0  0  0999 V2000
   45.5570   33.1670   46.4640 C   0  0  0  0  0  0  0  0  0  0  0  0
   44.5600   32.6520   46.5520 H   0  0  0  0  0  0  0  0  0  0  0  0
   45.7950   33.5460   47.4550 H   0  0  0  0  0  0  0  0  0  0  0  0
   44.4040   36.2800   44.7830 C   0  0  0  0  0  0  0  0  0  0  0  0
   45.0510   36.1610   43.5590 C   0  0  0  0  0  0  0  0  0  0  0  0
   45.8610   35.0570   43.3020 C   0  0  0  0  0  0  0  0  0  0  0  0
   45.9810   34.1180   44.2990 N   0  0  0  0  0  0  0  0  0  0  0  0
   45.3390   34.2560   45.4840 C   0  0  0  0  0  0  0  0  0  0  0  0
   44.5740   35.3280   45.6890 N   0  0  0  0  0  0  0  0  0  0  0  0
   43.7910   37.1550   44.9240 H   0  0  0  0  0  0  0  0  0  0  0  0
   44.9200   36.8980   42.8140 H   0  0  0  0  0  0  0  0  0  0  0  0
   44.6880   33.1760   41.0500 Cl  0  0  0  0  0  0  0  0  0  0  0  0
   46.2430   33.9600   41.0310 C   0  0  0  0  0  0  0  0  0  0  0  0
   46.5950   34.7490   42.0920 C   0  0  0  0  0  0  0  0  0  0  0  0
   47.8350   35.3260   41.9180 C   0  0  0  0  0  0  0  0  0  0  0  0
   48.2940   35.9870   42.6490 H   0  0  0  0  0  0  0  0  0  0  0  0
   48.6240   35.1290   40.8110 C   0  0  0  0  0  0  0  0  0  0  0  0
   49.5920   35.5950   40.7050 H   0  0  0  0  0  0  0  0  0  0  0  0
   48.2180   34.3330   39.7910 C   0  0  0  0  0  0  0  0  0  0  0  0
   46.9930   33.7310   39.9040 C   0  0  0  0  0  0  0  0  0  0  0  0
   46.7580   32.0180   45.7640 S   0  0  0  0  0  0  0  0  0  0  0  0
   47.7010   31.2270   47.0480 C   0  0  0  0  0  0  0  0  0  0  0  0
   47.9190   31.9430   48.2020 C   0  0  0  0  0  0  0  0  0  0  0  0
   48.6450   31.3440   49.2100 C   0  0  0  0  0  0  0  0  0  0  0  0
   49.1500   30.0620   49.0930 C   0  0  0  0  0  0  0  0  0  0  0  0
   49.8530   29.4990   50.0900 N   0  0  0  0  0  0  0  0  0  0  0  0
   50.3500   28.2550   49.9970 C   0  0  0  0  0  0  0  0  0  0  0  0
   50.1320   27.5360   48.8410 C   0  0  0  0  0  0  0  0  0  0  0  0
   49.4070   28.1000   47.7950 C   0  0  0  0  0  0  0  0  0  0  0  0
   48.8870   29.4050   47.8970 C   0  0  0  0  0  0  0  0  0  0  0  0
   48.1750   29.9490   46.8640 C   0  0  0  0  0  0  0  0  0  0  0  0
   47.5990   32.9400   48.4480 H   0  0  0  0  0  0  0  0  0  0  0  0
   48.8680   31.8400   50.1610 H   0  0  0  0  0  0  0  0  0  0  0  0
   50.8880   27.9500   50.8820 H   0  0  0  0  0  0  0  0  0  0  0  0
   50.5490   26.5500   48.8170 H   0  0  0  0  0  0  0  0  0  0  0  0
   49.2550   27.5080   46.9020 H   0  0  0  0  0  0  0  0  0  0  0  0
   47.9920   29.4060   45.9550 H   0  0  0  0  0  0  0  0  0  0  0  0
  1  2  1  0  0  0  0
  1  3  1  0  0  0  0
  4 10  1  0  0  0  0
  4  9  1  0  0  0  0
  5  4  2  0  0  0  0
  6  5  1  0  0  0  0
  6  7  2  0  0  0  0
  7  8  1  0  0  0  0
  8  9  2  0  0  0  0
  8  1  1  0  0  0  0
 11  5  1  0  0  0  0
 13 12  1  0  0  0  0
 13 14  1  0  0  0  0
 14  6  1  0  0  0  0
 15 14  2  0  0  0  0
 15 16  1  0  0  0  0
 17 15  1  0  0  0  0
 18 17  1  0  0  0  0
 19 20  1  0  0  0  0
 19 17  2  0  0  0  0
 20 13  2  0  0  0  0
 21  1  1  0  0  0  0
 21 22  1  0  0  0  0
 22 23  1  0  0  0  0
 23 32  1  0  0  0  0
 23 24  2  0  0  0  0
 24 33  1  0  0  0  0
 25 24  1  0  0  0  0
 25 26  1  0  0  0  0
 27 26  2  0  0  0  0
 27 34  1  0  0  0  0
 28 27  1  0  0  0  0
 29 30  1  0  0  0  0
 29 28  2  0  0  0  0
 30 25  2  0  0  0  0
 31 22  2  0  0  0  0
 31 30  1  0  0  0  0
 35 28  1  0  0  0  0
 36 29  1  0  0  0  0
 37 31  1  0  0  0  0
M  END
>  <minimizedAffinity>
-6.58760738

>  <minimizedRMSD>
1.09454918

$$$$
