
 OpenBabel03252507223D

 47 50  0  0  1  0  0  0  0  0999 V2000
   46.1360   32.7370   42.8230 C   0  0  0  0  0  0  0  0  0  0  0  0
   47.3860   32.5040   42.8170 O   0  0  0  0  0  0  0  0  0  0  0  0
   45.2340   32.1440   41.9000 N   0  0  0  0  0  0  0  0  0  0  0  0
   43.9100   31.5420   42.1190 C   0  0  0  0  0  0  0  0  0  0  0  0
   42.9190   32.1650   41.1410 C   0  0  0  0  0  0  0  0  0  0  0  0
   43.2840   31.8150   39.7380 C   0  0  0  0  0  0  0  0  0  0  0  0
   44.6960   31.2650   39.6990 C   0  0  0  0  0  0  0  0  0  0  0  0
   45.6330   32.0930   40.5160 C   0  0  2  0  0  0  0  0  0  0  0  0
   43.9910   30.4440   42.0020 H   0  0  0  0  0  0  0  0  0  0  0  0
   43.5530   31.7270   43.1600 H   0  0  0  0  0  0  0  0  0  0  0  0
   41.8880   31.9720   41.4150 H   0  0  0  0  0  0  0  0  0  0  0  0
   43.0790   33.2770   41.2640 H   0  0  0  0  0  0  0  0  0  0  0  0
   42.6210   30.9900   39.3710 H   0  0  0  0  0  0  0  0  0  0  0  0
   43.1870   32.6530   39.0250 H   0  0  0  0  0  0  0  0  0  0  0  0
   45.0170   31.4040   38.6250 H   0  0  0  0  0  0  0  0  0  0  0  0
   44.7330   30.1830   39.8940 H   0  0  0  0  0  0  0  0  0  0  0  0
   45.5530   33.1400   40.0950 H   0  0  0  0  0  0  0  0  0  0  0  0
   45.1390   34.8970   43.3690 C   0  0  0  0  0  0  0  0  0  0  0  0
   45.6210   33.6460   43.8140 C   0  0  0  0  0  0  0  0  0  0  0  0
   45.5880   33.3180   45.1630 C   0  0  0  0  0  0  0  0  0  0  0  0
   45.0830   34.2360   46.0170 N   0  0  0  0  0  0  0  0  0  0  0  0
   44.6120   35.4530   45.6060 C   0  0  0  0  0  0  0  0  0  0  0  0
   44.6530   35.7560   44.2870 N   0  0  0  0  0  0  0  0  0  0  0  0
   45.1520   35.1770   42.3450 H   0  0  0  0  0  0  0  0  0  0  0  0
   44.2500   36.0530   46.4060 H   0  0  0  0  0  0  0  0  0  0  0  0
   46.0940   32.0360   45.5770 C   0  0  0  0  0  0  0  0  0  0  0  0
   45.4100   30.9010   45.3060 C   0  0  0  0  0  0  0  0  0  0  0  0
   45.9210   29.6840   45.7140 C   0  0  0  0  0  0  0  0  0  0  0  0
   47.1270   29.5690   46.4030 C   0  0  0  0  0  0  0  0  0  0  0  0
   47.7950   30.7700   46.6600 C   0  0  0  0  0  0  0  0  0  0  0  0
   47.2650   31.9240   46.2470 N   0  0  0  0  0  0  0  0  0  0  0  0
   44.4710   30.8260   44.7910 H   0  0  0  0  0  0  0  0  0  0  0  0
   45.4430   28.7300   45.5410 H   0  0  0  0  0  0  0  0  0  0  0  0
   47.5740   28.6680   46.7450 H   0  0  0  0  0  0  0  0  0  0  0  0
   48.7430   30.8280   47.1870 H   0  0  0  0  0  0  0  0  0  0  0  0
   47.0420   31.6590   40.2950 C   0  0  0  0  0  0  0  0  0  0  0  0
   47.1720   30.6230   39.9920 H   0  0  0  0  0  0  0  0  0  0  0  0
   47.7300   31.8770   41.1670 H   0  0  0  0  0  0  0  0  0  0  0  0
   47.3480   30.6070   37.4180 Cl  0  0  0  0  0  0  0  0  0  0  0  0
   47.7680   32.2260   37.9350 C   0  0  0  0  0  0  0  0  0  0  0  0
   47.5920   32.6060   39.2480 C   0  0  0  0  0  0  0  0  0  0  0  0
   47.9110   33.8820   39.6840 C   0  0  0  0  0  0  0  0  0  0  0  0
   47.7630   34.1480   40.7150 H   0  0  0  0  0  0  0  0  0  0  0  0
   48.4220   34.8330   38.8240 C   0  0  0  0  0  0  0  0  0  0  0  0
   48.6510   35.8100   39.2250 H   0  0  0  0  0  0  0  0  0  0  0  0
   48.6040   34.4680   37.5050 C   0  0  0  0  0  3  0  0  0  0  0  0
   48.2820   33.1900   37.0760 C   0  0  0  0  0  3  0  0  0  0  0  0
  1 19  1  0  0  0  0
  2  1  2  0  0  0  0
  3  4  1  0  0  0  0
  3  1  1  0  0  0  0
  4 10  1  0  0  0  0
  5 12  1  0  0  0  0
  5 11  1  0  0  0  0
  5  4  1  0  0  0  0
  6  5  1  0  0  0  0
  7  6  1  0  0  0  0
  7 16  1  0  0  0  0
  7  8  1  0  0  0  0
  8 17  1  6  0  0  0
  8  3  1  0  0  0  0
  9  4  1  0  0  0  0
 13  6  1  0  0  0  0
 14  6  1  0  0  0  0
 15  7  1  0  0  0  0
 18 19  2  0  0  0  0
 18 23  1  0  0  0  0
 19 20  1  0  0  0  0
 20 26  1  0  0  0  0
 20 21  2  0  0  0  0
 22 21  1  0  0  0  0
 22 25  1  0  0  0  0
 23 22  2  0  0  0  0
 24 18  1  0  0  0  0
 26 31  1  0  0  0  0
 27 26  2  0  0  0  0
 27 28  1  0  0  0  0
 28 29  2  0  0  0  0
 29 30  1  0  0  0  0
 29 34  1  0  0  0  0
 30 35  1  0  0  0  0
 31 30  2  0  0  0  0
 32 27  1  0  0  0  0
 33 28  1  0  0  0  0
 36  8  1  0  0  0  0
 36 38  1  0  0  0  0
 37 36  1  0  0  0  0
 39 40  1  0  0  0  0
 40 41  1  0  0  0  0
 41 42  2  0  0  0  0
 41 36  1  0  0  0  0
 42 43  1  0  0  0  0
 44 45  1  0  0  0  0
 44 42  1  0  0  0  0
 46 44  2  0  0  0  0
 47 46  1  0  0  0  0
 47 40  2  0  0  0  0
M  END
>  <minimizedAffinity>
-4.6347456

>  <minimizedRMSD>
2.39802718

$$$$
