
 OpenBabel03242518183D

 23 24  0  0  0  0  0  0  0  0999 V2000
   36.6660   31.2300   41.0530 C   0  0  0  0  0  0  0  0  0  0  0  0
   36.8790   32.0000   41.8390 H   0  0  0  0  0  0  0  0  0  0  0  0
   35.6130   31.2590   40.7710 H   0  0  0  0  0  0  0  0  0  0  0  0
   34.9160   28.8630   40.2890 Cl  0  0  0  0  0  0  0  0  0  0  0  0
   36.2940   28.7520   41.3680 C   0  0  0  0  0  0  0  0  0  0  0  0
   37.0140   29.8940   41.6420 C   0  0  0  0  0  0  0  0  0  0  0  0
   38.1030   29.7530   42.5070 C   0  0  0  0  0  0  0  0  0  0  0  0
   38.6530   30.6710   42.7050 H   0  0  0  0  0  0  0  0  0  0  0  0
   38.4700   28.5640   43.0740 C   0  0  0  0  0  0  0  0  0  0  0  0
   39.3250   28.5300   43.7360 H   0  0  0  0  0  0  0  0  0  0  0  0
   37.7270   27.4310   42.7820 C   0  0  0  0  0  3  0  0  0  0  0  0
   36.6330   27.5290   41.9220 C   0  0  0  0  0  3  0  0  0  0  0  0
   39.4470   32.5410   39.0760 C   0  0  0  0  0  0  0  0  0  0  0  0
   39.2490   31.9620   37.8050 C   0  0  0  0  0  0  0  0  0  0  0  0
   38.1550   31.1270   37.6530 C   0  0  0  0  0  0  0  0  0  0  0  0
   37.3500   30.9100   38.6990 N   0  0  0  0  0  0  0  0  0  0  0  0
   37.5660   31.4770   39.8970 C   0  0  0  0  0  0  0  0  0  0  0  0
   38.6200   32.3050   40.1090 N   0  0  0  0  0  0  0  0  0  0  0  0
   40.2830   33.2070   39.2750 H   0  0  0  0  0  0  0  0  0  0  0  0
   38.0720   30.7280   36.6670 H   0  0  0  0  0  0  0  0  0  0  0  0
   40.2190   32.3190   36.8210 N   0  0  0  0  0  0  0  0  0  0  0  0
   41.1620   31.9370   36.5770 H   0  0  0  0  0  0  0  0  0  0  0  0
   39.6720   33.1070   36.4090 H   0  0  0  0  0  0  0  0  0  0  0  0
  1  6  1  0  0  0  0
  1  2  1  0  0  0  0
  3  1  1  0  0  0  0
  4  5  1  0  0  0  0
  5  6  2  0  0  0  0
  5 12  1  0  0  0  0
  6  7  1  0  0  0  0
  7  8  1  0  0  0  0
  7  9  2  0  0  0  0
  9 10  1  0  0  0  0
 11  9  1  0  0  0  0
 12 11  2  0  0  0  0
 13 19  1  0  0  0  0
 13 18  1  0  0  0  0
 14 13  2  0  0  0  0
 15 14  1  0  0  0  0
 15 16  2  0  0  0  0
 16 17  1  0  0  0  0
 17 18  2  0  0  0  0
 17  1  1  0  0  0  0
 20 15  1  0  0  0  0
 21 14  1  0  0  0  0
 22 21  1  0  0  0  0
 23 21  1  0  0  0  0
M  END
>  <minimizedAffinity>
-4.94730186

$$$$

 OpenBabel03242518183D

 23 24  0  0  0  0  0  0  0  0999 V2000
   38.7290   28.9700   42.9890 C   0  0  0  0  0  0  0  0  0  0  0  0
   39.8340   29.1210   43.1040 H   0  0  0  0  0  0  0  0  0  0  0  0
   38.2480   28.9440   43.9680 H   0  0  0  0  0  0  0  0  0  0  0  0
   36.2510   27.3480   43.6800 Cl  0  0  0  0  0  0  0  0  0  0  0  0
   37.4530   26.8460   42.5040 C   0  0  0  0  0  0  0  0  0  0  0  0
   38.5360   27.6650   42.2750 C   0  0  0  0  0  0  0  0  0  0  0  0
   39.4650   27.2200   41.3290 C   0  0  0  0  0  0  0  0  0  0  0  0
   40.3100   27.8870   41.1680 H   0  0  0  0  0  0  0  0  0  0  0  0
   39.3440   26.0410   40.6460 C   0  0  0  0  0  0  0  0  0  0  0  0
   40.1030   25.7610   39.9270 H   0  0  0  0  0  0  0  0  0  0  0  0
   38.2440   25.2370   40.8980 C   0  0  0  0  0  3  0  0  0  0  0  0
   37.2940   25.6440   41.8340 C   0  0  0  0  0  3  0  0  0  0  0  0
   38.6000   32.0240   40.9840 C   0  0  0  0  0  0  0  0  0  0  0  0
   37.2600   32.0720   40.5430 C   0  0  0  0  0  0  0  0  0  0  0  0
   36.4240   31.0450   40.9470 C   0  0  0  0  0  0  0  0  0  0  0  0
   36.9140   30.0710   41.7230 N   0  0  0  0  0  0  0  0  0  0  0  0
   38.1940   30.0550   42.1270 C   0  0  0  0  0  0  0  0  0  0  0  0
   39.0640   31.0330   41.7650 N   0  0  0  0  0  0  0  0  0  0  0  0
   39.3170   32.7930   40.7100 H   0  0  0  0  0  0  0  0  0  0  0  0
   35.4300   31.1490   40.5750 H   0  0  0  0  0  0  0  0  0  0  0  0
   36.9350   33.1920   39.7220 N   0  0  0  0  0  0  0  0  0  0  0  0
   37.0220   33.3750   38.6960 H   0  0  0  0  0  0  0  0  0  0  0  0
   36.5690   33.7920   40.4960 H   0  0  0  0  0  0  0  0  0  0  0  0
  1  2  1  0  0  0  0
  1  3  1  0  0  0  0
  5  4  1  0  0  0  0
  6  5  1  0  0  0  0
  6  1  1  0  0  0  0
  7  6  2  0  0  0  0
  8  7  1  0  0  0  0
  9 11  2  0  0  0  0
  9  7  1  0  0  0  0
 10  9  1  0  0  0  0
 11 12  1  0  0  0  0
 12  5  2  0  0  0  0
 13 18  1  0  0  0  0
 14 15  1  0  0  0  0
 14 13  2  0  0  0  0
 15 16  2  0  0  0  0
 16 17  1  0  0  0  0
 17  1  1  0  0  0  0
 18 17  2  0  0  0  0
 19 13  1  0  0  0  0
 20 15  1  0  0  0  0
 21 23  1  0  0  0  0
 21 14  1  0  0  0  0
 22 21  1  0  0  0  0
M  END
>  <minimizedAffinity>
-4.90139103

$$$$

 OpenBabel03242518183D

 23 24  0  0  0  0  0  0  0  0999 V2000
   35.7360   29.3440   40.3340 C   0  0  0  0  0  0  0  0  0  0  0  0
   35.0660   30.0240   40.9200 H   0  0  0  0  0  0  0  0  0  0  0  0
   35.1510   28.5600   39.8510 H   0  0  0  0  0  0  0  0  0  0  0  0
   36.4880   26.4220   39.9480 Cl  0  0  0  0  0  0  0  0  0  0  0  0
   37.1270   27.4350   41.2290 C   0  0  0  0  0  0  0  0  0  0  0  0
   36.7130   28.7470   41.3040 C   0  0  0  0  0  0  0  0  0  0  0  0
   37.2520   29.5130   42.3430 C   0  0  0  0  0  0  0  0  0  0  0  0
   36.9080   30.5440   42.3770 H   0  0  0  0  0  0  0  0  0  0  0  0
   38.1450   29.0260   43.2570 C   0  0  0  0  0  0  0  0  0  0  0  0
   38.5200   29.6780   44.0350 H   0  0  0  0  0  0  0  0  0  0  0  0
   38.5430   27.7020   43.1580 C   0  0  0  0  0  3  0  0  0  0  0  0
   38.0300   26.9040   42.1360 C   0  0  0  0  0  3  0  0  0  0  0  0
   37.6640   30.2420   37.3600 C   0  0  0  0  0  0  0  0  0  0  0  0
   37.8980   31.6230   37.5250 C   0  0  0  0  0  0  0  0  0  0  0  0
   37.3850   32.2220   38.6630 C   0  0  0  0  0  0  0  0  0  0  0  0
   36.7020   31.4760   39.5400 N   0  0  0  0  0  0  0  0  0  0  0  0
   36.4960   30.1630   39.3540 C   0  0  0  0  0  0  0  0  0  0  0  0
   36.9740   29.5190   38.2590 N   0  0  0  0  0  0  0  0  0  0  0  0
   38.0340   29.7000   36.4930 H   0  0  0  0  0  0  0  0  0  0  0  0
   37.6020   33.2640   38.7180 H   0  0  0  0  0  0  0  0  0  0  0  0
   38.6480   32.2370   36.4770 N   0  0  0  0  0  0  0  0  0  0  0  0
   38.3810   32.6430   35.5510 H   0  0  0  0  0  0  0  0  0  0  0  0
   39.5790   32.1510   36.9440 H   0  0  0  0  0  0  0  0  0  0  0  0
  1  2  1  0  0  0  0
  1  6  1  0  0  0  0
  3  1  1  0  0  0  0
  4  5  1  0  0  0  0
  5  6  2  0  0  0  0
  5 12  1  0  0  0  0
  6  7  1  0  0  0  0
  7  8  1  0  0  0  0
  7  9  2  0  0  0  0
  9 10  1  0  0  0  0
 11  9  1  0  0  0  0
 12 11  2  0  0  0  0
 13 14  2  0  0  0  0
 13 18  1  0  0  0  0
 14 15  1  0  0  0  0
 15 20  1  0  0  0  0
 15 16  2  0  0  0  0
 17 16  1  0  0  0  0
 17  1  1  0  0  0  0
 18 17  2  0  0  0  0
 19 13  1  0  0  0  0
 21 23  1  0  0  0  0
 21 14  1  0  0  0  0
 22 21  1  0  0  0  0
M  END
>  <minimizedAffinity>
-4.85733509

$$$$

 OpenBabel03242518183D

 23 24  0  0  0  0  0  0  0  0999 V2000
   36.7320   30.6530   41.4080 C   0  0  0  0  0  0  0  0  0  0  0  0
   36.9400   31.4380   42.1800 H   0  0  0  0  0  0  0  0  0  0  0  0
   35.6590   30.5750   41.2270 H   0  0  0  0  0  0  0  0  0  0  0  0
   39.4230   30.7300   42.8230 Cl  0  0  0  0  0  0  0  0  0  0  0  0
   38.4760   29.2700   42.6000 C   0  0  0  0  0  0  0  0  0  0  0  0
   37.2690   29.3580   41.9410 C   0  0  0  0  0  0  0  0  0  0  0  0
   36.5540   28.1660   41.7890 C   0  0  0  0  0  0  0  0  0  0  0  0
   35.6050   28.2660   41.2660 H   0  0  0  0  0  0  0  0  0  0  0  0
   36.9900   26.9570   42.2530 C   0  0  0  0  0  0  0  0  0  0  0  0
   36.3820   26.0750   42.0990 H   0  0  0  0  0  0  0  0  0  0  0  0
   38.2090   26.8980   42.9120 C   0  0  0  0  0  3  0  0  0  0  0  0
   38.9540   28.0640   43.0850 C   0  0  0  0  0  3  0  0  0  0  0  0
   38.7320   32.5640   39.0180 C   0  0  0  0  0  0  0  0  0  0  0  0
   38.8850   31.6760   37.9320 C   0  0  0  0  0  0  0  0  0  0  0  0
   38.2920   30.4300   38.0450 C   0  0  0  0  0  0  0  0  0  0  0  0
   37.6140   30.1290   39.1590 N   0  0  0  0  0  0  0  0  0  0  0  0
   37.4870   30.9970   40.1750 C   0  0  0  0  0  0  0  0  0  0  0  0
   38.0440   32.2340   40.1240 N   0  0  0  0  0  0  0  0  0  0  0  0
   39.1680   33.5600   39.0050 H   0  0  0  0  0  0  0  0  0  0  0  0
   38.4510   29.8160   37.1880 H   0  0  0  0  0  0  0  0  0  0  0  0
   39.6440   32.1870   36.8370 N   0  0  0  0  0  0  0  0  0  0  0  0
   40.6700   32.2220   36.6340 H   0  0  0  0  0  0  0  0  0  0  0  0
   38.8250   32.5250   36.2840 H   0  0  0  0  0  0  0  0  0  0  0  0
  1  6  1  0  0  0  0
  1  2  1  0  0  0  0
  3  1  1  0  0  0  0
  5  4  1  0  0  0  0
  5 12  1  0  0  0  0
  6  5  2  0  0  0  0
  7  6  1  0  0  0  0
  7  9  2  0  0  0  0
  8  7  1  0  0  0  0
  9 11  1  0  0  0  0
 10  9  1  0  0  0  0
 11 12  2  0  0  0  0
 13 18  1  0  0  0  0
 14 15  1  0  0  0  0
 14 13  2  0  0  0  0
 15 16  2  0  0  0  0
 16 17  1  0  0  0  0
 17  1  1  0  0  0  0
 18 17  2  0  0  0  0
 19 13  1  0  0  0  0
 20 15  1  0  0  0  0
 21 14  1  0  0  0  0
 22 21  1  0  0  0  0
 23 21  1  0  0  0  0
M  END
>  <minimizedAffinity>
-4.84546041

$$$$

 OpenBabel03242518183D

 23 24  0  0  0  0  0  0  0  0999 V2000
   36.9360   27.3850   43.3130 C   0  0  0  0  0  0  0  0  0  0  0  0
   37.6010   27.7240   44.1490 H   0  0  0  0  0  0  0  0  0  0  0  0
   35.9690   27.0660   43.7030 H   0  0  0  0  0  0  0  0  0  0  0  0
   39.9470   27.1600   43.6800 Cl  0  0  0  0  0  0  0  0  0  0  0  0
   38.9910   26.0370   42.7300 C   0  0  0  0  0  0  0  0  0  0  0  0
   37.6320   26.2410   42.6350 C   0  0  0  0  0  0  0  0  0  0  0  0
   36.9150   25.3180   41.8670 C   0  0  0  0  0  0  0  0  0  0  0  0
   35.8440   25.5040   41.8110 H   0  0  0  0  0  0  0  0  0  0  0  0
   37.4910   24.2570   41.2270 C   0  0  0  0  0  0  0  0  0  0  0  0
   36.8720   23.5830   40.6490 H   0  0  0  0  0  0  0  0  0  0  0  0
   38.8610   24.0770   41.3390 C   0  0  0  0  0  3  0  0  0  0  0  0
   39.6130   24.9750   42.0960 C   0  0  0  0  0  3  0  0  0  0  0  0
   37.6310   30.5080   41.5440 C   0  0  0  0  0  0  0  0  0  0  0  0
   36.6210   30.5610   40.5610 C   0  0  0  0  0  0  0  0  0  0  0  0
   35.7150   29.5150   40.5260 C   0  0  0  0  0  0  0  0  0  0  0  0
   35.8360   28.5180   41.4110 N   0  0  0  0  0  0  0  0  0  0  0  0
   36.8090   28.4970   42.3350 C   0  0  0  0  0  0  0  0  0  0  0  0
   37.7280   29.4930   42.4200 N   0  0  0  0  0  0  0  0  0  0  0  0
   38.3790   31.2910   41.6350 H   0  0  0  0  0  0  0  0  0  0  0  0
   34.9830   29.6250   39.7590 H   0  0  0  0  0  0  0  0  0  0  0  0
   36.6630   31.7080   39.7130 N   0  0  0  0  0  0  0  0  0  0  0  0
   37.1870   31.9280   38.8350 H   0  0  0  0  0  0  0  0  0  0  0  0
   35.9830   32.2770   40.2650 H   0  0  0  0  0  0  0  0  0  0  0  0
  1  3  1  0  0  0  0
  1  2  1  0  0  0  0
  5  4  1  0  0  0  0
  6  5  1  0  0  0  0
  6  1  1  0  0  0  0
  7  6  2  0  0  0  0
  8  7  1  0  0  0  0
  9 11  2  0  0  0  0
  9  7  1  0  0  0  0
 10  9  1  0  0  0  0
 11 12  1  0  0  0  0
 12  5  2  0  0  0  0
 13 19  1  0  0  0  0
 13 18  1  0  0  0  0
 14 13  2  0  0  0  0
 15 14  1  0  0  0  0
 15 16  2  0  0  0  0
 16 17  1  0  0  0  0
 17 18  2  0  0  0  0
 17  1  1  0  0  0  0
 20 15  1  0  0  0  0
 21 23  1  0  0  0  0
 21 14  1  0  0  0  0
 22 21  1  0  0  0  0
M  END
>  <minimizedAffinity>
-4.72476196

$$$$

 OpenBabel03242518183D

 23 24  0  0  0  0  0  0  0  0999 V2000
   36.2000   30.7590   41.0600 C   0  0  0  0  0  0  0  0  0  0  0  0
   35.1250   30.4430   41.0940 H   0  0  0  0  0  0  0  0  0  0  0  0
   36.3190   31.7460   41.5080 H   0  0  0  0  0  0  0  0  0  0  0  0
   37.7920   33.1640   40.0960 Cl  0  0  0  0  0  0  0  0  0  0  0  0
   37.3260   31.8230   39.0660 C   0  0  0  0  0  0  0  0  0  0  0  0
   36.6040   30.7870   39.6150 C   0  0  0  0  0  0  0  0  0  0  0  0
   36.2570   29.7420   38.7520 C   0  0  0  0  0  0  0  0  0  0  0  0
   35.6880   28.9380   39.2130 H   0  0  0  0  0  0  0  0  0  0  0  0
   36.5960   29.7110   37.4280 C   0  0  0  0  0  0  0  0  0  0  0  0
   36.2930   28.8680   36.8200 H   0  0  0  0  0  0  0  0  0  0  0  0
   37.3230   30.7680   36.9020 C   0  0  0  0  0  3  0  0  0  0  0  0
   37.6890   31.8290   37.7290 C   0  0  0  0  0  3  0  0  0  0  0  0
   39.0470   29.1390   42.6820 C   0  0  0  0  0  0  0  0  0  0  0  0
   38.5510   27.8620   43.0200 C   0  0  0  0  0  0  0  0  0  0  0  0
   37.2380   27.5830   42.6800 C   0  0  0  0  0  0  0  0  0  0  0  0
   36.5120   28.5190   42.0580 N   0  0  0  0  0  0  0  0  0  0  0  0
   37.0140   29.7250   41.7500 C   0  0  0  0  0  0  0  0  0  0  0  0
   38.2940   30.0600   42.0570 N   0  0  0  0  0  0  0  0  0  0  0  0
   40.0670   29.4340   42.9150 H   0  0  0  0  0  0  0  0  0  0  0  0
   36.9350   26.6010   42.9660 H   0  0  0  0  0  0  0  0  0  0  0  0
   39.4840   27.0070   43.6790 N   0  0  0  0  0  0  0  0  0  0  0  0
   39.7630   26.8930   44.6810 H   0  0  0  0  0  0  0  0  0  0  0  0
   39.8100   26.5150   42.8180 H   0  0  0  0  0  0  0  0  0  0  0  0
  1  2  1  0  0  0  0
  1  3  1  0  0  0  0
  1 17  1  0  0  0  0
  5  6  1  0  0  0  0
  5  4  1  0  0  0  0
  6  1  1  0  0  0  0
  7  8  1  0  0  0  0
  7  6  2  0  0  0  0
  9  7  1  0  0  0  0
 10  9  1  0  0  0  0
 11  9  2  0  0  0  0
 11 12  1  0  0  0  0
 12  5  2  0  0  0  0
 13 19  1  0  0  0  0
 13 14  1  0  0  0  0
 14 21  1  0  0  0  0
 15 20  1  0  0  0  0
 15 14  2  0  0  0  0
 16 15  1  0  0  0  0
 17 18  1  0  0  0  0
 17 16  2  0  0  0  0
 18 13  2  0  0  0  0
 21 22  1  0  0  0  0
 23 21  1  0  0  0  0
M  END
>  <minimizedAffinity>
-4.6951642

$$$$

 OpenBabel03242518183D

 23 24  0  0  0  0  0  0  0  0999 V2000
   35.2630   29.3530   40.2790 C   0  0  0  0  0  0  0  0  0  0  0  0
   34.6480   29.7350   41.1350 H   0  0  0  0  0  0  0  0  0  0  0  0
   34.6170   29.0480   39.4550 H   0  0  0  0  0  0  0  0  0  0  0  0
   35.9580   27.1570   38.2930 Cl  0  0  0  0  0  0  0  0  0  0  0  0
   36.4200   27.1270   39.9850 C   0  0  0  0  0  0  0  0  0  0  0  0
   36.0480   28.1800   40.7910 C   0  0  0  0  0  0  0  0  0  0  0  0
   36.4400   28.1090   42.1320 C   0  0  0  0  0  0  0  0  0  0  0  0
   36.1330   28.9540   42.7440 H   0  0  0  0  0  0  0  0  0  0  0  0
   37.1550   27.0680   42.6560 C   0  0  0  0  0  0  0  0  0  0  0  0
   37.4240   27.0810   43.7040 H   0  0  0  0  0  0  0  0  0  0  0  0
   37.5150   26.0220   41.8220 C   0  0  0  0  0  3  0  0  0  0  0  0
   37.1440   26.0550   40.4780 C   0  0  0  0  0  3  0  0  0  0  0  0
   37.5020   32.2330   40.5150 C   0  0  0  0  0  0  0  0  0  0  0  0
   37.9850   32.3830   39.1980 C   0  0  0  0  0  0  0  0  0  0  0  0
   37.5270   31.4840   38.2490 C   0  0  0  0  0  0  0  0  0  0  0  0
   36.6630   30.5310   38.6180 N   0  0  0  0  0  0  0  0  0  0  0  0
   36.2220   30.4150   39.8800 C   0  0  0  0  0  0  0  0  0  0  0  0
   36.6330   31.2660   40.8550 N   0  0  0  0  0  0  0  0  0  0  0  0
   37.8130   32.8990   41.3160 H   0  0  0  0  0  0  0  0  0  0  0  0
   37.9350   31.6600   37.2800 H   0  0  0  0  0  0  0  0  0  0  0  0
   38.8990   33.4620   39.0100 N   0  0  0  0  0  0  0  0  0  0  0  0
   39.9340   33.5520   39.1370 H   0  0  0  0  0  0  0  0  0  0  0  0
   38.1860   34.1570   38.6930 H   0  0  0  0  0  0  0  0  0  0  0  0
  1  6  1  0  0  0  0
  1  2  1  0  0  0  0
  3  1  1  0  0  0  0
  4  5  1  0  0  0  0
  5 12  2  0  0  0  0
  5  6  1  0  0  0  0
  6  7  2  0  0  0  0
  7  9  1  0  0  0  0
  7  8  1  0  0  0  0
  9 10  1  0  0  0  0
 11  9  2  0  0  0  0
 12 11  1  0  0  0  0
 13 18  1  0  0  0  0
 13 19  1  0  0  0  0
 14 13  2  0  0  0  0
 15 16  2  0  0  0  0
 15 14  1  0  0  0  0
 16 17  1  0  0  0  0
 17  1  1  0  0  0  0
 17 18  2  0  0  0  0
 20 15  1  0  0  0  0
 21 22  1  0  0  0  0
 21 14  1  0  0  0  0
 23 21  1  0  0  0  0
M  END
>  <minimizedAffinity>
-4.67438841

$$$$

 OpenBabel03242518183D

 23 24  0  0  0  0  0  0  0  0999 V2000
   38.0290   28.6460   43.2880 C   0  0  0  0  0  0  0  0  0  0  0  0
   39.0100   28.9560   43.7330 H   0  0  0  0  0  0  0  0  0  0  0  0
   37.2200   28.8170   43.9990 H   0  0  0  0  0  0  0  0  0  0  0  0
   40.7380   27.3190   43.6790 Cl  0  0  0  0  0  0  0  0  0  0  0  0
   39.3120   26.4790   43.0970 C   0  0  0  0  0  0  0  0  0  0  0  0
   38.1380   27.1860   42.9590 C   0  0  0  0  0  0  0  0  0  0  0  0
   37.0300   26.4710   42.4920 C   0  0  0  0  0  0  0  0  0  0  0  0
   36.1170   27.0540   42.3940 H   0  0  0  0  0  0  0  0  0  0  0  0
   37.0670   25.1410   42.1770 C   0  0  0  0  0  0  0  0  0  0  0  0
   36.1690   24.6520   41.8200 H   0  0  0  0  0  0  0  0  0  0  0  0
   38.2620   24.4550   42.3240 C   0  0  0  0  0  3  0  0  0  0  0  0
   39.3900   25.1310   42.7880 C   0  0  0  0  0  3  0  0  0  0  0  0
   36.4360   30.6940   40.7130 C   0  0  0  0  0  0  0  0  0  0  0  0
   37.4210   30.7830   39.7060 C   0  0  0  0  0  0  0  0  0  0  0  0
   38.6210   30.1320   39.9360 C   0  0  0  0  0  0  0  0  0  0  0  0
   38.7900   29.4600   41.0810 N   0  0  0  0  0  0  0  0  0  0  0  0
   37.8320   29.3940   42.0190 C   0  0  0  0  0  0  0  0  0  0  0  0
   36.6340   30.0100   41.8530 N   0  0  0  0  0  0  0  0  0  0  0  0
   35.4670   31.1770   40.6060 H   0  0  0  0  0  0  0  0  0  0  0  0
   39.3140   30.2440   39.1340 H   0  0  0  0  0  0  0  0  0  0  0  0
   37.0460   31.5450   38.5610 N   0  0  0  0  0  0  0  0  0  0  0  0
   37.0800   32.5680   38.3410 H   0  0  0  0  0  0  0  0  0  0  0  0
   36.7170   30.7340   37.9910 H   0  0  0  0  0  0  0  0  0  0  0  0
  1  2  1  0  0  0  0
  1  3  1  0  0  0  0
  5  4  1  0  0  0  0
  6  5  1  0  0  0  0
  6  1  1  0  0  0  0
  7  6  2  0  0  0  0
  8  7  1  0  0  0  0
  9 11  2  0  0  0  0
  9  7  1  0  0  0  0
 10  9  1  0  0  0  0
 11 12  1  0  0  0  0
 12  5  2  0  0  0  0
 13 18  1  0  0  0  0
 14 15  1  0  0  0  0
 14 13  2  0  0  0  0
 15 16  2  0  0  0  0
 16 17  1  0  0  0  0
 17  1  1  0  0  0  0
 18 17  2  0  0  0  0
 19 13  1  0  0  0  0
 20 15  1  0  0  0  0
 21 14  1  0  0  0  0
 22 21  1  0  0  0  0
 23 21  1  0  0  0  0
M  END
>  <minimizedAffinity>
-4.61583519

$$$$

 OpenBabel03242518183D

 23 24  0  0  0  0  0  0  0  0999 V2000
   35.2780   29.1790   40.2210 C   0  0  0  0  0  0  0  0  0  0  0  0
   34.9830   30.2580   40.2760 H   0  0  0  0  0  0  0  0  0  0  0  0
   34.4120   28.5400   40.3980 H   0  0  0  0  0  0  0  0  0  0  0  0
   37.1440   31.4930   40.8650 Cl  0  0  0  0  0  0  0  0  0  0  0  0
   37.2180   29.9280   41.6540 C   0  0  0  0  0  0  0  0  0  0  0  0
   36.3190   28.9540   41.2780 C   0  0  0  0  0  0  0  0  0  0  0  0
   36.4200   27.7250   41.9370 C   0  0  0  0  0  0  0  0  0  0  0  0
   35.6980   26.9750   41.6200 H   0  0  0  0  0  0  0  0  0  0  0  0
   37.3460   27.4600   42.9080 C   0  0  0  0  0  0  0  0  0  0  0  0
   37.3650   26.4840   43.3740 H   0  0  0  0  0  0  0  0  0  0  0  0
   38.2390   28.4590   43.2650 C   0  0  0  0  0  3  0  0  0  0  0  0
   38.1710   29.7000   42.6320 C   0  0  0  0  0  3  0  0  0  0  0  0
   36.6600   29.8070   36.8950 C   0  0  0  0  0  0  0  0  0  0  0  0
   37.0430   28.5240   36.4500 C   0  0  0  0  0  0  0  0  0  0  0  0
   36.8160   27.4620   37.3090 C   0  0  0  0  0  0  0  0  0  0  0  0
   36.2550   27.6960   38.5010 N   0  0  0  0  0  0  0  0  0  0  0  0
   35.9010   28.9290   38.8950 C   0  0  0  0  0  0  0  0  0  0  0  0
   36.0970   30.0110   38.0980 N   0  0  0  0  0  0  0  0  0  0  0  0
   36.8050   30.6900   36.2790 H   0  0  0  0  0  0  0  0  0  0  0  0
   37.1310   26.5260   36.9050 H   0  0  0  0  0  0  0  0  0  0  0  0
   37.6250   28.4860   35.1480 N   0  0  0  0  0  0  0  0  0  0  0  0
   38.6000   28.6290   34.7970 H   0  0  0  0  0  0  0  0  0  0  0  0
   36.7400   28.2610   34.6390 H   0  0  0  0  0  0  0  0  0  0  0  0
  1  2  1  0  0  0  0
  1  3  1  0  0  0  0
  1  6  1  0  0  0  0
  4  5  1  0  0  0  0
  5 12  1  0  0  0  0
  6  5  2  0  0  0  0
  6  7  1  0  0  0  0
  7  9  2  0  0  0  0
  8  7  1  0  0  0  0
  9 11  1  0  0  0  0
  9 10  1  0  0  0  0
 12 11  2  0  0  0  0
 13 18  1  0  0  0  0
 14 13  2  0  0  0  0
 14 15  1  0  0  0  0
 15 16  2  0  0  0  0
 16 17  1  0  0  0  0
 17  1  1  0  0  0  0
 18 17  2  0  0  0  0
 19 13  1  0  0  0  0
 20 15  1  0  0  0  0
 21 14  1  0  0  0  0
 22 21  1  0  0  0  0
 23 21  1  0  0  0  0
M  END
>  <minimizedAffinity>
-4.60604334

$$$$
