
 OpenBabel03252502413D

 24 25  0  0  0  0  0  0  0  0999 V2000
   46.3910   35.0570   41.8040 C   0  0  0  0  0  0  0  0  0  0  0  0
   46.0280   34.1570   41.2510 H   0  0  0  0  0  0  0  0  0  0  0  0
   46.0260   35.9990   41.4010 H   0  0  0  0  0  0  0  0  0  0  0  0
   44.5460   35.6290   45.0300 C   0  0  0  0  0  0  0  0  0  0  0  0
   44.9940   35.7910   43.7100 C   0  0  0  0  0  0  0  0  0  0  0  0
   45.9220   34.8840   43.1990 C   0  0  0  0  0  0  0  0  0  0  0  0
   46.3430   33.8870   44.0140 N   0  0  0  0  0  0  0  0  0  0  0  0
   45.8970   33.7500   45.2870 C   0  0  0  0  0  0  0  0  0  0  0  0
   45.0110   34.6090   45.7880 N   0  0  0  0  0  0  0  0  0  0  0  0
   43.8340   36.3990   45.2950 H   0  0  0  0  0  0  0  0  0  0  0  0
   44.6540   36.5920   43.0510 H   0  0  0  0  0  0  0  0  0  0  0  0
   46.2770   32.9280   45.8870 H   0  0  0  0  0  0  0  0  0  0  0  0
   47.8990   34.9610   41.7820 C   0  0  0  0  0  0  0  0  0  0  0  0
   48.3390   35.9750   41.7020 H   0  0  0  0  0  0  0  0  0  0  0  0
   48.2990   34.4400   42.6660 H   0  0  0  0  0  0  0  0  0  0  0  0
   49.2750   32.4680   42.6240 Cl  0  0  0  0  0  0  0  0  0  0  0  0
   48.9170   32.9610   40.9670 C   0  0  0  0  0  0  0  0  0  0  0  0
   48.2660   34.1390   40.5990 C   0  0  0  0  0  0  0  0  0  0  0  0
   48.0490   34.3970   39.2600 C   0  0  0  0  0  0  0  0  0  0  0  0
   47.5390   35.3340   39.0870 H   0  0  0  0  0  0  0  0  0  0  0  0
   48.4770   33.4910   38.3130 C   0  0  0  0  0  0  0  0  0  0  0  0
   48.2800   33.7510   37.2800 H   0  0  0  0  0  0  0  0  0  0  0  0
   49.1230   32.3240   38.6910 C   0  0  0  0  0  3  0  0  0  0  0  0
   49.3480   32.0500   40.0260 C   0  0  0  0  0  3  0  0  0  0  0  0
  1  6  1  0  0  0  0
  2  1  1  0  0  0  0
  3  1  1  0  0  0  0
  4 10  1  0  0  0  0
  4  9  1  0  0  0  0
  5  4  2  0  0  0  0
  6  5  1  0  0  0  0
  6  7  2  0  0  0  0
  7  8  1  0  0  0  0
  8  9  2  0  0  0  0
  8 12  1  0  0  0  0
 11  5  1  0  0  0  0
 13  1  1  0  0  0  0
 13 15  1  0  0  0  0
 14 13  1  0  0  0  0
 17 16  1  0  0  0  0
 18 17  1  0  0  0  0
 18 13  1  0  0  0  0
 19 18  2  0  0  0  0
 20 19  1  0  0  0  0
 21 23  2  0  0  0  0
 21 19  1  0  0  0  0
 22 21  1  0  0  0  0
 23 24  1  0  0  0  0
 24 17  2  0  0  0  0
M  END
>  <minimizedAffinity>
-4.4353652

>  <minimizedRMSD>
2.39099455

$$$$
