
 OpenBabel03242518073D

 35 37  0  0  1  0  0  0  0  0999 V2000
   45.5520   33.8710   41.4810 N   0  0  0  0  0  0  0  0  0  0  0  0
   46.2790   32.9460   40.6510 C   0  0  0  0  0  0  0  0  0  0  0  0
   47.4770   33.5960   40.0880 C   0  0  0  0  0  0  0  0  0  0  0  0
   47.9710   34.8350   40.7320 C   0  0  0  0  0  0  0  0  0  0  0  0
   47.5600   35.0700   42.1290 C   0  0  0  0  0  0  0  0  0  0  0  0
   46.1940   34.5800   42.5270 C   0  0  2  0  0  0  0  0  0  0  0  0
   46.4910   31.9760   41.1430 H   0  0  0  0  0  0  0  0  0  0  0  0
   45.6390   32.6400   39.7660 H   0  0  0  0  0  0  0  0  0  0  0  0
   47.3960   33.7970   39.0000 H   0  0  0  0  0  0  0  0  0  0  0  0
   48.3180   32.8430   40.1490 H   0  0  0  0  0  0  0  0  0  0  0  0
   49.0790   34.8960   40.6850 H   0  0  0  0  0  0  0  0  0  0  0  0
   47.6380   35.7330   40.1310 H   0  0  0  0  0  0  0  0  0  0  0  0
   47.7520   36.1260   42.4030 H   0  0  0  0  0  0  0  0  0  0  0  0
   48.2760   34.4910   42.7850 H   0  0  0  0  0  0  0  0  0  0  0  0
   45.6030   35.5480   42.6430 H   0  0  0  0  0  0  0  0  0  0  0  0
   43.2170   33.2110   41.7860 C   0  0  0  0  0  0  0  0  0  0  0  0
   44.1620   34.0740   41.2200 C   0  0  0  0  0  0  0  0  0  0  0  0
   43.6880   35.1360   40.4010 C   0  0  0  0  0  0  0  0  0  0  0  0
   42.3580   35.2410   40.2230 N   0  0  0  0  0  0  0  0  0  0  0  0
   41.4770   34.3910   40.7840 C   0  0  0  0  0  0  0  0  0  0  0  0
   41.9040   33.3700   41.5700 N   0  0  0  0  0  0  0  0  0  0  0  0
   43.6770   32.1600   42.6010 N   0  0  0  0  0  0  0  0  0  0  0  0
   44.4160   35.8040   39.9630 H   0  0  0  0  0  0  0  0  0  0  0  0
   40.4430   34.6020   40.5500 H   0  0  0  0  0  0  0  0  0  0  0  0
   44.1070   31.5070   41.8870 H   0  0  0  0  0  0  0  0  0  0  0  0
   43.6210   32.0300   43.6400 H   0  0  0  0  0  0  0  0  0  0  0  0
   44.3140   35.8410   44.5100 Cl  0  0  0  0  0  0  0  0  0  0  0  0
   45.3630   34.4710   44.9080 C   0  0  0  0  0  0  0  0  0  0  0  0
   46.1790   33.9820   43.8730 C   0  0  0  0  0  0  0  0  0  0  0  0
   46.9460   32.9190   44.3050 C   0  0  0  0  0  0  0  0  0  0  0  0
   47.6180   32.4560   43.6040 H   0  0  0  0  0  0  0  0  0  0  0  0
   46.9520   32.3700   45.5670 C   0  0  0  0  0  0  0  0  0  0  0  0
   47.5890   31.5330   45.8190 H   0  0  0  0  0  0  0  0  0  0  0  0
   46.1150   32.9220   46.5120 C   0  0  0  0  0  0  0  0  0  0  0  0
   45.3010   33.9880   46.1960 C   0  0  0  0  0  0  0  0  0  0  0  0
  1  6  1  0  0  0  0
  2  7  1  0  0  0  0
  2  1  1  0  0  0  0
  3 10  1  0  0  0  0
  3  2  1  0  0  0  0
  3  4  1  0  0  0  0
  4  5  1  0  0  0  0
  5 13  1  0  0  0  0
  5  6  1  0  0  0  0
  5 14  1  0  0  0  0
  6 15  1  1  0  0  0
  6 29  1  0  0  0  0
  8  2  1  0  0  0  0
  9  3  1  0  0  0  0
 11  4  1  0  0  0  0
 12  4  1  0  0  0  0
 16 22  1  0  0  0  0
 17  1  1  0  0  0  0
 17 16  2  0  0  0  0
 18 17  1  0  0  0  0
 19 18  2  0  0  0  0
 19 20  1  0  0  0  0
 20 21  2  0  0  0  0
 21 16  1  0  0  0  0
 22 26  1  0  0  0  0
 23 18  1  0  0  0  0
 24 20  1  0  0  0  0
 25 22  1  0  0  0  0
 27 28  1  0  0  0  0
 28 35  1  0  0  0  0
 29 30  1  0  0  0  0
 29 28  2  0  0  0  0
 30 32  2  0  0  0  0
 31 30  1  0  0  0  0
 32 33  1  0  0  0  0
 32 34  1  0  0  0  0
 35 34  2  0  0  0  0
M  END
>  <minimizedAffinity>
-5.63082743

>  <minimizedRMSD>
5.20364332

$$$$
