
 OpenBabel03242517353D

 23 24  0  0  0  0  0  0  0  0999 V2000
   42.5580   35.1760   39.3970 C   0  0  0  0  0  0  0  0  0  0  0  0
   43.2170   34.9050   38.5490 H   0  0  0  0  0  0  0  0  0  0  0  0
   42.4820   36.2810   39.3980 H   0  0  0  0  0  0  0  0  0  0  0  0
   40.2060   36.5570   40.7910 Cl  0  0  0  0  0  0  0  0  0  0  0  0
   40.0850   35.1440   39.7380 C   0  0  0  0  0  0  0  0  0  0  0  0
   41.2140   34.5960   39.1570 C   0  0  0  0  0  0  0  0  0  0  0  0
   41.0740   33.4960   38.3460 C   0  0  0  0  0  0  0  0  0  0  0  0
   41.9440   33.0650   37.8910 H   0  0  0  0  0  0  0  0  0  0  0  0
   39.8490   32.9100   38.0850 C   0  0  0  0  0  0  0  0  0  0  0  0
   39.6970   32.0380   37.4500 H   0  0  0  0  0  0  0  0  0  0  0  0
   38.7580   33.5190   38.7070 C   0  0  0  0  0  0  0  0  0  0  0  0
   38.8440   34.6210   39.5290 C   0  0  0  0  0  0  0  0  0  0  0  0
   43.6280   35.4700   41.6000 C   0  0  0  0  0  0  0  0  0  0  0  0
   43.1540   34.6600   40.6650 C   0  0  0  0  0  0  0  0  0  0  0  0
   44.2590   35.8470   43.9930 C   0  0  0  0  0  0  0  0  0  0  0  0
   44.2220   35.0490   42.8530 C   0  0  0  0  0  0  0  0  0  0  0  0
   44.7950   33.7740   42.9440 C   0  0  0  0  0  0  0  0  0  0  0  0
   45.3550   33.3790   44.1300 N   0  0  0  0  0  0  0  0  0  0  0  0
   45.3670   34.1870   45.2050 C   0  0  0  0  0  0  0  0  0  0  0  0
   44.8190   35.4140   45.1290 N   0  0  0  0  0  0  0  0  0  0  0  0
   43.8150   36.8510   43.9450 H   0  0  0  0  0  0  0  0  0  0  0  0
   44.8000   33.0930   42.0830 H   0  0  0  0  0  0  0  0  0  0  0  0
   45.8170   33.8540   46.1290 H   0  0  0  0  0  0  0  0  0  0  0  0
  1  3  1  0  0  0  0
  1 14  1  0  0  0  0
  2  1  1  0  0  0  0
  5  4  1  0  0  0  0
  6  1  1  0  0  0  0
  6  5  2  0  0  0  0
  7  6  1  0  0  0  0
  8  7  1  0  0  0  0
  9  7  2  0  0  0  0
  9 11  1  0  0  0  0
 10  9  1  0  0  0  0
 11 12  2  0  0  0  0
 12  5  1  0  0  0  0
 13 16  1  0  0  0  0
 14 13  2  0  0  0  0
 15 20  1  0  0  0  0
 16 17  1  0  0  0  0
 16 15  2  0  0  0  0
 17 18  2  0  0  0  0
 18 19  1  0  0  0  0
 19 23  1  0  0  0  0
 20 19  2  0  0  0  0
 21 15  1  0  0  0  0
 22 17  1  0  0  0  0
M  END
>  <minimizedAffinity>
-5.33652115

>  <minimizedRMSD>
2.46005058

$$$$
