
 OpenBabel03252503003D

 22 23  0  0  0  0  0  0  0  0999 V2000
   38.4100   29.3500   43.1310 C   0  0  0  0  0  0  0  0  0  0  0  0
   37.3930   29.4730   42.6500 H   0  0  0  0  0  0  0  0  0  0  0  0
   38.2310   29.6950   44.1920 H   0  0  0  0  0  0  0  0  0  0  0  0
   36.3570   27.8940   41.6210 Cl  0  0  0  0  0  0  0  0  0  0  0  0
   37.7730   27.2140   42.3890 C   0  0  0  0  0  0  0  0  0  0  0  0
   38.7430   27.9270   43.1100 C   0  0  0  0  0  0  0  0  0  0  0  0
   39.7830   27.1840   43.6340 C   0  0  0  0  0  0  0  0  0  0  0  0
   40.4720   27.8400   44.1690 H   0  0  0  0  0  0  0  0  0  0  0  0
   39.8710   25.8300   43.4660 C   0  0  0  0  0  0  0  0  0  0  0  0
   40.7210   25.3430   43.9130 H   0  0  0  0  0  0  0  0  0  0  0  0
   38.9270   25.1150   42.7610 C   0  0  0  0  0  3  0  0  0  0  0  0
   37.8770   25.8430   42.2290 C   0  0  0  0  0  3  0  0  0  0  0  0
   39.5450   30.4540   42.3290 S   0  0  0  0  0  0  0  0  0  0  0  0
   39.0460   32.8230   41.0210 C   0  0  0  0  0  0  0  0  0  0  0  0
   38.6290   31.5180   41.1820 C   0  0  0  0  0  0  0  0  0  0  0  0
   37.5480   31.0230   40.4860 C   0  0  0  0  0  0  0  0  0  0  0  0
   36.9180   31.8830   39.6400 N   0  0  0  0  0  0  0  0  0  0  0  0
   37.3280   33.1410   39.4920 C   0  0  0  0  0  0  0  0  0  0  0  0
   38.3630   33.6310   40.1510 N   0  0  0  0  0  0  0  0  0  0  0  0
   39.9040   33.2460   41.5610 H   0  0  0  0  0  0  0  0  0  0  0  0
   37.1880   30.0130   40.5720 H   0  0  0  0  0  0  0  0  0  0  0  0
   36.8050   33.8080   38.8080 H   0  0  0  0  0  0  0  0  0  0  0  0
  1  3  1  0  0  0  0
  2  1  1  0  0  0  0
  4  5  1  0  0  0  0
  5  6  1  0  0  0  0
  6  1  1  0  0  0  0
  6  7  2  0  0  0  0
  7  8  1  0  0  0  0
  9  7  1  0  0  0  0
  9 10  1  0  0  0  0
 11  9  2  0  0  0  0
 12  5  2  0  0  0  0
 12 11  1  0  0  0  0
 13  1  1  0  0  0  0
 14 15  1  0  0  0  0
 14 20  1  0  0  0  0
 15 13  1  0  0  0  0
 16 21  1  0  0  0  0
 16 15  2  0  0  0  0
 17 16  1  0  0  0  0
 18 17  2  0  0  0  0
 18 19  1  0  0  0  0
 19 14  2  0  0  0  0
 22 18  1  0  0  0  0
M  END
>  <minimizedAffinity>
-4.3997879

$$$$

 OpenBabel03252503003D

 22 23  0  0  0  0  0  0  0  0999 V2000
   37.0990   27.8580   42.7400 C   0  0  0  0  0  0  0  0  0  0  0  0
   36.3200   27.8050   43.5590 H   0  0  0  0  0  0  0  0  0  0  0  0
   37.9100   28.4950   43.2040 H   0  0  0  0  0  0  0  0  0  0  0  0
   39.9490   27.7270   43.4300 Cl  0  0  0  0  0  0  0  0  0  0  0  0
   38.9520   26.4190   42.8320 C   0  0  0  0  0  0  0  0  0  0  0  0
   37.5910   26.5030   42.5040 C   0  0  0  0  0  0  0  0  0  0  0  0
   37.0000   25.3410   42.0480 C   0  0  0  0  0  0  0  0  0  0  0  0
   35.9470   25.5240   41.8280 H   0  0  0  0  0  0  0  0  0  0  0  0
   37.6940   24.1690   41.9190 C   0  0  0  0  0  0  0  0  0  0  0  0
   37.1420   23.3200   41.5560 H   0  0  0  0  0  0  0  0  0  0  0  0
   39.0310   24.0710   42.2360 C   0  0  0  0  0  3  0  0  0  0  0  0
   39.6410   25.2260   42.6940 C   0  0  0  0  0  3  0  0  0  0  0  0
   36.3940   28.7120   41.3520 S   0  0  0  0  0  0  0  0  0  0  0  0
   36.6390   31.2880   40.4170 C   0  0  0  0  0  0  0  0  0  0  0  0
   37.2760   30.2770   41.1070 C   0  0  0  0  0  0  0  0  0  0  0  0
   38.5480   30.4450   41.6070 C   0  0  0  0  0  0  0  0  0  0  0  0
   39.1390   31.6510   41.3870 N   0  0  0  0  0  0  0  0  0  0  0  0
   38.5170   32.6210   40.7200 C   0  0  0  0  0  0  0  0  0  0  0  0
   37.2970   32.4760   40.2330 N   0  0  0  0  0  0  0  0  0  0  0  0
   35.6260   31.1840   40.0070 H   0  0  0  0  0  0  0  0  0  0  0  0
   39.0830   29.6910   42.1560 H   0  0  0  0  0  0  0  0  0  0  0  0
   39.0140   33.5760   40.5580 H   0  0  0  0  0  0  0  0  0  0  0  0
  1  3  1  0  0  0  0
  1  2  1  0  0  0  0
  5  4  1  0  0  0  0
  6  1  1  0  0  0  0
  6  5  2  0  0  0  0
  7  6  1  0  0  0  0
  8  7  1  0  0  0  0
  9  7  2  0  0  0  0
  9 11  1  0  0  0  0
 10  9  1  0  0  0  0
 11 12  2  0  0  0  0
 12  5  1  0  0  0  0
 13  1  1  0  0  0  0
 14 15  1  0  0  0  0
 15 13  1  0  0  0  0
 15 16  2  0  0  0  0
 16 21  1  0  0  0  0
 17 16  1  0  0  0  0
 18 17  2  0  0  0  0
 19 14  2  0  0  0  0
 19 18  1  0  0  0  0
 20 14  1  0  0  0  0
 22 18  1  0  0  0  0
M  END
>  <minimizedAffinity>
-4.39783049

$$$$

 OpenBabel03252503003D

 22 23  0  0  0  0  0  0  0  0999 V2000
   37.1930   30.9950   40.6230 C   0  0  0  0  0  0  0  0  0  0  0  0
   36.0820   30.9890   40.4060 H   0  0  0  0  0  0  0  0  0  0  0  0
   37.3520   32.0100   41.0950 H   0  0  0  0  0  0  0  0  0  0  0  0
   35.0920   28.9530   40.4410 Cl  0  0  0  0  0  0  0  0  0  0  0  0
   36.4690   28.9480   41.5200 C   0  0  0  0  0  0  0  0  0  0  0  0
   37.4620   29.9370   41.5940 C   0  0  0  0  0  0  0  0  0  0  0  0
   38.4610   29.7290   42.5240 C   0  0  0  0  0  0  0  0  0  0  0  0
   39.1740   30.5550   42.4910 H   0  0  0  0  0  0  0  0  0  0  0  0
   38.4910   28.6260   43.3330 C   0  0  0  0  0  0  0  0  0  0  0  0
   39.3130   28.5560   44.0240 H   0  0  0  0  0  0  0  0  0  0  0  0
   37.5230   27.6470   43.2720 C   0  0  0  0  0  3  0  0  0  0  0  0
   36.5120   27.8390   42.3460 C   0  0  0  0  0  3  0  0  0  0  0  0
   38.0660   30.9120   39.0800 S   0  0  0  0  0  0  0  0  0  0  0  0
   39.3380   33.1480   40.0540 C   0  0  0  0  0  0  0  0  0  0  0  0
   39.3290   32.2120   39.0410 C   0  0  0  0  0  0  0  0  0  0  0  0
   40.2570   32.2520   38.0250 C   0  0  0  0  0  0  0  0  0  0  0  0
   41.1760   33.2550   38.0710 N   0  0  0  0  0  0  0  0  0  0  0  0
   41.1760   34.1540   39.0530 C   0  0  0  0  0  0  0  0  0  0  0  0
   40.2930   34.1310   40.0360 N   0  0  0  0  0  0  0  0  0  0  0  0
   38.6120   33.1430   40.8780 H   0  0  0  0  0  0  0  0  0  0  0  0
   40.2960   31.5420   37.2170 H   0  0  0  0  0  0  0  0  0  0  0  0
   41.9220   34.9470   39.0650 H   0  0  0  0  0  0  0  0  0  0  0  0
  1  3  1  0  0  0  0
  1  6  1  0  0  0  0
  2  1  1  0  0  0  0
  4  5  1  0  0  0  0
  5  6  2  0  0  0  0
  5 12  1  0  0  0  0
  6  7  1  0  0  0  0
  7  9  2  0  0  0  0
  8  7  1  0  0  0  0
  9 10  1  0  0  0  0
 11  9  1  0  0  0  0
 12 11  2  0  0  0  0
 13  1  1  0  0  0  0
 14 20  1  0  0  0  0
 15 13  1  0  0  0  0
 15 14  2  0  0  0  0
 16 17  2  0  0  0  0
 16 15  1  0  0  0  0
 17 18  1  0  0  0  0
 18 22  1  0  0  0  0
 18 19  2  0  0  0  0
 19 14  1  0  0  0  0
 21 16  1  0  0  0  0
M  END
>  <minimizedAffinity>
-4.32698631

$$$$

 OpenBabel03252503003D

 22 23  0  0  0  0  0  0  0  0999 V2000
   36.9060   28.6960   40.9010 C   0  0  0  0  0  0  0  0  0  0  0  0
   36.1680   29.0920   40.1390 H   0  0  0  0  0  0  0  0  0  0  0  0
   36.4800   29.0670   41.8800 H   0  0  0  0  0  0  0  0  0  0  0  0
   37.2940   27.6140   43.6020 Cl  0  0  0  0  0  0  0  0  0  0  0  0
   37.0390   26.7000   42.1320 C   0  0  0  0  0  0  0  0  0  0  0  0
   36.8580   27.2370   40.8480 C   0  0  0  0  0  0  0  0  0  0  0  0
   36.6730   26.3260   39.8270 C   0  0  0  0  0  0  0  0  0  0  0  0
   36.5420   26.8540   38.8810 H   0  0  0  0  0  0  0  0  0  0  0  0
   36.6640   24.9750   40.0430 C   0  0  0  0  0  0  0  0  0  0  0  0
   36.5110   24.3500   39.1810 H   0  0  0  0  0  0  0  0  0  0  0  0
   36.8410   24.4330   41.2980 C   0  0  0  0  0  3  0  0  0  0  0  0
   37.0290   25.3310   42.3350 C   0  0  0  0  0  3  0  0  0  0  0  0
   38.4800   29.4620   40.6080 S   0  0  0  0  0  0  0  0  0  0  0  0
   39.0770   32.1230   40.9660 C   0  0  0  0  0  0  0  0  0  0  0  0
   38.2350   31.2360   40.3290 C   0  0  0  0  0  0  0  0  0  0  0  0
   37.2340   31.6770   39.4930 C   0  0  0  0  0  0  0  0  0  0  0  0
   37.1200   33.0240   39.3300 N   0  0  0  0  0  0  0  0  0  0  0  0
   37.9370   33.8730   39.9500 C   0  0  0  0  0  0  0  0  0  0  0  0
   38.9030   33.4660   40.7550 N   0  0  0  0  0  0  0  0  0  0  0  0
   39.8850   31.8020   41.6380 H   0  0  0  0  0  0  0  0  0  0  0  0
   36.5560   31.0270   38.9690 H   0  0  0  0  0  0  0  0  0  0  0  0
   37.8230   34.9460   39.8020 H   0  0  0  0  0  0  0  0  0  0  0  0
  1  3  1  0  0  0  0
  2  1  1  0  0  0  0
  5 12  1  0  0  0  0
  5  4  1  0  0  0  0
  6  1  1  0  0  0  0
  6  5  2  0  0  0  0
  7  9  2  0  0  0  0
  7  6  1  0  0  0  0
  8  7  1  0  0  0  0
  9 11  1  0  0  0  0
 10  9  1  0  0  0  0
 11 12  2  0  0  0  0
 13  1  1  0  0  0  0
 14 20  1  0  0  0  0
 15 13  1  0  0  0  0
 15 14  2  0  0  0  0
 16 15  1  0  0  0  0
 17 16  2  0  0  0  0
 17 18  1  0  0  0  0
 18 19  2  0  0  0  0
 19 14  1  0  0  0  0
 21 16  1  0  0  0  0
 22 18  1  0  0  0  0
M  END
>  <minimizedAffinity>
-4.30862236

$$$$

 OpenBabel03252503003D

 22 23  0  0  0  0  0  0  0  0999 V2000
   38.8780   27.9760   43.3180 C   0  0  0  0  0  0  0  0  0  0  0  0
   37.9930   28.5530   43.7230 H   0  0  0  0  0  0  0  0  0  0  0  0
   39.5030   27.7930   44.2430 H   0  0  0  0  0  0  0  0  0  0  0  0
   40.9190   25.8970   43.6800 Cl  0  0  0  0  0  0  0  0  0  0  0  0
   39.3400   25.7020   42.9520 C   0  0  0  0  0  0  0  0  0  0  0  0
   38.3790   26.7100   42.7860 C   0  0  0  0  0  0  0  0  0  0  0  0
   37.1950   26.3310   42.1830 C   0  0  0  0  0  0  0  0  0  0  0  0
   36.5270   27.1910   42.1080 H   0  0  0  0  0  0  0  0  0  0  0  0
   36.9640   25.0490   41.7680 C   0  0  0  0  0  0  0  0  0  0  0  0
   36.0090   24.8550   41.3100 H   0  0  0  0  0  0  0  0  0  0  0  0
   37.8980   24.0470   41.9240 C   0  0  0  0  0  3  0  0  0  0  0  0
   39.0910   24.4090   42.5250 C   0  0  0  0  0  3  0  0  0  0  0  0
   39.7670   29.0270   42.1980 S   0  0  0  0  0  0  0  0  0  0  0  0
   39.0980   31.0920   40.5080 C   0  0  0  0  0  0  0  0  0  0  0  0
   38.6020   30.1620   41.3980 C   0  0  0  0  0  0  0  0  0  0  0  0
   37.2550   30.0850   41.6730 C   0  0  0  0  0  0  0  0  0  0  0  0
   36.4450   30.9680   41.0260 N   0  0  0  0  0  0  0  0  0  0  0  0
   36.9330   31.8630   40.1700 C   0  0  0  0  0  0  0  0  0  0  0  0
   38.2230   31.9500   39.8940 N   0  0  0  0  0  0  0  0  0  0  0  0
   40.1660   31.1780   40.2680 H   0  0  0  0  0  0  0  0  0  0  0  0
   36.8180   29.3750   42.3520 H   0  0  0  0  0  0  0  0  0  0  0  0
   36.2620   32.5580   39.6670 H   0  0  0  0  0  0  0  0  0  0  0  0
  1  2  1  0  0  0  0
  1  3  1  0  0  0  0
  5  4  1  0  0  0  0
  6  5  1  0  0  0  0
  6  1  1  0  0  0  0
  7  6  2  0  0  0  0
  8  7  1  0  0  0  0
  9 11  2  0  0  0  0
  9  7  1  0  0  0  0
 10  9  1  0  0  0  0
 11 12  1  0  0  0  0
 12  5  2  0  0  0  0
 13  1  1  0  0  0  0
 14 15  1  0  0  0  0
 15 16  2  0  0  0  0
 15 13  1  0  0  0  0
 16 21  1  0  0  0  0
 17 16  1  0  0  0  0
 18 17  2  0  0  0  0
 19 18  1  0  0  0  0
 19 14  2  0  0  0  0
 20 14  1  0  0  0  0
 22 18  1  0  0  0  0
M  END
>  <minimizedAffinity>
-4.28864098

$$$$

 OpenBabel03252503003D

 22 23  0  0  0  0  0  0  0  0999 V2000
   37.7340   29.1470   39.6260 C   0  0  0  0  0  0  0  0  0  0  0  0
   38.8310   29.1710   39.3500 H   0  0  0  0  0  0  0  0  0  0  0  0
   37.3360   28.2920   39.0020 H   0  0  0  0  0  0  0  0  0  0  0  0
   36.5590   26.4750   39.9360 Cl  0  0  0  0  0  0  0  0  0  0  0  0
   37.0820   27.5460   41.2170 C   0  0  0  0  0  0  0  0  0  0  0  0
   37.6390   28.8230   41.0470 C   0  0  0  0  0  0  0  0  0  0  0  0
   37.9820   29.4970   42.2030 C   0  0  0  0  0  0  0  0  0  0  0  0
   38.4040   30.4710   41.9500 H   0  0  0  0  0  0  0  0  0  0  0  0
   37.7930   28.9600   43.4470 C   0  0  0  0  0  0  0  0  0  0  0  0
   38.0940   29.5660   44.2840 H   0  0  0  0  0  0  0  0  0  0  0  0
   37.2460   27.7080   43.6300 C   0  0  0  0  0  3  0  0  0  0  0  0
   36.8960   27.0180   42.4820 C   0  0  0  0  0  3  0  0  0  0  0  0
   36.9900   30.6690   39.0950 S   0  0  0  0  0  0  0  0  0  0  0  0
   37.7120   33.1180   40.1180 C   0  0  0  0  0  0  0  0  0  0  0  0
   38.1490   32.0310   39.3900 C   0  0  0  0  0  0  0  0  0  0  0  0
   39.4350   31.9690   38.9020 C   0  0  0  0  0  0  0  0  0  0  0  0
   40.2450   33.0290   39.1720 N   0  0  0  0  0  0  0  0  0  0  0  0
   39.8150   34.0740   39.8740 C   0  0  0  0  0  0  0  0  0  0  0  0
   38.5840   34.1500   40.3510 N   0  0  0  0  0  0  0  0  0  0  0  0
   36.6940   33.1970   40.5210 H   0  0  0  0  0  0  0  0  0  0  0  0
   39.8250   31.1420   38.3360 H   0  0  0  0  0  0  0  0  0  0  0  0
   40.4850   34.9090   40.0750 H   0  0  0  0  0  0  0  0  0  0  0  0
  1  6  1  0  0  0  0
  2  1  1  0  0  0  0
  3  1  1  0  0  0  0
  4  5  1  0  0  0  0
  5 12  1  0  0  0  0
  6  5  2  0  0  0  0
  6  7  1  0  0  0  0
  7  9  2  0  0  0  0
  8  7  1  0  0  0  0
  9 11  1  0  0  0  0
  9 10  1  0  0  0  0
 12 11  2  0  0  0  0
 13 15  1  0  0  0  0
 13  1  1  0  0  0  0
 14 19  1  0  0  0  0
 14 20  1  0  0  0  0
 15 14  2  0  0  0  0
 16 17  2  0  0  0  0
 16 15  1  0  0  0  0
 17 18  1  0  0  0  0
 18 22  1  0  0  0  0
 18 19  2  0  0  0  0
 21 16  1  0  0  0  0
M  END
>  <minimizedAffinity>
-4.26584578

$$$$

 OpenBabel03252503003D

 22 23  0  0  0  0  0  0  0  0999 V2000
   36.6030   27.8150   42.1230 C   0  0  0  0  0  0  0  0  0  0  0  0
   35.9030   26.9940   42.4640 H   0  0  0  0  0  0  0  0  0  0  0  0
   36.2160   28.7220   42.6770 H   0  0  0  0  0  0  0  0  0  0  0  0
   36.8920   24.8960   42.1980 Cl  0  0  0  0  0  0  0  0  0  0  0  0
   38.1060   26.0810   42.6250 C   0  0  0  0  0  0  0  0  0  0  0  0
   37.9460   27.4750   42.5850 C   0  0  0  0  0  0  0  0  0  0  0  0
   39.0410   28.2250   42.9670 C   0  0  0  0  0  0  0  0  0  0  0  0
   38.8030   29.2880   42.8950 H   0  0  0  0  0  0  0  0  0  0  0  0
   40.2180   27.6530   43.3640 C   0  0  0  0  0  0  0  0  0  0  0  0
   41.0120   28.3250   43.6410 H   0  0  0  0  0  0  0  0  0  0  0  0
   40.3900   26.2860   43.4080 C   0  0  0  0  0  3  0  0  0  0  0  0
   39.3030   25.5170   43.0290 C   0  0  0  0  0  3  0  0  0  0  0  0
   36.3860   28.0470   40.3770 S   0  0  0  0  0  0  0  0  0  0  0  0
   36.8500   30.1250   38.6350 C   0  0  0  0  0  0  0  0  0  0  0  0
   36.7090   29.7820   39.9630 C   0  0  0  0  0  0  0  0  0  0  0  0
   36.8010   30.7300   40.9580 C   0  0  0  0  0  0  0  0  0  0  0  0
   37.0380   32.0110   40.5650 N   0  0  0  0  0  0  0  0  0  0  0  0
   37.1750   32.3320   39.2800 C   0  0  0  0  0  0  0  0  0  0  0  0
   37.0890   31.4350   38.3130 N   0  0  0  0  0  0  0  0  0  0  0  0
   36.7820   29.3920   37.8180 H   0  0  0  0  0  0  0  0  0  0  0  0
   36.6910   30.5150   42.0060 H   0  0  0  0  0  0  0  0  0  0  0  0
   37.3650   33.3650   38.9930 H   0  0  0  0  0  0  0  0  0  0  0  0
  1  2  1  0  0  0  0
  1  6  1  0  0  0  0
  1  3  1  0  0  0  0
  4  5  1  0  0  0  0
  5 12  1  0  0  0  0
  6  5  2  0  0  0  0
  6  7  1  0  0  0  0
  7  9  2  0  0  0  0
  8  7  1  0  0  0  0
  9 11  1  0  0  0  0
  9 10  1  0  0  0  0
 12 11  2  0  0  0  0
 13  1  1  0  0  0  0
 14 15  1  0  0  0  0
 15 13  1  0  0  0  0
 15 16  2  0  0  0  0
 16 21  1  0  0  0  0
 17 16  1  0  0  0  0
 18 17  2  0  0  0  0
 19 14  2  0  0  0  0
 19 18  1  0  0  0  0
 20 14  1  0  0  0  0
 22 18  1  0  0  0  0
M  END
>  <minimizedAffinity>
-4.25031424

$$$$

 OpenBabel03252503003D

 22 23  0  0  0  0  0  0  0  0999 V2000
   36.8360   28.7060   41.4370 C   0  0  0  0  0  0  0  0  0  0  0  0
   36.4630   29.0380   40.4210 H   0  0  0  0  0  0  0  0  0  0  0  0
   36.0320   29.0840   42.1360 H   0  0  0  0  0  0  0  0  0  0  0  0
   36.3550   27.7120   38.7170 Cl  0  0  0  0  0  0  0  0  0  0  0  0
   36.6410   26.7500   40.1510 C   0  0  0  0  0  0  0  0  0  0  0  0
   36.8660   27.2450   41.4440 C   0  0  0  0  0  0  0  0  0  0  0  0
   37.0700   26.3010   42.4320 C   0  0  0  0  0  0  0  0  0  0  0  0
   37.2350   26.7980   43.3890 H   0  0  0  0  0  0  0  0  0  0  0  0
   37.0550   24.9580   42.1740 C   0  0  0  0  0  0  0  0  0  0  0  0
   37.2260   24.3040   43.0120 H   0  0  0  0  0  0  0  0  0  0  0  0
   36.8350   24.4560   40.9090 C   0  0  0  0  0  3  0  0  0  0  0  0
   36.6280   25.3880   39.9060 C   0  0  0  0  0  3  0  0  0  0  0  0
   38.3630   29.5450   41.7740 S   0  0  0  0  0  0  0  0  0  0  0  0
   37.1970   31.5550   40.3010 C   0  0  0  0  0  0  0  0  0  0  0  0
   38.2960   31.2100   41.0600 C   0  0  0  0  0  0  0  0  0  0  0  0
   39.3190   32.1040   41.2810 C   0  0  0  0  0  0  0  0  0  0  0  0
   39.1910   33.3360   40.7160 N   0  0  0  0  0  0  0  0  0  0  0  0
   38.1260   33.6590   39.9850 C   0  0  0  0  0  0  0  0  0  0  0  0
   37.1350   32.8130   39.7630 N   0  0  0  0  0  0  0  0  0  0  0  0
   36.3650   30.8640   40.1070 H   0  0  0  0  0  0  0  0  0  0  0  0
   40.1930   31.8860   41.8700 H   0  0  0  0  0  0  0  0  0  0  0  0
   38.0490   34.6520   39.5440 H   0  0  0  0  0  0  0  0  0  0  0  0
  1  6  1  0  0  0  0
  1 13  1  0  0  0  0
  1  3  1  0  0  0  0
  2  1  1  0  0  0  0
  4  5  1  0  0  0  0
  5  6  1  0  0  0  0
  6  7  2  0  0  0  0
  7  8  1  0  0  0  0
  9  7  1  0  0  0  0
  9 10  1  0  0  0  0
 11  9  2  0  0  0  0
 12  5  2  0  0  0  0
 12 11  1  0  0  0  0
 14 15  1  0  0  0  0
 15 16  2  0  0  0  0
 15 13  1  0  0  0  0
 16 21  1  0  0  0  0
 17 16  1  0  0  0  0
 18 17  2  0  0  0  0
 19 18  1  0  0  0  0
 19 14  2  0  0  0  0
 20 14  1  0  0  0  0
 22 18  1  0  0  0  0
M  END
>  <minimizedAffinity>
-4.23086691

$$$$

 OpenBabel03252503003D

 22 23  0  0  0  0  0  0  0  0999 V2000
   38.4100   28.7660   39.7390 C   0  0  0  0  0  0  0  0  0  0  0  0
   39.5100   29.0300   39.7040 H   0  0  0  0  0  0  0  0  0  0  0  0
   38.3710   27.7780   39.1910 H   0  0  0  0  0  0  0  0  0  0  0  0
   36.6870   26.4030   39.9890 Cl  0  0  0  0  0  0  0  0  0  0  0  0
   37.2190   27.4550   41.2820 C   0  0  0  0  0  0  0  0  0  0  0  0
   38.0410   28.5840   41.1410 C   0  0  0  0  0  0  0  0  0  0  0  0
   38.3360   29.2720   42.3010 C   0  0  0  0  0  0  0  0  0  0  0  0
   38.9790   30.1230   42.0720 H   0  0  0  0  0  0  0  0  0  0  0  0
   37.8590   28.8850   43.5230 C   0  0  0  0  0  0  0  0  0  0  0  0
   38.1480   29.4880   44.3670 H   0  0  0  0  0  0  0  0  0  0  0  0
   37.0500   27.7790   43.6780 C   0  0  0  0  0  3  0  0  0  0  0  0
   36.7430   27.0770   42.5250 C   0  0  0  0  0  3  0  0  0  0  0  0
   37.5100   29.9920   38.8230 S   0  0  0  0  0  0  0  0  0  0  0  0
   39.3490   31.8240   39.7330 C   0  0  0  0  0  0  0  0  0  0  0  0
   38.0330   31.6410   39.3640 C   0  0  0  0  0  0  0  0  0  0  0  0
   37.1310   32.6810   39.3960 C   0  0  0  0  0  0  0  0  0  0  0  0
   37.6040   33.8900   39.8080 N   0  0  0  0  0  0  0  0  0  0  0  0
   38.8760   34.0570   40.1630 C   0  0  0  0  0  0  0  0  0  0  0  0
   39.7540   33.0690   40.1380 N   0  0  0  0  0  0  0  0  0  0  0  0
   40.0920   31.0150   39.7180 H   0  0  0  0  0  0  0  0  0  0  0  0
   36.0980   32.5920   39.1120 H   0  0  0  0  0  0  0  0  0  0  0  0
   39.2270   35.0350   40.4890 H   0  0  0  0  0  0  0  0  0  0  0  0
  1  6  1  0  0  0  0
  2  1  1  0  0  0  0
  3  1  1  0  0  0  0
  4  5  1  0  0  0  0
  5 12  1  0  0  0  0
  6  5  2  0  0  0  0
  6  7  1  0  0  0  0
  7  9  2  0  0  0  0
  8  7  1  0  0  0  0
  9 11  1  0  0  0  0
  9 10  1  0  0  0  0
 12 11  2  0  0  0  0
 13 15  1  0  0  0  0
 13  1  1  0  0  0  0
 14 19  1  0  0  0  0
 15 16  1  0  0  0  0
 15 14  2  0  0  0  0
 16 17  2  0  0  0  0
 17 18  1  0  0  0  0
 18 22  1  0  0  0  0
 19 18  2  0  0  0  0
 20 14  1  0  0  0  0
 21 16  1  0  0  0  0
M  END
>  <minimizedAffinity>
-4.22203159

$$$$
