
 OpenBabel03242522233D

 28 30  0  0  0  0  0  0  0  0999 V2000
   44.4820   35.8660   44.9460 C   0  0  0  0  0  0  0  0  0  0  0  0
   45.1400   35.7940   43.7140 C   0  0  0  0  0  0  0  0  0  0  0  0
   46.0310   34.7630   43.4260 C   0  0  0  0  0  0  0  0  0  0  0  0
   46.2190   33.8420   44.4060 N   0  0  0  0  0  0  0  0  0  0  0  0
   45.5800   33.9250   45.5870 C   0  0  0  0  0  0  0  0  0  0  0  0
   44.7280   34.9210   45.8450 N   0  0  0  0  0  0  0  0  0  0  0  0
   43.7970   36.6750   45.1430 H   0  0  0  0  0  0  0  0  0  0  0  0
   44.9450   36.5630   42.9680 H   0  0  0  0  0  0  0  0  0  0  0  0
   44.5860   33.1430   41.4560 Cl  0  0  0  0  0  0  0  0  0  0  0  0
   46.1190   33.9270   41.1430 C   0  0  0  0  0  0  0  0  0  0  0  0
   46.7270   34.6740   42.1390 C   0  0  0  0  0  0  0  0  0  0  0  0
   47.9380   35.2820   41.8590 C   0  0  0  0  0  0  0  0  0  0  0  0
   48.5300   35.1500   40.6220 C   0  0  0  0  0  0  0  0  0  0  0  0
   47.8810   34.3900   39.6540 C   0  0  0  0  0  0  0  0  0  0  0  0
   48.6360   34.2260   38.0880 Cl  0  0  0  0  0  0  0  0  0  0  0  0
   46.6810   33.7720   39.8900 C   0  0  0  0  0  0  0  0  0  0  0  0
   48.4020   35.8620   42.6450 H   0  0  0  0  0  0  0  0  0  0  0  0
   49.4740   35.6170   40.3860 H   0  0  0  0  0  0  0  0  0  0  0  0
   46.1830   33.1830   39.1360 H   0  0  0  0  0  0  0  0  0  0  0  0
   47.4350   31.7930   44.7050 Cl  0  0  0  0  0  0  0  0  0  0  0  0
   46.6870   31.8400   46.3030 C   0  0  0  0  0  0  0  0  0  0  0  0
   45.8330   32.8930   46.5980 C   0  0  0  0  0  0  0  0  0  0  0  0
   45.2480   32.9400   47.8330 C   0  0  0  0  0  0  0  0  0  0  0  0
   44.5840   33.7340   48.1040 H   0  0  0  0  0  0  0  0  0  0  0  0
   45.5310   31.9270   48.7530 C   0  0  0  0  0  0  0  0  0  0  0  0
   45.0830   31.9270   49.7530 H   0  0  0  0  0  0  0  0  0  0  0  0
   46.3910   30.8740   48.4430 C   0  0  0  0  0  0  0  0  0  0  0  0
   46.9640   30.8520   47.1940 C   0  0  0  0  0  0  0  0  0  0  0  0
  1  7  1  0  0  0  0
  1  6  1  0  0  0  0
  2  1  2  0  0  0  0
  3  2  1  0  0  0  0
  3  4  2  0  0  0  0
  4  5  1  0  0  0  0
  5  6  2  0  0  0  0
  5 22  1  0  0  0  0
  8  2  1  0  0  0  0
 10  9  1  0  0  0  0
 10 11  1  0  0  0  0
 11  3  1  0  0  0  0
 12 11  2  0  0  0  0
 12 17  1  0  0  0  0
 13 12  1  0  0  0  0
 14 16  1  0  0  0  0
 14 13  2  0  0  0  0
 15 14  1  0  0  0  0
 16 10  2  0  0  0  0
 18 13  1  0  0  0  0
 19 16  1  0  0  0  0
 20 21  1  0  0  0  0
 21 22  2  0  0  0  0
 21 28  1  0  0  0  0
 22 23  1  0  0  0  0
 23 24  1  0  0  0  0
 23 25  2  0  0  0  0
 25 26  1  0  0  0  0
 27 25  1  0  0  0  0
 28 27  2  0  0  0  0
M  END
>  <minimizedAffinity>
-6.87839079

>  <minimizedRMSD>
0.276424438

$$$$
