
 OpenBabel03242522243D

 28 30  0  0  0  0  0  0  0  0999 V2000
   37.8760   32.0690   40.6550 C   0  0  0  0  0  0  0  0  0  0  0  0
   37.1620   31.6170   39.5400 C   0  0  0  0  0  0  0  0  0  0  0  0
   37.0800   30.2620   39.2320 C   0  0  0  0  0  0  0  0  0  0  0  0
   37.7290   29.4150   40.0730 N   0  0  0  0  0  0  0  0  0  0  0  0
   38.4120   29.8650   41.1410 C   0  0  0  0  0  0  0  0  0  0  0  0
   38.4800   31.1690   41.4210 N   0  0  0  0  0  0  0  0  0  0  0  0
   37.9240   33.1240   40.8710 H   0  0  0  0  0  0  0  0  0  0  0  0
   36.6630   32.3470   38.9040 H   0  0  0  0  0  0  0  0  0  0  0  0
   34.4270   29.2270   39.9240 Cl  0  0  0  0  0  0  0  0  0  0  0  0
   35.0680   29.2640   38.2970 C   0  0  0  0  0  0  0  0  0  0  0  0
   36.3360   29.7730   38.0680 C   0  0  0  0  0  0  0  0  0  0  0  0
   36.8140   29.7880   36.7690 C   0  0  0  0  0  0  0  0  0  0  0  0
   36.0520   29.3090   35.7260 C   0  0  0  0  0  0  0  0  0  0  0  0
   34.7850   28.8080   36.0060 C   0  0  0  0  0  0  0  0  0  0  0  0
   33.8230   28.2020   34.6800 Cl  0  0  0  0  0  0  0  0  0  0  0  0
   34.2740   28.7750   37.2780 C   0  0  0  0  0  0  0  0  0  0  0  0
   37.8050   30.1890   36.6030 H   0  0  0  0  0  0  0  0  0  0  0  0
   36.4080   29.3140   34.7070 H   0  0  0  0  0  0  0  0  0  0  0  0
   33.2910   28.3840   37.4890 H   0  0  0  0  0  0  0  0  0  0  0  0
   36.5750   28.0450   42.5830 Cl  0  0  0  0  0  0  0  0  0  0  0  0
   38.3330   27.9820   42.7330 C   0  0  0  0  0  0  0  0  0  0  0  0
   39.0870   28.8910   42.0050 C   0  0  0  0  0  0  0  0  0  0  0  0
   40.4490   28.8520   42.1140 C   0  0  0  0  0  0  0  0  0  0  0  0
   41.0700   29.5330   41.5700 H   0  0  0  0  0  0  0  0  0  0  0  0
   41.0330   27.8990   42.9530 C   0  0  0  0  0  0  0  0  0  0  0  0
   42.1200   27.8350   43.0690 H   0  0  0  0  0  0  0  0  0  0  0  0
   40.2630   26.9920   43.6800 C   0  0  0  0  0  3  0  0  0  0  0  0
   38.8960   27.0540   43.5520 C   0  0  0  0  0  3  0  0  0  0  0  0
  1  7  1  0  0  0  0
  1  6  1  0  0  0  0
  2  1  2  0  0  0  0
  3  2  1  0  0  0  0
  3  4  2  0  0  0  0
  4  5  1  0  0  0  0
  5  6  2  0  0  0  0
  5 22  1  0  0  0  0
  8  2  1  0  0  0  0
 10  9  1  0  0  0  0
 11 10  1  0  0  0  0
 11  3  1  0  0  0  0
 12 11  2  0  0  0  0
 13 14  2  0  0  0  0
 13 12  1  0  0  0  0
 14 16  1  0  0  0  0
 15 14  1  0  0  0  0
 16 19  1  0  0  0  0
 16 10  2  0  0  0  0
 17 12  1  0  0  0  0
 18 13  1  0  0  0  0
 20 21  1  0  0  0  0
 21 28  1  0  0  0  0
 22 23  1  0  0  0  0
 22 21  2  0  0  0  0
 23 25  2  0  0  0  0
 24 23  1  0  0  0  0
 25 26  1  0  0  0  0
 25 27  1  0  0  0  0
 28 27  2  0  0  0  0
M  END
>  <minimizedAffinity>
-5.58713865

$$$$

 OpenBabel03242522243D

 28 30  0  0  0  0  0  0  0  0999 V2000
   36.0230   30.7690   41.0360 C   0  0  0  0  0  0  0  0  0  0  0  0
   37.1620   31.3640   40.4820 C   0  0  0  0  0  0  0  0  0  0  0  0
   38.2320   30.5980   40.0270 C   0  0  0  0  0  0  0  0  0  0  0  0
   38.1030   29.2520   40.1530 N   0  0  0  0  0  0  0  0  0  0  0  0
   37.0010   28.6940   40.6870 C   0  0  0  0  0  0  0  0  0  0  0  0
   35.9840   29.4450   41.1190 N   0  0  0  0  0  0  0  0  0  0  0  0
   35.2090   31.3860   41.3810 H   0  0  0  0  0  0  0  0  0  0  0  0
   37.2060   32.4500   40.4090 H   0  0  0  0  0  0  0  0  0  0  0  0
   37.9090   31.2750   37.1940 Cl  0  0  0  0  0  0  0  0  0  0  0  0
   39.3740   31.5620   38.1070 C   0  0  0  0  0  0  0  0  0  0  0  0
   39.4320   31.2060   39.4450 C   0  0  0  0  0  0  0  0  0  0  0  0
   40.6050   31.4470   40.1390 C   0  0  0  0  0  0  0  0  0  0  0  0
   41.6910   32.0240   39.5190 C   0  0  0  0  0  0  0  0  0  0  0  0
   41.5840   32.3630   38.1740 C   0  0  0  0  0  0  0  0  0  0  0  0
   42.9660   33.0940   37.3930 Cl  0  0  0  0  0  0  0  0  0  0  0  0
   40.4410   32.1430   37.4510 C   0  0  0  0  0  0  0  0  0  0  0  0
   40.6370   31.1660   41.1820 H   0  0  0  0  0  0  0  0  0  0  0  0
   42.6140   32.2190   40.0450 H   0  0  0  0  0  0  0  0  0  0  0  0
   40.3650   32.4070   36.4070 H   0  0  0  0  0  0  0  0  0  0  0  0
   37.7030   27.6340   43.3610 Cl  0  0  0  0  0  0  0  0  0  0  0  0
   37.2370   26.6160   41.9950 C   0  0  0  0  0  0  0  0  0  0  0  0
   36.9310   27.2330   40.7900 C   0  0  0  0  0  0  0  0  0  0  0  0
   36.5690   26.4550   39.7270 C   0  0  0  0  0  0  0  0  0  0  0  0
   36.3240   26.8880   38.7790 H   0  0  0  0  0  0  0  0  0  0  0  0
   36.5210   25.0680   39.8890 C   0  0  0  0  0  0  0  0  0  0  0  0
   36.2360   24.4090   39.0620 H   0  0  0  0  0  0  0  0  0  0  0  0
   36.8310   24.4610   41.1050 C   0  0  0  0  0  3  0  0  0  0  0  0
   37.1920   25.2680   42.1580 C   0  0  0  0  0  3  0  0  0  0  0  0
  1  6  1  0  0  0  0
  1  7  1  0  0  0  0
  2  1  2  0  0  0  0
  3  4  2  0  0  0  0
  3  2  1  0  0  0  0
  4  5  1  0  0  0  0
  5 22  1  0  0  0  0
  5  6  2  0  0  0  0
  8  2  1  0  0  0  0
  9 10  1  0  0  0  0
 10 11  1  0  0  0  0
 11  3  1  0  0  0  0
 11 12  2  0  0  0  0
 12 17  1  0  0  0  0
 13 18  1  0  0  0  0
 13 12  1  0  0  0  0
 14 13  2  0  0  0  0
 15 14  1  0  0  0  0
 16 10  2  0  0  0  0
 16 14  1  0  0  0  0
 19 16  1  0  0  0  0
 21 28  1  0  0  0  0
 21 20  1  0  0  0  0
 22 21  2  0  0  0  0
 23 25  2  0  0  0  0
 23 22  1  0  0  0  0
 24 23  1  0  0  0  0
 25 27  1  0  0  0  0
 26 25  1  0  0  0  0
 27 28  2  0  0  0  0
M  END
>  <minimizedAffinity>
-5.56546974

$$$$

 OpenBabel03242522243D

 28 30  0  0  0  0  0  0  0  0999 V2000
   35.9240   30.5590   40.8110 C   0  0  0  0  0  0  0  0  0  0  0  0
   37.1590   31.1630   40.5520 C   0  0  0  0  0  0  0  0  0  0  0  0
   38.3200   30.4090   40.4030 C   0  0  0  0  0  0  0  0  0  0  0  0
   38.1800   29.0630   40.5250 N   0  0  0  0  0  0  0  0  0  0  0  0
   36.9850   28.4960   40.7750 C   0  0  0  0  0  0  0  0  0  0  0  0
   35.8820   29.2370   40.9140 N   0  0  0  0  0  0  0  0  0  0  0  0
   35.0410   31.1670   40.9220 H   0  0  0  0  0  0  0  0  0  0  0  0
   37.2060   32.2480   40.4650 H   0  0  0  0  0  0  0  0  0  0  0  0
   39.8420   30.9860   42.8410 Cl  0  0  0  0  0  0  0  0  0  0  0  0
   40.4140   31.3370   41.2240 C   0  0  0  0  0  0  0  0  0  0  0  0
   39.6200   31.0270   40.1310 C   0  0  0  0  0  0  0  0  0  0  0  0
   40.1020   31.3160   38.8660 C   0  0  0  0  0  0  0  0  0  0  0  0
   41.3380   31.8990   38.6920 C   0  0  0  0  0  0  0  0  0  0  0  0
   42.0970   32.1910   39.8210 C   0  0  0  0  0  0  0  0  0  0  0  0
   43.6640   32.9300   39.5940 Cl  0  0  0  0  0  0  0  0  0  0  0  0
   41.6580   31.9200   41.0910 C   0  0  0  0  0  0  0  0  0  0  0  0
   39.4730   31.0690   38.0210 H   0  0  0  0  0  0  0  0  0  0  0  0
   41.7290   32.1310   37.7130 H   0  0  0  0  0  0  0  0  0  0  0  0
   42.2520   32.1500   41.9620 H   0  0  0  0  0  0  0  0  0  0  0  0
   37.4660   27.4750   43.5110 Cl  0  0  0  0  0  0  0  0  0  0  0  0
   37.1170   26.4370   42.1270 C   0  0  0  0  0  0  0  0  0  0  0  0
   36.9100   27.0360   40.8920 C   0  0  0  0  0  0  0  0  0  0  0  0
   36.6380   26.2420   39.8140 C   0  0  0  0  0  0  0  0  0  0  0  0
   36.4700   26.6610   38.8430 H   0  0  0  0  0  0  0  0  0  0  0  0
   36.5790   24.8580   39.9910 C   0  0  0  0  0  0  0  0  0  0  0  0
   36.3640   24.1860   39.1530 H   0  0  0  0  0  0  0  0  0  0  0  0
   36.7890   24.2690   41.2370 C   0  0  0  0  0  3  0  0  0  0  0  0
   37.0610   25.0910   42.3050 C   0  0  0  0  0  3  0  0  0  0  0  0
  1  6  1  0  0  0  0
  1  7  1  0  0  0  0
  2  1  2  0  0  0  0
  3  4  2  0  0  0  0
  3  2  1  0  0  0  0
  4  5  1  0  0  0  0
  5 22  1  0  0  0  0
  5  6  2  0  0  0  0
  8  2  1  0  0  0  0
 10  9  1  0  0  0  0
 11  3  1  0  0  0  0
 11 10  2  0  0  0  0
 12 11  1  0  0  0  0
 13 12  2  0  0  0  0
 13 14  1  0  0  0  0
 14 16  2  0  0  0  0
 15 14  1  0  0  0  0
 16 10  1  0  0  0  0
 16 19  1  0  0  0  0
 17 12  1  0  0  0  0
 18 13  1  0  0  0  0
 21 28  1  0  0  0  0
 21 20  1  0  0  0  0
 22 21  2  0  0  0  0
 23 25  2  0  0  0  0
 23 22  1  0  0  0  0
 24 23  1  0  0  0  0
 25 27  1  0  0  0  0
 26 25  1  0  0  0  0
 27 28  2  0  0  0  0
M  END
>  <minimizedAffinity>
-5.44327974

$$$$

 OpenBabel03242522243D

 28 30  0  0  0  0  0  0  0  0999 V2000
   39.1510   26.9970   43.6740 C   0  0  0  0  0  0  0  0  0  0  0  0
   38.8680   28.2670   43.1600 C   0  0  0  0  0  0  0  0  0  0  0  0
   38.6420   28.4660   41.8010 C   0  0  0  0  0  0  0  0  0  0  0  0
   38.7130   27.3610   41.0130 N   0  0  0  0  0  0  0  0  0  0  0  0
   38.9870   26.1460   41.5220 C   0  0  0  0  0  0  0  0  0  0  0  0
   39.2010   25.9740   42.8290 N   0  0  0  0  0  0  0  0  0  0  0  0
   39.3230   26.8710   44.7310 H   0  0  0  0  0  0  0  0  0  0  0  0
   38.8240   29.1130   43.8440 H   0  0  0  0  0  0  0  0  0  0  0  0
   35.8120   28.8060   41.1180 Cl  0  0  0  0  0  0  0  0  0  0  0  0
   37.0280   30.0450   40.8940 C   0  0  0  0  0  0  0  0  0  0  0  0
   38.3440   29.7890   41.2480 C   0  0  0  0  0  0  0  0  0  0  0  0
   39.2810   30.7900   41.0590 C   0  0  0  0  0  0  0  0  0  0  0  0
   38.9210   32.0110   40.5320 C   0  0  0  0  0  0  0  0  0  0  0  0
   37.5870   32.2190   40.1930 C   0  0  0  0  0  0  0  0  0  0  0  0
   37.1370   33.7690   39.5250 Cl  0  0  0  0  0  0  0  0  0  0  0  0
   36.6280   31.2550   40.3640 C   0  0  0  0  0  0  0  0  0  0  0  0
   40.3040   30.5790   41.3390 H   0  0  0  0  0  0  0  0  0  0  0  0
   39.6380   32.8030   40.3780 H   0  0  0  0  0  0  0  0  0  0  0  0
   35.5960   31.4230   40.0980 H   0  0  0  0  0  0  0  0  0  0  0  0
   36.6370   24.3540   41.6730 Cl  0  0  0  0  0  0  0  0  0  0  0  0
   38.0030   24.0860   40.5880 C   0  0  0  0  0  0  0  0  0  0  0  0
   39.0480   24.9990   40.6100 C   0  0  0  0  0  0  0  0  0  0  0  0
   40.1110   24.8020   39.7740 C   0  0  0  0  0  0  0  0  0  0  0  0
   40.9380   25.4810   39.7560 H   0  0  0  0  0  0  0  0  0  0  0  0
   40.1080   23.6900   38.9280 C   0  0  0  0  0  0  0  0  0  0  0  0
   40.9410   23.4960   38.2430 H   0  0  0  0  0  0  0  0  0  0  0  0
   39.0520   22.7800   38.9160 C   0  0  0  0  0  3  0  0  0  0  0  0
   37.9960   23.0030   39.7680 C   0  0  0  0  0  3  0  0  0  0  0  0
  1  7  1  0  0  0  0
  2  1  1  0  0  0  0
  2  8  1  0  0  0  0
  3  2  2  0  0  0  0
  4  5  2  0  0  0  0
  4  3  1  0  0  0  0
  5  6  1  0  0  0  0
  6  1  2  0  0  0  0
 10  9  1  0  0  0  0
 10 11  1  0  0  0  0
 11  3  1  0  0  0  0
 12 11  2  0  0  0  0
 12 17  1  0  0  0  0
 13 12  1  0  0  0  0
 14 16  1  0  0  0  0
 14 13  2  0  0  0  0
 15 14  1  0  0  0  0
 16 10  2  0  0  0  0
 18 13  1  0  0  0  0
 19 16  1  0  0  0  0
 21 22  1  0  0  0  0
 21 20  1  0  0  0  0
 22  5  1  0  0  0  0
 23 22  2  0  0  0  0
 24 23  1  0  0  0  0
 25 23  1  0  0  0  0
 26 25  1  0  0  0  0
 27 25  2  0  0  0  0
 27 28  1  0  0  0  0
 28 21  2  0  0  0  0
M  END
>  <minimizedAffinity>
-5.42462015

$$$$

 OpenBabel03242522243D

 28 30  0  0  0  0  0  0  0  0999 V2000
   36.6270   27.1680   43.6720 C   0  0  0  0  0  0  0  0  0  0  0  0
   36.9940   28.4540   43.2580 C   0  0  0  0  0  0  0  0  0  0  0  0
   37.5210   28.6850   41.9910 C   0  0  0  0  0  0  0  0  0  0  0  0
   37.6550   27.5970   41.1890 N   0  0  0  0  0  0  0  0  0  0  0  0
   37.2980   26.3660   41.6010 C   0  0  0  0  0  0  0  0  0  0  0  0
   36.7940   26.1640   42.8210 N   0  0  0  0  0  0  0  0  0  0  0  0
   36.2220   27.0170   44.6590 H   0  0  0  0  0  0  0  0  0  0  0  0
   36.8610   29.2860   43.9480 H   0  0  0  0  0  0  0  0  0  0  0  0
   35.4710   29.9760   40.3400 Cl  0  0  0  0  0  0  0  0  0  0  0  0
   37.0020   30.7160   40.7550 C   0  0  0  0  0  0  0  0  0  0  0  0
   37.9090   30.0250   41.5430 C   0  0  0  0  0  0  0  0  0  0  0  0
   39.1100   30.6390   41.8530 C   0  0  0  0  0  0  0  0  0  0  0  0
   39.4020   31.9040   41.3930 C   0  0  0  0  0  0  0  0  0  0  0  0
   38.4590   32.5570   40.6060 C   0  0  0  0  0  0  0  0  0  0  0  0
   38.8350   34.1610   40.0250 Cl  0  0  0  0  0  0  0  0  0  0  0  0
   37.2580   31.9860   40.2750 C   0  0  0  0  0  0  0  0  0  0  0  0
   39.8100   30.0900   42.4690 H   0  0  0  0  0  0  0  0  0  0  0  0
   40.3340   32.3970   41.6260 H   0  0  0  0  0  0  0  0  0  0  0  0
   36.5310   32.4970   39.6640 H   0  0  0  0  0  0  0  0  0  0  0  0
   39.8120   24.8550   41.9970 Cl  0  0  0  0  0  0  0  0  0  0  0  0
   38.6120   24.4520   40.7670 C   0  0  0  0  0  0  0  0  0  0  0  0
   37.4710   25.2380   40.6800 C   0  0  0  0  0  0  0  0  0  0  0  0
   36.5350   24.9350   39.7320 C   0  0  0  0  0  0  0  0  0  0  0  0
   35.6400   25.5140   39.6300 H   0  0  0  0  0  0  0  0  0  0  0  0
   36.7580   23.8470   38.8860 C   0  0  0  0  0  0  0  0  0  0  0  0
   36.0320   23.5710   38.1120 H   0  0  0  0  0  0  0  0  0  0  0  0
   37.9080   23.0650   38.9830 C   0  0  0  0  0  3  0  0  0  0  0  0
   38.8340   23.3930   39.9460 C   0  0  0  0  0  3  0  0  0  0  0  0
  1  7  1  0  0  0  0
  2  1  1  0  0  0  0
  2  8  1  0  0  0  0
  3  2  2  0  0  0  0
  4  5  2  0  0  0  0
  4  3  1  0  0  0  0
  5  6  1  0  0  0  0
  6  1  2  0  0  0  0
  9 10  1  0  0  0  0
 10 11  1  0  0  0  0
 11 12  2  0  0  0  0
 11  3  1  0  0  0  0
 12 17  1  0  0  0  0
 13 18  1  0  0  0  0
 13 12  1  0  0  0  0
 14 13  2  0  0  0  0
 15 14  1  0  0  0  0
 16 14  1  0  0  0  0
 16 10  2  0  0  0  0
 19 16  1  0  0  0  0
 21 20  1  0  0  0  0
 22 21  1  0  0  0  0
 22  5  1  0  0  0  0
 23 22  2  0  0  0  0
 24 23  1  0  0  0  0
 25 27  2  0  0  0  0
 25 23  1  0  0  0  0
 26 25  1  0  0  0  0
 27 28  1  0  0  0  0
 28 21  2  0  0  0  0
M  END
>  <minimizedAffinity>
-5.34777689

$$$$

 OpenBabel03242522243D

 28 30  0  0  0  0  0  0  0  0999 V2000
   36.9900   27.7900   43.6770 C   0  0  0  0  0  0  0  0  0  0  0  0
   37.0990   26.6760   42.8370 C   0  0  0  0  0  0  0  0  0  0  0  0
   37.4620   26.8090   41.4990 C   0  0  0  0  0  0  0  0  0  0  0  0
   37.7020   28.0730   41.0650 N   0  0  0  0  0  0  0  0  0  0  0  0
   37.5930   29.1350   41.8850 C   0  0  0  0  0  0  0  0  0  0  0  0
   37.2430   28.9890   43.1660 N   0  0  0  0  0  0  0  0  0  0  0  0
   36.7070   27.6590   44.7080 H   0  0  0  0  0  0  0  0  0  0  0  0
   36.8940   25.6870   43.2450 H   0  0  0  0  0  0  0  0  0  0  0  0
   40.1750   25.7010   41.4200 Cl  0  0  0  0  0  0  0  0  0  0  0  0
   38.8290   25.0590   40.5040 C   0  0  0  0  0  0  0  0  0  0  0  0
   37.5810   25.6520   40.6080 C   0  0  0  0  0  0  0  0  0  0  0  0
   36.5370   25.1190   39.8710 C   0  0  0  0  0  0  0  0  0  0  0  0
   36.7290   24.0280   39.0530 C   0  0  0  0  0  0  0  0  0  0  0  0
   38.0010   23.4670   38.9830 C   0  0  0  0  0  0  0  0  0  0  0  0
   38.2380   22.0830   37.9450 Cl  0  0  0  0  0  0  0  0  0  0  0  0
   39.0610   23.9630   39.6960 C   0  0  0  0  0  0  0  0  0  0  0  0
   35.5680   25.5910   39.9600 H   0  0  0  0  0  0  0  0  0  0  0  0
   35.9260   23.5990   38.4720 H   0  0  0  0  0  0  0  0  0  0  0  0
   40.0450   23.5240   39.6370 H   0  0  0  0  0  0  0  0  0  0  0  0
   40.3000   30.1590   42.5080 Cl  0  0  0  0  0  0  0  0  0  0  0  0
   39.1050   31.0590   41.5710 C   0  0  0  0  0  0  0  0  0  0  0  0
   37.8680   30.4710   41.3460 C   0  0  0  0  0  0  0  0  0  0  0  0
   36.9350   31.1590   40.6220 C   0  0  0  0  0  0  0  0  0  0  0  0
   35.9690   30.7430   40.4230 H   0  0  0  0  0  0  0  0  0  0  0  0
   37.2590   32.4270   40.1350 C   0  0  0  0  0  0  0  0  0  0  0  0
   36.5390   33.0120   39.5500 H   0  0  0  0  0  0  0  0  0  0  0  0
   38.5050   33.0070   40.3680 C   0  0  0  0  0  3  0  0  0  0  0  0
   39.4240   32.2930   41.1000 C   0  0  0  0  0  3  0  0  0  0  0  0
  1  7  1  0  0  0  0
  2  8  1  0  0  0  0
  2  1  2  0  0  0  0
  3  2  1  0  0  0  0
  4  3  2  0  0  0  0
  4  5  1  0  0  0  0
  5  6  2  0  0  0  0
  6  1  1  0  0  0  0
 10 11  1  0  0  0  0
 10  9  1  0  0  0  0
 11  3  1  0  0  0  0
 12 17  1  0  0  0  0
 12 11  2  0  0  0  0
 13 12  1  0  0  0  0
 14 13  2  0  0  0  0
 14 16  1  0  0  0  0
 15 14  1  0  0  0  0
 16 10  2  0  0  0  0
 18 13  1  0  0  0  0
 19 16  1  0  0  0  0
 21 20  1  0  0  0  0
 22 21  1  0  0  0  0
 22  5  1  0  0  0  0
 23 22  2  0  0  0  0
 24 23  1  0  0  0  0
 25 27  2  0  0  0  0
 25 23  1  0  0  0  0
 26 25  1  0  0  0  0
 27 28  1  0  0  0  0
 28 21  2  0  0  0  0
M  END
>  <minimizedAffinity>
-5.2837348

$$$$

 OpenBabel03242522243D

 28 30  0  0  0  0  0  0  0  0999 V2000
   36.9510   32.1450   39.4990 C   0  0  0  0  0  0  0  0  0  0  0  0
   38.2180   32.3080   38.9270 C   0  0  0  0  0  0  0  0  0  0  0  0
   39.2590   31.4270   39.2040 C   0  0  0  0  0  0  0  0  0  0  0  0
   38.9720   30.4090   40.0570 N   0  0  0  0  0  0  0  0  0  0  0  0
   37.7490   30.2650   40.6000 C   0  0  0  0  0  0  0  0  0  0  0  0
   36.7620   31.1210   40.3220 N   0  0  0  0  0  0  0  0  0  0  0  0
   36.1630   32.8430   39.2670 H   0  0  0  0  0  0  0  0  0  0  0  0
   38.3850   33.1450   38.2500 H   0  0  0  0  0  0  0  0  0  0  0  0
   40.9730   33.2600   40.7190 Cl  0  0  0  0  0  0  0  0  0  0  0  0
   41.4730   32.4330   39.2600 C   0  0  0  0  0  0  0  0  0  0  0  0
   40.5900   31.5850   38.6130 C   0  0  0  0  0  0  0  0  0  0  0  0
   41.0170   30.9460   37.4610 C   0  0  0  0  0  0  0  0  0  0  0  0
   42.2870   31.1460   36.9670 C   0  0  0  0  0  0  0  0  0  0  0  0
   43.1370   32.0080   37.6530 C   0  0  0  0  0  0  0  0  0  0  0  0
   44.7470   32.2580   37.0210 Cl  0  0  0  0  0  0  0  0  0  0  0  0
   42.7540   32.6590   38.7960 C   0  0  0  0  0  0  0  0  0  0  0  0
   40.3190   30.2860   36.9650 H   0  0  0  0  0  0  0  0  0  0  0  0
   42.6370   30.6560   36.0700 H   0  0  0  0  0  0  0  0  0  0  0  0
   43.4180   33.3270   39.3230 H   0  0  0  0  0  0  0  0  0  0  0  0
   36.9560   27.7540   39.2470 Cl  0  0  0  0  0  0  0  0  0  0  0  0
   37.1350   27.9090   40.9960 C   0  0  0  0  0  0  0  0  0  0  0  0
   37.5120   29.1410   41.5120 C   0  0  0  0  0  0  0  0  0  0  0  0
   37.6550   29.2720   42.8650 C   0  0  0  0  0  0  0  0  0  0  0  0
   37.9450   30.2030   43.3050 H   0  0  0  0  0  0  0  0  0  0  0  0
   37.4160   28.1630   43.6800 C   0  0  0  0  0  0  0  0  0  0  0  0
   37.5180   28.2260   44.7690 H   0  0  0  0  0  0  0  0  0  0  0  0
   37.0370   26.9310   43.1490 C   0  0  0  0  0  3  0  0  0  0  0  0
   36.9010   26.8270   41.7850 C   0  0  0  0  0  3  0  0  0  0  0  0
  1  6  1  0  0  0  0
  2  3  1  0  0  0  0
  2  1  2  0  0  0  0
  3  4  2  0  0  0  0
  4  5  1  0  0  0  0
  5 22  1  0  0  0  0
  6  5  2  0  0  0  0
  7  1  1  0  0  0  0
  8  2  1  0  0  0  0
 10  9  1  0  0  0  0
 11  3  1  0  0  0  0
 11 10  2  0  0  0  0
 12 11  1  0  0  0  0
 13 12  2  0  0  0  0
 13 14  1  0  0  0  0
 14 16  2  0  0  0  0
 15 14  1  0  0  0  0
 16 10  1  0  0  0  0
 16 19  1  0  0  0  0
 17 12  1  0  0  0  0
 18 13  1  0  0  0  0
 20 21  1  0  0  0  0
 21 22  2  0  0  0  0
 21 28  1  0  0  0  0
 22 23  1  0  0  0  0
 23 24  1  0  0  0  0
 23 25  2  0  0  0  0
 25 26  1  0  0  0  0
 27 25  1  0  0  0  0
 28 27  2  0  0  0  0
M  END
>  <minimizedAffinity>
-5.22083616

$$$$

 OpenBabel03242522243D

 28 30  0  0  0  0  0  0  0  0999 V2000
   37.3450   33.1000   39.8170 C   0  0  0  0  0  0  0  0  0  0  0  0
   37.0490   31.8180   40.2940 C   0  0  0  0  0  0  0  0  0  0  0  0
   38.0560   30.9130   40.6170 C   0  0  0  0  0  0  0  0  0  0  0  0
   39.3320   31.3470   40.4410 N   0  0  0  0  0  0  0  0  0  0  0  0
   39.6010   32.5830   39.9810 C   0  0  0  0  0  0  0  0  0  0  0  0
   38.6210   33.4380   39.6770 N   0  0  0  0  0  0  0  0  0  0  0  0
   36.5460   33.7800   39.5740 H   0  0  0  0  0  0  0  0  0  0  0  0
   36.0050   31.5290   40.4140 H   0  0  0  0  0  0  0  0  0  0  0  0
   37.9620   28.8970   38.4910 Cl  0  0  0  0  0  0  0  0  0  0  0  0
   37.6970   28.5460   40.1850 C   0  0  0  0  0  0  0  0  0  0  0  0
   37.7620   29.5680   41.1180 C   0  0  0  0  0  0  0  0  0  0  0  0
   37.5490   29.2570   42.4500 C   0  0  0  0  0  0  0  0  0  0  0  0
   37.2770   27.9640   42.8430 C   0  0  0  0  0  0  0  0  0  0  0  0
   37.2220   26.9730   41.8680 C   0  0  0  0  0  0  0  0  0  0  0  0
   36.8780   25.3360   42.3730 Cl  0  0  0  0  0  0  0  0  0  0  0  0
   37.4280   27.2380   40.5400 C   0  0  0  0  0  0  0  0  0  0  0  0
   37.6030   30.0630   43.1690 H   0  0  0  0  0  0  0  0  0  0  0  0
   37.1080   27.7040   43.8770 H   0  0  0  0  0  0  0  0  0  0  0  0
   37.3840   26.4650   39.7890 H   0  0  0  0  0  0  0  0  0  0  0  0
   40.6670   32.1690   37.2510 Cl  0  0  0  0  0  0  0  0  0  0  0  0
   41.6160   32.8370   38.5810 C   0  0  0  0  0  0  0  0  0  0  0  0
   41.0020   32.9820   39.8170 C   0  0  0  0  0  0  0  0  0  0  0  0
   41.7270   33.4990   40.8540 C   0  0  0  0  0  0  0  0  0  0  0  0
   41.2950   33.6290   41.8240 H   0  0  0  0  0  0  0  0  0  0  0  0
   43.0580   33.8620   40.6340 C   0  0  0  0  0  0  0  0  0  0  0  0
   43.6740   34.2790   41.4380 H   0  0  0  0  0  0  0  0  0  0  0  0
   43.6630   33.7100   39.3860 C   0  0  0  0  0  3  0  0  0  0  0  0
   42.9100   33.1880   38.3610 C   0  0  0  0  0  3  0  0  0  0  0  0
  1  2  1  0  0  0  0
  2  8  1  0  0  0  0
  2  3  2  0  0  0  0
  3 11  1  0  0  0  0
  4  3  1  0  0  0  0
  5  4  2  0  0  0  0
  6  1  2  0  0  0  0
  6  5  1  0  0  0  0
  7  1  1  0  0  0  0
  9 10  1  0  0  0  0
 10 16  2  0  0  0  0
 10 11  1  0  0  0  0
 11 12  2  0  0  0  0
 12 13  1  0  0  0  0
 12 17  1  0  0  0  0
 13 18  1  0  0  0  0
 14 15  1  0  0  0  0
 14 13  2  0  0  0  0
 16 14  1  0  0  0  0
 19 16  1  0  0  0  0
 20 21  1  0  0  0  0
 21 22  1  0  0  0  0
 22  5  1  0  0  0  0
 22 23  2  0  0  0  0
 23 24  1  0  0  0  0
 25 23  1  0  0  0  0
 25 26  1  0  0  0  0
 27 25  2  0  0  0  0
 28 21  2  0  0  0  0
 28 27  1  0  0  0  0
M  END
>  <minimizedAffinity>
-5.20314407

$$$$

 OpenBabel03242522243D

 28 30  0  0  0  0  0  0  0  0999 V2000
   37.4100   32.6140   40.2030 C   0  0  0  0  0  0  0  0  0  0  0  0
   37.0860   31.2990   40.5570 C   0  0  0  0  0  0  0  0  0  0  0  0
   37.9810   30.2520   40.3550 C   0  0  0  0  0  0  0  0  0  0  0  0
   39.1760   30.5820   39.8000 N   0  0  0  0  0  0  0  0  0  0  0  0
   39.4740   31.8510   39.4650 C   0  0  0  0  0  0  0  0  0  0  0  0
   38.6020   32.8430   39.6660 N   0  0  0  0  0  0  0  0  0  0  0  0
   36.6990   33.4060   40.3700 H   0  0  0  0  0  0  0  0  0  0  0  0
   36.1110   31.0980   40.9990 H   0  0  0  0  0  0  0  0  0  0  0  0
   38.7440   29.5890   43.1070 Cl  0  0  0  0  0  0  0  0  0  0  0  0
   37.9800   28.4640   42.0050 C   0  0  0  0  0  0  0  0  0  0  0  0
   37.6570   28.8700   40.7200 C   0  0  0  0  0  0  0  0  0  0  0  0
   37.0530   27.9570   39.8740 C   0  0  0  0  0  0  0  0  0  0  0  0
   36.7800   26.6730   40.2930 C   0  0  0  0  0  0  0  0  0  0  0  0
   37.1240   26.3120   41.5920 C   0  0  0  0  0  0  0  0  0  0  0  0
   36.7740   24.6830   42.1170 Cl  0  0  0  0  0  0  0  0  0  0  0  0
   37.7220   27.1860   42.4620 C   0  0  0  0  0  0  0  0  0  0  0  0
   36.8050   28.2860   38.8740 H   0  0  0  0  0  0  0  0  0  0  0  0
   36.3090   25.9470   39.6460 H   0  0  0  0  0  0  0  0  0  0  0  0
   37.9870   26.9000   43.4680 H   0  0  0  0  0  0  0  0  0  0  0  0
   41.6360   32.2740   41.4420 Cl  0  0  0  0  0  0  0  0  0  0  0  0
   41.8790   32.3490   39.6950 C   0  0  0  0  0  0  0  0  0  0  0  0
   40.7840   32.1330   38.8700 C   0  0  0  0  0  0  0  0  0  0  0  0
   40.9600   32.1880   37.5160 C   0  0  0  0  0  0  0  0  0  0  0  0
   40.1450   32.0270   36.8420 H   0  0  0  0  0  0  0  0  0  0  0  0
   42.2340   32.4600   37.0110 C   0  0  0  0  0  0  0  0  0  0  0  0
   42.4180   32.5140   35.9320 H   0  0  0  0  0  0  0  0  0  0  0  0
   43.3260   32.6760   37.8510 C   0  0  0  0  0  3  0  0  0  0  0  0
   43.1200   32.6140   39.2090 C   0  0  0  0  0  3  0  0  0  0  0  0
  1  7  1  0  0  0  0
  1  2  1  0  0  0  0
  2  8  1  0  0  0  0
  3  2  2  0  0  0  0
  3 11  1  0  0  0  0
  4  3  1  0  0  0  0
  5  6  1  0  0  0  0
  5  4  2  0  0  0  0
  6  1  2  0  0  0  0
 10 16  1  0  0  0  0
 10  9  1  0  0  0  0
 11 10  2  0  0  0  0
 12 13  2  0  0  0  0
 12 11  1  0  0  0  0
 13 14  1  0  0  0  0
 14 15  1  0  0  0  0
 14 16  2  0  0  0  0
 16 19  1  0  0  0  0
 17 12  1  0  0  0  0
 18 13  1  0  0  0  0
 21 20  1  0  0  0  0
 22  5  1  0  0  0  0
 22 21  2  0  0  0  0
 23 22  1  0  0  0  0
 24 23  1  0  0  0  0
 25 23  2  0  0  0  0
 25 27  1  0  0  0  0
 26 25  1  0  0  0  0
 27 28  2  0  0  0  0
 28 21  1  0  0  0  0
M  END
>  <minimizedAffinity>
-5.19972372

$$$$
