
 OpenBabel03242519063D

 43 46  0  0  1  0  0  0  0  0999 V2000
   48.6510   33.4640   38.9450 N   0  0  0  0  0  0  0  0  0  0  0  0
   49.4930   34.0830   38.9640 H   0  0  0  0  0  0  0  0  0  0  0  0
   47.5900   34.3610   42.2260 N   0  0  0  0  0  0  0  0  0  0  0  0
   47.6720   34.6970   40.8260 C   0  0  0  0  0  0  0  0  0  0  0  0
   48.1080   33.3620   40.2810 C   0  0  2  0  0  0  0  0  0  0  0  0
   49.2640   33.0520   41.2030 C   0  0  0  0  0  0  0  0  0  0  0  0
   48.7860   33.6170   42.5200 C   0  0  0  0  0  0  0  0  0  0  0  0
   48.4680   35.4180   40.6030 H   0  0  0  0  0  0  0  0  0  0  0  0
   46.6960   35.0300   40.4180 H   0  0  0  0  0  0  0  0  0  0  0  0
   47.3080   32.6270   40.4000 H   0  0  0  0  0  0  0  0  0  0  0  0
   49.4150   31.9720   41.2980 H   0  0  0  0  0  0  0  0  0  0  0  0
   50.1660   33.6100   40.9170 H   0  0  0  0  0  0  0  0  0  0  0  0
   48.5500   32.8130   43.2610 H   0  0  0  0  0  0  0  0  0  0  0  0
   49.5790   34.2340   43.0080 H   0  0  0  0  0  0  0  0  0  0  0  0
   44.7300   35.8820   44.0870 C   0  0  0  0  0  0  0  0  0  0  0  0
   45.6740   35.6770   43.0810 C   0  0  0  0  0  0  0  0  0  0  0  0
   46.6020   34.6520   43.1780 C   0  0  0  0  0  0  0  0  0  0  0  0
   46.5390   33.8640   44.2990 N   0  0  0  0  0  0  0  0  0  0  0  0
   45.6220   34.0670   45.2700 C   0  0  0  0  0  0  0  0  0  0  0  0
   44.7240   35.0690   45.1630 N   0  0  0  0  0  0  0  0  0  0  0  0
   44.0360   36.6850   43.9660 H   0  0  0  0  0  0  0  0  0  0  0  0
   45.7140   36.2970   42.2110 H   0  0  0  0  0  0  0  0  0  0  0  0
   45.5750   33.4460   46.1510 H   0  0  0  0  0  0  0  0  0  0  0  0
   49.0690   32.1220   36.8880 C   0  0  0  0  0  0  0  0  0  0  0  0
   48.2370   32.8910   37.7220 C   0  0  0  0  0  0  0  0  0  0  0  0
   46.9670   33.0430   37.2400 C   0  0  0  0  0  0  0  0  0  0  0  0
   46.4880   32.5190   36.0640 C   0  0  0  0  0  0  0  0  0  0  0  0
   47.3290   31.7740   35.2760 C   0  0  0  0  0  0  0  0  0  0  0  0
   48.6230   31.5890   35.7120 C   0  0  0  0  0  0  0  0  0  0  0  0
   46.2850   33.6290   37.8500 H   0  0  0  0  0  0  0  0  0  0  0  0
   45.4670   32.6840   35.7500 H   0  0  0  0  0  0  0  0  0  0  0  0
   46.9670   31.3560   34.3470 H   0  0  0  0  0  0  0  0  0  0  0  0
   49.4640   33.0950   33.2740 Cl  0  0  0  0  0  0  0  0  0  0  0  0
   49.9070   31.4560   33.6910 C   0  0  0  0  0  0  0  0  0  0  0  0
   49.4860   30.7920   34.8480 C   0  0  0  0  0  0  0  0  0  0  0  0
   49.9080   29.4940   35.0590 C   0  0  0  0  0  0  0  0  0  0  0  0
   49.5240   29.0830   35.9780 H   0  0  0  0  0  0  0  0  0  0  0  0
   50.7230   28.8690   34.1550 C   0  0  0  0  0  0  0  0  0  0  0  0
   50.9940   27.8490   34.4190 H   0  0  0  0  0  0  0  0  0  0  0  0
   51.1330   29.5260   33.0190 C   0  0  0  0  0  0  0  0  0  0  0  0
   50.7240   30.8290   32.7820 C   0  0  0  0  0  0  0  0  0  0  0  0
   51.5320   31.7660   37.6750 N   0  0  0  0  0  0  0  0  0  0  0  0
   50.4330   31.9140   37.3250 C   0  0  0  0  0  0  0  0  0  0  0  0
  1  2  1  0  0  0  0
  1  5  1  0  0  0  0
  3  7  1  0  0  0  0
  3 17  1  0  0  0  0
  4  3  1  0  0  0  0
  5 10  1  1  0  0  0
  5  4  1  0  0  0  0
  5  6  1  0  0  0  0
  6 11  1  0  0  0  0
  6  7  1  0  0  0  0
  7 14  1  0  0  0  0
  7 13  1  0  0  0  0
  8  4  1  0  0  0  0
  9  4  1  0  0  0  0
 12  6  1  0  0  0  0
 15 20  1  0  0  0  0
 16 17  1  0  0  0  0
 16 15  2  0  0  0  0
 17 18  2  0  0  0  0
 18 19  1  0  0  0  0
 19 23  1  0  0  0  0
 20 19  2  0  0  0  0
 21 15  1  0  0  0  0
 22 16  1  0  0  0  0
 24 43  1  0  0  0  0
 24 25  1  0  0  0  0
 25  1  1  0  0  0  0
 26 25  2  0  0  0  0
 26 30  1  0  0  0  0
 27 26  1  0  0  0  0
 28 29  1  0  0  0  0
 28 27  2  0  0  0  0
 29 24  2  0  0  0  0
 31 27  1  0  0  0  0
 32 28  1  0  0  0  0
 33 34  1  0  0  0  0
 34 35  1  0  0  0  0
 35 36  2  0  0  0  0
 35 29  1  0  0  0  0
 36 37  1  0  0  0  0
 38 39  1  0  0  0  0
 38 36  1  0  0  0  0
 40 38  2  0  0  0  0
 41 40  1  0  0  0  0
 41 34  2  0  0  0  0
 43 42  3  0  0  0  0
M  END
>  <minimizedAffinity>
-5.30467844

>  <minimizedRMSD>
1.61889195

$$$$
