
 OpenBabel03252502223D

 33 35  0  0  1  0  0  0  0  0999 V2000
   37.8170   29.5670   41.7860 N   0  0  0  0  0  0  0  0  0  0  0  0
   38.6830   29.6010   42.9640 C   0  0  0  0  0  0  0  0  0  0  0  0
   39.0600   28.1550   43.2320 C   0  0  0  0  0  0  0  0  0  0  0  0
   37.8670   27.3150   43.5440 C   0  0  0  0  0  0  0  0  0  0  0  0
   36.6050   27.7110   42.8380 C   0  0  0  0  0  0  0  0  0  0  0  0
   36.8110   28.5800   41.6290 C   0  0  2  0  0  0  0  0  0  0  0  0
   39.5490   30.2450   42.8410 H   0  0  0  0  0  0  0  0  0  0  0  0
   38.0120   29.9930   43.7770 H   0  0  0  0  0  0  0  0  0  0  0  0
   39.5160   27.7790   42.2980 H   0  0  0  0  0  0  0  0  0  0  0  0
   39.7760   28.0890   44.0900 H   0  0  0  0  0  0  0  0  0  0  0  0
   38.1690   26.2450   43.3410 H   0  0  0  0  0  0  0  0  0  0  0  0
   37.7370   27.3110   44.6580 H   0  0  0  0  0  0  0  0  0  0  0  0
   36.0050   26.8360   42.5130 H   0  0  0  0  0  0  0  0  0  0  0  0
   35.9870   28.2470   43.5880 H   0  0  0  0  0  0  0  0  0  0  0  0
   35.8410   29.2090   41.5990 H   0  0  0  0  0  0  0  0  0  0  0  0
   37.2210   32.5280   39.5880 C   0  0  0  0  0  0  0  0  0  0  0  0
   37.0150   31.5690   40.5750 C   0  0  0  0  0  0  0  0  0  0  0  0
   37.9470   30.5590   40.7880 C   0  0  0  0  0  0  0  0  0  0  0  0
   39.0610   30.5740   39.9730 N   0  0  0  0  0  0  0  0  0  0  0  0
   39.2340   31.5270   39.0160 C   0  0  0  0  0  0  0  0  0  0  0  0
   38.3110   32.4930   38.8350 N   0  0  0  0  0  0  0  0  0  0  0  0
   36.5180   33.3260   39.3960 H   0  0  0  0  0  0  0  0  0  0  0  0
   36.1120   31.6760   41.1140 H   0  0  0  0  0  0  0  0  0  0  0  0
   40.1670   31.3950   38.4600 H   0  0  0  0  0  0  0  0  0  0  0  0
   34.4650   29.1910   39.7890 Cl  0  0  0  0  0  0  0  0  0  0  0  0
   35.7160   27.9850   39.4340 C   0  0  0  0  0  0  0  0  0  0  0  0
   36.7540   27.8230   40.3690 C   0  0  0  0  0  0  0  0  0  0  0  0
   37.6350   26.8460   39.9320 C   0  0  0  0  0  0  0  0  0  0  0  0
   38.4710   26.6140   40.5450 H   0  0  0  0  0  0  0  0  0  0  0  0
   37.5400   26.1300   38.7760 C   0  0  0  0  0  0  0  0  0  0  0  0
   38.2610   25.3850   38.4980 H   0  0  0  0  0  0  0  0  0  0  0  0
   36.4890   26.3610   37.9250 C   0  0  0  0  0  3  0  0  0  0  0  0
   35.5580   27.3010   38.2510 C   0  0  0  0  0  3  0  0  0  0  0  0
  1  2  1  0  0  0  0
  2  3  1  0  0  0  0
  2  8  1  0  0  0  0
  3  4  1  0  0  0  0
  3 10  1  0  0  0  0
  4 12  1  0  0  0  0
  5  4  1  0  0  0  0
  5 14  1  0  0  0  0
  6 15  1  6  0  0  0
  6  1  1  0  0  0  0
  6  5  1  0  0  0  0
  7  2  1  0  0  0  0
  9  3  1  0  0  0  0
 11  4  1  0  0  0  0
 13  5  1  0  0  0  0
 16 17  1  0  0  0  0
 17 18  2  0  0  0  0
 17 23  1  0  0  0  0
 18  1  1  0  0  0  0
 19 18  1  0  0  0  0
 20 19  2  0  0  0  0
 21 20  1  0  0  0  0
 21 16  2  0  0  0  0
 22 16  1  0  0  0  0
 24 20  1  0  0  0  0
 26 25  1  0  0  0  0
 26 27  1  0  0  0  0
 27  6  1  0  0  0  0
 28 27  2  0  0  0  0
 28 29  1  0  0  0  0
 30 28  1  0  0  0  0
 31 30  1  0  0  0  0
 32 33  1  0  0  0  0
 32 30  2  0  0  0  0
 33 26  2  0  0  0  0
M  END
>  <minimizedAffinity>
-5.17521763

$$$$

 OpenBabel03252502223D

 33 35  0  0  1  0  0  0  0  0999 V2000
   36.4200   26.9220   39.7230 N   0  0  0  0  0  0  0  0  0  0  0  0
   35.8820   26.8290   38.3660 C   0  0  0  0  0  0  0  0  0  0  0  0
   35.9900   28.2280   37.7890 C   0  0  0  0  0  0  0  0  0  0  0  0
   35.1740   29.2140   38.5570 C   0  0  0  0  0  0  0  0  0  0  0  0
   35.0640   28.9450   40.0270 C   0  0  0  0  0  0  0  0  0  0  0  0
   36.1120   28.0150   40.5720 C   0  0  2  0  0  0  0  0  0  0  0  0
   36.3850   26.0830   37.7560 H   0  0  0  0  0  0  0  0  0  0  0  0
   34.8060   26.5480   38.5250 H   0  0  0  0  0  0  0  0  0  0  0  0
   37.0550   28.5150   37.8770 H   0  0  0  0  0  0  0  0  0  0  0  0
   35.6520   28.2400   36.7220 H   0  0  0  0  0  0  0  0  0  0  0  0
   35.6050   30.2330   38.3260 H   0  0  0  0  0  0  0  0  0  0  0  0
   34.1670   29.2730   38.0670 H   0  0  0  0  0  0  0  0  0  0  0  0
   35.1020   29.8730   40.6350 H   0  0  0  0  0  0  0  0  0  0  0  0
   34.0550   28.5120   40.1870 H   0  0  0  0  0  0  0  0  0  0  0  0
   35.5650   27.5040   41.4540 H   0  0  0  0  0  0  0  0  0  0  0  0
   37.6660   23.9440   41.6020 C   0  0  0  0  0  0  0  0  0  0  0  0
   36.8120   24.9530   41.1660 C   0  0  0  0  0  0  0  0  0  0  0  0
   37.2380   25.8880   40.2280 C   0  0  0  0  0  0  0  0  0  0  0  0
   38.5340   25.7490   39.7740 N   0  0  0  0  0  0  0  0  0  0  0  0
   39.3450   24.7510   40.2200 C   0  0  0  0  0  0  0  0  0  0  0  0
   38.9010   23.8590   41.1280 N   0  0  0  0  0  0  0  0  0  0  0  0
   37.3670   23.2020   42.3280 H   0  0  0  0  0  0  0  0  0  0  0  0
   35.8520   24.9410   41.6090 H   0  0  0  0  0  0  0  0  0  0  0  0
   40.3380   24.7830   39.7600 H   0  0  0  0  0  0  0  0  0  0  0  0
   36.4230   27.5450   43.5630 Cl  0  0  0  0  0  0  0  0  0  0  0  0
   37.4630   28.6240   42.6150 C   0  0  0  0  0  0  0  0  0  0  0  0
   37.2140   28.7290   41.2350 C   0  0  0  0  0  0  0  0  0  0  0  0
   38.1170   29.6090   40.6580 C   0  0  0  0  0  0  0  0  0  0  0  0
   38.0440   29.7890   39.6140 H   0  0  0  0  0  0  0  0  0  0  0  0
   39.1080   30.2880   41.3020 C   0  0  0  0  0  0  0  0  0  0  0  0
   39.7740   30.9570   40.7910 H   0  0  0  0  0  0  0  0  0  0  0  0
   39.2730   30.1190   42.6530 C   0  0  0  0  0  3  0  0  0  0  0  0
   38.4430   29.2760   43.3280 C   0  0  0  0  0  3  0  0  0  0  0  0
  1 18  1  0  0  0  0
  1  6  1  0  0  0  0
  2  8  1  0  0  0  0
  2  1  1  0  0  0  0
  3  9  1  0  0  0  0
  3  2  1  0  0  0  0
  3  4  1  0  0  0  0
  4  5  1  0  0  0  0
  5 14  1  0  0  0  0
  5  6  1  0  0  0  0
  5 13  1  0  0  0  0
  6 27  1  0  0  0  0
  6 15  1  1  0  0  0
  7  2  1  0  0  0  0
 10  3  1  0  0  0  0
 11  4  1  0  0  0  0
 12  4  1  0  0  0  0
 16 22  1  0  0  0  0
 17 16  1  0  0  0  0
 17 23  1  0  0  0  0
 18 17  2  0  0  0  0
 19 20  2  0  0  0  0
 19 18  1  0  0  0  0
 20 21  1  0  0  0  0
 21 16  2  0  0  0  0
 24 20  1  0  0  0  0
 26 33  1  0  0  0  0
 26 25  1  0  0  0  0
 27 26  2  0  0  0  0
 28 27  1  0  0  0  0
 28 30  2  0  0  0  0
 29 28  1  0  0  0  0
 30 32  1  0  0  0  0
 31 30  1  0  0  0  0
 32 33  2  0  0  0  0
M  END
>  <minimizedAffinity>
-5.02422237

$$$$

 OpenBabel03252502223D

 33 35  0  0  1  0  0  0  0  0999 V2000
   37.6120   30.0840   40.8540 N   0  0  0  0  0  0  0  0  0  0  0  0
   38.3570   31.3280   40.6620 C   0  0  0  0  0  0  0  0  0  0  0  0
   39.8030   30.9890   40.9770 C   0  0  0  0  0  0  0  0  0  0  0  0
   39.9770   30.5450   42.3910 C   0  0  0  0  0  0  0  0  0  0  0  0
   38.8170   29.7930   42.9720 C   0  0  0  0  0  0  0  0  0  0  0  0
   37.8670   29.2270   41.9540 C   0  0  2  0  0  0  0  0  0  0  0  0
   38.2330   31.7540   39.6700 H   0  0  0  0  0  0  0  0  0  0  0  0
   37.9330   32.0170   41.4420 H   0  0  0  0  0  0  0  0  0  0  0  0
   40.0720   30.1470   40.3130 H   0  0  0  0  0  0  0  0  0  0  0  0
   40.4620   31.8760   40.7990 H   0  0  0  0  0  0  0  0  0  0  0  0
   40.9440   29.9600   42.4250 H   0  0  0  0  0  0  0  0  0  0  0  0
   40.2330   31.4510   43.0010 H   0  0  0  0  0  0  0  0  0  0  0  0
   39.1370   28.9530   43.6230 H   0  0  0  0  0  0  0  0  0  0  0  0
   38.2830   30.5090   43.6300 H   0  0  0  0  0  0  0  0  0  0  0  0
   36.8570   29.2320   42.5180 H   0  0  0  0  0  0  0  0  0  0  0  0
   34.3220   29.0880   39.3950 C   0  0  0  0  0  0  0  0  0  0  0  0
   35.2920   29.4000   40.3420 C   0  0  0  0  0  0  0  0  0  0  0  0
   36.5840   29.7330   39.9510 C   0  0  0  0  0  0  0  0  0  0  0  0
   36.8310   29.7310   38.5930 N   0  0  0  0  0  0  0  0  0  0  0  0
   35.8600   29.4210   37.6910 C   0  0  0  0  0  0  0  0  0  0  0  0
   34.6160   29.1030   38.1020 N   0  0  0  0  0  0  0  0  0  0  0  0
   33.3090   28.8250   39.6640 H   0  0  0  0  0  0  0  0  0  0  0  0
   34.9620   29.3500   41.3460 H   0  0  0  0  0  0  0  0  0  0  0  0
   36.2200   29.4670   36.6580 H   0  0  0  0  0  0  0  0  0  0  0  0
   36.2180   27.2750   43.6080 Cl  0  0  0  0  0  0  0  0  0  0  0  0
   37.4220   26.7830   42.4020 C   0  0  0  0  0  0  0  0  0  0  0  0
   38.0960   27.7970   41.6980 C   0  0  0  0  0  0  0  0  0  0  0  0
   38.9930   27.2340   40.8030 C   0  0  0  0  0  0  0  0  0  0  0  0
   39.5780   27.8850   40.2020 H   0  0  0  0  0  0  0  0  0  0  0  0
   39.2140   25.9020   40.6090 C   0  0  0  0  0  0  0  0  0  0  0  0
   39.9270   25.5340   39.8970 H   0  0  0  0  0  0  0  0  0  0  0  0
   38.5050   24.9880   41.3460 C   0  0  0  0  0  3  0  0  0  0  0  0
   37.5930   25.4250   42.2580 C   0  0  0  0  0  3  0  0  0  0  0  0
  1  6  1  0  0  0  0
  2  1  1  0  0  0  0
  2  3  1  0  0  0  0
  2  8  1  0  0  0  0
  3  4  1  0  0  0  0
  4 11  1  0  0  0  0
  4  5  1  0  0  0  0
  4 12  1  0  0  0  0
  5 13  1  0  0  0  0
  5 14  1  0  0  0  0
  6 15  1  1  0  0  0
  6  5  1  0  0  0  0
  7  2  1  0  0  0  0
  9  3  1  0  0  0  0
 10  3  1  0  0  0  0
 16 22  1  0  0  0  0
 16 17  1  0  0  0  0
 17 23  1  0  0  0  0
 18 17  2  0  0  0  0
 18  1  1  0  0  0  0
 19 18  1  0  0  0  0
 20 21  1  0  0  0  0
 20 19  2  0  0  0  0
 21 16  2  0  0  0  0
 24 20  1  0  0  0  0
 26 25  1  0  0  0  0
 27  6  1  0  0  0  0
 27 26  2  0  0  0  0
 28 27  1  0  0  0  0
 29 28  1  0  0  0  0
 30 28  2  0  0  0  0
 30 32  1  0  0  0  0
 31 30  1  0  0  0  0
 32 33  2  0  0  0  0
 33 26  1  0  0  0  0
M  END
>  <minimizedAffinity>
-4.9687562

$$$$

 OpenBabel03252502223D

 33 35  0  0  1  0  0  0  0  0999 V2000
   37.0670   29.4540   38.8300 N   0  0  0  0  0  0  0  0  0  0  0  0
   36.0110   29.5140   37.8190 C   0  0  0  0  0  0  0  0  0  0  0  0
   34.9680   28.5030   38.2590 C   0  0  0  0  0  0  0  0  0  0  0  0
   35.5150   27.1150   38.2940 C   0  0  0  0  0  0  0  0  0  0  0  0
   36.9630   27.0070   38.6660 C   0  0  0  0  0  0  0  0  0  0  0  0
   37.5220   28.2190   39.3580 C   0  0  2  0  0  0  0  0  0  0  0  0
   35.6000   30.5110   37.6870 H   0  0  0  0  0  0  0  0  0  0  0  0
   36.5230   29.1710   36.8790 H   0  0  0  0  0  0  0  0  0  0  0  0
   34.6800   28.7890   39.2880 H   0  0  0  0  0  0  0  0  0  0  0  0
   34.0870   28.5220   37.5690 H   0  0  0  0  0  0  0  0  0  0  0  0
   34.8380   26.5230   38.9780 H   0  0  0  0  0  0  0  0  0  0  0  0
   35.3050   26.6440   37.2980 H   0  0  0  0  0  0  0  0  0  0  0  0
   37.1720   26.1340   39.3180 H   0  0  0  0  0  0  0  0  0  0  0  0
   37.5120   26.8260   37.7200 H   0  0  0  0  0  0  0  0  0  0  0  0
   38.6340   28.2030   39.0420 H   0  0  0  0  0  0  0  0  0  0  0  0
   37.6940   32.7890   40.3900 C   0  0  0  0  0  0  0  0  0  0  0  0
   37.0160   31.6520   39.9620 C   0  0  0  0  0  0  0  0  0  0  0  0
   37.6840   30.6440   39.2740 C   0  0  0  0  0  0  0  0  0  0  0  0
   39.0310   30.8470   39.0510 N   0  0  0  0  0  0  0  0  0  0  0  0
   39.6660   31.9710   39.4840 C   0  0  0  0  0  0  0  0  0  0  0  0
   38.9900   32.9290   40.1490 N   0  0  0  0  0  0  0  0  0  0  0  0
   37.2060   33.5890   40.9280 H   0  0  0  0  0  0  0  0  0  0  0  0
   35.9850   31.6390   40.1940 H   0  0  0  0  0  0  0  0  0  0  0  0
   40.7300   31.9740   39.2260 H   0  0  0  0  0  0  0  0  0  0  0  0
   40.3050   27.9640   40.5610 Cl  0  0  0  0  0  0  0  0  0  0  0  0
   38.8070   27.9060   41.5080 C   0  0  0  0  0  0  0  0  0  0  0  0
   37.5910   28.0580   40.8190 C   0  0  0  0  0  0  0  0  0  0  0  0
   36.5310   27.9870   41.7100 C   0  0  0  0  0  0  0  0  0  0  0  0
   35.5450   28.0830   41.3260 H   0  0  0  0  0  0  0  0  0  0  0  0
   36.6190   27.7990   43.0580 C   0  0  0  0  0  0  0  0  0  0  0  0
   35.7540   27.7540   43.6910 H   0  0  0  0  0  0  0  0  0  0  0  0
   37.8540   27.6620   43.6390 C   0  0  0  0  0  3  0  0  0  0  0  0
   38.9700   27.7140   42.8610 C   0  0  0  0  0  3  0  0  0  0  0  0
  1 18  1  0  0  0  0
  1  6  1  0  0  0  0
  2  3  1  0  0  0  0
  2  1  1  0  0  0  0
  3  4  1  0  0  0  0
  3  9  1  0  0  0  0
  4  5  1  0  0  0  0
  4 11  1  0  0  0  0
  5 13  1  0  0  0  0
  5  6  1  0  0  0  0
  6 15  1  6  0  0  0
  6 27  1  0  0  0  0
  7  2  1  0  0  0  0
  8  2  1  0  0  0  0
 10  3  1  0  0  0  0
 12  4  1  0  0  0  0
 14  5  1  0  0  0  0
 16 22  1  0  0  0  0
 17 23  1  0  0  0  0
 17 16  2  0  0  0  0
 18 17  1  0  0  0  0
 19 18  2  0  0  0  0
 19 20  1  0  0  0  0
 20 21  2  0  0  0  0
 21 16  1  0  0  0  0
 24 20  1  0  0  0  0
 25 26  1  0  0  0  0
 26 33  1  0  0  0  0
 27 26  2  0  0  0  0
 27 28  1  0  0  0  0
 28 30  2  0  0  0  0
 29 28  1  0  0  0  0
 30 32  1  0  0  0  0
 30 31  1  0  0  0  0
 33 32  2  0  0  0  0
M  END
>  <minimizedAffinity>
-4.95191097

$$$$

 OpenBabel03252502223D

 33 35  0  0  1  0  0  0  0  0999 V2000
   39.3260   29.3420   42.0980 N   0  0  0  0  0  0  0  0  0  0  0  0
   40.3940   28.7410   42.8970 C   0  0  0  0  0  0  0  0  0  0  0  0
   40.0530   27.2650   42.9860 C   0  0  0  0  0  0  0  0  0  0  0  0
   38.7520   27.0310   43.6780 C   0  0  0  0  0  0  0  0  0  0  0  0
   37.7170   28.0960   43.4700 C   0  0  0  0  0  0  0  0  0  0  0  0
   37.9670   28.9850   42.2840 C   0  0  2  0  0  0  0  0  0  0  0  0
   41.3860   28.9200   42.4920 H   0  0  0  0  0  0  0  0  0  0  0  0
   40.2840   29.2340   43.9020 H   0  0  0  0  0  0  0  0  0  0  0  0
   39.9610   26.9090   41.9420 H   0  0  0  0  0  0  0  0  0  0  0  0
   40.8550   26.7090   43.5360 H   0  0  0  0  0  0  0  0  0  0  0  0
   38.4010   26.0050   43.3600 H   0  0  0  0  0  0  0  0  0  0  0  0
   38.9730   26.8720   44.7660 H   0  0  0  0  0  0  0  0  0  0  0  0
   36.6950   27.6800   43.3570 H   0  0  0  0  0  0  0  0  0  0  0  0
   37.7050   28.7000   44.4000 H   0  0  0  0  0  0  0  0  0  0  0  0
   37.4850   29.9850   42.6100 H   0  0  0  0  0  0  0  0  0  0  0  0
   40.3180   31.0760   38.9430 C   0  0  0  0  0  0  0  0  0  0  0  0
   40.0510   30.0490   39.8420 C   0  0  0  0  0  0  0  0  0  0  0  0
   39.6370   30.3320   41.1400 C   0  0  0  0  0  0  0  0  0  0  0  0
   39.5160   31.6680   41.4640 N   0  0  0  0  0  0  0  0  0  0  0  0
   39.7840   32.6500   40.5610 C   0  0  0  0  0  0  0  0  0  0  0  0
   40.1820   32.3430   39.3100 N   0  0  0  0  0  0  0  0  0  0  0  0
   40.6400   30.8920   37.9280 H   0  0  0  0  0  0  0  0  0  0  0  0
   40.1980   29.0760   39.4580 H   0  0  0  0  0  0  0  0  0  0  0  0
   39.6370   33.6520   40.9780 H   0  0  0  0  0  0  0  0  0  0  0  0
   36.1120   31.1160   41.1520 Cl  0  0  0  0  0  0  0  0  0  0  0  0
   36.2550   29.4750   40.4940 C   0  0  0  0  0  0  0  0  0  0  0  0
   37.1700   28.6010   41.1090 C   0  0  0  0  0  0  0  0  0  0  0  0
   37.1500   27.3710   40.4690 C   0  0  0  0  0  0  0  0  0  0  0  0
   37.7930   26.6070   40.8310 H   0  0  0  0  0  0  0  0  0  0  0  0
   36.3730   27.0270   39.4020 C   0  0  0  0  0  0  0  0  0  0  0  0
   36.4090   26.0530   38.9540 H   0  0  0  0  0  0  0  0  0  0  0  0
   35.5110   27.9520   38.8710 C   0  0  0  0  0  3  0  0  0  0  0  0
   35.4430   29.1970   39.4190 C   0  0  0  0  0  3  0  0  0  0  0  0
  1  6  1  0  0  0  0
  1  2  1  0  0  0  0
  2  3  1  0  0  0  0
  2  8  1  0  0  0  0
  3 10  1  0  0  0  0
  3  4  1  0  0  0  0
  4 12  1  0  0  0  0
  5  4  1  0  0  0  0
  5 14  1  0  0  0  0
  6 15  1  1  0  0  0
  6  5  1  0  0  0  0
  7  2  1  0  0  0  0
  9  3  1  0  0  0  0
 11  4  1  0  0  0  0
 13  5  1  0  0  0  0
 16 21  2  0  0  0  0
 16 17  1  0  0  0  0
 17 18  2  0  0  0  0
 18 19  1  0  0  0  0
 18  1  1  0  0  0  0
 20 24  1  0  0  0  0
 20 19  2  0  0  0  0
 21 20  1  0  0  0  0
 22 16  1  0  0  0  0
 23 17  1  0  0  0  0
 26 27  1  0  0  0  0
 26 25  1  0  0  0  0
 27  6  1  0  0  0  0
 28 29  1  0  0  0  0
 28 27  2  0  0  0  0
 30 28  1  0  0  0  0
 31 30  1  0  0  0  0
 32 30  2  0  0  0  0
 32 33  1  0  0  0  0
 33 26  2  0  0  0  0
M  END
>  <minimizedAffinity>
-4.87265396

$$$$

 OpenBabel03252502223D

 33 35  0  0  1  0  0  0  0  0999 V2000
   38.9560   27.6070   41.8260 N   0  0  0  0  0  0  0  0  0  0  0  0
   38.4030   26.3100   42.2140 C   0  0  0  0  0  0  0  0  0  0  0  0
   36.9200   26.5470   42.4270 C   0  0  0  0  0  0  0  0  0  0  0  0
   36.6620   27.5220   43.5280 C   0  0  0  0  0  0  0  0  0  0  0  0
   37.6910   28.6020   43.6790 C   0  0  0  0  0  0  0  0  0  0  0  0
   38.5630   28.8060   42.4720 C   0  0  2  0  0  0  0  0  0  0  0  0
   38.6030   25.5250   41.4900 H   0  0  0  0  0  0  0  0  0  0  0  0
   38.9130   26.0840   43.1900 H   0  0  0  0  0  0  0  0  0  0  0  0
   36.5400   26.9810   41.4830 H   0  0  0  0  0  0  0  0  0  0  0  0
   36.3990   25.5860   42.6730 H   0  0  0  0  0  0  0  0  0  0  0  0
   35.6200   27.9250   43.3590 H   0  0  0  0  0  0  0  0  0  0  0  0
   36.5320   26.9350   44.4750 H   0  0  0  0  0  0  0  0  0  0  0  0
   37.2430   29.5860   43.9290 H   0  0  0  0  0  0  0  0  0  0  0  0
   38.3140   28.3140   44.5510 H   0  0  0  0  0  0  0  0  0  0  0  0
   39.5550   29.1810   42.9350 H   0  0  0  0  0  0  0  0  0  0  0  0
   42.1910   27.9880   39.9990 C   0  0  0  0  0  0  0  0  0  0  0  0
   41.2770   27.9570   41.0470 C   0  0  0  0  0  0  0  0  0  0  0  0
   39.9350   27.6790   40.8100 C   0  0  0  0  0  0  0  0  0  0  0  0
   39.5830   27.4460   39.4960 N   0  0  0  0  0  0  0  0  0  0  0  0
   40.5020   27.4830   38.4920 C   0  0  0  0  0  0  0  0  0  0  0  0
   41.7950   27.7540   38.7550 N   0  0  0  0  0  0  0  0  0  0  0  0
   43.2400   28.2000   40.1480 H   0  0  0  0  0  0  0  0  0  0  0  0
   41.6880   28.1660   41.9980 H   0  0  0  0  0  0  0  0  0  0  0  0
   40.0580   27.2750   37.5130 H   0  0  0  0  0  0  0  0  0  0  0  0
   40.4410   31.1990   42.3800 Cl  0  0  0  0  0  0  0  0  0  0  0  0
   38.8870   31.1260   41.5290 C   0  0  0  0  0  0  0  0  0  0  0  0
   38.1320   29.9450   41.6470 C   0  0  0  0  0  0  0  0  0  0  0  0
   36.9550   30.0630   40.9210 C   0  0  0  0  0  0  0  0  0  0  0  0
   36.2810   29.2430   40.9230 H   0  0  0  0  0  0  0  0  0  0  0  0
   36.5600   31.1460   40.1930 C   0  0  0  0  0  0  0  0  0  0  0  0
   35.6330   31.1700   39.6530 H   0  0  0  0  0  0  0  0  0  0  0  0
   37.3680   32.2520   40.1380 C   0  0  0  0  0  3  0  0  0  0  0  0
   38.5520   32.2520   40.8130 C   0  0  0  0  0  3  0  0  0  0  0  0
  1  2  1  0  0  0  0
  1  6  1  0  0  0  0
  2  3  1  0  0  0  0
  2  8  1  0  0  0  0
  3 10  1  0  0  0  0
  3  4  1  0  0  0  0
  4  5  1  0  0  0  0
  4 12  1  0  0  0  0
  5 13  1  0  0  0  0
  5 14  1  0  0  0  0
  6 15  1  1  0  0  0
  6  5  1  0  0  0  0
  7  2  1  0  0  0  0
  9  3  1  0  0  0  0
 11  4  1  0  0  0  0
 16 22  1  0  0  0  0
 16 17  1  0  0  0  0
 17 23  1  0  0  0  0
 18 17  2  0  0  0  0
 18  1  1  0  0  0  0
 19 18  1  0  0  0  0
 20 21  1  0  0  0  0
 20 19  2  0  0  0  0
 21 16  2  0  0  0  0
 24 20  1  0  0  0  0
 26 27  1  0  0  0  0
 26 25  1  0  0  0  0
 27  6  1  0  0  0  0
 28 29  1  0  0  0  0
 28 27  2  0  0  0  0
 30 28  1  0  0  0  0
 31 30  1  0  0  0  0
 32 30  2  0  0  0  0
 32 33  1  0  0  0  0
 33 26  2  0  0  0  0
M  END
>  <minimizedAffinity>
-4.75192451

$$$$

 OpenBabel03252502223D

 33 35  0  0  1  0  0  0  0  0999 V2000
   38.6150   27.7770   41.5090 N   0  0  0  0  0  0  0  0  0  0  0  0
   39.2920   28.2660   42.7100 C   0  0  0  0  0  0  0  0  0  0  0  0
   38.6950   29.6340   42.9850 C   0  0  0  0  0  0  0  0  0  0  0  0
   38.9540   30.5920   41.8700 C   0  0  0  0  0  0  0  0  0  0  0  0
   38.9980   29.9820   40.5020 C   0  0  0  0  0  0  0  0  0  0  0  0
   38.3600   28.6250   40.4020 C   0  0  2  0  0  0  0  0  0  0  0  0
   39.2040   27.5910   43.5570 H   0  0  0  0  0  0  0  0  0  0  0  0
   40.3660   28.3600   42.3910 H   0  0  0  0  0  0  0  0  0  0  0  0
   37.6020   29.4810   43.0650 H   0  0  0  0  0  0  0  0  0  0  0  0
   39.1160   30.0640   43.9300 H   0  0  0  0  0  0  0  0  0  0  0  0
   38.1780   31.4080   41.9650 H   0  0  0  0  0  0  0  0  0  0  0  0
   39.9000   31.1430   42.1120 H   0  0  0  0  0  0  0  0  0  0  0  0
   38.5220   30.6250   39.7330 H   0  0  0  0  0  0  0  0  0  0  0  0
   40.0720   29.9160   40.2290 H   0  0  0  0  0  0  0  0  0  0  0  0
   38.9650   28.1210   39.5540 H   0  0  0  0  0  0  0  0  0  0  0  0
   36.8980   24.5050   42.0490 C   0  0  0  0  0  0  0  0  0  0  0  0
   37.2400   25.8440   42.2070 C   0  0  0  0  0  0  0  0  0  0  0  0
   38.2320   26.4210   41.4210 C   0  0  0  0  0  0  0  0  0  0  0  0
   38.8380   25.5920   40.4980 N   0  0  0  0  0  0  0  0  0  0  0  0
   38.4810   24.2850   40.3680 C   0  0  0  0  0  0  0  0  0  0  0  0
   37.5140   23.7560   41.1450 N   0  0  0  0  0  0  0  0  0  0  0  0
   36.1330   24.0250   42.6420 H   0  0  0  0  0  0  0  0  0  0  0  0
   36.6990   26.3520   42.9600 H   0  0  0  0  0  0  0  0  0  0  0  0
   39.0570   23.7700   39.5920 H   0  0  0  0  0  0  0  0  0  0  0  0
   38.0260   27.6840   37.5270 Cl  0  0  0  0  0  0  0  0  0  0  0  0
   36.6980   28.2960   38.5300 C   0  0  0  0  0  0  0  0  0  0  0  0
   36.9970   28.6780   39.8500 C   0  0  0  0  0  0  0  0  0  0  0  0
   35.8490   29.1280   40.4840 C   0  0  0  0  0  0  0  0  0  0  0  0
   35.9270   29.4540   41.4910 H   0  0  0  0  0  0  0  0  0  0  0  0
   34.6010   29.2020   39.9380 C   0  0  0  0  0  0  0  0  0  0  0  0
   33.7520   29.5620   40.4880 H   0  0  0  0  0  0  0  0  0  0  0  0
   34.4090   28.8040   38.6400 C   0  0  0  0  0  3  0  0  0  0  0  0
   35.4680   28.3430   37.9170 C   0  0  0  0  0  3  0  0  0  0  0  0
  1  2  1  0  0  0  0
  2  3  1  0  0  0  0
  2  7  1  0  0  0  0
  3  9  1  0  0  0  0
  3 10  1  0  0  0  0
  4 11  1  0  0  0  0
  4 12  1  0  0  0  0
  4  3  1  0  0  0  0
  5  4  1  0  0  0  0
  6 15  1  6  0  0  0
  6  5  1  0  0  0  0
  6  1  1  0  0  0  0
  8  2  1  0  0  0  0
 13  5  1  0  0  0  0
 14  5  1  0  0  0  0
 16 17  1  0  0  0  0
 16 22  1  0  0  0  0
 17 23  1  0  0  0  0
 18  1  1  0  0  0  0
 18 17  2  0  0  0  0
 19 18  1  0  0  0  0
 20 19  2  0  0  0  0
 20 21  1  0  0  0  0
 21 16  2  0  0  0  0
 24 20  1  0  0  0  0
 25 26  1  0  0  0  0
 26 27  1  0  0  0  0
 27  6  1  0  0  0  0
 27 28  2  0  0  0  0
 28 29  1  0  0  0  0
 30 28  1  0  0  0  0
 30 31  1  0  0  0  0
 32 30  2  0  0  0  0
 33 26  2  0  0  0  0
 33 32  1  0  0  0  0
M  END
>  <minimizedAffinity>
-4.74446392

$$$$

 OpenBabel03252502223D

 33 35  0  0  1  0  0  0  0  0999 V2000
   37.6740   29.7330   41.3720 N   0  0  0  0  0  0  0  0  0  0  0  0
   37.8200   29.3870   42.7860 C   0  0  0  0  0  0  0  0  0  0  0  0
   38.3720   27.9730   42.8050 C   0  0  0  0  0  0  0  0  0  0  0  0
   37.4350   27.0000   42.1710 C   0  0  0  0  0  0  0  0  0  0  0  0
   36.6200   27.5420   41.0360 C   0  0  0  0  0  0  0  0  0  0  0  0
   37.1590   28.8080   40.4300 C   0  0  2  0  0  0  0  0  0  0  0  0
   38.4410   30.0870   43.3370 H   0  0  0  0  0  0  0  0  0  0  0  0
   36.7650   29.4060   43.1750 H   0  0  0  0  0  0  0  0  0  0  0  0
   39.3020   28.0000   42.2070 H   0  0  0  0  0  0  0  0  0  0  0  0
   38.5720   27.6440   43.8560 H   0  0  0  0  0  0  0  0  0  0  0  0
   38.0570   26.1020   41.8790 H   0  0  0  0  0  0  0  0  0  0  0  0
   36.7870   26.5760   42.9840 H   0  0  0  0  0  0  0  0  0  0  0  0
   36.4980   26.8110   40.2110 H   0  0  0  0  0  0  0  0  0  0  0  0
   35.6040   27.7210   41.4440 H   0  0  0  0  0  0  0  0  0  0  0  0
   36.2020   29.3370   40.0530 H   0  0  0  0  0  0  0  0  0  0  0  0
   37.5280   33.1570   39.8890 C   0  0  0  0  0  0  0  0  0  0  0  0
   37.1290   31.8830   40.2790 C   0  0  0  0  0  0  0  0  0  0  0  0
   38.0160   31.0290   40.9270 C   0  0  0  0  0  0  0  0  0  0  0  0
   39.2870   31.5210   41.1470 N   0  0  0  0  0  0  0  0  0  0  0  0
   39.6460   32.7730   40.7520 C   0  0  0  0  0  0  0  0  0  0  0  0
   38.7630   33.5770   40.1280 N   0  0  0  0  0  0  0  0  0  0  0  0
   36.8650   33.8460   39.3850 H   0  0  0  0  0  0  0  0  0  0  0  0
   36.1300   31.6380   40.0350 H   0  0  0  0  0  0  0  0  0  0  0  0
   40.6860   33.0070   41.0030 H   0  0  0  0  0  0  0  0  0  0  0  0
   35.7570   29.5360   37.8290 Cl  0  0  0  0  0  0  0  0  0  0  0  0
   37.3840   28.8350   37.9160 C   0  0  0  0  0  0  0  0  0  0  0  0
   37.9140   28.5670   39.1900 C   0  0  0  0  0  0  0  0  0  0  0  0
   39.1850   28.0250   39.0690 C   0  0  0  0  0  0  0  0  0  0  0  0
   39.7070   27.7690   39.9570 H   0  0  0  0  0  0  0  0  0  0  0  0
   39.8490   27.7760   37.9050 C   0  0  0  0  0  0  0  0  0  0  0  0
   40.8360   27.3540   37.8830 H   0  0  0  0  0  0  0  0  0  0  0  0
   39.2470   28.0740   36.7090 C   0  0  0  0  0  3  0  0  0  0  0  0
   37.9960   28.6110   36.7040 C   0  0  0  0  0  3  0  0  0  0  0  0
  1  2  1  0  0  0  0
  2  3  1  0  0  0  0
  2  8  1  0  0  0  0
  2  7  1  0  0  0  0
  3 10  1  0  0  0  0
  4  3  1  0  0  0  0
  4 12  1  0  0  0  0
  5 14  1  0  0  0  0
  5  4  1  0  0  0  0
  6 15  1  6  0  0  0
  6  5  1  0  0  0  0
  6  1  1  0  0  0  0
  9  3  1  0  0  0  0
 11  4  1  0  0  0  0
 13  5  1  0  0  0  0
 16 21  2  0  0  0  0
 16 17  1  0  0  0  0
 17 18  2  0  0  0  0
 18 19  1  0  0  0  0
 18  1  1  0  0  0  0
 20 24  1  0  0  0  0
 20 19  2  0  0  0  0
 21 20  1  0  0  0  0
 22 16  1  0  0  0  0
 23 17  1  0  0  0  0
 25 26  1  0  0  0  0
 26 27  1  0  0  0  0
 27  6  1  0  0  0  0
 28 27  2  0  0  0  0
 28 29  1  0  0  0  0
 30 28  1  0  0  0  0
 31 30  1  0  0  0  0
 32 30  2  0  0  0  0
 33 32  1  0  0  0  0
 33 26  2  0  0  0  0
M  END
>  <minimizedAffinity>
-4.69883966

$$$$

 OpenBabel03252502223D

 33 35  0  0  1  0  0  0  0  0999 V2000
   37.7230   29.8240   40.2400 N   0  0  0  0  0  0  0  0  0  0  0  0
   38.0190   31.1080   40.8750 C   0  0  0  0  0  0  0  0  0  0  0  0
   37.0750   32.1070   40.2320 C   0  0  0  0  0  0  0  0  0  0  0  0
   37.3140   32.2360   38.7640 C   0  0  0  0  0  0  0  0  0  0  0  0
   37.7660   30.9840   38.0770 C   0  0  0  0  0  0  0  0  0  0  0  0
   37.4970   29.7190   38.8440 C   0  0  2  0  0  0  0  0  0  0  0  0
   37.9290   31.0820   41.9580 H   0  0  0  0  0  0  0  0  0  0  0  0
   39.0820   31.3160   40.5730 H   0  0  0  0  0  0  0  0  0  0  0  0
   36.0550   31.7070   40.3840 H   0  0  0  0  0  0  0  0  0  0  0  0
   37.1920   33.1170   40.7030 H   0  0  0  0  0  0  0  0  0  0  0  0
   36.3640   32.6640   38.3240 H   0  0  0  0  0  0  0  0  0  0  0  0
   38.0380   33.0800   38.6130 H   0  0  0  0  0  0  0  0  0  0  0  0
   37.3110   30.8590   37.0730 H   0  0  0  0  0  0  0  0  0  0  0  0
   38.8570   31.1000   37.9110 H   0  0  0  0  0  0  0  0  0  0  0  0
   38.3560   29.0250   38.5010 H   0  0  0  0  0  0  0  0  0  0  0  0
   36.8090   27.2260   42.7620 C   0  0  0  0  0  0  0  0  0  0  0  0
   36.7940   28.4230   42.0530 C   0  0  0  0  0  0  0  0  0  0  0  0
   37.6950   28.6450   41.0170 C   0  0  0  0  0  0  0  0  0  0  0  0
   38.5820   27.6220   40.7500 N   0  0  0  0  0  0  0  0  0  0  0  0
   38.5710   26.4620   41.4620 C   0  0  0  0  0  0  0  0  0  0  0  0
   37.6840   26.2770   42.4600 N   0  0  0  0  0  0  0  0  0  0  0  0
   36.1230   27.0200   43.5720 H   0  0  0  0  0  0  0  0  0  0  0  0
   36.0670   29.1190   42.3770 H   0  0  0  0  0  0  0  0  0  0  0  0
   39.3370   25.7560   41.1220 H   0  0  0  0  0  0  0  0  0  0  0  0
   37.9600   27.2360   37.1470 Cl  0  0  0  0  0  0  0  0  0  0  0  0
   36.3560   27.8670   37.5640 C   0  0  0  0  0  0  0  0  0  0  0  0
   36.2950   29.0150   38.3740 C   0  0  0  0  0  0  0  0  0  0  0  0
   34.9710   29.3640   38.5970 C   0  0  0  0  0  0  0  0  0  0  0  0
   34.7730   30.2200   39.1940 H   0  0  0  0  0  0  0  0  0  0  0  0
   33.8720   28.7160   38.1180 C   0  0  0  0  0  0  0  0  0  0  0  0
   32.8720   29.0420   38.3310 H   0  0  0  0  0  0  0  0  0  0  0  0
   34.0350   27.6020   37.3350 C   0  0  0  0  0  3  0  0  0  0  0  0
   35.2930   27.1630   37.0480 C   0  0  0  0  0  3  0  0  0  0  0  0
  1  2  1  0  0  0  0
  1 18  1  0  0  0  0
  2  7  1  0  0  0  0
  3  9  1  0  0  0  0
  3 10  1  0  0  0  0
  3  2  1  0  0  0  0
  4  3  1  0  0  0  0
  5  4  1  0  0  0  0
  5  6  1  0  0  0  0
  6 15  1  6  0  0  0
  6  1  1  0  0  0  0
  8  2  1  0  0  0  0
 11  4  1  0  0  0  0
 12  4  1  0  0  0  0
 13  5  1  0  0  0  0
 14  5  1  0  0  0  0
 16 22  1  0  0  0  0
 17 23  1  0  0  0  0
 17 16  2  0  0  0  0
 18 17  1  0  0  0  0
 19 18  2  0  0  0  0
 19 20  1  0  0  0  0
 20 21  2  0  0  0  0
 21 16  1  0  0  0  0
 24 20  1  0  0  0  0
 25 26  1  0  0  0  0
 26 27  1  0  0  0  0
 27 28  2  0  0  0  0
 27  6  1  0  0  0  0
 28 29  1  0  0  0  0
 30 31  1  0  0  0  0
 30 28  1  0  0  0  0
 32 30  2  0  0  0  0
 33 32  1  0  0  0  0
 33 26  2  0  0  0  0
M  END
>  <minimizedAffinity>
-4.65324783

$$$$
