
 OpenBabel03252509233D

 27 29  0  0  1  0  0  0  0  0999 V2000
   46.7100   34.8030   41.9850 C   0  0  1  0  0  0  0  0  0  0  0  0
   48.1500   35.3840   42.0410 C   0  0  0  0  0  0  0  0  0  0  0  0
   47.7770   33.9150   41.6950 C   0  0  2  0  0  0  0  0  0  0  0  0
   46.0670   35.3230   41.2490 H   0  0  0  0  0  0  0  0  0  0  0  0
   48.4410   36.0260   41.2080 H   0  0  0  0  0  0  0  0  0  0  0  0
   48.6100   35.5970   42.9980 H   0  0  0  0  0  0  0  0  0  0  0  0
   48.1090   33.2140   42.5010 H   0  0  0  0  0  0  0  0  0  0  0  0
   50.0810   31.9250   41.4560 Cl  0  0  0  0  0  0  0  0  0  0  0  0
   49.1420   32.5250   40.1020 C   0  0  0  0  0  0  0  0  0  0  0  0
   48.1340   33.4160   40.3480 C   0  0  0  0  0  0  0  0  0  0  0  0
   47.3650   33.9170   39.2960 C   0  0  0  0  0  0  0  0  0  0  0  0
   46.5470   34.6220   39.3620 H   0  0  0  0  0  0  0  0  0  0  0  0
   47.6470   33.4930   38.0140 C   0  0  0  0  0  0  0  0  0  0  0  0
   47.0990   33.8320   37.1480 H   0  0  0  0  0  0  0  0  0  0  0  0
   48.6790   32.5830   37.7900 C   0  0  0  0  0  3  0  0  0  0  0  0
   49.4520   32.0780   38.8320 C   0  0  0  0  0  3  0  0  0  0  0  0
   44.5600   35.5590   44.9720 C   0  0  0  0  0  0  0  0  0  0  0  0
   45.1380   35.6960   43.6640 C   0  0  0  0  0  0  0  0  0  0  0  0
   46.1070   34.7720   43.3720 C   0  0  0  0  0  0  0  0  0  0  0  0
   46.4890   33.7960   44.2710 N   0  0  0  0  0  0  0  0  0  0  0  0
   45.9150   33.7120   45.4860 C   0  0  0  0  0  0  0  0  0  0  0  0
   44.9540   34.5890   45.8400 N   0  0  0  0  0  0  0  0  0  0  0  0
   43.7930   36.2900   45.2050 H   0  0  0  0  0  0  0  0  0  0  0  0
   46.1900   32.9610   46.2110 H   0  0  0  0  0  0  0  0  0  0  0  0
   44.7430   36.7170   42.7650 N   0  0  0  0  0  0  0  0  0  0  0  0
   44.4090   36.3500   41.8610 H   0  0  0  0  0  0  0  0  0  0  0  0
   44.7260   37.7590   42.8440 H   0  0  0  0  0  0  0  0  0  0  0  0
  1  4  1  6  0  0  0
  1  2  1  0  0  0  0
  1 19  1  0  0  0  0
  2  6  1  0  0  0  0
  3  1  1  0  0  0  0
  3  2  1  0  0  0  0
  3  7  1  1  0  0  0
  5  2  1  0  0  0  0
  9 10  1  0  0  0  0
  9  8  1  0  0  0  0
 10  3  1  0  0  0  0
 11 12  1  0  0  0  0
 11 10  2  0  0  0  0
 13 11  1  0  0  0  0
 14 13  1  0  0  0  0
 15 13  2  0  0  0  0
 15 16  1  0  0  0  0
 16  9  2  0  0  0  0
 17 23  1  0  0  0  0
 17 22  1  0  0  0  0
 18 17  2  0  0  0  0
 19 18  1  0  0  0  0
 19 20  2  0  0  0  0
 20 21  1  0  0  0  0
 21 22  2  0  0  0  0
 21 24  1  0  0  0  0
 25 27  1  0  0  0  0
 25 18  1  0  0  0  0
 26 25  1  0  0  0  0
M  END
>  <minimizedAffinity>
-5.05482292

>  <minimizedRMSD>
0.770309389

$$$$
