
 OpenBabel03252500293D

 28 30  0  0  1  0  0  0  0  0999 V2000
   46.8180   33.2750   41.4320 C   0  0  1  0  0  0  0  0  0  0  0  0
   45.9690   34.3540   40.9830 C   0  0  0  0  0  0  0  0  0  0  0  0
   46.4860   33.4200   39.9510 C   0  0  1  0  0  0  0  0  0  0  0  0
   46.3420   32.3520   41.8540 H   0  0  0  0  0  0  0  0  0  0  0  0
   44.8570   34.3010   41.1250 H   0  0  0  0  0  0  0  0  0  0  0  0
   46.2930   35.4250   40.9730 H   0  0  0  0  0  0  0  0  0  0  0  0
   45.7910   32.6590   39.5010 H   0  0  0  0  0  0  0  0  0  0  0  0
   48.6690   34.7900   42.2150 C   0  0  0  0  0  0  0  0  0  0  0  0
   48.2310   33.4850   41.8340 C   0  0  0  0  0  0  0  0  0  0  0  0
   49.1520   32.4550   41.8460 C   0  0  0  0  0  0  0  0  0  0  0  0
   50.4300   32.7590   42.2260 N   0  0  0  0  0  0  0  0  0  0  0  0
   50.8170   34.0030   42.5830 C   0  0  0  0  0  0  0  0  0  0  0  0
   49.9420   35.0520   42.5860 N   0  0  0  0  0  0  0  0  0  0  0  0
   47.9000   35.5480   42.1830 H   0  0  0  0  0  0  0  0  0  0  0  0
   48.8590   31.4620   41.5660 H   0  0  0  0  0  0  0  0  0  0  0  0
   51.8450   34.1890   42.8780 H   0  0  0  0  0  0  0  0  0  0  0  0
   47.5190   33.9060   39.0080 C   0  0  0  0  0  0  0  0  0  0  0  0
   47.3290   34.9570   38.6790 H   0  0  0  0  0  0  0  0  0  0  0  0
   48.5470   33.9330   39.4360 H   0  0  0  0  0  0  0  0  0  0  0  0
   49.8930   31.9900   38.4190 Cl  0  0  0  0  0  0  0  0  0  0  0  0
   48.4760   32.1520   37.4400 C   0  0  0  0  0  0  0  0  0  0  0  0
   47.4880   33.0320   37.8050 C   0  0  0  0  0  0  0  0  0  0  0  0
   46.3690   33.1300   36.9970 C   0  0  0  0  0  0  0  0  0  0  0  0
   45.5680   33.8120   37.2500 H   0  0  0  0  0  0  0  0  0  0  0  0
   46.2460   32.3600   35.8470 C   0  0  0  0  0  0  0  0  0  0  0  0
   45.3430   32.4850   35.2590 H   0  0  0  0  0  0  0  0  0  0  0  0
   47.2200   31.4670   35.4530 C   0  0  0  0  0  0  0  0  0  0  0  0
   48.2990   31.4130   36.2870 C   0  0  0  0  0  0  0  0  0  0  0  0
  1  9  1  0  0  0  0
  1  4  1  1  0  0  0
  2  5  1  0  0  0  0
  2  1  1  0  0  0  0
  3  7  1  6  0  0  0
  3  2  1  0  0  0  0
  3  1  1  0  0  0  0
  6  2  1  0  0  0  0
  8 13  1  0  0  0  0
  9 10  1  0  0  0  0
  9  8  2  0  0  0  0
 10 11  2  0  0  0  0
 11 12  1  0  0  0  0
 12 13  2  0  0  0  0
 12 16  1  0  0  0  0
 14  8  1  0  0  0  0
 15 10  1  0  0  0  0
 17 19  1  0  0  0  0
 17  3  1  0  0  0  0
 18 17  1  0  0  0  0
 21 22  1  0  0  0  0
 21 20  1  0  0  0  0
 22 17  1  0  0  0  0
 23 24  1  0  0  0  0
 23 22  2  0  0  0  0
 25 23  1  0  0  0  0
 26 25  1  0  0  0  0
 27 25  2  0  0  0  0
 27 28  1  0  0  0  0
 28 21  2  0  0  0  0
M  END
>  <minimizedAffinity>
-3.51961422

>  <minimizedRMSD>
5.91568422

$$$$
