
 OpenBabel03242516053D

 36 39  0  0  0  0  0  0  0  0999 V2000
   45.2670   33.0340   41.1380 Cl  0  0  0  0  0  0  0  0  0  0  0  0
   46.6790   34.0440   41.0350 C   0  0  0  0  0  0  0  0  0  0  0  0
   47.0560   34.8760   42.0470 C   0  0  0  0  0  0  0  0  0  0  0  0
   48.1850   35.6170   41.8400 C   0  0  0  0  0  0  0  0  0  0  0  0
   48.9170   35.5560   40.7050 C   0  0  0  0  0  0  0  0  0  0  0  0
   48.5400   34.7190   39.6840 C   0  0  0  0  0  0  0  0  0  0  0  0
   47.3930   33.9520   39.8690 C   0  0  0  0  0  0  0  0  0  0  0  0
   48.5090   36.2900   42.6310 H   0  0  0  0  0  0  0  0  0  0  0  0
   49.8030   36.1660   40.5950 H   0  0  0  0  0  0  0  0  0  0  0  0
   49.1400   34.6890   38.7880 H   0  0  0  0  0  0  0  0  0  0  0  0
   44.4750   35.8350   44.6520 C   0  0  0  0  0  0  0  0  0  0  0  0
   45.2440   35.8440   43.4800 C   0  0  0  0  0  0  0  0  0  0  0  0
   46.2380   34.9040   43.2420 C   0  0  0  0  0  0  0  0  0  0  0  0
   46.3960   33.9830   44.2410 N   0  0  0  0  0  0  0  0  0  0  0  0
   45.6620   33.9780   45.3570 C   0  0  0  0  0  0  0  0  0  0  0  0
   44.7190   34.8860   45.5600 N   0  0  0  0  0  0  0  0  0  0  0  0
   43.7260   36.6190   44.7330 H   0  0  0  0  0  0  0  0  0  0  0  0
   45.0660   36.6040   42.7290 H   0  0  0  0  0  0  0  0  0  0  0  0
   45.9070   33.1860   46.0520 H   0  0  0  0  0  0  0  0  0  0  0  0
   46.9770   33.0470   38.7750 C   0  0  0  0  0  0  0  0  0  0  0  0
   47.3290   31.6890   38.7250 C   0  0  0  0  0  0  0  0  0  0  0  0
   46.5710   31.0800   37.2060 S   0  0  0  0  0  0  0  0  0  0  0  0
   45.8540   32.8230   36.8350 C   0  0  0  0  0  0  0  0  0  0  0  0
   46.2490   33.3670   37.7300 N   0  0  0  0  0  0  0  0  0  0  0  0
   45.0620   33.1810   35.7050 N   0  0  0  0  0  0  0  0  0  0  0  0
   44.0680   32.8720   35.8770 H   0  0  0  0  0  0  0  0  0  0  0  0
   45.3380   33.6590   34.8380 H   0  0  0  0  0  0  0  0  0  0  0  0
   50.3370   31.7730   38.2020 Cl  0  0  0  0  0  0  0  0  0  0  0  0
   49.5160   30.8900   39.4920 C   0  0  0  0  0  0  0  0  0  0  0  0
   48.1310   30.8950   39.6760 C   0  0  0  0  0  0  0  0  0  0  0  0
   47.5770   30.1730   40.7150 C   0  0  0  0  0  0  0  0  0  0  0  0
   46.4980   30.1900   40.8420 H   0  0  0  0  0  0  0  0  0  0  0  0
   48.4230   29.4560   41.5530 C   0  0  0  0  0  0  0  0  0  0  0  0
   47.9700   28.8890   42.3720 H   0  0  0  0  0  0  0  0  0  0  0  0
   49.7930   29.4650   41.3530 C   0  0  0  0  0  0  0  0  0  0  0  0
   50.3560   30.1810   40.3190 C   0  0  0  0  0  0  0  0  0  0  0  0
  2  1  1  0  0  0  0
  2  3  1  0  0  0  0
  3 13  1  0  0  0  0
  4  3  2  0  0  0  0
  4  8  1  0  0  0  0
  5  4  1  0  0  0  0
  6  7  1  0  0  0  0
  6  5  2  0  0  0  0
  7  2  2  0  0  0  0
  9  5  1  0  0  0  0
 10  6  1  0  0  0  0
 11 17  1  0  0  0  0
 11 16  1  0  0  0  0
 12 11  2  0  0  0  0
 13 12  1  0  0  0  0
 13 14  2  0  0  0  0
 14 15  1  0  0  0  0
 15 16  2  0  0  0  0
 15 19  1  0  0  0  0
 18 12  1  0  0  0  0
 20  7  1  0  0  0  0
 21 20  2  0  0  0  0
 21 30  1  0  0  0  0
 22 21  1  0  0  0  0
 23 22  1  0  0  0  0
 23 24  2  0  0  0  0
 24 20  1  0  0  0  0
 25 26  1  0  0  0  0
 25 23  1  0  0  0  0
 27 25  1  0  0  0  0
 28 29  1  0  0  0  0
 29 30  2  0  0  0  0
 29 36  1  0  0  0  0
 30 31  1  0  0  0  0
 31 32  1  0  0  0  0
 31 33  2  0  0  0  0
 33 34  1  0  0  0  0
 35 33  1  0  0  0  0
 36 35  2  0  0  0  0
M  END
>  <minimizedAffinity>
-6.16681719

>  <minimizedRMSD>
0.720273972

$$$$
