
 OpenBabel03242522153D

 32 34  0  0  0  0  0  0  0  0999 V2000
   46.1930   33.3250   44.5400 C   0  0  0  0  0  0  0  0  0  0  0  0
   45.0930   34.1060   44.6810 C   0  0  0  0  0  0  0  0  0  0  0  0
   45.4130   35.4740   43.4810 S   0  0  0  0  0  0  0  0  0  0  0  0
   47.0430   34.6940   42.9990 C   0  0  0  0  0  0  0  0  0  0  0  0
   47.0520   33.7670   43.6660 N   0  0  0  0  0  0  0  0  0  0  0  0
   44.2270   33.9090   45.3820 H   0  0  0  0  0  0  0  0  0  0  0  0
   47.0620   30.8810   47.2640 C   0  0  0  0  0  0  0  0  0  0  0  0
   46.8850   32.1090   46.6080 C   0  0  0  0  0  0  0  0  0  0  0  0
   46.4050   32.0840   45.3060 C   0  0  0  0  0  0  0  0  0  0  0  0
   46.1330   30.8440   44.7430 N   0  0  0  0  0  0  0  0  0  0  0  0
   46.3210   29.6920   45.4180 C   0  0  0  0  0  0  0  0  0  0  0  0
   46.7860   29.7130   46.6800 N   0  0  0  0  0  0  0  0  0  0  0  0
   47.4350   30.8540   48.2840 H   0  0  0  0  0  0  0  0  0  0  0  0
   46.0560   28.8240   44.8190 H   0  0  0  0  0  0  0  0  0  0  0  0
   47.2060   33.2660   47.3270 N   0  0  0  0  0  0  0  0  0  0  0  0
   46.3140   33.7130   47.6410 H   0  0  0  0  0  0  0  0  0  0  0  0
   48.2430   33.3000   47.3130 H   0  0  0  0  0  0  0  0  0  0  0  0
   47.9600   35.2960   41.9630 C   0  0  0  0  0  0  0  0  0  0  0  0
   47.3130   35.5460   41.0740 H   0  0  0  0  0  0  0  0  0  0  0  0
   48.4290   36.2310   42.3360 H   0  0  0  0  0  0  0  0  0  0  0  0
   48.9800   34.3060   41.5100 C   0  0  0  0  0  0  0  0  0  0  0  0
   49.9700   34.8090   41.2980 H   0  0  0  0  0  0  0  0  0  0  0  0
   49.2230   33.5660   42.2960 H   0  0  0  0  0  0  0  0  0  0  0  0
   50.4490   31.7860   41.2140 Cl  0  0  0  0  0  0  0  0  0  0  0  0
   49.2350   32.4500   40.1040 C   0  0  0  0  0  0  0  0  0  0  0  0
   48.5450   33.6600   40.2640 C   0  0  0  0  0  0  0  0  0  0  0  0
   47.6500   33.9620   39.2660 C   0  0  0  0  0  0  0  0  0  0  0  0
   47.1660   34.9230   39.4970 H   0  0  0  0  0  0  0  0  0  0  0  0
   47.4160   33.1620   38.1730 C   0  0  0  0  0  0  0  0  0  0  0  0
   46.6840   33.5400   37.4870 H   0  0  0  0  0  0  0  0  0  0  0  0
   48.1160   31.9700   38.0470 C   0  0  0  0  0  0  0  0  0  0  0  0
   49.0290   31.6070   39.0110 C   0  0  0  0  0  0  0  0  0  0  0  0
  1  2  2  0  0  0  0
  1  9  1  0  0  0  0
  2  6  1  0  0  0  0
  3  2  1  0  0  0  0
  4  3  1  0  0  0  0
  4  5  2  0  0  0  0
  5  1  1  0  0  0  0
  7 13  1  0  0  0  0
  8  7  2  0  0  0  0
  8 15  1  0  0  0  0
  9  8  1  0  0  0  0
 10  9  2  0  0  0  0
 10 11  1  0  0  0  0
 11 12  2  0  0  0  0
 12  7  1  0  0  0  0
 14 11  1  0  0  0  0
 15 16  1  0  0  0  0
 17 15  1  0  0  0  0
 18 20  1  0  0  0  0
 18  4  1  0  0  0  0
 19 18  1  0  0  0  0
 21 18  1  0  0  0  0
 21 23  1  0  0  0  0
 22 21  1  0  0  0  0
 25 26  1  0  0  0  0
 25 24  1  0  0  0  0
 26 21  1  0  0  0  0
 27 28  1  0  0  0  0
 27 26  2  0  0  0  0
 29 27  1  0  0  0  0
 30 29  1  0  0  0  0
 31 29  2  0  0  0  0
 31 32  1  0  0  0  0
 32 25  2  0  0  0  0
M  END
>  <minimizedAffinity>
-4.7467804

>  <minimizedRMSD>
4.85834551

$$$$
