
 OpenBabel03252500303D

 28 30  0  0  1  0  0  0  0  0999 V2000
   37.6930   28.6100   43.6120 C   0  0  1  0  0  0  0  0  0  0  0  0
   36.7640   27.5260   43.3940 C   0  0  0  0  0  0  0  0  0  0  0  0
   38.2120   27.2150   43.2830 C   0  0  1  0  0  0  0  0  0  0  0  0
   37.9580   28.8910   44.6640 H   0  0  0  0  0  0  0  0  0  0  0  0
   36.2590   27.0250   44.2620 H   0  0  0  0  0  0  0  0  0  0  0  0
   36.1110   27.4520   42.4890 H   0  0  0  0  0  0  0  0  0  0  0  0
   38.7160   26.6430   44.1100 H   0  0  0  0  0  0  0  0  0  0  0  0
   39.1690   30.3800   42.6000 C   0  0  0  0  0  0  0  0  0  0  0  0
   37.9270   29.6750   42.6050 C   0  0  0  0  0  0  0  0  0  0  0  0
   36.9740   30.0190   41.6660 C   0  0  0  0  0  0  0  0  0  0  0  0
   37.2900   31.0200   40.7880 N   0  0  0  0  0  0  0  0  0  0  0  0
   38.4740   31.6690   40.8050 C   0  0  0  0  0  0  0  0  0  0  0  0
   39.4460   31.3630   41.7150 N   0  0  0  0  0  0  0  0  0  0  0  0
   39.8680   30.0610   43.3600 H   0  0  0  0  0  0  0  0  0  0  0  0
   36.0300   29.5120   41.6390 H   0  0  0  0  0  0  0  0  0  0  0  0
   38.6740   32.4560   40.0850 H   0  0  0  0  0  0  0  0  0  0  0  0
   38.7770   26.9350   41.9430 C   0  0  0  0  0  0  0  0  0  0  0  0
   38.5940   27.7720   41.2250 H   0  0  0  0  0  0  0  0  0  0  0  0
   39.8830   26.8030   41.9360 H   0  0  0  0  0  0  0  0  0  0  0  0
   39.6030   24.1320   42.9970 Cl  0  0  0  0  0  0  0  0  0  0  0  0
   38.3940   24.4280   41.7950 C   0  0  0  0  0  0  0  0  0  0  0  0
   38.1120   25.7160   41.4120 C   0  0  0  0  0  0  0  0  0  0  0  0
   37.1360   25.9110   40.4500 C   0  0  0  0  0  0  0  0  0  0  0  0
   36.8830   26.9100   40.1210 H   0  0  0  0  0  0  0  0  0  0  0  0
   36.4580   24.8360   39.8870 C   0  0  0  0  0  0  0  0  0  0  0  0
   35.7050   25.0600   39.1390 H   0  0  0  0  0  0  0  0  0  0  0  0
   36.7180   23.5320   40.2510 C   0  0  0  0  0  3  0  0  0  0  0  0
   37.6890   23.3990   41.2020 C   0  0  0  0  0  3  0  0  0  0  0  0
  1  4  1  1  0  0  0
  2  1  1  0  0  0  0
  2  5  1  0  0  0  0
  3  2  1  0  0  0  0
  3  1  1  0  0  0  0
  3  7  1  1  0  0  0
  6  2  1  0  0  0  0
  8  9  1  0  0  0  0
  8 14  1  0  0  0  0
  9  1  1  0  0  0  0
 10  9  2  0  0  0  0
 11 12  2  0  0  0  0
 11 10  1  0  0  0  0
 12 13  1  0  0  0  0
 13  8  2  0  0  0  0
 15 10  1  0  0  0  0
 16 12  1  0  0  0  0
 17  3  1  0  0  0  0
 18 17  1  0  0  0  0
 19 17  1  0  0  0  0
 21 20  1  0  0  0  0
 22 21  1  0  0  0  0
 22 17  1  0  0  0  0
 23 22  2  0  0  0  0
 24 23  1  0  0  0  0
 25 27  2  0  0  0  0
 25 23  1  0  0  0  0
 26 25  1  0  0  0  0
 27 28  1  0  0  0  0
 28 21  2  0  0  0  0
M  END
>  <minimizedAffinity>
-5.08833933

$$$$

 OpenBabel03252500303D

 28 30  0  0  1  0  0  0  0  0999 V2000
   37.0720   30.7480   38.8910 C   0  0  1  0  0  0  0  0  0  0  0  0
   37.4610   29.3970   39.2220 C   0  0  0  0  0  0  0  0  0  0  0  0
   36.3590   30.0020   40.0140 C   0  0  1  0  0  0  0  0  0  0  0  0
   36.3790   30.9150   38.0270 H   0  0  0  0  0  0  0  0  0  0  0  0
   37.1360   28.5370   38.5790 H   0  0  0  0  0  0  0  0  0  0  0  0
   38.4290   29.1440   39.7230 H   0  0  0  0  0  0  0  0  0  0  0  0
   35.3010   29.6720   39.8230 H   0  0  0  0  0  0  0  0  0  0  0  0
   39.3090   31.8270   39.2970 C   0  0  0  0  0  0  0  0  0  0  0  0
   37.8850   31.9290   39.2730 C   0  0  0  0  0  0  0  0  0  0  0  0
   37.3090   33.1370   39.6170 C   0  0  0  0  0  0  0  0  0  0  0  0
   38.1500   34.1600   39.9590 N   0  0  0  0  0  0  0  0  0  0  0  0
   39.4950   34.0350   39.9720 C   0  0  0  0  0  0  0  0  0  0  0  0
   40.1090   32.8610   39.6400 N   0  0  0  0  0  0  0  0  0  0  0  0
   39.6940   30.8560   39.0180 H   0  0  0  0  0  0  0  0  0  0  0  0
   36.2430   33.2520   39.6090 H   0  0  0  0  0  0  0  0  0  0  0  0
   40.1170   34.8800   40.2510 H   0  0  0  0  0  0  0  0  0  0  0  0
   36.6180   30.3690   41.4240 C   0  0  0  0  0  0  0  0  0  0  0  0
   37.3050   31.2470   41.5120 H   0  0  0  0  0  0  0  0  0  0  0  0
   35.7070   30.6750   41.9880 H   0  0  0  0  0  0  0  0  0  0  0  0
   39.4810   30.6490   42.5980 Cl  0  0  0  0  0  0  0  0  0  0  0  0
   38.5230   29.2090   42.6390 C   0  0  0  0  0  0  0  0  0  0  0  0
   37.2650   29.2070   42.0890 C   0  0  0  0  0  0  0  0  0  0  0  0
   36.5300   28.0360   42.1450 C   0  0  0  0  0  0  0  0  0  0  0  0
   35.5330   27.9940   41.7240 H   0  0  0  0  0  0  0  0  0  0  0  0
   37.0460   26.8930   42.7410 C   0  0  0  0  0  0  0  0  0  0  0  0
   36.4170   26.0090   42.7510 H   0  0  0  0  0  0  0  0  0  0  0  0
   38.3050   26.8620   43.3020 C   0  0  0  0  0  3  0  0  0  0  0  0
   38.9850   28.0430   43.2170 C   0  0  0  0  0  3  0  0  0  0  0  0
  1  4  1  6  0  0  0
  1  2  1  0  0  0  0
  1  9  1  0  0  0  0
  1  3  1  0  0  0  0
  2  6  1  0  0  0  0
  2  3  1  0  0  0  0
  3  7  1  6  0  0  0
  3 17  1  0  0  0  0
  5  2  1  0  0  0  0
  8 13  1  0  0  0  0
  9  8  2  0  0  0  0
  9 10  1  0  0  0  0
 10 11  2  0  0  0  0
 11 12  1  0  0  0  0
 12 16  1  0  0  0  0
 13 12  2  0  0  0  0
 14  8  1  0  0  0  0
 15 10  1  0  0  0  0
 17 18  1  0  0  0  0
 17 19  1  0  0  0  0
 17 22  1  0  0  0  0
 20 21  1  0  0  0  0
 21 28  1  0  0  0  0
 22 23  1  0  0  0  0
 22 21  2  0  0  0  0
 23 25  2  0  0  0  0
 24 23  1  0  0  0  0
 25 26  1  0  0  0  0
 25 27  1  0  0  0  0
 28 27  2  0  0  0  0
M  END
>  <minimizedAffinity>
-5.0780468

$$$$

 OpenBabel03252500303D

 28 30  0  0  1  0  0  0  0  0999 V2000
   35.7940   30.3800   40.5730 C   0  0  1  0  0  0  0  0  0  0  0  0
   35.0390   29.3430   39.9100 C   0  0  0  0  0  0  0  0  0  0  0  0
   35.9990   28.9200   40.9610 C   0  0  1  0  0  0  0  0  0  0  0  0
   35.3140   30.9470   41.4120 H   0  0  0  0  0  0  0  0  0  0  0  0
   33.9640   29.1600   40.1790 H   0  0  0  0  0  0  0  0  0  0  0  0
   35.2130   29.0430   38.8470 H   0  0  0  0  0  0  0  0  0  0  0  0
   35.6070   28.5920   41.9630 H   0  0  0  0  0  0  0  0  0  0  0  0
   37.9250   31.7110   40.7350 C   0  0  0  0  0  0  0  0  0  0  0  0
   36.9340   31.0750   39.9260 C   0  0  0  0  0  0  0  0  0  0  0  0
   37.0710   31.1380   38.5520 C   0  0  0  0  0  0  0  0  0  0  0  0
   38.1560   31.8090   38.0590 N   0  0  0  0  0  0  0  0  0  0  0  0
   39.0790   32.4010   38.8490 C   0  0  0  0  0  0  0  0  0  0  0  0
   38.9840   32.3650   40.2100 N   0  0  0  0  0  0  0  0  0  0  0  0
   37.7570   31.6250   41.7990 H   0  0  0  0  0  0  0  0  0  0  0  0
   36.3480   30.6720   37.9120 H   0  0  0  0  0  0  0  0  0  0  0  0
   39.9220   32.9210   38.4050 H   0  0  0  0  0  0  0  0  0  0  0  0
   37.2340   28.2140   40.5510 C   0  0  0  0  0  0  0  0  0  0  0  0
   37.4520   28.3420   39.4620 H   0  0  0  0  0  0  0  0  0  0  0  0
   38.1550   28.5780   41.0600 H   0  0  0  0  0  0  0  0  0  0  0  0
   37.8400   27.0580   43.3700 Cl  0  0  0  0  0  0  0  0  0  0  0  0
   37.2790   26.1390   42.0150 C   0  0  0  0  0  0  0  0  0  0  0  0
   37.0420   26.7640   40.8160 C   0  0  0  0  0  0  0  0  0  0  0  0
   36.5910   25.9940   39.7580 C   0  0  0  0  0  0  0  0  0  0  0  0
   36.3910   26.4480   38.7960 H   0  0  0  0  0  0  0  0  0  0  0  0
   36.3830   24.6270   39.9020 C   0  0  0  0  0  0  0  0  0  0  0  0
   36.0290   24.0840   39.0330 H   0  0  0  0  0  0  0  0  0  0  0  0
   36.6130   23.9710   41.0930 C   0  0  0  0  0  3  0  0  0  0  0  0
   37.0560   24.7790   42.1000 C   0  0  0  0  0  3  0  0  0  0  0  0
  1  3  1  0  0  0  0
  1  4  1  1  0  0  0
  2  5  1  0  0  0  0
  2  1  1  0  0  0  0
  2  3  1  0  0  0  0
  3  7  1  1  0  0  0
  6  2  1  0  0  0  0
  8 14  1  0  0  0  0
  9  1  1  0  0  0  0
  9  8  2  0  0  0  0
 10  9  1  0  0  0  0
 11 10  2  0  0  0  0
 11 12  1  0  0  0  0
 12 13  2  0  0  0  0
 13  8  1  0  0  0  0
 15 10  1  0  0  0  0
 16 12  1  0  0  0  0
 17 22  1  0  0  0  0
 17  3  1  0  0  0  0
 17 19  1  0  0  0  0
 18 17  1  0  0  0  0
 21 28  1  0  0  0  0
 21 20  1  0  0  0  0
 22 21  2  0  0  0  0
 23 25  2  0  0  0  0
 23 22  1  0  0  0  0
 24 23  1  0  0  0  0
 25 27  1  0  0  0  0
 26 25  1  0  0  0  0
 27 28  2  0  0  0  0
M  END
>  <minimizedAffinity>
-4.95875216

$$$$

 OpenBabel03252500303D

 28 30  0  0  1  0  0  0  0  0999 V2000
   37.6780   28.3910   43.5280 C   0  0  1  0  0  0  0  0  0  0  0  0
   36.6440   27.4290   43.2260 C   0  0  0  0  0  0  0  0  0  0  0  0
   38.0520   27.0000   43.0270 C   0  0  1  0  0  0  0  0  0  0  0  0
   37.9970   28.5250   44.5940 H   0  0  0  0  0  0  0  0  0  0  0  0
   36.1170   26.8810   44.0520 H   0  0  0  0  0  0  0  0  0  0  0  0
   35.9630   27.5190   42.3440 H   0  0  0  0  0  0  0  0  0  0  0  0
   38.5210   26.2940   43.7660 H   0  0  0  0  0  0  0  0  0  0  0  0
   36.9950   30.0080   41.7240 C   0  0  0  0  0  0  0  0  0  0  0  0
   37.9860   29.5380   42.6380 C   0  0  0  0  0  0  0  0  0  0  0  0
   39.2150   30.1710   42.6560 C   0  0  0  0  0  0  0  0  0  0  0  0
   39.3960   31.2130   41.7890 N   0  0  0  0  0  0  0  0  0  0  0  0
   38.4390   31.6370   40.9350 C   0  0  0  0  0  0  0  0  0  0  0  0
   37.2110   31.0430   40.8820 N   0  0  0  0  0  0  0  0  0  0  0  0
   36.0590   29.4690   41.7620 H   0  0  0  0  0  0  0  0  0  0  0  0
   39.9830   29.8460   43.3280 H   0  0  0  0  0  0  0  0  0  0  0  0
   38.6360   32.4710   40.2680 H   0  0  0  0  0  0  0  0  0  0  0  0
   38.5520   26.8240   41.6450 C   0  0  0  0  0  0  0  0  0  0  0  0
   38.3630   27.7250   41.0100 H   0  0  0  0  0  0  0  0  0  0  0  0
   39.6520   26.6660   41.5760 H   0  0  0  0  0  0  0  0  0  0  0  0
   36.3720   27.3190   39.4870 Cl  0  0  0  0  0  0  0  0  0  0  0  0
   36.8480   25.7670   40.0850 C   0  0  0  0  0  0  0  0  0  0  0  0
   37.8300   25.6740   41.0400 C   0  0  0  0  0  0  0  0  0  0  0  0
   38.1840   24.4140   41.4910 C   0  0  0  0  0  0  0  0  0  0  0  0
   38.9540   24.2970   42.2430 H   0  0  0  0  0  0  0  0  0  0  0  0
   37.5650   23.2740   40.9920 C   0  0  0  0  0  0  0  0  0  0  0  0
   37.8910   22.3170   41.3880 H   0  0  0  0  0  0  0  0  0  0  0  0
   36.5770   23.3340   40.0340 C   0  0  0  0  0  3  0  0  0  0  0  0
   36.2680   24.6000   39.6270 C   0  0  0  0  0  3  0  0  0  0  0  0
  1  4  1  1  0  0  0
  2  1  1  0  0  0  0
  2  5  1  0  0  0  0
  3  2  1  0  0  0  0
  3  1  1  0  0  0  0
  3  7  1  1  0  0  0
  6  2  1  0  0  0  0
  8 14  1  0  0  0  0
  8  9  1  0  0  0  0
  9 10  2  0  0  0  0
  9  1  1  0  0  0  0
 10 15  1  0  0  0  0
 11 10  1  0  0  0  0
 12 11  2  0  0  0  0
 13 12  1  0  0  0  0
 13  8  2  0  0  0  0
 16 12  1  0  0  0  0
 17  3  1  0  0  0  0
 18 17  1  0  0  0  0
 19 17  1  0  0  0  0
 20 21  1  0  0  0  0
 21 22  1  0  0  0  0
 22 23  2  0  0  0  0
 22 17  1  0  0  0  0
 23 24  1  0  0  0  0
 25 26  1  0  0  0  0
 25 23  1  0  0  0  0
 27 25  2  0  0  0  0
 28 27  1  0  0  0  0
 28 21  2  0  0  0  0
M  END
>  <minimizedAffinity>
-4.95679474

$$$$

 OpenBabel03252500303D

 28 30  0  0  1  0  0  0  0  0999 V2000
   37.3190   30.2560   39.4860 C   0  0  1  0  0  0  0  0  0  0  0  0
   37.9810   29.0010   39.7550 C   0  0  0  0  0  0  0  0  0  0  0  0
   37.0040   29.4830   40.7630 C   0  0  1  0  0  0  0  0  0  0  0  0
   36.4320   30.2630   38.8010 H   0  0  0  0  0  0  0  0  0  0  0  0
   37.6620   28.0630   39.2270 H   0  0  0  0  0  0  0  0  0  0  0  0
   39.0640   28.9260   40.0250 H   0  0  0  0  0  0  0  0  0  0  0  0
   35.9960   28.9880   40.8310 H   0  0  0  0  0  0  0  0  0  0  0  0
   39.4240   31.6310   39.5890 C   0  0  0  0  0  0  0  0  0  0  0  0
   37.9990   31.5660   39.6380 C   0  0  0  0  0  0  0  0  0  0  0  0
   37.2950   32.7390   39.8350 C   0  0  0  0  0  0  0  0  0  0  0  0
   38.0210   33.8910   39.9700 N   0  0  0  0  0  0  0  0  0  0  0  0
   39.3710   33.9230   39.9180 C   0  0  0  0  0  0  0  0  0  0  0  0
   40.1070   32.7890   39.7250 N   0  0  0  0  0  0  0  0  0  0  0  0
   39.9110   30.6790   39.4330 H   0  0  0  0  0  0  0  0  0  0  0  0
   36.2250   32.7300   39.8780 H   0  0  0  0  0  0  0  0  0  0  0  0
   39.8970   34.8660   40.0300 H   0  0  0  0  0  0  0  0  0  0  0  0
   37.5100   29.9720   42.0650 C   0  0  0  0  0  0  0  0  0  0  0  0
   38.0630   30.9390   41.9670 H   0  0  0  0  0  0  0  0  0  0  0  0
   36.7110   30.1880   42.8110 H   0  0  0  0  0  0  0  0  0  0  0  0
   36.4080   27.4130   43.4390 Cl  0  0  0  0  0  0  0  0  0  0  0  0
   38.0840   27.7900   43.2310 C   0  0  0  0  0  0  0  0  0  0  0  0
   38.4510   28.9540   42.6020 C   0  0  0  0  0  0  0  0  0  0  0  0
   39.8010   29.2170   42.4530 C   0  0  0  0  0  0  0  0  0  0  0  0
   40.1320   30.1230   41.9620 H   0  0  0  0  0  0  0  0  0  0  0  0
   40.7610   28.3300   42.9250 C   0  0  0  0  0  0  0  0  0  0  0  0
   41.8020   28.5970   42.7740 H   0  0  0  0  0  0  0  0  0  0  0  0
   40.4250   27.1540   43.5600 C   0  0  0  0  0  3  0  0  0  0  0  0
   39.0810   26.9470   43.6800 C   0  0  0  0  0  3  0  0  0  0  0  0
  1  4  1  6  0  0  0
  1  9  1  0  0  0  0
  1  2  1  0  0  0  0
  1  3  1  0  0  0  0
  2  6  1  0  0  0  0
  2  3  1  0  0  0  0
  3  7  1  1  0  0  0
  3 17  1  0  0  0  0
  5  2  1  0  0  0  0
  8  9  2  0  0  0  0
  8 13  1  0  0  0  0
  9 10  1  0  0  0  0
 10 15  1  0  0  0  0
 10 11  2  0  0  0  0
 12 11  1  0  0  0  0
 12 16  1  0  0  0  0
 13 12  2  0  0  0  0
 14  8  1  0  0  0  0
 17 22  1  0  0  0  0
 17 19  1  0  0  0  0
 18 17  1  0  0  0  0
 21 20  1  0  0  0  0
 21 28  1  0  0  0  0
 22 21  2  0  0  0  0
 23 22  1  0  0  0  0
 23 25  2  0  0  0  0
 24 23  1  0  0  0  0
 25 27  1  0  0  0  0
 26 25  1  0  0  0  0
 27 28  2  0  0  0  0
M  END
>  <minimizedAffinity>
-4.82176971

$$$$

 OpenBabel03252500303D

 28 30  0  0  1  0  0  0  0  0999 V2000
   37.3510   32.2930   39.8600 C   0  0  1  0  0  0  0  0  0  0  0  0
   36.5140   31.1310   39.6750 C   0  0  0  0  0  0  0  0  0  0  0  0
   37.2760   31.2250   40.9460 C   0  0  1  0  0  0  0  0  0  0  0  0
   36.8810   33.2470   40.2130 H   0  0  0  0  0  0  0  0  0  0  0  0
   35.4010   31.2020   39.8080 H   0  0  0  0  0  0  0  0  0  0  0  0
   36.7500   30.3150   38.9460 H   0  0  0  0  0  0  0  0  0  0  0  0
   36.7320   31.4890   41.8940 H   0  0  0  0  0  0  0  0  0  0  0  0
   39.6230   33.3620   39.6910 C   0  0  0  0  0  0  0  0  0  0  0  0
   38.6500   32.4600   39.1630 C   0  0  0  0  0  0  0  0  0  0  0  0
   38.9540   31.7730   38.0030 C   0  0  0  0  0  0  0  0  0  0  0  0
   40.1780   32.0070   37.4370 N   0  0  0  0  0  0  0  0  0  0  0  0
   41.0800   32.8660   37.9600 C   0  0  0  0  0  0  0  0  0  0  0  0
   40.8230   33.5660   39.1040 N   0  0  0  0  0  0  0  0  0  0  0  0
   39.3210   33.8660   40.5980 H   0  0  0  0  0  0  0  0  0  0  0  0
   38.2490   31.0880   37.5770 H   0  0  0  0  0  0  0  0  0  0  0  0
   42.0370   33.0130   37.4710 H   0  0  0  0  0  0  0  0  0  0  0  0
   38.4180   30.3070   41.1570 C   0  0  0  0  0  0  0  0  0  0  0  0
   38.9550   30.0740   40.2040 H   0  0  0  0  0  0  0  0  0  0  0  0
   39.2110   30.7150   41.8260 H   0  0  0  0  0  0  0  0  0  0  0  0
   38.0090   27.8530   39.2970 Cl  0  0  0  0  0  0  0  0  0  0  0  0
   37.6600   27.8890   40.9900 C   0  0  0  0  0  0  0  0  0  0  0  0
   37.8860   29.0340   41.7120 C   0  0  0  0  0  0  0  0  0  0  0  0
   37.5970   29.0200   43.0650 C   0  0  0  0  0  0  0  0  0  0  0  0
   37.7620   29.9030   43.6700 H   0  0  0  0  0  0  0  0  0  0  0  0
   37.0910   27.8810   43.6790 C   0  0  0  0  0  0  0  0  0  0  0  0
   36.8860   27.9390   44.7430 H   0  0  0  0  0  0  0  0  0  0  0  0
   36.8520   26.7160   42.9820 C   0  0  0  0  0  3  0  0  0  0  0  0
   37.1550   26.7870   41.6530 C   0  0  0  0  0  3  0  0  0  0  0  0
  1  4  1  1  0  0  0
  1  3  1  0  0  0  0
  2  5  1  0  0  0  0
  2  1  1  0  0  0  0
  2  3  1  0  0  0  0
  3 17  1  0  0  0  0
  3  7  1  1  0  0  0
  6  2  1  0  0  0  0
  8 14  1  0  0  0  0
  9  8  1  0  0  0  0
  9  1  1  0  0  0  0
 10  9  2  0  0  0  0
 11 12  2  0  0  0  0
 11 10  1  0  0  0  0
 12 13  1  0  0  0  0
 13  8  2  0  0  0  0
 15 10  1  0  0  0  0
 16 12  1  0  0  0  0
 17 22  1  0  0  0  0
 17 19  1  0  0  0  0
 18 17  1  0  0  0  0
 20 21  1  0  0  0  0
 21 28  2  0  0  0  0
 21 22  1  0  0  0  0
 22 23  2  0  0  0  0
 23 24  1  0  0  0  0
 23 25  1  0  0  0  0
 25 26  1  0  0  0  0
 27 25  2  0  0  0  0
 28 27  1  0  0  0  0
M  END
>  <minimizedAffinity>
-4.81413746

$$$$

 OpenBabel03252500303D

 28 30  0  0  1  0  0  0  0  0999 V2000
   35.8540   30.2220   40.5650 C   0  0  1  0  0  0  0  0  0  0  0  0
   35.0620   29.0310   40.3650 C   0  0  0  0  0  0  0  0  0  0  0  0
   36.2720   28.9090   41.2170 C   0  0  1  0  0  0  0  0  0  0  0  0
   35.5310   30.9620   41.3420 H   0  0  0  0  0  0  0  0  0  0  0  0
   34.0990   28.8870   40.9230 H   0  0  0  0  0  0  0  0  0  0  0  0
   35.0130   28.4850   39.3900 H   0  0  0  0  0  0  0  0  0  0  0  0
   36.1530   28.8240   42.3310 H   0  0  0  0  0  0  0  0  0  0  0  0
   36.5780   30.3620   38.1580 C   0  0  0  0  0  0  0  0  0  0  0  0
   36.7470   30.7720   39.5160 C   0  0  0  0  0  0  0  0  0  0  0  0
   37.7550   31.6720   39.8070 C   0  0  0  0  0  0  0  0  0  0  0  0
   38.5260   32.1120   38.7660 N   0  0  0  0  0  0  0  0  0  0  0  0
   38.3420   31.7070   37.4900 C   0  0  0  0  0  0  0  0  0  0  0  0
   37.3600   30.8190   37.1550 N   0  0  0  0  0  0  0  0  0  0  0  0
   35.7740   29.6580   38.0000 H   0  0  0  0  0  0  0  0  0  0  0  0
   37.9120   32.0030   40.8140 H   0  0  0  0  0  0  0  0  0  0  0  0
   38.9820   32.0880   36.7010 H   0  0  0  0  0  0  0  0  0  0  0  0
   37.4380   28.1620   40.6900 C   0  0  0  0  0  0  0  0  0  0  0  0
   37.6710   28.4360   39.6320 H   0  0  0  0  0  0  0  0  0  0  0  0
   38.3870   28.3560   41.2400 H   0  0  0  0  0  0  0  0  0  0  0  0
   36.6160   26.6820   38.0860 Cl  0  0  0  0  0  0  0  0  0  0  0  0
   36.7300   25.9550   39.6510 C   0  0  0  0  0  0  0  0  0  0  0  0
   37.1090   26.7130   40.7310 C   0  0  0  0  0  0  0  0  0  0  0  0
   37.1920   26.0930   41.9660 C   0  0  0  0  0  0  0  0  0  0  0  0
   37.4870   26.6550   42.8430 H   0  0  0  0  0  0  0  0  0  0  0  0
   36.9000   24.7420   42.1120 C   0  0  0  0  0  0  0  0  0  0  0  0
   36.9850   24.3190   43.1070 H   0  0  0  0  0  0  0  0  0  0  0  0
   36.5170   23.9550   41.0470 C   0  0  0  0  0  3  0  0  0  0  0  0
   36.4530   24.6170   39.8550 C   0  0  0  0  0  3  0  0  0  0  0  0
  1  3  1  0  0  0  0
  1  4  1  1  0  0  0
  2  1  1  0  0  0  0
  2  5  1  0  0  0  0
  2  3  1  0  0  0  0
  3  7  1  1  0  0  0
  6  2  1  0  0  0  0
  8  9  1  0  0  0  0
  9 10  2  0  0  0  0
  9  1  1  0  0  0  0
 10 15  1  0  0  0  0
 11 10  1  0  0  0  0
 12 11  2  0  0  0  0
 13 12  1  0  0  0  0
 13  8  2  0  0  0  0
 14  8  1  0  0  0  0
 16 12  1  0  0  0  0
 17 22  1  0  0  0  0
 17  3  1  0  0  0  0
 17 19  1  0  0  0  0
 18 17  1  0  0  0  0
 20 21  1  0  0  0  0
 21 28  2  0  0  0  0
 21 22  1  0  0  0  0
 22 23  2  0  0  0  0
 23 25  1  0  0  0  0
 23 24  1  0  0  0  0
 25 26  1  0  0  0  0
 27 25  2  0  0  0  0
 28 27  1  0  0  0  0
M  END
>  <minimizedAffinity>
-4.79926538

$$$$

 OpenBabel03252500303D

 28 30  0  0  1  0  0  0  0  0999 V2000
   36.5790   30.9630   38.7830 C   0  0  1  0  0  0  0  0  0  0  0  0
   36.6100   29.9750   37.7300 C   0  0  0  0  0  0  0  0  0  0  0  0
   36.6250   29.4780   39.1290 C   0  0  1  0  0  0  0  0  0  0  0  0
   35.5930   31.4050   39.0790 H   0  0  0  0  0  0  0  0  0  0  0  0
   35.6760   29.7130   37.1660 H   0  0  0  0  0  0  0  0  0  0  0  0
   37.5010   29.8080   37.0740 H   0  0  0  0  0  0  0  0  0  0  0  0
   35.6920   29.0190   39.5580 H   0  0  0  0  0  0  0  0  0  0  0  0
   38.8810   31.8350   38.2620 C   0  0  0  0  0  0  0  0  0  0  0  0
   37.7620   31.7800   39.1480 C   0  0  0  0  0  0  0  0  0  0  0  0
   37.8260   32.4930   40.3300 C   0  0  0  0  0  0  0  0  0  0  0  0
   38.9670   33.2090   40.5700 N   0  0  0  0  0  0  0  0  0  0  0  0
   40.0110   33.2430   39.7130 C   0  0  0  0  0  0  0  0  0  0  0  0
   39.9920   32.5550   38.5340 N   0  0  0  0  0  0  0  0  0  0  0  0
   38.7660   31.2550   37.3570 H   0  0  0  0  0  0  0  0  0  0  0  0
   37.0060   32.4760   41.0190 H   0  0  0  0  0  0  0  0  0  0  0  0
   40.8920   33.8280   39.9540 H   0  0  0  0  0  0  0  0  0  0  0  0
   37.8730   28.8820   39.6580 C   0  0  0  0  0  0  0  0  0  0  0  0
   38.2480   28.0480   39.0150 H   0  0  0  0  0  0  0  0  0  0  0  0
   38.7280   29.5940   39.7120 H   0  0  0  0  0  0  0  0  0  0  0  0
   36.8790   25.9540   39.9550 Cl  0  0  0  0  0  0  0  0  0  0  0  0
   37.1330   27.0580   41.2630 C   0  0  0  0  0  0  0  0  0  0  0  0
   37.5800   28.3300   41.0070 C   0  0  0  0  0  0  0  0  0  0  0  0
   37.7750   29.1810   42.0810 C   0  0  0  0  0  0  0  0  0  0  0  0
   38.1270   30.1920   41.9230 H   0  0  0  0  0  0  0  0  0  0  0  0
   37.5250   28.7620   43.3830 C   0  0  0  0  0  0  0  0  0  0  0  0
   37.6990   29.4790   44.1780 H   0  0  0  0  0  0  0  0  0  0  0  0
   37.0760   27.4920   43.6720 C   0  0  0  0  0  3  0  0  0  0  0  0
   36.9020   26.6970   42.5760 C   0  0  0  0  0  3  0  0  0  0  0  0
  1  4  1  1  0  0  0
  1  3  1  0  0  0  0
  1  9  1  0  0  0  0
  2  1  1  0  0  0  0
  2  3  1  0  0  0  0
  3  7  1  1  0  0  0
  3 17  1  0  0  0  0
  5  2  1  0  0  0  0
  6  2  1  0  0  0  0
  8 13  2  0  0  0  0
  8  9  1  0  0  0  0
  9 10  2  0  0  0  0
 10 11  1  0  0  0  0
 10 15  1  0  0  0  0
 12 16  1  0  0  0  0
 12 11  2  0  0  0  0
 13 12  1  0  0  0  0
 14  8  1  0  0  0  0
 17 19  1  0  0  0  0
 17 22  1  0  0  0  0
 18 17  1  0  0  0  0
 20 21  1  0  0  0  0
 21 28  1  0  0  0  0
 22 21  2  0  0  0  0
 22 23  1  0  0  0  0
 23 25  2  0  0  0  0
 24 23  1  0  0  0  0
 25 27  1  0  0  0  0
 25 26  1  0  0  0  0
 28 27  2  0  0  0  0
M  END
>  <minimizedAffinity>
-4.73083258

$$$$

 OpenBabel03252500303D

 28 30  0  0  1  0  0  0  0  0999 V2000
   35.7940   30.2190   40.6960 C   0  0  1  0  0  0  0  0  0  0  0  0
   34.9070   29.2330   40.1240 C   0  0  0  0  0  0  0  0  0  0  0  0
   35.9880   28.7400   41.0150 C   0  0  1  0  0  0  0  0  0  0  0  0
   35.4630   30.7780   41.6090 H   0  0  0  0  0  0  0  0  0  0  0  0
   33.8750   29.0850   40.5400 H   0  0  0  0  0  0  0  0  0  0  0  0
   34.9150   28.9580   39.0390 H   0  0  0  0  0  0  0  0  0  0  0  0
   35.7300   28.3980   42.0540 H   0  0  0  0  0  0  0  0  0  0  0  0
   37.9400   31.5290   40.5850 C   0  0  0  0  0  0  0  0  0  0  0  0
   36.8590   30.8870   39.9080 C   0  0  0  0  0  0  0  0  0  0  0  0
   36.8390   30.9190   38.5260 C   0  0  0  0  0  0  0  0  0  0  0  0
   37.8670   31.5680   37.8990 N   0  0  0  0  0  0  0  0  0  0  0  0
   38.8780   32.1670   38.5650 C   0  0  0  0  0  0  0  0  0  0  0  0
   38.9390   32.1610   39.9300 N   0  0  0  0  0  0  0  0  0  0  0  0
   37.8930   31.4670   41.6630 H   0  0  0  0  0  0  0  0  0  0  0  0
   36.0440   30.4480   37.9840 H   0  0  0  0  0  0  0  0  0  0  0  0
   39.6690   32.6680   38.0170 H   0  0  0  0  0  0  0  0  0  0  0  0
   37.1200   27.9990   40.4130 C   0  0  0  0  0  0  0  0  0  0  0  0
   36.7760   27.1370   39.7890 H   0  0  0  0  0  0  0  0  0  0  0  0
   37.7450   28.6080   39.7210 H   0  0  0  0  0  0  0  0  0  0  0  0
   36.9250   24.9980   41.1930 Cl  0  0  0  0  0  0  0  0  0  0  0  0
   37.9530   26.1610   41.9560 C   0  0  0  0  0  0  0  0  0  0  0  0
   37.9560   27.4630   41.5200 C   0  0  0  0  0  0  0  0  0  0  0  0
   38.7950   28.3620   42.1560 C   0  0  0  0  0  0  0  0  0  0  0  0
   38.8270   29.3970   41.8420 H   0  0  0  0  0  0  0  0  0  0  0  0
   39.6130   27.9620   43.2050 C   0  0  0  0  0  0  0  0  0  0  0  0
   40.2460   28.7170   43.6580 H   0  0  0  0  0  0  0  0  0  0  0  0
   39.6330   26.6630   43.6660 C   0  0  0  0  0  3  0  0  0  0  0  0
   38.7870   25.8200   43.0040 C   0  0  0  0  0  3  0  0  0  0  0  0
  1  3  1  0  0  0  0
  1  4  1  1  0  0  0
  2  5  1  0  0  0  0
  2  1  1  0  0  0  0
  2  3  1  0  0  0  0
  3  7  1  1  0  0  0
  6  2  1  0  0  0  0
  8 14  1  0  0  0  0
  9  8  2  0  0  0  0
  9  1  1  0  0  0  0
 10  9  1  0  0  0  0
 11 10  2  0  0  0  0
 11 12  1  0  0  0  0
 12 13  2  0  0  0  0
 13  8  1  0  0  0  0
 15 10  1  0  0  0  0
 16 12  1  0  0  0  0
 17  3  1  0  0  0  0
 17 22  1  0  0  0  0
 18 17  1  0  0  0  0
 19 17  1  0  0  0  0
 20 21  1  0  0  0  0
 21 28  1  0  0  0  0
 22 21  2  0  0  0  0
 22 23  1  0  0  0  0
 23 25  2  0  0  0  0
 24 23  1  0  0  0  0
 25 26  1  0  0  0  0
 25 27  1  0  0  0  0
 28 27  2  0  0  0  0
M  END
>  <minimizedAffinity>
-4.70099115

$$$$
