
 OpenBabel03252503543D

 36 38  0  0  1  0  0  0  0  0999 V2000
   38.3420   28.7880   41.4760 N   0  0  0  0  0  0  0  0  0  0  0  0
   38.9570   28.8330   42.8080 C   0  0  0  0  0  0  0  0  0  0  0  0
   38.8570   27.4230   43.3720 C   0  0  0  0  0  0  0  0  0  0  0  0
   37.4080   27.1570   43.6800 C   0  0  0  0  0  0  0  0  0  0  0  0
   36.5980   27.4420   42.4540 C   0  0  0  0  0  0  0  0  0  0  0  0
   37.3870   27.7890   41.2440 C   0  0  1  0  0  0  0  0  0  0  0  0
   40.0110   29.1130   42.7130 H   0  0  0  0  0  0  0  0  0  0  0  0
   38.3420   29.4920   43.4310 H   0  0  0  0  0  0  0  0  0  0  0  0
   39.2900   26.6700   42.6900 H   0  0  0  0  0  0  0  0  0  0  0  0
   39.3720   27.4730   44.3540 H   0  0  0  0  0  0  0  0  0  0  0  0
   37.3290   26.1080   44.0130 H   0  0  0  0  0  0  0  0  0  0  0  0
   37.1460   27.7950   44.5500 H   0  0  0  0  0  0  0  0  0  0  0  0
   35.9850   26.5220   42.2340 H   0  0  0  0  0  0  0  0  0  0  0  0
   35.8510   28.2100   42.7410 H   0  0  0  0  0  0  0  0  0  0  0  0
   37.9110   26.8790   40.8840 H   0  0  0  0  0  0  0  0  0  0  0  0
   37.5550   26.3240   38.4850 Cl  0  0  0  0  0  0  0  0  0  0  0  0
   36.3190   27.4380   38.9620 C   0  0  0  0  0  0  0  0  0  0  0  0
   36.3230   28.0610   40.2160 C   0  0  0  0  0  0  0  0  0  0  0  0
   35.2760   28.9770   40.4420 C   0  0  0  0  0  0  0  0  0  0  0  0
   35.3110   29.4380   41.4170 H   0  0  0  0  0  0  0  0  0  0  0  0
   34.3090   29.2480   39.5010 C   0  0  0  0  0  0  0  0  0  0  0  0
   33.5810   29.9760   39.8410 H   0  0  0  0  0  0  0  0  0  0  0  0
   34.3530   28.6050   38.2820 C   0  0  0  0  0  3  0  0  0  0  0  0
   35.3570   27.7000   38.0110 C   0  0  0  0  0  3  0  0  0  0  0  0
   38.9150   31.9960   39.7390 C   0  0  0  0  0  0  0  0  0  0  0  0
   38.4860   31.0790   40.6950 C   0  0  0  0  0  0  0  0  0  0  0  0
   38.7220   29.7320   40.5060 C   0  0  0  0  0  0  0  0  0  0  0  0
   39.3700   29.3590   39.3720 N   0  0  0  0  0  0  0  0  0  0  0  0
   39.7820   30.2520   38.4450 C   0  0  0  0  0  0  0  0  0  0  0  0
   39.5520   31.5750   38.6340 N   0  0  0  0  0  0  0  0  0  0  0  0
   37.9540   31.5110   41.5090 H   0  0  0  0  0  0  0  0  0  0  0  0
   40.2950   29.8750   37.5600 H   0  0  0  0  0  0  0  0  0  0  0  0
   38.6760   33.4530   40.0220 C   0  0  0  0  0  0  0  0  0  0  0  0
   38.7440   33.7270   41.3850 F   0  0  0  0  0  0  0  0  0  0  0  0
   39.6270   34.1610   39.3240 F   0  0  0  0  0  0  0  0  0  0  0  0
   37.4210   33.8230   39.5540 F   0  0  0  0  0  0  0  0  0  0  0  0
  1  2  1  0  0  0  0
  2  3  1  0  0  0  0
  2  8  1  0  0  0  0
  3  4  1  0  0  0  0
  3 10  1  0  0  0  0
  4 11  1  0  0  0  0
  4 12  1  0  0  0  0
  5 14  1  0  0  0  0
  5  4  1  0  0  0  0
  6 15  1  6  0  0  0
  6  1  1  0  0  0  0
  6  5  1  0  0  0  0
  7  2  1  0  0  0  0
  9  3  1  0  0  0  0
 13  5  1  0  0  0  0
 16 17  1  0  0  0  0
 17 18  1  0  0  0  0
 18 19  2  0  0  0  0
 18  6  1  0  0  0  0
 19 20  1  0  0  0  0
 21 22  1  0  0  0  0
 21 19  1  0  0  0  0
 23 21  2  0  0  0  0
 24 23  1  0  0  0  0
 24 17  2  0  0  0  0
 25 33  1  0  0  0  0
 25 26  1  0  0  0  0
 26 31  1  0  0  0  0
 27 26  2  0  0  0  0
 27  1  1  0  0  0  0
 28 27  1  0  0  0  0
 29 30  1  0  0  0  0
 29 28  2  0  0  0  0
 30 25  2  0  0  0  0
 32 29  1  0  0  0  0
 33 34  1  0  0  0  0
 35 33  1  0  0  0  0
 36 33  1  0  0  0  0
M  END
>  <minimizedAffinity>
-5.82779455

$$$$

 OpenBabel03252503543D

 36 38  0  0  1  0  0  0  0  0999 V2000
   37.9900   29.4490   41.6260 N   0  0  0  0  0  0  0  0  0  0  0  0
   38.4760   29.5100   43.0100 C   0  0  0  0  0  0  0  0  0  0  0  0
   38.6160   28.0690   43.4770 C   0  0  0  0  0  0  0  0  0  0  0  0
   37.2300   27.5030   43.6320 C   0  0  0  0  0  0  0  0  0  0  0  0
   36.4790   27.7180   42.3550 C   0  0  0  0  0  0  0  0  0  0  0  0
   37.2760   28.3040   41.2460 C   0  0  1  0  0  0  0  0  0  0  0  0
   39.4570   29.9960   43.0300 H   0  0  0  0  0  0  0  0  0  0  0  0
   37.6940   29.9860   43.6110 H   0  0  0  0  0  0  0  0  0  0  0  0
   39.2440   27.4690   42.7930 H   0  0  0  0  0  0  0  0  0  0  0  0
   39.0310   28.1420   44.5030 H   0  0  0  0  0  0  0  0  0  0  0  0
   37.3380   26.4360   43.8930 H   0  0  0  0  0  0  0  0  0  0  0  0
   36.7780   28.0080   44.5110 H   0  0  0  0  0  0  0  0  0  0  0  0
   36.0830   26.7160   42.0250 H   0  0  0  0  0  0  0  0  0  0  0  0
   35.5730   28.3010   42.6180 H   0  0  0  0  0  0  0  0  0  0  0  0
   37.9980   27.5440   40.8840 H   0  0  0  0  0  0  0  0  0  0  0  0
   38.0390   27.3180   38.3780 Cl  0  0  0  0  0  0  0  0  0  0  0  0
   36.5230   28.0160   38.8340 C   0  0  0  0  0  0  0  0  0  0  0  0
   36.2640   28.4420   40.1430 C   0  0  0  0  0  0  0  0  0  0  0  0
   35.0000   29.0310   40.3510 C   0  0  0  0  0  0  0  0  0  0  0  0
   34.8360   29.3480   41.3690 H   0  0  0  0  0  0  0  0  0  0  0  0
   34.0750   29.1810   39.3430 C   0  0  0  0  0  0  0  0  0  0  0  0
   33.1580   29.6520   39.6790 H   0  0  0  0  0  0  0  0  0  0  0  0
   34.3820   28.7420   38.0730 C   0  0  0  0  0  3  0  0  0  0  0  0
   35.6040   28.1590   37.8160 C   0  0  0  0  0  3  0  0  0  0  0  0
   39.4650   31.5060   38.9370 C   0  0  0  0  0  0  0  0  0  0  0  0
   39.2620   30.4480   39.8200 C   0  0  0  0  0  0  0  0  0  0  0  0
   38.2480   30.5210   40.7540 C   0  0  0  0  0  0  0  0  0  0  0  0
   37.4850   31.6450   40.7690 N   0  0  0  0  0  0  0  0  0  0  0  0
   37.6870   32.6700   39.9130 C   0  0  0  0  0  0  0  0  0  0  0  0
   38.6810   32.5960   38.9940 N   0  0  0  0  0  0  0  0  0  0  0  0
   39.9620   29.6530   39.7200 H   0  0  0  0  0  0  0  0  0  0  0  0
   37.0330   33.5400   39.9880 H   0  0  0  0  0  0  0  0  0  0  0  0
   40.5500   31.3500   37.9090 C   0  0  0  0  0  0  0  0  0  0  0  0
   40.4480   32.3110   36.9080 F   0  0  0  0  0  0  0  0  0  0  0  0
   41.7510   31.4480   38.5730 F   0  0  0  0  0  0  0  0  0  0  0  0
   40.4710   30.0900   37.3290 F   0  0  0  0  0  0  0  0  0  0  0  0
  1  2  1  0  0  0  0
  2  7  1  0  0  0  0
  2  3  1  0  0  0  0
  2  8  1  0  0  0  0
  3  4  1  0  0  0  0
  3 10  1  0  0  0  0
  4 11  1  0  0  0  0
  4 12  1  0  0  0  0
  5 14  1  0  0  0  0
  5  4  1  0  0  0  0
  6 15  1  6  0  0  0
  6  1  1  0  0  0  0
  6  5  1  0  0  0  0
  9  3  1  0  0  0  0
 13  5  1  0  0  0  0
 16 17  1  0  0  0  0
 17 18  1  0  0  0  0
 18 19  2  0  0  0  0
 18  6  1  0  0  0  0
 19 20  1  0  0  0  0
 21 22  1  0  0  0  0
 21 19  1  0  0  0  0
 23 21  2  0  0  0  0
 24 23  1  0  0  0  0
 24 17  2  0  0  0  0
 25 30  2  0  0  0  0
 25 26  1  0  0  0  0
 26 27  2  0  0  0  0
 27 28  1  0  0  0  0
 27  1  1  0  0  0  0
 29 32  1  0  0  0  0
 29 28  2  0  0  0  0
 30 29  1  0  0  0  0
 31 26  1  0  0  0  0
 33 35  1  0  0  0  0
 33 25  1  0  0  0  0
 34 33  1  0  0  0  0
 36 33  1  0  0  0  0
M  END
>  <minimizedAffinity>
-5.69742107

$$$$

 OpenBabel03252503543D

 36 38  0  0  1  0  0  0  0  0999 V2000
   38.3270   30.5940   40.1050 N   0  0  0  0  0  0  0  0  0  0  0  0
   39.2820   31.6040   40.5780 C   0  0  0  0  0  0  0  0  0  0  0  0
   38.4650   32.8480   40.8960 C   0  0  0  0  0  0  0  0  0  0  0  0
   37.9860   33.4250   39.5910 C   0  0  0  0  0  0  0  0  0  0  0  0
   37.2870   32.3490   38.8200 C   0  0  0  0  0  0  0  0  0  0  0  0
   37.1310   31.0580   39.5390 C   0  0  1  0  0  0  0  0  0  0  0  0
   39.7690   31.2450   41.4910 H   0  0  0  0  0  0  0  0  0  0  0  0
   39.9490   31.8410   39.7430 H   0  0  0  0  0  0  0  0  0  0  0  0
   37.6360   32.6340   41.5950 H   0  0  0  0  0  0  0  0  0  0  0  0
   39.2010   33.5750   41.2990 H   0  0  0  0  0  0  0  0  0  0  0  0
   37.3300   34.2790   39.8300 H   0  0  0  0  0  0  0  0  0  0  0  0
   38.8810   33.8360   39.0790 H   0  0  0  0  0  0  0  0  0  0  0  0
   36.2640   32.7390   38.5520 H   0  0  0  0  0  0  0  0  0  0  0  0
   37.8150   32.2650   37.8490 H   0  0  0  0  0  0  0  0  0  0  0  0
   36.3860   31.1870   40.3500 H   0  0  0  0  0  0  0  0  0  0  0  0
   34.8470   29.1400   40.4820 Cl  0  0  0  0  0  0  0  0  0  0  0  0
   35.4160   29.3080   38.8560 C   0  0  0  0  0  0  0  0  0  0  0  0
   36.4540   30.1860   38.5180 C   0  0  0  0  0  0  0  0  0  0  0  0
   36.8360   30.1790   37.1610 C   0  0  0  0  0  0  0  0  0  0  0  0
   37.6380   30.8660   36.9380 H   0  0  0  0  0  0  0  0  0  0  0  0
   36.2370   29.3700   36.2240 C   0  0  0  0  0  0  0  0  0  0  0  0
   36.6540   29.4940   35.2310 H   0  0  0  0  0  0  0  0  0  0  0  0
   35.2180   28.5260   36.6120 C   0  0  0  0  0  3  0  0  0  0  0  0
   34.8070   28.4930   37.9270 C   0  0  0  0  0  3  0  0  0  0  0  0
   38.5040   27.1380   41.3910 C   0  0  0  0  0  0  0  0  0  0  0  0
   38.2160   28.4990   41.3180 C   0  0  0  0  0  0  0  0  0  0  0  0
   38.6430   29.2310   40.2280 C   0  0  0  0  0  0  0  0  0  0  0  0
   39.3400   28.5760   39.2630 N   0  0  0  0  0  0  0  0  0  0  0  0
   39.6210   27.2560   39.3400 C   0  0  0  0  0  0  0  0  0  0  0  0
   39.1980   26.5380   40.4090 N   0  0  0  0  0  0  0  0  0  0  0  0
   37.7020   28.8840   42.1650 H   0  0  0  0  0  0  0  0  0  0  0  0
   40.1860   26.8030   38.5260 H   0  0  0  0  0  0  0  0  0  0  0  0
   37.9710   26.3810   42.5760 C   0  0  0  0  0  0  0  0  0  0  0  0
   38.1070   25.0070   42.4070 F   0  0  0  0  0  0  0  0  0  0  0  0
   38.6650   26.8190   43.6790 F   0  0  0  0  0  0  0  0  0  0  0  0
   36.6260   26.6780   42.7570 F   0  0  0  0  0  0  0  0  0  0  0  0
  1 27  1  0  0  0  0
  1  2  1  0  0  0  0
  2  3  1  0  0  0  0
  2  7  1  0  0  0  0
  3 10  1  0  0  0  0
  3  9  1  0  0  0  0
  4 11  1  0  0  0  0
  4  3  1  0  0  0  0
  5  6  1  0  0  0  0
  5  4  1  0  0  0  0
  6  1  1  0  0  0  0
  6 15  1  1  0  0  0
  8  2  1  0  0  0  0
 12  4  1  0  0  0  0
 13  5  1  0  0  0  0
 14  5  1  0  0  0  0
 17 16  1  0  0  0  0
 18 17  1  0  0  0  0
 18  6  1  0  0  0  0
 19 18  2  0  0  0  0
 20 19  1  0  0  0  0
 21 23  2  0  0  0  0
 21 19  1  0  0  0  0
 22 21  1  0  0  0  0
 23 24  1  0  0  0  0
 24 17  2  0  0  0  0
 25 33  1  0  0  0  0
 26 25  1  0  0  0  0
 26 31  1  0  0  0  0
 27 26  2  0  0  0  0
 28 29  2  0  0  0  0
 28 27  1  0  0  0  0
 29 30  1  0  0  0  0
 30 25  2  0  0  0  0
 32 29  1  0  0  0  0
 33 36  1  0  0  0  0
 33 35  1  0  0  0  0
 34 33  1  0  0  0  0
M  END
>  <minimizedAffinity>
-5.59451151

$$$$

 OpenBabel03252503543D

 36 38  0  0  1  0  0  0  0  0999 V2000
   35.9270   27.3590   38.1650 N   0  0  0  0  0  0  0  0  0  0  0  0
   35.0310   26.3030   37.6780 C   0  0  0  0  0  0  0  0  0  0  0  0
   34.3200   26.8720   36.4590 C   0  0  0  0  0  0  0  0  0  0  0  0
   33.3630   27.9290   36.9420 C   0  0  0  0  0  0  0  0  0  0  0  0
   34.1160   28.9060   37.7900 C   0  0  0  0  0  0  0  0  0  0  0  0
   35.5830   28.6830   37.8560 C   0  0  1  0  0  0  0  0  0  0  0  0
   35.6230   25.4310   37.3800 H   0  0  0  0  0  0  0  0  0  0  0  0
   34.2800   26.1260   38.4560 H   0  0  0  0  0  0  0  0  0  0  0  0
   35.0310   27.2570   35.7060 H   0  0  0  0  0  0  0  0  0  0  0  0
   33.6900   26.0400   36.0830 H   0  0  0  0  0  0  0  0  0  0  0  0
   32.9090   28.3940   36.0500 H   0  0  0  0  0  0  0  0  0  0  0  0
   32.5500   27.3980   37.4800 H   0  0  0  0  0  0  0  0  0  0  0  0
   33.9260   29.9330   37.3690 H   0  0  0  0  0  0  0  0  0  0  0  0
   33.6150   28.9150   38.7790 H   0  0  0  0  0  0  0  0  0  0  0  0
   36.0300   28.9420   36.8750 H   0  0  0  0  0  0  0  0  0  0  0  0
   37.5160   30.8900   36.7720 Cl  0  0  0  0  0  0  0  0  0  0  0  0
   36.9010   30.7930   38.3860 C   0  0  0  0  0  0  0  0  0  0  0  0
   36.0440   29.7630   38.7950 C   0  0  0  0  0  0  0  0  0  0  0  0
   35.6630   29.7940   40.1520 C   0  0  0  0  0  0  0  0  0  0  0  0
   35.0050   28.9850   40.4320 H   0  0  0  0  0  0  0  0  0  0  0  0
   36.0960   30.7660   41.0240 C   0  0  0  0  0  0  0  0  0  0  0  0
   35.7050   30.6370   42.0280 H   0  0  0  0  0  0  0  0  0  0  0  0
   36.9370   31.7580   40.5680 C   0  0  0  0  0  3  0  0  0  0  0  0
   37.3410   31.7740   39.2500 C   0  0  0  0  0  3  0  0  0  0  0  0
   38.0980   26.0430   40.8460 C   0  0  0  0  0  0  0  0  0  0  0  0
   36.9510   26.4200   40.1510 C   0  0  0  0  0  0  0  0  0  0  0  0
   37.0670   27.0110   38.9090 C   0  0  0  0  0  0  0  0  0  0  0  0
   38.3180   27.2040   38.4170 N   0  0  0  0  0  0  0  0  0  0  0  0
   39.4280   26.8410   39.0960 C   0  0  0  0  0  0  0  0  0  0  0  0
   39.3130   26.2570   40.3140 N   0  0  0  0  0  0  0  0  0  0  0  0
   36.0430   26.2470   40.6770 H   0  0  0  0  0  0  0  0  0  0  0  0
   40.3980   27.0300   38.6350 H   0  0  0  0  0  0  0  0  0  0  0  0
   37.9090   25.3580   42.1710 C   0  0  0  0  0  0  0  0  0  0  0  0
   38.7940   24.2960   42.3270 F   0  0  0  0  0  0  0  0  0  0  0  0
   38.0960   26.3090   43.1460 F   0  0  0  0  0  0  0  0  0  0  0  0
   36.6100   24.8760   42.2700 F   0  0  0  0  0  0  0  0  0  0  0  0
  1 27  1  0  0  0  0
  2  1  1  0  0  0  0
  2  8  1  0  0  0  0
  3  4  1  0  0  0  0
  3  2  1  0  0  0  0
  4 12  1  0  0  0  0
  4  5  1  0  0  0  0
  5  6  1  0  0  0  0
  5 14  1  0  0  0  0
  6 15  1  6  0  0  0
  6  1  1  0  0  0  0
  6 18  1  0  0  0  0
  7  2  1  0  0  0  0
  9  3  1  0  0  0  0
 10  3  1  0  0  0  0
 11  4  1  0  0  0  0
 13  5  1  0  0  0  0
 16 17  1  0  0  0  0
 17 18  2  0  0  0  0
 17 24  1  0  0  0  0
 18 19  1  0  0  0  0
 19 20  1  0  0  0  0
 19 21  2  0  0  0  0
 21 22  1  0  0  0  0
 23 21  1  0  0  0  0
 24 23  2  0  0  0  0
 25 33  1  0  0  0  0
 26 31  1  0  0  0  0
 26 25  2  0  0  0  0
 27 26  1  0  0  0  0
 28 27  2  0  0  0  0
 28 29  1  0  0  0  0
 29 30  2  0  0  0  0
 30 25  1  0  0  0  0
 32 29  1  0  0  0  0
 33 36  1  0  0  0  0
 33 34  1  0  0  0  0
 33 35  1  0  0  0  0
M  END
>  <minimizedAffinity>
-5.38045168

$$$$

 OpenBabel03252503543D

 36 38  0  0  1  0  0  0  0  0999 V2000
   37.3190   26.8630   39.2800 N   0  0  0  0  0  0  0  0  0  0  0  0
   36.7950   26.3740   37.9990 C   0  0  0  0  0  0  0  0  0  0  0  0
   35.6810   25.3950   38.3390 C   0  0  0  0  0  0  0  0  0  0  0  0
   36.3180   24.1680   38.9330 C   0  0  0  0  0  0  0  0  0  0  0  0
   37.2020   24.5870   40.0650 C   0  0  0  0  0  0  0  0  0  0  0  0
   37.1560   26.0340   40.3990 C   0  0  1  0  0  0  0  0  0  0  0  0
   36.3820   27.2130   37.4300 H   0  0  0  0  0  0  0  0  0  0  0  0
   37.6000   25.8140   37.5090 H   0  0  0  0  0  0  0  0  0  0  0  0
   34.9220   25.8430   39.0050 H   0  0  0  0  0  0  0  0  0  0  0  0
   35.2710   25.0800   37.3570 H   0  0  0  0  0  0  0  0  0  0  0  0
   35.5020   23.4950   39.2500 H   0  0  0  0  0  0  0  0  0  0  0  0
   36.8550   23.6580   38.1060 H   0  0  0  0  0  0  0  0  0  0  0  0
   36.8900   23.9960   40.9720 H   0  0  0  0  0  0  0  0  0  0  0  0
   38.2180   24.2110   39.8260 H   0  0  0  0  0  0  0  0  0  0  0  0
   36.1760   26.2620   40.8650 H   0  0  0  0  0  0  0  0  0  0  0  0
   36.4320   27.7840   42.8880 Cl  0  0  0  0  0  0  0  0  0  0  0  0
   37.9080   26.9080   42.6650 C   0  0  0  0  0  0  0  0  0  0  0  0
   38.1590   26.1530   41.5130 C   0  0  0  0  0  0  0  0  0  0  0  0
   39.4230   25.5330   41.4560 C   0  0  0  0  0  0  0  0  0  0  0  0
   39.5820   24.9610   40.5540 H   0  0  0  0  0  0  0  0  0  0  0  0
   40.3560   25.6530   42.4610 C   0  0  0  0  0  0  0  0  0  0  0  0
   41.2720   25.1110   42.2530 H   0  0  0  0  0  0  0  0  0  0  0  0
   40.0560   26.4070   43.5750 C   0  0  0  0  0  3  0  0  0  0  0  0
   38.8340   27.0360   43.6790 C   0  0  0  0  0  3  0  0  0  0  0  0
   37.9400   30.4600   39.8390 C   0  0  0  0  0  0  0  0  0  0  0  0
   37.2720   29.2410   39.7490 C   0  0  0  0  0  0  0  0  0  0  0  0
   37.9550   28.1150   39.3350 C   0  0  0  0  0  0  0  0  0  0  0  0
   39.2700   28.2540   39.0260 N   0  0  0  0  0  0  0  0  0  0  0  0
   39.9140   29.4390   39.1110 C   0  0  0  0  0  0  0  0  0  0  0  0
   39.2430   30.5440   39.5210 N   0  0  0  0  0  0  0  0  0  0  0  0
   36.2350   29.2920   39.9800 H   0  0  0  0  0  0  0  0  0  0  0  0
   40.9710   29.4710   38.8450 H   0  0  0  0  0  0  0  0  0  0  0  0
   37.1590   31.6410   40.3440 C   0  0  0  0  0  0  0  0  0  0  0  0
   36.5800   32.3540   39.2990 F   0  0  0  0  0  0  0  0  0  0  0  0
   36.2030   31.1540   41.2050 F   0  0  0  0  0  0  0  0  0  0  0  0
   37.9980   32.4910   41.0530 F   0  0  0  0  0  0  0  0  0  0  0  0
  1 27  1  0  0  0  0
  1  6  1  0  0  0  0
  2  3  1  0  0  0  0
  2  1  1  0  0  0  0
  3  4  1  0  0  0  0
  3  9  1  0  0  0  0
  4 11  1  0  0  0  0
  4  5  1  0  0  0  0
  5  6  1  0  0  0  0
  5 13  1  0  0  0  0
  6 15  1  1  0  0  0
  6 18  1  0  0  0  0
  7  2  1  0  0  0  0
  8  2  1  0  0  0  0
 10  3  1  0  0  0  0
 12  4  1  0  0  0  0
 14  5  1  0  0  0  0
 17 16  1  0  0  0  0
 17 24  1  0  0  0  0
 18 17  2  0  0  0  0
 19 18  1  0  0  0  0
 19 21  2  0  0  0  0
 20 19  1  0  0  0  0
 21 23  1  0  0  0  0
 22 21  1  0  0  0  0
 23 24  2  0  0  0  0
 25 33  1  0  0  0  0
 26 25  1  0  0  0  0
 26 31  1  0  0  0  0
 27 26  2  0  0  0  0
 28 29  2  0  0  0  0
 28 27  1  0  0  0  0
 29 30  1  0  0  0  0
 30 25  2  0  0  0  0
 32 29  1  0  0  0  0
 33 36  1  0  0  0  0
 33 35  1  0  0  0  0
 34 33  1  0  0  0  0
M  END
>  <minimizedAffinity>
-5.35281515

$$$$

 OpenBabel03252503543D

 36 38  0  0  1  0  0  0  0  0999 V2000
   36.7950   28.4220   40.8740 N   0  0  0  0  0  0  0  0  0  0  0  0
   36.8420   27.1390   41.5870 C   0  0  0  0  0  0  0  0  0  0  0  0
   36.6680   27.4650   43.0640 C   0  0  0  0  0  0  0  0  0  0  0  0
   37.9230   28.1540   43.5290 C   0  0  0  0  0  0  0  0  0  0  0  0
   38.1990   29.3110   42.6200 C   0  0  0  0  0  0  0  0  0  0  0  0
   37.1560   29.5690   41.5940 C   0  0  1  0  0  0  0  0  0  0  0  0
   36.0120   26.5070   41.2540 H   0  0  0  0  0  0  0  0  0  0  0  0
   37.8450   26.7230   41.4480 H   0  0  0  0  0  0  0  0  0  0  0  0
   35.7600   28.0650   43.2540 H   0  0  0  0  0  0  0  0  0  0  0  0
   36.6560   26.4790   43.5730 H   0  0  0  0  0  0  0  0  0  0  0  0
   37.7620   28.4590   44.5770 H   0  0  0  0  0  0  0  0  0  0  0  0
   38.7240   27.3850   43.5340 H   0  0  0  0  0  0  0  0  0  0  0  0
   38.3050   30.2280   43.2660 H   0  0  0  0  0  0  0  0  0  0  0  0
   39.2130   29.1480   42.2030 H   0  0  0  0  0  0  0  0  0  0  0  0
   36.2510   29.9690   42.0950 H   0  0  0  0  0  0  0  0  0  0  0  0
   40.1000   29.3840   40.5510 Cl  0  0  0  0  0  0  0  0  0  0  0  0
   39.0280   30.7220   40.3140 C   0  0  0  0  0  0  0  0  0  0  0  0
   37.7240   30.7300   40.8240 C   0  0  0  0  0  0  0  0  0  0  0  0
   36.9870   31.9080   40.5880 C   0  0  0  0  0  0  0  0  0  0  0  0
   35.9880   31.8790   40.9960 H   0  0  0  0  0  0  0  0  0  0  0  0
   37.5040   32.9840   39.9030 C   0  0  0  0  0  0  0  0  0  0  0  0
   36.8010   33.8040   39.8130 H   0  0  0  0  0  0  0  0  0  0  0  0
   38.7940   32.9210   39.4210 C   0  0  0  0  0  3  0  0  0  0  0  0
   39.5580   31.7920   39.6250 C   0  0  0  0  0  3  0  0  0  0  0  0
   36.8880   28.1900   37.1900 C   0  0  0  0  0  0  0  0  0  0  0  0
   37.3140   28.2030   38.5160 C   0  0  0  0  0  0  0  0  0  0  0  0
   36.4040   28.4490   39.5250 C   0  0  0  0  0  0  0  0  0  0  0  0
   35.1130   28.6760   39.1670 N   0  0  0  0  0  0  0  0  0  0  0  0
   34.7050   28.6670   37.8790 C   0  0  0  0  0  0  0  0  0  0  0  0
   35.5990   28.4210   36.8900 N   0  0  0  0  0  0  0  0  0  0  0  0
   38.3590   28.0530   38.6430 H   0  0  0  0  0  0  0  0  0  0  0  0
   33.6520   28.8580   37.6720 H   0  0  0  0  0  0  0  0  0  0  0  0
   37.9130   27.8670   36.1380 C   0  0  0  0  0  0  0  0  0  0  0  0
   37.6090   28.4760   34.9250 F   0  0  0  0  0  0  0  0  0  0  0  0
   39.1300   28.2920   36.6180 F   0  0  0  0  0  0  0  0  0  0  0  0
   37.9710   26.4920   35.9470 F   0  0  0  0  0  0  0  0  0  0  0  0
  1  2  1  0  0  0  0
  1  6  1  0  0  0  0
  2  3  1  0  0  0  0
  3  9  1  0  0  0  0
  3  4  1  0  0  0  0
  3 10  1  0  0  0  0
  4 12  1  0  0  0  0
  4 11  1  0  0  0  0
  5 13  1  0  0  0  0
  5  4  1  0  0  0  0
  6 15  1  1  0  0  0
  6  5  1  0  0  0  0
  7  2  1  0  0  0  0
  8  2  1  0  0  0  0
 14  5  1  0  0  0  0
 17 16  1  0  0  0  0
 17 18  1  0  0  0  0
 18  6  1  0  0  0  0
 19 18  2  0  0  0  0
 19 20  1  0  0  0  0
 21 19  1  0  0  0  0
 22 21  1  0  0  0  0
 23 24  1  0  0  0  0
 23 21  2  0  0  0  0
 24 17  2  0  0  0  0
 25 26  1  0  0  0  0
 26 31  1  0  0  0  0
 26 27  2  0  0  0  0
 27  1  1  0  0  0  0
 28 27  1  0  0  0  0
 29 28  2  0  0  0  0
 30 25  2  0  0  0  0
 30 29  1  0  0  0  0
 32 29  1  0  0  0  0
 33 35  1  0  0  0  0
 33 25  1  0  0  0  0
 34 33  1  0  0  0  0
 36 33  1  0  0  0  0
M  END
>  <minimizedAffinity>
-5.33021069

$$$$

 OpenBabel03252503543D

 36 38  0  0  1  0  0  0  0  0999 V2000
   37.6760   29.9760   40.4370 N   0  0  0  0  0  0  0  0  0  0  0  0
   36.5130   30.6380   39.8340 C   0  0  0  0  0  0  0  0  0  0  0  0
   36.9690   31.1490   38.4760 C   0  0  0  0  0  0  0  0  0  0  0  0
   37.9190   32.2910   38.7140 C   0  0  0  0  0  0  0  0  0  0  0  0
   38.9960   31.8320   39.6470 C   0  0  0  0  0  0  0  0  0  0  0  0
   38.9440   30.3920   40.0080 C   0  0  1  0  0  0  0  0  0  0  0  0
   35.7080   29.9080   39.6970 H   0  0  0  0  0  0  0  0  0  0  0  0
   36.2700   31.5050   40.4580 H   0  0  0  0  0  0  0  0  0  0  0  0
   37.4140   30.3490   37.8580 H   0  0  0  0  0  0  0  0  0  0  0  0
   36.0610   31.5990   38.0220 H   0  0  0  0  0  0  0  0  0  0  0  0
   38.3080   32.6070   37.7300 H   0  0  0  0  0  0  0  0  0  0  0  0
   37.3120   33.1330   39.1070 H   0  0  0  0  0  0  0  0  0  0  0  0
   39.9850   32.0440   39.1500 H   0  0  0  0  0  0  0  0  0  0  0  0
   38.9700   32.5170   40.5180 H   0  0  0  0  0  0  0  0  0  0  0  0
   39.2300   29.7890   39.1210 H   0  0  0  0  0  0  0  0  0  0  0  0
   40.7620   27.8540   39.8000 Cl  0  0  0  0  0  0  0  0  0  0  0  0
   40.9590   29.1460   40.9350 C   0  0  0  0  0  0  0  0  0  0  0  0
   40.0920   30.2460   40.9680 C   0  0  0  0  0  0  0  0  0  0  0  0
   40.3540   31.1940   41.9780 C   0  0  0  0  0  0  0  0  0  0  0  0
   39.6660   32.0260   41.9740 H   0  0  0  0  0  0  0  0  0  0  0  0
   41.3890   31.0600   42.8740 C   0  0  0  0  0  0  0  0  0  0  0  0
   41.4440   31.8800   43.5810 H   0  0  0  0  0  0  0  0  0  0  0  0
   42.2120   29.9570   42.7950 C   0  0  0  0  0  3  0  0  0  0  0  0
   42.0000   29.0000   41.8270 C   0  0  0  0  0  3  0  0  0  0  0  0
   37.2290   26.6720   42.0250 C   0  0  0  0  0  0  0  0  0  0  0  0
   37.3770   27.6470   41.0410 C   0  0  0  0  0  0  0  0  0  0  0  0
   37.4790   28.9750   41.4040 C   0  0  0  0  0  0  0  0  0  0  0  0
   37.4260   29.2730   42.7280 N   0  0  0  0  0  0  0  0  0  0  0  0
   37.2790   28.3240   43.6790 C   0  0  0  0  0  0  0  0  0  0  0  0
   37.1820   27.0200   43.3230 N   0  0  0  0  0  0  0  0  0  0  0  0
   37.3590   27.2720   40.0460 H   0  0  0  0  0  0  0  0  0  0  0  0
   37.2440   28.6420   44.7220 H   0  0  0  0  0  0  0  0  0  0  0  0
   37.1740   25.2390   41.5750 C   0  0  0  0  0  0  0  0  0  0  0  0
   36.4100   24.4620   42.4400 F   0  0  0  0  0  0  0  0  0  0  0  0
   36.6470   25.2360   40.3050 F   0  0  0  0  0  0  0  0  0  0  0  0
   38.4580   24.7140   41.5190 F   0  0  0  0  0  0  0  0  0  0  0  0
  1 27  1  0  0  0  0
  2  1  1  0  0  0  0
  2  8  1  0  0  0  0
  3  4  1  0  0  0  0
  3  2  1  0  0  0  0
  4 12  1  0  0  0  0
  4  5  1  0  0  0  0
  5  6  1  0  0  0  0
  5 14  1  0  0  0  0
  6 15  1  6  0  0  0
  6  1  1  0  0  0  0
  6 18  1  0  0  0  0
  7  2  1  0  0  0  0
  9  3  1  0  0  0  0
 10  3  1  0  0  0  0
 11  4  1  0  0  0  0
 13  5  1  0  0  0  0
 16 17  1  0  0  0  0
 17 18  2  0  0  0  0
 17 24  1  0  0  0  0
 18 19  1  0  0  0  0
 19 21  2  0  0  0  0
 20 19  1  0  0  0  0
 21 22  1  0  0  0  0
 23 21  1  0  0  0  0
 24 23  2  0  0  0  0
 25 30  1  0  0  0  0
 26 27  1  0  0  0  0
 26 25  2  0  0  0  0
 27 28  2  0  0  0  0
 28 29  1  0  0  0  0
 29 32  1  0  0  0  0
 30 29  2  0  0  0  0
 31 26  1  0  0  0  0
 33 25  1  0  0  0  0
 33 34  1  0  0  0  0
 35 33  1  0  0  0  0
 36 33  1  0  0  0  0
M  END
>  <minimizedAffinity>
-5.31635904

$$$$

 OpenBabel03252503543D

 36 38  0  0  1  0  0  0  0  0999 V2000
   37.9060   29.4950   41.2790 N   0  0  0  0  0  0  0  0  0  0  0  0
   37.8420   29.3080   42.7340 C   0  0  0  0  0  0  0  0  0  0  0  0
   38.1580   27.8420   42.9910 C   0  0  0  0  0  0  0  0  0  0  0  0
   36.9910   27.0310   42.4960 C   0  0  0  0  0  0  0  0  0  0  0  0
   36.7100   27.4120   41.0760 C   0  0  0  0  0  0  0  0  0  0  0  0
   37.6760   28.3680   40.4770 C   0  0  1  0  0  0  0  0  0  0  0  0
   38.6010   29.9340   43.2150 H   0  0  0  0  0  0  0  0  0  0  0  0
   36.8070   29.4910   43.0420 H   0  0  0  0  0  0  0  0  0  0  0  0
   39.1130   27.5350   42.5280 H   0  0  0  0  0  0  0  0  0  0  0  0
   38.1530   27.7400   44.0960 H   0  0  0  0  0  0  0  0  0  0  0  0
   37.2570   25.9660   42.6110 H   0  0  0  0  0  0  0  0  0  0  0  0
   36.1480   27.2310   43.1910 H   0  0  0  0  0  0  0  0  0  0  0  0
   36.7140   26.4640   40.4670 H   0  0  0  0  0  0  0  0  0  0  0  0
   35.6560   27.7560   41.0460 H   0  0  0  0  0  0  0  0  0  0  0  0
   38.6430   27.8480   40.3180 H   0  0  0  0  0  0  0  0  0  0  0  0
   34.6990   29.2860   40.1950 Cl  0  0  0  0  0  0  0  0  0  0  0  0
   35.7990   29.0110   38.8870 C   0  0  0  0  0  0  0  0  0  0  0  0
   37.1170   28.5900   39.0990 C   0  0  0  0  0  0  0  0  0  0  0  0
   37.8780   28.3660   37.9330 C   0  0  0  0  0  0  0  0  0  0  0  0
   38.8870   28.0410   38.1350 H   0  0  0  0  0  0  0  0  0  0  0  0
   37.3690   28.5460   36.6680 C   0  0  0  0  0  0  0  0  0  0  0  0
   38.0910   28.3290   35.8880 H   0  0  0  0  0  0  0  0  0  0  0  0
   36.0640   28.9640   36.5170 C   0  0  0  0  0  3  0  0  0  0  0  0
   35.2780   29.1970   37.6240 C   0  0  0  0  0  3  0  0  0  0  0  0
   39.6690   32.3320   39.7060 C   0  0  0  0  0  0  0  0  0  0  0  0
   39.4350   31.0770   40.2610 C   0  0  0  0  0  0  0  0  0  0  0  0
   38.1840   30.7690   40.7560 C   0  0  0  0  0  0  0  0  0  0  0  0
   37.2230   31.7270   40.6800 N   0  0  0  0  0  0  0  0  0  0  0  0
   37.4550   32.9450   40.1430 C   0  0  0  0  0  0  0  0  0  0  0  0
   38.6830   33.2450   39.6540 N   0  0  0  0  0  0  0  0  0  0  0  0
   40.2910   30.4450   40.2930 H   0  0  0  0  0  0  0  0  0  0  0  0
   36.6320   33.6610   40.1190 H   0  0  0  0  0  0  0  0  0  0  0  0
   41.0350   32.5930   39.1370 C   0  0  0  0  0  0  0  0  0  0  0  0
   41.0720   33.7860   38.4220 F   0  0  0  0  0  0  0  0  0  0  0  0
   41.9140   32.6200   40.1950 F   0  0  0  0  0  0  0  0  0  0  0  0
   41.3990   31.5530   38.2910 F   0  0  0  0  0  0  0  0  0  0  0  0
  1  2  1  0  0  0  0
  2  3  1  0  0  0  0
  2  8  1  0  0  0  0
  2  7  1  0  0  0  0
  3 10  1  0  0  0  0
  4 11  1  0  0  0  0
  4  3  1  0  0  0  0
  4 12  1  0  0  0  0
  5  4  1  0  0  0  0
  6 15  1  6  0  0  0
  6  5  1  0  0  0  0
  6  1  1  0  0  0  0
  9  3  1  0  0  0  0
 13  5  1  0  0  0  0
 14  5  1  0  0  0  0
 17 18  1  0  0  0  0
 17 16  1  0  0  0  0
 18  6  1  0  0  0  0
 19 20  1  0  0  0  0
 19 18  2  0  0  0  0
 21 19  1  0  0  0  0
 22 21  1  0  0  0  0
 23 21  2  0  0  0  0
 23 24  1  0  0  0  0
 24 17  2  0  0  0  0
 25 26  1  0  0  0  0
 26 31  1  0  0  0  0
 26 27  2  0  0  0  0
 27  1  1  0  0  0  0
 28 27  1  0  0  0  0
 29 28  2  0  0  0  0
 30 25  2  0  0  0  0
 30 29  1  0  0  0  0
 32 29  1  0  0  0  0
 33 25  1  0  0  0  0
 33 35  1  0  0  0  0
 34 33  1  0  0  0  0
 36 33  1  0  0  0  0
M  END
>  <minimizedAffinity>
-5.30440235

$$$$

 OpenBabel03252503543D

 36 38  0  0  1  0  0  0  0  0999 V2000
   37.2700   27.7580   38.6910 N   0  0  0  0  0  0  0  0  0  0  0  0
   37.0420   27.1790   37.3610 C   0  0  0  0  0  0  0  0  0  0  0  0
   35.6940   26.4760   37.4260 C   0  0  0  0  0  0  0  0  0  0  0  0
   35.8560   25.2600   38.2980 C   0  0  0  0  0  0  0  0  0  0  0  0
   36.4490   25.6840   39.6050 C   0  0  0  0  0  0  0  0  0  0  0  0
   36.6190   27.1500   39.7740 C   0  0  1  0  0  0  0  0  0  0  0  0
   36.9980   27.9820   36.6170 H   0  0  0  0  0  0  0  0  0  0  0  0
   37.8140   26.4190   37.1980 H   0  0  0  0  0  0  0  0  0  0  0  0
   34.8910   27.1470   37.7800 H   0  0  0  0  0  0  0  0  0  0  0  0
   35.5240   26.0930   36.3980 H   0  0  0  0  0  0  0  0  0  0  0  0
   34.8600   24.7980   38.4060 H   0  0  0  0  0  0  0  0  0  0  0  0
   36.4860   24.5440   37.7290 H   0  0  0  0  0  0  0  0  0  0  0  0
   35.7710   25.3030   40.4210 H   0  0  0  0  0  0  0  0  0  0  0  0
   37.3850   25.1030   39.7290 H   0  0  0  0  0  0  0  0  0  0  0  0
   35.6200   27.6160   39.8900 H   0  0  0  0  0  0  0  0  0  0  0  0
   39.2720   25.5790   40.3050 Cl  0  0  0  0  0  0  0  0  0  0  0  0
   38.4570   26.5960   41.4440 C   0  0  0  0  0  0  0  0  0  0  0  0
   37.2630   27.2590   41.1290 C   0  0  0  0  0  0  0  0  0  0  0  0
   36.6950   28.0140   42.1740 C   0  0  0  0  0  0  0  0  0  0  0  0
   35.7760   28.5090   41.8960 H   0  0  0  0  0  0  0  0  0  0  0  0
   37.2650   28.1040   43.4230 C   0  0  0  0  0  0  0  0  0  0  0  0
   36.6950   28.7260   44.1040 H   0  0  0  0  0  0  0  0  0  0  0  0
   38.4410   27.4320   43.6780 C   0  0  0  0  0  3  0  0  0  0  0  0
   39.0390   26.6780   42.6900 C   0  0  0  0  0  3  0  0  0  0  0  0
   38.4660   31.2070   39.2450 C   0  0  0  0  0  0  0  0  0  0  0  0
   37.6010   30.1290   39.0680 C   0  0  0  0  0  0  0  0  0  0  0  0
   38.1160   28.8720   38.8260 C   0  0  0  0  0  0  0  0  0  0  0  0
   39.4670   28.7440   38.7660 N   0  0  0  0  0  0  0  0  0  0  0  0
   40.3030   29.7930   38.9340 C   0  0  0  0  0  0  0  0  0  0  0  0
   39.7960   31.0270   39.1760 N   0  0  0  0  0  0  0  0  0  0  0  0
   36.5690   30.3860   39.0980 H   0  0  0  0  0  0  0  0  0  0  0  0
   41.3760   29.6110   38.8710 H   0  0  0  0  0  0  0  0  0  0  0  0
   37.8510   32.5430   39.5560 C   0  0  0  0  0  0  0  0  0  0  0  0
   37.1420   32.5130   40.7520 F   0  0  0  0  0  0  0  0  0  0  0  0
   38.8780   33.4570   39.6090 F   0  0  0  0  0  0  0  0  0  0  0  0
   36.9870   32.9120   38.5320 F   0  0  0  0  0  0  0  0  0  0  0  0
  1 27  1  0  0  0  0
  1  6  1  0  0  0  0
  2  3  1  0  0  0  0
  2  1  1  0  0  0  0
  3  9  1  0  0  0  0
  3  4  1  0  0  0  0
  4 11  1  0  0  0  0
  4  5  1  0  0  0  0
  5 14  1  0  0  0  0
  5  6  1  0  0  0  0
  5 13  1  0  0  0  0
  6 15  1  1  0  0  0
  6 18  1  0  0  0  0
  7  2  1  0  0  0  0
  8  2  1  0  0  0  0
 10  3  1  0  0  0  0
 12  4  1  0  0  0  0
 16 17  1  0  0  0  0
 17 24  1  0  0  0  0
 18 17  2  0  0  0  0
 18 19  1  0  0  0  0
 19 21  2  0  0  0  0
 20 19  1  0  0  0  0
 21 23  1  0  0  0  0
 21 22  1  0  0  0  0
 24 23  2  0  0  0  0
 25 33  1  0  0  0  0
 26 31  1  0  0  0  0
 26 25  2  0  0  0  0
 27 26  1  0  0  0  0
 28 27  2  0  0  0  0
 28 29  1  0  0  0  0
 29 30  2  0  0  0  0
 30 25  1  0  0  0  0
 32 29  1  0  0  0  0
 33 35  1  0  0  0  0
 33 34  1  0  0  0  0
 36 33  1  0  0  0  0
M  END
>  <minimizedAffinity>
-5.29591656

$$$$
