
 OpenBabel03252502593D

 22 23  0  0  0  0  0  0  0  0999 V2000
   43.5930   35.3610   40.6560 C   0  0  0  0  0  0  0  0  0  0  0  0
   44.1340   35.6230   39.6970 H   0  0  0  0  0  0  0  0  0  0  0  0
   43.7820   36.2650   41.3080 H   0  0  0  0  0  0  0  0  0  0  0  0
   43.2610   33.8870   38.1400 Cl  0  0  0  0  0  0  0  0  0  0  0  0
   41.9890   34.5430   39.1470 C   0  0  0  0  0  0  0  0  0  0  0  0
   42.1700   35.2480   40.3460 C   0  0  0  0  0  0  0  0  0  0  0  0
   41.0200   35.6780   40.9800 C   0  0  0  0  0  0  0  0  0  0  0  0
   41.2800   36.2090   41.8970 H   0  0  0  0  0  0  0  0  0  0  0  0
   39.7720   35.4350   40.4750 C   0  0  0  0  0  0  0  0  0  0  0  0
   38.9400   35.8100   41.0450 H   0  0  0  0  0  0  0  0  0  0  0  0
   39.5790   34.7440   39.2980 C   0  0  0  0  0  0  0  0  0  0  0  0
   40.7200   34.3070   38.6480 C   0  0  0  0  0  0  0  0  0  0  0  0
   44.3770   33.9370   41.3700 S   0  0  0  0  0  0  0  0  0  0  0  0
   45.2650   33.2490   43.8810 C   0  0  0  0  0  0  0  0  0  0  0  0
   44.6620   34.2400   43.1350 C   0  0  0  0  0  0  0  0  0  0  0  0
   44.2900   35.4360   43.7060 C   0  0  0  0  0  0  0  0  0  0  0  0
   44.5450   35.5880   45.0340 N   0  0  0  0  0  0  0  0  0  0  0  0
   45.1270   34.6250   45.7470 C   0  0  0  0  0  0  0  0  0  0  0  0
   45.4910   33.4710   45.2140 N   0  0  0  0  0  0  0  0  0  0  0  0
   45.5740   32.2840   43.4550 H   0  0  0  0  0  0  0  0  0  0  0  0
   43.8240   36.2410   43.1660 H   0  0  0  0  0  0  0  0  0  0  0  0
   45.3190   34.7730   46.8080 H   0  0  0  0  0  0  0  0  0  0  0  0
  1  3  1  0  0  0  0
  1 13  1  0  0  0  0
  2  1  1  0  0  0  0
  4  5  1  0  0  0  0
  5  6  1  0  0  0  0
  6  1  1  0  0  0  0
  6  7  2  0  0  0  0
  7  8  1  0  0  0  0
  9  7  1  0  0  0  0
  9 10  1  0  0  0  0
 11  9  2  0  0  0  0
 12  5  2  0  0  0  0
 12 11  1  0  0  0  0
 13 15  1  0  0  0  0
 14 19  1  0  0  0  0
 15 16  1  0  0  0  0
 15 14  2  0  0  0  0
 16 17  2  0  0  0  0
 17 18  1  0  0  0  0
 18 22  1  0  0  0  0
 19 18  2  0  0  0  0
 20 14  1  0  0  0  0
 21 16  1  0  0  0  0
M  END
>  <minimizedAffinity>
-4.36865568

>  <minimizedRMSD>
4.47785425

$$$$
