
 OpenBabel03252507323D

 49 52  0  0  1  0  0  0  0  0999 V2000
   46.9660   32.7510   45.5550 C   0  0  0  0  0  0  0  0  0  0  0  0
   45.8680   33.4150   46.0900 C   0  0  0  0  0  0  0  0  0  0  0  0
   45.1880   34.3770   45.3070 C   0  0  0  0  0  0  0  0  0  0  0  0
   45.6840   34.5970   44.0240 N   0  0  0  0  0  0  0  0  0  0  0  0
   46.7470   33.9240   43.5720 C   0  0  0  0  0  0  0  0  0  0  0  0
   47.3740   33.0190   44.3210 N   0  0  0  0  0  0  0  0  0  0  0  0
   45.3560   33.4310   47.0270 H   0  0  0  0  0  0  0  0  0  0  0  0
   44.3390   34.9720   45.5500 H   0  0  0  0  0  0  0  0  0  0  0  0
   47.6130   31.7550   46.3850 C   0  0  2  0  0  0  0  0  0  0  0  0
   47.3720   30.3140   45.8410 C   0  0  0  0  0  0  0  0  0  0  0  0
   48.1820   29.3450   46.6300 C   0  0  0  0  0  0  0  0  0  0  0  0
   48.1710   29.5310   48.1060 C   0  0  0  0  0  0  0  0  0  0  0  0
   48.1630   30.9060   48.5380 C   0  0  0  0  0  0  0  0  0  0  0  0
   47.1680   31.7990   47.7630 C   0  0  2  0  0  0  0  0  0  0  0  0
   48.7240   31.8370   46.3050 H   0  0  0  0  0  0  0  0  0  0  0  0
   47.7320   30.3630   44.7930 H   0  0  0  0  0  0  0  0  0  0  0  0
   46.3070   30.0880   45.7810 H   0  0  0  0  0  0  0  0  0  0  0  0
   49.1720   29.2870   46.1370 H   0  0  0  0  0  0  0  0  0  0  0  0
   47.7250   28.3300   46.4390 H   0  0  0  0  0  0  0  0  0  0  0  0
   47.8050   28.7110   48.7290 H   0  0  0  0  0  0  0  0  0  0  0  0
   49.2850   29.2770   48.3290 H   0  0  0  0  0  0  0  0  0  0  0  0
   49.1170   31.4870   48.5240 H   0  0  0  0  0  0  0  0  0  0  0  0
   47.7880   30.9670   49.5910 H   0  0  0  0  0  0  0  0  0  0  0  0
   47.2770   32.7440   48.2980 H   0  0  0  0  0  0  0  0  0  0  0  0
   45.8320   31.2110   47.8790 N   0  0  0  0  0  0  0  0  0  0  0  0
   45.1460   30.6630   48.9760 C   0  0  0  0  0  0  0  0  0  0  0  0
   44.5970   31.3820   49.8870 O   0  0  0  0  0  0  0  0  0  0  0  0
   45.0970   29.2360   48.9980 N   0  0  0  0  0  0  0  0  0  0  0  0
   45.1900   31.0670   47.0120 H   0  0  0  0  0  0  0  0  0  0  0  0
   44.6760   28.6560   48.2400 H   0  0  0  0  0  0  0  0  0  0  0  0
   45.3270   28.3530   49.5090 H   0  0  0  0  0  0  0  0  0  0  0  0
   47.2310   34.2200   42.2210 C   0  0  0  0  0  0  0  0  0  0  0  0
   48.2470   35.1260   42.0120 C   0  0  0  0  0  0  0  0  0  0  0  0
   48.7470   35.4480   40.7700 C   0  0  0  0  0  0  0  0  0  0  0  0
   48.1480   34.7850   39.7040 C   0  0  0  0  0  0  0  0  0  0  0  0
   47.1340   33.8810   39.9060 C   0  0  0  0  0  0  0  0  0  0  0  0
   46.6820   33.6050   41.1600 N   0  0  0  0  0  0  0  0  0  0  0  0
   48.6880   35.6220   42.8700 H   0  0  0  0  0  0  0  0  0  0  0  0
   49.5380   36.1530   40.6090 H   0  0  0  0  0  0  0  0  0  0  0  0
   48.5280   35.0260   38.7220 H   0  0  0  0  0  0  0  0  0  0  0  0
   48.2270   34.5020   37.2000 Cl  0  0  0  0  0  0  0  0  0  0  0  0
   46.9040   33.3730   37.4930 C   0  0  0  0  0  0  0  0  0  0  0  0
   46.4990   33.1810   38.7970 C   0  0  0  0  0  0  0  0  0  0  0  0
   45.4620   32.2820   38.9240 C   0  0  0  0  0  0  0  0  0  0  0  0
   45.0760   32.0670   39.9110 H   0  0  0  0  0  0  0  0  0  0  0  0
   44.8810   31.6350   37.8530 C   0  0  0  0  0  0  0  0  0  0  0  0
   44.0700   30.9440   38.0420 H   0  0  0  0  0  0  0  0  0  0  0  0
   45.3360   31.8730   36.5730 C   0  0  0  0  0  3  0  0  0  0  0  0
   46.3710   32.7610   36.3810 C   0  0  0  0  0  3  0  0  0  0  0  0
  1  2  1  0  0  0  0
  1  9  1  0  0  0  0
  2  7  1  0  0  0  0
  3  8  1  0  0  0  0
  3  2  2  0  0  0  0
  4  3  1  0  0  0  0
  5  4  2  0  0  0  0
  5  6  1  0  0  0  0
  6  1  2  0  0  0  0
  9 15  1  6  0  0  0
  9 14  1  0  0  0  0
 10  9  1  0  0  0  0
 10 11  1  0  0  0  0
 11 12  1  0  0  0  0
 12 21  1  0  0  0  0
 12 13  1  0  0  0  0
 12 20  1  0  0  0  0
 13 23  1  0  0  0  0
 14 25  1  0  0  0  0
 14 24  1  1  0  0  0
 14 13  1  0  0  0  0
 16 10  1  0  0  0  0
 17 10  1  0  0  0  0
 18 11  1  0  0  0  0
 19 11  1  0  0  0  0
 22 13  1  0  0  0  0
 25 26  1  0  0  0  0
 26 28  1  0  0  0  0
 26 27  2  0  0  0  0
 28 31  1  0  0  0  0
 29 25  1  0  0  0  0
 30 28  1  0  0  0  0
 32  5  1  0  0  0  0
 33 32  1  0  0  0  0
 33 38  1  0  0  0  0
 34 33  2  0  0  0  0
 35 36  2  0  0  0  0
 35 34  1  0  0  0  0
 36 37  1  0  0  0  0
 37 32  2  0  0  0  0
 39 34  1  0  0  0  0
 40 35  1  0  0  0  0
 41 42  1  0  0  0  0
 42 43  1  0  0  0  0
 43 44  2  0  0  0  0
 43 36  1  0  0  0  0
 44 45  1  0  0  0  0
 46 47  1  0  0  0  0
 46 44  1  0  0  0  0
 48 46  2  0  0  0  0
 49 48  1  0  0  0  0
 49 42  2  0  0  0  0
M  END
>  <minimizedAffinity>
-6.84446049

>  <minimizedRMSD>
0.316267669

$$$$
