
 OpenBabel03242515193D

 37 39  0  0  0  0  0  0  0  0999 V2000
   35.7640   28.6900   37.9130 C   0  0  0  0  0  0  0  0  0  0  0  0
   36.1760   27.9370   38.9890 C   0  0  0  0  0  0  0  0  0  0  0  0
   36.6310   28.8170   39.9450 C   0  0  0  0  0  0  0  0  0  0  0  0
   36.4990   30.0490   39.4660 N   0  0  0  0  0  0  0  0  0  0  0  0
   35.9730   29.9540   38.2370 N   0  0  0  0  0  0  0  0  0  0  0  0
   36.1120   26.8570   38.9790 H   0  0  0  0  0  0  0  0  0  0  0  0
   39.5340   28.4070   39.9240 Cl  0  0  0  0  0  0  0  0  0  0  0  0
   38.4900   28.0660   41.3130 C   0  0  0  0  0  0  0  0  0  0  0  0
   37.1090   28.2930   41.2080 C   0  0  0  0  0  0  0  0  0  0  0  0
   36.4460   27.9780   42.3670 C   0  0  0  0  0  0  0  0  0  0  0  0
   35.3810   28.1400   42.3590 H   0  0  0  0  0  0  0  0  0  0  0  0
   37.0460   27.4970   43.5070 C   0  0  0  0  0  0  0  0  0  0  0  0
   36.4080   27.2880   44.3550 H   0  0  0  0  0  0  0  0  0  0  0  0
   38.4060   27.2980   43.5400 C   0  0  0  0  0  3  0  0  0  0  0  0
   39.1440   27.5890   42.4210 C   0  0  0  0  0  3  0  0  0  0  0  0
   36.8460   31.2990   40.1450 C   0  0  0  0  0  0  0  0  0  0  0  0
   38.2380   31.3110   40.4020 F   0  0  0  0  0  0  0  0  0  0  0  0
   36.1290   31.4500   41.2760 F   0  0  0  0  0  0  0  0  0  0  0  0
   36.6340   32.3490   39.2810 F   0  0  0  0  0  0  0  0  0  0  0  0
   35.1860   28.2550   36.6300 C   0  0  0  0  0  0  0  0  0  0  0  0
   35.2220   29.1530   35.9620 H   0  0  0  0  0  0  0  0  0  0  0  0
   35.7890   27.4760   36.1480 H   0  0  0  0  0  0  0  0  0  0  0  0
   33.7360   27.8890   36.7710 C   0  0  0  0  0  0  0  0  0  0  0  0
   33.5410   27.0030   36.0980 H   0  0  0  0  0  0  0  0  0  0  0  0
   33.5760   27.6030   37.8000 H   0  0  0  0  0  0  0  0  0  0  0  0
   31.8820   30.4340   34.7850 C   0  0  0  0  0  0  0  0  0  0  0  0
   30.9530   30.8940   35.7470 C   0  0  0  0  0  0  0  0  0  0  0  0
   31.0140   30.3150   37.0030 C   0  0  0  0  0  0  0  0  0  0  0  0
   31.9500   29.3730   37.1870 N   0  0  0  0  0  0  0  0  0  0  0  0
   32.8210   28.9430   36.2800 C   0  0  0  0  0  0  0  0  0  0  0  0
   32.7760   29.4850   35.0770 N   0  0  0  0  0  0  0  0  0  0  0  0
   31.8230   30.8950   33.8060 H   0  0  0  0  0  0  0  0  0  0  0  0
   30.2210   31.6600   35.5300 H   0  0  0  0  0  0  0  0  0  0  0  0
   30.0500   30.7870   38.0030 C   0  0  0  0  0  0  0  0  0  0  0  0
   28.7590   30.6300   37.5110 F   0  0  0  0  0  0  0  0  0  0  0  0
   30.2260   32.1710   38.0790 F   0  0  0  0  0  0  0  0  0  0  0  0
   30.1840   30.1600   39.2040 F   0  0  0  0  0  0  0  0  0  0  0  0
  1  5  2  0  0  0  0
  1  2  1  0  0  0  0
  2  3  2  0  0  0  0
  3  9  1  0  0  0  0
  4  3  1  0  0  0  0
  4 16  1  0  0  0  0
  5  4  1  0  0  0  0
  6  2  1  0  0  0  0
  7  8  1  0  0  0  0
  8 15  1  0  0  0  0
  9  8  2  0  0  0  0
  9 10  1  0  0  0  0
 10 12  2  0  0  0  0
 11 10  1  0  0  0  0
 12 14  1  0  0  0  0
 12 13  1  0  0  0  0
 15 14  2  0  0  0  0
 16 17  1  0  0  0  0
 16 18  1  0  0  0  0
 19 16  1  0  0  0  0
 20 23  1  0  0  0  0
 20  1  1  0  0  0  0
 21 20  1  0  0  0  0
 22 20  1  0  0  0  0
 23 25  1  0  0  0  0
 24 23  1  0  0  0  0
 26 31  2  0  0  0  0
 26 27  1  0  0  0  0
 27 28  2  0  0  0  0
 28 29  1  0  0  0  0
 28 34  1  0  0  0  0
 30 23  1  0  0  0  0
 30 29  2  0  0  0  0
 31 30  1  0  0  0  0
 32 26  1  0  0  0  0
 33 27  1  0  0  0  0
 34 36  1  0  0  0  0
 34 37  1  0  0  0  0
 35 34  1  0  0  0  0
M  END
>  <minimizedAffinity>
-6.17239666

$$$$

 OpenBabel03242515193D

 37 39  0  0  0  0  0  0  0  0999 V2000
   39.5120   29.2210   39.7440 C   0  0  0  0  0  0  0  0  0  0  0  0
   38.4170   28.6600   39.1240 C   0  0  0  0  0  0  0  0  0  0  0  0
   37.6050   29.6980   38.7270 C   0  0  0  0  0  0  0  0  0  0  0  0
   38.1850   30.8360   39.0900 N   0  0  0  0  0  0  0  0  0  0  0  0
   39.3360   30.5290   39.7040 N   0  0  0  0  0  0  0  0  0  0  0  0
   38.3150   27.5870   39.0250 H   0  0  0  0  0  0  0  0  0  0  0  0
   35.3700   29.2400   40.5680 Cl  0  0  0  0  0  0  0  0  0  0  0  0
   35.2390   29.1650   38.8030 C   0  0  0  0  0  0  0  0  0  0  0  0
   36.3790   29.3940   38.0170 C   0  0  0  0  0  0  0  0  0  0  0  0
   36.1080   29.2980   36.6760 C   0  0  0  0  0  0  0  0  0  0  0  0
   36.9390   29.4740   36.0140 H   0  0  0  0  0  0  0  0  0  0  0  0
   34.8720   29.0130   36.1450 C   0  0  0  0  0  0  0  0  0  0  0  0
   34.7920   28.9670   35.0680 H   0  0  0  0  0  0  0  0  0  0  0  0
   33.7960   28.8000   36.9750 C   0  0  0  0  0  3  0  0  0  0  0  0
   33.9830   28.8780   38.3310 C   0  0  0  0  0  3  0  0  0  0  0  0
   37.6820   32.1920   38.8610 C   0  0  0  0  0  0  0  0  0  0  0  0
   36.5710   32.4190   39.7090 F   0  0  0  0  0  0  0  0  0  0  0  0
   37.3630   32.3770   37.5650 F   0  0  0  0  0  0  0  0  0  0  0  0
   38.6340   33.0970   39.2710 F   0  0  0  0  0  0  0  0  0  0  0  0
   40.6870   28.5670   40.3460 C   0  0  0  0  0  0  0  0  0  0  0  0
   40.6120   27.4870   40.0620 H   0  0  0  0  0  0  0  0  0  0  0  0
   41.6280   28.9420   39.9250 H   0  0  0  0  0  0  0  0  0  0  0  0
   40.6390   28.6150   41.8460 C   0  0  0  0  0  0  0  0  0  0  0  0
   41.3710   27.8470   42.2350 H   0  0  0  0  0  0  0  0  0  0  0  0
   40.9600   29.6020   42.1460 H   0  0  0  0  0  0  0  0  0  0  0  0
   37.3510   28.3920   43.5760 C   0  0  0  0  0  0  0  0  0  0  0  0
   36.9620   27.0750   43.2350 C   0  0  0  0  0  0  0  0  0  0  0  0
   37.8360   26.3490   42.4440 C   0  0  0  0  0  0  0  0  0  0  0  0
   38.9690   26.9650   42.0770 N   0  0  0  0  0  0  0  0  0  0  0  0
   39.3310   28.2030   42.3990 C   0  0  0  0  0  0  0  0  0  0  0  0
   38.5080   28.9090   43.1520 N   0  0  0  0  0  0  0  0  0  0  0  0
   36.6570   28.9490   44.1950 H   0  0  0  0  0  0  0  0  0  0  0  0
   36.0300   26.6390   43.5660 H   0  0  0  0  0  0  0  0  0  0  0  0
   37.4360   24.9850   42.0860 C   0  0  0  0  0  0  0  0  0  0  0  0
   37.0780   24.9450   40.7430 F   0  0  0  0  0  0  0  0  0  0  0  0
   36.2410   24.7460   42.7700 F   0  0  0  0  0  0  0  0  0  0  0  0
   38.4020   24.0630   42.3510 F   0  0  0  0  0  0  0  0  0  0  0  0
  1 20  1  0  0  0  0
  2  1  1  0  0  0  0
  3  4  1  0  0  0  0
  3  2  2  0  0  0  0
  4  5  1  0  0  0  0
  5  1  2  0  0  0  0
  6  2  1  0  0  0  0
  8  7  1  0  0  0  0
  9  3  1  0  0  0  0
  9  8  2  0  0  0  0
 10  9  1  0  0  0  0
 11 10  1  0  0  0  0
 12 10  2  0  0  0  0
 12 14  1  0  0  0  0
 13 12  1  0  0  0  0
 14 15  2  0  0  0  0
 15  8  1  0  0  0  0
 16  4  1  0  0  0  0
 16 19  1  0  0  0  0
 16 17  1  0  0  0  0
 18 16  1  0  0  0  0
 20 23  1  0  0  0  0
 21 20  1  0  0  0  0
 22 20  1  0  0  0  0
 23 25  1  0  0  0  0
 23 24  1  0  0  0  0
 23 30  1  0  0  0  0
 26 32  1  0  0  0  0
 27 33  1  0  0  0  0
 27 26  1  0  0  0  0
 28 27  2  0  0  0  0
 29 30  2  0  0  0  0
 29 28  1  0  0  0  0
 30 31  1  0  0  0  0
 31 26  2  0  0  0  0
 34 37  1  0  0  0  0
 34 28  1  0  0  0  0
 34 36  1  0  0  0  0
 35 34  1  0  0  0  0
M  END
>  <minimizedAffinity>
-6.15521955

$$$$

 OpenBabel03242515193D

 37 39  0  0  0  0  0  0  0  0999 V2000
   36.2800   28.9450   39.7910 C   0  0  0  0  0  0  0  0  0  0  0  0
   36.6210   27.6490   39.4760 C   0  0  0  0  0  0  0  0  0  0  0  0
   36.9770   27.0300   40.6530 C   0  0  0  0  0  0  0  0  0  0  0  0
   36.8560   27.9150   41.6360 N   0  0  0  0  0  0  0  0  0  0  0  0
   36.4340   29.0670   41.0980 N   0  0  0  0  0  0  0  0  0  0  0  0
   36.5820   27.2880   38.4570 H   0  0  0  0  0  0  0  0  0  0  0  0
   39.8710   26.7100   40.3030 Cl  0  0  0  0  0  0  0  0  0  0  0  0
   38.7320   25.3630   40.4650 C   0  0  0  0  0  0  0  0  0  0  0  0
   37.3630   25.6340   40.6200 C   0  0  0  0  0  0  0  0  0  0  0  0
   36.6200   24.4860   40.7300 C   0  0  0  0  0  0  0  0  0  0  0  0
   35.5610   24.6220   40.8630 H   0  0  0  0  0  0  0  0  0  0  0  0
   37.1370   23.2110   40.6950 C   0  0  0  0  0  0  0  0  0  0  0  0
   36.4420   22.3900   40.7930 H   0  0  0  0  0  0  0  0  0  0  0  0
   38.4900   23.0200   40.5400 C   0  0  0  0  0  3  0  0  0  0  0  0
   39.3040   24.1170   40.4240 C   0  0  0  0  0  3  0  0  0  0  0  0
   37.1190   27.6900   43.0590 C   0  0  0  0  0  0  0  0  0  0  0  0
   38.3640   27.0310   43.1980 F   0  0  0  0  0  0  0  0  0  0  0  0
   36.1190   26.9910   43.6310 F   0  0  0  0  0  0  0  0  0  0  0  0
   37.2890   28.9070   43.6790 F   0  0  0  0  0  0  0  0  0  0  0  0
   35.8170   30.0330   38.9130 C   0  0  0  0  0  0  0  0  0  0  0  0
   35.2060   29.5410   38.1150 H   0  0  0  0  0  0  0  0  0  0  0  0
   35.1530   30.7320   39.4360 H   0  0  0  0  0  0  0  0  0  0  0  0
   36.9640   30.7060   38.2140 C   0  0  0  0  0  0  0  0  0  0  0  0
   37.7930   29.9460   38.1090 H   0  0  0  0  0  0  0  0  0  0  0  0
   36.6150   30.9970   37.2330 H   0  0  0  0  0  0  0  0  0  0  0  0
   37.7800   33.9330   39.8800 C   0  0  0  0  0  0  0  0  0  0  0  0
   38.9560   33.5780   40.5810 C   0  0  0  0  0  0  0  0  0  0  0  0
   39.3960   32.2730   40.4450 C   0  0  0  0  0  0  0  0  0  0  0  0
   38.6640   31.4700   39.6590 N   0  0  0  0  0  0  0  0  0  0  0  0
   37.5600   31.8070   39.0020 C   0  0  0  0  0  0  0  0  0  0  0  0
   37.1260   33.0480   39.1220 N   0  0  0  0  0  0  0  0  0  0  0  0
   37.4460   34.9580   39.9960 H   0  0  0  0  0  0  0  0  0  0  0  0
   39.4990   34.2800   41.2000 H   0  0  0  0  0  0  0  0  0  0  0  0
   40.6140   31.9000   41.1730 C   0  0  0  0  0  0  0  0  0  0  0  0
   41.2220   30.8240   40.5360 F   0  0  0  0  0  0  0  0  0  0  0  0
   40.1820   31.3810   42.3960 F   0  0  0  0  0  0  0  0  0  0  0  0
   41.4890   32.9350   41.3050 F   0  0  0  0  0  0  0  0  0  0  0  0
  1  5  2  0  0  0  0
  2  1  1  0  0  0  0
  2  3  2  0  0  0  0
  3  4  1  0  0  0  0
  4 16  1  0  0  0  0
  5  4  1  0  0  0  0
  6  2  1  0  0  0  0
  7  8  1  0  0  0  0
  8  9  1  0  0  0  0
  9  3  1  0  0  0  0
  9 10  2  0  0  0  0
 10 11  1  0  0  0  0
 12 10  1  0  0  0  0
 12 13  1  0  0  0  0
 14 12  2  0  0  0  0
 15  8  2  0  0  0  0
 15 14  1  0  0  0  0
 16 17  1  0  0  0  0
 16 18  1  0  0  0  0
 16 19  1  0  0  0  0
 20 22  1  0  0  0  0
 20  1  1  0  0  0  0
 21 20  1  0  0  0  0
 23 20  1  0  0  0  0
 23 30  1  0  0  0  0
 24 23  1  0  0  0  0
 25 23  1  0  0  0  0
 26 32  1  0  0  0  0
 26 27  1  0  0  0  0
 27 33  1  0  0  0  0
 28 27  2  0  0  0  0
 28 34  1  0  0  0  0
 29 28  1  0  0  0  0
 30 31  1  0  0  0  0
 30 29  2  0  0  0  0
 31 26  2  0  0  0  0
 34 37  1  0  0  0  0
 34 36  1  0  0  0  0
 35 34  1  0  0  0  0
M  END
>  <minimizedAffinity>
-6.0904789

$$$$

 OpenBabel03242515193D

 37 39  0  0  0  0  0  0  0  0999 V2000
   38.6910   30.0270   41.9200 C   0  0  0  0  0  0  0  0  0  0  0  0
   39.7590   30.5580   41.2330 C   0  0  0  0  0  0  0  0  0  0  0  0
   39.2790   30.9910   40.0170 C   0  0  0  0  0  0  0  0  0  0  0  0
   37.9770   30.7330   39.9730 N   0  0  0  0  0  0  0  0  0  0  0  0
   37.6380   30.1500   41.1310 N   0  0  0  0  0  0  0  0  0  0  0  0
   40.7510   30.5790   41.6630 H   0  0  0  0  0  0  0  0  0  0  0  0
   39.4100   33.8920   40.4250 Cl  0  0  0  0  0  0  0  0  0  0  0  0
   40.3420   33.0150   39.2010 C   0  0  0  0  0  0  0  0  0  0  0  0
   40.1950   31.6240   39.0890 C   0  0  0  0  0  0  0  0  0  0  0  0
   40.9830   31.1000   38.0950 C   0  0  0  0  0  0  0  0  0  0  0  0
   40.9260   30.0330   37.9620 H   0  0  0  0  0  0  0  0  0  0  0  0
   41.8250   31.8360   37.2930 C   0  0  0  0  0  0  0  0  0  0  0  0
   42.3930   31.3010   36.5460 H   0  0  0  0  0  0  0  0  0  0  0  0
   41.9200   33.1980   37.4590 C   0  0  0  0  0  3  0  0  0  0  0  0
   41.1650   33.7990   38.4320 C   0  0  0  0  0  3  0  0  0  0  0  0
   37.0580   31.0320   38.8730 C   0  0  0  0  0  0  0  0  0  0  0  0
   37.5250   30.3970   37.6980 F   0  0  0  0  0  0  0  0  0  0  0  0
   36.9270   32.3630   38.7010 F   0  0  0  0  0  0  0  0  0  0  0  0
   35.8410   30.4450   39.1370 F   0  0  0  0  0  0  0  0  0  0  0  0
   38.6430   29.4340   43.2670 C   0  0  0  0  0  0  0  0  0  0  0  0
   39.6590   29.0000   43.4440 H   0  0  0  0  0  0  0  0  0  0  0  0
   38.4800   30.1890   44.0460 H   0  0  0  0  0  0  0  0  0  0  0  0
   37.6760   28.2870   43.3330 C   0  0  0  0  0  0  0  0  0  0  0  0
   37.2660   28.2460   44.3850 H   0  0  0  0  0  0  0  0  0  0  0  0
   36.8740   28.5030   42.6420 H   0  0  0  0  0  0  0  0  0  0  0  0
   39.8880   25.2940   43.3910 C   0  0  0  0  0  0  0  0  0  0  0  0
   39.2040   24.4420   42.4930 C   0  0  0  0  0  0  0  0  0  0  0  0
   38.0410   24.9340   41.9270 C   0  0  0  0  0  0  0  0  0  0  0  0
   37.6750   26.1730   42.2850 N   0  0  0  0  0  0  0  0  0  0  0  0
   38.3210   26.9710   43.1290 C   0  0  0  0  0  0  0  0  0  0  0  0
   39.4310   26.5160   43.6780 N   0  0  0  0  0  0  0  0  0  0  0  0
   40.7970   24.8960   43.8280 H   0  0  0  0  0  0  0  0  0  0  0  0
   39.5570   23.4490   42.2490 H   0  0  0  0  0  0  0  0  0  0  0  0
   37.3260   24.0520   40.9980 C   0  0  0  0  0  0  0  0  0  0  0  0
   37.1920   24.6870   39.7680 F   0  0  0  0  0  0  0  0  0  0  0  0
   36.0190   23.9630   41.4860 F   0  0  0  0  0  0  0  0  0  0  0  0
   37.9290   22.8410   40.8480 F   0  0  0  0  0  0  0  0  0  0  0  0
  1 20  1  0  0  0  0
  2  6  1  0  0  0  0
  2  1  1  0  0  0  0
  3  2  2  0  0  0  0
  4  3  1  0  0  0  0
  4  5  1  0  0  0  0
  5  1  2  0  0  0  0
  8  7  1  0  0  0  0
  9  8  1  0  0  0  0
  9  3  1  0  0  0  0
 10  9  2  0  0  0  0
 11 10  1  0  0  0  0
 12 14  2  0  0  0  0
 12 10  1  0  0  0  0
 13 12  1  0  0  0  0
 14 15  1  0  0  0  0
 15  8  2  0  0  0  0
 16 19  1  0  0  0  0
 16  4  1  0  0  0  0
 17 16  1  0  0  0  0
 18 16  1  0  0  0  0
 20 23  1  0  0  0  0
 20 21  1  0  0  0  0
 20 22  1  0  0  0  0
 23 24  1  0  0  0  0
 25 23  1  0  0  0  0
 26 31  1  0  0  0  0
 26 32  1  0  0  0  0
 27 26  2  0  0  0  0
 28 29  2  0  0  0  0
 28 27  1  0  0  0  0
 29 30  1  0  0  0  0
 30 23  1  0  0  0  0
 30 31  2  0  0  0  0
 33 27  1  0  0  0  0
 34 36  1  0  0  0  0
 34 28  1  0  0  0  0
 35 34  1  0  0  0  0
 37 34  1  0  0  0  0
M  END
>  <minimizedAffinity>
-6.00101376

$$$$

 OpenBabel03242515193D

 37 39  0  0  0  0  0  0  0  0999 V2000
   35.0500   28.8500   37.1440 C   0  0  0  0  0  0  0  0  0  0  0  0
   35.0510   28.1050   38.3020 C   0  0  0  0  0  0  0  0  0  0  0  0
   36.3060   28.2250   38.8550 C   0  0  0  0  0  0  0  0  0  0  0  0
   37.0310   29.0080   38.0650 N   0  0  0  0  0  0  0  0  0  0  0  0
   36.2570   29.3760   37.0350 N   0  0  0  0  0  0  0  0  0  0  0  0
   34.1720   27.5630   38.6240 H   0  0  0  0  0  0  0  0  0  0  0  0
   35.9300   30.0120   41.1490 Cl  0  0  0  0  0  0  0  0  0  0  0  0
   36.4270   28.3170   41.2780 C   0  0  0  0  0  0  0  0  0  0  0  0
   36.5840   27.5550   40.1100 C   0  0  0  0  0  0  0  0  0  0  0  0
   36.9730   26.2680   40.3830 C   0  0  0  0  0  0  0  0  0  0  0  0
   37.1010   25.6240   39.5290 H   0  0  0  0  0  0  0  0  0  0  0  0
   37.1870   25.7650   41.6450 C   0  0  0  0  0  0  0  0  0  0  0  0
   37.4910   24.7310   41.7230 H   0  0  0  0  0  0  0  0  0  0  0  0
   37.0140   26.5690   42.7470 C   0  0  0  0  0  3  0  0  0  0  0  0
   36.6250   27.8710   42.5600 C   0  0  0  0  0  3  0  0  0  0  0  0
   38.4220   29.4180   38.2690 C   0  0  0  0  0  0  0  0  0  0  0  0
   38.8050   30.2830   37.2150 F   0  0  0  0  0  0  0  0  0  0  0  0
   39.2340   28.3460   38.3530 F   0  0  0  0  0  0  0  0  0  0  0  0
   38.4980   30.1870   39.4070 F   0  0  0  0  0  0  0  0  0  0  0  0
   33.9650   29.0740   36.1730 C   0  0  0  0  0  0  0  0  0  0  0  0
   33.9230   30.1810   36.0150 H   0  0  0  0  0  0  0  0  0  0  0  0
   34.1830   28.6220   35.1980 H   0  0  0  0  0  0  0  0  0  0  0  0
   32.6290   28.6760   36.7330 C   0  0  0  0  0  0  0  0  0  0  0  0
   32.1680   27.9310   36.0200 H   0  0  0  0  0  0  0  0  0  0  0  0
   32.8100   28.1980   37.6860 H   0  0  0  0  0  0  0  0  0  0  0  0
   30.0970   31.2290   37.6960 C   0  0  0  0  0  0  0  0  0  0  0  0
   29.9720   31.9460   36.4830 C   0  0  0  0  0  0  0  0  0  0  0  0
   30.7490   31.5200   35.4200 C   0  0  0  0  0  0  0  0  0  0  0  0
   31.5480   30.4670   35.6430 N   0  0  0  0  0  0  0  0  0  0  0  0
   31.6640   29.7960   36.7840 C   0  0  0  0  0  0  0  0  0  0  0  0
   30.9290   30.1890   37.8080 N   0  0  0  0  0  0  0  0  0  0  0  0
   29.4830   31.5730   38.5200 H   0  0  0  0  0  0  0  0  0  0  0  0
   29.3050   32.7900   36.3730 H   0  0  0  0  0  0  0  0  0  0  0  0
   30.6240   32.2630   34.1620 C   0  0  0  0  0  0  0  0  0  0  0  0
   30.7210   31.3800   33.0920 F   0  0  0  0  0  0  0  0  0  0  0  0
   31.7750   33.0500   34.0680 F   0  0  0  0  0  0  0  0  0  0  0  0
   29.4710   32.9830   34.0850 F   0  0  0  0  0  0  0  0  0  0  0  0
  1  2  1  0  0  0  0
  2  6  1  0  0  0  0
  2  3  2  0  0  0  0
  3  9  1  0  0  0  0
  4 16  1  0  0  0  0
  4  3  1  0  0  0  0
  5  1  2  0  0  0  0
  5  4  1  0  0  0  0
  7  8  1  0  0  0  0
  8 15  1  0  0  0  0
  9 10  1  0  0  0  0
  9  8  2  0  0  0  0
 10 12  2  0  0  0  0
 11 10  1  0  0  0  0
 12 13  1  0  0  0  0
 12 14  1  0  0  0  0
 15 14  2  0  0  0  0
 16 18  1  0  0  0  0
 16 19  1  0  0  0  0
 17 16  1  0  0  0  0
 20 23  1  0  0  0  0
 20  1  1  0  0  0  0
 21 20  1  0  0  0  0
 22 20  1  0  0  0  0
 23 30  1  0  0  0  0
 23 25  1  0  0  0  0
 24 23  1  0  0  0  0
 26 31  1  0  0  0  0
 26 32  1  0  0  0  0
 27 26  2  0  0  0  0
 28 29  2  0  0  0  0
 28 27  1  0  0  0  0
 29 30  1  0  0  0  0
 30 31  2  0  0  0  0
 33 27  1  0  0  0  0
 34 28  1  0  0  0  0
 35 34  1  0  0  0  0
 36 34  1  0  0  0  0
 37 34  1  0  0  0  0
M  END
>  <minimizedAffinity>
-5.98181772

$$$$

 OpenBabel03242515193D

 37 39  0  0  0  0  0  0  0  0999 V2000
   38.0910   29.8110   41.6330 C   0  0  0  0  0  0  0  0  0  0  0  0
   37.4560   29.1520   40.6050 C   0  0  0  0  0  0  0  0  0  0  0  0
   37.3930   30.0280   39.5450 C   0  0  0  0  0  0  0  0  0  0  0  0
   37.9660   31.1670   39.9170 N   0  0  0  0  0  0  0  0  0  0  0  0
   38.3820   31.0190   41.1820 N   0  0  0  0  0  0  0  0  0  0  0  0
   37.1090   28.1340   40.7190 H   0  0  0  0  0  0  0  0  0  0  0  0
   39.4000   29.0340   37.6530 Cl  0  0  0  0  0  0  0  0  0  0  0  0
   37.6590   29.0780   37.3270 C   0  0  0  0  0  0  0  0  0  0  0  0
   36.7880   29.5840   38.3050 C   0  0  0  0  0  0  0  0  0  0  0  0
   35.4790   29.5500   37.8970 C   0  0  0  0  0  0  0  0  0  0  0  0
   34.7550   29.9130   38.6060 H   0  0  0  0  0  0  0  0  0  0  0  0
   35.0500   29.0780   36.6780 C   0  0  0  0  0  0  0  0  0  0  0  0
   33.9890   29.1060   36.4790 H   0  0  0  0  0  0  0  0  0  0  0  0
   35.9600   28.5960   35.7660 C   0  0  0  0  0  3  0  0  0  0  0  0
   37.2910   28.5950   36.0970 C   0  0  0  0  0  3  0  0  0  0  0  0
   38.1340   32.3740   39.1050 C   0  0  0  0  0  0  0  0  0  0  0  0
   36.8620   32.8100   38.6620 F   0  0  0  0  0  0  0  0  0  0  0  0
   38.9710   32.1490   38.0730 F   0  0  0  0  0  0  0  0  0  0  0  0
   38.6000   33.3900   39.9080 F   0  0  0  0  0  0  0  0  0  0  0  0
   38.4270   29.3370   42.9870 C   0  0  0  0  0  0  0  0  0  0  0  0
   39.4860   28.9800   42.9290 H   0  0  0  0  0  0  0  0  0  0  0  0
   38.4050   30.1470   43.7260 H   0  0  0  0  0  0  0  0  0  0  0  0
   37.5990   28.1470   43.3780 C   0  0  0  0  0  0  0  0  0  0  0  0
   37.4360   28.1960   44.4950 H   0  0  0  0  0  0  0  0  0  0  0  0
   36.6490   28.2360   42.8710 H   0  0  0  0  0  0  0  0  0  0  0  0
   39.9340   25.2480   43.3720 C   0  0  0  0  0  0  0  0  0  0  0  0
   39.2610   24.3680   42.4930 C   0  0  0  0  0  0  0  0  0  0  0  0
   38.0630   24.8120   41.9590 C   0  0  0  0  0  0  0  0  0  0  0  0
   37.6560   26.0350   42.3280 N   0  0  0  0  0  0  0  0  0  0  0  0
   38.2920   26.8590   43.1550 C   0  0  0  0  0  0  0  0  0  0  0  0
   39.4350   26.4500   43.6720 N   0  0  0  0  0  0  0  0  0  0  0  0
   40.8700   24.8880   43.7830 H   0  0  0  0  0  0  0  0  0  0  0  0
   39.6480   23.3910   42.2380 H   0  0  0  0  0  0  0  0  0  0  0  0
   37.3600   23.9010   41.0490 C   0  0  0  0  0  0  0  0  0  0  0  0
   37.8380   22.6080   41.2290 F   0  0  0  0  0  0  0  0  0  0  0  0
   37.7800   24.2500   39.7620 F   0  0  0  0  0  0  0  0  0  0  0  0
   36.0080   23.9380   41.2040 F   0  0  0  0  0  0  0  0  0  0  0  0
  1 20  1  0  0  0  0
  2  6  1  0  0  0  0
  2  1  1  0  0  0  0
  3  4  1  0  0  0  0
  3  2  2  0  0  0  0
  4  5  1  0  0  0  0
  5  1  2  0  0  0  0
  8  7  1  0  0  0  0
  8  9  1  0  0  0  0
  9  3  1  0  0  0  0
 10  9  2  0  0  0  0
 10 11  1  0  0  0  0
 12 10  1  0  0  0  0
 13 12  1  0  0  0  0
 14 15  1  0  0  0  0
 14 12  2  0  0  0  0
 15  8  2  0  0  0  0
 16 19  1  0  0  0  0
 16  4  1  0  0  0  0
 17 16  1  0  0  0  0
 18 16  1  0  0  0  0
 20 23  1  0  0  0  0
 20 22  1  0  0  0  0
 21 20  1  0  0  0  0
 23 24  1  0  0  0  0
 25 23  1  0  0  0  0
 26 31  1  0  0  0  0
 26 32  1  0  0  0  0
 27 26  2  0  0  0  0
 28 29  2  0  0  0  0
 28 27  1  0  0  0  0
 29 30  1  0  0  0  0
 30 23  1  0  0  0  0
 30 31  2  0  0  0  0
 33 27  1  0  0  0  0
 34 37  1  0  0  0  0
 34 35  1  0  0  0  0
 34 28  1  0  0  0  0
 36 34  1  0  0  0  0
M  END
>  <minimizedAffinity>
-5.9451704

$$$$

 OpenBabel03242515193D

 37 39  0  0  0  0  0  0  0  0999 V2000
   40.0440   28.2550   41.0050 C   0  0  0  0  0  0  0  0  0  0  0  0
   39.4980   27.2190   40.2810 C   0  0  0  0  0  0  0  0  0  0  0  0
   38.2730   26.9390   40.8420 C   0  0  0  0  0  0  0  0  0  0  0  0
   38.0870   27.7700   41.8610 N   0  0  0  0  0  0  0  0  0  0  0  0
   39.1680   28.5580   41.9460 N   0  0  0  0  0  0  0  0  0  0  0  0
   40.0230   26.7790   39.4440 H   0  0  0  0  0  0  0  0  0  0  0  0
   38.6440   24.3740   42.2130 Cl  0  0  0  0  0  0  0  0  0  0  0  0
   37.5500   24.6220   40.8420 C   0  0  0  0  0  0  0  0  0  0  0  0
   37.4570   25.8940   40.2570 C   0  0  0  0  0  0  0  0  0  0  0  0
   36.5700   25.9160   39.2100 C   0  0  0  0  0  0  0  0  0  0  0  0
   36.4420   26.8670   38.7220 H   0  0  0  0  0  0  0  0  0  0  0  0
   35.8470   24.8310   38.7720 C   0  0  0  0  0  0  0  0  0  0  0  0
   35.1800   24.9830   37.9360 H   0  0  0  0  0  0  0  0  0  0  0  0
   35.9880   23.6130   39.3940 C   0  0  0  0  0  3  0  0  0  0  0  0
   36.8550   23.5050   40.4500 C   0  0  0  0  0  3  0  0  0  0  0  0
   36.9170   27.8390   42.7390 C   0  0  0  0  0  0  0  0  0  0  0  0
   37.1090   28.8800   43.6800 F   0  0  0  0  0  0  0  0  0  0  0  0
   36.6970   26.6560   43.3450 F   0  0  0  0  0  0  0  0  0  0  0  0
   35.8250   28.2260   41.9970 F   0  0  0  0  0  0  0  0  0  0  0  0
   41.3320   28.9480   40.8270 C   0  0  0  0  0  0  0  0  0  0  0  0
   41.4350   29.6280   41.7100 H   0  0  0  0  0  0  0  0  0  0  0  0
   42.1810   28.2550   40.8590 H   0  0  0  0  0  0  0  0  0  0  0  0
   41.3230   29.8290   39.6110 C   0  0  0  0  0  0  0  0  0  0  0  0
   42.3980   30.0530   39.3440 H   0  0  0  0  0  0  0  0  0  0  0  0
   40.8620   29.2680   38.8110 H   0  0  0  0  0  0  0  0  0  0  0  0
   40.5590   33.3270   40.6310 C   0  0  0  0  0  0  0  0  0  0  0  0
   39.2500   33.4720   40.1150 C   0  0  0  0  0  0  0  0  0  0  0  0
   38.7110   32.3800   39.4570 C   0  0  0  0  0  0  0  0  0  0  0  0
   39.4840   31.2870   39.3730 N   0  0  0  0  0  0  0  0  0  0  0  0
   40.7130   31.1540   39.8590 C   0  0  0  0  0  0  0  0  0  0  0  0
   41.2410   32.1870   40.4890 N   0  0  0  0  0  0  0  0  0  0  0  0
   40.9680   34.1900   41.1430 H   0  0  0  0  0  0  0  0  0  0  0  0
   38.6810   34.3860   40.2190 H   0  0  0  0  0  0  0  0  0  0  0  0
   37.3550   32.5270   38.9180 C   0  0  0  0  0  0  0  0  0  0  0  0
   36.9010   33.8200   39.1550 F   0  0  0  0  0  0  0  0  0  0  0  0
   36.5380   31.7210   39.7140 F   0  0  0  0  0  0  0  0  0  0  0  0
   37.2780   32.2290   37.5910 F   0  0  0  0  0  0  0  0  0  0  0  0
  1  5  2  0  0  0  0
  2  3  2  0  0  0  0
  2  1  1  0  0  0  0
  3  4  1  0  0  0  0
  4  5  1  0  0  0  0
  4 16  1  0  0  0  0
  6  2  1  0  0  0  0
  8  7  1  0  0  0  0
  9  3  1  0  0  0  0
  9  8  2  0  0  0  0
 10  9  1  0  0  0  0
 11 10  1  0  0  0  0
 12 10  2  0  0  0  0
 12 14  1  0  0  0  0
 13 12  1  0  0  0  0
 14 15  2  0  0  0  0
 15  8  1  0  0  0  0
 16 18  1  0  0  0  0
 16 17  1  0  0  0  0
 19 16  1  0  0  0  0
 20 22  1  0  0  0  0
 20  1  1  0  0  0  0
 20 21  1  0  0  0  0
 23 30  1  0  0  0  0
 23 20  1  0  0  0  0
 24 23  1  0  0  0  0
 25 23  1  0  0  0  0
 26 32  1  0  0  0  0
 27 33  1  0  0  0  0
 27 26  2  0  0  0  0
 28 27  1  0  0  0  0
 29 28  2  0  0  0  0
 29 30  1  0  0  0  0
 30 31  2  0  0  0  0
 31 26  1  0  0  0  0
 34 35  1  0  0  0  0
 34 28  1  0  0  0  0
 34 36  1  0  0  0  0
 37 34  1  0  0  0  0
M  END
>  <minimizedAffinity>
-5.93561316

$$$$

 OpenBabel03242515193D

 37 39  0  0  0  0  0  0  0  0999 V2000
   36.9880   26.6830   38.7180 C   0  0  0  0  0  0  0  0  0  0  0  0
   38.1060   26.8870   39.4960 C   0  0  0  0  0  0  0  0  0  0  0  0
   38.0940   25.9220   40.4770 C   0  0  0  0  0  0  0  0  0  0  0  0
   37.0160   25.1670   40.2980 N   0  0  0  0  0  0  0  0  0  0  0  0
   36.3590   25.6410   39.2310 N   0  0  0  0  0  0  0  0  0  0  0  0
   38.7980   27.6920   39.2860 H   0  0  0  0  0  0  0  0  0  0  0  0
   37.4610   27.4460   42.9000 Cl  0  0  0  0  0  0  0  0  0  0  0  0
   38.9820   26.5760   42.6390 C   0  0  0  0  0  0  0  0  0  0  0  0
   39.1810   25.8840   41.4340 C   0  0  0  0  0  0  0  0  0  0  0  0
   40.4060   25.2680   41.3910 C   0  0  0  0  0  0  0  0  0  0  0  0
   40.6200   24.7080   40.4960 H   0  0  0  0  0  0  0  0  0  0  0  0
   41.3410   25.3100   42.3980 C   0  0  0  0  0  0  0  0  0  0  0  0
   42.2690   24.7800   42.2390 H   0  0  0  0  0  0  0  0  0  0  0  0
   41.0790   26.0080   43.5540 C   0  0  0  0  0  3  0  0  0  0  0  0
   39.8750   26.6530   43.6780 C   0  0  0  0  0  3  0  0  0  0  0  0
   36.6070   24.0130   41.1020 C   0  0  0  0  0  0  0  0  0  0  0  0
   36.3540   24.4430   42.4270 F   0  0  0  0  0  0  0  0  0  0  0  0
   37.5410   23.0420   41.0650 F   0  0  0  0  0  0  0  0  0  0  0  0
   35.3960   23.5530   40.6380 F   0  0  0  0  0  0  0  0  0  0  0  0
   36.5220   27.4220   37.5320 C   0  0  0  0  0  0  0  0  0  0  0  0
   37.3760   28.0780   37.2280 H   0  0  0  0  0  0  0  0  0  0  0  0
   36.3160   26.7560   36.6850 H   0  0  0  0  0  0  0  0  0  0  0  0
   35.3810   28.3390   37.8650 C   0  0  0  0  0  0  0  0  0  0  0  0
   35.1800   28.9790   36.9550 H   0  0  0  0  0  0  0  0  0  0  0  0
   34.5190   27.7200   38.0660 H   0  0  0  0  0  0  0  0  0  0  0  0
   35.7630   30.1900   41.0720 C   0  0  0  0  0  0  0  0  0  0  0  0
   36.4990   31.3180   40.6390 C   0  0  0  0  0  0  0  0  0  0  0  0
   36.8170   31.3800   39.2940 C   0  0  0  0  0  0  0  0  0  0  0  0
   36.3960   30.3630   38.5280 N   0  0  0  0  0  0  0  0  0  0  0  0
   35.7050   29.3040   38.9380 C   0  0  0  0  0  0  0  0  0  0  0  0
   35.3940   29.2300   40.2190 N   0  0  0  0  0  0  0  0  0  0  0  0
   35.5210   30.1530   42.1280 H   0  0  0  0  0  0  0  0  0  0  0  0
   36.8080   32.1040   41.3140 H   0  0  0  0  0  0  0  0  0  0  0  0
   37.5830   32.5460   38.8420 C   0  0  0  0  0  0  0  0  0  0  0  0
   37.7670   32.4740   37.4660 F   0  0  0  0  0  0  0  0  0  0  0  0
   38.8660   32.3890   39.3730 F   0  0  0  0  0  0  0  0  0  0  0  0
   36.9990   33.7270   39.1850 F   0  0  0  0  0  0  0  0  0  0  0  0
  1  5  2  0  0  0  0
  1  2  1  0  0  0  0
  2  3  2  0  0  0  0
  3  9  1  0  0  0  0
  4  3  1  0  0  0  0
  4 16  1  0  0  0  0
  5  4  1  0  0  0  0
  6  2  1  0  0  0  0
  8  7  1  0  0  0  0
  8 15  1  0  0  0  0
  9  8  2  0  0  0  0
 10  9  1  0  0  0  0
 10 12  2  0  0  0  0
 11 10  1  0  0  0  0
 12 14  1  0  0  0  0
 13 12  1  0  0  0  0
 14 15  2  0  0  0  0
 16 17  1  0  0  0  0
 18 16  1  0  0  0  0
 19 16  1  0  0  0  0
 20 23  1  0  0  0  0
 20  1  1  0  0  0  0
 21 20  1  0  0  0  0
 22 20  1  0  0  0  0
 23 25  1  0  0  0  0
 23 30  1  0  0  0  0
 24 23  1  0  0  0  0
 26 32  1  0  0  0  0
 27 26  1  0  0  0  0
 27 33  1  0  0  0  0
 28 27  2  0  0  0  0
 29 30  2  0  0  0  0
 29 28  1  0  0  0  0
 30 31  1  0  0  0  0
 31 26  2  0  0  0  0
 34 37  1  0  0  0  0
 34 28  1  0  0  0  0
 34 36  1  0  0  0  0
 35 34  1  0  0  0  0
M  END
>  <minimizedAffinity>
-5.90023756

$$$$

 OpenBabel03242515193D

 37 39  0  0  0  0  0  0  0  0999 V2000
   38.5390   29.9510   41.8400 C   0  0  0  0  0  0  0  0  0  0  0  0
   39.6200   30.5030   41.1890 C   0  0  0  0  0  0  0  0  0  0  0  0
   39.1930   30.8540   39.9280 C   0  0  0  0  0  0  0  0  0  0  0  0
   37.9100   30.5280   39.8230 N   0  0  0  0  0  0  0  0  0  0  0  0
   37.5310   29.9830   40.9870 N   0  0  0  0  0  0  0  0  0  0  0  0
   40.5820   30.5950   41.6740 H   0  0  0  0  0  0  0  0  0  0  0  0
   40.5020   28.9030   38.1750 Cl  0  0  0  0  0  0  0  0  0  0  0  0
   40.8100   30.6460   38.1300 C   0  0  0  0  0  0  0  0  0  0  0  0
   40.1300   31.4890   39.0240 C   0  0  0  0  0  0  0  0  0  0  0  0
   40.4820   32.8040   38.8600 C   0  0  0  0  0  0  0  0  0  0  0  0
   39.9880   33.5080   39.5090 H   0  0  0  0  0  0  0  0  0  0  0  0
   41.3900   33.2640   37.9350 C   0  0  0  0  0  0  0  0  0  0  0  0
   41.5780   34.3270   37.9080 H   0  0  0  0  0  0  0  0  0  0  0  0
   42.0200   32.3810   37.0890 C   0  0  0  0  0  3  0  0  0  0  0  0
   41.7230   31.0460   37.1880 C   0  0  0  0  0  3  0  0  0  0  0  0
   37.0440   30.7290   38.6590 C   0  0  0  0  0  0  0  0  0  0  0  0
   35.7530   30.2280   38.9550 F   0  0  0  0  0  0  0  0  0  0  0  0
   37.5640   30.1440   37.5620 F   0  0  0  0  0  0  0  0  0  0  0  0
   36.8660   32.0790   38.4640 F   0  0  0  0  0  0  0  0  0  0  0  0
   38.4400   29.4190   43.2100 C   0  0  0  0  0  0  0  0  0  0  0  0
   39.4610   29.0350   43.4610 H   0  0  0  0  0  0  0  0  0  0  0  0
   38.2060   30.2020   43.9410 H   0  0  0  0  0  0  0  0  0  0  0  0
   37.5150   28.2380   43.2790 C   0  0  0  0  0  0  0  0  0  0  0  0
   37.0870   28.2000   44.3250 H   0  0  0  0  0  0  0  0  0  0  0  0
   36.7180   28.4110   42.5700 H   0  0  0  0  0  0  0  0  0  0  0  0
   39.8410   25.3350   43.4250 C   0  0  0  0  0  0  0  0  0  0  0  0
   39.1970   24.4360   42.5430 C   0  0  0  0  0  0  0  0  0  0  0  0
   38.0200   24.8700   41.9560 C   0  0  0  0  0  0  0  0  0  0  0  0
   37.6040   26.1020   42.2820 N   0  0  0  0  0  0  0  0  0  0  0  0
   38.2110   26.9430   43.1110 C   0  0  0  0  0  0  0  0  0  0  0  0
   39.3340   26.5450   43.6790 N   0  0  0  0  0  0  0  0  0  0  0  0
   40.7610   24.9830   43.8780 H   0  0  0  0  0  0  0  0  0  0  0  0
   39.5900   23.4530   42.3250 H   0  0  0  0  0  0  0  0  0  0  0  0
   37.3480   23.9400   41.0430 C   0  0  0  0  0  0  0  0  0  0  0  0
   37.3380   24.4770   39.7610 F   0  0  0  0  0  0  0  0  0  0  0  0
   36.0040   23.9330   41.4270 F   0  0  0  0  0  0  0  0  0  0  0  0
   37.9140   22.7010   41.0380 F   0  0  0  0  0  0  0  0  0  0  0  0
  1 20  1  0  0  0  0
  2  6  1  0  0  0  0
  2  1  1  0  0  0  0
  3  2  2  0  0  0  0
  4  3  1  0  0  0  0
  4  5  1  0  0  0  0
  5  1  2  0  0  0  0
  8  7  1  0  0  0  0
  8  9  1  0  0  0  0
  9  3  1  0  0  0  0
 10  9  2  0  0  0  0
 10 11  1  0  0  0  0
 12 10  1  0  0  0  0
 13 12  1  0  0  0  0
 14 15  1  0  0  0  0
 14 12  2  0  0  0  0
 15  8  2  0  0  0  0
 16 17  1  0  0  0  0
 16  4  1  0  0  0  0
 18 16  1  0  0  0  0
 19 16  1  0  0  0  0
 20 23  1  0  0  0  0
 20 21  1  0  0  0  0
 20 22  1  0  0  0  0
 23 24  1  0  0  0  0
 25 23  1  0  0  0  0
 26 31  1  0  0  0  0
 26 32  1  0  0  0  0
 27 26  2  0  0  0  0
 28 29  2  0  0  0  0
 28 27  1  0  0  0  0
 29 30  1  0  0  0  0
 30 23  1  0  0  0  0
 30 31  2  0  0  0  0
 33 27  1  0  0  0  0
 34 36  1  0  0  0  0
 34 28  1  0  0  0  0
 35 34  1  0  0  0  0
 37 34  1  0  0  0  0
M  END
>  <minimizedAffinity>
-5.8873992

$$$$
