
 OpenBabel03242511153D

 44 48  0  0  1  0  0  0  0  0999 V2000
   37.4290   31.7130   39.0870 C   0  0  1  0  0  0  0  0  0  0  0  0
   37.7640   30.8870   37.8680 C   0  0  0  0  0  0  0  0  0  0  0  0
   37.9260   30.3530   39.3100 C   0  0  2  0  0  0  0  0  0  0  0  0
   36.3660   31.8730   39.2550 H   0  0  0  0  0  0  0  0  0  0  0  0
   36.9470   30.4500   37.2720 H   0  0  0  0  0  0  0  0  0  0  0  0
   38.6650   31.2340   37.3400 H   0  0  0  0  0  0  0  0  0  0  0  0
   38.9750   30.2520   39.6610 H   0  0  0  0  0  0  0  0  0  0  0  0
   38.5580   35.0540   40.2020 C   0  0  0  0  0  0  0  0  0  0  0  0
   39.9590   34.9720   39.9860 C   0  0  0  0  0  0  0  0  0  0  0  0
   40.4880   33.7840   39.4700 C   0  0  0  0  0  0  0  0  0  0  0  0
   39.6300   32.8120   39.2180 N   0  0  0  0  0  0  0  0  0  0  0  0
   38.3090   32.8850   39.4210 C   0  0  0  0  0  0  0  0  0  0  0  0
   37.7490   34.0200   39.9200 N   0  0  0  0  0  0  0  0  0  0  0  0
   38.1860   35.9910   40.6020 H   0  0  0  0  0  0  0  0  0  0  0  0
   40.5750   35.7840   40.2240 H   0  0  0  0  0  0  0  0  0  0  0  0
   42.4010   32.4530   41.6070 Cl  0  0  0  0  0  0  0  0  0  0  0  0
   42.8300   32.9320   40.0030 C   0  0  0  0  0  0  0  0  0  0  0  0
   41.8790   33.5010   39.2010 C   0  0  0  0  0  0  0  0  0  0  0  0
   42.3810   33.8540   37.9670 C   0  0  0  0  0  0  0  0  0  0  0  0
   41.7660   34.3220   37.1950 H   0  0  0  0  0  0  0  0  0  0  0  0
   43.6850   33.6590   37.5770 C   0  0  0  0  0  0  0  0  0  0  0  0
   44.0350   33.9500   36.5990 H   0  0  0  0  0  0  0  0  0  0  0  0
   44.5970   33.0800   38.4260 C   0  0  0  0  0  3  0  0  0  0  0  0
   44.1370   32.7130   39.6690 C   0  0  0  0  0  3  0  0  0  0  0  0
   36.9830   29.3490   39.7340 N   0  0  0  0  0  0  0  0  0  0  0  0
   36.2500   29.3520   38.9970 H   0  0  0  0  0  0  0  0  0  0  0  0
   37.1560   28.6330   40.9300 C   0  0  0  0  0  0  0  0  0  0  0  0
   37.3850   29.3120   42.0980 C   0  0  0  0  0  0  0  0  0  0  0  0
   37.4920   28.6830   43.3250 C   0  0  0  0  0  0  0  0  0  0  0  0
   37.3680   27.3120   43.4270 C   0  0  0  0  0  0  0  0  0  0  0  0
   37.1390   26.6060   42.2690 C   0  0  0  0  0  0  0  0  0  0  0  0
   37.0010   25.2300   42.3440 C   0  0  0  0  0  0  0  0  0  0  0  0
   36.7670   24.4730   41.2400 C   0  0  0  0  0  0  0  0  0  0  0  0
   36.6720   25.1420   40.0250 C   0  0  0  0  0  0  0  0  0  0  0  0
   36.8090   26.5000   39.9600 C   0  0  0  0  0  0  0  0  0  0  0  0
   37.0400   27.2630   41.0630 C   0  0  0  0  0  0  0  0  0  0  0  0
   37.4980   30.3950   42.1290 H   0  0  0  0  0  0  0  0  0  0  0  0
   37.6730   29.2100   44.2500 H   0  0  0  0  0  0  0  0  0  0  0  0
   37.4450   26.7850   44.3730 H   0  0  0  0  0  0  0  0  0  0  0  0
   37.0860   24.7570   43.3160 H   0  0  0  0  0  0  0  0  0  0  0  0
   36.6560   23.3960   41.2850 H   0  0  0  0  0  0  0  0  0  0  0  0
   36.4870   24.5670   39.1270 H   0  0  0  0  0  0  0  0  0  0  0  0
   36.7160   27.1110   38.7340 O   0  0  0  0  0  0  0  0  0  0  0  0
   36.6860   26.6830   37.8370 H   0  0  0  0  0  0  0  0  0  0  0  0
  1  4  1  1  0  0  0
  1  3  1  0  0  0  0
  1 12  1  0  0  0  0
  2  1  1  0  0  0  0
  2  3  1  0  0  0  0
  3  7  1  1  0  0  0
  3 25  1  0  0  0  0
  5  2  1  0  0  0  0
  6  2  1  0  0  0  0
  8 14  1  0  0  0  0
  9  8  1  0  0  0  0
  9 15  1  0  0  0  0
 10  9  2  0  0  0  0
 11 12  2  0  0  0  0
 11 10  1  0  0  0  0
 12 13  1  0  0  0  0
 13  8  2  0  0  0  0
 17 16  1  0  0  0  0
 18 10  1  0  0  0  0
 18 17  2  0  0  0  0
 19 18  1  0  0  0  0
 20 19  1  0  0  0  0
 21 19  2  0  0  0  0
 21 23  1  0  0  0  0
 22 21  1  0  0  0  0
 23 24  2  0  0  0  0
 24 17  1  0  0  0  0
 25 27  1  0  0  0  0
 26 25  1  0  0  0  0
 27 36  2  0  0  0  0
 27 28  1  0  0  0  0
 28 37  1  0  0  0  0
 28 29  2  0  0  0  0
 29 30  1  0  0  0  0
 29 38  1  0  0  0  0
 30 39  1  0  0  0  0
 31 32  1  0  0  0  0
 31 30  2  0  0  0  0
 32 40  1  0  0  0  0
 33 41  1  0  0  0  0
 33 32  2  0  0  0  0
 34 33  1  0  0  0  0
 35 34  2  0  0  0  0
 35 36  1  0  0  0  0
 36 31  1  0  0  0  0
 42 34  1  0  0  0  0
 43 35  1  0  0  0  0
 44 43  1  0  0  0  0
M  END
>  <minimizedAffinity>
-6.98529673

$$$$

 OpenBabel03242511153D

 44 48  0  0  1  0  0  0  0  0999 V2000
   37.2340   27.6330   42.8680 C   0  0  1  0  0  0  0  0  0  0  0  0
   36.9780   28.3490   44.1720 C   0  0  0  0  0  0  0  0  0  0  0  0
   37.6350   29.0400   42.9550 C   0  0  2  0  0  0  0  0  0  0  0  0
   36.3450   27.4190   42.2790 H   0  0  0  0  0  0  0  0  0  0  0  0
   35.9520   28.6660   44.4220 H   0  0  0  0  0  0  0  0  0  0  0  0
   37.6310   28.0120   44.9920 H   0  0  0  0  0  0  0  0  0  0  0  0
   38.7220   29.2480   43.0600 H   0  0  0  0  0  0  0  0  0  0  0  0
   40.1930   25.5900   43.7360 C   0  0  0  0  0  0  0  0  0  0  0  0
   40.1820   24.6140   42.7040 C   0  0  0  0  0  0  0  0  0  0  0  0
   39.1700   24.6710   41.7400 C   0  0  0  0  0  0  0  0  0  0  0  0
   38.2850   25.6440   41.8640 N   0  0  0  0  0  0  0  0  0  0  0  0
   38.2910   26.5650   42.8350 C   0  0  0  0  0  0  0  0  0  0  0  0
   39.2570   26.5500   43.7940 N   0  0  0  0  0  0  0  0  0  0  0  0
   40.9940   25.5140   44.4630 H   0  0  0  0  0  0  0  0  0  0  0  0
   40.9130   23.8660   42.6820 H   0  0  0  0  0  0  0  0  0  0  0  0
   40.7800   24.9260   39.0310 Cl  0  0  0  0  0  0  0  0  0  0  0  0
   39.5900   23.7310   39.4090 C   0  0  0  0  0  0  0  0  0  0  0  0
   38.9790   23.7640   40.6320 C   0  0  0  0  0  0  0  0  0  0  0  0
   38.0350   22.7680   40.7700 C   0  0  0  0  0  0  0  0  0  0  0  0
   37.4470   22.6390   41.6810 H   0  0  0  0  0  0  0  0  0  0  0  0
   37.7370   21.8440   39.7970 C   0  0  0  0  0  0  0  0  0  0  0  0
   36.9900   21.0800   39.9480 H   0  0  0  0  0  0  0  0  0  0  0  0
   38.3850   21.8600   38.5850 C   0  0  0  0  0  3  0  0  0  0  0  0
   39.3350   22.8390   38.4060 C   0  0  0  0  0  3  0  0  0  0  0  0
   36.8350   30.0150   42.2600 N   0  0  0  0  0  0  0  0  0  0  0  0
   36.0700   30.2470   42.9240 H   0  0  0  0  0  0  0  0  0  0  0  0
   37.1490   30.4310   40.9550 C   0  0  0  0  0  0  0  0  0  0  0  0
   38.2690   31.1890   40.7370 C   0  0  0  0  0  0  0  0  0  0  0  0
   38.6840   31.5730   39.4740 C   0  0  0  0  0  0  0  0  0  0  0  0
   37.9700   31.1990   38.3550 C   0  0  0  0  0  0  0  0  0  0  0  0
   36.8400   30.4390   38.5450 C   0  0  0  0  0  0  0  0  0  0  0  0
   36.1090   30.0410   37.4370 C   0  0  0  0  0  0  0  0  0  0  0  0
   34.9880   29.2840   37.5530 C   0  0  0  0  0  0  0  0  0  0  0  0
   34.6000   28.9230   38.8390 C   0  0  0  0  0  0  0  0  0  0  0  0
   35.3270   29.3200   39.9270 C   0  0  0  0  0  0  0  0  0  0  0  0
   36.4540   30.0750   39.8150 C   0  0  0  0  0  0  0  0  0  0  0  0
   38.9040   31.5370   41.5510 H   0  0  0  0  0  0  0  0  0  0  0  0
   39.5650   32.1700   39.2950 H   0  0  0  0  0  0  0  0  0  0  0  0
   38.2670   31.4810   37.3490 H   0  0  0  0  0  0  0  0  0  0  0  0
   36.4530   30.3510   36.4570 H   0  0  0  0  0  0  0  0  0  0  0  0
   34.4080   28.9660   36.6950 H   0  0  0  0  0  0  0  0  0  0  0  0
   33.7100   28.3210   38.9650 H   0  0  0  0  0  0  0  0  0  0  0  0
   34.8960   28.9440   41.1750 O   0  0  0  0  0  0  0  0  0  0  0  0
   34.0340   28.5160   41.4230 H   0  0  0  0  0  0  0  0  0  0  0  0
  1  4  1  6  0  0  0
  1  3  1  0  0  0  0
  1  2  1  0  0  0  0
  2  5  1  0  0  0  0
  2  6  1  0  0  0  0
  3  7  1  1  0  0  0
  3  2  1  0  0  0  0
  8 13  1  0  0  0  0
  8 14  1  0  0  0  0
  9  8  2  0  0  0  0
 10 11  2  0  0  0  0
 10  9  1  0  0  0  0
 11 12  1  0  0  0  0
 12  1  1  0  0  0  0
 12 13  2  0  0  0  0
 15  9  1  0  0  0  0
 16 17  1  0  0  0  0
 17 18  1  0  0  0  0
 18 19  2  0  0  0  0
 18 10  1  0  0  0  0
 19 20  1  0  0  0  0
 21 22  1  0  0  0  0
 21 19  1  0  0  0  0
 23 21  2  0  0  0  0
 24 23  1  0  0  0  0
 24 17  2  0  0  0  0
 25 26  1  0  0  0  0
 25  3  1  0  0  0  0
 27 25  1  0  0  0  0
 28 27  1  0  0  0  0
 28 37  1  0  0  0  0
 29 28  2  0  0  0  0
 30 31  2  0  0  0  0
 30 29  1  0  0  0  0
 31 36  1  0  0  0  0
 32 33  2  0  0  0  0
 32 31  1  0  0  0  0
 33 34  1  0  0  0  0
 34 42  1  0  0  0  0
 34 35  2  0  0  0  0
 35 43  1  0  0  0  0
 36 35  1  0  0  0  0
 36 27  2  0  0  0  0
 38 29  1  0  0  0  0
 39 30  1  0  0  0  0
 40 32  1  0  0  0  0
 41 33  1  0  0  0  0
 43 44  1  0  0  0  0
M  END
>  <minimizedAffinity>
-6.97923136

$$$$

 OpenBabel03242511153D

 44 48  0  0  1  0  0  0  0  0999 V2000
   37.3580   31.8270   39.3350 C   0  0  1  0  0  0  0  0  0  0  0  0
   37.4700   31.1060   38.0140 C   0  0  0  0  0  0  0  0  0  0  0  0
   37.7830   30.4250   39.3670 C   0  0  2  0  0  0  0  0  0  0  0  0
   36.3410   32.0320   39.6620 H   0  0  0  0  0  0  0  0  0  0  0  0
   36.5530   30.7760   37.4990 H   0  0  0  0  0  0  0  0  0  0  0  0
   38.3160   31.4490   37.3990 H   0  0  0  0  0  0  0  0  0  0  0  0
   38.8600   30.2300   39.5590 H   0  0  0  0  0  0  0  0  0  0  0  0
   38.8240   35.0990   40.2470 C   0  0  0  0  0  0  0  0  0  0  0  0
   40.2150   34.8200   40.1800 C   0  0  0  0  0  0  0  0  0  0  0  0
   40.6220   33.5290   39.8300 C   0  0  0  0  0  0  0  0  0  0  0  0
   39.6670   32.6500   39.5830 N   0  0  0  0  0  0  0  0  0  0  0  0
   38.3550   32.9080   39.6460 C   0  0  0  0  0  0  0  0  0  0  0  0
   37.9110   34.1500   39.9820 N   0  0  0  0  0  0  0  0  0  0  0  0
   38.5470   36.1110   40.5210 H   0  0  0  0  0  0  0  0  0  0  0  0
   40.9110   35.5690   40.4030 H   0  0  0  0  0  0  0  0  0  0  0  0
   42.3890   33.9510   37.2410 Cl  0  0  0  0  0  0  0  0  0  0  0  0
   42.8720   33.1510   38.6940 C   0  0  0  0  0  0  0  0  0  0  0  0
   41.9810   33.0480   39.7270 C   0  0  0  0  0  0  0  0  0  0  0  0
   42.5030   32.3590   40.8010 C   0  0  0  0  0  0  0  0  0  0  0  0
   41.9350   32.1800   41.7150 H   0  0  0  0  0  0  0  0  0  0  0  0
   43.7730   31.8340   40.8390 C   0  0  0  0  0  0  0  0  0  0  0  0
   44.1420   31.3020   41.7020 H   0  0  0  0  0  0  0  0  0  0  0  0
   44.6260   31.9690   39.7700 C   0  0  0  0  0  3  0  0  0  0  0  0
   44.1440   32.6500   38.6770 C   0  0  0  0  0  3  0  0  0  0  0  0
   36.8350   29.4420   39.8260 N   0  0  0  0  0  0  0  0  0  0  0  0
   36.0580   29.4870   39.1380 H   0  0  0  0  0  0  0  0  0  0  0  0
   37.0600   28.6900   40.9920 C   0  0  0  0  0  0  0  0  0  0  0  0
   37.3090   29.3350   42.1750 C   0  0  0  0  0  0  0  0  0  0  0  0
   37.4660   28.6680   43.3760 C   0  0  0  0  0  0  0  0  0  0  0  0
   37.3740   27.2920   43.4350 C   0  0  0  0  0  0  0  0  0  0  0  0
   37.1260   26.6200   42.2610 C   0  0  0  0  0  0  0  0  0  0  0  0
   37.0200   25.2390   42.2930 C   0  0  0  0  0  0  0  0  0  0  0  0
   36.7680   24.5150   41.1730 C   0  0  0  0  0  0  0  0  0  0  0  0
   36.6230   25.2210   39.9840 C   0  0  0  0  0  0  0  0  0  0  0  0
   36.7290   26.5840   39.9610 C   0  0  0  0  0  0  0  0  0  0  0  0
   36.9770   27.3150   41.0820 C   0  0  0  0  0  0  0  0  0  0  0  0
   37.4000   30.4180   42.2390 H   0  0  0  0  0  0  0  0  0  0  0  0
   37.6640   29.1680   44.3120 H   0  0  0  0  0  0  0  0  0  0  0  0
   37.4910   26.7360   44.3610 H   0  0  0  0  0  0  0  0  0  0  0  0
   37.1430   24.7370   43.2460 H   0  0  0  0  0  0  0  0  0  0  0  0
   36.6820   23.4340   41.1840 H   0  0  0  0  0  0  0  0  0  0  0  0
   36.4230   24.6720   39.0720 H   0  0  0  0  0  0  0  0  0  0  0  0
   36.5860   27.2320   38.7590 O   0  0  0  0  0  0  0  0  0  0  0  0
   36.5380   26.8340   37.8500 H   0  0  0  0  0  0  0  0  0  0  0  0
  1  3  1  0  0  0  0
  1 12  1  0  0  0  0
  1  4  1  1  0  0  0
  2  1  1  0  0  0  0
  2  3  1  0  0  0  0
  3  7  1  1  0  0  0
  3 25  1  0  0  0  0
  5  2  1  0  0  0  0
  6  2  1  0  0  0  0
  8 14  1  0  0  0  0
  9  8  1  0  0  0  0
  9 15  1  0  0  0  0
 10  9  2  0  0  0  0
 11 12  2  0  0  0  0
 11 10  1  0  0  0  0
 12 13  1  0  0  0  0
 13  8  2  0  0  0  0
 16 17  1  0  0  0  0
 17 18  1  0  0  0  0
 18 10  1  0  0  0  0
 18 19  2  0  0  0  0
 19 21  1  0  0  0  0
 19 20  1  0  0  0  0
 21 22  1  0  0  0  0
 23 21  2  0  0  0  0
 24 17  2  0  0  0  0
 24 23  1  0  0  0  0
 25 27  1  0  0  0  0
 26 25  1  0  0  0  0
 27 36  2  0  0  0  0
 27 28  1  0  0  0  0
 28 37  1  0  0  0  0
 28 29  2  0  0  0  0
 29 30  1  0  0  0  0
 29 38  1  0  0  0  0
 30 39  1  0  0  0  0
 31 32  1  0  0  0  0
 31 30  2  0  0  0  0
 32 40  1  0  0  0  0
 33 41  1  0  0  0  0
 33 32  2  0  0  0  0
 34 33  1  0  0  0  0
 35 34  2  0  0  0  0
 35 36  1  0  0  0  0
 36 31  1  0  0  0  0
 42 34  1  0  0  0  0
 43 35  1  0  0  0  0
 44 43  1  0  0  0  0
M  END
>  <minimizedAffinity>
-6.94038296

$$$$

 OpenBabel03242511153D

 44 48  0  0  1  0  0  0  0  0999 V2000
   35.5680   28.7160   38.5420 C   0  0  1  0  0  0  0  0  0  0  0  0
   35.2970   29.4710   39.8210 C   0  0  0  0  0  0  0  0  0  0  0  0
   35.7810   28.0020   39.8050 C   0  0  2  0  0  0  0  0  0  0  0  0
   36.4620   29.0260   38.0060 H   0  0  0  0  0  0  0  0  0  0  0  0
   36.0240   30.2230   40.1680 H   0  0  0  0  0  0  0  0  0  0  0  0
   34.2280   29.6620   39.9980 H   0  0  0  0  0  0  0  0  0  0  0  0
   35.0150   27.2500   40.0930 H   0  0  0  0  0  0  0  0  0  0  0  0
   33.2320   26.7580   36.4470 C   0  0  0  0  0  0  0  0  0  0  0  0
   32.2750   27.7430   36.0850 C   0  0  0  0  0  0  0  0  0  0  0  0
   32.4430   29.0470   36.5630 C   0  0  0  0  0  0  0  0  0  0  0  0
   33.4970   29.2680   37.3270 N   0  0  0  0  0  0  0  0  0  0  0  0
   34.4010   28.3430   37.6710 C   0  0  0  0  0  0  0  0  0  0  0  0
   34.2800   27.0620   37.2300 N   0  0  0  0  0  0  0  0  0  0  0  0
   33.0680   25.7600   36.0560 H   0  0  0  0  0  0  0  0  0  0  0  0
   31.4580   27.4850   35.4840 H   0  0  0  0  0  0  0  0  0  0  0  0
   30.3710   30.0880   38.7120 Cl  0  0  0  0  0  0  0  0  0  0  0  0
   30.6370   30.7500   37.1380 C   0  0  0  0  0  0  0  0  0  0  0  0
   31.5730   30.1750   36.3230 C   0  0  0  0  0  0  0  0  0  0  0  0
   31.6460   30.7950   35.0940 C   0  0  0  0  0  0  0  0  0  0  0  0
   32.3380   30.4720   34.3140 H   0  0  0  0  0  0  0  0  0  0  0  0
   30.8720   31.8680   34.7210 C   0  0  0  0  0  0  0  0  0  0  0  0
   30.9630   32.3240   33.7480 H   0  0  0  0  0  0  0  0  0  0  0  0
   29.9460   32.4050   35.5840 C   0  0  0  0  0  3  0  0  0  0  0  0
   29.8410   31.8150   36.8220 C   0  0  0  0  0  3  0  0  0  0  0  0
   37.1380   27.7670   40.2280 N   0  0  0  0  0  0  0  0  0  0  0  0
   37.6720   28.5750   39.8530 H   0  0  0  0  0  0  0  0  0  0  0  0
   37.4930   26.6230   40.9620 C   0  0  0  0  0  0  0  0  0  0  0  0
   36.9090   25.4190   40.6640 C   0  0  0  0  0  0  0  0  0  0  0  0
   37.2610   24.2370   41.2910 C   0  0  0  0  0  0  0  0  0  0  0  0
   38.2370   24.2200   42.2650 C   0  0  0  0  0  0  0  0  0  0  0  0
   38.8380   25.4150   42.5850 C   0  0  0  0  0  0  0  0  0  0  0  0
   39.8290   25.4250   43.5530 C   0  0  0  0  0  0  0  0  0  0  0  0
   40.4680   26.5680   43.9120 C   0  0  0  0  0  0  0  0  0  0  0  0
   40.0830   27.7370   43.2630 C   0  0  0  0  0  0  0  0  0  0  0  0
   39.1040   27.7180   42.3090 C   0  0  0  0  0  0  0  0  0  0  0  0
   38.4640   26.5740   41.9430 C   0  0  0  0  0  0  0  0  0  0  0  0
   36.1290   25.3220   39.9110 H   0  0  0  0  0  0  0  0  0  0  0  0
   36.8060   23.2850   41.0620 H   0  0  0  0  0  0  0  0  0  0  0  0
   38.5390   23.3110   42.7760 H   0  0  0  0  0  0  0  0  0  0  0  0
   40.0910   24.4870   44.0300 H   0  0  0  0  0  0  0  0  0  0  0  0
   41.2450   26.5900   44.6670 H   0  0  0  0  0  0  0  0  0  0  0  0
   40.5720   28.6650   43.5280 H   0  0  0  0  0  0  0  0  0  0  0  0
   38.7540   28.9000   41.7050 O   0  0  0  0  0  0  0  0  0  0  0  0
   39.0300   29.8220   41.9560 H   0  0  0  0  0  0  0  0  0  0  0  0
  1  4  1  6  0  0  0
  1  3  1  0  0  0  0
  1  2  1  0  0  0  0
  2  6  1  0  0  0  0
  2  5  1  0  0  0  0
  3  2  1  0  0  0  0
  3  7  1  1  0  0  0
  3 25  1  0  0  0  0
  8 13  1  0  0  0  0
  9  8  2  0  0  0  0
  9 10  1  0  0  0  0
 10 11  2  0  0  0  0
 11 12  1  0  0  0  0
 12  1  1  0  0  0  0
 13 12  2  0  0  0  0
 14  8  1  0  0  0  0
 15  9  1  0  0  0  0
 17 16  1  0  0  0  0
 18 10  1  0  0  0  0
 18 17  2  0  0  0  0
 19 18  1  0  0  0  0
 20 19  1  0  0  0  0
 21 19  2  0  0  0  0
 21 23  1  0  0  0  0
 22 21  1  0  0  0  0
 23 24  2  0  0  0  0
 24 17  1  0  0  0  0
 25 27  1  0  0  0  0
 26 25  1  0  0  0  0
 27 36  1  0  0  0  0
 28 27  2  0  0  0  0
 28 29  1  0  0  0  0
 29 30  2  0  0  0  0
 30 31  1  0  0  0  0
 30 39  1  0  0  0  0
 31 32  1  0  0  0  0
 32 33  2  0  0  0  0
 32 40  1  0  0  0  0
 33 41  1  0  0  0  0
 34 42  1  0  0  0  0
 34 33  1  0  0  0  0
 35 34  2  0  0  0  0
 36 35  1  0  0  0  0
 36 31  2  0  0  0  0
 37 28  1  0  0  0  0
 38 29  1  0  0  0  0
 43 44  1  0  0  0  0
 43 35  1  0  0  0  0
M  END
>  <minimizedAffinity>
-6.92543221

$$$$

 OpenBabel03242511153D

 44 48  0  0  1  0  0  0  0  0999 V2000
   36.3520   29.2320   39.3000 C   0  0  1  0  0  0  0  0  0  0  0  0
   36.5250   30.7170   39.0900 C   0  0  0  0  0  0  0  0  0  0  0  0
   35.8330   30.1240   40.3400 C   0  0  2  0  0  0  0  0  0  0  0  0
   37.2660   28.6920   39.5380 H   0  0  0  0  0  0  0  0  0  0  0  0
   37.5160   31.1720   39.2480 H   0  0  0  0  0  0  0  0  0  0  0  0
   35.8890   31.1220   38.2890 H   0  0  0  0  0  0  0  0  0  0  0  0
   34.7310   30.2630   40.3800 H   0  0  0  0  0  0  0  0  0  0  0  0
   34.6550   26.5120   37.4540 C   0  0  0  0  0  0  0  0  0  0  0  0
   33.6220   27.2200   36.7840 C   0  0  0  0  0  0  0  0  0  0  0  0
   33.5250   28.6020   36.9750 C   0  0  0  0  0  0  0  0  0  0  0  0
   34.4150   29.1550   37.7800 N   0  0  0  0  0  0  0  0  0  0  0  0
   35.3890   28.4920   38.4140 C   0  0  0  0  0  0  0  0  0  0  0  0
   35.5240   27.1470   38.2570 N   0  0  0  0  0  0  0  0  0  0  0  0
   34.6990   25.4430   37.2790 H   0  0  0  0  0  0  0  0  0  0  0  0
   32.9470   26.7060   36.1720 H   0  0  0  0  0  0  0  0  0  0  0  0
   31.1610   29.8490   38.6660 Cl  0  0  0  0  0  0  0  0  0  0  0  0
   31.4700   30.1090   36.9860 C   0  0  0  0  0  0  0  0  0  0  0  0
   32.5390   29.4870   36.4010 C   0  0  0  0  0  0  0  0  0  0  0  0
   32.6330   29.7700   35.0550 C   0  0  0  0  0  0  0  0  0  0  0  0
   33.4250   29.3620   34.4240 H   0  0  0  0  0  0  0  0  0  0  0  0
   31.7600   30.5830   34.3710 C   0  0  0  0  0  0  0  0  0  0  0  0
   31.8730   30.7780   33.3160 H   0  0  0  0  0  0  0  0  0  0  0  0
   30.7030   31.1830   35.0140 C   0  0  0  0  0  3  0  0  0  0  0  0
   30.5720   30.9260   36.3590 C   0  0  0  0  0  3  0  0  0  0  0  0
   36.5610   30.2130   41.5800 N   0  0  0  0  0  0  0  0  0  0  0  0
   36.5140   31.2180   41.8390 H   0  0  0  0  0  0  0  0  0  0  0  0
   37.1660   29.0860   42.1610 C   0  0  0  0  0  0  0  0  0  0  0  0
   36.4110   27.9740   42.4280 C   0  0  0  0  0  0  0  0  0  0  0  0
   36.9490   26.8020   42.9290 C   0  0  0  0  0  0  0  0  0  0  0  0
   38.3010   26.7010   43.1860 C   0  0  0  0  0  0  0  0  0  0  0  0
   39.0820   27.8040   42.9280 C   0  0  0  0  0  0  0  0  0  0  0  0
   40.4440   27.7270   43.1690 C   0  0  0  0  0  0  0  0  0  0  0  0
   41.2730   28.7760   42.9300 C   0  0  0  0  0  0  0  0  0  0  0  0
   40.6940   29.9380   42.4320 C   0  0  0  0  0  0  0  0  0  0  0  0
   39.3490   30.0050   42.1970 C   0  0  0  0  0  0  0  0  0  0  0  0
   38.5150   28.9560   42.4310 C   0  0  0  0  0  0  0  0  0  0  0  0
   35.3360   27.9470   42.2610 H   0  0  0  0  0  0  0  0  0  0  0  0
   36.3620   25.9220   43.1430 H   0  0  0  0  0  0  0  0  0  0  0  0
   38.7570   25.7980   43.5790 H   0  0  0  0  0  0  0  0  0  0  0  0
   40.8450   26.7990   43.5590 H   0  0  0  0  0  0  0  0  0  0  0  0
   42.3400   28.7290   43.1120 H   0  0  0  0  0  0  0  0  0  0  0  0
   41.3280   30.7920   42.2320 H   0  0  0  0  0  0  0  0  0  0  0  0
   38.8250   31.1790   41.7140 O   0  0  0  0  0  0  0  0  0  0  0  0
   39.2770   32.0590   41.6230 H   0  0  0  0  0  0  0  0  0  0  0  0
  1  4  1  1  0  0  0
  1  3  1  0  0  0  0
  2  5  1  0  0  0  0
  2  1  1  0  0  0  0
  2  3  1  0  0  0  0
  3  7  1  1  0  0  0
  3 25  1  0  0  0  0
  6  2  1  0  0  0  0
  8 13  1  0  0  0  0
  9 10  1  0  0  0  0
  9  8  2  0  0  0  0
 10 11  2  0  0  0  0
 11 12  1  0  0  0  0
 12  1  1  0  0  0  0
 13 12  2  0  0  0  0
 14  8  1  0  0  0  0
 15  9  1  0  0  0  0
 17 16  1  0  0  0  0
 18 10  1  0  0  0  0
 18 17  1  0  0  0  0
 19 18  2  0  0  0  0
 20 19  1  0  0  0  0
 21 23  2  0  0  0  0
 21 19  1  0  0  0  0
 22 21  1  0  0  0  0
 23 24  1  0  0  0  0
 24 17  2  0  0  0  0
 25 26  1  0  0  0  0
 25 27  1  0  0  0  0
 27 28  2  0  0  0  0
 27 36  1  0  0  0  0
 28 29  1  0  0  0  0
 29 38  1  0  0  0  0
 29 30  2  0  0  0  0
 30 39  1  0  0  0  0
 31 32  1  0  0  0  0
 31 30  1  0  0  0  0
 32 40  1  0  0  0  0
 33 41  1  0  0  0  0
 33 32  2  0  0  0  0
 34 33  1  0  0  0  0
 35 36  1  0  0  0  0
 35 34  2  0  0  0  0
 36 31  2  0  0  0  0
 37 28  1  0  0  0  0
 42 34  1  0  0  0  0
 43 35  1  0  0  0  0
 44 43  1  0  0  0  0
M  END
>  <minimizedAffinity>
-6.8659935

$$$$

 OpenBabel03242511153D

 44 48  0  0  1  0  0  0  0  0999 V2000
   36.0360   28.5410   36.6530 C   0  0  1  0  0  0  0  0  0  0  0  0
   36.4400   29.9010   37.1680 C   0  0  0  0  0  0  0  0  0  0  0  0
   36.1400   28.7080   38.1050 C   0  0  2  0  0  0  0  0  0  0  0  0
   36.8320   27.9760   36.1730 H   0  0  0  0  0  0  0  0  0  0  0  0
   37.4940   30.2150   37.0950 H   0  0  0  0  0  0  0  0  0  0  0  0
   35.6600   30.6670   37.0380 H   0  0  0  0  0  0  0  0  0  0  0  0
   35.1880   28.7820   38.6730 H   0  0  0  0  0  0  0  0  0  0  0  0
   33.2670   27.3190   34.5270 C   0  0  0  0  0  0  0  0  0  0  0  0
   32.2060   28.1820   34.9120 C   0  0  0  0  0  0  0  0  0  0  0  0
   32.4540   29.1550   35.8850 C   0  0  0  0  0  0  0  0  0  0  0  0
   33.6770   29.2000   36.3820 N   0  0  0  0  0  0  0  0  0  0  0  0
   34.6800   28.3890   36.0230 C   0  0  0  0  0  0  0  0  0  0  0  0
   34.4850   27.4280   35.0800 N   0  0  0  0  0  0  0  0  0  0  0  0
   33.0350   26.5780   33.7700 H   0  0  0  0  0  0  0  0  0  0  0  0
   31.2590   28.0740   34.4790 H   0  0  0  0  0  0  0  0  0  0  0  0
   31.5810   31.7570   34.3140 Cl  0  0  0  0  0  0  0  0  0  0  0  0
   31.0240   31.2640   35.8740 C   0  0  0  0  0  0  0  0  0  0  0  0
   31.5070   30.1060   36.4190 C   0  0  0  0  0  0  0  0  0  0  0  0
   30.9920   29.8660   37.6750 C   0  0  0  0  0  0  0  0  0  0  0  0
   31.2640   28.9870   38.2620 H   0  0  0  0  0  0  0  0  0  0  0  0
   30.0950   30.6890   38.3140 C   0  0  0  0  0  0  0  0  0  0  0  0
   29.7160   30.4620   39.2980 H   0  0  0  0  0  0  0  0  0  0  0  0
   29.6430   31.8410   37.7150 C   0  0  0  0  0  3  0  0  0  0  0  0
   30.1330   32.1180   36.4610 C   0  0  0  0  0  3  0  0  0  0  0  0
   37.2700   28.1170   38.7750 N   0  0  0  0  0  0  0  0  0  0  0  0
   38.0970   28.4820   38.2630 H   0  0  0  0  0  0  0  0  0  0  0  0
   37.1070   27.2330   39.8550 C   0  0  0  0  0  0  0  0  0  0  0  0
   36.8760   25.9040   39.6130 C   0  0  0  0  0  0  0  0  0  0  0  0
   36.7790   24.9610   40.6210 C   0  0  0  0  0  0  0  0  0  0  0  0
   36.9150   25.3290   41.9440 C   0  0  0  0  0  0  0  0  0  0  0  0
   37.1460   26.6570   42.2150 C   0  0  0  0  0  0  0  0  0  0  0  0
   37.2960   27.0520   43.5340 C   0  0  0  0  0  0  0  0  0  0  0  0
   37.5330   28.3460   43.8710 C   0  0  0  0  0  0  0  0  0  0  0  0
   37.6180   29.2640   42.8300 C   0  0  0  0  0  0  0  0  0  0  0  0
   37.4690   28.8660   41.5310 C   0  0  0  0  0  0  0  0  0  0  0  0
   37.2350   27.5700   41.1880 C   0  0  0  0  0  0  0  0  0  0  0  0
   36.7540   25.5090   38.6050 H   0  0  0  0  0  0  0  0  0  0  0  0
   36.5960   23.9130   40.4380 H   0  0  0  0  0  0  0  0  0  0  0  0
   36.8460   24.6160   42.7600 H   0  0  0  0  0  0  0  0  0  0  0  0
   37.2190   26.2970   44.3080 H   0  0  0  0  0  0  0  0  0  0  0  0
   37.6530   28.6680   44.8990 H   0  0  0  0  0  0  0  0  0  0  0  0
   37.8050   30.3040   43.0660 H   0  0  0  0  0  0  0  0  0  0  0  0
   37.5530   29.8140   40.5410 O   0  0  0  0  0  0  0  0  0  0  0  0
   37.5840   30.8020   40.6410 H   0  0  0  0  0  0  0  0  0  0  0  0
  1  4  1  6  0  0  0
  1  2  1  0  0  0  0
  1  3  1  0  0  0  0
  2  3  1  0  0  0  0
  3  7  1  1  0  0  0
  3 25  1  0  0  0  0
  5  2  1  0  0  0  0
  6  2  1  0  0  0  0
  8  9  2  0  0  0  0
  8 13  1  0  0  0  0
  9 10  1  0  0  0  0
 10 11  2  0  0  0  0
 10 18  1  0  0  0  0
 12 11  1  0  0  0  0
 12  1  1  0  0  0  0
 13 12  2  0  0  0  0
 14  8  1  0  0  0  0
 15  9  1  0  0  0  0
 16 17  1  0  0  0  0
 17 18  2  0  0  0  0
 17 24  1  0  0  0  0
 18 19  1  0  0  0  0
 19 20  1  0  0  0  0
 19 21  2  0  0  0  0
 21 22  1  0  0  0  0
 23 21  1  0  0  0  0
 24 23  2  0  0  0  0
 25 27  1  0  0  0  0
 26 25  1  0  0  0  0
 27 36  1  0  0  0  0
 28 27  2  0  0  0  0
 28 29  1  0  0  0  0
 29 30  2  0  0  0  0
 30 31  1  0  0  0  0
 30 39  1  0  0  0  0
 31 32  1  0  0  0  0
 32 33  2  0  0  0  0
 32 40  1  0  0  0  0
 33 41  1  0  0  0  0
 34 42  1  0  0  0  0
 34 33  1  0  0  0  0
 35 34  2  0  0  0  0
 36 35  1  0  0  0  0
 36 31  2  0  0  0  0
 37 28  1  0  0  0  0
 38 29  1  0  0  0  0
 43 44  1  0  0  0  0
 43 35  1  0  0  0  0
M  END
>  <minimizedAffinity>
-6.77430391

$$$$

 OpenBabel03242511153D

 44 48  0  0  1  0  0  0  0  0999 V2000
   37.1480   26.8410   42.1910 C   0  0  1  0  0  0  0  0  0  0  0  0
   36.2140   27.2330   43.3110 C   0  0  0  0  0  0  0  0  0  0  0  0
   36.8270   28.2640   42.3350 C   0  0  2  0  0  0  0  0  0  0  0  0
   36.6770   26.3210   41.3600 H   0  0  0  0  0  0  0  0  0  0  0  0
   35.1340   27.0390   43.2050 H   0  0  0  0  0  0  0  0  0  0  0  0
   36.6630   27.1340   44.3100 H   0  0  0  0  0  0  0  0  0  0  0  0
   37.6140   28.9160   42.7700 H   0  0  0  0  0  0  0  0  0  0  0  0
   40.0030   24.6120   42.9390 C   0  0  0  0  0  0  0  0  0  0  0  0
   41.0360   25.5480   43.2120 C   0  0  0  0  0  0  0  0  0  0  0  0
   40.7400   26.9120   43.1340 C   0  0  0  0  0  0  0  0  0  0  0  0
   39.5010   27.2350   42.8060 N   0  0  0  0  0  0  0  0  0  0  0  0
   38.5250   26.3560   42.5470 C   0  0  0  0  0  0  0  0  0  0  0  0
   38.7660   25.0180   42.6110 N   0  0  0  0  0  0  0  0  0  0  0  0
   40.2710   23.5630   43.0110 H   0  0  0  0  0  0  0  0  0  0  0  0
   41.9970   25.2120   43.4540 H   0  0  0  0  0  0  0  0  0  0  0  0
   40.3140   29.7700   41.8480 Cl  0  0  0  0  0  0  0  0  0  0  0  0
   41.6120   29.2940   42.8850 C   0  0  0  0  0  0  0  0  0  0  0  0
   41.6520   28.0100   43.3560 C   0  0  0  0  0  0  0  0  0  0  0  0
   42.7600   27.7770   44.1430 C   0  0  0  0  0  0  0  0  0  0  0  0
   42.9580   26.8090   44.6050 H   0  0  0  0  0  0  0  0  0  0  0  0
   43.7190   28.7210   44.4280 C   0  0  0  0  0  0  0  0  0  0  0  0
   44.5710   28.4960   45.0500 H   0  0  0  0  0  0  0  0  0  0  0  0
   43.6250   29.9970   43.9270 C   0  0  0  0  0  3  0  0  0  0  0  0
   42.5340   30.2710   43.1360 C   0  0  0  0  0  3  0  0  0  0  0  0
   35.9290   28.8550   41.3750 N   0  0  0  0  0  0  0  0  0  0  0  0
   35.0390   28.3310   41.4940 H   0  0  0  0  0  0  0  0  0  0  0  0
   36.3410   29.8900   40.5200 C   0  0  0  0  0  0  0  0  0  0  0  0
   36.7380   31.0900   41.0520 C   0  0  0  0  0  0  0  0  0  0  0  0
   37.2260   32.1290   40.2810 C   0  0  0  0  0  0  0  0  0  0  0  0
   37.3390   31.9980   38.9120 C   0  0  0  0  0  0  0  0  0  0  0  0
   36.9470   30.8050   38.3530 C   0  0  0  0  0  0  0  0  0  0  0  0
   37.0580   30.6430   36.9810 C   0  0  0  0  0  0  0  0  0  0  0  0
   36.6960   29.4880   36.3650 C   0  0  0  0  0  0  0  0  0  0  0  0
   36.2040   28.4690   37.1730 C   0  0  0  0  0  0  0  0  0  0  0  0
   36.0980   28.6370   38.5250 C   0  0  0  0  0  0  0  0  0  0  0  0
   36.4630   29.7910   39.1480 C   0  0  0  0  0  0  0  0  0  0  0  0
   36.6900   31.2960   42.1200 H   0  0  0  0  0  0  0  0  0  0  0  0
   37.5400   33.0770   40.6920 H   0  0  0  0  0  0  0  0  0  0  0  0
   37.7190   32.7920   38.2770 H   0  0  0  0  0  0  0  0  0  0  0  0
   37.4460   31.4690   36.3960 H   0  0  0  0  0  0  0  0  0  0  0  0
   36.7790   29.3480   35.2940 H   0  0  0  0  0  0  0  0  0  0  0  0
   35.9050   27.5370   36.7120 H   0  0  0  0  0  0  0  0  0  0  0  0
   35.5970   27.6030   39.2770 O   0  0  0  0  0  0  0  0  0  0  0  0
   35.1690   26.7650   38.9580 H   0  0  0  0  0  0  0  0  0  0  0  0
  1  4  1  6  0  0  0
  1  3  1  0  0  0  0
  1 12  1  0  0  0  0
  1  2  1  0  0  0  0
  2  6  1  0  0  0  0
  3  7  1  1  0  0  0
  3  2  1  0  0  0  0
  5  2  1  0  0  0  0
  8 14  1  0  0  0  0
  8  9  1  0  0  0  0
  9 15  1  0  0  0  0
 10  9  2  0  0  0  0
 10 18  1  0  0  0  0
 11 10  1  0  0  0  0
 12 13  1  0  0  0  0
 12 11  2  0  0  0  0
 13  8  2  0  0  0  0
 16 17  1  0  0  0  0
 17 24  2  0  0  0  0
 17 18  1  0  0  0  0
 18 19  2  0  0  0  0
 19 21  1  0  0  0  0
 19 20  1  0  0  0  0
 21 22  1  0  0  0  0
 23 21  2  0  0  0  0
 24 23  1  0  0  0  0
 25 26  1  0  0  0  0
 25  3  1  0  0  0  0
 27 28  1  0  0  0  0
 27 25  1  0  0  0  0
 28 37  1  0  0  0  0
 29 38  1  0  0  0  0
 29 28  2  0  0  0  0
 30 29  1  0  0  0  0
 31 30  2  0  0  0  0
 31 36  1  0  0  0  0
 32 31  1  0  0  0  0
 33 32  2  0  0  0  0
 33 34  1  0  0  0  0
 34 35  2  0  0  0  0
 35 36  1  0  0  0  0
 35 43  1  0  0  0  0
 36 27  2  0  0  0  0
 39 30  1  0  0  0  0
 40 32  1  0  0  0  0
 41 33  1  0  0  0  0
 42 34  1  0  0  0  0
 44 43  1  0  0  0  0
M  END
>  <minimizedAffinity>
-6.74516201

$$$$

 OpenBabel03242511153D

 44 48  0  0  1  0  0  0  0  0999 V2000
   36.9170   27.3240   42.3870 C   0  0  1  0  0  0  0  0  0  0  0  0
   36.4360   27.4680   43.8110 C   0  0  0  0  0  0  0  0  0  0  0  0
   37.7520   28.1020   43.3060 C   0  0  2  0  0  0  0  0  0  0  0  0
   36.3500   27.8900   41.6510 H   0  0  0  0  0  0  0  0  0  0  0  0
   35.6100   28.1630   44.0340 H   0  0  0  0  0  0  0  0  0  0  0  0
   36.4990   26.5350   44.3900 H   0  0  0  0  0  0  0  0  0  0  0  0
   38.6820   27.6170   43.6740 H   0  0  0  0  0  0  0  0  0  0  0  0
   38.8520   24.1840   42.1090 C   0  0  0  0  0  0  0  0  0  0  0  0
   38.1980   23.5370   41.0270 C   0  0  0  0  0  0  0  0  0  0  0  0
   37.1150   24.1800   40.4190 C   0  0  0  0  0  0  0  0  0  0  0  0
   36.7750   25.3610   40.9050 N   0  0  0  0  0  0  0  0  0  0  0  0
   37.3880   25.9730   41.9250 C   0  0  0  0  0  0  0  0  0  0  0  0
   38.4470   25.3870   42.5470 N   0  0  0  0  0  0  0  0  0  0  0  0
   39.6880   23.6550   42.5530 H   0  0  0  0  0  0  0  0  0  0  0  0
   38.5200   22.5950   40.7070 H   0  0  0  0  0  0  0  0  0  0  0  0
   38.0860   24.2790   37.4110 Cl  0  0  0  0  0  0  0  0  0  0  0  0
   36.5850   23.6430   37.9850 C   0  0  0  0  0  0  0  0  0  0  0  0
   36.3140   23.6800   39.3250 C   0  0  0  0  0  0  0  0  0  0  0  0
   35.0700   23.1650   39.6210 C   0  0  0  0  0  0  0  0  0  0  0  0
   34.6840   23.1130   40.6400 H   0  0  0  0  0  0  0  0  0  0  0  0
   34.1960   22.6670   38.6840 C   0  0  0  0  0  0  0  0  0  0  0  0
   33.2310   22.2710   38.9600 H   0  0  0  0  0  0  0  0  0  0  0  0
   34.5240   22.6540   37.3490 C   0  0  0  0  0  3  0  0  0  0  0  0
   35.7570   23.1610   37.0110 C   0  0  0  0  0  3  0  0  0  0  0  0
   37.7620   29.5360   43.1610 N   0  0  0  0  0  0  0  0  0  0  0  0
   36.9800   29.8640   43.7620 H   0  0  0  0  0  0  0  0  0  0  0  0
   38.6830   30.1860   42.3230 C   0  0  0  0  0  0  0  0  0  0  0  0
   40.0250   30.0740   42.5760 C   0  0  0  0  0  0  0  0  0  0  0  0
   40.9930   30.6220   41.7540 C   0  0  0  0  0  0  0  0  0  0  0  0
   40.6400   31.3210   40.6180 C   0  0  0  0  0  0  0  0  0  0  0  0
   39.2990   31.4490   40.3410 C   0  0  0  0  0  0  0  0  0  0  0  0
   38.9160   32.1370   39.2010 C   0  0  0  0  0  0  0  0  0  0  0  0
   37.6100   32.2950   38.8650 C   0  0  0  0  0  0  0  0  0  0  0  0
   36.6660   31.7350   39.7190 C   0  0  0  0  0  0  0  0  0  0  0  0
   37.0520   31.0570   40.8410 C   0  0  0  0  0  0  0  0  0  0  0  0
   38.3600   30.8930   41.1810 C   0  0  0  0  0  0  0  0  0  0  0  0
   40.4100   29.5430   43.4450 H   0  0  0  0  0  0  0  0  0  0  0  0
   42.0520   30.5390   41.9470 H   0  0  0  0  0  0  0  0  0  0  0  0
   41.3730   31.7630   39.9500 H   0  0  0  0  0  0  0  0  0  0  0  0
   39.6910   32.5570   38.5700 H   0  0  0  0  0  0  0  0  0  0  0  0
   37.2970   32.8300   37.9760 H   0  0  0  0  0  0  0  0  0  0  0  0
   35.6170   31.8440   39.4800 H   0  0  0  0  0  0  0  0  0  0  0  0
   36.0810   30.5300   41.6560 O   0  0  0  0  0  0  0  0  0  0  0  0
   35.0990   30.6810   41.6150 H   0  0  0  0  0  0  0  0  0  0  0  0
  1  4  1  6  0  0  0
  1  3  1  0  0  0  0
  1  2  1  0  0  0  0
  2  5  1  0  0  0  0
  2  6  1  0  0  0  0
  3  7  1  1  0  0  0
  3  2  1  0  0  0  0
  8 13  1  0  0  0  0
  8 14  1  0  0  0  0
  9  8  2  0  0  0  0
 10 11  2  0  0  0  0
 10  9  1  0  0  0  0
 11 12  1  0  0  0  0
 12  1  1  0  0  0  0
 12 13  2  0  0  0  0
 15  9  1  0  0  0  0
 16 17  1  0  0  0  0
 17 18  1  0  0  0  0
 18 19  2  0  0  0  0
 18 10  1  0  0  0  0
 19 20  1  0  0  0  0
 21 22  1  0  0  0  0
 21 19  1  0  0  0  0
 23 21  2  0  0  0  0
 24 23  1  0  0  0  0
 24 17  2  0  0  0  0
 25  3  1  0  0  0  0
 25 26  1  0  0  0  0
 27 28  1  0  0  0  0
 27 25  1  0  0  0  0
 28 37  1  0  0  0  0
 29 38  1  0  0  0  0
 29 28  2  0  0  0  0
 30 29  1  0  0  0  0
 31 30  2  0  0  0  0
 31 36  1  0  0  0  0
 32 31  1  0  0  0  0
 33 32  2  0  0  0  0
 33 34  1  0  0  0  0
 34 35  2  0  0  0  0
 35 36  1  0  0  0  0
 35 43  1  0  0  0  0
 36 27  2  0  0  0  0
 39 30  1  0  0  0  0
 40 32  1  0  0  0  0
 41 33  1  0  0  0  0
 42 34  1  0  0  0  0
 44 43  1  0  0  0  0
M  END
>  <minimizedAffinity>
-6.68264723

$$$$

 OpenBabel03242511153D

 44 48  0  0  1  0  0  0  0  0999 V2000
   40.1490   27.4350   42.7120 C   0  0  1  0  0  0  0  0  0  0  0  0
   40.2270   26.7440   44.0520 C   0  0  0  0  0  0  0  0  0  0  0  0
   38.8930   27.2310   43.4390 C   0  0  2  0  0  0  0  0  0  0  0  0
   40.3190   26.7920   41.8520 H   0  0  0  0  0  0  0  0  0  0  0  0
   40.3810   25.6540   44.0880 H   0  0  0  0  0  0  0  0  0  0  0  0
   40.6930   27.3610   44.8350 H   0  0  0  0  0  0  0  0  0  0  0  0
   38.4450   28.1220   43.9300 H   0  0  0  0  0  0  0  0  0  0  0  0
   42.4130   30.3460   43.0040 C   0  0  0  0  0  0  0  0  0  0  0  0
   41.6670   31.3590   42.3460 C   0  0  0  0  0  0  0  0  0  0  0  0
   40.4150   31.0300   41.8160 C   0  0  0  0  0  0  0  0  0  0  0  0
   40.0130   29.7810   41.9700 N   0  0  0  0  0  0  0  0  0  0  0  0
   40.7130   28.8230   42.5890 C   0  0  0  0  0  0  0  0  0  0  0  0
   41.9360   29.0960   43.1210 N   0  0  0  0  0  0  0  0  0  0  0  0
   43.3780   30.6390   43.4030 H   0  0  0  0  0  0  0  0  0  0  0  0
   42.0600   32.3240   42.2530 H   0  0  0  0  0  0  0  0  0  0  0  0
   41.3210   33.8510   40.7100 Cl  0  0  0  0  0  0  0  0  0  0  0  0
   39.7520   33.1440   40.5570 C   0  0  0  0  0  0  0  0  0  0  0  0
   39.5210   31.9100   41.0990 C   0  0  0  0  0  0  0  0  0  0  0  0
   38.2170   31.4970   40.9210 C   0  0  0  0  0  0  0  0  0  0  0  0
   37.8510   30.5370   41.2870 H   0  0  0  0  0  0  0  0  0  0  0  0
   37.2540   32.2340   40.2720 C   0  0  0  0  0  0  0  0  0  0  0  0
   36.2450   31.8710   40.1540 H   0  0  0  0  0  0  0  0  0  0  0  0
   37.5460   33.4700   39.7450 C   0  0  0  0  0  3  0  0  0  0  0  0
   38.8360   33.9190   39.9030 C   0  0  0  0  0  3  0  0  0  0  0  0
   37.9940   26.2110   42.9630 N   0  0  0  0  0  0  0  0  0  0  0  0
   38.0040   25.4860   43.7080 H   0  0  0  0  0  0  0  0  0  0  0  0
   37.3470   26.3210   41.7210 C   0  0  0  0  0  0  0  0  0  0  0  0
   36.9340   27.5500   41.2790 C   0  0  0  0  0  0  0  0  0  0  0  0
   36.3580   27.7480   40.0360 C   0  0  0  0  0  0  0  0  0  0  0  0
   36.1720   26.6910   39.1700 C   0  0  0  0  0  0  0  0  0  0  0  0
   36.5770   25.4450   39.5890 C   0  0  0  0  0  0  0  0  0  0  0  0
   36.4110   24.3670   38.7350 C   0  0  0  0  0  0  0  0  0  0  0  0
   36.7950   23.1120   39.0830 C   0  0  0  0  0  0  0  0  0  0  0  0
   37.3650   22.9530   40.3420 C   0  0  0  0  0  0  0  0  0  0  0  0
   37.5250   24.0220   41.1790 C   0  0  0  0  0  0  0  0  0  0  0  0
   37.1450   25.2820   40.8330 C   0  0  0  0  0  0  0  0  0  0  0  0
   37.0350   28.4500   41.8840 H   0  0  0  0  0  0  0  0  0  0  0  0
   36.0290   28.7130   39.6810 H   0  0  0  0  0  0  0  0  0  0  0  0
   35.7250   26.8100   38.1870 H   0  0  0  0  0  0  0  0  0  0  0  0
   35.9600   24.5450   37.7650 H   0  0  0  0  0  0  0  0  0  0  0  0
   36.6720   22.2610   38.4240 H   0  0  0  0  0  0  0  0  0  0  0  0
   37.6800   21.9650   40.6500 H   0  0  0  0  0  0  0  0  0  0  0  0
   38.0840   23.8090   42.4150 O   0  0  0  0  0  0  0  0  0  0  0  0
   38.2830   22.9410   42.8560 H   0  0  0  0  0  0  0  0  0  0  0  0
  1  4  1  6  0  0  0
  1  3  1  0  0  0  0
  1  2  1  0  0  0  0
  2  5  1  0  0  0  0
  2  6  1  0  0  0  0
  3  7  1  1  0  0  0
  3  2  1  0  0  0  0
  8 13  1  0  0  0  0
  8 14  1  0  0  0  0
  9  8  2  0  0  0  0
 10 11  2  0  0  0  0
 10  9  1  0  0  0  0
 11 12  1  0  0  0  0
 12  1  1  0  0  0  0
 12 13  2  0  0  0  0
 15  9  1  0  0  0  0
 17 16  1  0  0  0  0
 17 18  1  0  0  0  0
 18 10  1  0  0  0  0
 19 18  2  0  0  0  0
 19 20  1  0  0  0  0
 21 19  1  0  0  0  0
 22 21  1  0  0  0  0
 23 24  1  0  0  0  0
 23 21  2  0  0  0  0
 24 17  2  0  0  0  0
 25  3  1  0  0  0  0
 25 26  1  0  0  0  0
 27 25  1  0  0  0  0
 28 27  1  0  0  0  0
 28 37  1  0  0  0  0
 29 28  2  0  0  0  0
 30 31  2  0  0  0  0
 30 29  1  0  0  0  0
 31 36  1  0  0  0  0
 32 33  2  0  0  0  0
 32 31  1  0  0  0  0
 33 34  1  0  0  0  0
 34 42  1  0  0  0  0
 34 35  2  0  0  0  0
 35 43  1  0  0  0  0
 36 35  1  0  0  0  0
 36 27  2  0  0  0  0
 38 29  1  0  0  0  0
 39 30  1  0  0  0  0
 40 32  1  0  0  0  0
 41 33  1  0  0  0  0
 43 44  1  0  0  0  0
M  END
>  <minimizedAffinity>
-6.64736319

$$$$
