
 OpenBabel03252505223D

 28 30  0  0  0  0  0  0  0  0999 V2000
   39.0980   28.3350   39.6760 F   0  0  0  0  0  0  0  0  0  0  0  0
   37.9840   29.0290   40.0090 C   0  0  0  0  0  0  0  0  0  0  0  0
   37.9980   30.3970   39.8740 C   0  0  0  0  0  0  0  0  0  0  0  0
   36.8650   31.0700   40.2160 C   0  0  0  0  0  0  0  0  0  0  0  0
   35.7480   30.4060   40.6790 C   0  0  0  0  0  0  0  0  0  0  0  0
   35.7220   29.0420   40.8170 C   0  0  0  0  0  0  0  0  0  0  0  0
   36.8900   28.3370   40.4660 C   0  0  0  0  0  0  0  0  0  0  0  0
   36.8330   32.1440   40.1260 H   0  0  0  0  0  0  0  0  0  0  0  0
   34.8360   30.9590   40.9540 H   0  0  0  0  0  0  0  0  0  0  0  0
   34.8500   28.5110   41.1800 H   0  0  0  0  0  0  0  0  0  0  0  0
   41.2830   31.9890   39.7890 C   0  0  0  0  0  0  0  0  0  0  0  0
   41.4170   32.3450   38.4300 C   0  0  0  0  0  0  0  0  0  0  0  0
   40.3690   32.0270   37.5700 C   0  0  0  0  0  0  0  0  0  0  0  0
   39.2740   31.3940   38.0770 N   0  0  0  0  0  0  0  0  0  0  0  0
   39.1860   31.0710   39.3850 C   0  0  0  0  0  0  0  0  0  0  0  0
   40.1840   31.3660   40.2400 N   0  0  0  0  0  0  0  0  0  0  0  0
   42.1330   32.2660   40.3990 H   0  0  0  0  0  0  0  0  0  0  0  0
   42.2790   32.8450   38.0190 H   0  0  0  0  0  0  0  0  0  0  0  0
   40.3550   32.2480   36.5030 H   0  0  0  0  0  0  0  0  0  0  0  0
   37.5540   27.5450   43.2120 Cl  0  0  0  0  0  0  0  0  0  0  0  0
   37.1390   26.4390   41.8890 C   0  0  0  0  0  0  0  0  0  0  0  0
   36.8380   26.8930   40.6210 C   0  0  0  0  0  0  0  0  0  0  0  0
   36.5220   25.9680   39.6360 C   0  0  0  0  0  0  0  0  0  0  0  0
   36.2990   26.3720   38.6760 H   0  0  0  0  0  0  0  0  0  0  0  0
   36.5260   24.6280   39.9780 C   0  0  0  0  0  0  0  0  0  0  0  0
   36.2770   23.9080   39.1980 H   0  0  0  0  0  0  0  0  0  0  0  0
   36.8280   24.2050   41.2450 C   0  0  0  0  0  3  0  0  0  0  0  0
   37.1500   25.1100   42.2560 C   0  0  0  0  0  3  0  0  0  0  0  0
  1  2  1  0  0  0  0
  2  7  1  0  0  0  0
  3  2  2  0  0  0  0
  3  4  1  0  0  0  0
  4  5  2  0  0  0  0
  5  6  1  0  0  0  0
  5  9  1  0  0  0  0
  6 10  1  0  0  0  0
  7 22  1  0  0  0  0
  7  6  2  0  0  0  0
  8  4  1  0  0  0  0
 11 16  1  0  0  0  0
 11 17  1  0  0  0  0
 12 11  2  0  0  0  0
 13 14  2  0  0  0  0
 13 12  1  0  0  0  0
 14 15  1  0  0  0  0
 15  3  1  0  0  0  0
 15 16  2  0  0  0  0
 18 12  1  0  0  0  0
 19 13  1  0  0  0  0
 21 28  1  0  0  0  0
 21 20  1  0  0  0  0
 22 21  2  0  0  0  0
 23 25  2  0  0  0  0
 23 22  1  0  0  0  0
 24 23  1  0  0  0  0
 25 27  1  0  0  0  0
 26 25  1  0  0  0  0
 27 28  2  0  0  0  0
M  END
>  <minimizedAffinity>
-5.34335089

$$$$

 OpenBabel03252505223D

 28 30  0  0  0  0  0  0  0  0999 V2000
   38.3020   28.0020   39.8480 F   0  0  0  0  0  0  0  0  0  0  0  0
   37.8620   27.8910   41.1240 C   0  0  0  0  0  0  0  0  0  0  0  0
   37.5020   26.6470   41.5880 C   0  0  0  0  0  0  0  0  0  0  0  0
   37.0630   26.5640   42.8740 C   0  0  0  0  0  0  0  0  0  0  0  0
   36.9830   27.6810   43.6790 C   0  0  0  0  0  0  0  0  0  0  0  0
   37.3400   28.9260   43.2280 C   0  0  0  0  0  0  0  0  0  0  0  0
   37.7950   29.0220   41.8970 C   0  0  0  0  0  0  0  0  0  0  0  0
   36.7710   25.6080   43.2780 H   0  0  0  0  0  0  0  0  0  0  0  0
   36.6270   27.6040   44.7180 H   0  0  0  0  0  0  0  0  0  0  0  0
   37.2810   29.8100   43.8510 H   0  0  0  0  0  0  0  0  0  0  0  0
   36.6660   24.1270   39.0820 C   0  0  0  0  0  0  0  0  0  0  0  0
   37.8040   23.2910   39.0950 C   0  0  0  0  0  0  0  0  0  0  0  0
   38.8370   23.6160   39.9700 C   0  0  0  0  0  0  0  0  0  0  0  0
   38.7010   24.7140   40.7640 N   0  0  0  0  0  0  0  0  0  0  0  0
   37.5960   25.4880   40.7200 C   0  0  0  0  0  0  0  0  0  0  0  0
   36.5800   25.1980   39.8840 N   0  0  0  0  0  0  0  0  0  0  0  0
   35.9040   23.8150   38.3800 H   0  0  0  0  0  0  0  0  0  0  0  0
   37.9200   22.4200   38.4700 H   0  0  0  0  0  0  0  0  0  0  0  0
   39.7630   23.0500   40.0720 H   0  0  0  0  0  0  0  0  0  0  0  0
   35.5960   30.2880   40.4250 Cl  0  0  0  0  0  0  0  0  0  0  0  0
   37.1830   31.0150   40.7380 C   0  0  0  0  0  0  0  0  0  0  0  0
   38.1670   30.3510   41.4420 C   0  0  0  0  0  0  0  0  0  0  0  0
   39.3850   30.9830   41.6490 C   0  0  0  0  0  0  0  0  0  0  0  0
   40.1090   30.4270   42.1970 H   0  0  0  0  0  0  0  0  0  0  0  0
   39.5510   32.2570   41.1350 C   0  0  0  0  0  0  0  0  0  0  0  0
   40.5110   32.7460   41.3010 H   0  0  0  0  0  0  0  0  0  0  0  0
   38.5570   32.8930   40.4400 C   0  0  0  0  0  3  0  0  0  0  0  0
   37.3230   32.2830   40.2160 C   0  0  0  0  0  3  0  0  0  0  0  0
  1  2  1  0  0  0  0
  2  3  2  0  0  0  0
  2  7  1  0  0  0  0
  3  4  1  0  0  0  0
  4  8  1  0  0  0  0
  4  5  2  0  0  0  0
  5  9  1  0  0  0  0
  6  5  1  0  0  0  0
  6 10  1  0  0  0  0
  7  6  2  0  0  0  0
 11 12  2  0  0  0  0
 11 16  1  0  0  0  0
 12 13  1  0  0  0  0
 13 19  1  0  0  0  0
 13 14  2  0  0  0  0
 15 14  1  0  0  0  0
 15  3  1  0  0  0  0
 16 15  2  0  0  0  0
 17 11  1  0  0  0  0
 18 12  1  0  0  0  0
 20 21  1  0  0  0  0
 21 22  1  0  0  0  0
 22 23  2  0  0  0  0
 22  7  1  0  0  0  0
 23 24  1  0  0  0  0
 25 26  1  0  0  0  0
 25 23  1  0  0  0  0
 27 25  2  0  0  0  0
 28 27  1  0  0  0  0
 28 21  2  0  0  0  0
M  END
>  <minimizedAffinity>
-5.28848457

$$$$

 OpenBabel03252505223D

 28 30  0  0  0  0  0  0  0  0999 V2000
   40.1400   29.9350   40.3760 F   0  0  0  0  0  0  0  0  0  0  0  0
   39.0960   30.7790   40.2030 C   0  0  0  0  0  0  0  0  0  0  0  0
   39.2750   31.8900   39.4120 C   0  0  0  0  0  0  0  0  0  0  0  0
   38.2080   32.7220   39.2550 C   0  0  0  0  0  0  0  0  0  0  0  0
   36.9990   32.4620   39.8640 C   0  0  0  0  0  0  0  0  0  0  0  0
   36.8080   31.3570   40.6540 C   0  0  0  0  0  0  0  0  0  0  0  0
   37.9060   30.4900   40.8230 C   0  0  0  0  0  0  0  0  0  0  0  0
   38.3050   33.6050   38.6440 H   0  0  0  0  0  0  0  0  0  0  0  0
   36.1410   33.1410   39.7310 H   0  0  0  0  0  0  0  0  0  0  0  0
   35.8620   31.1430   41.1370 H   0  0  0  0  0  0  0  0  0  0  0  0
   42.6310   33.1910   38.8020 C   0  0  0  0  0  0  0  0  0  0  0  0
   42.9720   32.5950   37.5690 C   0  0  0  0  0  0  0  0  0  0  0  0
   42.0350   31.7550   36.9730 C   0  0  0  0  0  0  0  0  0  0  0  0
   40.8440   31.5510   37.6040 N   0  0  0  0  0  0  0  0  0  0  0  0
   40.5580   32.1410   38.7830 C   0  0  0  0  0  0  0  0  0  0  0  0
   41.4450   32.9580   39.3830 N   0  0  0  0  0  0  0  0  0  0  0  0
   43.4050   33.8310   39.2070 H   0  0  0  0  0  0  0  0  0  0  0  0
   43.9110   32.7500   37.0640 H   0  0  0  0  0  0  0  0  0  0  0  0
   42.1810   31.2380   36.0260 H   0  0  0  0  0  0  0  0  0  0  0  0
   36.9620   28.2090   39.2380 Cl  0  0  0  0  0  0  0  0  0  0  0  0
   37.2330   28.2080   40.9910 C   0  0  0  0  0  0  0  0  0  0  0  0
   37.6800   29.3260   41.6640 C   0  0  0  0  0  0  0  0  0  0  0  0
   37.8700   29.2510   43.0360 C   0  0  0  0  0  0  0  0  0  0  0  0
   38.2150   30.1420   43.5070 H   0  0  0  0  0  0  0  0  0  0  0  0
   37.5990   28.0490   43.6650 C   0  0  0  0  0  0  0  0  0  0  0  0
   37.7500   27.9970   44.7430 H   0  0  0  0  0  0  0  0  0  0  0  0
   37.1560   26.9540   42.9710 C   0  0  0  0  0  3  0  0  0  0  0  0
   36.9560   26.9990   41.5920 C   0  0  0  0  0  3  0  0  0  0  0  0
  2  1  1  0  0  0  0
  2  7  1  0  0  0  0
  3  2  2  0  0  0  0
  4  3  1  0  0  0  0
  4  5  2  0  0  0  0
  5  6  1  0  0  0  0
  6  7  2  0  0  0  0
  6 10  1  0  0  0  0
  7 22  1  0  0  0  0
  8  4  1  0  0  0  0
  9  5  1  0  0  0  0
 11 17  1  0  0  0  0
 11 16  1  0  0  0  0
 12 11  2  0  0  0  0
 13 12  1  0  0  0  0
 13 14  2  0  0  0  0
 14 15  1  0  0  0  0
 15 16  2  0  0  0  0
 15  3  1  0  0  0  0
 18 12  1  0  0  0  0
 19 13  1  0  0  0  0
 20 21  1  0  0  0  0
 21 28  2  0  0  0  0
 21 22  1  0  0  0  0
 22 23  2  0  0  0  0
 23 24  1  0  0  0  0
 23 25  1  0  0  0  0
 25 26  1  0  0  0  0
 27 25  2  0  0  0  0
 28 27  1  0  0  0  0
M  END
>  <minimizedAffinity>
-5.28003168

$$$$

 OpenBabel03252505223D

 28 30  0  0  0  0  0  0  0  0999 V2000
   38.0690   28.1630   39.7960 F   0  0  0  0  0  0  0  0  0  0  0  0
   37.7030   27.9650   41.0840 C   0  0  0  0  0  0  0  0  0  0  0  0
   37.6460   29.0530   41.9240 C   0  0  0  0  0  0  0  0  0  0  0  0
   37.2760   28.8260   43.2150 C   0  0  0  0  0  0  0  0  0  0  0  0
   36.9690   27.5580   43.6610 C   0  0  0  0  0  0  0  0  0  0  0  0
   37.0210   26.4660   42.8330 C   0  0  0  0  0  0  0  0  0  0  0  0
   37.4040   26.6910   41.4960 C   0  0  0  0  0  0  0  0  0  0  0  0
   37.2190   29.6500   43.9070 H   0  0  0  0  0  0  0  0  0  0  0  0
   36.6710   27.3840   44.7070 H   0  0  0  0  0  0  0  0  0  0  0  0
   36.7830   25.4650   43.1740 H   0  0  0  0  0  0  0  0  0  0  0  0
   37.3450   32.3130   40.3080 C   0  0  0  0  0  0  0  0  0  0  0  0
   38.6240   32.8740   40.5080 C   0  0  0  0  0  0  0  0  0  0  0  0
   39.5660   32.1140   41.1970 C   0  0  0  0  0  0  0  0  0  0  0  0
   39.2100   30.8760   41.6410 N   0  0  0  0  0  0  0  0  0  0  0  0
   37.9740   30.3770   41.4290 C   0  0  0  0  0  0  0  0  0  0  0  0
   37.0420   31.0890   40.7660 N   0  0  0  0  0  0  0  0  0  0  0  0
   36.6650   32.9580   39.7660 H   0  0  0  0  0  0  0  0  0  0  0  0
   38.9150   33.8520   40.1600 H   0  0  0  0  0  0  0  0  0  0  0  0
   40.5840   32.4370   41.4130 H   0  0  0  0  0  0  0  0  0  0  0  0
   40.0200   25.3720   41.6530 Cl  0  0  0  0  0  0  0  0  0  0  0  0
   38.6540   24.8410   40.6550 C   0  0  0  0  0  0  0  0  0  0  0  0
   37.4520   25.5190   40.6370 C   0  0  0  0  0  0  0  0  0  0  0  0
   36.4270   25.0440   39.8320 C   0  0  0  0  0  0  0  0  0  0  0  0
   35.5210   25.6040   39.8550 H   0  0  0  0  0  0  0  0  0  0  0  0
   36.6640   23.9060   39.0820 C   0  0  0  0  0  0  0  0  0  0  0  0
   35.8540   23.5390   38.4510 H   0  0  0  0  0  0  0  0  0  0  0  0
   37.8670   23.2530   39.1190 C   0  0  0  0  0  3  0  0  0  0  0  0
   38.9160   23.7060   39.9180 C   0  0  0  0  0  3  0  0  0  0  0  0
  1  2  1  0  0  0  0
  2  7  2  0  0  0  0
  2  3  1  0  0  0  0
  3  4  2  0  0  0  0
  4  5  1  0  0  0  0
  4  8  1  0  0  0  0
  5  9  1  0  0  0  0
  6 10  1  0  0  0  0
  6  5  2  0  0  0  0
  7  6  1  0  0  0  0
 11 12  2  0  0  0  0
 11 16  1  0  0  0  0
 12 13  1  0  0  0  0
 13 19  1  0  0  0  0
 13 14  2  0  0  0  0
 15 14  1  0  0  0  0
 15  3  1  0  0  0  0
 16 15  2  0  0  0  0
 17 11  1  0  0  0  0
 18 12  1  0  0  0  0
 21 20  1  0  0  0  0
 22 21  1  0  0  0  0
 22  7  1  0  0  0  0
 23 24  1  0  0  0  0
 23 22  2  0  0  0  0
 25 27  2  0  0  0  0
 25 23  1  0  0  0  0
 26 25  1  0  0  0  0
 27 28  1  0  0  0  0
 28 21  2  0  0  0  0
M  END
>  <minimizedAffinity>
-5.24009705

$$$$

 OpenBabel03252505223D

 28 30  0  0  0  0  0  0  0  0999 V2000
   37.9640   28.0200   39.7170 F   0  0  0  0  0  0  0  0  0  0  0  0
   37.6170   27.8770   41.0180 C   0  0  0  0  0  0  0  0  0  0  0  0
   37.3540   26.6130   41.4910 C   0  0  0  0  0  0  0  0  0  0  0  0
   37.0070   26.4970   42.8030 C   0  0  0  0  0  0  0  0  0  0  0  0
   36.9230   27.6030   43.6230 C   0  0  0  0  0  0  0  0  0  0  0  0
   37.1840   28.8680   43.1630 C   0  0  0  0  0  0  0  0  0  0  0  0
   37.5440   28.9970   41.8060 C   0  0  0  0  0  0  0  0  0  0  0  0
   36.7920   25.5250   43.2150 H   0  0  0  0  0  0  0  0  0  0  0  0
   36.6420   27.5000   44.6830 H   0  0  0  0  0  0  0  0  0  0  0  0
   37.1210   29.7430   43.7990 H   0  0  0  0  0  0  0  0  0  0  0  0
   38.6630   23.6660   39.7780 C   0  0  0  0  0  0  0  0  0  0  0  0
   37.5970   23.3070   38.9260 C   0  0  0  0  0  0  0  0  0  0  0  0
   36.4460   24.0910   38.9610 C   0  0  0  0  0  0  0  0  0  0  0  0
   36.4060   25.1570   39.8080 N   0  0  0  0  0  0  0  0  0  0  0  0
   37.4490   25.4660   40.6070 C   0  0  0  0  0  0  0  0  0  0  0  0
   38.5750   24.7260   40.5950 N   0  0  0  0  0  0  0  0  0  0  0  0
   39.5240   23.0150   39.6990 H   0  0  0  0  0  0  0  0  0  0  0  0
   37.6190   22.4650   38.2530 H   0  0  0  0  0  0  0  0  0  0  0  0
   35.5590   23.9150   38.3540 H   0  0  0  0  0  0  0  0  0  0  0  0
   40.2960   29.7950   42.4340 Cl  0  0  0  0  0  0  0  0  0  0  0  0
   39.0940   30.7980   41.6000 C   0  0  0  0  0  0  0  0  0  0  0  0
   37.8160   30.3480   41.3420 C   0  0  0  0  0  0  0  0  0  0  0  0
   36.9290   31.1880   40.6840 C   0  0  0  0  0  0  0  0  0  0  0  0
   35.9560   30.7910   40.5100 H   0  0  0  0  0  0  0  0  0  0  0  0
   37.3760   32.4450   40.3190 C   0  0  0  0  0  0  0  0  0  0  0  0
   36.6730   33.1000   39.8030 H   0  0  0  0  0  0  0  0  0  0  0  0
   38.6510   32.8670   40.5880 C   0  0  0  0  0  3  0  0  0  0  0  0
   39.5640   32.0450   41.2480 C   0  0  0  0  0  3  0  0  0  0  0  0
  1  2  1  0  0  0  0
  2  3  2  0  0  0  0
  2  7  1  0  0  0  0
  3  4  1  0  0  0  0
  4  8  1  0  0  0  0
  4  5  2  0  0  0  0
  5  9  1  0  0  0  0
  6  5  1  0  0  0  0
  6 10  1  0  0  0  0
  7  6  2  0  0  0  0
 11 16  1  0  0  0  0
 12 13  1  0  0  0  0
 12 11  2  0  0  0  0
 13 14  2  0  0  0  0
 14 15  1  0  0  0  0
 15  3  1  0  0  0  0
 16 15  2  0  0  0  0
 17 11  1  0  0  0  0
 18 12  1  0  0  0  0
 19 13  1  0  0  0  0
 21 20  1  0  0  0  0
 22 21  1  0  0  0  0
 22  7  1  0  0  0  0
 23 22  2  0  0  0  0
 24 23  1  0  0  0  0
 25 27  2  0  0  0  0
 25 23  1  0  0  0  0
 26 25  1  0  0  0  0
 27 28  1  0  0  0  0
 28 21  2  0  0  0  0
M  END
>  <minimizedAffinity>
-5.19761801

$$$$

 OpenBabel03252505223D

 28 30  0  0  0  0  0  0  0  0999 V2000
   39.1320   27.6340   40.2980 F   0  0  0  0  0  0  0  0  0  0  0  0
   38.3860   27.7100   41.4260 C   0  0  0  0  0  0  0  0  0  0  0  0
   38.4650   28.8510   42.1890 C   0  0  0  0  0  0  0  0  0  0  0  0
   37.7040   28.9000   43.3180 C   0  0  0  0  0  0  0  0  0  0  0  0
   36.8880   27.8500   43.6800 C   0  0  0  0  0  0  0  0  0  0  0  0
   36.8000   26.7080   42.9260 C   0  0  0  0  0  0  0  0  0  0  0  0
   37.5840   26.6470   41.7560 C   0  0  0  0  0  0  0  0  0  0  0  0
   37.7370   29.7760   43.9460 H   0  0  0  0  0  0  0  0  0  0  0  0
   36.2760   27.8990   44.5950 H   0  0  0  0  0  0  0  0  0  0  0  0
   36.1620   25.8760   43.2010 H   0  0  0  0  0  0  0  0  0  0  0  0
   41.3920   31.0140   41.8940 C   0  0  0  0  0  0  0  0  0  0  0  0
   40.9450   32.0160   41.0060 C   0  0  0  0  0  0  0  0  0  0  0  0
   39.6410   31.9230   40.5270 C   0  0  0  0  0  0  0  0  0  0  0  0
   38.8660   30.8800   40.9350 N   0  0  0  0  0  0  0  0  0  0  0  0
   39.3320   29.9420   41.7860 C   0  0  0  0  0  0  0  0  0  0  0  0
   40.5890   30.0050   42.2660 N   0  0  0  0  0  0  0  0  0  0  0  0
   42.4130   31.1480   42.2260 H   0  0  0  0  0  0  0  0  0  0  0  0
   41.5510   32.8440   40.6770 H   0  0  0  0  0  0  0  0  0  0  0  0
   39.1830   32.6330   39.8390 H   0  0  0  0  0  0  0  0  0  0  0  0
   39.5340   24.6430   42.6450 Cl  0  0  0  0  0  0  0  0  0  0  0  0
   38.3610   24.4320   41.3320 C   0  0  0  0  0  0  0  0  0  0  0  0
   37.4740   25.4270   40.9740 C   0  0  0  0  0  0  0  0  0  0  0  0
   36.5840   25.1890   39.9360 C   0  0  0  0  0  0  0  0  0  0  0  0
   35.9230   25.9900   39.7000 H   0  0  0  0  0  0  0  0  0  0  0  0
   36.6320   23.9580   39.3080 C   0  0  0  0  0  0  0  0  0  0  0  0
   35.9300   23.7790   38.4940 H   0  0  0  0  0  0  0  0  0  0  0  0
   37.5230   22.9880   39.6850 C   0  0  0  0  0  3  0  0  0  0  0  0
   38.4290   23.1970   40.7230 C   0  0  0  0  0  3  0  0  0  0  0  0
  1  2  1  0  0  0  0
  2  7  2  0  0  0  0
  2  3  1  0  0  0  0
  3  4  2  0  0  0  0
  4  5  1  0  0  0  0
  4  8  1  0  0  0  0
  5  9  1  0  0  0  0
  6 10  1  0  0  0  0
  6  5  2  0  0  0  0
  7  6  1  0  0  0  0
 11 17  1  0  0  0  0
 11 16  1  0  0  0  0
 12 11  2  0  0  0  0
 13 14  2  0  0  0  0
 13 12  1  0  0  0  0
 14 15  1  0  0  0  0
 15  3  1  0  0  0  0
 15 16  2  0  0  0  0
 18 12  1  0  0  0  0
 19 13  1  0  0  0  0
 21 20  1  0  0  0  0
 22 21  1  0  0  0  0
 22  7  1  0  0  0  0
 23 22  2  0  0  0  0
 24 23  1  0  0  0  0
 25 27  2  0  0  0  0
 25 23  1  0  0  0  0
 26 25  1  0  0  0  0
 27 28  1  0  0  0  0
 28 21  2  0  0  0  0
M  END
>  <minimizedAffinity>
-5.15295124

$$$$

 OpenBabel03252505223D

 28 30  0  0  0  0  0  0  0  0999 V2000
   37.2980   27.9520   39.4970 F   0  0  0  0  0  0  0  0  0  0  0  0
   37.3380   29.2850   39.7300 C   0  0  0  0  0  0  0  0  0  0  0  0
   37.9160   29.7300   40.8960 C   0  0  0  0  0  0  0  0  0  0  0  0
   37.9420   31.0750   41.1050 C   0  0  0  0  0  0  0  0  0  0  0  0
   37.4110   31.9550   40.1850 C   0  0  0  0  0  0  0  0  0  0  0  0
   36.8330   31.5240   39.0200 C   0  0  0  0  0  0  0  0  0  0  0  0
   36.8010   30.1330   38.7940 C   0  0  0  0  0  0  0  0  0  0  0  0
   38.3850   31.4670   42.0060 H   0  0  0  0  0  0  0  0  0  0  0  0
   37.4370   33.0420   40.3640 H   0  0  0  0  0  0  0  0  0  0  0  0
   36.4130   32.2060   38.2910 H   0  0  0  0  0  0  0  0  0  0  0  0
   38.1820   27.3830   43.6800 C   0  0  0  0  0  0  0  0  0  0  0  0
   39.5390   26.9980   43.6280 C   0  0  0  0  0  0  0  0  0  0  0  0
   40.3350   27.5570   42.6310 C   0  0  0  0  0  0  0  0  0  0  0  0
   39.7700   28.4410   41.7620 N   0  0  0  0  0  0  0  0  0  0  0  0
   38.4680   28.7830   41.8470 C   0  0  0  0  0  0  0  0  0  0  0  0
   37.6730   28.2580   42.8000 N   0  0  0  0  0  0  0  0  0  0  0  0
   37.6250   26.9110   44.4780 H   0  0  0  0  0  0  0  0  0  0  0  0
   39.9940   26.2990   44.3100 H   0  0  0  0  0  0  0  0  0  0  0  0
   41.3930   27.3390   42.4880 H   0  0  0  0  0  0  0  0  0  0  0  0
   34.0780   29.1410   39.2570 Cl  0  0  0  0  0  0  0  0  0  0  0  0
   34.8970   29.2170   37.6860 C   0  0  0  0  0  0  0  0  0  0  0  0
   36.1830   29.6990   37.5520 C   0  0  0  0  0  0  0  0  0  0  0  0
   36.7590   29.7280   36.2900 C   0  0  0  0  0  0  0  0  0  0  0  0
   37.7530   30.1090   36.2430 H   0  0  0  0  0  0  0  0  0  0  0  0
   36.0090   29.2700   35.2220 C   0  0  0  0  0  0  0  0  0  0  0  0
   36.4680   29.2960   34.2340 H   0  0  0  0  0  0  0  0  0  0  0  0
   34.7330   28.7970   35.3840 C   0  0  0  0  0  3  0  0  0  0  0  0
   34.1280   28.7540   36.6390 C   0  0  0  0  0  3  0  0  0  0  0  0
  1  2  1  0  0  0  0
  2  3  1  0  0  0  0
  3  4  2  0  0  0  0
  3 15  1  0  0  0  0
  4  8  1  0  0  0  0
  5  9  1  0  0  0  0
  5  4  1  0  0  0  0
  6  5  2  0  0  0  0
  7  6  1  0  0  0  0
  7  2  2  0  0  0  0
 10  6  1  0  0  0  0
 11 17  1  0  0  0  0
 12 11  1  0  0  0  0
 12 18  1  0  0  0  0
 13 12  2  0  0  0  0
 14 15  2  0  0  0  0
 14 13  1  0  0  0  0
 15 16  1  0  0  0  0
 16 11  2  0  0  0  0
 19 13  1  0  0  0  0
 21 20  1  0  0  0  0
 22 21  1  0  0  0  0
 22  7  1  0  0  0  0
 23 22  2  0  0  0  0
 24 23  1  0  0  0  0
 25 27  2  0  0  0  0
 25 23  1  0  0  0  0
 26 25  1  0  0  0  0
 27 28  1  0  0  0  0
 28 21  2  0  0  0  0
M  END
>  <minimizedAffinity>
-5.11175919

$$$$

 OpenBabel03252505223D

 28 30  0  0  0  0  0  0  0  0999 V2000
   38.1010   27.4190   39.8170 F   0  0  0  0  0  0  0  0  0  0  0  0
   38.6010   27.2950   41.0690 C   0  0  0  0  0  0  0  0  0  0  0  0
   38.6410   28.4110   41.8730 C   0  0  0  0  0  0  0  0  0  0  0  0
   39.1480   28.2580   43.1270 C   0  0  0  0  0  0  0  0  0  0  0  0
   39.6030   27.0350   43.5730 C   0  0  0  0  0  0  0  0  0  0  0  0
   39.5670   25.9160   42.7820 C   0  0  0  0  0  0  0  0  0  0  0  0
   39.0440   26.0640   41.4810 C   0  0  0  0  0  0  0  0  0  0  0  0
   39.1990   29.1070   43.7900 H   0  0  0  0  0  0  0  0  0  0  0  0
   40.0120   26.9210   44.5900 H   0  0  0  0  0  0  0  0  0  0  0  0
   39.9220   24.9510   43.1220 H   0  0  0  0  0  0  0  0  0  0  0  0
   36.3840   31.1150   40.9110 C   0  0  0  0  0  0  0  0  0  0  0  0
   37.2730   32.1040   40.4390 C   0  0  0  0  0  0  0  0  0  0  0  0
   38.6350   31.8170   40.4630 C   0  0  0  0  0  0  0  0  0  0  0  0
   39.0400   30.6050   40.9370 N   0  0  0  0  0  0  0  0  0  0  0  0
   38.1560   29.6860   41.3790 C   0  0  0  0  0  0  0  0  0  0  0  0
   36.8320   29.9360   41.3670 N   0  0  0  0  0  0  0  0  0  0  0  0
   35.3420   31.4050   40.8620 H   0  0  0  0  0  0  0  0  0  0  0  0
   36.9620   33.0650   40.0640 H   0  0  0  0  0  0  0  0  0  0  0  0
   39.4170   32.4970   40.1280 H   0  0  0  0  0  0  0  0  0  0  0  0
   36.6790   24.4330   42.0770 Cl  0  0  0  0  0  0  0  0  0  0  0  0
   37.9310   24.0410   40.8830 C   0  0  0  0  0  0  0  0  0  0  0  0
   39.0160   24.8640   40.6610 C   0  0  0  0  0  0  0  0  0  0  0  0
   39.9550   24.4930   39.7100 C   0  0  0  0  0  0  0  0  0  0  0  0
   40.7730   25.1630   39.5800 H   0  0  0  0  0  0  0  0  0  0  0  0
   39.7550   23.3070   39.0270 C   0  0  0  0  0  0  0  0  0  0  0  0
   40.4970   23.0220   38.2820 H   0  0  0  0  0  0  0  0  0  0  0  0
   38.6670   22.5090   39.2670 C   0  0  0  0  0  3  0  0  0  0  0  0
   37.7070   22.8550   40.2170 C   0  0  0  0  0  3  0  0  0  0  0  0
  1  2  1  0  0  0  0
  2  7  2  0  0  0  0
  2  3  1  0  0  0  0
  3  4  2  0  0  0  0
  4  5  1  0  0  0  0
  4  8  1  0  0  0  0
  5  9  1  0  0  0  0
  6 10  1  0  0  0  0
  6  5  2  0  0  0  0
  7  6  1  0  0  0  0
 11 16  1  0  0  0  0
 12 13  1  0  0  0  0
 12 11  2  0  0  0  0
 13 14  2  0  0  0  0
 14 15  1  0  0  0  0
 15  3  1  0  0  0  0
 16 15  2  0  0  0  0
 17 11  1  0  0  0  0
 18 12  1  0  0  0  0
 19 13  1  0  0  0  0
 21 20  1  0  0  0  0
 22 21  1  0  0  0  0
 22  7  1  0  0  0  0
 23 22  2  0  0  0  0
 24 23  1  0  0  0  0
 25 27  2  0  0  0  0
 25 23  1  0  0  0  0
 26 25  1  0  0  0  0
 27 28  1  0  0  0  0
 28 21  2  0  0  0  0
M  END
>  <minimizedAffinity>
-5.10294294

$$$$

 OpenBabel03252505223D

 28 30  0  0  0  0  0  0  0  0999 V2000
   39.6380   30.3810   39.2960 F   0  0  0  0  0  0  0  0  0  0  0  0
   39.2000   31.6380   39.5440 C   0  0  0  0  0  0  0  0  0  0  0  0
   40.1310   32.6410   39.6860 C   0  0  0  0  0  0  0  0  0  0  0  0
   39.6640   33.8950   39.9350 C   0  0  0  0  0  0  0  0  0  0  0  0
   38.3120   34.1500   40.0400 C   0  0  0  0  0  0  0  0  0  0  0  0
   37.3750   33.1590   39.8980 C   0  0  0  0  0  0  0  0  0  0  0  0
   37.8490   31.8570   39.6410 C   0  0  0  0  0  0  0  0  0  0  0  0
   40.3590   34.7100   40.0550 H   0  0  0  0  0  0  0  0  0  0  0  0
   37.9440   35.1690   40.2410 H   0  0  0  0  0  0  0  0  0  0  0  0
   36.3120   33.3490   39.9790 H   0  0  0  0  0  0  0  0  0  0  0  0
   43.5520   31.7150   40.5640 C   0  0  0  0  0  0  0  0  0  0  0  0
   44.2200   31.7950   39.3230 C   0  0  0  0  0  0  0  0  0  0  0  0
   43.4740   32.1670   38.2080 C   0  0  0  0  0  0  0  0  0  0  0  0
   42.1480   32.4340   38.3670 N   0  0  0  0  0  0  0  0  0  0  0  0
   41.5470   32.3460   39.5720 C   0  0  0  0  0  0  0  0  0  0  0  0
   42.2430   31.9880   40.6690 N   0  0  0  0  0  0  0  0  0  0  0  0
   44.1920   31.4210   41.3860 H   0  0  0  0  0  0  0  0  0  0  0  0
   45.2680   31.5850   39.1880 H   0  0  0  0  0  0  0  0  0  0  0  0
   43.8750   32.2630   37.1990 H   0  0  0  0  0  0  0  0  0  0  0  0
   37.4400   31.1720   36.8180 Cl  0  0  0  0  0  0  0  0  0  0  0  0
   36.5860   30.4450   38.1920 C   0  0  0  0  0  0  0  0  0  0  0  0
   36.8370   30.8240   39.4950 C   0  0  0  0  0  0  0  0  0  0  0  0
   36.1310   30.2110   40.5190 C   0  0  0  0  0  0  0  0  0  0  0  0
   36.3630   30.5400   41.5050 H   0  0  0  0  0  0  0  0  0  0  0  0
   35.2020   29.2430   40.1790 C   0  0  0  0  0  0  0  0  0  0  0  0
   34.6510   28.7660   40.9890 H   0  0  0  0  0  0  0  0  0  0  0  0
   34.9730   28.8870   38.8770 C   0  0  0  0  0  3  0  0  0  0  0  0
   35.6670   29.4850   37.8260 C   0  0  0  0  0  3  0  0  0  0  0  0
  1  2  1  0  0  0  0
  2  7  2  0  0  0  0
  2  3  1  0  0  0  0
  3  4  2  0  0  0  0
  4  5  1  0  0  0  0
  4  8  1  0  0  0  0
  5  9  1  0  0  0  0
  6 10  1  0  0  0  0
  6  5  2  0  0  0  0
  7  6  1  0  0  0  0
 11 16  1  0  0  0  0
 11 17  1  0  0  0  0
 12 11  2  0  0  0  0
 13 14  2  0  0  0  0
 13 12  1  0  0  0  0
 14 15  1  0  0  0  0
 15  3  1  0  0  0  0
 15 16  2  0  0  0  0
 18 12  1  0  0  0  0
 19 13  1  0  0  0  0
 20 21  1  0  0  0  0
 21 22  1  0  0  0  0
 22  7  1  0  0  0  0
 22 23  2  0  0  0  0
 23 24  1  0  0  0  0
 25 23  1  0  0  0  0
 25 26  1  0  0  0  0
 27 25  2  0  0  0  0
 28 21  2  0  0  0  0
 28 27  1  0  0  0  0
M  END
>  <minimizedAffinity>
-5.07495975

$$$$
