
 OpenBabel03252508143D

 37 40  0  0  1  0  0  0  0  0999 V2000
   46.0250   33.0960   45.9170 C   0  0  0  0  0  3  0  0  0  0  0  0
   46.9010   32.2150   45.6260 C   0  0  0  0  0  3  0  0  0  0  0  0
   44.6400   36.0860   44.2760 C   0  0  0  0  0  0  0  0  0  0  0  0
   45.1110   35.9630   42.9550 C   0  0  0  0  0  0  0  0  0  0  0  0
   45.8930   34.8820   42.6790 C   0  0  0  0  0  0  0  0  0  0  0  0
   46.1370   34.0320   43.6990 N   0  0  0  0  0  0  0  0  0  0  0  0
   45.7030   34.1310   44.9420 C   0  0  0  0  0  0  0  0  0  0  0  0
   44.9510   35.1750   45.2120 N   0  0  0  0  0  0  0  0  0  0  0  0
   44.0120   36.9420   44.5350 H   0  0  0  0  0  0  0  0  0  0  0  0
   44.8600   36.6670   42.2050 H   0  0  0  0  0  0  0  0  0  0  0  0
   48.7900   35.7730   41.8450 Cl  0  0  0  0  0  0  0  0  0  0  0  0
   47.7020   34.8120   40.8870 C   0  0  0  0  0  0  0  0  0  0  0  0
   46.4780   34.5180   41.4190 C   0  0  0  0  0  0  0  0  0  0  0  0
   45.7450   33.7110   40.5430 C   0  0  0  0  0  0  0  0  0  0  0  0
   44.7400   33.3690   40.7910 H   0  0  0  0  0  0  0  0  0  0  0  0
   46.1830   33.2700   39.3160 C   0  0  0  0  0  0  0  0  0  0  0  0
   45.5800   32.6570   38.6860 H   0  0  0  0  0  0  0  0  0  0  0  0
   47.4340   33.6230   38.8680 C   0  0  0  0  0  3  0  0  0  0  0  0
   48.2050   34.4160   39.6840 C   0  0  0  0  0  3  0  0  0  0  0  0
   47.1520   31.1690   46.7060 C   0  0  0  0  0  0  0  0  0  0  0  0
   46.6080   30.2430   46.4780 H   0  0  0  0  0  0  0  0  0  0  0  0
   48.2420   30.9450   46.6850 H   0  0  0  0  0  0  0  0  0  0  0  0
   46.7890   31.7380   48.0540 C   0  0  1  0  0  0  0  0  0  0  0  0
   46.2110   30.7870   49.0450 C   0  0  0  0  0  0  0  0  0  0  0  0
   47.5480   31.3090   49.2520 C   0  0  1  0  0  0  0  0  0  0  0  0
   46.3610   32.7610   48.0610 H   0  0  0  0  0  0  0  0  0  0  0  0
   46.0690   29.7220   48.7180 H   0  0  0  0  0  0  0  0  0  0  0  0
   45.3840   31.1220   49.7140 H   0  0  0  0  0  0  0  0  0  0  0  0
   47.6450   32.1040   50.0540 H   0  0  0  0  0  0  0  0  0  0  0  0
   48.7970   30.5450   49.0530 C   0  0  0  0  0  0  0  0  0  0  0  0
   49.5840   30.2760   50.3660 C   0  0  0  0  0  0  0  0  0  0  0  0
   50.1090   31.2920   49.4070 C   0  0  0  0  0  0  0  0  0  0  0  0
   48.8780   29.7520   48.2910 H   0  0  0  0  0  0  0  0  0  0  0  0
   50.0420   29.2870   50.4590 H   0  0  0  0  0  0  0  0  0  0  0  0
   49.1440   30.6430   51.3100 H   0  0  0  0  0  0  0  0  0  0  0  0
   49.9870   32.3510   49.7100 H   0  0  0  0  0  0  0  0  0  0  0  0
   51.0300   30.9930   48.8970 H   0  0  0  0  0  0  0  0  0  0  0  0
  2  1  2  0  0  0  0
  2 20  1  0  0  0  0
  3  9  1  0  0  0  0
  3  8  1  0  0  0  0
  4  3  2  0  0  0  0
  5  4  1  0  0  0  0
  5  6  2  0  0  0  0
  6  7  1  0  0  0  0
  7  8  2  0  0  0  0
  7  1  1  0  0  0  0
 10  4  1  0  0  0  0
 12 13  1  0  0  0  0
 12 11  1  0  0  0  0
 13  5  1  0  0  0  0
 14 15  1  0  0  0  0
 14 13  2  0  0  0  0
 16 14  1  0  0  0  0
 17 16  1  0  0  0  0
 18 16  2  0  0  0  0
 18 19  1  0  0  0  0
 19 12  2  0  0  0  0
 20 23  1  0  0  0  0
 21 20  1  0  0  0  0
 22 20  1  0  0  0  0
 23 26  1  1  0  0  0
 23 24  1  0  0  0  0
 23 25  1  0  0  0  0
 24 25  1  0  0  0  0
 24 28  1  0  0  0  0
 25 29  1  1  0  0  0
 27 24  1  0  0  0  0
 30 25  1  0  0  0  0
 30 32  1  0  0  0  0
 30 31  1  0  0  0  0
 31 34  1  0  0  0  0
 31 35  1  0  0  0  0
 32 36  1  0  0  0  0
 32 31  1  0  0  0  0
 33 30  1  0  0  0  0
 37 32  1  0  0  0  0
M  END
>  <minimizedAffinity>
-6.28780937

>  <minimizedRMSD>
0.673301458

$$$$
