
 OpenBabel03252501183D

 21 22  0  0  0  0  0  0  0  0999 V2000
   45.2080   35.7750   42.8130 C   0  0  0  0  0  0  0  0  0  0  0  0
   46.0760   34.6630   42.7750 C   0  0  0  0  0  0  0  0  0  0  0  0
   46.2650   33.9480   43.9620 C   0  0  0  0  0  0  0  0  0  0  0  0
   45.6070   34.3670   45.0670 N   0  0  0  0  0  0  0  0  0  0  0  0
   44.7820   35.4340   45.0760 C   0  0  0  0  0  0  0  0  0  0  0  0
   44.5880   36.1290   43.9560 N   0  0  0  0  0  0  0  0  0  0  0  0
   44.9990   36.3850   41.9530 H   0  0  0  0  0  0  0  0  0  0  0  0
   44.3260   35.6460   46.0360 H   0  0  0  0  0  0  0  0  0  0  0  0
   48.7950   35.8550   41.9840 Cl  0  0  0  0  0  0  0  0  0  0  0  0
   47.8480   34.8450   40.9140 C   0  0  0  0  0  0  0  0  0  0  0  0
   46.6660   34.4290   41.4640 C   0  0  0  0  0  0  0  0  0  0  0  0
   45.8100   33.6210   40.7070 C   0  0  0  0  0  0  0  0  0  0  0  0
   44.8350   33.2080   41.0020 H   0  0  0  0  0  0  0  0  0  0  0  0
   46.1370   33.2310   39.4050 C   0  0  0  0  0  0  0  0  0  0  0  0
   45.5290   32.6200   38.7810 H   0  0  0  0  0  0  0  0  0  0  0  0
   47.3380   33.6700   38.8840 C   0  0  0  0  0  0  0  0  0  0  0  0
   48.1780   34.4660   39.6310 C   0  0  0  0  0  0  0  0  0  0  0  0
   47.1730   32.8140   43.8500 C   0  0  0  0  0  0  0  0  0  0  0  0
   47.2840   32.2170   45.1120 F   0  0  0  0  0  0  0  0  0  0  0  0
   48.4280   33.3150   43.5960 F   0  0  0  0  0  0  0  0  0  0  0  0
   46.7870   31.8580   42.9790 F   0  0  0  0  0  0  0  0  0  0  0  0
  1  6  1  0  0  0  0
  2  1  2  0  0  0  0
  2  3  1  0  0  0  0
  3  4  2  0  0  0  0
  4  5  1  0  0  0  0
  5  8  1  0  0  0  0
  6  5  2  0  0  0  0
  7  1  1  0  0  0  0
 10 11  1  0  0  0  0
 10  9  1  0  0  0  0
 11  2  1  0  0  0  0
 12 13  1  0  0  0  0
 12 11  2  0  0  0  0
 14 12  1  0  0  0  0
 15 14  1  0  0  0  0
 16 14  2  0  0  0  0
 16 17  1  0  0  0  0
 17 10  2  0  0  0  0
 18  3  1  0  0  0  0
 18 19  1  0  0  0  0
 20 18  1  0  0  0  0
 21 18  1  0  0  0  0
M  END
>  <minimizedAffinity>
-5.12316751

>  <minimizedRMSD>
3.49791694

$$$$
