
 OpenBabel03242520433D

 39 42  0  0  1  0  0  0  0  0999 V2000
   38.4420   28.0990   36.6030 C   0  0  0  0  0  0  0  0  0  0  0  0
   37.2840   28.1100   35.7950 C   0  0  0  0  0  0  0  0  0  0  0  0
   36.4890   29.2960   35.7890 C   0  0  0  0  0  0  0  0  0  0  0  0
   36.8860   30.3550   36.5610 N   0  0  0  0  0  0  0  0  0  0  0  0
   38.0020   30.2840   37.3110 C   0  0  0  0  0  0  0  0  0  0  0  0
   38.7640   29.1630   37.3240 N   0  0  0  0  0  0  0  0  0  0  0  0
   38.3300   31.4140   38.0670 N   0  0  0  0  0  0  0  0  0  0  0  0
   37.4270   31.9180   39.0490 C   0  0  2  0  0  0  0  0  0  0  0  0
   37.7660   33.2660   39.5830 C   0  0  0  0  0  0  0  0  0  0  0  0
   39.1400   33.6050   39.6310 N   0  0  0  0  0  0  0  0  0  0  0  0
   40.0240   32.5830   39.2060 C   0  0  0  0  0  0  0  0  0  0  0  0
   39.5940   32.0830   37.8590 C   0  0  0  0  0  0  0  0  0  0  0  0
   39.0850   27.2320   36.6500 H   0  0  0  0  0  0  0  0  0  0  0  0
   37.0270   27.2530   35.2150 H   0  0  0  0  0  0  0  0  0  0  0  0
   35.6040   29.3200   35.1790 H   0  0  0  0  0  0  0  0  0  0  0  0
   36.4490   32.0770   38.4970 H   0  0  0  0  0  0  0  0  0  0  0  0
   37.2490   34.0780   39.0340 H   0  0  0  0  0  0  0  0  0  0  0  0
   37.3320   33.3200   40.6250 H   0  0  0  0  0  0  0  0  0  0  0  0
   39.3840   34.5630   39.3340 H   0  0  0  0  0  0  0  0  0  0  0  0
   40.2020   31.7790   39.9110 H   0  0  0  0  0  0  0  0  0  0  0  0
   41.0310   33.0690   39.0290 H   0  0  0  0  0  0  0  0  0  0  0  0
   40.3270   31.2780   37.5660 H   0  0  0  0  0  0  0  0  0  0  0  0
   39.5550   32.8750   37.1140 H   0  0  0  0  0  0  0  0  0  0  0  0
   37.1530   30.9220   40.1170 C   0  0  0  0  0  0  0  0  0  0  0  0
   36.0940   30.7470   40.9790 C   0  0  0  0  0  0  0  0  0  0  0  0
   36.2670   29.6980   41.7820 N   0  0  0  0  0  0  0  0  0  0  0  0
   37.4560   29.1870   41.4340 C   0  0  0  0  0  0  0  0  0  0  0  0
   37.9830   29.9140   40.4430 N   0  0  0  0  0  0  0  0  0  0  0  0
   35.2240   31.3870   41.0060 H   0  0  0  0  0  0  0  0  0  0  0  0
   35.6200   29.3480   42.5240 H   0  0  0  0  0  0  0  0  0  0  0  0
   36.8360   26.5580   40.1840 Cl  0  0  0  0  0  0  0  0  0  0  0  0
   37.9500   26.7270   41.5440 C   0  0  0  0  0  0  0  0  0  0  0  0
   38.1280   28.0170   42.0070 C   0  0  0  0  0  0  0  0  0  0  0  0
   38.9980   28.2120   43.0800 C   0  0  0  0  0  0  0  0  0  0  0  0
   39.1450   29.2190   43.4500 H   0  0  0  0  0  0  0  0  0  0  0  0
   39.6720   27.1650   43.6800 C   0  0  0  0  0  0  0  0  0  0  0  0
   40.3460   27.3280   44.5140 H   0  0  0  0  0  0  0  0  0  0  0  0
   39.4500   25.8980   43.1690 C   0  0  0  0  0  3  0  0  0  0  0  0
   38.6010   25.6490   42.1100 C   0  0  0  0  0  3  0  0  0  0  0  0
  1 13  1  0  0  0  0
  1  6  1  0  0  0  0
  2  1  2  0  0  0  0
  3  2  1  0  0  0  0
  3  4  2  0  0  0  0
  4  5  1  0  0  0  0
  5  6  2  0  0  0  0
  5  7  1  0  0  0  0
  7  8  1  0  0  0  0
  8 16  1  6  0  0  0
  8  9  1  0  0  0  0
  8 24  1  0  0  0  0
  9 10  1  0  0  0  0
  9 18  1  0  0  0  0
 11 10  1  0  0  0  0
 11 20  1  0  0  0  0
 12  7  1  0  0  0  0
 12 11  1  0  0  0  0
 14  2  1  0  0  0  0
 15  3  1  0  0  0  0
 17  9  1  0  0  0  0
 19 10  1  0  0  0  0
 21 11  1  0  0  0  0
 22 12  1  0  0  0  0
 23 12  1  0  0  0  0
 24 28  1  0  0  0  0
 24 25  2  0  0  0  0
 25 29  1  0  0  0  0
 25 26  1  0  0  0  0
 26 30  1  0  0  0  0
 27 26  1  0  0  0  0
 27 33  1  0  0  0  0
 28 27  2  0  0  0  0
 31 32  1  0  0  0  0
 32 33  2  0  0  0  0
 32 39  1  0  0  0  0
 33 34  1  0  0  0  0
 34 35  1  0  0  0  0
 34 36  2  0  0  0  0
 36 37  1  0  0  0  0
 38 36  1  0  0  0  0
 39 38  2  0  0  0  0
M  END
>  <minimizedAffinity>
-6.30874777

$$$$

 OpenBabel03242520433D

 39 42  0  0  1  0  0  0  0  0999 V2000
   41.7730   29.7090   41.4050 C   0  0  0  0  0  0  0  0  0  0  0  0
   42.2750   29.0150   40.2820 C   0  0  0  0  0  0  0  0  0  0  0  0
   41.7430   29.3500   39.0010 C   0  0  0  0  0  0  0  0  0  0  0  0
   40.7800   30.3190   38.9240 N   0  0  0  0  0  0  0  0  0  0  0  0
   40.3400   30.9460   40.0320 C   0  0  0  0  0  0  0  0  0  0  0  0
   40.8380   30.6360   41.2530 N   0  0  0  0  0  0  0  0  0  0  0  0
   39.3540   31.9220   39.8570 N   0  0  0  0  0  0  0  0  0  0  0  0
   38.0980   31.5900   39.2700 C   0  0  2  0  0  0  0  0  0  0  0  0
   37.2510   32.7550   38.8920 C   0  0  0  0  0  0  0  0  0  0  0  0
   37.3880   33.9240   39.6790 N   0  0  0  0  0  0  0  0  0  0  0  0
   38.2860   33.8110   40.7680 C   0  0  0  0  0  0  0  0  0  0  0  0
   39.6010   33.2840   40.2750 C   0  0  0  0  0  0  0  0  0  0  0  0
   42.1350   29.5010   42.4010 H   0  0  0  0  0  0  0  0  0  0  0  0
   43.0280   28.2690   40.4070 H   0  0  0  0  0  0  0  0  0  0  0  0
   42.1160   28.8300   38.1360 H   0  0  0  0  0  0  0  0  0  0  0  0
   38.3550   31.1020   38.2790 H   0  0  0  0  0  0  0  0  0  0  0  0
   37.3980   33.0560   37.8350 H   0  0  0  0  0  0  0  0  0  0  0  0
   36.1790   32.4030   38.9300 H   0  0  0  0  0  0  0  0  0  0  0  0
   37.4140   34.8200   39.1660 H   0  0  0  0  0  0  0  0  0  0  0  0
   37.9220   33.2730   41.6370 H   0  0  0  0  0  0  0  0  0  0  0  0
   38.5080   34.8620   41.1250 H   0  0  0  0  0  0  0  0  0  0  0  0
   40.2780   33.2160   41.1740 H   0  0  0  0  0  0  0  0  0  0  0  0
   40.0350   33.9100   39.4980 H   0  0  0  0  0  0  0  0  0  0  0  0
   37.3630   30.5720   40.0650 C   0  0  0  0  0  0  0  0  0  0  0  0
   36.3240   30.6630   40.9630 C   0  0  0  0  0  0  0  0  0  0  0  0
   35.9660   29.4720   41.4410 N   0  0  0  0  0  0  0  0  0  0  0  0
   36.7860   28.5970   40.8430 C   0  0  0  0  0  0  0  0  0  0  0  0
   37.6170   29.2520   40.0240 N   0  0  0  0  0  0  0  0  0  0  0  0
   35.8540   31.5920   41.2520 H   0  0  0  0  0  0  0  0  0  0  0  0
   35.2110   29.2620   42.1330 H   0  0  0  0  0  0  0  0  0  0  0  0
   37.4290   27.5970   43.5710 Cl  0  0  0  0  0  0  0  0  0  0  0  0
   37.1010   26.5170   42.2130 C   0  0  0  0  0  0  0  0  0  0  0  0
   36.8190   27.1420   41.0130 C   0  0  0  0  0  0  0  0  0  0  0  0
   36.5510   26.3380   39.9050 C   0  0  0  0  0  0  0  0  0  0  0  0
   36.3290   26.8190   38.9600 H   0  0  0  0  0  0  0  0  0  0  0  0
   36.5610   24.9590   39.9770 C   0  0  0  0  0  0  0  0  0  0  0  0
   36.3520   24.3430   39.1080 H   0  0  0  0  0  0  0  0  0  0  0  0
   36.8510   24.3950   41.2080 C   0  0  0  0  0  3  0  0  0  0  0  0
   37.1230   25.1420   42.3350 C   0  0  0  0  0  3  0  0  0  0  0  0
  1 13  1  0  0  0  0
  2 14  1  0  0  0  0
  2  1  2  0  0  0  0
  3  2  1  0  0  0  0
  4  3  2  0  0  0  0
  4  5  1  0  0  0  0
  5  6  2  0  0  0  0
  6  1  1  0  0  0  0
  7  5  1  0  0  0  0
  7 12  1  0  0  0  0
  8 16  1  6  0  0  0
  8  7  1  0  0  0  0
  8 24  1  0  0  0  0
  9 18  1  0  0  0  0
  9  8  1  0  0  0  0
  9 10  1  0  0  0  0
 10 11  1  0  0  0  0
 11 21  1  0  0  0  0
 11 20  1  0  0  0  0
 12 11  1  0  0  0  0
 12 22  1  0  0  0  0
 15  3  1  0  0  0  0
 17  9  1  0  0  0  0
 19 10  1  0  0  0  0
 23 12  1  0  0  0  0
 24 25  2  0  0  0  0
 25 29  1  0  0  0  0
 25 26  1  0  0  0  0
 26 30  1  0  0  0  0
 27 33  1  0  0  0  0
 27 26  1  0  0  0  0
 28 24  1  0  0  0  0
 28 27  2  0  0  0  0
 32 39  1  0  0  0  0
 32 31  1  0  0  0  0
 33 32  2  0  0  0  0
 34 36  2  0  0  0  0
 34 33  1  0  0  0  0
 35 34  1  0  0  0  0
 36 38  1  0  0  0  0
 37 36  1  0  0  0  0
 38 39  2  0  0  0  0
M  END
>  <minimizedAffinity>
-6.2082057

$$$$

 OpenBabel03242520433D

 39 42  0  0  1  0  0  0  0  0999 V2000
   38.2220   27.7380   36.2780 C   0  0  0  0  0  0  0  0  0  0  0  0
   37.0630   27.6820   35.4740 C   0  0  0  0  0  0  0  0  0  0  0  0
   36.1990   28.8190   35.4750 C   0  0  0  0  0  0  0  0  0  0  0  0
   36.5350   29.8970   36.2480 N   0  0  0  0  0  0  0  0  0  0  0  0
   37.6560   29.8900   36.9950 C   0  0  0  0  0  0  0  0  0  0  0  0
   38.4830   28.8170   37.0020 N   0  0  0  0  0  0  0  0  0  0  0  0
   37.9180   31.0350   37.7530 N   0  0  0  0  0  0  0  0  0  0  0  0
   36.9910   31.4820   38.7400 C   0  0  2  0  0  0  0  0  0  0  0  0
   37.2510   32.8460   39.2770 C   0  0  0  0  0  0  0  0  0  0  0  0
   38.6030   33.2660   39.3220 N   0  0  0  0  0  0  0  0  0  0  0  0
   39.5440   32.3000   38.8910 C   0  0  0  0  0  0  0  0  0  0  0  0
   39.1400   31.7780   37.5440 C   0  0  0  0  0  0  0  0  0  0  0  0
   38.9160   26.9100   36.3210 H   0  0  0  0  0  0  0  0  0  0  0  0
   36.8560   26.8130   34.8920 H   0  0  0  0  0  0  0  0  0  0  0  0
   35.3120   28.7920   34.8670 H   0  0  0  0  0  0  0  0  0  0  0  0
   36.0030   31.5850   38.1910 H   0  0  0  0  0  0  0  0  0  0  0  0
   36.6850   33.6280   38.7320 H   0  0  0  0  0  0  0  0  0  0  0  0
   36.8180   32.8710   40.3200 H   0  0  0  0  0  0  0  0  0  0  0  0
   38.7890   34.2380   39.0270 H   0  0  0  0  0  0  0  0  0  0  0  0
   39.7720   31.5050   39.5930 H   0  0  0  0  0  0  0  0  0  0  0  0
   40.5200   32.8450   38.7130 H   0  0  0  0  0  0  0  0  0  0  0  0
   39.9190   31.0200   37.2460 H   0  0  0  0  0  0  0  0  0  0  0  0
   39.0520   32.5690   36.8020 H   0  0  0  0  0  0  0  0  0  0  0  0
   36.7790   30.4690   39.8050 C   0  0  0  0  0  0  0  0  0  0  0  0
   35.6610   30.0610   40.4970 C   0  0  0  0  0  0  0  0  0  0  0  0
   35.9350   29.0980   41.3750 N   0  0  0  0  0  0  0  0  0  0  0  0
   37.2510   28.8790   41.2510 C   0  0  0  0  0  0  0  0  0  0  0  0
   37.7530   29.6940   40.3160 N   0  0  0  0  0  0  0  0  0  0  0  0
   34.6740   30.4750   40.3480 H   0  0  0  0  0  0  0  0  0  0  0  0
   35.2710   28.6170   42.0230 H   0  0  0  0  0  0  0  0  0  0  0  0
   39.2690   30.0120   43.1220 Cl  0  0  0  0  0  0  0  0  0  0  0  0
   39.0500   28.2730   42.8940 C   0  0  0  0  0  0  0  0  0  0  0  0
   38.0700   27.9140   41.9890 C   0  0  0  0  0  0  0  0  0  0  0  0
   37.8520   26.5530   41.7690 C   0  0  0  0  0  0  0  0  0  0  0  0
   37.0860   26.2610   41.0610 H   0  0  0  0  0  0  0  0  0  0  0  0
   38.5790   25.5770   42.4220 C   0  0  0  0  0  0  0  0  0  0  0  0
   38.4010   24.5210   42.2430 H   0  0  0  0  0  0  0  0  0  0  0  0
   39.5460   26.0040   43.3160 C   0  0  0  0  0  3  0  0  0  0  0  0
   39.8020   27.3350   43.5720 C   0  0  0  0  0  3  0  0  0  0  0  0
  1 13  1  0  0  0  0
  1  6  1  0  0  0  0
  2  3  1  0  0  0  0
  2  1  2  0  0  0  0
  3  4  2  0  0  0  0
  4  5  1  0  0  0  0
  5  6  2  0  0  0  0
  5  7  1  0  0  0  0
  7  8  1  0  0  0  0
  8 16  1  6  0  0  0
  8  9  1  0  0  0  0
  8 24  1  0  0  0  0
  9 10  1  0  0  0  0
  9 18  1  0  0  0  0
 11 10  1  0  0  0  0
 11 20  1  0  0  0  0
 12  7  1  0  0  0  0
 12 11  1  0  0  0  0
 14  2  1  0  0  0  0
 15  3  1  0  0  0  0
 17  9  1  0  0  0  0
 19 10  1  0  0  0  0
 21 11  1  0  0  0  0
 22 12  1  0  0  0  0
 23 12  1  0  0  0  0
 24 28  1  0  0  0  0
 24 25  2  0  0  0  0
 25 26  1  0  0  0  0
 26 30  1  0  0  0  0
 27 26  1  0  0  0  0
 27 33  1  0  0  0  0
 28 27  2  0  0  0  0
 29 25  1  0  0  0  0
 32 31  1  0  0  0  0
 32 39  1  0  0  0  0
 33 32  2  0  0  0  0
 34 33  1  0  0  0  0
 34 36  2  0  0  0  0
 35 34  1  0  0  0  0
 36 38  1  0  0  0  0
 37 36  1  0  0  0  0
 38 39  2  0  0  0  0
M  END
>  <minimizedAffinity>
-6.14504194

$$$$

 OpenBabel03242520433D

 39 42  0  0  1  0  0  0  0  0999 V2000
   42.9180   30.5940   39.2890 C   0  0  0  0  0  0  0  0  0  0  0  0
   42.9070   29.8620   38.0820 C   0  0  0  0  0  0  0  0  0  0  0  0
   41.6990   29.8520   37.3220 C   0  0  0  0  0  0  0  0  0  0  0  0
   40.6190   30.5470   37.7970 N   0  0  0  0  0  0  0  0  0  0  0  0
   40.6910   31.2270   38.9580 C   0  0  0  0  0  0  0  0  0  0  0  0
   41.8340   31.2430   39.6870 N   0  0  0  0  0  0  0  0  0  0  0  0
   39.5400   31.9080   39.3650 N   0  0  0  0  0  0  0  0  0  0  0  0
   38.3210   31.2030   39.5900 C   0  0  2  0  0  0  0  0  0  0  0  0
   37.1160   32.0640   39.7500 C   0  0  0  0  0  0  0  0  0  0  0  0
   37.3190   33.3450   40.3180 N   0  0  0  0  0  0  0  0  0  0  0  0
   38.6520   33.6210   40.7120 C   0  0  0  0  0  0  0  0  0  0  0  0
   39.5770   33.3390   39.5650 C   0  0  0  0  0  0  0  0  0  0  0  0
   43.8020   30.6410   39.9090 H   0  0  0  0  0  0  0  0  0  0  0  0
   43.7810   29.3410   37.7630 H   0  0  0  0  0  0  0  0  0  0  0  0
   41.6740   29.2990   36.4000 H   0  0  0  0  0  0  0  0  0  0  0  0
   38.1280   30.6330   38.6280 H   0  0  0  0  0  0  0  0  0  0  0  0
   36.5770   32.2140   38.7930 H   0  0  0  0  0  0  0  0  0  0  0  0
   36.3860   31.4840   40.3870 H   0  0  0  0  0  0  0  0  0  0  0  0
   36.8100   34.1260   39.8760 H   0  0  0  0  0  0  0  0  0  0  0  0
   38.9840   33.1620   41.6360 H   0  0  0  0  0  0  0  0  0  0  0  0
   38.7230   34.7380   40.8770 H   0  0  0  0  0  0  0  0  0  0  0  0
   40.6180   33.5760   39.9260 H   0  0  0  0  0  0  0  0  0  0  0  0
   39.3240   33.9130   38.6760 H   0  0  0  0  0  0  0  0  0  0  0  0
   38.4550   30.1870   40.6650 C   0  0  0  0  0  0  0  0  0  0  0  0
   38.7290   30.2830   42.0110 C   0  0  0  0  0  0  0  0  0  0  0  0
   38.7450   29.0920   42.6080 N   0  0  0  0  0  0  0  0  0  0  0  0
   38.4770   28.2120   41.6340 C   0  0  0  0  0  0  0  0  0  0  0  0
   38.3030   28.8630   40.4780 N   0  0  0  0  0  0  0  0  0  0  0  0
   38.9140   31.2150   42.5250 H   0  0  0  0  0  0  0  0  0  0  0  0
   38.9270   28.8860   43.6160 H   0  0  0  0  0  0  0  0  0  0  0  0
   41.0020   26.6740   41.2960 Cl  0  0  0  0  0  0  0  0  0  0  0  0
   39.4490   25.8970   41.6190 C   0  0  0  0  0  0  0  0  0  0  0  0
   38.3730   26.7540   41.7500 C   0  0  0  0  0  0  0  0  0  0  0  0
   37.1210   26.1970   42.0060 C   0  0  0  0  0  0  0  0  0  0  0  0
   36.2710   26.8600   42.1110 H   0  0  0  0  0  0  0  0  0  0  0  0
   36.9340   24.8330   42.1300 C   0  0  0  0  0  0  0  0  0  0  0  0
   35.9550   24.4100   42.3300 H   0  0  0  0  0  0  0  0  0  0  0  0
   38.0520   24.0300   41.9890 C   0  0  0  0  0  3  0  0  0  0  0  0
   39.3130   24.5280   41.7350 C   0  0  0  0  0  3  0  0  0  0  0  0
  1  6  1  0  0  0  0
  1 13  1  0  0  0  0
  2  1  2  0  0  0  0
  3  4  2  0  0  0  0
  3  2  1  0  0  0  0
  4  5  1  0  0  0  0
  5  7  1  0  0  0  0
  5  6  2  0  0  0  0
  7 12  1  0  0  0  0
  7  8  1  0  0  0  0
  8 16  1  6  0  0  0
  8  9  1  0  0  0  0
  8 24  1  0  0  0  0
  9 10  1  0  0  0  0
  9 18  1  0  0  0  0
 10 11  1  0  0  0  0
 11 21  1  0  0  0  0
 11 20  1  0  0  0  0
 12 22  1  0  0  0  0
 12 11  1  0  0  0  0
 14  2  1  0  0  0  0
 15  3  1  0  0  0  0
 17  9  1  0  0  0  0
 19 10  1  0  0  0  0
 23 12  1  0  0  0  0
 24 25  2  0  0  0  0
 25 29  1  0  0  0  0
 25 26  1  0  0  0  0
 26 30  1  0  0  0  0
 27 33  1  0  0  0  0
 27 26  1  0  0  0  0
 28 24  1  0  0  0  0
 28 27  2  0  0  0  0
 31 32  1  0  0  0  0
 32 39  2  0  0  0  0
 32 33  1  0  0  0  0
 33 34  2  0  0  0  0
 34 35  1  0  0  0  0
 34 36  1  0  0  0  0
 36 37  1  0  0  0  0
 38 36  2  0  0  0  0
 39 38  1  0  0  0  0
M  END
>  <minimizedAffinity>
-5.87403774

$$$$

 OpenBabel03242520433D

 39 42  0  0  1  0  0  0  0  0999 V2000
   39.5560   25.0880   40.7330 C   0  0  0  0  0  0  0  0  0  0  0  0
   39.0530   24.2220   41.7280 C   0  0  0  0  0  0  0  0  0  0  0  0
   37.7050   24.4130   42.1560 C   0  0  0  0  0  0  0  0  0  0  0  0
   36.9720   25.4190   41.5850 N   0  0  0  0  0  0  0  0  0  0  0  0
   37.5080   26.2140   40.6400 C   0  0  0  0  0  0  0  0  0  0  0  0
   38.7870   26.0410   40.2260 N   0  0  0  0  0  0  0  0  0  0  0  0
   36.6860   27.2150   40.1140 N   0  0  0  0  0  0  0  0  0  0  0  0
   36.1260   28.2160   40.9610 C   0  0  2  0  0  0  0  0  0  0  0  0
   35.0620   29.0480   40.3350 C   0  0  0  0  0  0  0  0  0  0  0  0
   35.1600   29.2640   38.9390 N   0  0  0  0  0  0  0  0  0  0  0  0
   36.3030   28.6940   38.3240 C   0  0  0  0  0  0  0  0  0  0  0  0
   36.3960   27.2450   38.6980 C   0  0  0  0  0  0  0  0  0  0  0  0
   40.5680   24.9950   40.3660 H   0  0  0  0  0  0  0  0  0  0  0  0
   39.6740   23.4550   42.1340 H   0  0  0  0  0  0  0  0  0  0  0  0
   37.3070   23.7610   42.9130 H   0  0  0  0  0  0  0  0  0  0  0  0
   35.5840   27.6420   41.7770 H   0  0  0  0  0  0  0  0  0  0  0  0
   34.0460   28.6500   40.5310 H   0  0  0  0  0  0  0  0  0  0  0  0
   35.0730   30.0430   40.8680 H   0  0  0  0  0  0  0  0  0  0  0  0
   34.2810   29.1970   38.4030 H   0  0  0  0  0  0  0  0  0  0  0  0
   37.2390   29.2220   38.4690 H   0  0  0  0  0  0  0  0  0  0  0  0
   36.1140   28.6980   37.2090 H   0  0  0  0  0  0  0  0  0  0  0  0
   37.3140   26.8390   38.1840 H   0  0  0  0  0  0  0  0  0  0  0  0
   35.5050   26.6860   38.4190 H   0  0  0  0  0  0  0  0  0  0  0  0
   37.1730   29.0240   41.6360 C   0  0  0  0  0  0  0  0  0  0  0  0
   37.6180   29.0750   42.9380 C   0  0  0  0  0  0  0  0  0  0  0  0
   38.6020   29.9580   43.1000 N   0  0  0  0  0  0  0  0  0  0  0  0
   38.7990   30.4860   41.8830 C   0  0  0  0  0  0  0  0  0  0  0  0
   37.9490   29.9300   41.0130 N   0  0  0  0  0  0  0  0  0  0  0  0
   37.2140   28.4730   43.7380 H   0  0  0  0  0  0  0  0  0  0  0  0
   39.1130   30.1910   43.9810 H   0  0  0  0  0  0  0  0  0  0  0  0
   37.7350   32.8370   40.4020 Cl  0  0  0  0  0  0  0  0  0  0  0  0
   39.4450   32.6620   40.8100 C   0  0  0  0  0  0  0  0  0  0  0  0
   39.7730   31.5110   41.5010 C   0  0  0  0  0  0  0  0  0  0  0  0
   41.1100   31.3190   41.8510 C   0  0  0  0  0  0  0  0  0  0  0  0
   41.3780   30.4200   42.3920 H   0  0  0  0  0  0  0  0  0  0  0  0
   42.0930   32.2350   41.5290 C   0  0  0  0  0  0  0  0  0  0  0  0
   43.1300   32.0750   41.8060 H   0  0  0  0  0  0  0  0  0  0  0  0
   41.6980   33.3660   40.8370 C   0  0  0  0  0  3  0  0  0  0  0  0
   40.3910   33.6060   40.4660 C   0  0  0  0  0  3  0  0  0  0  0  0
  1  2  1  0  0  0  0
  2 14  1  0  0  0  0
  2  3  2  0  0  0  0
  3 15  1  0  0  0  0
  4  3  1  0  0  0  0
  5  4  2  0  0  0  0
  6  5  1  0  0  0  0
  6  1  2  0  0  0  0
  7  5  1  0  0  0  0
  7  8  1  0  0  0  0
  8 24  1  0  0  0  0
  8 16  1  1  0  0  0
  9 17  1  0  0  0  0
  9 18  1  0  0  0  0
  9  8  1  0  0  0  0
 10  9  1  0  0  0  0
 11 20  1  0  0  0  0
 11 12  1  0  0  0  0
 11 10  1  0  0  0  0
 12  7  1  0  0  0  0
 13  1  1  0  0  0  0
 19 10  1  0  0  0  0
 21 11  1  0  0  0  0
 22 12  1  0  0  0  0
 23 12  1  0  0  0  0
 24 25  2  0  0  0  0
 25 26  1  0  0  0  0
 25 29  1  0  0  0  0
 26 30  1  0  0  0  0
 27 26  1  0  0  0  0
 28 24  1  0  0  0  0
 28 27  2  0  0  0  0
 31 32  1  0  0  0  0
 32 33  1  0  0  0  0
 33 34  2  0  0  0  0
 33 27  1  0  0  0  0
 34 35  1  0  0  0  0
 36 37  1  0  0  0  0
 36 34  1  0  0  0  0
 38 36  2  0  0  0  0
 39 32  2  0  0  0  0
 39 38  1  0  0  0  0
M  END
>  <minimizedAffinity>
-5.72921991

$$$$

 OpenBabel03242520433D

 39 42  0  0  1  0  0  0  0  0999 V2000
   42.5960   28.4900   41.5490 C   0  0  0  0  0  0  0  0  0  0  0  0
   43.1900   28.2900   42.8140 C   0  0  0  0  0  0  0  0  0  0  0  0
   42.6070   27.3120   43.6750 C   0  0  0  0  0  0  0  0  0  0  0  0
   41.5100   26.6210   43.2350 N   0  0  0  0  0  0  0  0  0  0  0  0
   40.9880   26.8570   42.0160 C   0  0  0  0  0  0  0  0  0  0  0  0
   41.5330   27.7830   41.1910 N   0  0  0  0  0  0  0  0  0  0  0  0
   39.8680   26.1040   41.6510 N   0  0  0  0  0  0  0  0  0  0  0  0
   38.6720   26.1590   42.4250 C   0  0  2  0  0  0  0  0  0  0  0  0
   37.6600   25.1170   42.0960 C   0  0  0  0  0  0  0  0  0  0  0  0
   37.6260   24.6620   40.7550 N   0  0  0  0  0  0  0  0  0  0  0  0
   38.5370   25.3060   39.8820 C   0  0  0  0  0  0  0  0  0  0  0  0
   39.9130   25.2600   40.4780 C   0  0  0  0  0  0  0  0  0  0  0  0
   42.9900   29.2150   40.8520 H   0  0  0  0  0  0  0  0  0  0  0  0
   44.0450   28.8600   43.1000 H   0  0  0  0  0  0  0  0  0  0  0  0
   43.0480   27.1480   44.6420 H   0  0  0  0  0  0  0  0  0  0  0  0
   38.9940   25.9070   43.4840 H   0  0  0  0  0  0  0  0  0  0  0  0
   37.7550   24.2200   42.7410 H   0  0  0  0  0  0  0  0  0  0  0  0
   36.6520   25.5460   42.3710 H   0  0  0  0  0  0  0  0  0  0  0  0
   37.5160   23.6450   40.6210 H   0  0  0  0  0  0  0  0  0  0  0  0
   38.2610   26.3000   39.5490 H   0  0  0  0  0  0  0  0  0  0  0  0
   38.6020   24.6720   38.9470 H   0  0  0  0  0  0  0  0  0  0  0  0
   40.5970   25.7790   39.7470 H   0  0  0  0  0  0  0  0  0  0  0  0
   40.2450   24.2440   40.6800 H   0  0  0  0  0  0  0  0  0  0  0  0
   38.1000   27.5290   42.4710 C   0  0  0  0  0  0  0  0  0  0  0  0
   37.1710   28.1260   43.2930 C   0  0  0  0  0  0  0  0  0  0  0  0
   36.9590   29.4010   42.9720 N   0  0  0  0  0  0  0  0  0  0  0  0
   37.7640   29.6340   41.9260 C   0  0  0  0  0  0  0  0  0  0  0  0
   38.4430   28.5200   41.6280 N   0  0  0  0  0  0  0  0  0  0  0  0
   36.6680   27.6190   44.1030 H   0  0  0  0  0  0  0  0  0  0  0  0
   36.3080   30.0760   43.4330 H   0  0  0  0  0  0  0  0  0  0  0  0
   40.2150   31.2180   42.5090 Cl  0  0  0  0  0  0  0  0  0  0  0  0
   39.0010   31.7370   41.3350 C   0  0  0  0  0  0  0  0  0  0  0  0
   37.9230   30.8870   41.1820 C   0  0  0  0  0  0  0  0  0  0  0  0
   36.9330   31.2450   40.2670 C   0  0  0  0  0  0  0  0  0  0  0  0
   36.0840   30.5850   40.1390 H   0  0  0  0  0  0  0  0  0  0  0  0
   37.0040   32.4080   39.5240 C   0  0  0  0  0  0  0  0  0  0  0  0
   36.2280   32.6770   38.8150 H   0  0  0  0  0  0  0  0  0  0  0  0
   38.1100   33.2160   39.7250 C   0  0  0  0  0  3  0  0  0  0  0  0
   39.1170   32.9100   40.6160 C   0  0  0  0  0  3  0  0  0  0  0  0
  1  2  1  0  0  0  0
  2 14  1  0  0  0  0
  2  3  2  0  0  0  0
  3 15  1  0  0  0  0
  4  3  1  0  0  0  0
  5  4  2  0  0  0  0
  6  1  2  0  0  0  0
  6  5  1  0  0  0  0
  7  5  1  0  0  0  0
  7  8  1  0  0  0  0
  8 24  1  0  0  0  0
  8 16  1  1  0  0  0
  9 18  1  0  0  0  0
  9  8  1  0  0  0  0
  9 17  1  0  0  0  0
 10  9  1  0  0  0  0
 11 12  1  0  0  0  0
 11 10  1  0  0  0  0
 12 23  1  0  0  0  0
 12  7  1  0  0  0  0
 13  1  1  0  0  0  0
 19 10  1  0  0  0  0
 20 11  1  0  0  0  0
 21 11  1  0  0  0  0
 22 12  1  0  0  0  0
 24 25  2  0  0  0  0
 25 29  1  0  0  0  0
 26 25  1  0  0  0  0
 26 30  1  0  0  0  0
 27 26  1  0  0  0  0
 28 27  2  0  0  0  0
 28 24  1  0  0  0  0
 32 31  1  0  0  0  0
 33 32  1  0  0  0  0
 33 27  1  0  0  0  0
 34 33  2  0  0  0  0
 35 34  1  0  0  0  0
 36 38  2  0  0  0  0
 36 34  1  0  0  0  0
 37 36  1  0  0  0  0
 38 39  1  0  0  0  0
 39 32  2  0  0  0  0
M  END
>  <minimizedAffinity>
-5.71773195

$$$$

 OpenBabel03242520433D

 39 42  0  0  1  0  0  0  0  0999 V2000
   37.3370   28.6900   43.1260 C   0  0  0  0  0  0  0  0  0  0  0  0
   38.4310   27.8860   43.5130 C   0  0  0  0  0  0  0  0  0  0  0  0
   39.6890   28.1290   42.8840 C   0  0  0  0  0  0  0  0  0  0  0  0
   39.7720   29.1220   41.9440 N   0  0  0  0  0  0  0  0  0  0  0  0
   38.6910   29.8560   41.6180 C   0  0  0  0  0  0  0  0  0  0  0  0
   37.4910   29.6330   42.2090 N   0  0  0  0  0  0  0  0  0  0  0  0
   38.8680   30.8480   40.6490 N   0  0  0  0  0  0  0  0  0  0  0  0
   39.3190   30.5110   39.3380 C   0  0  2  0  0  0  0  0  0  0  0  0
   39.7270   31.6690   38.4960 C   0  0  0  0  0  0  0  0  0  0  0  0
   39.0600   32.8960   38.7310 N   0  0  0  0  0  0  0  0  0  0  0  0
   38.0420   32.8430   39.7150 C   0  0  0  0  0  0  0  0  0  0  0  0
   38.5930   32.2300   40.9680 C   0  0  0  0  0  0  0  0  0  0  0  0
   36.3590   28.5550   43.5660 H   0  0  0  0  0  0  0  0  0  0  0  0
   38.3040   27.1270   44.2520 H   0  0  0  0  0  0  0  0  0  0  0  0
   40.5330   27.5250   43.1670 H   0  0  0  0  0  0  0  0  0  0  0  0
   40.2820   29.9320   39.4970 H   0  0  0  0  0  0  0  0  0  0  0  0
   40.8150   31.8740   38.5610 H   0  0  0  0  0  0  0  0  0  0  0  0
   39.5710   31.3590   37.4210 H   0  0  0  0  0  0  0  0  0  0  0  0
   39.6500   33.7430   38.7390 H   0  0  0  0  0  0  0  0  0  0  0  0
   37.1030   32.3940   39.4110 H   0  0  0  0  0  0  0  0  0  0  0  0
   37.7980   33.9120   39.9950 H   0  0  0  0  0  0  0  0  0  0  0  0
   37.7500   32.2150   41.7160 H   0  0  0  0  0  0  0  0  0  0  0  0
   39.4550   32.7730   41.3520 H   0  0  0  0  0  0  0  0  0  0  0  0
   38.3810   29.5910   38.6450 C   0  0  0  0  0  0  0  0  0  0  0  0
   38.4310   28.2450   38.3660 C   0  0  0  0  0  0  0  0  0  0  0  0
   37.3440   27.8240   37.7200 N   0  0  0  0  0  0  0  0  0  0  0  0
   36.5790   28.9150   37.5800 C   0  0  0  0  0  0  0  0  0  0  0  0
   37.1960   29.9670   38.1310 N   0  0  0  0  0  0  0  0  0  0  0  0
   39.2560   27.6020   38.6350 H   0  0  0  0  0  0  0  0  0  0  0  0
   37.1310   26.8540   37.3920 H   0  0  0  0  0  0  0  0  0  0  0  0
   36.5720   29.1940   34.6170 Cl  0  0  0  0  0  0  0  0  0  0  0  0
   35.0870   29.1420   35.5730 C   0  0  0  0  0  0  0  0  0  0  0  0
   35.2660   29.0090   36.9370 C   0  0  0  0  0  0  0  0  0  0  0  0
   34.1280   28.9620   37.7430 C   0  0  0  0  0  0  0  0  0  0  0  0
   34.2570   28.8580   38.8130 H   0  0  0  0  0  0  0  0  0  0  0  0
   32.8520   29.0450   37.2200 C   0  0  0  0  0  0  0  0  0  0  0  0
   31.9740   29.0070   37.8560 H   0  0  0  0  0  0  0  0  0  0  0  0
   32.7420   29.1770   35.8460 C   0  0  0  0  0  3  0  0  0  0  0  0
   33.8330   29.2280   35.0030 C   0  0  0  0  0  3  0  0  0  0  0  0
  1  2  1  0  0  0  0
  1 13  1  0  0  0  0
  2 14  1  0  0  0  0
  3 15  1  0  0  0  0
  3  2  2  0  0  0  0
  4  3  1  0  0  0  0
  5  4  2  0  0  0  0
  5  6  1  0  0  0  0
  6  1  2  0  0  0  0
  7 12  1  0  0  0  0
  7  5  1  0  0  0  0
  8 16  1  1  0  0  0
  8  7  1  0  0  0  0
  9 17  1  0  0  0  0
  9 10  1  0  0  0  0
  9  8  1  0  0  0  0
 10 19  1  0  0  0  0
 10 11  1  0  0  0  0
 11 21  1  0  0  0  0
 11 12  1  0  0  0  0
 12 23  1  0  0  0  0
 12 22  1  0  0  0  0
 18  9  1  0  0  0  0
 20 11  1  0  0  0  0
 24  8  1  0  0  0  0
 25 29  1  0  0  0  0
 25 24  2  0  0  0  0
 26 25  1  0  0  0  0
 27 26  1  0  0  0  0
 27 28  2  0  0  0  0
 28 24  1  0  0  0  0
 30 26  1  0  0  0  0
 31 32  1  0  0  0  0
 32 33  1  0  0  0  0
 33 27  1  0  0  0  0
 33 34  2  0  0  0  0
 34 35  1  0  0  0  0
 36 34  1  0  0  0  0
 36 37  1  0  0  0  0
 38 36  2  0  0  0  0
 39 32  2  0  0  0  0
 39 38  1  0  0  0  0
M  END
>  <minimizedAffinity>
-5.70404148

$$$$

 OpenBabel03242520433D

 39 42  0  0  1  0  0  0  0  0999 V2000
   39.4870   25.7010   40.4080 C   0  0  0  0  0  0  0  0  0  0  0  0
   40.6040   25.8350   41.2610 C   0  0  0  0  0  0  0  0  0  0  0  0
   40.6760   27.0000   42.0830 C   0  0  0  0  0  0  0  0  0  0  0  0
   39.6670   27.9220   42.0040 N   0  0  0  0  0  0  0  0  0  0  0  0
   38.6270   27.7380   41.1690 C   0  0  0  0  0  0  0  0  0  0  0  0
   38.5480   26.6360   40.3840 N   0  0  0  0  0  0  0  0  0  0  0  0
   37.6430   28.7320   41.1540 N   0  0  0  0  0  0  0  0  0  0  0  0
   37.9740   30.0770   40.8130 C   0  0  2  0  0  0  0  0  0  0  0  0
   36.9100   31.0790   41.0990 C   0  0  0  0  0  0  0  0  0  0  0  0
   35.5710   30.6280   41.0180 N   0  0  0  0  0  0  0  0  0  0  0  0
   35.4180   29.2770   40.6190 C   0  0  0  0  0  0  0  0  0  0  0  0
   36.2760   28.4030   41.4860 C   0  0  0  0  0  0  0  0  0  0  0  0
   39.3740   24.8420   39.7620 H   0  0  0  0  0  0  0  0  0  0  0  0
   41.3580   25.0810   41.2790 H   0  0  0  0  0  0  0  0  0  0  0  0
   41.5210   27.1170   42.7380 H   0  0  0  0  0  0  0  0  0  0  0  0
   38.8180   30.3610   41.5160 H   0  0  0  0  0  0  0  0  0  0  0  0
   37.0350   31.5520   42.0940 H   0  0  0  0  0  0  0  0  0  0  0  0
   37.0630   31.9290   40.3710 H   0  0  0  0  0  0  0  0  0  0  0  0
   34.9340   30.9520   41.7630 H   0  0  0  0  0  0  0  0  0  0  0  0
   35.5480   29.0700   39.5630 H   0  0  0  0  0  0  0  0  0  0  0  0
   34.3540   28.9780   40.8650 H   0  0  0  0  0  0  0  0  0  0  0  0
   36.1160   27.3440   41.1320 H   0  0  0  0  0  0  0  0  0  0  0  0
   36.0420   28.5090   42.5430 H   0  0  0  0  0  0  0  0  0  0  0  0
   38.5170   30.1840   39.4340 C   0  0  0  0  0  0  0  0  0  0  0  0
   37.9350   30.4810   38.2230 C   0  0  0  0  0  0  0  0  0  0  0  0
   38.8170   30.4740   37.2250 N   0  0  0  0  0  0  0  0  0  0  0  0
   39.9890   30.1680   37.7990 C   0  0  0  0  0  0  0  0  0  0  0  0
   39.8100   29.9960   39.1130 N   0  0  0  0  0  0  0  0  0  0  0  0
   36.8830   30.6920   38.0930 H   0  0  0  0  0  0  0  0  0  0  0  0
   38.6380   30.6650   36.2130 H   0  0  0  0  0  0  0  0  0  0  0  0
   41.5680   32.6670   37.4550 Cl  0  0  0  0  0  0  0  0  0  0  0  0
   42.1500   31.0900   36.9120 C   0  0  0  0  0  0  0  0  0  0  0  0
   41.2940   30.0300   37.1480 C   0  0  0  0  0  0  0  0  0  0  0  0
   41.7010   28.7590   36.7410 C   0  0  0  0  0  0  0  0  0  0  0  0
   41.0380   27.9220   36.9210 H   0  0  0  0  0  0  0  0  0  0  0  0
   42.9160   28.5400   36.1200 C   0  0  0  0  0  0  0  0  0  0  0  0
   43.2220   27.5470   35.8070 H   0  0  0  0  0  0  0  0  0  0  0  0
   43.7250   29.6430   35.9130 C   0  0  0  0  0  3  0  0  0  0  0  0
   43.3730   30.9210   36.2950 C   0  0  0  0  0  3  0  0  0  0  0  0
  1  2  1  0  0  0  0
  2 14  1  0  0  0  0
  2  3  2  0  0  0  0
  3 15  1  0  0  0  0
  4  3  1  0  0  0  0
  5  4  2  0  0  0  0
  6  1  2  0  0  0  0
  6  5  1  0  0  0  0
  7  5  1  0  0  0  0
  7 12  1  0  0  0  0
  8  9  1  0  0  0  0
  8  7  1  0  0  0  0
  8 16  1  1  0  0  0
  9 17  1  0  0  0  0
 10  9  1  0  0  0  0
 10 19  1  0  0  0  0
 11 21  1  0  0  0  0
 11 10  1  0  0  0  0
 11 12  1  0  0  0  0
 12 23  1  0  0  0  0
 13  1  1  0  0  0  0
 18  9  1  0  0  0  0
 20 11  1  0  0  0  0
 22 12  1  0  0  0  0
 24  8  1  0  0  0  0
 25 24  2  0  0  0  0
 26 27  1  0  0  0  0
 26 25  1  0  0  0  0
 27 28  2  0  0  0  0
 28 24  1  0  0  0  0
 29 25  1  0  0  0  0
 30 26  1  0  0  0  0
 32 33  1  0  0  0  0
 32 31  1  0  0  0  0
 33 27  1  0  0  0  0
 34 35  1  0  0  0  0
 34 33  2  0  0  0  0
 36 34  1  0  0  0  0
 37 36  1  0  0  0  0
 38 36  2  0  0  0  0
 38 39  1  0  0  0  0
 39 32  2  0  0  0  0
M  END
>  <minimizedAffinity>
-5.70043516

$$$$

 OpenBabel03242520433D

 39 42  0  0  1  0  0  0  0  0999 V2000
   37.3210   32.5140   38.8850 C   0  0  0  0  0  0  0  0  0  0  0  0
   37.3190   33.7650   39.5400 C   0  0  0  0  0  0  0  0  0  0  0  0
   38.5110   34.1610   40.2190 C   0  0  0  0  0  0  0  0  0  0  0  0
   39.5880   33.3160   40.2010 N   0  0  0  0  0  0  0  0  0  0  0  0
   39.5280   32.1340   39.5580 C   0  0  0  0  0  0  0  0  0  0  0  0
   38.4020   31.7480   38.9110 N   0  0  0  0  0  0  0  0  0  0  0  0
   40.6760   31.3360   39.5930 N   0  0  0  0  0  0  0  0  0  0  0  0
   41.2140   30.8910   40.8360 C   0  0  2  0  0  0  0  0  0  0  0  0
   42.5740   30.2890   40.7540 C   0  0  0  0  0  0  0  0  0  0  0  0
   42.9030   29.6200   39.5500 N   0  0  0  0  0  0  0  0  0  0  0  0
   41.8620   29.5680   38.5910 C   0  0  0  0  0  0  0  0  0  0  0  0
   41.3280   30.9510   38.3620 C   0  0  0  0  0  0  0  0  0  0  0  0
   36.4500   32.1580   38.3540 H   0  0  0  0  0  0  0  0  0  0  0  0
   36.4480   34.3800   39.5180 H   0  0  0  0  0  0  0  0  0  0  0  0
   38.5250   35.1110   40.7230 H   0  0  0  0  0  0  0  0  0  0  0  0
   41.3670   31.8360   41.4470 H   0  0  0  0  0  0  0  0  0  0  0  0
   43.3750   31.0310   40.9440 H   0  0  0  0  0  0  0  0  0  0  0  0
   42.6600   29.5670   41.6180 H   0  0  0  0  0  0  0  0  0  0  0  0
   43.8500   29.7910   39.1780 H   0  0  0  0  0  0  0  0  0  0  0  0
   41.0760   28.8440   38.7740 H   0  0  0  0  0  0  0  0  0  0  0  0
   42.3350   29.2710   37.6070 H   0  0  0  0  0  0  0  0  0  0  0  0
   40.5100   30.8560   37.5920 H   0  0  0  0  0  0  0  0  0  0  0  0
   42.1000   31.6460   38.0380 H   0  0  0  0  0  0  0  0  0  0  0  0
   40.2510   30.0500   41.5920 C   0  0  0  0  0  0  0  0  0  0  0  0
   39.3880   30.3220   42.6290 C   0  0  0  0  0  0  0  0  0  0  0  0
   38.6910   29.2490   42.9990 N   0  0  0  0  0  0  0  0  0  0  0  0
   39.1080   28.2670   42.1880 C   0  0  0  0  0  0  0  0  0  0  0  0
   40.0360   28.7440   41.3500 N   0  0  0  0  0  0  0  0  0  0  0  0
   39.2900   31.2920   43.0940 H   0  0  0  0  0  0  0  0  0  0  0  0
   37.9740   29.1830   43.7570 H   0  0  0  0  0  0  0  0  0  0  0  0
   36.4810   27.7400   40.8930 Cl  0  0  0  0  0  0  0  0  0  0  0  0
   37.4660   26.4590   41.6080 C   0  0  0  0  0  0  0  0  0  0  0  0
   38.6590   26.8720   42.1680 C   0  0  0  0  0  0  0  0  0  0  0  0
   39.4790   25.9030   42.7470 C   0  0  0  0  0  0  0  0  0  0  0  0
   40.4160   26.2170   43.1890 H   0  0  0  0  0  0  0  0  0  0  0  0
   39.1320   24.5660   42.7730 C   0  0  0  0  0  0  0  0  0  0  0  0
   39.7780   23.8210   43.2260 H   0  0  0  0  0  0  0  0  0  0  0  0
   37.9240   24.2180   42.1940 C   0  0  0  0  0  3  0  0  0  0  0  0
   37.0750   25.1350   41.6080 C   0  0  0  0  0  3  0  0  0  0  0  0
  1  6  2  0  0  0  0
  1  2  1  0  0  0  0
  2  3  2  0  0  0  0
  3 15  1  0  0  0  0
  4  3  1  0  0  0  0
  5  7  1  0  0  0  0
  5  4  2  0  0  0  0
  6  5  1  0  0  0  0
  7  8  1  0  0  0  0
  8 16  1  1  0  0  0
  8 24  1  0  0  0  0
  9  8  1  0  0  0  0
  9 17  1  0  0  0  0
  9 18  1  0  0  0  0
 10  9  1  0  0  0  0
 11 20  1  0  0  0  0
 11 10  1  0  0  0  0
 12 11  1  0  0  0  0
 12  7  1  0  0  0  0
 13  1  1  0  0  0  0
 14  2  1  0  0  0  0
 19 10  1  0  0  0  0
 21 11  1  0  0  0  0
 22 12  1  0  0  0  0
 23 12  1  0  0  0  0
 24 25  2  0  0  0  0
 25 26  1  0  0  0  0
 25 29  1  0  0  0  0
 26 30  1  0  0  0  0
 27 26  1  0  0  0  0
 28 24  1  0  0  0  0
 28 27  2  0  0  0  0
 31 32  1  0  0  0  0
 32 33  1  0  0  0  0
 33 27  1  0  0  0  0
 33 34  2  0  0  0  0
 34 36  1  0  0  0  0
 34 35  1  0  0  0  0
 36 37  1  0  0  0  0
 38 36  2  0  0  0  0
 39 32  2  0  0  0  0
 39 38  1  0  0  0  0
M  END
>  <minimizedAffinity>
-5.6887002

$$$$
