
 OpenBabel03252501373D

 35 37  0  0  0  0  0  0  0  0999 V2000
   42.5050   33.2110   38.1220 Cl  0  0  0  0  0  0  0  0  0  0  0  0
   41.5510   33.5360   39.5590 C   0  0  0  0  0  0  0  0  0  0  0  0
   41.9270   34.4780   40.5170 C   0  0  0  0  0  0  0  0  0  0  0  0
   41.1370   34.6820   41.6160 C   0  0  0  0  0  0  0  0  0  0  0  0
   39.9640   34.0080   41.8520 C   0  0  0  0  0  0  0  0  0  0  0  0
   39.5650   33.0630   40.9130 C   0  0  0  0  0  0  0  0  0  0  0  0
   38.0790   32.1350   41.1090 Cl  0  0  0  0  0  0  0  0  0  0  0  0
   40.3650   32.8650   39.8160 C   0  0  0  0  0  0  0  0  0  0  0  0
   41.4660   35.4290   42.3450 H   0  0  0  0  0  0  0  0  0  0  0  0
   39.3530   34.1870   42.7300 H   0  0  0  0  0  0  0  0  0  0  0  0
   38.4420   33.6360   37.5800 Cl  0  0  0  0  0  0  0  0  0  0  0  0
   39.1310   32.0380   37.7200 C   0  0  0  0  0  0  0  0  0  0  0  0
   39.9800   31.8730   38.7960 C   0  0  0  0  0  0  0  0  0  0  0  0
   40.5990   30.6640   39.0350 C   0  0  0  0  0  0  0  0  0  0  0  0
   41.2830   30.4230   39.8470 H   0  0  0  0  0  0  0  0  0  0  0  0
   40.3860   29.5710   38.1980 C   0  0  0  0  0  0  0  0  0  0  0  0
   40.8580   28.5900   38.3510 H   0  0  0  0  0  0  0  0  0  0  0  0
   39.5310   29.7500   37.1220 C   0  0  0  0  0  0  0  0  0  0  0  0
   38.9150   30.9600   36.8860 C   0  0  0  0  0  0  0  0  0  0  0  0
   43.1200   35.1570   40.2660 O   0  0  0  0  0  0  0  0  0  0  0  0
   44.2810   34.7370   40.9360 C   0  0  0  0  0  0  0  0  0  0  0  0
   45.0020   33.7340   40.6190 O   0  0  0  0  0  0  0  0  0  0  0  0
   44.7590   35.4460   42.0830 N   0  0  0  0  0  0  0  0  0  0  0  0
   44.2730   36.2700   42.4310 H   0  0  0  0  0  0  0  0  0  0  0  0
   45.9560   34.7770   42.5560 C   0  0  0  0  0  0  0  0  0  0  0  0
   45.9570   33.7360   43.4420 C   0  0  0  0  0  0  0  0  0  0  0  0
   47.2010   33.2180   43.7810 C   0  0  0  0  0  0  0  0  0  0  0  0
   48.2960   33.7620   43.2290 N   0  0  0  0  0  0  0  0  0  0  0  0
   48.2430   34.7980   42.3530 C   0  0  0  0  0  0  0  0  0  0  0  0
   47.0540   35.3260   41.9990 N   0  0  0  0  0  0  0  0  0  0  0  0
   47.2110   32.3970   44.4810 H   0  0  0  0  0  0  0  0  0  0  0  0
   49.1740   35.2040   41.9300 H   0  0  0  0  0  0  0  0  0  0  0  0
   44.7150   33.2860   43.9260 N   0  0  0  0  0  0  0  0  0  0  0  0
   44.0380   34.0250   44.2480 H   0  0  0  0  0  0  0  0  0  0  0  0
   44.3200   32.3340   44.0310 H   0  0  0  0  0  0  0  0  0  0  0  0
  1  2  1  0  0  0  0
  2  8  2  0  0  0  0
  2  3  1  0  0  0  0
  3  4  2  0  0  0  0
  4  5  1  0  0  0  0
  4  9  1  0  0  0  0
  5 10  1  0  0  0  0
  6  7  1  0  0  0  0
  6  5  2  0  0  0  0
  8  6  1  0  0  0  0
 11 12  1  0  0  0  0
 12 13  1  0  0  0  0
 13 14  2  0  0  0  0
 13  8  1  0  0  0  0
 14 15  1  0  0  0  0
 16 17  1  0  0  0  0
 16 14  1  0  0  0  0
 18 16  2  0  0  0  0
 19 18  1  0  0  0  0
 19 12  2  0  0  0  0
 20  3  1  0  0  0  0
 20 21  1  0  0  0  0
 21 23  1  0  0  0  0
 22 21  2  0  0  0  0
 23 24  1  0  0  0  0
 23 25  1  0  0  0  0
 25 26  1  0  0  0  0
 26 27  2  0  0  0  0
 26 33  1  0  0  0  0
 27 31  1  0  0  0  0
 28 27  1  0  0  0  0
 29 28  2  0  0  0  0
 30 29  1  0  0  0  0
 30 25  2  0  0  0  0
 32 29  1  0  0  0  0
 33 35  1  0  0  0  0
 33 34  1  0  0  0  0
M  END
>  <minimizedAffinity>
-5.7894702

>  <minimizedRMSD>
1.89660597

$$$$
