
 OpenBabel03252506113D

 30 32  0  0  0  0  0  0  0  0999 V2000
   40.3490   30.5130   40.9420 F   0  0  0  0  0  0  0  0  0  0  0  0
   39.2180   31.1480   40.6110 C   0  0  0  0  0  0  0  0  0  0  0  0
   39.2820   32.3830   39.9970 C   0  0  0  0  0  0  0  0  0  0  0  0
   38.1550   33.0790   39.6370 C   0  0  0  0  0  0  0  0  0  0  0  0
   36.8940   32.5670   39.8750 C   0  0  0  0  0  0  0  0  0  0  0  0
   36.8780   31.3210   40.4940 C   0  0  0  0  0  0  0  0  0  0  0  0
   37.9810   30.5970   40.8690 C   0  0  0  0  0  0  0  0  0  0  0  0
   38.2300   34.0610   39.1490 H   0  0  0  0  0  0  0  0  0  0  0  0
   35.9900   33.0670   39.6140 H   0  0  0  0  0  0  0  0  0  0  0  0
   35.9110   30.8760   40.7030 H   0  0  0  0  0  0  0  0  0  0  0  0
   37.8360   28.1040   39.1120 Cl  0  0  0  0  0  0  0  0  0  0  0  0
   37.7600   28.0740   40.8690 C   0  0  0  0  0  0  0  0  0  0  0  0
   37.8400   29.2970   41.5150 C   0  0  0  0  0  0  0  0  0  0  0  0
   37.7800   29.2670   42.9010 C   0  0  0  0  0  0  0  0  0  0  0  0
   37.8390   30.2110   43.4460 H   0  0  0  0  0  0  0  0  0  0  0  0
   37.6480   28.1390   43.6780 C   0  0  0  0  0  0  0  0  0  0  0  0
   37.6100   28.2100   44.7580 H   0  0  0  0  0  0  0  0  0  0  0  0
   37.5740   26.9480   42.9680 C   0  0  0  0  0  3  0  0  0  0  0  0
   37.6280   26.9010   41.5920 C   0  0  0  0  0  3  0  0  0  0  0  0
   42.1230   33.8450   38.1620 C   0  0  0  0  0  0  0  0  0  0  0  0
   43.0210   34.1210   39.2120 C   0  0  0  0  0  0  0  0  0  0  0  0
   42.6580   33.8070   40.5490 C   0  0  0  0  0  0  0  0  0  0  0  0
   41.4240   33.2450   40.7170 N   0  0  0  0  0  0  0  0  0  0  0  0
   40.5940   32.9940   39.7110 C   0  0  0  0  0  0  0  0  0  0  0  0
   40.9430   33.2910   38.4560 N   0  0  0  0  0  0  0  0  0  0  0  0
   43.9810   34.5610   39.0590 H   0  0  0  0  0  0  0  0  0  0  0  0
   43.3080   33.9990   41.3750 H   0  0  0  0  0  0  0  0  0  0  0  0
   42.4960   34.1600   36.8450 N   0  0  0  0  0  0  0  0  0  0  0  0
   43.3880   34.6510   36.6420 H   0  0  0  0  0  0  0  0  0  0  0  0
   41.8570   33.8900   36.0650 H   0  0  0  0  0  0  0  0  0  0  0  0
  2  7  1  0  0  0  0
  2  1  1  0  0  0  0
  3  2  2  0  0  0  0
  4  5  2  0  0  0  0
  4  3  1  0  0  0  0
  5  6  1  0  0  0  0
  6 10  1  0  0  0  0
  6  7  2  0  0  0  0
  7 13  1  0  0  0  0
  8  4  1  0  0  0  0
  9  5  1  0  0  0  0
 11 12  1  0  0  0  0
 12 13  2  0  0  0  0
 12 19  1  0  0  0  0
 13 14  1  0  0  0  0
 14 15  1  0  0  0  0
 14 16  2  0  0  0  0
 16 17  1  0  0  0  0
 18 16  1  0  0  0  0
 19 18  2  0  0  0  0
 20 25  2  0  0  0  0
 20 21  1  0  0  0  0
 21 22  2  0  0  0  0
 22 23  1  0  0  0  0
 22 27  1  0  0  0  0
 24  3  1  0  0  0  0
 24 23  2  0  0  0  0
 25 24  1  0  0  0  0
 26 21  1  0  0  0  0
 28 20  1  0  0  0  0
 29 28  1  0  0  0  0
 30 28  1  0  0  0  0
M  END
>  <minimizedAffinity>
-6.21674442

$$$$

 OpenBabel03252506113D

 30 32  0  0  0  0  0  0  0  0999 V2000
   39.1480   28.3810   40.2550 F   0  0  0  0  0  0  0  0  0  0  0  0
   37.9140   28.8940   40.3350 C   0  0  0  0  0  0  0  0  0  0  0  0
   37.7160   30.2410   40.1050 C   0  0  0  0  0  0  0  0  0  0  0  0
   36.4740   30.8210   40.1750 C   0  0  0  0  0  0  0  0  0  0  0  0
   35.3540   30.0710   40.4800 C   0  0  0  0  0  0  0  0  0  0  0  0
   35.6000   28.7200   40.7030 C   0  0  0  0  0  0  0  0  0  0  0  0
   36.8250   28.1070   40.6440 C   0  0  0  0  0  0  0  0  0  0  0  0
   36.3410   31.8950   39.9880 H   0  0  0  0  0  0  0  0  0  0  0  0
   34.3690   30.4730   40.5460 H   0  0  0  0  0  0  0  0  0  0  0  0
   34.7520   28.0880   40.9470 H   0  0  0  0  0  0  0  0  0  0  0  0
   37.5430   27.1870   43.4670 Cl  0  0  0  0  0  0  0  0  0  0  0  0
   37.2800   26.0940   42.1130 C   0  0  0  0  0  0  0  0  0  0  0  0
   36.9610   26.6760   40.8980 C   0  0  0  0  0  0  0  0  0  0  0  0
   36.7550   25.8090   39.8340 C   0  0  0  0  0  0  0  0  0  0  0  0
   36.5010   26.2300   38.8600 H   0  0  0  0  0  0  0  0  0  0  0  0
   36.8400   24.4360   39.8850 C   0  0  0  0  0  0  0  0  0  0  0  0
   36.6620   23.8350   39.0020 H   0  0  0  0  0  0  0  0  0  0  0  0
   37.1630   23.9190   41.1330 C   0  0  0  0  0  3  0  0  0  0  0  0
   37.3810   24.7190   42.2330 C   0  0  0  0  0  3  0  0  0  0  0  0
   40.1800   32.1770   38.1660 C   0  0  0  0  0  0  0  0  0  0  0  0
   40.9920   32.7020   39.1910 C   0  0  0  0  0  0  0  0  0  0  0  0
   40.6990   32.3950   40.5470 C   0  0  0  0  0  0  0  0  0  0  0  0
   39.6170   31.5890   40.7570 N   0  0  0  0  0  0  0  0  0  0  0  0
   38.8660   31.1050   39.7740 C   0  0  0  0  0  0  0  0  0  0  0  0
   39.1470   31.3970   38.5010 N   0  0  0  0  0  0  0  0  0  0  0  0
   41.8340   33.3310   39.0050 H   0  0  0  0  0  0  0  0  0  0  0  0
   41.2880   32.7720   41.3550 H   0  0  0  0  0  0  0  0  0  0  0  0
   40.4810   32.4890   36.8290 N   0  0  0  0  0  0  0  0  0  0  0  0
   41.2460   33.1500   36.5920 H   0  0  0  0  0  0  0  0  0  0  0  0
   39.9200   32.0420   36.0710 H   0  0  0  0  0  0  0  0  0  0  0  0
  1  2  1  0  0  0  0
  2  7  1  0  0  0  0
  3  4  1  0  0  0  0
  3  2  2  0  0  0  0
  4  5  2  0  0  0  0
  5  9  1  0  0  0  0
  5  6  1  0  0  0  0
  6 10  1  0  0  0  0
  7  6  2  0  0  0  0
  7 13  1  0  0  0  0
  8  4  1  0  0  0  0
 12 19  1  0  0  0  0
 12 11  1  0  0  0  0
 13 12  2  0  0  0  0
 14 16  2  0  0  0  0
 14 13  1  0  0  0  0
 15 14  1  0  0  0  0
 16 18  1  0  0  0  0
 17 16  1  0  0  0  0
 18 19  2  0  0  0  0
 20 25  2  0  0  0  0
 20 21  1  0  0  0  0
 21 22  2  0  0  0  0
 22 23  1  0  0  0  0
 22 27  1  0  0  0  0
 24  3  1  0  0  0  0
 24 23  2  0  0  0  0
 25 24  1  0  0  0  0
 26 21  1  0  0  0  0
 28 20  1  0  0  0  0
 29 28  1  0  0  0  0
 30 28  1  0  0  0  0
M  END
>  <minimizedAffinity>
-6.04043865

$$$$

 OpenBabel03252506113D

 30 32  0  0  0  0  0  0  0  0999 V2000
   38.5490   27.9810   39.9030 F   0  0  0  0  0  0  0  0  0  0  0  0
   37.9880   27.8750   41.1130 C   0  0  0  0  0  0  0  0  0  0  0  0
   37.8520   28.9980   41.9050 C   0  0  0  0  0  0  0  0  0  0  0  0
   37.2850   28.9470   43.1550 C   0  0  0  0  0  0  0  0  0  0  0  0
   36.8200   27.7560   43.6780 C   0  0  0  0  0  0  0  0  0  0  0  0
   36.9770   26.6520   42.8460 C   0  0  0  0  0  0  0  0  0  0  0  0
   37.5380   26.6640   41.5950 C   0  0  0  0  0  0  0  0  0  0  0  0
   37.1880   29.8540   43.7670 H   0  0  0  0  0  0  0  0  0  0  0  0
   36.3730   27.6650   44.6410 H   0  0  0  0  0  0  0  0  0  0  0  0
   36.6280   25.6930   43.2120 H   0  0  0  0  0  0  0  0  0  0  0  0
   40.0640   24.9720   41.8830 Cl  0  0  0  0  0  0  0  0  0  0  0  0
   38.7210   24.5610   40.8240 C   0  0  0  0  0  0  0  0  0  0  0  0
   37.6500   25.4380   40.8120 C   0  0  0  0  0  0  0  0  0  0  0  0
   36.5930   25.1090   39.9740 C   0  0  0  0  0  0  0  0  0  0  0  0
   35.7300   25.7750   39.9370 H   0  0  0  0  0  0  0  0  0  0  0  0
   36.5220   23.9980   39.1640 C   0  0  0  0  0  0  0  0  0  0  0  0
   35.6550   23.8200   38.5410 H   0  0  0  0  0  0  0  0  0  0  0  0
   37.6300   23.1620   39.2250 C   0  0  0  0  0  3  0  0  0  0  0  0
   38.7130   23.4250   40.0330 C   0  0  0  0  0  3  0  0  0  0  0  0
   37.8590   32.3860   40.4560 C   0  0  0  0  0  0  0  0  0  0  0  0
   39.2290   32.7100   40.5110 C   0  0  0  0  0  0  0  0  0  0  0  0
   40.1540   31.7710   41.0430 C   0  0  0  0  0  0  0  0  0  0  0  0
   39.6230   30.5890   41.4740 N   0  0  0  0  0  0  0  0  0  0  0  0
   38.3270   30.3050   41.4120 C   0  0  0  0  0  0  0  0  0  0  0  0
   37.4630   31.1920   40.9100 N   0  0  0  0  0  0  0  0  0  0  0  0
   39.6230   33.6400   40.1680 H   0  0  0  0  0  0  0  0  0  0  0  0
   41.2010   31.9760   41.1040 H   0  0  0  0  0  0  0  0  0  0  0  0
   36.9570   33.3240   39.9270 N   0  0  0  0  0  0  0  0  0  0  0  0
   37.2730   34.2700   39.6410 H   0  0  0  0  0  0  0  0  0  0  0  0
   35.9540   33.0520   39.8240 H   0  0  0  0  0  0  0  0  0  0  0  0
  1  2  1  0  0  0  0
  2  7  2  0  0  0  0
  2  3  1  0  0  0  0
  3  4  2  0  0  0  0
  4  5  1  0  0  0  0
  4  8  1  0  0  0  0
  5  9  1  0  0  0  0
  6 10  1  0  0  0  0
  6  5  2  0  0  0  0
  7  6  1  0  0  0  0
 12 11  1  0  0  0  0
 13 12  1  0  0  0  0
 13  7  1  0  0  0  0
 14 13  2  0  0  0  0
 15 14  1  0  0  0  0
 16 18  2  0  0  0  0
 16 14  1  0  0  0  0
 17 16  1  0  0  0  0
 18 19  1  0  0  0  0
 19 12  2  0  0  0  0
 20 21  2  0  0  0  0
 20 25  1  0  0  0  0
 21 22  1  0  0  0  0
 22 27  1  0  0  0  0
 22 23  2  0  0  0  0
 24 23  1  0  0  0  0
 24  3  1  0  0  0  0
 25 24  2  0  0  0  0
 26 21  1  0  0  0  0
 28 20  1  0  0  0  0
 29 28  1  0  0  0  0
 30 28  1  0  0  0  0
M  END
>  <minimizedAffinity>
-5.91647005

$$$$

 OpenBabel03252506113D

 30 32  0  0  0  0  0  0  0  0999 V2000
   40.2060   28.9720   39.6330 F   0  0  0  0  0  0  0  0  0  0  0  0
   39.1120   29.6740   39.3130 C   0  0  0  0  0  0  0  0  0  0  0  0
   39.2090   30.7220   38.4200 C   0  0  0  0  0  0  0  0  0  0  0  0
   38.1200   31.4760   38.0570 C   0  0  0  0  0  0  0  0  0  0  0  0
   36.8660   31.2130   38.5740 C   0  0  0  0  0  0  0  0  0  0  0  0
   36.8160   30.1480   39.4680 C   0  0  0  0  0  0  0  0  0  0  0  0
   37.8800   29.3750   39.8560 C   0  0  0  0  0  0  0  0  0  0  0  0
   38.2210   32.3060   37.3450 H   0  0  0  0  0  0  0  0  0  0  0  0
   35.9920   31.7670   38.3240 H   0  0  0  0  0  0  0  0  0  0  0  0
   35.8530   29.9010   39.9030 H   0  0  0  0  0  0  0  0  0  0  0  0
   38.5810   29.8590   42.7880 Cl  0  0  0  0  0  0  0  0  0  0  0  0
   37.9750   28.3310   42.1620 C   0  0  0  0  0  0  0  0  0  0  0  0
   37.7050   28.2800   40.8040 C   0  0  0  0  0  0  0  0  0  0  0  0
   37.2270   27.0720   40.3150 C   0  0  0  0  0  0  0  0  0  0  0  0
   37.0030   26.9920   39.2500 H   0  0  0  0  0  0  0  0  0  0  0  0
   37.0010   25.9350   41.0570 C   0  0  0  0  0  0  0  0  0  0  0  0
   36.6250   25.0330   40.5910 H   0  0  0  0  0  0  0  0  0  0  0  0
   37.2920   26.0550   42.4100 C   0  0  0  0  0  3  0  0  0  0  0  0
   37.7680   27.2220   42.9650 C   0  0  0  0  0  3  0  0  0  0  0  0
   42.0370   32.6820   37.1030 C   0  0  0  0  0  0  0  0  0  0  0  0
   42.9340   31.6610   36.7300 C   0  0  0  0  0  0  0  0  0  0  0  0
   42.5740   30.3020   36.9280 C   0  0  0  0  0  0  0  0  0  0  0  0
   41.3450   30.0840   37.4840 N   0  0  0  0  0  0  0  0  0  0  0  0
   40.5160   31.0630   37.8270 C   0  0  0  0  0  0  0  0  0  0  0  0
   40.8610   32.3390   37.6370 N   0  0  0  0  0  0  0  0  0  0  0  0
   43.8900   31.8540   36.2970 H   0  0  0  0  0  0  0  0  0  0  0  0
   43.2240   29.4960   36.6610 H   0  0  0  0  0  0  0  0  0  0  0  0
   42.4060   34.0230   36.9000 N   0  0  0  0  0  0  0  0  0  0  0  0
   43.3500   34.2720   36.5460 H   0  0  0  0  0  0  0  0  0  0  0  0
   41.7110   34.7720   37.1130 H   0  0  0  0  0  0  0  0  0  0  0  0
  2  1  1  0  0  0  0
  2  7  1  0  0  0  0
  3  2  2  0  0  0  0
  4  3  1  0  0  0  0
  4  5  2  0  0  0  0
  5  6  1  0  0  0  0
  6  7  2  0  0  0  0
  6 10  1  0  0  0  0
  7 13  1  0  0  0  0
  8  4  1  0  0  0  0
  9  5  1  0  0  0  0
 12 11  1  0  0  0  0
 12 19  1  0  0  0  0
 13 12  2  0  0  0  0
 14 13  1  0  0  0  0
 14 16  2  0  0  0  0
 15 14  1  0  0  0  0
 16 18  1  0  0  0  0
 17 16  1  0  0  0  0
 18 19  2  0  0  0  0
 20 25  1  0  0  0  0
 21 22  1  0  0  0  0
 21 20  2  0  0  0  0
 22 23  2  0  0  0  0
 23 24  1  0  0  0  0
 24  3  1  0  0  0  0
 25 24  2  0  0  0  0
 26 21  1  0  0  0  0
 27 22  1  0  0  0  0
 28 20  1  0  0  0  0
 28 30  1  0  0  0  0
 29 28  1  0  0  0  0
M  END
>  <minimizedAffinity>
-5.82685184

$$$$

 OpenBabel03252506113D

 30 32  0  0  0  0  0  0  0  0999 V2000
   40.1030   28.7400   40.7850 F   0  0  0  0  0  0  0  0  0  0  0  0
   39.1770   28.4860   41.7170 C   0  0  0  0  0  0  0  0  0  0  0  0
   37.9340   29.0820   41.6270 C   0  0  0  0  0  0  0  0  0  0  0  0
   36.9470   28.8580   42.5550 C   0  0  0  0  0  0  0  0  0  0  0  0
   37.1580   28.0160   43.6300 C   0  0  0  0  0  0  0  0  0  0  0  0
   38.4220   27.4380   43.6800 C   0  0  0  0  0  0  0  0  0  0  0  0
   39.4320   27.6380   42.7740 C   0  0  0  0  0  0  0  0  0  0  0  0
   35.9660   29.3430   42.4630 H   0  0  0  0  0  0  0  0  0  0  0  0
   36.4250   27.8090   44.3760 H   0  0  0  0  0  0  0  0  0  0  0  0
   38.6370   26.7680   44.5060 H   0  0  0  0  0  0  0  0  0  0  0  0
   39.6820   24.7140   41.9290 Cl  0  0  0  0  0  0  0  0  0  0  0  0
   41.0050   25.6600   42.5990 C   0  0  0  0  0  0  0  0  0  0  0  0
   40.7220   26.9750   42.9300 C   0  0  0  0  0  0  0  0  0  0  0  0
   41.7700   27.7170   43.4580 C   0  0  0  0  0  0  0  0  0  0  0  0
   41.5860   28.7570   43.7320 H   0  0  0  0  0  0  0  0  0  0  0  0
   43.0500   27.2610   43.6770 C   0  0  0  0  0  0  0  0  0  0  0  0
   43.8070   27.9130   44.0950 H   0  0  0  0  0  0  0  0  0  0  0  0
   43.2650   25.9360   43.3230 C   0  0  0  0  0  3  0  0  0  0  0  0
   42.2740   25.1400   42.7930 C   0  0  0  0  0  3  0  0  0  0  0  0
   37.2150   32.1570   39.7290 C   0  0  0  0  0  0  0  0  0  0  0  0
   37.0890   31.6530   38.4190 C   0  0  0  0  0  0  0  0  0  0  0  0
   37.2500   30.2620   38.1820 C   0  0  0  0  0  0  0  0  0  0  0  0
   37.5230   29.4960   39.2800 N   0  0  0  0  0  0  0  0  0  0  0  0
   37.6370   29.9940   40.5060 C   0  0  0  0  0  0  0  0  0  0  0  0
   37.4840   31.3030   40.7220 N   0  0  0  0  0  0  0  0  0  0  0  0
   36.8750   32.2700   37.5750 H   0  0  0  0  0  0  0  0  0  0  0  0
   37.1630   29.8380   37.2050 H   0  0  0  0  0  0  0  0  0  0  0  0
   37.0530   33.5350   39.9490 N   0  0  0  0  0  0  0  0  0  0  0  0
   36.9110   34.1920   39.1580 H   0  0  0  0  0  0  0  0  0  0  0  0
   37.0770   33.8930   40.9300 H   0  0  0  0  0  0  0  0  0  0  0  0
  1  2  1  0  0  0  0
  2  7  1  0  0  0  0
  3  2  2  0  0  0  0
  3  4  1  0  0  0  0
  4  5  2  0  0  0  0
  5  6  1  0  0  0  0
  5  9  1  0  0  0  0
  6 10  1  0  0  0  0
  7 13  1  0  0  0  0
  7  6  2  0  0  0  0
  8  4  1  0  0  0  0
 11 12  1  0  0  0  0
 12 19  2  0  0  0  0
 12 13  1  0  0  0  0
 13 14  2  0  0  0  0
 14 16  1  0  0  0  0
 14 15  1  0  0  0  0
 16 17  1  0  0  0  0
 18 16  2  0  0  0  0
 19 18  1  0  0  0  0
 20 28  1  0  0  0  0
 20 25  1  0  0  0  0
 21 20  2  0  0  0  0
 22 21  1  0  0  0  0
 22 23  2  0  0  0  0
 23 24  1  0  0  0  0
 24 25  2  0  0  0  0
 24  3  1  0  0  0  0
 26 21  1  0  0  0  0
 27 22  1  0  0  0  0
 28 30  1  0  0  0  0
 29 28  1  0  0  0  0
M  END
>  <minimizedAffinity>
-5.82474422

$$$$

 OpenBabel03252506113D

 30 32  0  0  0  0  0  0  0  0999 V2000
   39.1050   28.2490   40.0190 F   0  0  0  0  0  0  0  0  0  0  0  0
   37.9040   28.8060   40.2120 C   0  0  0  0  0  0  0  0  0  0  0  0
   37.7590   30.1750   40.1030 C   0  0  0  0  0  0  0  0  0  0  0  0
   36.5520   30.8000   40.2910 C   0  0  0  0  0  0  0  0  0  0  0  0
   35.4160   30.0770   40.6000 C   0  0  0  0  0  0  0  0  0  0  0  0
   35.6080   28.7030   40.7000 C   0  0  0  0  0  0  0  0  0  0  0  0
   36.7970   28.0440   40.5200 C   0  0  0  0  0  0  0  0  0  0  0  0
   36.4610   31.8910   40.1990 H   0  0  0  0  0  0  0  0  0  0  0  0
   34.4560   30.5150   40.7560 H   0  0  0  0  0  0  0  0  0  0  0  0
   34.7460   28.0910   40.9410 H   0  0  0  0  0  0  0  0  0  0  0  0
   36.2810   26.3250   38.0490 Cl  0  0  0  0  0  0  0  0  0  0  0  0
   36.6730   25.6740   39.6350 C   0  0  0  0  0  0  0  0  0  0  0  0
   36.8770   26.5930   40.6500 C   0  0  0  0  0  0  0  0  0  0  0  0
   37.1860   26.0730   41.9000 C   0  0  0  0  0  0  0  0  0  0  0  0
   37.3540   26.7660   42.7260 H   0  0  0  0  0  0  0  0  0  0  0  0
   37.3040   24.7380   42.2110 C   0  0  0  0  0  0  0  0  0  0  0  0
   37.5500   24.4210   43.2170 H   0  0  0  0  0  0  0  0  0  0  0  0
   37.0870   23.8710   41.1470 C   0  0  0  0  0  3  0  0  0  0  0  0
   36.7780   24.3150   39.8810 C   0  0  0  0  0  3  0  0  0  0  0  0
   40.2130   32.1410   38.1820 C   0  0  0  0  0  0  0  0  0  0  0  0
   41.0940   32.5580   39.1990 C   0  0  0  0  0  0  0  0  0  0  0  0
   40.8520   32.1690   40.5430 C   0  0  0  0  0  0  0  0  0  0  0  0
   39.7460   31.3940   40.7510 N   0  0  0  0  0  0  0  0  0  0  0  0
   38.9290   31.0130   39.7750 C   0  0  0  0  0  0  0  0  0  0  0  0
   39.1630   31.3830   38.5130 N   0  0  0  0  0  0  0  0  0  0  0  0
   41.9530   33.1640   39.0150 H   0  0  0  0  0  0  0  0  0  0  0  0
   41.4940   32.4630   41.3460 H   0  0  0  0  0  0  0  0  0  0  0  0
   40.4650   32.5340   36.8570 N   0  0  0  0  0  0  0  0  0  0  0  0
   41.2470   33.1780   36.6270 H   0  0  0  0  0  0  0  0  0  0  0  0
   39.8500   32.1650   36.0980 H   0  0  0  0  0  0  0  0  0  0  0  0
  1  2  1  0  0  0  0
  2  7  1  0  0  0  0
  3  2  2  0  0  0  0
  3  4  1  0  0  0  0
  4  5  2  0  0  0  0
  5  6  1  0  0  0  0
  5  9  1  0  0  0  0
  6 10  1  0  0  0  0
  7 13  1  0  0  0  0
  7  6  2  0  0  0  0
  8  4  1  0  0  0  0
 11 12  1  0  0  0  0
 12 19  2  0  0  0  0
 12 13  1  0  0  0  0
 13 14  2  0  0  0  0
 14 16  1  0  0  0  0
 14 15  1  0  0  0  0
 16 17  1  0  0  0  0
 18 16  2  0  0  0  0
 19 18  1  0  0  0  0
 20 25  2  0  0  0  0
 20 21  1  0  0  0  0
 21 22  2  0  0  0  0
 22 23  1  0  0  0  0
 22 27  1  0  0  0  0
 24  3  1  0  0  0  0
 24 23  2  0  0  0  0
 25 24  1  0  0  0  0
 26 21  1  0  0  0  0
 28 20  1  0  0  0  0
 29 28  1  0  0  0  0
 30 28  1  0  0  0  0
M  END
>  <minimizedAffinity>
-5.80759573

$$$$

 OpenBabel03252506113D

 30 32  0  0  0  0  0  0  0  0999 V2000
   39.3870   27.9730   40.3080 F   0  0  0  0  0  0  0  0  0  0  0  0
   38.5290   27.8480   41.3280 C   0  0  0  0  0  0  0  0  0  0  0  0
   39.0090   27.5850   42.5960 C   0  0  0  0  0  0  0  0  0  0  0  0
   38.1760   27.4470   43.6790 C   0  0  0  0  0  0  0  0  0  0  0  0
   36.8060   27.5670   43.5440 C   0  0  0  0  0  0  0  0  0  0  0  0
   36.3680   27.8320   42.2500 C   0  0  0  0  0  0  0  0  0  0  0  0
   37.1690   27.9760   41.1460 C   0  0  0  0  0  0  0  0  0  0  0  0
   38.5800   27.2380   44.6780 H   0  0  0  0  0  0  0  0  0  0  0  0
   36.1180   27.4690   44.3520 H   0  0  0  0  0  0  0  0  0  0  0  0
   35.3000   27.9350   42.0910 H   0  0  0  0  0  0  0  0  0  0  0  0
   36.8580   30.8860   40.2740 Cl  0  0  0  0  0  0  0  0  0  0  0  0
   36.3840   29.5080   39.2880 C   0  0  0  0  0  0  0  0  0  0  0  0
   36.5940   28.2530   39.8340 C   0  0  0  0  0  0  0  0  0  0  0  0
   36.2190   27.1700   39.0510 C   0  0  0  0  0  0  0  0  0  0  0  0
   36.3680   26.1640   39.4470 H   0  0  0  0  0  0  0  0  0  0  0  0
   35.6620   27.2380   37.7940 C   0  0  0  0  0  0  0  0  0  0  0  0
   35.4000   26.3370   37.2530 H   0  0  0  0  0  0  0  0  0  0  0  0
   35.4800   28.5260   37.3070 C   0  0  0  0  0  3  0  0  0  0  0  0
   35.8290   29.6470   38.0270 C   0  0  0  0  0  3  0  0  0  0  0  0
   42.3150   26.0710   43.1890 C   0  0  0  0  0  0  0  0  0  0  0  0
   43.1420   27.2120   43.2220 C   0  0  0  0  0  0  0  0  0  0  0  0
   42.5720   28.5000   43.0430 C   0  0  0  0  0  0  0  0  0  0  0  0
   41.2210   28.5330   42.8440 N   0  0  0  0  0  0  0  0  0  0  0  0
   40.4610   27.4440   42.8170 C   0  0  0  0  0  0  0  0  0  0  0  0
   41.0040   26.2350   42.9870 N   0  0  0  0  0  0  0  0  0  0  0  0
   44.1970   27.1640   43.3790 H   0  0  0  0  0  0  0  0  0  0  0  0
   43.1620   29.3910   43.0610 H   0  0  0  0  0  0  0  0  0  0  0  0
   42.8940   24.8030   43.3680 N   0  0  0  0  0  0  0  0  0  0  0  0
   43.9220   24.6900   43.4570 H   0  0  0  0  0  0  0  0  0  0  0  0
   42.2680   23.9690   43.4120 H   0  0  0  0  0  0  0  0  0  0  0  0
  1  2  1  0  0  0  0
  2  3  1  0  0  0  0
  3 24  1  0  0  0  0
  3  4  2  0  0  0  0
  4  8  1  0  0  0  0
  5  4  1  0  0  0  0
  5  9  1  0  0  0  0
  6  5  2  0  0  0  0
  7  2  2  0  0  0  0
  7  6  1  0  0  0  0
 10  6  1  0  0  0  0
 12 13  1  0  0  0  0
 12 11  1  0  0  0  0
 13  7  1  0  0  0  0
 14 15  1  0  0  0  0
 14 13  2  0  0  0  0
 16 14  1  0  0  0  0
 17 16  1  0  0  0  0
 18 16  2  0  0  0  0
 18 19  1  0  0  0  0
 19 12  2  0  0  0  0
 20 21  1  0  0  0  0
 20 28  1  0  0  0  0
 21 26  1  0  0  0  0
 22 27  1  0  0  0  0
 22 21  2  0  0  0  0
 23 22  1  0  0  0  0
 24 23  2  0  0  0  0
 24 25  1  0  0  0  0
 25 20  2  0  0  0  0
 28 30  1  0  0  0  0
 28 29  1  0  0  0  0
M  END
>  <minimizedAffinity>
-5.71641588

$$$$

 OpenBabel03252506113D

 30 32  0  0  0  0  0  0  0  0999 V2000
   37.6040   27.8680   39.5730 F   0  0  0  0  0  0  0  0  0  0  0  0
   37.5470   29.1600   39.9150 C   0  0  0  0  0  0  0  0  0  0  0  0
   36.8970   30.0570   39.0900 C   0  0  0  0  0  0  0  0  0  0  0  0
   36.8080   31.3940   39.3900 C   0  0  0  0  0  0  0  0  0  0  0  0
   37.3700   31.9040   40.5450 C   0  0  0  0  0  0  0  0  0  0  0  0
   38.0130   30.9650   41.3450 C   0  0  0  0  0  0  0  0  0  0  0  0
   38.1230   29.6250   41.0780 C   0  0  0  0  0  0  0  0  0  0  0  0
   36.2860   32.0890   38.7190 H   0  0  0  0  0  0  0  0  0  0  0  0
   37.3280   32.9320   40.8230 H   0  0  0  0  0  0  0  0  0  0  0  0
   38.4710   31.3160   42.2630 H   0  0  0  0  0  0  0  0  0  0  0  0
   36.4760   27.7380   42.8250 Cl  0  0  0  0  0  0  0  0  0  0  0  0
   38.2330   27.8210   42.8530 C   0  0  0  0  0  0  0  0  0  0  0  0
   38.8240   28.7330   41.9950 C   0  0  0  0  0  0  0  0  0  0  0  0
   40.2110   28.7930   42.0210 C   0  0  0  0  0  0  0  0  0  0  0  0
   40.7150   29.5000   41.3590 H   0  0  0  0  0  0  0  0  0  0  0  0
   41.0360   28.0330   42.8180 C   0  0  0  0  0  0  0  0  0  0  0  0
   42.1130   28.1470   42.7710 H   0  0  0  0  0  0  0  0  0  0  0  0
   40.3780   27.1390   43.6520 C   0  0  0  0  0  3  0  0  0  0  0  0
   39.0060   27.0240   43.6800 C   0  0  0  0  0  3  0  0  0  0  0  0
   36.4630   29.0490   35.5730 C   0  0  0  0  0  0  0  0  0  0  0  0
   35.0950   28.7110   35.5460 C   0  0  0  0  0  0  0  0  0  0  0  0
   34.3180   28.8280   36.7300 C   0  0  0  0  0  0  0  0  0  0  0  0
   34.9820   29.2730   37.8380 N   0  0  0  0  0  0  0  0  0  0  0  0
   36.2730   29.5850   37.8390 C   0  0  0  0  0  0  0  0  0  0  0  0
   36.9970   29.4730   36.7230 N   0  0  0  0  0  0  0  0  0  0  0  0
   34.5960   28.3660   34.6690 H   0  0  0  0  0  0  0  0  0  0  0  0
   33.2790   28.5830   36.7550 H   0  0  0  0  0  0  0  0  0  0  0  0
   37.2190   28.9280   34.3950 N   0  0  0  0  0  0  0  0  0  0  0  0
   36.8040   28.5340   33.5290 H   0  0  0  0  0  0  0  0  0  0  0  0
   38.2130   29.2460   34.4020 H   0  0  0  0  0  0  0  0  0  0  0  0
  1  2  1  0  0  0  0
  2  7  1  0  0  0  0
  3  4  1  0  0  0  0
  3  2  2  0  0  0  0
  4  5  2  0  0  0  0
  5  9  1  0  0  0  0
  5  6  1  0  0  0  0
  6 10  1  0  0  0  0
  7  6  2  0  0  0  0
  7 13  1  0  0  0  0
  8  4  1  0  0  0  0
 11 12  1  0  0  0  0
 12 19  1  0  0  0  0
 13 14  1  0  0  0  0
 13 12  2  0  0  0  0
 14 16  2  0  0  0  0
 15 14  1  0  0  0  0
 16 18  1  0  0  0  0
 17 16  1  0  0  0  0
 18 19  2  0  0  0  0
 20 25  1  0  0  0  0
 21 20  2  0  0  0  0
 21 22  1  0  0  0  0
 22 27  1  0  0  0  0
 22 23  2  0  0  0  0
 23 24  1  0  0  0  0
 24  3  1  0  0  0  0
 25 24  2  0  0  0  0
 26 21  1  0  0  0  0
 28 30  1  0  0  0  0
 28 20  1  0  0  0  0
 29 28  1  0  0  0  0
M  END
>  <minimizedAffinity>
-5.70722485

$$$$

 OpenBabel03252506113D

 30 32  0  0  0  0  0  0  0  0999 V2000
   39.5310   27.1410   40.7790 F   0  0  0  0  0  0  0  0  0  0  0  0
   38.5720   27.2860   41.7010 C   0  0  0  0  0  0  0  0  0  0  0  0
   38.6110   28.3610   42.5660 C   0  0  0  0  0  0  0  0  0  0  0  0
   37.6540   28.5590   43.5310 C   0  0  0  0  0  0  0  0  0  0  0  0
   36.5980   27.6800   43.6780 C   0  0  0  0  0  0  0  0  0  0  0  0
   36.5990   26.6130   42.7850 C   0  0  0  0  0  0  0  0  0  0  0  0
   37.5360   26.3820   41.8110 C   0  0  0  0  0  0  0  0  0  0  0  0
   37.7070   29.4220   44.2080 H   0  0  0  0  0  0  0  0  0  0  0  0
   35.8310   27.7900   44.4100 H   0  0  0  0  0  0  0  0  0  0  0  0
   35.7900   25.8940   42.8600 H   0  0  0  0  0  0  0  0  0  0  0  0
   36.1850   26.7310   39.0940 Cl  0  0  0  0  0  0  0  0  0  0  0  0
   36.8530   25.2100   39.6720 C   0  0  0  0  0  0  0  0  0  0  0  0
   37.4320   25.2240   40.9300 C   0  0  0  0  0  0  0  0  0  0  0  0
   37.9570   24.0210   41.3810 C   0  0  0  0  0  0  0  0  0  0  0  0
   38.4220   23.9920   42.3680 H   0  0  0  0  0  0  0  0  0  0  0  0
   37.9500   22.8300   40.6910 C   0  0  0  0  0  0  0  0  0  0  0  0
   38.3850   21.9360   41.1220 H   0  0  0  0  0  0  0  0  0  0  0  0
   37.3550   22.8860   39.4380 C   0  0  0  0  0  3  0  0  0  0  0  0
   36.8140   24.0440   38.9260 C   0  0  0  0  0  3  0  0  0  0  0  0
   40.4560   31.4760   41.8800 C   0  0  0  0  0  0  0  0  0  0  0  0
   41.7550   31.1290   42.3020 C   0  0  0  0  0  0  0  0  0  0  0  0
   42.0030   29.8310   42.8220 C   0  0  0  0  0  0  0  0  0  0  0  0
   40.9260   28.9920   42.8730 N   0  0  0  0  0  0  0  0  0  0  0  0
   39.7100   29.3410   42.4690 C   0  0  0  0  0  0  0  0  0  0  0  0
   39.4840   30.5640   41.9810 N   0  0  0  0  0  0  0  0  0  0  0  0
   42.5830   31.8010   42.2530 H   0  0  0  0  0  0  0  0  0  0  0  0
   42.9720   29.5260   43.1530 H   0  0  0  0  0  0  0  0  0  0  0  0
   40.2250   32.7640   41.3680 N   0  0  0  0  0  0  0  0  0  0  0  0
   40.9770   33.4800   41.3590 H   0  0  0  0  0  0  0  0  0  0  0  0
   39.2780   32.9920   40.9930 H   0  0  0  0  0  0  0  0  0  0  0  0
  1  2  1  0  0  0  0
  2  7  2  0  0  0  0
  2  3  1  0  0  0  0
  3  4  2  0  0  0  0
  4  5  1  0  0  0  0
  4  8  1  0  0  0  0
  5  9  1  0  0  0  0
  6 10  1  0  0  0  0
  6  5  2  0  0  0  0
  7  6  1  0  0  0  0
 11 12  1  0  0  0  0
 12 13  1  0  0  0  0
 13 14  2  0  0  0  0
 13  7  1  0  0  0  0
 14 15  1  0  0  0  0
 16 17  1  0  0  0  0
 16 14  1  0  0  0  0
 18 16  2  0  0  0  0
 19 18  1  0  0  0  0
 19 12  2  0  0  0  0
 20 25  2  0  0  0  0
 20 21  1  0  0  0  0
 21 22  2  0  0  0  0
 22 23  1  0  0  0  0
 22 27  1  0  0  0  0
 24  3  1  0  0  0  0
 24 23  2  0  0  0  0
 25 24  1  0  0  0  0
 26 21  1  0  0  0  0
 28 20  1  0  0  0  0
 29 28  1  0  0  0  0
 30 28  1  0  0  0  0
M  END
>  <minimizedAffinity>
-5.5728054

$$$$
