
 OpenBabel03252506413D

 40 43  0  0  1  0  0  0  0  0999 V2000
   49.4630   33.4930   41.3220 N   0  0  1  0  0  0  0  0  0  0  0  0
   50.6750   33.0970   41.9940 C   0  0  0  0  0  0  0  0  0  0  0  0
   51.2370   31.7830   41.5960 C   0  0  0  0  0  0  0  0  0  0  0  0
   50.2610   30.6820   41.9740 C   0  0  0  0  0  0  0  0  0  0  0  0
   48.8620   31.1520   41.7910 C   0  0  0  0  0  0  0  0  0  0  0  0
   48.7630   32.3120   40.8510 C   0  0  2  0  0  0  0  0  0  0  0  0
   50.4970   33.0540   43.0980 H   0  0  0  0  0  0  0  0  0  0  0  0
   51.4770   33.8860   41.8970 H   0  0  0  0  0  0  0  0  0  0  0  0
   52.1940   31.6700   42.1810 H   0  0  0  0  0  0  0  0  0  0  0  0
   51.5130   31.6280   40.5620 H   0  0  0  0  0  0  0  0  0  0  0  0
   50.5040   29.7260   41.4690 H   0  0  0  0  0  0  0  0  0  0  0  0
   50.4150   30.4870   43.0580 H   0  0  0  0  0  0  0  0  0  0  0  0
   48.1580   30.3680   41.4710 H   0  0  0  0  0  0  0  0  0  0  0  0
   48.4250   31.5230   42.7660 H   0  0  0  0  0  0  0  0  0  0  0  0
   47.6700   32.6280   40.9250 H   0  0  0  0  0  0  0  0  0  0  0  0
   48.3290   34.4180   38.5530 Cl  0  0  0  0  0  0  0  0  0  0  0  0
   48.8610   32.7980   38.3050 C   0  0  0  0  0  0  0  0  0  0  0  0
   48.9570   32.0200   39.4300 C   0  0  0  0  0  0  0  0  0  0  0  0
   49.3480   30.6880   39.2400 C   0  0  0  0  0  0  0  0  0  0  0  0
   49.5000   29.8690   39.9350 H   0  0  0  0  0  0  0  0  0  0  0  0
   49.6180   30.2210   37.9470 C   0  0  0  0  0  0  0  0  0  0  0  0
   49.9260   29.2220   37.6730 H   0  0  0  0  0  0  0  0  0  0  0  0
   49.5060   31.0520   36.8450 C   0  0  0  0  0  0  0  0  0  0  0  0
   49.1210   32.3600   37.0380 C   0  0  0  0  0  0  0  0  0  0  0  0
   47.3200   34.7900   41.9470 C   0  0  1  0  0  0  0  0  0  0  0  0
   48.4700   35.7030   41.8280 C   0  0  0  0  0  0  0  0  0  0  0  0
   48.7030   34.2920   42.2200 C   0  0  2  0  0  0  0  0  0  0  0  0
   46.8090   34.4750   41.0210 H   0  0  0  0  0  0  0  0  0  0  0  0
   48.5810   36.4920   42.6200 H   0  0  0  0  0  0  0  0  0  0  0  0
   48.7070   36.0820   40.8210 H   0  0  0  0  0  0  0  0  0  0  0  0
   48.9190   34.1240   43.3030 H   0  0  0  0  0  0  0  0  0  0  0  0
   45.5300   36.0710   43.1640 C   0  0  0  0  0  0  0  0  0  0  0  0
   46.3790   34.9490   43.0850 C   0  0  0  0  0  0  0  0  0  0  0  0
   46.2970   33.9930   44.1080 C   0  0  0  0  0  0  0  0  0  0  0  0
   45.4080   34.2050   45.1070 N   0  0  0  0  0  0  0  0  0  0  0  0
   44.6040   35.2890   45.1600 C   0  0  0  0  0  0  0  0  0  0  0  0
   44.6600   36.2380   44.1800 N   0  0  0  0  0  0  0  0  0  0  0  0
   45.6400   36.7800   42.3390 H   0  0  0  0  0  0  0  0  0  0  0  0
   46.9300   33.1180   44.0860 H   0  0  0  0  0  0  0  0  0  0  0  0
   43.8960   35.4420   45.9720 H   0  0  0  0  0  0  0  0  0  0  0  0
  1  2  1  1  0  0  0
  1 27  1  0  0  0  0
  2  7  1  0  0  0  0
  3  4  1  0  0  0  0
  3  2  1  0  0  0  0
  3  9  1  0  0  0  0
  4 12  1  0  0  0  0
  5  4  1  0  0  0  0
  5 14  1  0  0  0  0
  6 15  1  1  0  0  0
  6  1  1  0  0  0  0
  6  5  1  0  0  0  0
  8  2  1  0  0  0  0
 10  3  1  0  0  0  0
 11  4  1  0  0  0  0
 13  5  1  0  0  0  0
 17 16  1  0  0  0  0
 17 18  1  0  0  0  0
 18  6  1  0  0  0  0
 19 18  2  0  0  0  0
 19 20  1  0  0  0  0
 21 19  1  0  0  0  0
 22 21  1  0  0  0  0
 23 24  1  0  0  0  0
 23 21  2  0  0  0  0
 24 17  2  0  0  0  0
 25 28  1  6  0  0  0
 25 27  1  0  0  0  0
 25 33  1  0  0  0  0
 26 25  1  0  0  0  0
 26 27  1  0  0  0  0
 26 29  1  0  0  0  0
 27 31  1  1  0  0  0
 30 26  1  0  0  0  0
 32 37  1  0  0  0  0
 33 32  2  0  0  0  0
 33 34  1  0  0  0  0
 34 35  2  0  0  0  0
 35 36  1  0  0  0  0
 36 40  1  0  0  0  0
 37 36  2  0  0  0  0
 38 32  1  0  0  0  0
 39 34  1  0  0  0  0
M  END
>  <minimizedAffinity>
-5.26918316

>  <minimizedRMSD>
1.12020421

$$$$
