
 OpenBabel03242516153D

 41 44  0  0  0  0  0  0  0  0999 V2000
   39.2310   28.7280   39.9210 C   0  0  0  0  0  0  0  0  0  0  0  0
   39.4710   28.3770   38.4490 C   0  0  0  0  0  0  0  0  0  0  0  0
   40.5270   28.2720   39.4360 C   0  0  0  0  0  0  0  0  0  0  0  0
   38.9760   27.5030   38.0110 H   0  0  0  0  0  0  0  0  0  0  0  0
   39.4090   29.2780   37.7690 H   0  0  0  0  0  0  0  0  0  0  0  0
   40.8190   27.2190   39.7400 H   0  0  0  0  0  0  0  0  0  0  0  0
   41.4170   28.8780   39.2690 H   0  0  0  0  0  0  0  0  0  0  0  0
   38.3510   27.7450   40.6290 C   0  0  0  0  0  0  0  0  0  0  0  0
   38.2410   27.9410   42.1230 C   0  0  0  0  0  0  0  0  0  0  0  0
   37.1570   26.9340   42.5580 C   0  0  0  0  0  0  0  0  0  0  0  0
   37.7890   25.6930   42.5540 O   0  0  0  0  0  0  0  0  0  0  0  0
   37.8980   25.3780   41.1620 C   0  0  0  0  0  0  0  0  0  0  0  0
   38.8850   26.3280   40.5060 C   0  0  0  0  0  0  0  0  0  0  0  0
   37.3110   27.7660   40.2330 H   0  0  0  0  0  0  0  0  0  0  0  0
   39.1950   27.7260   42.6380 H   0  0  0  0  0  0  0  0  0  0  0  0
   37.8290   28.9400   42.3860 H   0  0  0  0  0  0  0  0  0  0  0  0
   36.7460   27.2280   43.5420 H   0  0  0  0  0  0  0  0  0  0  0  0
   36.3680   26.9490   41.7830 H   0  0  0  0  0  0  0  0  0  0  0  0
   36.9100   25.4050   40.6650 H   0  0  0  0  0  0  0  0  0  0  0  0
   38.3760   24.3820   41.1740 H   0  0  0  0  0  0  0  0  0  0  0  0
   38.9350   26.0380   39.4540 H   0  0  0  0  0  0  0  0  0  0  0  0
   39.8520   26.2350   41.0390 H   0  0  0  0  0  0  0  0  0  0  0  0
   40.0520   30.8890   40.8860 C   0  0  0  0  0  0  0  0  0  0  0  0
   39.0270   30.1700   40.2440 C   0  0  0  0  0  0  0  0  0  0  0  0
   37.8370   30.8500   39.9570 C   0  0  0  0  0  0  0  0  0  0  0  0
   37.7030   32.1440   40.2940 N   0  0  0  0  0  0  0  0  0  0  0  0
   38.7290   32.7900   40.9110 C   0  0  0  0  0  0  0  0  0  0  0  0
   39.8940   32.1970   41.2160 N   0  0  0  0  0  0  0  0  0  0  0  0
   38.6610   34.1610   41.2630 N   0  0  0  0  0  0  0  0  0  0  0  0
   40.9860   30.4060   41.1200 H   0  0  0  0  0  0  0  0  0  0  0  0
   38.2780   34.6000   42.1010 H   0  0  0  0  0  0  0  0  0  0  0  0
   39.0770   34.7610   40.5170 H   0  0  0  0  0  0  0  0  0  0  0  0
   37.3890   30.6340   36.9030 Cl  0  0  0  0  0  0  0  0  0  0  0  0
   36.2560   29.9890   38.1000 C   0  0  0  0  0  0  0  0  0  0  0  0
   36.6620   30.3070   39.3550 C   0  0  0  0  0  0  0  0  0  0  0  0
   35.7770   29.8630   40.3630 C   0  0  0  0  0  0  0  0  0  0  0  0
   35.7840   29.9370   41.4350 H   0  0  0  0  0  0  0  0  0  0  0  0
   34.6200   29.1670   40.0010 C   0  0  0  0  0  0  0  0  0  0  0  0
   33.8530   28.7570   40.6800 H   0  0  0  0  0  0  0  0  0  0  0  0
   34.3310   28.9080   38.6590 C   0  0  0  0  0  3  0  0  0  0  0  0
   35.1630   29.3200   37.6190 C   0  0  0  0  0  3  0  0  0  0  0  0
  1 24  1  0  0  0  0
  1  8  1  0  0  0  0
  2  3  1  0  0  0  0
  2  1  1  0  0  0  0
  3  6  1  0  0  0  0
  3  1  1  0  0  0  0
  4  2  1  0  0  0  0
  5  2  1  0  0  0  0
  7  3  1  0  0  0  0
  8  9  1  0  0  0  0
  9 16  1  0  0  0  0
  9 10  1  0  0  0  0
  9 15  1  0  0  0  0
 10 17  1  0  0  0  0
 11 10  1  0  0  0  0
 12 20  1  0  0  0  0
 12 11  1  0  0  0  0
 13  8  1  0  0  0  0
 13 22  1  0  0  0  0
 13 12  1  0  0  0  0
 14  8  1  0  0  0  0
 18 10  1  0  0  0  0
 19 12  1  0  0  0  0
 21 13  1  0  0  0  0
 23 30  1  0  0  0  0
 23 28  1  0  0  0  0
 24 23  2  0  0  0  0
 25 24  1  0  0  0  0
 25 26  2  0  0  0  0
 26 27  1  0  0  0  0
 27 28  2  0  0  0  0
 27 29  1  0  0  0  0
 29 31  1  0  0  0  0
 32 29  1  0  0  0  0
 33 34  1  0  0  0  0
 34 35  1  0  0  0  0
 35 25  1  0  0  0  0
 35 36  2  0  0  0  0
 36 37  1  0  0  0  0
 38 36  1  0  0  0  0
 38 39  1  0  0  0  0
 40 38  2  0  0  0  0
 41 34  2  0  0  0  0
 41 40  1  0  0  0  0
M  END
>  <minimizedAffinity>
-5.76069307

$$$$

 OpenBabel03242516153D

 41 44  0  0  0  0  0  0  0  0999 V2000
   37.9840   28.0710   42.4670 C   0  0  0  0  0  0  0  0  0  0  0  0
   36.6360   27.5440   42.9690 C   0  0  0  0  0  0  0  0  0  0  0  0
   37.3560   28.5850   43.6770 C   0  0  0  0  0  0  0  0  0  0  0  0
   35.7270   27.7370   42.3900 H   0  0  0  0  0  0  0  0  0  0  0  0
   36.6890   26.4710   43.3200 H   0  0  0  0  0  0  0  0  0  0  0  0
   36.9230   29.6300   43.5960 H   0  0  0  0  0  0  0  0  0  0  0  0
   37.6400   28.3720   44.7080 H   0  0  0  0  0  0  0  0  0  0  0  0
   37.8750   28.8780   41.2110 C   0  0  0  0  0  0  0  0  0  0  0  0
   39.1640   29.5060   40.7360 C   0  0  0  0  0  0  0  0  0  0  0  0
   38.8070   30.1080   39.3620 C   0  0  0  0  0  0  0  0  0  0  0  0
   38.0980   31.2720   39.6450 O   0  0  0  0  0  0  0  0  0  0  0  0
   36.8170   30.7890   40.0610 C   0  0  0  0  0  0  0  0  0  0  0  0
   36.9560   30.0740   41.3950 C   0  0  0  0  0  0  0  0  0  0  0  0
   37.4920   28.2670   40.3620 H   0  0  0  0  0  0  0  0  0  0  0  0
   39.5140   30.2980   41.4230 H   0  0  0  0  0  0  0  0  0  0  0  0
   39.9470   28.7460   40.5240 H   0  0  0  0  0  0  0  0  0  0  0  0
   39.7310   30.2740   38.7750 H   0  0  0  0  0  0  0  0  0  0  0  0
   38.1430   29.3850   38.8510 H   0  0  0  0  0  0  0  0  0  0  0  0
   36.3630   30.1370   39.2910 H   0  0  0  0  0  0  0  0  0  0  0  0
   36.2570   31.7210   40.2590 H   0  0  0  0  0  0  0  0  0  0  0  0
   35.9530   29.7360   41.6670 H   0  0  0  0  0  0  0  0  0  0  0  0
   37.3960   30.7880   42.1190 H   0  0  0  0  0  0  0  0  0  0  0  0
   40.1410   27.3880   43.5440 C   0  0  0  0  0  0  0  0  0  0  0  0
   39.1500   27.1470   42.5740 C   0  0  0  0  0  0  0  0  0  0  0  0
   39.3230   26.0440   41.7280 C   0  0  0  0  0  0  0  0  0  0  0  0
   40.4080   25.2600   41.8580 N   0  0  0  0  0  0  0  0  0  0  0  0
   41.3330   25.5400   42.8150 C   0  0  0  0  0  0  0  0  0  0  0  0
   41.2280   26.5820   43.6560 N   0  0  0  0  0  0  0  0  0  0  0  0
   42.4790   24.7340   43.0220 N   0  0  0  0  0  0  0  0  0  0  0  0
   40.0440   28.2220   44.2190 H   0  0  0  0  0  0  0  0  0  0  0  0
   43.3890   24.7660   42.5600 H   0  0  0  0  0  0  0  0  0  0  0  0
   42.3090   24.0220   43.7650 H   0  0  0  0  0  0  0  0  0  0  0  0
   36.7690   24.3340   42.0850 Cl  0  0  0  0  0  0  0  0  0  0  0  0
   37.2720   25.0190   40.5330 C   0  0  0  0  0  0  0  0  0  0  0  0
   38.4700   25.6420   40.6560 C   0  0  0  0  0  0  0  0  0  0  0  0
   38.9570   26.1740   39.4420 C   0  0  0  0  0  0  0  0  0  0  0  0
   39.8470   26.7170   39.1780 H   0  0  0  0  0  0  0  0  0  0  0  0
   38.2000   26.0250   38.2760 C   0  0  0  0  0  0  0  0  0  0  0  0
   38.4540   26.3970   37.2680 H   0  0  0  0  0  0  0  0  0  0  0  0
   36.9730   25.3580   38.3000 C   0  0  0  0  0  3  0  0  0  0  0  0
   36.4390   24.8100   39.4660 C   0  0  0  0  0  3  0  0  0  0  0  0
  1 24  1  0  0  0  0
  1  2  1  0  0  0  0
  1  3  1  0  0  0  0
  2  5  1  0  0  0  0
  2  3  1  0  0  0  0
  3  7  1  0  0  0  0
  4  2  1  0  0  0  0
  6  3  1  0  0  0  0
  8 13  1  0  0  0  0
  8  1  1  0  0  0  0
  9  8  1  0  0  0  0
  9 15  1  0  0  0  0
 10 11  1  0  0  0  0
 10  9  1  0  0  0  0
 11 12  1  0  0  0  0
 12 20  1  0  0  0  0
 12 13  1  0  0  0  0
 13 21  1  0  0  0  0
 13 22  1  0  0  0  0
 14  8  1  0  0  0  0
 16  9  1  0  0  0  0
 17 10  1  0  0  0  0
 18 10  1  0  0  0  0
 19 12  1  0  0  0  0
 23 28  1  0  0  0  0
 23 30  1  0  0  0  0
 24 23  2  0  0  0  0
 25 26  2  0  0  0  0
 25 24  1  0  0  0  0
 26 27  1  0  0  0  0
 27 29  1  0  0  0  0
 27 28  2  0  0  0  0
 29 32  1  0  0  0  0
 31 29  1  0  0  0  0
 34 35  1  0  0  0  0
 34 33  1  0  0  0  0
 35 25  1  0  0  0  0
 36 35  2  0  0  0  0
 37 36  1  0  0  0  0
 38 40  2  0  0  0  0
 38 36  1  0  0  0  0
 39 38  1  0  0  0  0
 40 41  1  0  0  0  0
 41 34  2  0  0  0  0
M  END
>  <minimizedAffinity>
-5.65784168

$$$$

 OpenBabel03242516153D

 41 44  0  0  0  0  0  0  0  0999 V2000
   35.7500   28.9910   39.0230 C   0  0  0  0  0  0  0  0  0  0  0  0
   34.2390   28.9040   38.7910 C   0  0  0  0  0  0  0  0  0  0  0  0
   34.7950   29.0330   40.1230 C   0  0  0  0  0  0  0  0  0  0  0  0
   33.7190   29.7230   38.2810 H   0  0  0  0  0  0  0  0  0  0  0  0
   33.9140   27.8940   38.4000 H   0  0  0  0  0  0  0  0  0  0  0  0
   34.6660   30.0450   40.6190 H   0  0  0  0  0  0  0  0  0  0  0  0
   34.5690   28.2340   40.8290 H   0  0  0  0  0  0  0  0  0  0  0  0
   36.3490   30.2790   38.5530 C   0  0  0  0  0  0  0  0  0  0  0  0
   37.6440   30.1450   37.7860 C   0  0  0  0  0  0  0  0  0  0  0  0
   37.9320   31.5720   37.2770 C   0  0  0  0  0  0  0  0  0  0  0  0
   38.4140   32.2650   38.3840 O   0  0  0  0  0  0  0  0  0  0  0  0
   37.2410   32.4980   39.1690 C   0  0  0  0  0  0  0  0  0  0  0  0
   36.7310   31.1760   39.7190 C   0  0  0  0  0  0  0  0  0  0  0  0
   35.6510   30.8400   37.8920 H   0  0  0  0  0  0  0  0  0  0  0  0
   38.4700   29.7930   38.4310 H   0  0  0  0  0  0  0  0  0  0  0  0
   37.5260   29.5290   36.8690 H   0  0  0  0  0  0  0  0  0  0  0  0
   38.6400   31.5290   36.4280 H   0  0  0  0  0  0  0  0  0  0  0  0
   36.9660   32.0060   36.9600 H   0  0  0  0  0  0  0  0  0  0  0  0
   36.4640   33.0260   38.5840 H   0  0  0  0  0  0  0  0  0  0  0  0
   37.6320   33.0690   40.0300 H   0  0  0  0  0  0  0  0  0  0  0  0
   35.8450   31.4130   40.3130 H   0  0  0  0  0  0  0  0  0  0  0  0
   37.5490   30.7140   40.3060 H   0  0  0  0  0  0  0  0  0  0  0  0
   36.3850   27.0560   37.5640 C   0  0  0  0  0  0  0  0  0  0  0  0
   36.5410   27.7500   38.7780 C   0  0  0  0  0  0  0  0  0  0  0  0
   37.4310   27.2200   39.7210 C   0  0  0  0  0  0  0  0  0  0  0  0
   38.0980   26.0850   39.4520 N   0  0  0  0  0  0  0  0  0  0  0  0
   37.9100   25.4560   38.2610 C   0  0  0  0  0  0  0  0  0  0  0  0
   37.0720   25.9110   37.3150 N   0  0  0  0  0  0  0  0  0  0  0  0
   38.6070   24.2760   37.9060 N   0  0  0  0  0  0  0  0  0  0  0  0
   35.7160   27.4320   36.8090 H   0  0  0  0  0  0  0  0  0  0  0  0
   38.3840   23.3010   38.1130 H   0  0  0  0  0  0  0  0  0  0  0  0
   39.4660   24.4970   37.3560 H   0  0  0  0  0  0  0  0  0  0  0  0
   39.6660   29.2670   40.3460 Cl  0  0  0  0  0  0  0  0  0  0  0  0
   38.5110   28.6890   41.5550 C   0  0  0  0  0  0  0  0  0  0  0  0
   37.7070   27.7340   41.0240 C   0  0  0  0  0  0  0  0  0  0  0  0
   36.7880   27.1910   41.9490 C   0  0  0  0  0  0  0  0  0  0  0  0
   36.0230   26.4400   41.8760 H   0  0  0  0  0  0  0  0  0  0  0  0
   36.7820   27.6620   43.2660 C   0  0  0  0  0  0  0  0  0  0  0  0
   36.1170   27.3370   44.0840 H   0  0  0  0  0  0  0  0  0  0  0  0
   37.6730   28.6600   43.6730 C   0  0  0  0  0  3  0  0  0  0  0  0
   38.6030   29.2330   42.8080 C   0  0  0  0  0  3  0  0  0  0  0  0
  1  3  1  0  0  0  0
  2  1  1  0  0  0  0
  2  3  1  0  0  0  0
  3  6  1  0  0  0  0
  3  7  1  0  0  0  0
  4  2  1  0  0  0  0
  5  2  1  0  0  0  0
  8  1  1  0  0  0  0
  8 13  1  0  0  0  0
  9 15  1  0  0  0  0
  9  8  1  0  0  0  0
 10  9  1  0  0  0  0
 10 11  1  0  0  0  0
 11 12  1  0  0  0  0
 12 13  1  0  0  0  0
 12 20  1  0  0  0  0
 13 22  1  0  0  0  0
 13 21  1  0  0  0  0
 14  8  1  0  0  0  0
 16  9  1  0  0  0  0
 17 10  1  0  0  0  0
 18 10  1  0  0  0  0
 19 12  1  0  0  0  0
 23 24  1  0  0  0  0
 24  1  1  0  0  0  0
 24 25  2  0  0  0  0
 25 35  1  0  0  0  0
 26 25  1  0  0  0  0
 27 26  2  0  0  0  0
 28 23  2  0  0  0  0
 28 27  1  0  0  0  0
 29 31  1  0  0  0  0
 29 27  1  0  0  0  0
 30 23  1  0  0  0  0
 32 29  1  0  0  0  0
 33 34  1  0  0  0  0
 34 41  1  0  0  0  0
 35 34  2  0  0  0  0
 35 36  1  0  0  0  0
 36 38  2  0  0  0  0
 37 36  1  0  0  0  0
 38 40  1  0  0  0  0
 38 39  1  0  0  0  0
 41 40  2  0  0  0  0
M  END
>  <minimizedAffinity>
-5.65569973

$$$$

 OpenBabel03242516153D

 41 44  0  0  0  0  0  0  0  0999 V2000
   36.1720   29.0810   40.1900 C   0  0  0  0  0  0  0  0  0  0  0  0
   34.6750   29.2240   39.8960 C   0  0  0  0  0  0  0  0  0  0  0  0
   35.5300   28.3800   39.0840 C   0  0  0  0  0  0  0  0  0  0  0  0
   33.9410   28.8220   40.6040 H   0  0  0  0  0  0  0  0  0  0  0  0
   34.3960   30.2620   39.5460 H   0  0  0  0  0  0  0  0  0  0  0  0
   35.4010   27.2620   39.2240 H   0  0  0  0  0  0  0  0  0  0  0  0
   35.5970   28.6240   38.0240 H   0  0  0  0  0  0  0  0  0  0  0  0
   36.4600   28.3170   41.4440 C   0  0  0  0  0  0  0  0  0  0  0  0
   37.5130   28.9240   42.3400 C   0  0  0  0  0  0  0  0  0  0  0  0
   37.4760   28.0530   43.6120 C   0  0  0  0  0  0  0  0  0  0  0  0
   38.1410   26.8790   43.2720 O   0  0  0  0  0  0  0  0  0  0  0  0
   37.1960   26.1860   42.4500 C   0  0  0  0  0  0  0  0  0  0  0  0
   37.0190   26.9370   41.1410 C   0  0  0  0  0  0  0  0  0  0  0  0
   35.5470   28.1970   42.0700 H   0  0  0  0  0  0  0  0  0  0  0  0
   38.5170   28.8880   41.8790 H   0  0  0  0  0  0  0  0  0  0  0  0
   37.2350   29.9450   42.6810 H   0  0  0  0  0  0  0  0  0  0  0  0
   37.9340   28.6040   44.4550 H   0  0  0  0  0  0  0  0  0  0  0  0
   36.4130   27.8290   43.8230 H   0  0  0  0  0  0  0  0  0  0  0  0
   36.2330   26.0450   42.9770 H   0  0  0  0  0  0  0  0  0  0  0  0
   37.7250   25.2470   42.2080 H   0  0  0  0  0  0  0  0  0  0  0  0
   36.2980   26.3620   40.5540 H   0  0  0  0  0  0  0  0  0  0  0  0
   38.0140   27.0240   40.6620 H   0  0  0  0  0  0  0  0  0  0  0  0
   36.7310   31.4990   40.5310 C   0  0  0  0  0  0  0  0  0  0  0  0
   37.0290   30.2700   39.9130 C   0  0  0  0  0  0  0  0  0  0  0  0
   38.1210   30.2310   39.0370 C   0  0  0  0  0  0  0  0  0  0  0  0
   38.8420   31.3420   38.8100 N   0  0  0  0  0  0  0  0  0  0  0  0
   38.5090   32.5020   39.4360 C   0  0  0  0  0  0  0  0  0  0  0  0
   37.4750   32.6090   40.2860 N   0  0  0  0  0  0  0  0  0  0  0  0
   39.2490   33.6980   39.2620 N   0  0  0  0  0  0  0  0  0  0  0  0
   35.9030   31.5730   41.2160 H   0  0  0  0  0  0  0  0  0  0  0  0
   39.1660   34.4160   38.5410 H   0  0  0  0  0  0  0  0  0  0  0  0
   39.9690   33.8070   40.0100 H   0  0  0  0  0  0  0  0  0  0  0  0
   40.1000   28.0980   40.0890 Cl  0  0  0  0  0  0  0  0  0  0  0  0
   39.3110   27.9960   38.5090 C   0  0  0  0  0  0  0  0  0  0  0  0
   38.5700   29.1090   38.2770 C   0  0  0  0  0  0  0  0  0  0  0  0
   37.9470   29.1180   37.0100 C   0  0  0  0  0  0  0  0  0  0  0  0
   37.3050   29.8190   36.5080 H   0  0  0  0  0  0  0  0  0  0  0  0
   38.1320   28.0340   36.1470 C   0  0  0  0  0  0  0  0  0  0  0  0
   37.7000   27.9050   35.1390 H   0  0  0  0  0  0  0  0  0  0  0  0
   38.9260   26.9460   36.5240 C   0  0  0  0  0  3  0  0  0  0  0  0
   39.5680   26.8790   37.7600 C   0  0  0  0  0  3  0  0  0  0  0  0
  1  8  1  0  0  0  0
  2  1  1  0  0  0  0
  2  4  1  0  0  0  0
  3  6  1  0  0  0  0
  3  2  1  0  0  0  0
  3  1  1  0  0  0  0
  5  2  1  0  0  0  0
  7  3  1  0  0  0  0
  8 14  1  0  0  0  0
  8  9  1  0  0  0  0
  9 16  1  0  0  0  0
  9 10  1  0  0  0  0
 10 18  1  0  0  0  0
 10 17  1  0  0  0  0
 11 10  1  0  0  0  0
 12 19  1  0  0  0  0
 12 11  1  0  0  0  0
 13  8  1  0  0  0  0
 13 12  1  0  0  0  0
 15  9  1  0  0  0  0
 20 12  1  0  0  0  0
 21 13  1  0  0  0  0
 22 13  1  0  0  0  0
 23 30  1  0  0  0  0
 24  1  1  0  0  0  0
 24 23  2  0  0  0  0
 25 24  1  0  0  0  0
 26 25  2  0  0  0  0
 26 27  1  0  0  0  0
 27 28  2  0  0  0  0
 28 23  1  0  0  0  0
 29 27  1  0  0  0  0
 29 32  1  0  0  0  0
 31 29  1  0  0  0  0
 34 33  1  0  0  0  0
 35 34  1  0  0  0  0
 35 25  1  0  0  0  0
 36 35  2  0  0  0  0
 37 36  1  0  0  0  0
 38 40  2  0  0  0  0
 38 36  1  0  0  0  0
 39 38  1  0  0  0  0
 40 41  1  0  0  0  0
 41 34  2  0  0  0  0
M  END
>  <minimizedAffinity>
-5.61187315

$$$$

 OpenBabel03242516153D

 41 44  0  0  0  0  0  0  0  0999 V2000
   36.1180   29.1000   40.2660 C   0  0  0  0  0  0  0  0  0  0  0  0
   34.6130   29.2620   40.0250 C   0  0  0  0  0  0  0  0  0  0  0  0
   35.4300   28.4150   39.1780 C   0  0  0  0  0  0  0  0  0  0  0  0
   33.9000   28.8630   40.7550 H   0  0  0  0  0  0  0  0  0  0  0  0
   34.3340   30.3060   39.6940 H   0  0  0  0  0  0  0  0  0  0  0  0
   35.2930   27.2980   39.3140 H   0  0  0  0  0  0  0  0  0  0  0  0
   35.4620   28.6660   38.1180 H   0  0  0  0  0  0  0  0  0  0  0  0
   36.4400   28.3220   41.5030 C   0  0  0  0  0  0  0  0  0  0  0  0
   37.5130   28.9240   42.3800 C   0  0  0  0  0  0  0  0  0  0  0  0
   37.5110   28.0380   43.6420 C   0  0  0  0  0  0  0  0  0  0  0  0
   38.1720   26.8700   43.2710 O   0  0  0  0  0  0  0  0  0  0  0  0
   37.2090   26.1830   42.4660 C   0  0  0  0  0  0  0  0  0  0  0  0
   36.9960   26.9480   41.1710 C   0  0  0  0  0  0  0  0  0  0  0  0
   35.5430   28.1920   42.1510 H   0  0  0  0  0  0  0  0  0  0  0  0
   38.5050   28.8970   41.8930 H   0  0  0  0  0  0  0  0  0  0  0  0
   37.2400   29.9390   42.7390 H   0  0  0  0  0  0  0  0  0  0  0  0
   37.9890   28.5800   44.4800 H   0  0  0  0  0  0  0  0  0  0  0  0
   36.4550   27.8070   43.8770 H   0  0  0  0  0  0  0  0  0  0  0  0
   36.2600   26.0330   43.0150 H   0  0  0  0  0  0  0  0  0  0  0  0
   37.7350   25.2490   42.2000 H   0  0  0  0  0  0  0  0  0  0  0  0
   36.2630   26.3770   40.5960 H   0  0  0  0  0  0  0  0  0  0  0  0
   37.9780   27.0440   40.6680 H   0  0  0  0  0  0  0  0  0  0  0  0
   36.6900   31.5190   40.5720 C   0  0  0  0  0  0  0  0  0  0  0  0
   36.9780   30.2810   39.9690 C   0  0  0  0  0  0  0  0  0  0  0  0
   38.0650   30.2250   39.0870 C   0  0  0  0  0  0  0  0  0  0  0  0
   38.7890   31.3300   38.8400 N   0  0  0  0  0  0  0  0  0  0  0  0
   38.4660   32.5000   39.4540 C   0  0  0  0  0  0  0  0  0  0  0  0
   37.4370   32.6220   40.3080 N   0  0  0  0  0  0  0  0  0  0  0  0
   39.2100   33.6900   39.2600 N   0  0  0  0  0  0  0  0  0  0  0  0
   35.8670   31.6060   41.2620 H   0  0  0  0  0  0  0  0  0  0  0  0
   39.1260   34.3980   38.5300 H   0  0  0  0  0  0  0  0  0  0  0  0
   39.9350   33.8050   40.0010 H   0  0  0  0  0  0  0  0  0  0  0  0
   37.0560   29.5190   36.2480 Cl  0  0  0  0  0  0  0  0  0  0  0  0
   38.3320   28.6180   37.0780 C   0  0  0  0  0  0  0  0  0  0  0  0
   38.5040   29.0920   38.3380 C   0  0  0  0  0  0  0  0  0  0  0  0
   39.4780   28.3860   39.0780 C   0  0  0  0  0  0  0  0  0  0  0  0
   39.8610   28.4860   40.0770 H   0  0  0  0  0  0  0  0  0  0  0  0
   40.1510   27.3160   38.4800 C   0  0  0  0  0  0  0  0  0  0  0  0
   40.9360   26.6890   38.9350 H   0  0  0  0  0  0  0  0  0  0  0  0
   39.8700   26.9400   37.1640 C   0  0  0  0  0  3  0  0  0  0  0  0
   38.9200   27.5960   36.3820 C   0  0  0  0  0  3  0  0  0  0  0  0
  1  8  1  0  0  0  0
  2  1  1  0  0  0  0
  2  4  1  0  0  0  0
  3  6  1  0  0  0  0
  3  2  1  0  0  0  0
  3  1  1  0  0  0  0
  5  2  1  0  0  0  0
  7  3  1  0  0  0  0
  8 14  1  0  0  0  0
  8  9  1  0  0  0  0
  9 16  1  0  0  0  0
  9 10  1  0  0  0  0
 10 18  1  0  0  0  0
 10 17  1  0  0  0  0
 11 10  1  0  0  0  0
 12 19  1  0  0  0  0
 12 11  1  0  0  0  0
 13  8  1  0  0  0  0
 13 12  1  0  0  0  0
 15  9  1  0  0  0  0
 20 12  1  0  0  0  0
 21 13  1  0  0  0  0
 22 13  1  0  0  0  0
 23 30  1  0  0  0  0
 24  1  1  0  0  0  0
 24 23  2  0  0  0  0
 25 24  1  0  0  0  0
 26 25  2  0  0  0  0
 26 27  1  0  0  0  0
 27 28  2  0  0  0  0
 28 23  1  0  0  0  0
 29 27  1  0  0  0  0
 29 32  1  0  0  0  0
 31 29  1  0  0  0  0
 33 34  1  0  0  0  0
 34 35  1  0  0  0  0
 35 36  2  0  0  0  0
 35 25  1  0  0  0  0
 36 37  1  0  0  0  0
 38 39  1  0  0  0  0
 38 36  1  0  0  0  0
 40 38  2  0  0  0  0
 41 34  2  0  0  0  0
 41 40  1  0  0  0  0
M  END
>  <minimizedAffinity>
-5.60153103

$$$$

 OpenBabel03242516153D

 41 44  0  0  0  0  0  0  0  0999 V2000
   36.6150   29.3850   39.1520 C   0  0  0  0  0  0  0  0  0  0  0  0
   35.5660   28.6580   39.9990 C   0  0  0  0  0  0  0  0  0  0  0  0
   35.2020   29.3800   38.7960 C   0  0  0  0  0  0  0  0  0  0  0  0
   35.5760   27.5640   40.0570 H   0  0  0  0  0  0  0  0  0  0  0  0
   35.4210   29.1300   41.0160 H   0  0  0  0  0  0  0  0  0  0  0  0
   34.9270   28.7420   37.8990 H   0  0  0  0  0  0  0  0  0  0  0  0
   34.4910   30.1990   38.9100 H   0  0  0  0  0  0  0  0  0  0  0  0
   37.5350   28.4570   38.4230 C   0  0  0  0  0  0  0  0  0  0  0  0
   38.4960   29.1230   37.4680 C   0  0  0  0  0  0  0  0  0  0  0  0
   39.4240   27.9810   37.0060 C   0  0  0  0  0  0  0  0  0  0  0  0
   38.6780   27.2550   36.0810 O   0  0  0  0  0  0  0  0  0  0  0  0
   37.7520   26.5290   36.8960 C   0  0  0  0  0  0  0  0  0  0  0  0
   36.7670   27.4990   37.5270 C   0  0  0  0  0  0  0  0  0  0  0  0
   38.1570   27.8590   39.1270 H   0  0  0  0  0  0  0  0  0  0  0  0
   37.9740   29.5680   36.6010 H   0  0  0  0  0  0  0  0  0  0  0  0
   39.1650   29.8470   37.9820 H   0  0  0  0  0  0  0  0  0  0  0  0
   40.3610   28.4030   36.5970 H   0  0  0  0  0  0  0  0  0  0  0  0
   39.6310   27.3510   37.8910 H   0  0  0  0  0  0  0  0  0  0  0  0
   38.2770   25.9220   37.6580 H   0  0  0  0  0  0  0  0  0  0  0  0
   37.1840   25.9390   36.1540 H   0  0  0  0  0  0  0  0  0  0  0  0
   36.0840   26.8940   38.1280 H   0  0  0  0  0  0  0  0  0  0  0  0
   36.2680   28.0560   36.7110 H   0  0  0  0  0  0  0  0  0  0  0  0
   37.0000   31.8600   39.1350 C   0  0  0  0  0  0  0  0  0  0  0  0
   37.2240   30.6120   39.7430 C   0  0  0  0  0  0  0  0  0  0  0  0
   38.0420   30.5790   40.8800 C   0  0  0  0  0  0  0  0  0  0  0  0
   38.5820   31.7160   41.3520 N   0  0  0  0  0  0  0  0  0  0  0  0
   38.3300   32.8960   40.7250 C   0  0  0  0  0  0  0  0  0  0  0  0
   37.5570   32.9950   39.6310 N   0  0  0  0  0  0  0  0  0  0  0  0
   38.8440   34.1300   41.1920 N   0  0  0  0  0  0  0  0  0  0  0  0
   36.3730   31.9310   38.2620 H   0  0  0  0  0  0  0  0  0  0  0  0
   39.7460   34.5710   41.0070 H   0  0  0  0  0  0  0  0  0  0  0  0
   38.1570   34.6130   41.8110 H   0  0  0  0  0  0  0  0  0  0  0  0
   40.5910   28.9240   40.3040 Cl  0  0  0  0  0  0  0  0  0  0  0  0
   39.5140   28.6050   41.6710 C   0  0  0  0  0  0  0  0  0  0  0  0
   38.4330   29.4250   41.6230 C   0  0  0  0  0  0  0  0  0  0  0  0
   37.5040   29.1940   42.6600 C   0  0  0  0  0  0  0  0  0  0  0  0
   36.5640   29.6450   42.9230 H   0  0  0  0  0  0  0  0  0  0  0  0
   37.7630   28.1950   43.6030 C   0  0  0  0  0  0  0  0  0  0  0  0
   37.1330   27.9160   44.4660 H   0  0  0  0  0  0  0  0  0  0  0  0
   38.9280   27.4250   43.5280 C   0  0  0  0  0  3  0  0  0  0  0  0
   39.8820   27.6040   42.5280 C   0  0  0  0  0  3  0  0  0  0  0  0
  1 24  1  0  0  0  0
  1  2  1  0  0  0  0
  2  4  1  0  0  0  0
  2  5  1  0  0  0  0
  3  7  1  0  0  0  0
  3  1  1  0  0  0  0
  3  2  1  0  0  0  0
  6  3  1  0  0  0  0
  8 14  1  0  0  0  0
  8  1  1  0  0  0  0
  9 16  1  0  0  0  0
  9  8  1  0  0  0  0
 10  9  1  0  0  0  0
 10 18  1  0  0  0  0
 11 12  1  0  0  0  0
 11 10  1  0  0  0  0
 12 13  1  0  0  0  0
 12 19  1  0  0  0  0
 13 21  1  0  0  0  0
 13  8  1  0  0  0  0
 15  9  1  0  0  0  0
 17 10  1  0  0  0  0
 20 12  1  0  0  0  0
 22 13  1  0  0  0  0
 23 28  2  0  0  0  0
 23 24  1  0  0  0  0
 24 25  2  0  0  0  0
 25 26  1  0  0  0  0
 25 35  1  0  0  0  0
 27 29  1  0  0  0  0
 27 26  2  0  0  0  0
 28 27  1  0  0  0  0
 29 32  1  0  0  0  0
 30 23  1  0  0  0  0
 31 29  1  0  0  0  0
 33 34  1  0  0  0  0
 34 41  1  0  0  0  0
 35 34  2  0  0  0  0
 35 36  1  0  0  0  0
 36 37  1  0  0  0  0
 36 38  2  0  0  0  0
 38 39  1  0  0  0  0
 40 38  1  0  0  0  0
 41 40  2  0  0  0  0
M  END
>  <minimizedAffinity>
-5.60012865

$$$$

 OpenBabel03242516153D

 41 44  0  0  0  0  0  0  0  0999 V2000
   39.1030   29.1270   38.8310 C   0  0  0  0  0  0  0  0  0  0  0  0
   40.4840   28.7450   38.2870 C   0  0  0  0  0  0  0  0  0  0  0  0
   39.8940   28.0520   39.4160 C   0  0  0  0  0  0  0  0  0  0  0  0
   40.5710   28.2950   37.2920 H   0  0  0  0  0  0  0  0  0  0  0  0
   41.2570   29.5530   38.4510 H   0  0  0  0  0  0  0  0  0  0  0  0
   39.5180   27.0020   39.2120 H   0  0  0  0  0  0  0  0  0  0  0  0
   40.4500   28.0790   40.3540 H   0  0  0  0  0  0  0  0  0  0  0  0
   37.9820   28.7620   37.9090 C   0  0  0  0  0  0  0  0  0  0  0  0
   36.9210   29.8240   37.7360 C   0  0  0  0  0  0  0  0  0  0  0  0
   36.0100   29.2700   36.6220 C   0  0  0  0  0  0  0  0  0  0  0  0
   35.2320   28.2930   37.2360 O   0  0  0  0  0  0  0  0  0  0  0  0
   36.1400   27.1990   37.4020 C   0  0  0  0  0  0  0  0  0  0  0  0
   37.1960   27.5710   38.4290 C   0  0  0  0  0  0  0  0  0  0  0  0
   38.3520   28.5210   36.8870 H   0  0  0  0  0  0  0  0  0  0  0  0
   36.3410   29.9810   38.6640 H   0  0  0  0  0  0  0  0  0  0  0  0
   37.3360   30.7690   37.3260 H   0  0  0  0  0  0  0  0  0  0  0  0
   35.4250   30.0950   36.1720 H   0  0  0  0  0  0  0  0  0  0  0  0
   36.6670   28.7990   35.8670 H   0  0  0  0  0  0  0  0  0  0  0  0
   36.5920   26.9020   36.4370 H   0  0  0  0  0  0  0  0  0  0  0  0
   35.5050   26.4230   37.8670 H   0  0  0  0  0  0  0  0  0  0  0  0
   37.8520   26.7020   38.5210 H   0  0  0  0  0  0  0  0  0  0  0  0
   36.6750   27.8370   39.3700 H   0  0  0  0  0  0  0  0  0  0  0  0
   39.4430   31.6080   38.8990 C   0  0  0  0  0  0  0  0  0  0  0  0
   38.9970   30.4360   39.5370 C   0  0  0  0  0  0  0  0  0  0  0  0
   38.4860   30.5570   40.8360 C   0  0  0  0  0  0  0  0  0  0  0  0
   38.4380   31.7610   41.4310 N   0  0  0  0  0  0  0  0  0  0  0  0
   38.8820   32.8610   40.7650 C   0  0  0  0  0  0  0  0  0  0  0  0
   39.3830   32.8140   39.5200 N   0  0  0  0  0  0  0  0  0  0  0  0
   38.8270   34.1610   41.3250 N   0  0  0  0  0  0  0  0  0  0  0  0
   39.8380   31.5610   37.8980 H   0  0  0  0  0  0  0  0  0  0  0  0
   39.4930   34.6350   41.9380 H   0  0  0  0  0  0  0  0  0  0  0  0
   37.9570   34.6590   41.0350 H   0  0  0  0  0  0  0  0  0  0  0  0
   35.5920   29.4640   40.8180 Cl  0  0  0  0  0  0  0  0  0  0  0  0
   36.8880   28.7660   41.7990 C   0  0  0  0  0  0  0  0  0  0  0  0
   38.0220   29.5010   41.6770 C   0  0  0  0  0  0  0  0  0  0  0  0
   39.0890   29.0280   42.4720 C   0  0  0  0  0  0  0  0  0  0  0  0
   40.1020   29.3550   42.6180 H   0  0  0  0  0  0  0  0  0  0  0  0
   38.8980   27.8980   43.2740 C   0  0  0  0  0  0  0  0  0  0  0  0
   39.6420   27.4180   43.9320 H   0  0  0  0  0  0  0  0  0  0  0  0
   37.6670   27.2360   43.2960 C   0  0  0  0  0  3  0  0  0  0  0  0
   36.5760   27.6550   42.5360 C   0  0  0  0  0  3  0  0  0  0  0  0
  1  3  1  0  0  0  0
  1 24  1  0  0  0  0
  2  5  1  0  0  0  0
  2  1  1  0  0  0  0
  2  3  1  0  0  0  0
  3  7  1  0  0  0  0
  4  2  1  0  0  0  0
  6  3  1  0  0  0  0
  8 13  1  0  0  0  0
  8  1  1  0  0  0  0
  9  8  1  0  0  0  0
  9 15  1  0  0  0  0
 10 11  1  0  0  0  0
 10  9  1  0  0  0  0
 11 12  1  0  0  0  0
 12 20  1  0  0  0  0
 12 13  1  0  0  0  0
 13 21  1  0  0  0  0
 13 22  1  0  0  0  0
 14  8  1  0  0  0  0
 16  9  1  0  0  0  0
 17 10  1  0  0  0  0
 18 10  1  0  0  0  0
 19 12  1  0  0  0  0
 23 28  2  0  0  0  0
 23 24  1  0  0  0  0
 24 25  2  0  0  0  0
 25 26  1  0  0  0  0
 25 35  1  0  0  0  0
 27 29  1  0  0  0  0
 27 26  2  0  0  0  0
 28 27  1  0  0  0  0
 29 31  1  0  0  0  0
 30 23  1  0  0  0  0
 32 29  1  0  0  0  0
 33 34  1  0  0  0  0
 34 41  1  0  0  0  0
 35 34  2  0  0  0  0
 35 36  1  0  0  0  0
 36 37  1  0  0  0  0
 36 38  2  0  0  0  0
 38 40  1  0  0  0  0
 38 39  1  0  0  0  0
 41 40  2  0  0  0  0
M  END
>  <minimizedAffinity>
-5.46460104

$$$$

 OpenBabel03242516153D

 41 44  0  0  0  0  0  0  0  0999 V2000
   37.4720   27.5600   42.3250 C   0  0  0  0  0  0  0  0  0  0  0  0
   37.3990   28.2720   43.6800 C   0  0  0  0  0  0  0  0  0  0  0  0
   36.3310   27.4070   43.2190 C   0  0  0  0  0  0  0  0  0  0  0  0
   38.0910   27.9880   44.4810 H   0  0  0  0  0  0  0  0  0  0  0  0
   37.3120   29.3940   43.5790 H   0  0  0  0  0  0  0  0  0  0  0  0
   36.2480   26.4020   43.7370 H   0  0  0  0  0  0  0  0  0  0  0  0
   35.3450   27.8600   43.1100 H   0  0  0  0  0  0  0  0  0  0  0  0
   38.4930   26.4660   42.2850 C   0  0  0  0  0  0  0  0  0  0  0  0
   37.9330   25.0640   42.2600 C   0  0  0  0  0  0  0  0  0  0  0  0
   39.1680   24.1670   42.0380 C   0  0  0  0  0  0  0  0  0  0  0  0
   39.8090   24.1150   43.2720 O   0  0  0  0  0  0  0  0  0  0  0  0
   40.4320   25.3990   43.3780 C   0  0  0  0  0  0  0  0  0  0  0  0
   39.3630   26.4670   43.5310 C   0  0  0  0  0  0  0  0  0  0  0  0
   39.1550   26.5550   41.3930 H   0  0  0  0  0  0  0  0  0  0  0  0
   37.4340   24.8020   43.2110 H   0  0  0  0  0  0  0  0  0  0  0  0
   37.2850   24.8870   41.3750 H   0  0  0  0  0  0  0  0  0  0  0  0
   38.8480   23.1790   41.6540 H   0  0  0  0  0  0  0  0  0  0  0  0
   39.8170   24.6810   41.3040 H   0  0  0  0  0  0  0  0  0  0  0  0
   41.0920   25.5980   42.5130 H   0  0  0  0  0  0  0  0  0  0  0  0
   40.9580   25.3360   44.3480 H   0  0  0  0  0  0  0  0  0  0  0  0
   39.8920   27.4200   43.6150 H   0  0  0  0  0  0  0  0  0  0  0  0
   38.7560   26.2150   44.4220 H   0  0  0  0  0  0  0  0  0  0  0  0
   36.1810   28.3500   40.3300 C   0  0  0  0  0  0  0  0  0  0  0  0
   37.3500   28.4140   41.1090 C   0  0  0  0  0  0  0  0  0  0  0  0
   38.3700   29.2740   40.6820 C   0  0  0  0  0  0  0  0  0  0  0  0
   38.2120   30.0020   39.5630 N   0  0  0  0  0  0  0  0  0  0  0  0
   37.0580   29.9020   38.8500 C   0  0  0  0  0  0  0  0  0  0  0  0
   36.0430   29.0960   39.2030 N   0  0  0  0  0  0  0  0  0  0  0  0
   36.8180   30.6660   37.6810 N   0  0  0  0  0  0  0  0  0  0  0  0
   35.3690   27.7060   40.6250 H   0  0  0  0  0  0  0  0  0  0  0  0
   37.0790   30.4730   36.7130 H   0  0  0  0  0  0  0  0  0  0  0  0
   36.2970   31.5420   37.9050 H   0  0  0  0  0  0  0  0  0  0  0  0
   40.8600   27.5450   40.0640 Cl  0  0  0  0  0  0  0  0  0  0  0  0
   40.8960   28.9530   41.1350 C   0  0  0  0  0  0  0  0  0  0  0  0
   39.6470   29.4610   41.2920 C   0  0  0  0  0  0  0  0  0  0  0  0
   39.5920   30.5610   42.1750 C   0  0  0  0  0  0  0  0  0  0  0  0
   38.7930   31.1910   42.5200 H   0  0  0  0  0  0  0  0  0  0  0  0
   40.7690   31.0140   42.7790 C   0  0  0  0  0  0  0  0  0  0  0  0
   40.8730   31.8630   43.4770 H   0  0  0  0  0  0  0  0  0  0  0  0
   41.9930   30.3910   42.5190 C   0  0  0  0  0  3  0  0  0  0  0  0
   42.1120   29.3000   41.6590 C   0  0  0  0  0  3  0  0  0  0  0  0
  1  3  1  0  0  0  0
  1  2  1  0  0  0  0
  2  4  1  0  0  0  0
  3  2  1  0  0  0  0
  3  6  1  0  0  0  0
  5  2  1  0  0  0  0
  7  3  1  0  0  0  0
  8  1  1  0  0  0  0
  8 13  1  0  0  0  0
  9  8  1  0  0  0  0
  9 15  1  0  0  0  0
 10  9  1  0  0  0  0
 10 11  1  0  0  0  0
 11 12  1  0  0  0  0
 12 13  1  0  0  0  0
 12 20  1  0  0  0  0
 13 21  1  0  0  0  0
 13 22  1  0  0  0  0
 14  8  1  0  0  0  0
 16  9  1  0  0  0  0
 17 10  1  0  0  0  0
 18 10  1  0  0  0  0
 19 12  1  0  0  0  0
 23 30  1  0  0  0  0
 23 24  1  0  0  0  0
 24  1  1  0  0  0  0
 25 24  2  0  0  0  0
 25 35  1  0  0  0  0
 26 25  1  0  0  0  0
 27 28  1  0  0  0  0
 27 26  2  0  0  0  0
 28 23  2  0  0  0  0
 29 32  1  0  0  0  0
 29 27  1  0  0  0  0
 31 29  1  0  0  0  0
 33 34  1  0  0  0  0
 34 35  2  0  0  0  0
 34 41  1  0  0  0  0
 35 36  1  0  0  0  0
 36 37  1  0  0  0  0
 36 38  2  0  0  0  0
 38 39  1  0  0  0  0
 40 38  1  0  0  0  0
 41 40  2  0  0  0  0
M  END
>  <minimizedAffinity>
-5.45846319

$$$$

 OpenBabel03242516153D

 41 44  0  0  0  0  0  0  0  0999 V2000
   36.9630   27.4830   42.3520 C   0  0  0  0  0  0  0  0  0  0  0  0
   36.2300   27.2220   43.6720 C   0  0  0  0  0  0  0  0  0  0  0  0
   37.5080   27.9060   43.6360 C   0  0  0  0  0  0  0  0  0  0  0  0
   35.2850   27.7360   43.8810 H   0  0  0  0  0  0  0  0  0  0  0  0
   36.1760   26.1230   43.9320 H   0  0  0  0  0  0  0  0  0  0  0  0
   37.4790   29.0230   43.8340 H   0  0  0  0  0  0  0  0  0  0  0  0
   38.3280   27.4450   44.1860 H   0  0  0  0  0  0  0  0  0  0  0  0
   36.2900   28.5080   41.4930 C   0  0  0  0  0  0  0  0  0  0  0  0
   36.3050   28.2150   40.0120 C   0  0  0  0  0  0  0  0  0  0  0  0
   35.4060   29.3100   39.4010 C   0  0  0  0  0  0  0  0  0  0  0  0
   36.1860   30.4630   39.3960 O   0  0  0  0  0  0  0  0  0  0  0  0
   36.1950   30.8660   40.7690 C   0  0  0  0  0  0  0  0  0  0  0  0
   36.9830   29.8560   41.5860 C   0  0  0  0  0  0  0  0  0  0  0  0
   35.2210   28.6410   41.7750 H   0  0  0  0  0  0  0  0  0  0  0  0
   37.3250   28.2770   39.5900 H   0  0  0  0  0  0  0  0  0  0  0  0
   35.7980   27.2570   39.7680 H   0  0  0  0  0  0  0  0  0  0  0  0
   35.0620   28.9940   38.3980 H   0  0  0  0  0  0  0  0  0  0  0  0
   34.5480   29.4460   40.0850 H   0  0  0  0  0  0  0  0  0  0  0  0
   35.1660   30.9950   41.1570 H   0  0  0  0  0  0  0  0  0  0  0  0
   36.7940   31.7940   40.7480 H   0  0  0  0  0  0  0  0  0  0  0  0
   36.9640   30.2160   42.6180 H   0  0  0  0  0  0  0  0  0  0  0  0
   38.0020   29.7930   41.1560 H   0  0  0  0  0  0  0  0  0  0  0  0
   36.6970   25.2450   41.2590 C   0  0  0  0  0  0  0  0  0  0  0  0
   37.5410   26.2970   41.6580 C   0  0  0  0  0  0  0  0  0  0  0  0
   38.9120   26.1650   41.3980 C   0  0  0  0  0  0  0  0  0  0  0  0
   39.3780   25.0600   40.7900 N   0  0  0  0  0  0  0  0  0  0  0  0
   38.5140   24.0750   40.4240 C   0  0  0  0  0  0  0  0  0  0  0  0
   37.1910   24.1390   40.6450 N   0  0  0  0  0  0  0  0  0  0  0  0
   38.9400   22.9030   39.7520 N   0  0  0  0  0  0  0  0  0  0  0  0
   35.6360   25.3080   41.4340 H   0  0  0  0  0  0  0  0  0  0  0  0
   39.3020   22.0290   40.1340 H   0  0  0  0  0  0  0  0  0  0  0  0
   38.8470   23.0080   38.7180 H   0  0  0  0  0  0  0  0  0  0  0  0
   39.7130   28.6210   39.6960 Cl  0  0  0  0  0  0  0  0  0  0  0  0
   40.4150   28.2660   41.2810 C   0  0  0  0  0  0  0  0  0  0  0  0
   39.9450   27.0840   41.7530 C   0  0  0  0  0  0  0  0  0  0  0  0
   40.5000   26.7120   42.9970 C   0  0  0  0  0  0  0  0  0  0  0  0
   40.3590   25.8660   43.6450 H   0  0  0  0  0  0  0  0  0  0  0  0
   41.4350   27.5520   43.6090 C   0  0  0  0  0  0  0  0  0  0  0  0
   41.9380   27.3920   44.5780 H   0  0  0  0  0  0  0  0  0  0  0  0
   41.8250   28.7500   43.0030 C   0  0  0  0  0  3  0  0  0  0  0  0
   41.3150   29.1710   41.7760 C   0  0  0  0  0  3  0  0  0  0  0  0
  1  3  1  0  0  0  0
  1  2  1  0  0  0  0
  2  4  1  0  0  0  0
  2  5  1  0  0  0  0
  3  2  1  0  0  0  0
  3  6  1  0  0  0  0
  3  7  1  0  0  0  0
  8 13  1  0  0  0  0
  8 14  1  0  0  0  0
  8  1  1  0  0  0  0
  9  8  1  0  0  0  0
 10  9  1  0  0  0  0
 10 18  1  0  0  0  0
 11 10  1  0  0  0  0
 11 12  1  0  0  0  0
 12 19  1  0  0  0  0
 12 13  1  0  0  0  0
 13 21  1  0  0  0  0
 15  9  1  0  0  0  0
 16  9  1  0  0  0  0
 17 10  1  0  0  0  0
 20 12  1  0  0  0  0
 22 13  1  0  0  0  0
 23 30  1  0  0  0  0
 23 24  1  0  0  0  0
 24  1  1  0  0  0  0
 25 24  2  0  0  0  0
 25 35  1  0  0  0  0
 26 25  1  0  0  0  0
 27 28  1  0  0  0  0
 27 26  2  0  0  0  0
 28 23  2  0  0  0  0
 29 31  1  0  0  0  0
 29 27  1  0  0  0  0
 32 29  1  0  0  0  0
 33 34  1  0  0  0  0
 34 35  2  0  0  0  0
 34 41  1  0  0  0  0
 35 36  1  0  0  0  0
 36 38  2  0  0  0  0
 36 37  1  0  0  0  0
 38 39  1  0  0  0  0
 40 38  1  0  0  0  0
 41 40  2  0  0  0  0
M  END
>  <minimizedAffinity>
-5.45534372

$$$$
