
 OpenBabel03252506413D

 40 43  0  0  1  0  0  0  0  0999 V2000
   49.2480   33.2380   41.4830 N   0  0  1  0  0  0  0  0  0  0  0  0
   50.6080   33.2080   41.9570 C   0  0  0  0  0  0  0  0  0  0  0  0
   51.3310   31.9250   41.7690 C   0  0  0  0  0  0  0  0  0  0  0  0
   50.6580   30.8420   42.5940 C   0  0  0  0  0  0  0  0  0  0  0  0
   49.1850   31.0480   42.6050 C   0  0  0  0  0  0  0  0  0  0  0  0
   48.7130   31.8890   41.4630 C   0  0  2  0  0  0  0  0  0  0  0  0
   50.6310   33.4370   43.0520 H   0  0  0  0  0  0  0  0  0  0  0  0
   51.2200   34.0450   41.5100 H   0  0  0  0  0  0  0  0  0  0  0  0
   52.3780   32.1070   42.1480 H   0  0  0  0  0  0  0  0  0  0  0  0
   51.4520   31.5400   40.7660 H   0  0  0  0  0  0  0  0  0  0  0  0
   50.9870   29.8290   42.2880 H   0  0  0  0  0  0  0  0  0  0  0  0
   51.0270   30.9670   43.6350 H   0  0  0  0  0  0  0  0  0  0  0  0
   48.5980   30.1170   42.6360 H   0  0  0  0  0  0  0  0  0  0  0  0
   48.8580   31.6020   43.5370 H   0  0  0  0  0  0  0  0  0  0  0  0
   47.6070   32.0590   41.6900 H   0  0  0  0  0  0  0  0  0  0  0  0
   48.4700   33.4790   38.7560 Cl  0  0  0  0  0  0  0  0  0  0  0  0
   48.6610   31.7700   38.8710 C   0  0  0  0  0  0  0  0  0  0  0  0
   48.7140   31.2580   40.1420 C   0  0  0  0  0  0  0  0  0  0  0  0
   48.8270   29.8650   40.2520 C   0  0  0  0  0  0  0  0  0  0  0  0
   48.8860   29.2080   41.1120 H   0  0  0  0  0  0  0  0  0  0  0  0
   48.8830   29.0790   39.0940 C   0  0  0  0  0  0  0  0  0  0  0  0
   48.9700   28.0030   39.0480 H   0  0  0  0  0  0  0  0  0  0  0  0
   48.8270   29.6510   37.8340 C   0  0  0  0  0  3  0  0  0  0  0  0
   48.7130   31.0200   37.7320 C   0  0  0  0  0  3  0  0  0  0  0  0
   47.1100   34.5730   42.0430 C   0  0  1  0  0  0  0  0  0  0  0  0
   48.2330   35.4790   41.7510 C   0  0  0  0  0  0  0  0  0  0  0  0
   48.5140   34.1350   42.3090 C   0  0  2  0  0  0  0  0  0  0  0  0
   46.5620   34.1340   41.1920 H   0  0  0  0  0  0  0  0  0  0  0  0
   48.3650   36.3660   42.4300 H   0  0  0  0  0  0  0  0  0  0  0  0
   48.4140   35.7290   40.6940 H   0  0  0  0  0  0  0  0  0  0  0  0
   48.7850   34.1110   43.3920 H   0  0  0  0  0  0  0  0  0  0  0  0
   45.4390   36.0350   43.2250 C   0  0  0  0  0  0  0  0  0  0  0  0
   46.2210   34.8630   43.1970 C   0  0  0  0  0  0  0  0  0  0  0  0
   46.1230   33.9850   44.2860 C   0  0  0  0  0  0  0  0  0  0  0  0
   45.2830   34.3160   45.2970 N   0  0  0  0  0  0  0  0  0  0  0  0
   44.5440   35.4460   45.3000 C   0  0  0  0  0  0  0  0  0  0  0  0
   44.6170   36.3220   44.2540 N   0  0  0  0  0  0  0  0  0  0  0  0
   45.5590   36.6790   42.3500 H   0  0  0  0  0  0  0  0  0  0  0  0
   46.7050   33.0750   44.3060 H   0  0  0  0  0  0  0  0  0  0  0  0
   43.8750   35.6940   46.1210 H   0  0  0  0  0  0  0  0  0  0  0  0
  1  2  1  1  0  0  0
  1 27  1  0  0  0  0
  2  7  1  0  0  0  0
  3  2  1  0  0  0  0
  3  9  1  0  0  0  0
  3  4  1  0  0  0  0
  4  5  1  0  0  0  0
  4 12  1  0  0  0  0
  5 13  1  0  0  0  0
  5 14  1  0  0  0  0
  6  1  1  0  0  0  0
  6 15  1  1  0  0  0
  6  5  1  0  0  0  0
  8  2  1  0  0  0  0
 10  3  1  0  0  0  0
 11  4  1  0  0  0  0
 16 17  1  0  0  0  0
 17 18  1  0  0  0  0
 18 19  2  0  0  0  0
 18  6  1  0  0  0  0
 19 20  1  0  0  0  0
 21 19  1  0  0  0  0
 22 21  1  0  0  0  0
 23 21  2  0  0  0  0
 24 23  1  0  0  0  0
 24 17  2  0  0  0  0
 25 28  1  6  0  0  0
 25 27  1  0  0  0  0
 25 33  1  0  0  0  0
 26 25  1  0  0  0  0
 26 27  1  0  0  0  0
 26 29  1  0  0  0  0
 27 31  1  1  0  0  0
 30 26  1  0  0  0  0
 32 37  1  0  0  0  0
 33 32  2  0  0  0  0
 33 34  1  0  0  0  0
 34 39  1  0  0  0  0
 34 35  2  0  0  0  0
 35 36  1  0  0  0  0
 36 40  1  0  0  0  0
 37 36  2  0  0  0  0
 38 32  1  0  0  0  0
M  END
>  <minimizedAffinity>
-4.80917358

>  <minimizedRMSD>
0.130538628

$$$$
