
 OpenBabel03252506443D

 40 43  0  0  1  0  0  0  0  0999 V2000
   36.8970   29.5470   40.5410 N   0  0  1  0  0  0  0  0  0  0  0  0
   37.0980   30.9430   40.8340 C   0  0  0  0  0  0  0  0  0  0  0  0
   36.9020   31.8780   39.6980 C   0  0  0  0  0  0  0  0  0  0  0  0
   37.9450   31.5990   38.6300 C   0  0  0  0  0  0  0  0  0  0  0  0
   38.2220   30.1400   38.5530 C   0  0  0  0  0  0  0  0  0  0  0  0
   37.1150   29.3130   39.1250 C   0  0  2  0  0  0  0  0  0  0  0  0
   38.1400   31.1030   41.2110 H   0  0  0  0  0  0  0  0  0  0  0  0
   36.4600   31.2790   41.7030 H   0  0  0  0  0  0  0  0  0  0  0  0
   37.0500   32.9110   40.1250 H   0  0  0  0  0  0  0  0  0  0  0  0
   35.9380   31.9050   39.2090 H   0  0  0  0  0  0  0  0  0  0  0  0
   37.6840   32.0790   37.6660 H   0  0  0  0  0  0  0  0  0  0  0  0
   38.8770   32.1050   38.9650 H   0  0  0  0  0  0  0  0  0  0  0  0
   38.4590   29.7770   37.5410 H   0  0  0  0  0  0  0  0  0  0  0  0
   39.1390   29.8670   39.1570 H   0  0  0  0  0  0  0  0  0  0  0  0
   37.5350   28.2520   39.1120 H   0  0  0  0  0  0  0  0  0  0  0  0
   37.0630   29.2530   35.9780 Cl  0  0  0  0  0  0  0  0  0  0  0  0
   35.6650   29.1440   36.9810 C   0  0  0  0  0  0  0  0  0  0  0  0
   35.8890   29.2230   38.3310 C   0  0  0  0  0  0  0  0  0  0  0  0
   34.7590   29.1780   39.1580 C   0  0  0  0  0  0  0  0  0  0  0  0
   34.6440   29.2220   40.2360 H   0  0  0  0  0  0  0  0  0  0  0  0
   33.4840   29.0560   38.5860 C   0  0  0  0  0  0  0  0  0  0  0  0
   32.5420   29.0100   39.1140 H   0  0  0  0  0  0  0  0  0  0  0  0
   33.3170   28.9780   37.2150 C   0  0  0  0  0  3  0  0  0  0  0  0
   34.4320   29.0240   36.4070 C   0  0  0  0  0  3  0  0  0  0  0  0
   37.2870   27.7800   42.3820 C   0  0  1  0  0  0  0  0  0  0  0  0
   37.7220   29.1130   42.8330 C   0  0  0  0  0  0  0  0  0  0  0  0
   37.7560   28.7910   41.3870 C   0  0  2  0  0  0  0  0  0  0  0  0
   36.2120   27.5390   42.4380 H   0  0  0  0  0  0  0  0  0  0  0  0
   38.7030   29.1740   43.3800 H   0  0  0  0  0  0  0  0  0  0  0  0
   36.9550   29.7680   43.2750 H   0  0  0  0  0  0  0  0  0  0  0  0
   38.7690   28.5780   40.9650 H   0  0  0  0  0  0  0  0  0  0  0  0
   37.8430   25.3430   42.1030 C   0  0  0  0  0  0  0  0  0  0  0  0
   38.1460   26.6010   42.6620 C   0  0  0  0  0  0  0  0  0  0  0  0
   39.2820   26.6980   43.4790 C   0  0  0  0  0  0  0  0  0  0  0  0
   40.0190   25.5790   43.6790 N   0  0  0  0  0  0  0  0  0  0  0  0
   39.7070   24.3840   43.1320 C   0  0  0  0  0  0  0  0  0  0  0  0
   38.6070   24.2570   42.3330 N   0  0  0  0  0  0  0  0  0  0  0  0
   36.9460   25.3300   41.4780 H   0  0  0  0  0  0  0  0  0  0  0  0
   39.5500   27.6430   43.9270 H   0  0  0  0  0  0  0  0  0  0  0  0
   40.3120   23.4960   43.3050 H   0  0  0  0  0  0  0  0  0  0  0  0
  1  2  1  6  0  0  0
  1 27  1  0  0  0  0
  2  7  1  0  0  0  0
  2  8  1  0  0  0  0
  3  9  1  0  0  0  0
  3  2  1  0  0  0  0
  4 12  1  0  0  0  0
  4  3  1  0  0  0  0
  5  4  1  0  0  0  0
  5  6  1  0  0  0  0
  5 14  1  0  0  0  0
  6 15  1  6  0  0  0
  6  1  1  0  0  0  0
 10  3  1  0  0  0  0
 11  4  1  0  0  0  0
 13  5  1  0  0  0  0
 16 17  1  0  0  0  0
 17 18  1  0  0  0  0
 18  6  1  0  0  0  0
 18 19  2  0  0  0  0
 19 20  1  0  0  0  0
 21 22  1  0  0  0  0
 21 19  1  0  0  0  0
 23 21  2  0  0  0  0
 24 17  2  0  0  0  0
 24 23  1  0  0  0  0
 25 28  1  1  0  0  0
 25 33  1  0  0  0  0
 25 26  1  0  0  0  0
 26 30  1  0  0  0  0
 26 29  1  0  0  0  0
 27 31  1  6  0  0  0
 27 25  1  0  0  0  0
 27 26  1  0  0  0  0
 32 37  2  0  0  0  0
 32 33  1  0  0  0  0
 33 34  2  0  0  0  0
 34 35  1  0  0  0  0
 34 39  1  0  0  0  0
 36 40  1  0  0  0  0
 36 35  2  0  0  0  0
 37 36  1  0  0  0  0
 38 32  1  0  0  0  0
M  END
>  <minimizedAffinity>
-5.80422211

$$$$

 OpenBabel03252506443D

 40 43  0  0  1  0  0  0  0  0999 V2000
   36.8700   29.6050   40.2350 N   0  0  1  0  0  0  0  0  0  0  0  0
   37.0450   31.0100   40.4970 C   0  0  0  0  0  0  0  0  0  0  0  0
   36.9150   31.9090   39.3230 C   0  0  0  0  0  0  0  0  0  0  0  0
   38.0240   31.6050   38.3300 C   0  0  0  0  0  0  0  0  0  0  0  0
   38.3120   30.1470   38.3150 C   0  0  0  0  0  0  0  0  0  0  0  0
   37.1760   29.3300   38.8430 C   0  0  2  0  0  0  0  0  0  0  0  0
   38.0610   31.1890   40.9320 H   0  0  0  0  0  0  0  0  0  0  0  0
   36.3530   31.3680   41.3140 H   0  0  0  0  0  0  0  0  0  0  0  0
   37.0310   32.9560   39.7260 H   0  0  0  0  0  0  0  0  0  0  0  0
   35.9830   31.9150   38.7750 H   0  0  0  0  0  0  0  0  0  0  0  0
   37.8190   32.0530   37.3370 H   0  0  0  0  0  0  0  0  0  0  0  0
   38.9310   32.1280   38.7050 H   0  0  0  0  0  0  0  0  0  0  0  0
   38.6130   29.7540   37.3310 H   0  0  0  0  0  0  0  0  0  0  0  0
   39.1920   29.8980   38.9820 H   0  0  0  0  0  0  0  0  0  0  0  0
   37.6010   28.2720   38.8880 H   0  0  0  0  0  0  0  0  0  0  0  0
   34.2310   29.0440   39.9150 Cl  0  0  0  0  0  0  0  0  0  0  0  0
   34.6600   29.1170   38.2470 C   0  0  0  0  0  0  0  0  0  0  0  0
   36.0010   29.2070   37.9780 C   0  0  0  0  0  0  0  0  0  0  0  0
   36.3700   29.2260   36.6260 C   0  0  0  0  0  0  0  0  0  0  0  0
   37.3360   29.2870   36.1370 H   0  0  0  0  0  0  0  0  0  0  0  0
   35.3810   29.1550   35.6360 C   0  0  0  0  0  0  0  0  0  0  0  0
   35.5380   29.1610   34.5660 H   0  0  0  0  0  0  0  0  0  0  0  0
   34.0400   29.0660   35.9650 C   0  0  0  0  0  3  0  0  0  0  0  0
   33.6830   29.0480   37.2960 C   0  0  0  0  0  3  0  0  0  0  0  0
   37.1630   27.8520   42.1080 C   0  0  1  0  0  0  0  0  0  0  0  0
   37.5070   29.2000   42.5920 C   0  0  0  0  0  0  0  0  0  0  0  0
   37.6790   28.8810   41.1540 C   0  0  2  0  0  0  0  0  0  0  0  0
   36.0970   27.5710   42.0690 H   0  0  0  0  0  0  0  0  0  0  0  0
   38.4330   29.2970   43.2220 H   0  0  0  0  0  0  0  0  0  0  0  0
   36.6790   29.8250   42.9630 H   0  0  0  0  0  0  0  0  0  0  0  0
   38.7320   28.7060   40.8240 H   0  0  0  0  0  0  0  0  0  0  0  0
   39.1350   26.8810   43.3300 C   0  0  0  0  0  0  0  0  0  0  0  0
   38.0370   26.7050   42.4650 C   0  0  0  0  0  0  0  0  0  0  0  0
   37.7970   25.4170   41.9640 C   0  0  0  0  0  0  0  0  0  0  0  0
   38.6350   24.4210   42.3430 N   0  0  0  0  0  0  0  0  0  0  0  0
   39.6810   24.6160   43.1740 C   0  0  0  0  0  0  0  0  0  0  0  0
   39.9410   25.8590   43.6780 N   0  0  0  0  0  0  0  0  0  0  0  0
   39.2720   27.9060   43.6860 H   0  0  0  0  0  0  0  0  0  0  0  0
   36.9660   25.2380   41.2980 H   0  0  0  0  0  0  0  0  0  0  0  0
   40.3420   23.8030   43.4670 H   0  0  0  0  0  0  0  0  0  0  0  0
  1  2  1  6  0  0  0
  1 27  1  0  0  0  0
  2  7  1  0  0  0  0
  2  8  1  0  0  0  0
  3  9  1  0  0  0  0
  3  2  1  0  0  0  0
  4 12  1  0  0  0  0
  4  3  1  0  0  0  0
  5  4  1  0  0  0  0
  5  6  1  0  0  0  0
  5 14  1  0  0  0  0
  6 15  1  1  0  0  0
  6  1  1  0  0  0  0
 10  3  1  0  0  0  0
 11  4  1  0  0  0  0
 13  5  1  0  0  0  0
 17 16  1  0  0  0  0
 18 17  1  0  0  0  0
 18  6  1  0  0  0  0
 19 18  2  0  0  0  0
 20 19  1  0  0  0  0
 21 23  2  0  0  0  0
 21 19  1  0  0  0  0
 22 21  1  0  0  0  0
 23 24  1  0  0  0  0
 24 17  2  0  0  0  0
 25 28  1  6  0  0  0
 25 33  1  0  0  0  0
 25 26  1  0  0  0  0
 26 30  1  0  0  0  0
 26 29  1  0  0  0  0
 27 31  1  6  0  0  0
 27 25  1  0  0  0  0
 27 26  1  0  0  0  0
 32 37  1  0  0  0  0
 32 38  1  0  0  0  0
 33 32  2  0  0  0  0
 34 35  2  0  0  0  0
 34 33  1  0  0  0  0
 35 36  1  0  0  0  0
 36 40  1  0  0  0  0
 36 37  2  0  0  0  0
 39 34  1  0  0  0  0
M  END
>  <minimizedAffinity>
-5.64563608

$$$$

 OpenBabel03252506443D

 40 43  0  0  1  0  0  0  0  0999 V2000
   37.1300   29.9530   40.5530 N   0  0  1  0  0  0  0  0  0  0  0  0
   35.7760   30.3720   40.2920 C   0  0  0  0  0  0  0  0  0  0  0  0
   34.8100   29.2880   39.9870 C   0  0  0  0  0  0  0  0  0  0  0  0
   35.2120   28.6040   38.6920 C   0  0  0  0  0  0  0  0  0  0  0  0
   36.6940   28.5410   38.5840 C   0  0  0  0  0  0  0  0  0  0  0  0
   37.3730   28.6750   39.9100 C   0  0  2  0  0  0  0  0  0  0  0  0
   35.7610   31.0760   39.4220 H   0  0  0  0  0  0  0  0  0  0  0  0
   35.3690   31.0030   41.1360 H   0  0  0  0  0  0  0  0  0  0  0  0
   33.8110   29.7960   39.8640 H   0  0  0  0  0  0  0  0  0  0  0  0
   34.6490   28.5140   40.7250 H   0  0  0  0  0  0  0  0  0  0  0  0
   34.6900   27.6350   38.5610 H   0  0  0  0  0  0  0  0  0  0  0  0
   34.8380   29.2510   37.8680 H   0  0  0  0  0  0  0  0  0  0  0  0
   37.0730   27.6430   38.0730 H   0  0  0  0  0  0  0  0  0  0  0  0
   37.0940   29.3950   37.9580 H   0  0  0  0  0  0  0  0  0  0  0  0
   38.4800   28.7410   39.6420 H   0  0  0  0  0  0  0  0  0  0  0  0
   37.5890   28.8700   43.0440 Cl  0  0  0  0  0  0  0  0  0  0  0  0
   37.3190   27.4070   42.1730 C   0  0  0  0  0  0  0  0  0  0  0  0
   37.2900   27.5210   40.8070 C   0  0  0  0  0  0  0  0  0  0  0  0
   37.1120   26.3350   40.0820 C   0  0  0  0  0  0  0  0  0  0  0  0
   37.0550   26.1350   39.0180 H   0  0  0  0  0  0  0  0  0  0  0  0
   36.9740   25.1180   40.7650 C   0  0  0  0  0  0  0  0  0  0  0  0
   36.8330   24.1430   40.3220 H   0  0  0  0  0  0  0  0  0  0  0  0
   37.0100   25.0620   42.1470 C   0  0  0  0  0  3  0  0  0  0  0  0
   37.1850   26.2320   42.8540 C   0  0  0  0  0  3  0  0  0  0  0  0
   38.6350   31.9970   41.0250 C   0  0  1  0  0  0  0  0  0  0  0  0
   37.4820   32.3760   40.1900 C   0  0  0  0  0  0  0  0  0  0  0  0
   38.0030   30.9890   40.1200 C   0  0  2  0  0  0  0  0  0  0  0  0
   38.4810   31.9120   42.1140 H   0  0  0  0  0  0  0  0  0  0  0  0
   37.6840   33.0560   39.3170 H   0  0  0  0  0  0  0  0  0  0  0  0
   36.5470   32.6290   40.7120 H   0  0  0  0  0  0  0  0  0  0  0  0
   38.6100   30.7500   39.2130 H   0  0  0  0  0  0  0  0  0  0  0  0
   40.1280   33.6590   39.8710 C   0  0  0  0  0  0  0  0  0  0  0  0
   39.9830   32.5180   40.6840 C   0  0  0  0  0  0  0  0  0  0  0  0
   41.1490   31.9030   41.1630 C   0  0  0  0  0  0  0  0  0  0  0  0
   42.3430   32.4430   40.8150 N   0  0  0  0  0  0  0  0  0  0  0  0
   42.4550   33.5390   40.0330 C   0  0  0  0  0  0  0  0  0  0  0  0
   41.3380   34.1600   39.5510 N   0  0  0  0  0  0  0  0  0  0  0  0
   39.1850   34.0940   39.5280 H   0  0  0  0  0  0  0  0  0  0  0  0
   41.0840   31.0260   41.7890 H   0  0  0  0  0  0  0  0  0  0  0  0
   43.4220   33.9570   39.7650 H   0  0  0  0  0  0  0  0  0  0  0  0
  1  2  1  6  0  0  0
  2  8  1  0  0  0  0
  3  2  1  0  0  0  0
  3 10  1  0  0  0  0
  4  3  1  0  0  0  0
  5  4  1  0  0  0  0
  5  6  1  0  0  0  0
  6 15  1  6  0  0  0
  6  1  1  0  0  0  0
  6 18  1  0  0  0  0
  7  2  1  0  0  0  0
  9  3  1  0  0  0  0
 11  4  1  0  0  0  0
 12  4  1  0  0  0  0
 13  5  1  0  0  0  0
 14  5  1  0  0  0  0
 17 24  1  0  0  0  0
 17 16  1  0  0  0  0
 18 17  2  0  0  0  0
 19 21  2  0  0  0  0
 19 18  1  0  0  0  0
 20 19  1  0  0  0  0
 21 23  1  0  0  0  0
 22 21  1  0  0  0  0
 23 24  2  0  0  0  0
 25 28  1  1  0  0  0
 26 30  1  0  0  0  0
 26 25  1  0  0  0  0
 27 31  1  6  0  0  0
 27 26  1  0  0  0  0
 27  1  1  0  0  0  0
 27 25  1  0  0  0  0
 29 26  1  0  0  0  0
 32 33  1  0  0  0  0
 33 25  1  0  0  0  0
 33 34  2  0  0  0  0
 34 39  1  0  0  0  0
 35 34  1  0  0  0  0
 36 35  2  0  0  0  0
 37 32  2  0  0  0  0
 37 36  1  0  0  0  0
 38 32  1  0  0  0  0
 40 36  1  0  0  0  0
M  END
>  <minimizedAffinity>
-5.55091238

$$$$

 OpenBabel03252506443D

 40 43  0  0  1  0  0  0  0  0999 V2000
   37.0260   29.7320   40.4400 N   0  0  1  0  0  0  0  0  0  0  0  0
   35.6770   30.2260   40.3370 C   0  0  0  0  0  0  0  0  0  0  0  0
   34.6480   29.2260   39.9600 C   0  0  0  0  0  0  0  0  0  0  0  0
   34.9330   28.7120   38.5590 C   0  0  0  0  0  0  0  0  0  0  0  0
   36.4000   28.6170   38.3370 C   0  0  0  0  0  0  0  0  0  0  0  0
   37.1720   28.5460   39.6160 C   0  0  2  0  0  0  0  0  0  0  0  0
   35.6330   31.0420   39.5720 H   0  0  0  0  0  0  0  0  0  0  0  0
   35.3540   30.7490   41.2850 H   0  0  0  0  0  0  0  0  0  0  0  0
   33.6650   29.7780   39.9780 H   0  0  0  0  0  0  0  0  0  0  0  0
   34.5050   28.3640   40.5960 H   0  0  0  0  0  0  0  0  0  0  0  0
   34.3640   27.7880   38.3370 H   0  0  0  0  0  0  0  0  0  0  0  0
   34.5320   29.4780   37.8590 H   0  0  0  0  0  0  0  0  0  0  0  0
   36.7070   27.7860   37.6830 H   0  0  0  0  0  0  0  0  0  0  0  0
   36.7930   29.5350   37.8040 H   0  0  0  0  0  0  0  0  0  0  0  0
   38.2610   28.6130   39.2790 H   0  0  0  0  0  0  0  0  0  0  0  0
   36.9830   25.7200   38.2430 Cl  0  0  0  0  0  0  0  0  0  0  0  0
   37.0570   25.9760   39.9460 C   0  0  0  0  0  0  0  0  0  0  0  0
   37.1010   27.2840   40.3530 C   0  0  0  0  0  0  0  0  0  0  0  0
   37.1200   27.5100   41.7360 C   0  0  0  0  0  0  0  0  0  0  0  0
   37.1500   28.4220   42.3240 H   0  0  0  0  0  0  0  0  0  0  0  0
   37.0940   26.4210   42.6180 C   0  0  0  0  0  0  0  0  0  0  0  0
   37.1050   26.4650   43.6980 H   0  0  0  0  0  0  0  0  0  0  0  0
   37.0510   25.1190   42.1510 C   0  0  0  0  0  3  0  0  0  0  0  0
   37.0330   24.9030   40.7900 C   0  0  0  0  0  3  0  0  0  0  0  0
   38.4140   31.8240   41.0410 C   0  0  1  0  0  0  0  0  0  0  0  0
   37.3470   32.1600   40.0830 C   0  0  0  0  0  0  0  0  0  0  0  0
   37.9110   30.7890   40.0880 C   0  0  2  0  0  0  0  0  0  0  0  0
   38.1470   31.7470   42.1090 H   0  0  0  0  0  0  0  0  0  0  0  0
   37.6210   32.8360   39.2280 H   0  0  0  0  0  0  0  0  0  0  0  0
   36.3540   32.3910   40.5000 H   0  0  0  0  0  0  0  0  0  0  0  0
   38.6180   30.5570   39.2550 H   0  0  0  0  0  0  0  0  0  0  0  0
   39.9630   33.5750   40.1130 C   0  0  0  0  0  0  0  0  0  0  0  0
   39.7760   32.3810   40.8390 C   0  0  0  0  0  0  0  0  0  0  0  0
   40.9120   31.7500   41.3650 C   0  0  0  0  0  0  0  0  0  0  0  0
   42.1190   32.3250   41.1450 N   0  0  0  0  0  0  0  0  0  0  0  0
   42.2730   33.4700   40.4450 C   0  0  0  0  0  0  0  0  0  0  0  0
   41.1860   34.1090   39.9190 N   0  0  0  0  0  0  0  0  0  0  0  0
   39.0420   34.0190   39.7270 H   0  0  0  0  0  0  0  0  0  0  0  0
   40.8140   30.8340   41.9280 H   0  0  0  0  0  0  0  0  0  0  0  0
   43.2510   33.9160   40.2790 H   0  0  0  0  0  0  0  0  0  0  0  0
  1  2  1  6  0  0  0
  2  8  1  0  0  0  0
  3  9  1  0  0  0  0
  3  2  1  0  0  0  0
  3 10  1  0  0  0  0
  4  3  1  0  0  0  0
  5  4  1  0  0  0  0
  5  6  1  0  0  0  0
  6 15  1  6  0  0  0
  6 18  1  0  0  0  0
  6  1  1  0  0  0  0
  7  2  1  0  0  0  0
 11  4  1  0  0  0  0
 12  4  1  0  0  0  0
 13  5  1  0  0  0  0
 14  5  1  0  0  0  0
 16 17  1  0  0  0  0
 17 18  2  0  0  0  0
 17 24  1  0  0  0  0
 18 19  1  0  0  0  0
 19 20  1  0  0  0  0
 19 21  2  0  0  0  0
 21 22  1  0  0  0  0
 23 21  1  0  0  0  0
 24 23  2  0  0  0  0
 25 28  1  1  0  0  0
 26 27  1  0  0  0  0
 26 30  1  0  0  0  0
 26 25  1  0  0  0  0
 27 31  1  6  0  0  0
 27  1  1  0  0  0  0
 27 25  1  0  0  0  0
 29 26  1  0  0  0  0
 32 33  1  0  0  0  0
 33 25  1  0  0  0  0
 33 34  2  0  0  0  0
 34 39  1  0  0  0  0
 35 34  1  0  0  0  0
 36 35  2  0  0  0  0
 37 32  2  0  0  0  0
 37 36  1  0  0  0  0
 38 32  1  0  0  0  0
 40 36  1  0  0  0  0
M  END
>  <minimizedAffinity>
-5.41765451

$$$$

 OpenBabel03252506443D

 40 43  0  0  1  0  0  0  0  0999 V2000
   37.1580   29.7600   40.3910 N   0  0  1  0  0  0  0  0  0  0  0  0
   35.8130   30.2760   40.3730 C   0  0  0  0  0  0  0  0  0  0  0  0
   34.7400   29.2790   40.1310 C   0  0  0  0  0  0  0  0  0  0  0  0
   34.9010   28.6930   38.7390 C   0  0  0  0  0  0  0  0  0  0  0  0
   36.3430   28.5580   38.4030 C   0  0  0  0  0  0  0  0  0  0  0  0
   37.2170   28.5340   39.6170 C   0  0  2  0  0  0  0  0  0  0  0  0
   35.7190   31.0550   39.5750 H   0  0  0  0  0  0  0  0  0  0  0  0
   35.5780   30.8500   41.3170 H   0  0  0  0  0  0  0  0  0  0  0  0
   33.7710   29.8510   40.2020 H   0  0  0  0  0  0  0  0  0  0  0  0
   34.6370   28.4520   40.8190 H   0  0  0  0  0  0  0  0  0  0  0  0
   34.3010   27.7710   38.6100 H   0  0  0  0  0  0  0  0  0  0  0  0
   34.4560   29.4320   38.0370 H   0  0  0  0  0  0  0  0  0  0  0  0
   36.5810   27.6900   37.7690 H   0  0  0  0  0  0  0  0  0  0  0  0
   36.7050   29.4420   37.7950 H   0  0  0  0  0  0  0  0  0  0  0  0
   38.2750   28.5620   39.1900 H   0  0  0  0  0  0  0  0  0  0  0  0
   37.8040   28.4480   42.7080 Cl  0  0  0  0  0  0  0  0  0  0  0  0
   37.3690   27.0770   41.7580 C   0  0  0  0  0  0  0  0  0  0  0  0
   37.1860   27.3100   40.4200 C   0  0  0  0  0  0  0  0  0  0  0  0
   36.8730   26.1980   39.6270 C   0  0  0  0  0  0  0  0  0  0  0  0
   36.6830   26.0930   38.5640 H   0  0  0  0  0  0  0  0  0  0  0  0
   36.7610   24.9320   40.2190 C   0  0  0  0  0  0  0  0  0  0  0  0
   36.5250   24.0040   39.7170 H   0  0  0  0  0  0  0  0  0  0  0  0
   36.9540   24.7550   41.5770 C   0  0  0  0  0  3  0  0  0  0  0  0
   37.2630   25.8520   42.3520 C   0  0  0  0  0  3  0  0  0  0  0  0
   39.5050   30.8050   40.1370 C   0  0  1  0  0  0  0  0  0  0  0  0
   38.6260   31.6770   40.9340 C   0  0  0  0  0  0  0  0  0  0  0  0
   38.0270   30.7810   39.9160 C   0  0  2  0  0  0  0  0  0  0  0  0
   39.9870   29.9510   40.6430 H   0  0  0  0  0  0  0  0  0  0  0  0
   38.6580   32.7780   40.7100 H   0  0  0  0  0  0  0  0  0  0  0  0
   38.5610   31.4700   42.0140 H   0  0  0  0  0  0  0  0  0  0  0  0
   37.7020   31.2790   38.9700 H   0  0  0  0  0  0  0  0  0  0  0  0
   40.9410   30.6050   38.0820 C   0  0  0  0  0  0  0  0  0  0  0  0
   40.3750   31.4050   39.0940 C   0  0  0  0  0  0  0  0  0  0  0  0
   40.6550   32.7800   39.0740 C   0  0  0  0  0  0  0  0  0  0  0  0
   41.4500   33.2530   38.0840 N   0  0  0  0  0  0  0  0  0  0  0  0
   41.9810   32.4640   37.1250 C   0  0  0  0  0  0  0  0  0  0  0  0
   41.7280   31.1220   37.1170 N   0  0  0  0  0  0  0  0  0  0  0  0
   40.6890   29.5430   38.1500 H   0  0  0  0  0  0  0  0  0  0  0  0
   40.2410   33.4300   39.8310 H   0  0  0  0  0  0  0  0  0  0  0  0
   42.6170   32.8640   36.3390 H   0  0  0  0  0  0  0  0  0  0  0  0
  1  2  1  6  0  0  0
  2  8  1  0  0  0  0
  3  9  1  0  0  0  0
  3  2  1  0  0  0  0
  3 10  1  0  0  0  0
  4  3  1  0  0  0  0
  5  4  1  0  0  0  0
  5  6  1  0  0  0  0
  6 15  1  6  0  0  0
  6  1  1  0  0  0  0
  6 18  1  0  0  0  0
  7  2  1  0  0  0  0
 11  4  1  0  0  0  0
 12  4  1  0  0  0  0
 13  5  1  0  0  0  0
 14  5  1  0  0  0  0
 17 24  1  0  0  0  0
 17 16  1  0  0  0  0
 18 17  2  0  0  0  0
 19 21  2  0  0  0  0
 19 18  1  0  0  0  0
 20 19  1  0  0  0  0
 21 23  1  0  0  0  0
 22 21  1  0  0  0  0
 23 24  2  0  0  0  0
 25 28  1  1  0  0  0
 25 26  1  0  0  0  0
 26 30  1  0  0  0  0
 27 31  1  6  0  0  0
 27 25  1  0  0  0  0
 27  1  1  0  0  0  0
 27 26  1  0  0  0  0
 29 26  1  0  0  0  0
 32 38  1  0  0  0  0
 32 33  1  0  0  0  0
 33 25  1  0  0  0  0
 34 33  2  0  0  0  0
 34 39  1  0  0  0  0
 35 34  1  0  0  0  0
 36 35  2  0  0  0  0
 37 36  1  0  0  0  0
 37 32  2  0  0  0  0
 40 36  1  0  0  0  0
M  END
>  <minimizedAffinity>
-5.3084693

$$$$

 OpenBabel03252506443D

 40 43  0  0  1  0  0  0  0  0999 V2000
   36.9900   29.4420   38.7960 N   0  0  1  0  0  0  0  0  0  0  0  0
   38.2110   30.1400   38.4840 C   0  0  0  0  0  0  0  0  0  0  0  0
   39.0270   30.5690   39.6470 C   0  0  0  0  0  0  0  0  0  0  0  0
   38.2490   31.5880   40.4620 C   0  0  0  0  0  0  0  0  0  0  0  0
   36.8010   31.2480   40.4590 C   0  0  0  0  0  0  0  0  0  0  0  0
   36.5480   29.8110   40.1290 C   0  0  2  0  0  0  0  0  0  0  0  0
   37.9780   31.0620   37.8930 H   0  0  0  0  0  0  0  0  0  0  0  0
   38.8600   29.5440   37.7780 H   0  0  0  0  0  0  0  0  0  0  0  0
   39.9520   31.0450   39.2110 H   0  0  0  0  0  0  0  0  0  0  0  0
   39.3890   29.8150   40.3330 H   0  0  0  0  0  0  0  0  0  0  0  0
   38.6940   31.7370   41.4650 H   0  0  0  0  0  0  0  0  0  0  0  0
   38.3710   32.5620   39.9400 H   0  0  0  0  0  0  0  0  0  0  0  0
   36.2740   31.5030   41.3910 H   0  0  0  0  0  0  0  0  0  0  0  0
   36.2460   31.8360   39.6670 H   0  0  0  0  0  0  0  0  0  0  0  0
   35.4130   29.7500   40.0370 H   0  0  0  0  0  0  0  0  0  0  0  0
   36.5000   26.6950   39.6850 Cl  0  0  0  0  0  0  0  0  0  0  0  0
   36.9540   27.4650   41.1590 C   0  0  0  0  0  0  0  0  0  0  0  0
   36.8780   28.8340   41.1670 C   0  0  0  0  0  0  0  0  0  0  0  0
   37.2030   29.4730   42.3710 C   0  0  0  0  0  0  0  0  0  0  0  0
   37.2270   30.5190   42.6560 H   0  0  0  0  0  0  0  0  0  0  0  0
   37.5830   28.7080   43.4830 C   0  0  0  0  0  0  0  0  0  0  0  0
   37.8570   29.0810   44.4600 H   0  0  0  0  0  0  0  0  0  0  0  0
   37.6450   27.3270   43.4170 C   0  0  0  0  0  3  0  0  0  0  0  0
   37.3230   26.7040   42.2310 C   0  0  0  0  0  3  0  0  0  0  0  0
   35.2770   28.7010   37.0130 C   0  0  1  0  0  0  0  0  0  0  0  0
   36.4250   29.3790   36.3870 C   0  0  0  0  0  0  0  0  0  0  0  0
   36.0430   29.7330   37.7760 C   0  0  2  0  0  0  0  0  0  0  0  0
   35.3880   27.6380   37.2860 H   0  0  0  0  0  0  0  0  0  0  0  0
   36.2000   30.1240   35.5760 H   0  0  0  0  0  0  0  0  0  0  0  0
   37.3080   28.7620   36.1570 H   0  0  0  0  0  0  0  0  0  0  0  0
   35.5040   30.7050   37.8930 H   0  0  0  0  0  0  0  0  0  0  0  0
   33.6420   29.2920   35.1950 C   0  0  0  0  0  0  0  0  0  0  0  0
   33.9020   29.0250   36.5540 C   0  0  0  0  0  0  0  0  0  0  0  0
   32.8220   29.0690   37.4480 C   0  0  0  0  0  0  0  0  0  0  0  0
   31.5960   29.3630   36.9510 N   0  0  0  0  0  0  0  0  0  0  0  0
   31.3730   29.6160   35.6430 C   0  0  0  0  0  0  0  0  0  0  0  0
   32.4040   29.5810   34.7480 N   0  0  0  0  0  0  0  0  0  0  0  0
   34.5220   29.2440   34.5480 H   0  0  0  0  0  0  0  0  0  0  0  0
   32.9770   28.8710   38.4980 H   0  0  0  0  0  0  0  0  0  0  0  0
   30.3810   29.8500   35.2640 H   0  0  0  0  0  0  0  0  0  0  0  0
  1  2  1  6  0  0  0
  1  6  1  0  0  0  0
  2  3  1  0  0  0  0
  3 10  1  0  0  0  0
  3  4  1  0  0  0  0
  4 11  1  0  0  0  0
  5  4  1  0  0  0  0
  5 13  1  0  0  0  0
  6 15  1  6  0  0  0
  6  5  1  0  0  0  0
  6 18  1  0  0  0  0
  7  2  1  0  0  0  0
  8  2  1  0  0  0  0
  9  3  1  0  0  0  0
 12  4  1  0  0  0  0
 14  5  1  0  0  0  0
 16 17  1  0  0  0  0
 17 18  2  0  0  0  0
 17 24  1  0  0  0  0
 18 19  1  0  0  0  0
 19 20  1  0  0  0  0
 19 21  2  0  0  0  0
 21 22  1  0  0  0  0
 23 21  1  0  0  0  0
 24 23  2  0  0  0  0
 25 28  1  1  0  0  0
 25 27  1  0  0  0  0
 26 25  1  0  0  0  0
 26 27  1  0  0  0  0
 27 31  1  1  0  0  0
 27  1  1  0  0  0  0
 29 26  1  0  0  0  0
 30 26  1  0  0  0  0
 32 33  1  0  0  0  0
 33 25  1  0  0  0  0
 33 34  2  0  0  0  0
 34 39  1  0  0  0  0
 35 34  1  0  0  0  0
 36 35  2  0  0  0  0
 37 32  2  0  0  0  0
 37 36  1  0  0  0  0
 38 32  1  0  0  0  0
 40 36  1  0  0  0  0
M  END
>  <minimizedAffinity>
-5.222826

$$$$

 OpenBabel03252506443D

 40 43  0  0  1  0  0  0  0  0999 V2000
   38.3160   30.9670   40.4970 N   0  0  1  0  0  0  0  0  0  0  0  0
   36.9850   31.5160   40.5420 C   0  0  0  0  0  0  0  0  0  0  0  0
   35.8810   30.5310   40.6610 C   0  0  0  0  0  0  0  0  0  0  0  0
   35.8490   29.6580   39.4180 C   0  0  0  0  0  0  0  0  0  0  0  0
   37.2320   29.4010   38.9360 C   0  0  0  0  0  0  0  0  0  0  0  0
   38.2600   29.6030   40.0040 C   0  0  2  0  0  0  0  0  0  0  0  0
   36.7910   32.1110   39.6140 H   0  0  0  0  0  0  0  0  0  0  0  0
   36.8830   32.2850   41.3630 H   0  0  0  0  0  0  0  0  0  0  0  0
   34.9350   31.1400   40.7320 H   0  0  0  0  0  0  0  0  0  0  0  0
   35.8640   29.8730   41.5180 H   0  0  0  0  0  0  0  0  0  0  0  0
   35.2290   28.7520   39.5690 H   0  0  0  0  0  0  0  0  0  0  0  0
   35.3200   30.2470   38.6370 H   0  0  0  0  0  0  0  0  0  0  0  0
   37.3760   28.4100   38.4780 H   0  0  0  0  0  0  0  0  0  0  0  0
   37.5170   30.1220   38.1110 H   0  0  0  0  0  0  0  0  0  0  0  0
   39.2520   29.5010   39.4480 H   0  0  0  0  0  0  0  0  0  0  0  0
   39.2970   30.1430   42.9260 Cl  0  0  0  0  0  0  0  0  0  0  0  0
   38.7020   28.6250   42.3660 C   0  0  0  0  0  0  0  0  0  0  0  0
   38.3270   28.5790   41.0480 C   0  0  0  0  0  0  0  0  0  0  0  0
   37.8800   27.3420   40.5660 C   0  0  0  0  0  0  0  0  0  0  0  0
   37.5330   27.0240   39.5880 H   0  0  0  0  0  0  0  0  0  0  0  0
   37.8350   26.2360   41.4270 C   0  0  0  0  0  0  0  0  0  0  0  0
   37.5110   25.2360   41.1760 H   0  0  0  0  0  0  0  0  0  0  0  0
   38.2240   26.3410   42.7510 C   0  0  0  0  0  3  0  0  0  0  0  0
   38.6630   27.5600   43.2190 C   0  0  0  0  0  3  0  0  0  0  0  0
   40.3300   32.5550   40.2060 C   0  0  1  0  0  0  0  0  0  0  0  0
   39.0610   33.2780   40.0210 C   0  0  0  0  0  0  0  0  0  0  0  0
   39.1230   31.8310   39.7050 C   0  0  2  0  0  0  0  0  0  0  0  0
   40.6780   32.3720   41.2360 H   0  0  0  0  0  0  0  0  0  0  0  0
   39.0040   34.0000   39.1610 H   0  0  0  0  0  0  0  0  0  0  0  0
   38.5680   33.6650   40.9270 H   0  0  0  0  0  0  0  0  0  0  0  0
   39.1630   31.5780   38.6180 H   0  0  0  0  0  0  0  0  0  0  0  0
   42.5640   31.9370   39.2280 C   0  0  0  0  0  0  0  0  0  0  0  0
   41.4540   32.8040   39.2670 C   0  0  0  0  0  0  0  0  0  0  0  0
   41.4480   33.8980   38.3890 C   0  0  0  0  0  0  0  0  0  0  0  0
   42.5060   34.0530   37.5570 N   0  0  0  0  0  0  0  0  0  0  0  0
   43.5580   33.2070   37.5390 C   0  0  0  0  0  0  0  0  0  0  0  0
   43.5950   32.1330   38.3820 N   0  0  0  0  0  0  0  0  0  0  0  0
   42.5130   31.1050   39.9350 H   0  0  0  0  0  0  0  0  0  0  0  0
   40.6170   34.5880   38.3860 H   0  0  0  0  0  0  0  0  0  0  0  0
   44.3990   33.3490   36.8640 H   0  0  0  0  0  0  0  0  0  0  0  0
  1  2  1  6  0  0  0
  2  3  1  0  0  0  0
  2  8  1  0  0  0  0
  3  9  1  0  0  0  0
  3 10  1  0  0  0  0
  4 11  1  0  0  0  0
  4  3  1  0  0  0  0
  5  4  1  0  0  0  0
  5  6  1  0  0  0  0
  6 15  1  6  0  0  0
  6  1  1  0  0  0  0
  6 18  1  0  0  0  0
  7  2  1  0  0  0  0
 12  4  1  0  0  0  0
 13  5  1  0  0  0  0
 14  5  1  0  0  0  0
 17 16  1  0  0  0  0
 17 24  1  0  0  0  0
 18 17  2  0  0  0  0
 19 18  1  0  0  0  0
 19 21  2  0  0  0  0
 20 19  1  0  0  0  0
 21 23  1  0  0  0  0
 22 21  1  0  0  0  0
 23 24  2  0  0  0  0
 25 28  1  1  0  0  0
 26 25  1  0  0  0  0
 26 30  1  0  0  0  0
 27 31  1  6  0  0  0
 27 26  1  0  0  0  0
 27 25  1  0  0  0  0
 27  1  1  0  0  0  0
 29 26  1  0  0  0  0
 32 33  1  0  0  0  0
 32 38  1  0  0  0  0
 33 25  1  0  0  0  0
 34 33  2  0  0  0  0
 35 34  1  0  0  0  0
 36 35  2  0  0  0  0
 36 37  1  0  0  0  0
 37 32  2  0  0  0  0
 39 34  1  0  0  0  0
 40 36  1  0  0  0  0
M  END
>  <minimizedAffinity>
-5.16422606

$$$$

 OpenBabel03252506443D

 40 43  0  0  1  0  0  0  0  0999 V2000
   37.0730   29.5630   40.2310 N   0  0  1  0  0  0  0  0  0  0  0  0
   35.7650   30.1560   40.3380 C   0  0  0  0  0  0  0  0  0  0  0  0
   34.6180   29.2350   40.1420 C   0  0  0  0  0  0  0  0  0  0  0  0
   34.6370   28.7020   38.7190 C   0  0  0  0  0  0  0  0  0  0  0  0
   36.0390   28.4980   38.2670 C   0  0  0  0  0  0  0  0  0  0  0  0
   36.9980   28.3700   39.4080 C   0  0  2  0  0  0  0  0  0  0  0  0
   35.6590   30.9730   39.5800 H   0  0  0  0  0  0  0  0  0  0  0  0
   35.6370   30.7010   41.3190 H   0  0  0  0  0  0  0  0  0  0  0  0
   33.6940   29.8580   40.3110 H   0  0  0  0  0  0  0  0  0  0  0  0
   34.5160   28.3860   40.8030 H   0  0  0  0  0  0  0  0  0  0  0  0
   33.9730   27.8220   38.6020 H   0  0  0  0  0  0  0  0  0  0  0  0
   34.1860   29.4950   38.0830 H   0  0  0  0  0  0  0  0  0  0  0  0
   36.1750   27.6450   37.5830 H   0  0  0  0  0  0  0  0  0  0  0  0
   36.4070   29.3840   37.6680 H   0  0  0  0  0  0  0  0  0  0  0  0
   38.0210   28.3550   38.9010 H   0  0  0  0  0  0  0  0  0  0  0  0
   36.4160   25.5610   38.1110 Cl  0  0  0  0  0  0  0  0  0  0  0  0
   36.7610   25.8140   39.7810 C   0  0  0  0  0  0  0  0  0  0  0  0
   36.9540   27.1160   40.1620 C   0  0  0  0  0  0  0  0  0  0  0  0
   37.1940   27.3420   41.5240 C   0  0  0  0  0  0  0  0  0  0  0  0
   37.3740   28.2510   42.0900 H   0  0  0  0  0  0  0  0  0  0  0  0
   37.2280   26.2590   42.4130 C   0  0  0  0  0  0  0  0  0  0  0  0
   37.4040   26.3040   43.4780 H   0  0  0  0  0  0  0  0  0  0  0  0
   37.0280   24.9620   41.9720 C   0  0  0  0  0  3  0  0  0  0  0  0
   36.7910   24.7460   40.6320 C   0  0  0  0  0  3  0  0  0  0  0  0
   39.4300   30.5960   40.0230 C   0  0  1  0  0  0  0  0  0  0  0  0
   38.5110   31.5190   40.7110 C   0  0  0  0  0  0  0  0  0  0  0  0
   37.9650   30.5510   39.7290 C   0  0  2  0  0  0  0  0  0  0  0  0
   39.8850   29.7820   40.6120 H   0  0  0  0  0  0  0  0  0  0  0  0
   38.5540   32.6020   40.4110 H   0  0  0  0  0  0  0  0  0  0  0  0
   38.3910   31.3890   41.7980 H   0  0  0  0  0  0  0  0  0  0  0  0
   37.6880   30.9800   38.7350 H   0  0  0  0  0  0  0  0  0  0  0  0
   40.9830   30.2550   38.0740 C   0  0  0  0  0  0  0  0  0  0  0  0
   40.3520   31.1250   38.9850 C   0  0  0  0  0  0  0  0  0  0  0  0
   40.6170   32.4980   38.8710 C   0  0  0  0  0  0  0  0  0  0  0  0
   41.4630   32.9030   37.8930 N   0  0  0  0  0  0  0  0  0  0  0  0
   42.0560   32.0480   37.0310 C   0  0  0  0  0  0  0  0  0  0  0  0
   41.8180   30.7060   37.1170 N   0  0  0  0  0  0  0  0  0  0  0  0
   40.7380   29.1990   38.2130 H   0  0  0  0  0  0  0  0  0  0  0  0
   40.1540   33.1990   39.5480 H   0  0  0  0  0  0  0  0  0  0  0  0
   42.7320   32.3930   36.2520 H   0  0  0  0  0  0  0  0  0  0  0  0
  1  2  1  6  0  0  0
  2  8  1  0  0  0  0
  3  9  1  0  0  0  0
  3  2  1  0  0  0  0
  3 10  1  0  0  0  0
  4  3  1  0  0  0  0
  5  4  1  0  0  0  0
  5  6  1  0  0  0  0
  6 15  1  6  0  0  0
  6 18  1  0  0  0  0
  6  1  1  0  0  0  0
  7  2  1  0  0  0  0
 11  4  1  0  0  0  0
 12  4  1  0  0  0  0
 13  5  1  0  0  0  0
 14  5  1  0  0  0  0
 16 17  1  0  0  0  0
 17 18  2  0  0  0  0
 17 24  1  0  0  0  0
 18 19  1  0  0  0  0
 19 20  1  0  0  0  0
 19 21  2  0  0  0  0
 21 22  1  0  0  0  0
 23 21  1  0  0  0  0
 24 23  2  0  0  0  0
 25 28  1  1  0  0  0
 25 26  1  0  0  0  0
 26 30  1  0  0  0  0
 27 31  1  6  0  0  0
 27 25  1  0  0  0  0
 27  1  1  0  0  0  0
 27 26  1  0  0  0  0
 29 26  1  0  0  0  0
 32 38  1  0  0  0  0
 32 33  1  0  0  0  0
 33 25  1  0  0  0  0
 34 33  2  0  0  0  0
 34 39  1  0  0  0  0
 35 34  1  0  0  0  0
 36 37  1  0  0  0  0
 36 35  2  0  0  0  0
 37 32  2  0  0  0  0
 40 36  1  0  0  0  0
M  END
>  <minimizedAffinity>
-5.15227938

$$$$

 OpenBabel03252506443D

 40 43  0  0  1  0  0  0  0  0999 V2000
   37.3200   28.7590   41.3290 N   0  0  1  0  0  0  0  0  0  0  0  0
   36.6540   28.1080   42.4280 C   0  0  0  0  0  0  0  0  0  0  0  0
   37.5390   27.5060   43.4560 C   0  0  0  0  0  0  0  0  0  0  0  0
   38.3470   26.3820   42.8310 C   0  0  0  0  0  0  0  0  0  0  0  0
   38.7060   26.7280   41.4300 C   0  0  0  0  0  0  0  0  0  0  0  0
   38.6490   28.1990   41.1670 C   0  0  2  0  0  0  0  0  0  0  0  0
   36.0020   27.2860   42.0390 H   0  0  0  0  0  0  0  0  0  0  0  0
   35.9170   28.7990   42.9330 H   0  0  0  0  0  0  0  0  0  0  0  0
   36.8490   27.0950   44.2480 H   0  0  0  0  0  0  0  0  0  0  0  0
   38.2310   28.1470   43.9840 H   0  0  0  0  0  0  0  0  0  0  0  0
   39.1990   26.0830   43.4740 H   0  0  0  0  0  0  0  0  0  0  0  0
   37.6770   25.4950   42.8020 H   0  0  0  0  0  0  0  0  0  0  0  0
   39.6840   26.3400   41.1040 H   0  0  0  0  0  0  0  0  0  0  0  0
   37.9780   26.2670   40.6970 H   0  0  0  0  0  0  0  0  0  0  0  0
   38.8150   28.2800   40.0420 H   0  0  0  0  0  0  0  0  0  0  0  0
   41.6240   27.2150   41.4690 Cl  0  0  0  0  0  0  0  0  0  0  0  0
   41.0610   28.7800   41.9250 C   0  0  0  0  0  0  0  0  0  0  0  0
   39.7210   29.0090   41.7470 C   0  0  0  0  0  0  0  0  0  0  0  0
   39.2410   30.2620   42.1520 C   0  0  0  0  0  0  0  0  0  0  0  0
   38.2490   30.7010   42.1310 H   0  0  0  0  0  0  0  0  0  0  0  0
   40.1250   31.2000   42.7020 C   0  0  0  0  0  0  0  0  0  0  0  0
   39.8770   32.1940   43.0490 H   0  0  0  0  0  0  0  0  0  0  0  0
   41.4700   30.9150   42.8560 C   0  0  0  0  0  3  0  0  0  0  0  0
   41.9370   29.6820   42.4580 C   0  0  0  0  0  3  0  0  0  0  0  0
   35.9890   29.7770   39.3650 C   0  0  1  0  0  0  0  0  0  0  0  0
   35.0910   29.0810   40.3020 C   0  0  0  0  0  0  0  0  0  0  0  0
   36.4970   28.6290   40.1760 C   0  0  2  0  0  0  0  0  0  0  0  0
   36.3130   30.8000   39.6190 H   0  0  0  0  0  0  0  0  0  0  0  0
   34.2900   28.4310   39.8560 H   0  0  0  0  0  0  0  0  0  0  0  0
   34.7310   29.6550   41.1710 H   0  0  0  0  0  0  0  0  0  0  0  0
   36.6490   27.6900   39.5890 H   0  0  0  0  0  0  0  0  0  0  0  0
   34.5900   29.0800   37.3940 C   0  0  0  0  0  0  0  0  0  0  0  0
   35.8000   29.5920   37.9030 C   0  0  0  0  0  0  0  0  0  0  0  0
   36.8080   29.9230   36.9860 C   0  0  0  0  0  0  0  0  0  0  0  0
   36.5570   29.7330   35.6680 N   0  0  0  0  0  0  0  0  0  0  0  0
   35.3870   29.2420   35.2050 C   0  0  0  0  0  0  0  0  0  0  0  0
   34.3860   28.9090   36.0730 N   0  0  0  0  0  0  0  0  0  0  0  0
   33.8440   28.8390   38.1560 H   0  0  0  0  0  0  0  0  0  0  0  0
   37.7510   30.3180   37.3330 H   0  0  0  0  0  0  0  0  0  0  0  0
   35.2040   29.0960   34.1420 H   0  0  0  0  0  0  0  0  0  0  0  0
  1  2  1  1  0  0  0
  2  8  1  0  0  0  0
  2  3  1  0  0  0  0
  3 10  1  0  0  0  0
  3  9  1  0  0  0  0
  4  3  1  0  0  0  0
  4 11  1  0  0  0  0
  5  4  1  0  0  0  0
  6 15  1  6  0  0  0
  6  1  1  0  0  0  0
  6  5  1  0  0  0  0
  6 18  1  0  0  0  0
  7  2  1  0  0  0  0
 12  4  1  0  0  0  0
 13  5  1  0  0  0  0
 14  5  1  0  0  0  0
 16 17  1  0  0  0  0
 17 24  1  0  0  0  0
 18 17  2  0  0  0  0
 18 19  1  0  0  0  0
 19 21  2  0  0  0  0
 20 19  1  0  0  0  0
 21 23  1  0  0  0  0
 21 22  1  0  0  0  0
 24 23  2  0  0  0  0
 25 28  1  1  0  0  0
 25 27  1  0  0  0  0
 25 26  1  0  0  0  0
 26 30  1  0  0  0  0
 27 31  1  6  0  0  0
 27 26  1  0  0  0  0
 27  1  1  0  0  0  0
 29 26  1  0  0  0  0
 32 33  1  0  0  0  0
 32 38  1  0  0  0  0
 33 25  1  0  0  0  0
 34 39  1  0  0  0  0
 34 33  2  0  0  0  0
 35 34  1  0  0  0  0
 36 35  2  0  0  0  0
 36 37  1  0  0  0  0
 37 32  2  0  0  0  0
 40 36  1  0  0  0  0
M  END
>  <minimizedAffinity>
-5.08587313

$$$$
