
 OpenBabel03252507583D

 27 29  0  0  1  0  0  0  0  0999 V2000
   46.7870   32.5240   46.0380 C   0  0  1  0  0  0  0  0  0  0  0  0
   47.0090   32.7820   47.4860 C   0  0  0  0  0  0  0  0  0  0  0  0
   45.7950   32.0920   47.0800 C   0  0  2  0  0  0  0  0  0  0  0  0
   47.4940   31.8580   45.5400 H   0  0  0  0  0  0  0  0  0  0  0  0
   46.8970   33.8600   47.7770 H   0  0  0  0  0  0  0  0  0  0  0  0
   47.9280   32.3730   47.8910 H   0  0  0  0  0  0  0  0  0  0  0  0
   44.8300   32.6770   47.1630 H   0  0  0  0  0  0  0  0  0  0  0  0
   45.1200   30.5010   49.6420 Cl  0  0  0  0  0  0  0  0  0  0  0  0
   45.2120   29.8000   48.0480 C   0  0  0  0  0  0  0  0  0  0  0  0
   45.5220   30.6670   47.0250 C   0  0  0  0  0  0  0  0  0  0  0  0
   45.5820   30.0580   45.7630 C   0  0  0  0  0  0  0  0  0  0  0  0
   45.8210   30.6550   44.8720 H   0  0  0  0  0  0  0  0  0  0  0  0
   45.3510   28.7180   45.5680 C   0  0  0  0  0  0  0  0  0  0  0  0
   45.4070   28.2920   44.5810 H   0  0  0  0  0  0  0  0  0  0  0  0
   45.0440   27.9110   46.6450 C   0  0  0  0  0  0  0  0  0  0  0  0
   44.9720   28.4530   47.9110 C   0  0  0  0  0  0  0  0  0  0  0  0
   46.4200   34.7320   43.1410 C   0  0  0  0  0  0  0  0  0  0  0  0
   45.3390   35.5740   43.4940 C   0  0  0  0  0  0  0  0  0  0  0  0
   44.7490   35.3540   44.7500 C   0  0  0  0  0  0  0  0  0  0  0  0
   45.2460   34.3590   45.5390 N   0  0  0  0  0  0  0  0  0  0  0  0
   46.2880   33.5930   45.1270 C   0  0  0  0  0  0  0  0  0  0  0  0
   46.8820   33.7550   43.9540 N   0  0  0  0  0  0  0  0  0  0  0  0
   44.9860   36.3470   42.8280 H   0  0  0  0  0  0  0  0  0  0  0  0
   43.9200   35.9720   45.0630 H   0  0  0  0  0  0  0  0  0  0  0  0
   46.9930   35.0020   41.8500 C   0  0  0  0  0  0  0  0  0  0  0  0
   48.1690   35.4470   41.6590 O   0  0  0  0  0  0  0  0  0  0  0  0
   46.5510   34.8840   40.8500 H   0  0  0  0  0  0  0  0  0  0  0  0
  1  4  1  6  0  0  0
  1  3  1  0  0  0  0
  1  2  1  0  0  0  0
  2  5  1  0  0  0  0
  2  6  1  0  0  0  0
  3  7  1  1  0  0  0
  3  2  1  0  0  0  0
  9  8  1  0  0  0  0
 10  3  1  0  0  0  0
 10  9  2  0  0  0  0
 11 10  1  0  0  0  0
 12 11  1  0  0  0  0
 13 11  2  0  0  0  0
 13 15  1  0  0  0  0
 14 13  1  0  0  0  0
 15 16  2  0  0  0  0
 16  9  1  0  0  0  0
 17 18  2  0  0  0  0
 17 22  1  0  0  0  0
 18 19  1  0  0  0  0
 19 24  1  0  0  0  0
 19 20  2  0  0  0  0
 21 20  1  0  0  0  0
 21  1  1  0  0  0  0
 22 21  2  0  0  0  0
 23 18  1  0  0  0  0
 25 17  1  0  0  0  0
 26 25  2  0  0  0  0
 27 25  1  0  0  0  0
M  END
>  <minimizedAffinity>
-4.95248747

>  <minimizedRMSD>
1.52463651

$$$$
