
 OpenBabel03252508143D

 37 40  0  0  1  0  0  0  0  0999 V2000
   46.0260   33.0960   45.9170 C   0  0  0  0  0  3  0  0  0  0  0  0
   46.9010   32.2140   45.6250 C   0  0  0  0  0  3  0  0  0  0  0  0
   44.6400   36.0860   44.2760 C   0  0  0  0  0  0  0  0  0  0  0  0
   45.1110   35.9630   42.9550 C   0  0  0  0  0  0  0  0  0  0  0  0
   45.8930   34.8820   42.6790 C   0  0  0  0  0  0  0  0  0  0  0  0
   46.1370   34.0320   43.6990 N   0  0  0  0  0  0  0  0  0  0  0  0
   45.7030   34.1310   44.9420 C   0  0  0  0  0  0  0  0  0  0  0  0
   44.9510   35.1750   45.2120 N   0  0  0  0  0  0  0  0  0  0  0  0
   44.0110   36.9420   44.5350 H   0  0  0  0  0  0  0  0  0  0  0  0
   44.8600   36.6670   42.2050 H   0  0  0  0  0  0  0  0  0  0  0  0
   48.7890   35.7730   41.8440 Cl  0  0  0  0  0  0  0  0  0  0  0  0
   47.7020   34.8120   40.8870 C   0  0  0  0  0  0  0  0  0  0  0  0
   46.4780   34.5180   41.4190 C   0  0  0  0  0  0  0  0  0  0  0  0
   45.7450   33.7100   40.5430 C   0  0  0  0  0  0  0  0  0  0  0  0
   44.7410   33.3680   40.7910 H   0  0  0  0  0  0  0  0  0  0  0  0
   46.1830   33.2710   39.3170 C   0  0  0  0  0  0  0  0  0  0  0  0
   45.5810   32.6560   38.6870 H   0  0  0  0  0  0  0  0  0  0  0  0
   47.4340   33.6240   38.8690 C   0  0  0  0  0  3  0  0  0  0  0  0
   48.2050   34.4160   39.6840 C   0  0  0  0  0  3  0  0  0  0  0  0
   47.1520   31.1690   46.7060 C   0  0  0  0  0  0  0  0  0  0  0  0
   46.6080   30.2430   46.4790 H   0  0  0  0  0  0  0  0  0  0  0  0
   48.2420   30.9450   46.6850 H   0  0  0  0  0  0  0  0  0  0  0  0
   46.7890   31.7390   48.0540 C   0  0  1  0  0  0  0  0  0  0  0  0
   46.2100   30.7880   49.0450 C   0  0  0  0  0  0  0  0  0  0  0  0
   47.5480   31.3090   49.2520 C   0  0  1  0  0  0  0  0  0  0  0  0
   46.3620   32.7610   48.0610 H   0  0  0  0  0  0  0  0  0  0  0  0
   46.0690   29.7220   48.7180 H   0  0  0  0  0  0  0  0  0  0  0  0
   45.3840   31.1230   49.7140 H   0  0  0  0  0  0  0  0  0  0  0  0
   47.6450   32.1030   50.0540 H   0  0  0  0  0  0  0  0  0  0  0  0
   48.7960   30.5440   49.0530 C   0  0  0  0  0  0  0  0  0  0  0  0
   49.5850   30.2760   50.3660 C   0  0  0  0  0  0  0  0  0  0  0  0
   50.1090   31.2910   49.4050 C   0  0  0  0  0  0  0  0  0  0  0  0
   48.8770   29.7510   48.2920 H   0  0  0  0  0  0  0  0  0  0  0  0
   50.0420   29.2870   50.4590 H   0  0  0  0  0  0  0  0  0  0  0  0
   49.1450   30.6440   51.3100 H   0  0  0  0  0  0  0  0  0  0  0  0
   49.9880   32.3500   49.7080 H   0  0  0  0  0  0  0  0  0  0  0  0
   51.0300   30.9910   48.8950 H   0  0  0  0  0  0  0  0  0  0  0  0
  2  1  2  0  0  0  0
  2 20  1  0  0  0  0
  3  9  1  0  0  0  0
  3  8  1  0  0  0  0
  4  3  2  0  0  0  0
  5  4  1  0  0  0  0
  5  6  2  0  0  0  0
  6  7  1  0  0  0  0
  7  8  2  0  0  0  0
  7  1  1  0  0  0  0
 10  4  1  0  0  0  0
 12 13  1  0  0  0  0
 12 11  1  0  0  0  0
 13  5  1  0  0  0  0
 14 15  1  0  0  0  0
 14 13  2  0  0  0  0
 16 14  1  0  0  0  0
 17 16  1  0  0  0  0
 18 16  2  0  0  0  0
 18 19  1  0  0  0  0
 19 12  2  0  0  0  0
 20 23  1  0  0  0  0
 21 20  1  0  0  0  0
 22 20  1  0  0  0  0
 23 26  1  1  0  0  0
 23 24  1  0  0  0  0
 23 25  1  0  0  0  0
 24 25  1  0  0  0  0
 24 28  1  0  0  0  0
 25 29  1  1  0  0  0
 27 24  1  0  0  0  0
 30 25  1  0  0  0  0
 30 32  1  0  0  0  0
 30 31  1  0  0  0  0
 31 34  1  0  0  0  0
 31 35  1  0  0  0  0
 32 36  1  0  0  0  0
 32 31  1  0  0  0  0
 33 30  1  0  0  0  0
 37 32  1  0  0  0  0
M  END
>  <minimizedAffinity>
-6.28810644

>  <minimizedRMSD>
0.94757539

$$$$
