
 OpenBabel03252506423D

 40 43  0  0  1  0  0  0  0  0999 V2000
   49.1900   33.1280   41.5160 N   0  0  1  0  0  0  0  0  0  0  0  0
   50.5730   33.1640   41.9190 C   0  0  0  0  0  0  0  0  0  0  0  0
   51.3230   31.8930   41.7750 C   0  0  0  0  0  0  0  0  0  0  0  0
   50.7250   30.8460   42.6990 C   0  0  0  0  0  0  0  0  0  0  0  0
   49.2490   31.0130   42.7740 C   0  0  0  0  0  0  0  0  0  0  0  0
   48.6950   31.7670   41.6070 C   0  0  2  0  0  0  0  0  0  0  0  0
   50.6430   33.4640   42.9960 H   0  0  0  0  0  0  0  0  0  0  0  0
   51.1360   33.9880   41.3900 H   0  0  0  0  0  0  0  0  0  0  0  0
   52.3820   32.1260   42.0870 H   0  0  0  0  0  0  0  0  0  0  0  0
   51.4060   31.4470   40.7930 H   0  0  0  0  0  0  0  0  0  0  0  0
   51.0690   29.8250   42.4410 H   0  0  0  0  0  0  0  0  0  0  0  0
   51.1420   31.0480   43.7100 H   0  0  0  0  0  0  0  0  0  0  0  0
   48.6920   30.0710   42.8930 H   0  0  0  0  0  0  0  0  0  0  0  0
   48.9530   31.6170   43.6840 H   0  0  0  0  0  0  0  0  0  0  0  0
   47.5980   31.9210   41.8800 H   0  0  0  0  0  0  0  0  0  0  0  0
   48.5970   33.1910   38.8010 Cl  0  0  0  0  0  0  0  0  0  0  0  0
   48.6460   31.4840   39.0280 C   0  0  0  0  0  0  0  0  0  0  0  0
   48.6500   31.0530   40.3300 C   0  0  0  0  0  0  0  0  0  0  0  0
   48.6470   29.6650   40.5310 C   0  0  0  0  0  0  0  0  0  0  0  0
   48.6480   29.0620   41.4340 H   0  0  0  0  0  0  0  0  0  0  0  0
   48.6420   28.8040   39.4270 C   0  0  0  0  0  0  0  0  0  0  0  0
   48.6400   27.7230   39.4520 H   0  0  0  0  0  0  0  0  0  0  0  0
   48.6390   29.2940   38.1330 C   0  0  0  0  0  3  0  0  0  0  0  0
   48.6410   30.6580   37.9410 C   0  0  0  0  0  3  0  0  0  0  0  0
   47.0710   34.5000   42.0520 C   0  0  1  0  0  0  0  0  0  0  0  0
   48.2010   35.3870   41.7260 C   0  0  0  0  0  0  0  0  0  0  0  0
   48.4720   34.0560   42.3200 C   0  0  2  0  0  0  0  0  0  0  0  0
   46.5120   34.0430   41.2180 H   0  0  0  0  0  0  0  0  0  0  0  0
   48.3470   36.2910   42.3780 H   0  0  0  0  0  0  0  0  0  0  0  0
   48.3760   35.6040   40.6610 H   0  0  0  0  0  0  0  0  0  0  0  0
   48.7510   34.0600   43.4020 H   0  0  0  0  0  0  0  0  0  0  0  0
   45.4430   36.0260   43.2140 C   0  0  0  0  0  0  0  0  0  0  0  0
   46.1930   34.8330   43.2040 C   0  0  0  0  0  0  0  0  0  0  0  0
   46.0760   33.9760   44.3080 C   0  0  0  0  0  0  0  0  0  0  0  0
   45.2480   34.3460   45.3150 N   0  0  0  0  0  0  0  0  0  0  0  0
   44.5390   35.4950   45.3010 C   0  0  0  0  0  0  0  0  0  0  0  0
   44.6320   36.3510   44.2410 N   0  0  0  0  0  0  0  0  0  0  0  0
   45.5770   36.6530   42.3280 H   0  0  0  0  0  0  0  0  0  0  0  0
   46.6330   33.0520   44.3400 H   0  0  0  0  0  0  0  0  0  0  0  0
   43.8800   35.7740   46.1200 H   0  0  0  0  0  0  0  0  0  0  0  0
  1  6  1  0  0  0  0
  1  2  1  1  0  0  0
  1 27  1  0  0  0  0
  2  7  1  0  0  0  0
  3  2  1  0  0  0  0
  3  9  1  0  0  0  0
  3  4  1  0  0  0  0
  4  5  1  0  0  0  0
  4 12  1  0  0  0  0
  5 13  1  0  0  0  0
  5 14  1  0  0  0  0
  6 15  1  1  0  0  0
  6  5  1  0  0  0  0
  8  2  1  0  0  0  0
 10  3  1  0  0  0  0
 11  4  1  0  0  0  0
 16 17  1  0  0  0  0
 17 18  1  0  0  0  0
 18 19  2  0  0  0  0
 18  6  1  0  0  0  0
 19 20  1  0  0  0  0
 21 22  1  0  0  0  0
 21 19  1  0  0  0  0
 23 21  2  0  0  0  0
 24 23  1  0  0  0  0
 24 17  2  0  0  0  0
 25 28  1  6  0  0  0
 25 27  1  0  0  0  0
 25 33  1  0  0  0  0
 26 25  1  0  0  0  0
 26 27  1  0  0  0  0
 26 29  1  0  0  0  0
 27 31  1  1  0  0  0
 30 26  1  0  0  0  0
 32 37  1  0  0  0  0
 33 32  2  0  0  0  0
 33 34  1  0  0  0  0
 34 39  1  0  0  0  0
 34 35  2  0  0  0  0
 36 35  1  0  0  0  0
 36 40  1  0  0  0  0
 37 36  2  0  0  0  0
 38 32  1  0  0  0  0
M  END
>  <minimizedAffinity>
-4.73386765

>  <minimizedRMSD>
0.511214554

$$$$
