
 OpenBabel03252500003D

 21 22  0  0  0  0  0  0  0  0999 V2000
   35.8600   30.4950   40.6280 C   0  0  0  0  0  0  0  0  0  0  0  0
   35.8290   29.0720   40.6450 C   0  0  0  0  0  0  0  0  0  0  0  0
   36.9890   28.4160   41.0230 C   0  0  0  0  0  0  0  0  0  0  0  0
   38.0790   29.1590   41.3540 N   0  0  0  0  0  0  0  0  0  0  0  0
   38.0750   30.4940   41.3290 C   0  0  0  0  0  0  0  0  0  0  0  0
   36.9680   31.1630   40.9660 N   0  0  0  0  0  0  0  0  0  0  0  0
   34.9620   31.0310   40.3340 H   0  0  0  0  0  0  0  0  0  0  0  0
   34.9300   28.5370   40.3700 H   0  0  0  0  0  0  0  0  0  0  0  0
   36.4560   27.2720   43.6780 Cl  0  0  0  0  0  0  0  0  0  0  0  0
   36.8330   26.3060   42.2650 C   0  0  0  0  0  0  0  0  0  0  0  0
   37.0640   26.9610   41.0740 C   0  0  0  0  0  0  0  0  0  0  0  0
   37.3550   26.1540   39.9980 C   0  0  0  0  0  0  0  0  0  0  0  0
   37.5450   26.5990   39.0440 H   0  0  0  0  0  0  0  0  0  0  0  0
   37.4200   24.7780   40.0740 C   0  0  0  0  0  0  0  0  0  0  0  0
   37.6520   24.1690   39.2100 H   0  0  0  0  0  0  0  0  0  0  0  0
   37.1800   24.1470   41.3000 C   0  0  0  0  0  3  0  0  0  0  0  0
   36.8860   24.9340   42.3960 C   0  0  0  0  0  3  0  0  0  0  0  0
   39.3720   31.0940   41.7300 C   0  0  0  0  0  0  0  0  0  0  0  0
   40.4310   30.5440   41.0360 F   0  0  0  0  0  0  0  0  0  0  0  0
   39.5910   30.9320   43.0840 F   0  0  0  0  0  0  0  0  0  0  0  0
   39.3280   32.4780   41.5140 F   0  0  0  0  0  0  0  0  0  0  0  0
  1  2  2  0  0  0  0
  1  6  1  0  0  0  0
  2  3  1  0  0  0  0
  3 11  1  0  0  0  0
  3  4  2  0  0  0  0
  5  4  1  0  0  0  0
  5 18  1  0  0  0  0
  6  5  2  0  0  0  0
  7  1  1  0  0  0  0
  8  2  1  0  0  0  0
 10 17  1  0  0  0  0
 10  9  1  0  0  0  0
 11 10  2  0  0  0  0
 12 14  2  0  0  0  0
 12 11  1  0  0  0  0
 13 12  1  0  0  0  0
 14 16  1  0  0  0  0
 15 14  1  0  0  0  0
 16 17  2  0  0  0  0
 18 20  1  0  0  0  0
 19 18  1  0  0  0  0
 21 18  1  0  0  0  0
M  END
>  <minimizedAffinity>
-4.95122242

$$$$

 OpenBabel03252500003D

 21 22  0  0  0  0  0  0  0  0999 V2000
   39.8350   30.0910   42.5290 C   0  0  0  0  0  0  0  0  0  0  0  0
   39.6420   28.6820   42.4740 C   0  0  0  0  0  0  0  0  0  0  0  0
   38.5700   28.2170   41.7300 C   0  0  0  0  0  0  0  0  0  0  0  0
   37.7720   29.1230   41.1020 N   0  0  0  0  0  0  0  0  0  0  0  0
   37.9810   30.4390   41.1730 C   0  0  0  0  0  0  0  0  0  0  0  0
   39.0110   30.9250   41.8860 N   0  0  0  0  0  0  0  0  0  0  0  0
   40.6700   30.4790   43.1060 H   0  0  0  0  0  0  0  0  0  0  0  0
   40.3110   28.0130   42.9960 H   0  0  0  0  0  0  0  0  0  0  0  0
   36.3820   27.2770   43.4520 Cl  0  0  0  0  0  0  0  0  0  0  0  0
   37.2760   26.2330   42.3650 C   0  0  0  0  0  0  0  0  0  0  0  0
   38.2820   26.7930   41.6080 C   0  0  0  0  0  0  0  0  0  0  0  0
   38.9500   25.9290   40.7720 C   0  0  0  0  0  0  0  0  0  0  0  0
   39.7420   26.3000   40.1570 H   0  0  0  0  0  0  0  0  0  0  0  0
   38.6560   24.5840   40.6760 C   0  0  0  0  0  0  0  0  0  0  0  0
   39.2010   23.9270   40.0090 H   0  0  0  0  0  0  0  0  0  0  0  0
   37.6280   24.0490   41.4610 C   0  0  0  0  0  3  0  0  0  0  0  0
   36.9420   24.8950   42.3080 C   0  0  0  0  0  3  0  0  0  0  0  0
   36.9890   31.2350   40.4090 C   0  0  0  0  0  0  0  0  0  0  0  0
   37.0350   30.9570   39.0580 F   0  0  0  0  0  0  0  0  0  0  0  0
   37.1940   32.5880   40.5960 F   0  0  0  0  0  0  0  0  0  0  0  0
   35.7040   30.9730   40.9050 F   0  0  0  0  0  0  0  0  0  0  0  0
  1  7  1  0  0  0  0
  2  1  1  0  0  0  0
  2  8  1  0  0  0  0
  3  2  2  0  0  0  0
  4  5  2  0  0  0  0
  4  3  1  0  0  0  0
  5  6  1  0  0  0  0
  6  1  2  0  0  0  0
 10  9  1  0  0  0  0
 11  3  1  0  0  0  0
 11 10  2  0  0  0  0
 12 11  1  0  0  0  0
 13 12  1  0  0  0  0
 14 12  2  0  0  0  0
 14 16  1  0  0  0  0
 15 14  1  0  0  0  0
 16 17  2  0  0  0  0
 17 10  1  0  0  0  0
 18 20  1  0  0  0  0
 18 21  1  0  0  0  0
 18  5  1  0  0  0  0
 19 18  1  0  0  0  0
M  END
>  <minimizedAffinity>
-4.93264914

$$$$

 OpenBabel03252500003D

 21 22  0  0  0  0  0  0  0  0999 V2000
   38.7340   30.2970   38.0590 C   0  0  0  0  0  0  0  0  0  0  0  0
   38.5290   29.3430   39.0960 C   0  0  0  0  0  0  0  0  0  0  0  0
   38.3150   29.8320   40.3750 C   0  0  0  0  0  0  0  0  0  0  0  0
   38.3110   31.1790   40.5650 N   0  0  0  0  0  0  0  0  0  0  0  0
   38.5050   32.0470   39.5690 C   0  0  0  0  0  0  0  0  0  0  0  0
   38.7170   31.6090   38.3170 N   0  0  0  0  0  0  0  0  0  0  0  0
   38.9040   29.9370   37.0490 H   0  0  0  0  0  0  0  0  0  0  0  0
   38.5440   28.2840   38.8810 H   0  0  0  0  0  0  0  0  0  0  0  0
   35.5080   29.0580   40.7740 Cl  0  0  0  0  0  0  0  0  0  0  0  0
   36.8200   28.5080   41.7980 C   0  0  0  0  0  0  0  0  0  0  0  0
   38.0950   28.9420   41.5080 C   0  0  0  0  0  0  0  0  0  0  0  0
   39.0860   28.4800   42.3440 C   0  0  0  0  0  0  0  0  0  0  0  0
   40.0980   28.7790   42.1730 H   0  0  0  0  0  0  0  0  0  0  0  0
   38.8500   27.6370   43.4100 C   0  0  0  0  0  0  0  0  0  0  0  0
   39.6500   27.2900   44.0510 H   0  0  0  0  0  0  0  0  0  0  0  0
   37.5410   27.2160   43.6750 C   0  0  0  0  0  3  0  0  0  0  0  0
   36.5290   27.6660   42.8520 C   0  0  0  0  0  3  0  0  0  0  0  0
   38.4570   33.4650   40.0080 C   0  0  0  0  0  0  0  0  0  0  0  0
   37.3090   34.0980   39.5780 F   0  0  0  0  0  0  0  0  0  0  0  0
   39.5550   34.1610   39.5420 F   0  0  0  0  0  0  0  0  0  0  0  0
   38.5360   33.5200   41.4060 F   0  0  0  0  0  0  0  0  0  0  0  0
  1  6  2  0  0  0  0
  1  2  1  0  0  0  0
  2  3  2  0  0  0  0
  3  4  1  0  0  0  0
  3 11  1  0  0  0  0
  5 18  1  0  0  0  0
  5  4  2  0  0  0  0
  6  5  1  0  0  0  0
  7  1  1  0  0  0  0
  8  2  1  0  0  0  0
  9 10  1  0  0  0  0
 10 17  1  0  0  0  0
 11 10  2  0  0  0  0
 11 12  1  0  0  0  0
 12 14  2  0  0  0  0
 13 12  1  0  0  0  0
 14 16  1  0  0  0  0
 14 15  1  0  0  0  0
 17 16  2  0  0  0  0
 18 21  1  0  0  0  0
 19 18  1  0  0  0  0
 20 18  1  0  0  0  0
M  END
>  <minimizedAffinity>
-4.90490627

$$$$

 OpenBabel03252500003D

 21 22  0  0  0  0  0  0  0  0999 V2000
   37.1640   30.7810   41.3100 C   0  0  0  0  0  0  0  0  0  0  0  0
   36.4400   30.6430   40.0920 C   0  0  0  0  0  0  0  0  0  0  0  0
   35.9020   29.3980   39.8110 C   0  0  0  0  0  0  0  0  0  0  0  0
   36.0930   28.3890   40.7040 N   0  0  0  0  0  0  0  0  0  0  0  0
   36.7780   28.5520   41.8380 C   0  0  0  0  0  0  0  0  0  0  0  0
   37.3140   29.7450   42.1430 N   0  0  0  0  0  0  0  0  0  0  0  0
   37.5950   31.7480   41.5520 H   0  0  0  0  0  0  0  0  0  0  0  0
   36.3230   31.4840   39.4230 H   0  0  0  0  0  0  0  0  0  0  0  0
   37.5570   29.0990   37.4010 Cl  0  0  0  0  0  0  0  0  0  0  0  0
   35.8070   28.9910   37.3950 C   0  0  0  0  0  0  0  0  0  0  0  0
   35.1430   29.1490   38.5910 C   0  0  0  0  0  0  0  0  0  0  0  0
   33.7720   29.0550   38.5280 C   0  0  0  0  0  0  0  0  0  0  0  0
   33.1960   29.1680   39.4230 H   0  0  0  0  0  0  0  0  0  0  0  0
   33.0790   28.8180   37.3600 C   0  0  0  0  0  0  0  0  0  0  0  0
   31.9980   28.7490   37.3410 H   0  0  0  0  0  0  0  0  0  0  0  0
   33.7860   28.6630   36.1620 C   0  0  0  0  0  3  0  0  0  0  0  0
   35.1630   28.7530   36.1980 C   0  0  0  0  0  3  0  0  0  0  0  0
   36.8570   27.3170   42.6590 C   0  0  0  0  0  0  0  0  0  0  0  0
   35.8820   27.2840   43.6350 F   0  0  0  0  0  0  0  0  0  0  0  0
   38.0960   27.2040   43.2580 F   0  0  0  0  0  0  0  0  0  0  0  0
   36.7340   26.1980   41.8250 F   0  0  0  0  0  0  0  0  0  0  0  0
  1  7  1  0  0  0  0
  1  6  1  0  0  0  0
  2  1  2  0  0  0  0
  3  2  1  0  0  0  0
  3  4  2  0  0  0  0
  4  5  1  0  0  0  0
  5  6  2  0  0  0  0
  5 18  1  0  0  0  0
  8  2  1  0  0  0  0
 10  9  1  0  0  0  0
 10 11  1  0  0  0  0
 11  3  1  0  0  0  0
 12 11  2  0  0  0  0
 12 13  1  0  0  0  0
 14 12  1  0  0  0  0
 15 14  1  0  0  0  0
 16 17  1  0  0  0  0
 16 14  2  0  0  0  0
 17 10  2  0  0  0  0
 18 20  1  0  0  0  0
 18 19  1  0  0  0  0
 21 18  1  0  0  0  0
M  END
>  <minimizedAffinity>
-4.90227604

$$$$

 OpenBabel03252500003D

 21 22  0  0  0  0  0  0  0  0999 V2000
   36.5460   27.7270   39.2820 C   0  0  0  0  0  0  0  0  0  0  0  0
   36.9940   29.0610   39.0710 C   0  0  0  0  0  0  0  0  0  0  0  0
   37.4610   29.7560   40.1750 C   0  0  0  0  0  0  0  0  0  0  0  0
   37.4660   29.1310   41.3830 N   0  0  0  0  0  0  0  0  0  0  0  0
   37.0380   27.8770   41.5470 C   0  0  0  0  0  0  0  0  0  0  0  0
   36.5780   27.1740   40.4990 N   0  0  0  0  0  0  0  0  0  0  0  0
   36.1750   27.1630   38.4310 H   0  0  0  0  0  0  0  0  0  0  0  0
   36.9650   29.5030   38.0850 H   0  0  0  0  0  0  0  0  0  0  0  0
   40.3890   30.0080   40.1750 Cl  0  0  0  0  0  0  0  0  0  0  0  0
   39.2990   31.3750   40.0580 C   0  0  0  0  0  0  0  0  0  0  0  0
   37.9430   31.1270   40.0690 C   0  0  0  0  0  0  0  0  0  0  0  0
   37.1340   32.2360   39.9750 C   0  0  0  0  0  0  0  0  0  0  0  0
   36.0720   32.1130   39.9780 H   0  0  0  0  0  0  0  0  0  0  0  0
   37.6180   33.5250   39.8750 C   0  0  0  0  0  0  0  0  0  0  0  0
   36.9560   34.3780   39.8030 H   0  0  0  0  0  0  0  0  0  0  0  0
   39.0010   33.7390   39.8680 C   0  0  0  0  0  3  0  0  0  0  0  0
   39.8350   32.6440   39.9620 C   0  0  0  0  0  3  0  0  0  0  0  0
   37.1360   27.4000   42.9500 C   0  0  0  0  0  0  0  0  0  0  0  0
   35.9070   27.3820   43.5750 F   0  0  0  0  0  0  0  0  0  0  0  0
   38.0000   28.1930   43.6790 F   0  0  0  0  0  0  0  0  0  0  0  0
   37.6960   26.1150   42.9640 F   0  0  0  0  0  0  0  0  0  0  0  0
  1  6  1  0  0  0  0
  2  1  2  0  0  0  0
  2  3  1  0  0  0  0
  3  4  2  0  0  0  0
  4  5  1  0  0  0  0
  5 18  1  0  0  0  0
  6  5  2  0  0  0  0
  7  1  1  0  0  0  0
  8  2  1  0  0  0  0
 10 11  1  0  0  0  0
 10  9  1  0  0  0  0
 11  3  1  0  0  0  0
 12 13  1  0  0  0  0
 12 11  2  0  0  0  0
 14 12  1  0  0  0  0
 15 14  1  0  0  0  0
 16 14  2  0  0  0  0
 16 17  1  0  0  0  0
 17 10  2  0  0  0  0
 18 21  1  0  0  0  0
 18 19  1  0  0  0  0
 18 20  1  0  0  0  0
M  END
>  <minimizedAffinity>
-4.76145887

$$$$

 OpenBabel03252500003D

 21 22  0  0  0  0  0  0  0  0999 V2000
   40.2270   29.5990   40.6000 C   0  0  0  0  0  0  0  0  0  0  0  0
   39.7390   28.2660   40.7150 C   0  0  0  0  0  0  0  0  0  0  0  0
   38.3650   28.0920   40.7240 C   0  0  0  0  0  0  0  0  0  0  0  0
   37.5690   29.1900   40.6220 N   0  0  0  0  0  0  0  0  0  0  0  0
   38.0580   30.4280   40.5140 C   0  0  0  0  0  0  0  0  0  0  0  0
   39.3860   30.6340   40.5040 N   0  0  0  0  0  0  0  0  0  0  0  0
   41.3010   29.7600   40.5910 H   0  0  0  0  0  0  0  0  0  0  0  0
   40.4240   27.4340   40.7930 H   0  0  0  0  0  0  0  0  0  0  0  0
   37.9150   27.2060   43.4900 Cl  0  0  0  0  0  0  0  0  0  0  0  0
   37.5000   26.2440   42.0850 C   0  0  0  0  0  0  0  0  0  0  0  0
   37.7610   26.7700   40.8380 C   0  0  0  0  0  0  0  0  0  0  0  0
   37.4160   25.9730   39.7710 C   0  0  0  0  0  0  0  0  0  0  0  0
   37.5920   26.3230   38.7760 H   0  0  0  0  0  0  0  0  0  0  0  0
   36.8440   24.7240   39.9080 C   0  0  0  0  0  0  0  0  0  0  0  0
   36.5840   24.1190   39.0490 H   0  0  0  0  0  0  0  0  0  0  0  0
   36.5940   24.2210   41.1890 C   0  0  0  0  0  3  0  0  0  0  0  0
   36.9320   25.0020   42.2770 C   0  0  0  0  0  3  0  0  0  0  0  0
   37.0060   31.4700   40.4140 C   0  0  0  0  0  0  0  0  0  0  0  0
   36.4850   31.5550   39.1400 F   0  0  0  0  0  0  0  0  0  0  0  0
   37.5020   32.7060   40.7800 F   0  0  0  0  0  0  0  0  0  0  0  0
   35.9830   31.1850   41.3290 F   0  0  0  0  0  0  0  0  0  0  0  0
  1  2  1  0  0  0  0
  2  3  2  0  0  0  0
  2  8  1  0  0  0  0
  3 11  1  0  0  0  0
  4  3  1  0  0  0  0
  5  4  2  0  0  0  0
  6  5  1  0  0  0  0
  6  1  2  0  0  0  0
  7  1  1  0  0  0  0
 10 17  1  0  0  0  0
 10  9  1  0  0  0  0
 11 10  2  0  0  0  0
 12 14  2  0  0  0  0
 12 11  1  0  0  0  0
 13 12  1  0  0  0  0
 14 16  1  0  0  0  0
 15 14  1  0  0  0  0
 16 17  2  0  0  0  0
 18  5  1  0  0  0  0
 18 20  1  0  0  0  0
 18 21  1  0  0  0  0
 19 18  1  0  0  0  0
M  END
>  <minimizedAffinity>
-4.67263508

$$$$

 OpenBabel03252500003D

 21 22  0  0  0  0  0  0  0  0999 V2000
   37.0350   30.2170   38.1300 C   0  0  0  0  0  0  0  0  0  0  0  0
   37.1930   29.2580   39.1700 C   0  0  0  0  0  0  0  0  0  0  0  0
   37.6900   29.7110   40.3810 C   0  0  0  0  0  0  0  0  0  0  0  0
   37.9950   31.0310   40.5070 N   0  0  0  0  0  0  0  0  0  0  0  0
   37.8340   31.9050   39.5110 C   0  0  0  0  0  0  0  0  0  0  0  0
   37.3550   31.5010   38.3230 N   0  0  0  0  0  0  0  0  0  0  0  0
   36.6470   29.8840   37.1720 H   0  0  0  0  0  0  0  0  0  0  0  0
   36.9330   28.2210   39.0080 H   0  0  0  0  0  0  0  0  0  0  0  0
   40.4690   28.8230   40.7360 Cl  0  0  0  0  0  0  0  0  0  0  0  0
   39.1530   28.3270   41.7820 C   0  0  0  0  0  0  0  0  0  0  0  0
   37.8910   28.8120   41.5110 C   0  0  0  0  0  0  0  0  0  0  0  0
   36.8960   28.3910   42.3630 C   0  0  0  0  0  0  0  0  0  0  0  0
   35.8940   28.7320   42.2080 H   0  0  0  0  0  0  0  0  0  0  0  0
   37.1140   27.5400   43.4260 C   0  0  0  0  0  0  0  0  0  0  0  0
   36.3110   27.2250   44.0800 H   0  0  0  0  0  0  0  0  0  0  0  0
   38.4080   27.0660   43.6710 C   0  0  0  0  0  3  0  0  0  0  0  0
   39.4250   27.4730   42.8310 C   0  0  0  0  0  3  0  0  0  0  0  0
   38.2290   33.2900   39.8740 C   0  0  0  0  0  0  0  0  0  0  0  0
   39.3560   33.6990   39.1930 F   0  0  0  0  0  0  0  0  0  0  0  0
   38.4610   33.3950   41.2310 F   0  0  0  0  0  0  0  0  0  0  0  0
   37.1650   34.1610   39.6010 F   0  0  0  0  0  0  0  0  0  0  0  0
  1  6  2  0  0  0  0
  1  2  1  0  0  0  0
  2  3  2  0  0  0  0
  3  4  1  0  0  0  0
  3 11  1  0  0  0  0
  5 18  1  0  0  0  0
  5  4  2  0  0  0  0
  6  5  1  0  0  0  0
  7  1  1  0  0  0  0
  8  2  1  0  0  0  0
  9 10  1  0  0  0  0
 10 17  1  0  0  0  0
 11 10  2  0  0  0  0
 11 12  1  0  0  0  0
 12 14  2  0  0  0  0
 13 12  1  0  0  0  0
 14 16  1  0  0  0  0
 14 15  1  0  0  0  0
 17 16  2  0  0  0  0
 18 20  1  0  0  0  0
 19 18  1  0  0  0  0
 21 18  1  0  0  0  0
M  END
>  <minimizedAffinity>
-4.63946104

$$$$

 OpenBabel03252500003D

 21 22  0  0  0  0  0  0  0  0999 V2000
   39.4400   27.2290   39.5390 C   0  0  0  0  0  0  0  0  0  0  0  0
   39.3490   28.6380   39.3570 C   0  0  0  0  0  0  0  0  0  0  0  0
   38.5590   29.3440   40.2500 C   0  0  0  0  0  0  0  0  0  0  0  0
   37.9230   28.6590   41.2380 N   0  0  0  0  0  0  0  0  0  0  0  0
   38.0300   27.3360   41.3820 C   0  0  0  0  0  0  0  0  0  0  0  0
   38.7870   26.6200   40.5340 N   0  0  0  0  0  0  0  0  0  0  0  0
   40.0530   26.6550   38.8510 H   0  0  0  0  0  0  0  0  0  0  0  0
   39.8790   29.1250   38.5500 H   0  0  0  0  0  0  0  0  0  0  0  0
   36.3230   30.1950   38.5430 Cl  0  0  0  0  0  0  0  0  0  0  0  0
   37.3820   31.3120   39.3810 C   0  0  0  0  0  0  0  0  0  0  0  0
   38.3970   30.7890   40.1530 C   0  0  0  0  0  0  0  0  0  0  0  0
   39.1980   31.7110   40.7870 C   0  0  0  0  0  0  0  0  0  0  0  0
   40.0040   31.3700   41.4020 H   0  0  0  0  0  0  0  0  0  0  0  0
   39.0210   33.0750   40.6790 C   0  0  0  0  0  0  0  0  0  0  0  0
   39.6680   33.7760   41.1900 H   0  0  0  0  0  0  0  0  0  0  0  0
   37.9800   33.5710   39.8860 C   0  0  0  0  0  3  0  0  0  0  0  0
   37.1630   32.6670   39.2380 C   0  0  0  0  0  3  0  0  0  0  0  0
   37.2520   26.8040   42.5290 C   0  0  0  0  0  0  0  0  0  0  0  0
   36.8000   25.5220   42.2940 F   0  0  0  0  0  0  0  0  0  0  0  0
   36.1720   27.6170   42.8110 F   0  0  0  0  0  0  0  0  0  0  0  0
   38.0530   26.8230   43.6800 F   0  0  0  0  0  0  0  0  0  0  0  0
  1  6  1  0  0  0  0
  2  1  2  0  0  0  0
  2  3  1  0  0  0  0
  3  4  2  0  0  0  0
  4  5  1  0  0  0  0
  5 18  1  0  0  0  0
  6  5  2  0  0  0  0
  7  1  1  0  0  0  0
  8  2  1  0  0  0  0
  9 10  1  0  0  0  0
 10 11  1  0  0  0  0
 11  3  1  0  0  0  0
 11 12  2  0  0  0  0
 12 13  1  0  0  0  0
 14 12  1  0  0  0  0
 14 15  1  0  0  0  0
 16 14  2  0  0  0  0
 17 10  2  0  0  0  0
 17 16  1  0  0  0  0
 18 20  1  0  0  0  0
 18 21  1  0  0  0  0
 19 18  1  0  0  0  0
M  END
>  <minimizedAffinity>
-4.59247875

$$$$

 OpenBabel03252500003D

 21 22  0  0  0  0  0  0  0  0999 V2000
   36.0670   30.6160   40.8920 C   0  0  0  0  0  0  0  0  0  0  0  0
   35.8720   29.2080   40.9500 C   0  0  0  0  0  0  0  0  0  0  0  0
   37.0030   28.4140   41.0500 C   0  0  0  0  0  0  0  0  0  0  0  0
   38.2210   29.0180   41.0880 N   0  0  0  0  0  0  0  0  0  0  0  0
   38.3700   30.3440   41.0320 C   0  0  0  0  0  0  0  0  0  0  0  0
   37.2950   31.1440   40.9340 N   0  0  0  0  0  0  0  0  0  0  0  0
   35.1950   31.2590   40.8140 H   0  0  0  0  0  0  0  0  0  0  0  0
   34.8770   28.7870   40.9160 H   0  0  0  0  0  0  0  0  0  0  0  0
   36.5680   27.1130   38.4510 Cl  0  0  0  0  0  0  0  0  0  0  0  0
   36.7130   26.2360   39.9610 C   0  0  0  0  0  0  0  0  0  0  0  0
   36.9150   26.9600   41.1160 C   0  0  0  0  0  0  0  0  0  0  0  0
   37.0210   26.2210   42.2720 C   0  0  0  0  0  0  0  0  0  0  0  0
   37.1800   26.7230   43.2030 H   0  0  0  0  0  0  0  0  0  0  0  0
   36.9350   24.8450   42.3050 C   0  0  0  0  0  0  0  0  0  0  0  0
   37.0220   24.2900   43.2310 H   0  0  0  0  0  0  0  0  0  0  0  0
   36.7280   24.1410   41.1130 C   0  0  0  0  0  3  0  0  0  0  0  0
   36.6170   24.8590   39.9400 C   0  0  0  0  0  3  0  0  0  0  0  0
   39.7880   30.7800   41.0900 C   0  0  0  0  0  0  0  0  0  0  0  0
   39.9230   32.0110   41.6970 F   0  0  0  0  0  0  0  0  0  0  0  0
   40.3360   30.8400   39.8240 F   0  0  0  0  0  0  0  0  0  0  0  0
   40.5380   29.8210   41.7850 F   0  0  0  0  0  0  0  0  0  0  0  0
  1  6  2  0  0  0  0
  1  2  1  0  0  0  0
  2  3  2  0  0  0  0
  3  4  1  0  0  0  0
  3 11  1  0  0  0  0
  5  4  2  0  0  0  0
  5 18  1  0  0  0  0
  6  5  1  0  0  0  0
  7  1  1  0  0  0  0
  8  2  1  0  0  0  0
  9 10  1  0  0  0  0
 10 11  1  0  0  0  0
 11 12  2  0  0  0  0
 12 14  1  0  0  0  0
 12 13  1  0  0  0  0
 14 15  1  0  0  0  0
 16 14  2  0  0  0  0
 17 10  2  0  0  0  0
 17 16  1  0  0  0  0
 18 19  1  0  0  0  0
 18 21  1  0  0  0  0
 20 18  1  0  0  0  0
M  END
>  <minimizedAffinity>
-4.5553813

$$$$
