
 OpenBabel03252500473D

 26 28  0  0  0  0  0  0  0  0999 V2000
   45.2920   33.9810   44.8420 C   0  0  0  0  0  0  0  0  0  0  0  0
   45.1160   33.2810   43.6380 C   0  0  0  0  0  0  0  0  0  0  0  0
   45.6530   32.0050   43.5160 C   0  0  0  0  0  0  0  0  0  0  0  0
   46.3390   31.4840   44.5880 N   0  0  0  0  0  0  0  0  0  0  0  0
   46.4850   32.1890   45.7270 C   0  0  0  0  0  0  0  0  0  0  0  0
   45.9710   33.4260   45.8620 N   0  0  0  0  0  0  0  0  0  0  0  0
   44.8810   34.9800   44.9610 H   0  0  0  0  0  0  0  0  0  0  0  0
   45.5270   31.4500   42.5960 H   0  0  0  0  0  0  0  0  0  0  0  0
   47.2200   31.6010   46.8450 C   0  0  0  0  0  0  0  0  0  0  0  0
   47.5560   30.2880   46.8880 C   0  0  0  0  0  0  0  0  0  0  0  0
   48.2440   29.7170   47.9240 C   0  0  0  0  0  0  0  0  0  0  0  0
   48.5960   30.5450   48.9570 N   0  0  0  0  0  0  0  0  0  0  0  0
   48.2620   31.8400   48.9120 C   0  0  0  0  0  0  0  0  0  0  0  0
   47.5820   32.4170   47.8920 N   0  0  0  0  0  0  0  0  0  0  0  0
   47.2930   29.6090   46.0870 H   0  0  0  0  0  0  0  0  0  0  0  0
   48.5220   28.6790   47.9820 H   0  0  0  0  0  0  0  0  0  0  0  0
   48.5030   32.5660   49.6920 H   0  0  0  0  0  0  0  0  0  0  0  0
   45.3800   36.2900   43.1970 Cl  0  0  0  0  0  0  0  0  0  0  0  0
   44.3750   35.2690   42.2200 C   0  0  0  0  0  0  0  0  0  0  0  0
   44.3720   33.9230   42.5600 C   0  0  0  0  0  0  0  0  0  0  0  0
   43.5960   33.0430   41.8290 C   0  0  0  0  0  0  0  0  0  0  0  0
   43.5200   31.9740   42.0080 H   0  0  0  0  0  0  0  0  0  0  0  0
   42.8210   33.4930   40.7600 C   0  0  0  0  0  0  0  0  0  0  0  0
   42.2020   32.8040   40.1750 H   0  0  0  0  0  0  0  0  0  0  0  0
   42.8110   34.8450   40.4040 C   0  0  0  0  0  0  0  0  0  0  0  0
   43.6060   35.7070   41.1620 C   0  0  0  0  0  0  0  0  0  0  0  0
  1  7  1  0  0  0  0
  1  6  1  0  0  0  0
  2  1  2  0  0  0  0
  3  2  1  0  0  0  0
  3  4  2  0  0  0  0
  4  5  1  0  0  0  0
  5  6  2  0  0  0  0
  5  9  1  0  0  0  0
  8  3  1  0  0  0  0
  9 10  2  0  0  0  0
  9 14  1  0  0  0  0
 10 11  1  0  0  0  0
 11 16  1  0  0  0  0
 11 12  2  0  0  0  0
 13 12  1  0  0  0  0
 13 17  1  0  0  0  0
 14 13  2  0  0  0  0
 15 10  1  0  0  0  0
 19 20  1  0  0  0  0
 19 18  1  0  0  0  0
 20  2  1  0  0  0  0
 21 22  1  0  0  0  0
 21 20  2  0  0  0  0
 23 21  1  0  0  0  0
 24 23  1  0  0  0  0
 25 23  2  0  0  0  0
 25 26  1  0  0  0  0
 26 19  2  0  0  0  0
M  END
>  <minimizedAffinity>
-4.86627626

>  <minimizedRMSD>
2.67765999

$$$$
