
 OpenBabel03252506023D

 28 30  0  0  0  0  0  0  0  0999 V2000
   44.8420   36.4030   42.9550 Cl  0  0  0  0  0  0  0  0  0  0  0  0
   45.4150   35.1530   44.0080 C   0  0  0  0  0  0  0  0  0  0  0  0
   46.4270   34.3340   43.6160 C   0  0  0  0  0  0  0  0  0  0  0  0
   46.8230   33.3590   44.5230 C   0  0  0  0  0  0  0  0  0  0  0  0
   46.2590   33.1770   45.7750 C   0  0  0  0  0  0  0  0  0  0  0  0
   45.2400   34.0220   46.1390 C   0  0  0  0  0  0  0  0  0  0  0  0
   44.5510   33.7660   47.7220 Cl  0  0  0  0  0  0  0  0  0  0  0  0
   44.8200   34.9990   45.2660 C   0  0  0  0  0  0  0  0  0  0  0  0
   47.6420   32.7120   44.1820 H   0  0  0  0  0  0  0  0  0  0  0  0
   44.0260   35.6360   45.5870 H   0  0  0  0  0  0  0  0  0  0  0  0
   48.7930   35.4050   41.0410 C   0  0  0  0  0  0  0  0  0  0  0  0
   48.3570   34.7370   39.8980 C   0  0  0  0  0  0  0  0  0  0  0  0
   47.2310   33.9060   40.0200 C   0  0  0  0  0  0  0  0  0  0  0  0
   46.6360   33.8030   41.2390 N   0  0  0  0  0  0  0  0  0  0  0  0
   47.0750   34.4550   42.3190 C   0  0  0  0  0  0  0  0  0  0  0  0
   48.1660   35.2670   42.2250 N   0  0  0  0  0  0  0  0  0  0  0  0
   49.6640   36.0690   41.0200 H   0  0  0  0  0  0  0  0  0  0  0  0
   48.8750   34.8610   38.9580 H   0  0  0  0  0  0  0  0  0  0  0  0
   46.8670   33.3730   39.1530 H   0  0  0  0  0  0  0  0  0  0  0  0
   45.5690   30.4990   44.7410 Cl  0  0  0  0  0  0  0  0  0  0  0  0
   46.5480   30.7990   46.1640 C   0  0  0  0  0  0  0  0  0  0  0  0
   46.8240   32.0890   46.5800 C   0  0  0  0  0  0  0  0  0  0  0  0
   47.5920   32.3800   47.6980 C   0  0  0  0  0  0  0  0  0  0  0  0
   47.7880   33.3980   47.9940 H   0  0  0  0  0  0  0  0  0  0  0  0
   48.1140   31.3360   48.4410 C   0  0  0  0  0  0  0  0  0  0  0  0
   48.7140   31.5430   49.3160 H   0  0  0  0  0  0  0  0  0  0  0  0
   47.8330   30.0580   48.0180 C   0  0  0  0  0  0  0  0  0  0  0  0
   47.0800   29.7690   46.9240 C   0  0  0  0  0  0  0  0  0  0  0  0
  1  2  1  0  0  0  0
  2  8  1  0  0  0  0
  3  2  2  0  0  0  0
  3  4  1  0  0  0  0
  4  5  2  0  0  0  0
  5  6  1  0  0  0  0
  5 22  1  0  0  0  0
  6  7  1  0  0  0  0
  8 10  1  0  0  0  0
  8  6  2  0  0  0  0
  9  4  1  0  0  0  0
 11 16  1  0  0  0  0
 12 13  1  0  0  0  0
 12 11  2  0  0  0  0
 13 14  2  0  0  0  0
 14 15  1  0  0  0  0
 15  3  1  0  0  0  0
 16 15  2  0  0  0  0
 17 11  1  0  0  0  0
 18 12  1  0  0  0  0
 19 13  1  0  0  0  0
 20 21  1  0  0  0  0
 21 22  2  0  0  0  0
 21 28  1  0  0  0  0
 22 23  1  0  0  0  0
 23 24  1  0  0  0  0
 23 25  2  0  0  0  0
 25 26  1  0  0  0  0
 27 25  1  0  0  0  0
 28 27  2  0  0  0  0
M  END
>  <minimizedAffinity>
-5.87367296

>  <minimizedRMSD>
1.08379793

$$$$
