
 OpenBabel03252506083D

 30 32  0  0  0  0  0  0  0  0999 V2000
   45.1150   33.4600   41.1440 F   0  0  0  0  0  0  0  0  0  0  0  0
   46.3150   34.0410   41.0260 C   0  0  0  0  0  0  0  0  0  0  0  0
   46.8280   34.7700   42.0800 C   0  0  0  0  0  0  0  0  0  0  0  0
   48.0520   35.3880   42.0140 C   0  0  0  0  0  0  0  0  0  0  0  0
   48.8330   35.3040   40.8770 C   0  0  0  0  0  0  0  0  0  0  0  0
   48.2760   34.5590   39.8410 C   0  0  0  0  0  0  0  0  0  0  0  0
   47.0590   33.9300   39.8700 C   0  0  0  0  0  0  0  0  0  0  0  0
   48.4400   35.9630   42.8650 H   0  0  0  0  0  0  0  0  0  0  0  0
   49.7890   35.7640   40.7760 H   0  0  0  0  0  0  0  0  0  0  0  0
   48.8510   34.4630   38.9260 H   0  0  0  0  0  0  0  0  0  0  0  0
   48.1540   34.6270   37.1050 Cl  0  0  0  0  0  0  0  0  0  0  0  0
   46.9680   33.3620   37.4030 C   0  0  0  0  0  0  0  0  0  0  0  0
   46.5770   33.1750   38.7180 C   0  0  0  0  0  0  0  0  0  0  0  0
   45.6420   32.1750   38.9470 C   0  0  0  0  0  0  0  0  0  0  0  0
   45.3080   31.9970   39.9710 H   0  0  0  0  0  0  0  0  0  0  0  0
   45.0770   31.3650   37.9890 C   0  0  0  0  0  0  0  0  0  0  0  0
   44.3520   30.6060   38.2590 H   0  0  0  0  0  0  0  0  0  0  0  0
   45.5140   31.6050   36.6920 C   0  0  0  0  0  0  0  0  0  0  0  0
   46.4400   32.5790   36.3910 C   0  0  0  0  0  0  0  0  0  0  0  0
   45.4280   34.0520   45.4120 C   0  0  0  0  0  0  0  0  0  0  0  0
   44.6070   35.1780   45.6180 C   0  0  0  0  0  0  0  0  0  0  0  0
   44.5300   36.1850   44.6190 C   0  0  0  0  0  0  0  0  0  0  0  0
   45.2840   35.9750   43.4990 N   0  0  0  0  0  0  0  0  0  0  0  0
   46.0510   34.9050   43.3270 C   0  0  0  0  0  0  0  0  0  0  0  0
   46.1180   33.9620   44.2700 N   0  0  0  0  0  0  0  0  0  0  0  0
   44.0250   35.3230   46.5010 H   0  0  0  0  0  0  0  0  0  0  0  0
   43.9200   37.0560   44.7340 H   0  0  0  0  0  0  0  0  0  0  0  0
   45.4940   33.0640   46.4080 N   0  0  0  0  0  0  0  0  0  0  0  0
   45.0040   33.1830   47.3160 H   0  0  0  0  0  0  0  0  0  0  0  0
   46.0480   32.1990   46.2210 H   0  0  0  0  0  0  0  0  0  0  0  0
  2  1  1  0  0  0  0
  2  3  1  0  0  0  0
  3 24  1  0  0  0  0
  4  3  2  0  0  0  0
  4  8  1  0  0  0  0
  5  4  1  0  0  0  0
  6  7  1  0  0  0  0
  6  5  2  0  0  0  0
  7  2  2  0  0  0  0
  9  5  1  0  0  0  0
 10  6  1  0  0  0  0
 11 12  1  0  0  0  0
 12 13  1  0  0  0  0
 13 14  2  0  0  0  0
 13  7  1  0  0  0  0
 14 15  1  0  0  0  0
 16 17  1  0  0  0  0
 16 14  1  0  0  0  0
 18 16  2  0  0  0  0
 19 18  1  0  0  0  0
 19 12  2  0  0  0  0
 20 21  1  0  0  0  0
 20 28  1  0  0  0  0
 21 26  1  0  0  0  0
 22 27  1  0  0  0  0
 22 21  2  0  0  0  0
 23 22  1  0  0  0  0
 24 23  2  0  0  0  0
 24 25  1  0  0  0  0
 25 20  2  0  0  0  0
 28 29  1  0  0  0  0
 30 28  1  0  0  0  0
M  END
>  <minimizedAffinity>
-6.48507643

>  <minimizedRMSD>
0.179689676

$$$$
