
 OpenBabel03242523583D

 21 22  0  0  0  0  0  0  0  0999 V2000
   44.4380   36.0130   44.8310 C   0  0  0  0  0  0  0  0  0  0  0  0
   45.1140   35.9610   43.5800 C   0  0  0  0  0  0  0  0  0  0  0  0
   45.9930   34.9100   43.3760 C   0  0  0  0  0  0  0  0  0  0  0  0
   46.1580   33.9970   44.3710 N   0  0  0  0  0  0  0  0  0  0  0  0
   45.5070   34.0740   45.5340 C   0  0  0  0  0  0  0  0  0  0  0  0
   44.6480   35.0800   45.7660 N   0  0  0  0  0  0  0  0  0  0  0  0
   43.7440   36.8280   45.0140 H   0  0  0  0  0  0  0  0  0  0  0  0
   44.9400   36.7190   42.8280 H   0  0  0  0  0  0  0  0  0  0  0  0
   44.6500   33.2480   41.3580 Cl  0  0  0  0  0  0  0  0  0  0  0  0
   46.2090   34.0070   41.1060 C   0  0  0  0  0  0  0  0  0  0  0  0
   46.7360   34.7640   42.1300 C   0  0  0  0  0  0  0  0  0  0  0  0
   47.9620   35.3360   41.8780 C   0  0  0  0  0  0  0  0  0  0  0  0
   48.4260   35.9360   42.6320 H   0  0  0  0  0  0  0  0  0  0  0  0
   48.6440   35.1810   40.6890 C   0  0  0  0  0  0  0  0  0  0  0  0
   49.6080   35.6440   40.5200 H   0  0  0  0  0  0  0  0  0  0  0  0
   48.0790   34.4050   39.6710 C   0  0  0  0  0  0  0  0  0  0  0  0
   46.8500   33.8190   39.8980 C   0  0  0  0  0  0  0  0  0  0  0  0
   45.8410   32.9700   46.4690 C   0  0  0  0  0  0  0  0  0  0  0  0
   44.9970   32.9460   47.5600 F   0  0  0  0  0  0  0  0  0  0  0  0
   47.1440   33.0770   46.9110 F   0  0  0  0  0  0  0  0  0  0  0  0
   45.7700   31.7480   45.7860 F   0  0  0  0  0  0  0  0  0  0  0  0
  1  7  1  0  0  0  0
  1  6  1  0  0  0  0
  2  1  2  0  0  0  0
  3  2  1  0  0  0  0
  3  4  2  0  0  0  0
  4  5  1  0  0  0  0
  5  6  2  0  0  0  0
  5 18  1  0  0  0  0
  8  2  1  0  0  0  0
 10  9  1  0  0  0  0
 10 11  1  0  0  0  0
 11  3  1  0  0  0  0
 12 11  2  0  0  0  0
 12 13  1  0  0  0  0
 14 12  1  0  0  0  0
 15 14  1  0  0  0  0
 16 17  1  0  0  0  0
 16 14  2  0  0  0  0
 17 10  2  0  0  0  0
 18 20  1  0  0  0  0
 18 19  1  0  0  0  0
 21 18  1  0  0  0  0
M  END
>  <minimizedAffinity>
-6.05254555

>  <minimizedRMSD>
1.29464698

$$$$
