
 OpenBabel03252507193D

 44 47  0  0  1  0  0  0  0  0999 V2000
   47.0750   33.4360   42.9440 C   0  0  0  0  0  0  0  0  0  0  0  0
   48.1680   33.1570   43.5220 O   0  0  0  0  0  0  0  0  0  0  0  0
   46.6870   32.9310   41.6600 N   0  0  0  0  0  0  0  0  0  0  0  0
   45.4080   32.3960   41.2010 C   0  0  0  0  0  0  0  0  0  0  0  0
   44.9870   33.1230   39.9170 C   0  0  0  0  0  0  0  0  0  0  0  0
   45.9830   32.8390   38.8260 C   0  0  0  0  0  0  0  0  0  0  0  0
   47.2340   32.2450   39.4130 C   0  0  0  0  0  0  0  0  0  0  0  0
   47.7050   32.9460   40.6440 C   0  0  2  0  0  0  0  0  0  0  0  0
   45.3750   31.3150   41.1140 H   0  0  0  0  0  0  0  0  0  0  0  0
   44.6690   32.7330   41.9760 H   0  0  0  0  0  0  0  0  0  0  0  0
   43.9490   32.9250   39.6720 H   0  0  0  0  0  0  0  0  0  0  0  0
   45.0670   34.2020   40.1850 H   0  0  0  0  0  0  0  0  0  0  0  0
   45.5510   32.0390   38.1600 H   0  0  0  0  0  0  0  0  0  0  0  0
   46.1660   33.7140   38.1730 H   0  0  0  0  0  0  0  0  0  0  0  0
   48.0280   32.2810   38.6420 H   0  0  0  0  0  0  0  0  0  0  0  0
   46.9830   31.1790   39.6850 H   0  0  0  0  0  0  0  0  0  0  0  0
   47.8890   34.0070   40.3710 H   0  0  0  0  0  0  0  0  0  0  0  0
   47.5760   30.0200   40.9680 Cl  0  0  0  0  0  0  0  0  0  0  0  0
   49.0540   30.9550   41.2500 C   0  0  0  0  0  0  0  0  0  0  0  0
   48.9950   32.3420   41.0600 C   0  0  0  0  0  0  0  0  0  0  0  0
   50.1790   32.9890   41.2990 C   0  0  0  0  0  0  0  0  0  0  0  0
   50.1610   34.0700   41.1610 H   0  0  0  0  0  0  0  0  0  0  0  0
   51.3200   32.3240   41.6890 C   0  0  0  0  0  0  0  0  0  0  0  0
   52.2390   32.8650   41.8690 H   0  0  0  0  0  0  0  0  0  0  0  0
   51.3350   30.9570   41.8650 C   0  0  0  0  0  3  0  0  0  0  0  0
   50.1730   30.2490   41.6400 C   0  0  0  0  0  3  0  0  0  0  0  0
   45.7950   35.5250   42.9900 C   0  0  0  0  0  0  0  0  0  0  0  0
   46.1700   34.3250   43.6370 C   0  0  0  0  0  0  0  0  0  0  0  0
   45.6670   34.0480   44.8900 C   0  0  0  0  0  0  0  0  0  0  0  0
   44.8280   34.9370   45.4600 N   0  0  0  0  0  0  0  0  0  0  0  0
   44.4590   36.0940   44.8510 C   0  0  0  0  0  0  0  0  0  0  0  0
   44.9520   36.3640   43.6260 N   0  0  0  0  0  0  0  0  0  0  0  0
   46.1810   35.7510   42.0140 H   0  0  0  0  0  0  0  0  0  0  0  0
   43.7890   36.7870   45.3290 H   0  0  0  0  0  0  0  0  0  0  0  0
   46.0660   32.8160   45.5400 C   0  0  0  0  0  0  0  0  0  0  0  0
   45.6460   31.6160   45.0530 C   0  0  0  0  0  0  0  0  0  0  0  0
   46.0360   30.4490   45.6840 C   0  0  0  0  0  0  0  0  0  0  0  0
   46.8430   30.4450   46.8010 C   0  0  0  0  0  0  0  0  0  0  0  0
   47.2460   31.6960   47.2610 C   0  0  0  0  0  0  0  0  0  0  0  0
   46.8460   32.8010   46.6200 N   0  0  0  0  0  0  0  0  0  0  0  0
   45.0180   31.4460   44.2060 H   0  0  0  0  0  0  0  0  0  0  0  0
   45.7350   29.4590   45.3470 H   0  0  0  0  0  0  0  0  0  0  0  0
   47.1560   29.5400   47.3060 H   0  0  0  0  0  0  0  0  0  0  0  0
   47.8820   31.8050   48.1320 H   0  0  0  0  0  0  0  0  0  0  0  0
  1  2  2  0  0  0  0
  1 28  1  0  0  0  0
  3  1  1  0  0  0  0
  4  3  1  0  0  0  0
  4 10  1  0  0  0  0
  5 12  1  0  0  0  0
  5  4  1  0  0  0  0
  6  7  1  0  0  0  0
  6  5  1  0  0  0  0
  7 16  1  0  0  0  0
  7  8  1  0  0  0  0
  8 17  1  6  0  0  0
  8 20  1  0  0  0  0
  8  3  1  0  0  0  0
  9  4  1  0  0  0  0
 11  5  1  0  0  0  0
 13  6  1  0  0  0  0
 14  6  1  0  0  0  0
 15  7  1  0  0  0  0
 18 19  1  0  0  0  0
 19 26  1  0  0  0  0
 20 19  2  0  0  0  0
 20 21  1  0  0  0  0
 21 23  2  0  0  0  0
 22 21  1  0  0  0  0
 23 25  1  0  0  0  0
 23 24  1  0  0  0  0
 26 25  2  0  0  0  0
 27 32  2  0  0  0  0
 27 28  1  0  0  0  0
 28 29  2  0  0  0  0
 29 30  1  0  0  0  0
 29 35  1  0  0  0  0
 31 34  1  0  0  0  0
 31 30  2  0  0  0  0
 32 31  1  0  0  0  0
 33 27  1  0  0  0  0
 35 40  1  0  0  0  0
 36 35  2  0  0  0  0
 36 37  1  0  0  0  0
 37 38  2  0  0  0  0
 38 39  1  0  0  0  0
 38 43  1  0  0  0  0
 39 44  1  0  0  0  0
 40 39  2  0  0  0  0
 41 36  1  0  0  0  0
 42 37  1  0  0  0  0
M  END
>  <minimizedAffinity>
-5.40178537

>  <minimizedRMSD>
0.772314429

$$$$
