
 OpenBabel03252507193D

 44 47  0  0  1  0  0  0  0  0999 V2000
   47.0670   33.2510   43.1180 C   0  0  0  0  0  0  0  0  0  0  0  0
   48.2390   33.1610   43.5930 O   0  0  0  0  0  0  0  0  0  0  0  0
   46.5880   32.4920   42.0000 N   0  0  0  0  0  0  0  0  0  0  0  0
   45.3210   31.7920   41.8050 C   0  0  0  0  0  0  0  0  0  0  0  0
   44.6960   32.2390   40.4760 C   0  0  0  0  0  0  0  0  0  0  0  0
   45.5870   31.8300   39.3350 C   0  0  0  0  0  0  0  0  0  0  0  0
   46.9440   31.4450   39.8560 C   0  0  0  0  0  0  0  0  0  0  0  0
   47.4830   32.3920   40.8770 C   0  0  2  0  0  0  0  0  0  0  0  0
   45.3790   30.7140   41.9120 H   0  0  0  0  0  0  0  0  0  0  0  0
   44.6440   32.2130   42.5950 H   0  0  0  0  0  0  0  0  0  0  0  0
   43.6600   31.9260   40.4020 H   0  0  0  0  0  0  0  0  0  0  0  0
   44.7050   33.3520   40.5400 H   0  0  0  0  0  0  0  0  0  0  0  0
   45.1600   30.8930   38.8780 H   0  0  0  0  0  0  0  0  0  0  0  0
   45.6150   32.5820   38.5230 H   0  0  0  0  0  0  0  0  0  0  0  0
   47.6420   31.3950   38.9970 H   0  0  0  0  0  0  0  0  0  0  0  0
   46.8250   30.4320   40.3390 H   0  0  0  0  0  0  0  0  0  0  0  0
   47.5360   33.3950   40.4030 H   0  0  0  0  0  0  0  0  0  0  0  0
   47.6270   29.6490   41.9420 Cl  0  0  0  0  0  0  0  0  0  0  0  0
   49.0520   30.6820   41.7470 C   0  0  0  0  0  0  0  0  0  0  0  0
   48.8600   31.9680   41.2270 C   0  0  0  0  0  0  0  0  0  0  0  0
   50.0110   32.7010   41.1080 C   0  0  0  0  0  0  0  0  0  0  0  0
   49.8920   33.7070   40.7080 H   0  0  0  0  0  0  0  0  0  0  0  0
   51.2460   32.2060   41.4730 C   0  0  0  0  0  0  0  0  0  0  0  0
   52.1350   32.8100   41.3670 H   0  0  0  0  0  0  0  0  0  0  0  0
   51.3900   30.9330   41.9820 C   0  0  0  0  0  3  0  0  0  0  0  0
   50.2660   30.1450   42.1240 C   0  0  0  0  0  3  0  0  0  0  0  0
   45.7720   35.3280   43.0200 C   0  0  0  0  0  0  0  0  0  0  0  0
   46.1660   34.1850   43.7520 C   0  0  0  0  0  0  0  0  0  0  0  0
   45.6850   34.0040   45.0310 C   0  0  0  0  0  0  0  0  0  0  0  0
   44.8480   34.9300   45.5430 N   0  0  0  0  0  0  0  0  0  0  0  0
   44.4600   36.0330   44.8510 C   0  0  0  0  0  0  0  0  0  0  0  0
   44.9320   36.2090   43.6010 N   0  0  0  0  0  0  0  0  0  0  0  0
   46.1410   35.4790   42.0230 H   0  0  0  0  0  0  0  0  0  0  0  0
   43.7920   36.7570   45.2840 H   0  0  0  0  0  0  0  0  0  0  0  0
   46.1040   32.8310   45.7690 C   0  0  0  0  0  0  0  0  0  0  0  0
   45.6510   31.5970   45.4120 C   0  0  0  0  0  0  0  0  0  0  0  0
   46.0610   30.4860   46.1260 C   0  0  0  0  0  0  0  0  0  0  0  0
   46.9190   30.5710   47.2000 C   0  0  0  0  0  0  0  0  0  0  0  0
   47.3540   31.8530   47.5280 C   0  0  0  0  0  0  0  0  0  0  0  0
   46.9330   32.9020   46.8100 N   0  0  0  0  0  0  0  0  0  0  0  0
   44.9840   31.3610   44.6130 H   0  0  0  0  0  0  0  0  0  0  0  0
   45.7360   29.4740   45.8930 H   0  0  0  0  0  0  0  0  0  0  0  0
   47.2480   29.7110   47.7700 H   0  0  0  0  0  0  0  0  0  0  0  0
   48.0300   32.0300   48.3550 H   0  0  0  0  0  0  0  0  0  0  0  0
  1  2  2  0  0  0  0
  1 28  1  0  0  0  0
  3  1  1  0  0  0  0
  4  9  1  0  0  0  0
  4  3  1  0  0  0  0
  4 10  1  0  0  0  0
  5 12  1  0  0  0  0
  5  4  1  0  0  0  0
  6  7  1  0  0  0  0
  6  5  1  0  0  0  0
  7 16  1  0  0  0  0
  7  8  1  0  0  0  0
  8 17  1  6  0  0  0
  8 20  1  0  0  0  0
  8  3  1  0  0  0  0
 11  5  1  0  0  0  0
 13  6  1  0  0  0  0
 14  6  1  0  0  0  0
 15  7  1  0  0  0  0
 19 18  1  0  0  0  0
 19 26  1  0  0  0  0
 20 19  2  0  0  0  0
 21 20  1  0  0  0  0
 21 23  2  0  0  0  0
 22 21  1  0  0  0  0
 23 25  1  0  0  0  0
 24 23  1  0  0  0  0
 25 26  2  0  0  0  0
 27 32  2  0  0  0  0
 27 28  1  0  0  0  0
 28 29  2  0  0  0  0
 29 30  1  0  0  0  0
 29 35  1  0  0  0  0
 31 34  1  0  0  0  0
 31 30  2  0  0  0  0
 32 31  1  0  0  0  0
 33 27  1  0  0  0  0
 35 40  1  0  0  0  0
 36 35  2  0  0  0  0
 36 37  1  0  0  0  0
 37 38  2  0  0  0  0
 38 39  1  0  0  0  0
 38 43  1  0  0  0  0
 39 44  1  0  0  0  0
 40 39  2  0  0  0  0
 41 36  1  0  0  0  0
 42 37  1  0  0  0  0
M  END
>  <minimizedAffinity>
-5.29927969

>  <minimizedRMSD>
1.09842682

$$$$
