
 OpenBabel03252509113D

 31 34  0  0  0  0  0  0  0  0999 V2000
   44.0300   29.7930   40.5830 C   0  0  0  0  0  0  0  0  0  0  0  0
   43.6040   31.0320   40.1260 C   0  0  0  0  0  0  0  0  0  0  0  0
   42.5280   31.6960   40.6790 C   0  0  0  0  0  0  0  0  0  0  0  0
   41.8290   31.1170   41.7340 C   0  0  0  0  0  0  0  0  0  0  0  0
   40.7580   31.4650   42.5010 N   0  0  0  0  0  0  0  0  0  0  0  0
   40.5330   30.4710   43.3990 C   0  0  0  0  0  0  0  0  0  0  0  0
   41.4700   29.5190   43.1750 N   0  0  0  0  0  0  0  0  0  0  0  0
   42.2820   29.8770   42.1660 C   0  0  0  0  0  0  0  0  0  0  0  0
   43.3450   29.1940   41.6390 C   0  0  0  0  0  0  0  0  0  0  0  0
   44.8620   29.2770   40.1580 H   0  0  0  0  0  0  0  0  0  0  0  0
   40.2510   32.3560   42.3620 H   0  0  0  0  0  0  0  0  0  0  0  0
   39.7230   30.5610   44.0980 H   0  0  0  0  0  0  0  0  0  0  0  0
   43.6360   28.2290   42.0330 H   0  0  0  0  0  0  0  0  0  0  0  0
   44.5960   32.0110   36.7260 C   0  0  0  0  0  0  0  0  0  0  0  0
   45.6740   32.8640   36.9570 C   0  0  0  0  0  0  0  0  0  0  0  0
   46.0670   33.1070   38.2900 C   0  0  0  0  0  0  0  0  0  0  0  0
   45.3440   32.4780   39.2620 N   0  0  0  0  0  0  0  0  0  0  0  0
   44.3120   31.6610   39.0250 C   0  0  0  0  0  0  0  0  0  0  0  0
   43.9500   31.4380   37.7600 N   0  0  0  0  0  0  0  0  0  0  0  0
   44.3540   31.8720   35.6810 H   0  0  0  0  0  0  0  0  0  0  0  0
   46.2840   33.3910   36.2370 H   0  0  0  0  0  0  0  0  0  0  0  0
   46.8960   33.7590   38.5360 H   0  0  0  0  0  0  0  0  0  0  0  0
   43.7620   34.1610   41.9970 Cl  0  0  0  0  0  0  0  0  0  0  0  0
   42.5010   34.2050   40.7590 C   0  0  0  0  0  0  0  0  0  0  0  0
   42.0360   32.9880   40.2480 C   0  0  0  0  0  0  0  0  0  0  0  0
   41.0480   33.0400   39.2810 C   0  0  0  0  0  0  0  0  0  0  0  0
   40.6190   32.1380   38.8210 H   0  0  0  0  0  0  0  0  0  0  0  0
   40.5380   34.2430   38.8310 C   0  0  0  0  0  0  0  0  0  0  0  0
   39.7530   34.2760   38.0610 H   0  0  0  0  0  0  0  0  0  0  0  0
   41.0020   35.4540   39.3400 C   0  0  0  0  0  3  0  0  0  0  0  0
   41.9990   35.4040   40.3170 C   0  0  0  0  0  3  0  0  0  0  0  0
  1  9  1  0  0  0  0
  2  1  2  0  0  0  0
  2  3  1  0  0  0  0
  3  4  2  0  0  0  0
  4  8  1  0  0  0  0
  4  5  1  0  0  0  0
  5  6  1  0  0  0  0
  6 12  1  0  0  0  0
  7  6  2  0  0  0  0
  8  7  1  0  0  0  0
  9 13  1  0  0  0  0
  9  8  2  0  0  0  0
 10  1  1  0  0  0  0
 11  5  1  0  0  0  0
 14 15  2  0  0  0  0
 14 19  1  0  0  0  0
 15 16  1  0  0  0  0
 16 22  1  0  0  0  0
 16 17  2  0  0  0  0
 18 17  1  0  0  0  0
 18  2  1  0  0  0  0
 19 18  2  0  0  0  0
 20 14  1  0  0  0  0
 21 15  1  0  0  0  0
 24 23  1  0  0  0  0
 25  3  1  0  0  0  0
 25 24  2  0  0  0  0
 26 25  1  0  0  0  0
 27 26  1  0  0  0  0
 28 26  2  0  0  0  0
 28 30  1  0  0  0  0
 29 28  1  0  0  0  0
 30 31  2  0  0  0  0
 31 24  1  0  0  0  0
M  END
>  <minimizedAffinity>
-3.81875253

>  <minimizedRMSD>
6.90758848

$$$$
