
 OpenBabel03252506533D

 31 34  0  0  0  0  0  0  0  0999 V2000
   37.7990   29.1950   39.9950 C   0  0  0  0  0  0  0  0  0  0  0  0
   38.4920   29.5470   41.1420 C   0  0  0  0  0  0  0  0  0  0  0  0
   38.6830   30.8670   41.5100 C   0  0  0  0  0  0  0  0  0  0  0  0
   38.1720   31.8960   40.7220 C   0  0  0  0  0  0  0  0  0  0  0  0
   38.1710   33.2530   40.7780 N   0  0  0  0  0  0  0  0  0  0  0  0
   37.4940   33.7240   39.6950 C   0  0  0  0  0  0  0  0  0  0  0  0
   37.0860   32.6360   38.9820 N   0  0  0  0  0  0  0  0  0  0  0  0
   37.4860   31.5150   39.5870 C   0  0  0  0  0  0  0  0  0  0  0  0
   37.2820   30.2180   39.1970 C   0  0  0  0  0  0  0  0  0  0  0  0
   37.6680   28.1540   39.7380 H   0  0  0  0  0  0  0  0  0  0  0  0
   39.2240   31.1470   42.4050 H   0  0  0  0  0  0  0  0  0  0  0  0
   38.6210   33.8070   41.5370 H   0  0  0  0  0  0  0  0  0  0  0  0
   37.3100   34.7640   39.4410 H   0  0  0  0  0  0  0  0  0  0  0  0
   38.8420   26.4230   43.0520 C   0  0  0  0  0  0  0  0  0  0  0  0
   40.1120   26.5510   43.6140 C   0  0  0  0  0  0  0  0  0  0  0  0
   40.8510   27.7220   43.3310 C   0  0  0  0  0  0  0  0  0  0  0  0
   40.2630   28.6580   42.5190 N   0  0  0  0  0  0  0  0  0  0  0  0
   39.0410   28.5090   41.9920 C   0  0  0  0  0  0  0  0  0  0  0  0
   38.3420   27.3970   42.2620 N   0  0  0  0  0  0  0  0  0  0  0  0
   38.3110   25.5170   43.2900 H   0  0  0  0  0  0  0  0  0  0  0  0
   40.6080   25.8500   44.2500 H   0  0  0  0  0  0  0  0  0  0  0  0
   41.8390   27.9410   43.7020 H   0  0  0  0  0  0  0  0  0  0  0  0
   34.5930   29.2340   39.8810 Cl  0  0  0  0  0  0  0  0  0  0  0  0
   35.2780   29.3520   38.2660 C   0  0  0  0  0  0  0  0  0  0  0  0
   36.5570   29.8250   37.9970 C   0  0  0  0  0  0  0  0  0  0  0  0
   37.0000   29.8770   36.6870 C   0  0  0  0  0  0  0  0  0  0  0  0
   38.0050   30.2570   36.5660 H   0  0  0  0  0  0  0  0  0  0  0  0
   36.1560   29.4550   35.6780 C   0  0  0  0  0  0  0  0  0  0  0  0
   36.5510   29.5170   34.6800 H   0  0  0  0  0  0  0  0  0  0  0  0
   34.8840   28.9830   35.9340 C   0  0  0  0  0  3  0  0  0  0  0  0
   34.4520   28.9360   37.2420 C   0  0  0  0  0  3  0  0  0  0  0  0
  1  2  1  0  0  0  0
  2  3  2  0  0  0  0
  2 18  1  0  0  0  0
  3 11  1  0  0  0  0
  4  5  1  0  0  0  0
  4  3  1  0  0  0  0
  5 12  1  0  0  0  0
  6  5  1  0  0  0  0
  7  8  1  0  0  0  0
  7  6  2  0  0  0  0
  8  4  2  0  0  0  0
  9  8  1  0  0  0  0
  9  1  2  0  0  0  0
 10  1  1  0  0  0  0
 13  6  1  0  0  0  0
 14 20  1  0  0  0  0
 14 15  1  0  0  0  0
 15 21  1  0  0  0  0
 16 15  2  0  0  0  0
 16 22  1  0  0  0  0
 17 16  1  0  0  0  0
 18 19  1  0  0  0  0
 18 17  2  0  0  0  0
 19 14  2  0  0  0  0
 24 23  1  0  0  0  0
 25 24  1  0  0  0  0
 25  9  1  0  0  0  0
 26 25  2  0  0  0  0
 27 26  1  0  0  0  0
 28 30  2  0  0  0  0
 28 26  1  0  0  0  0
 29 28  1  0  0  0  0
 30 31  1  0  0  0  0
 31 24  2  0  0  0  0
M  END
>  <minimizedAffinity>
-5.90105247

$$$$

 OpenBabel03252506533D

 31 34  0  0  0  0  0  0  0  0999 V2000
   36.5700   30.5440   38.7810 C   0  0  0  0  0  0  0  0  0  0  0  0
   35.6890   29.4750   38.7940 C   0  0  0  0  0  0  0  0  0  0  0  0
   35.5510   28.6490   39.8960 C   0  0  0  0  0  0  0  0  0  0  0  0
   36.3090   28.8770   41.0420 C   0  0  0  0  0  0  0  0  0  0  0  0
   36.4260   28.2890   42.2620 N   0  0  0  0  0  0  0  0  0  0  0  0
   37.3540   28.9790   42.9790 C   0  0  0  0  0  0  0  0  0  0  0  0
   37.7970   29.9910   42.1810 N   0  0  0  0  0  0  0  0  0  0  0  0
   37.1760   29.9490   41.0000 C   0  0  0  0  0  0  0  0  0  0  0  0
   37.3340   30.7830   39.9240 C   0  0  0  0  0  0  0  0  0  0  0  0
   36.6520   31.1690   37.9030 H   0  0  0  0  0  0  0  0  0  0  0  0
   34.8640   27.8120   39.9110 H   0  0  0  0  0  0  0  0  0  0  0  0
   35.8820   27.4530   42.5620 H   0  0  0  0  0  0  0  0  0  0  0  0
   37.6830   28.7700   43.9940 H   0  0  0  0  0  0  0  0  0  0  0  0
   32.8120   28.6500   36.6560 C   0  0  0  0  0  0  0  0  0  0  0  0
   33.3650   28.6800   35.3760 C   0  0  0  0  0  0  0  0  0  0  0  0
   34.7390   28.9880   35.2510 C   0  0  0  0  0  0  0  0  0  0  0  0
   35.4370   29.2360   36.4060 N   0  0  0  0  0  0  0  0  0  0  0  0
   34.8800   29.1990   37.6230 C   0  0  0  0  0  0  0  0  0  0  0  0
   33.5760   28.9080   37.7380 N   0  0  0  0  0  0  0  0  0  0  0  0
   31.7620   28.4120   36.7100 H   0  0  0  0  0  0  0  0  0  0  0  0
   32.8620   28.4950   34.4520 H   0  0  0  0  0  0  0  0  0  0  0  0
   35.2840   29.0430   34.3230 H   0  0  0  0  0  0  0  0  0  0  0  0
   39.9890   29.9340   38.9780 Cl  0  0  0  0  0  0  0  0  0  0  0  0
   39.5240   31.5620   39.4470 C   0  0  0  0  0  0  0  0  0  0  0  0
   38.2530   31.9110   39.8890 C   0  0  0  0  0  0  0  0  0  0  0  0
   37.9910   33.2250   40.2350 C   0  0  0  0  0  0  0  0  0  0  0  0
   36.9790   33.4110   40.5670 H   0  0  0  0  0  0  0  0  0  0  0  0
   39.0050   34.1590   40.1320 C   0  0  0  0  0  0  0  0  0  0  0  0
   38.7460   35.1640   40.4130 H   0  0  0  0  0  0  0  0  0  0  0  0
   40.2700   33.8230   39.6950 C   0  0  0  0  0  3  0  0  0  0  0  0
   40.5210   32.5120   39.3520 C   0  0  0  0  0  3  0  0  0  0  0  0
  1  2  2  0  0  0  0
  1  9  1  0  0  0  0
  2  3  1  0  0  0  0
  3 11  1  0  0  0  0
  3  4  2  0  0  0  0
  4  5  1  0  0  0  0
  5 12  1  0  0  0  0
  5  6  1  0  0  0  0
  6 13  1  0  0  0  0
  7  6  2  0  0  0  0
  8  4  1  0  0  0  0
  8  7  1  0  0  0  0
  9  8  2  0  0  0  0
 10  1  1  0  0  0  0
 14 20  1  0  0  0  0
 14 19  1  0  0  0  0
 15 14  2  0  0  0  0
 16 15  1  0  0  0  0
 16 17  2  0  0  0  0
 17 18  1  0  0  0  0
 18 19  2  0  0  0  0
 18  2  1  0  0  0  0
 21 15  1  0  0  0  0
 22 16  1  0  0  0  0
 23 24  1  0  0  0  0
 24 25  1  0  0  0  0
 25  9  1  0  0  0  0
 25 26  2  0  0  0  0
 26 27  1  0  0  0  0
 28 26  1  0  0  0  0
 28 29  1  0  0  0  0
 30 28  2  0  0  0  0
 31 24  2  0  0  0  0
 31 30  1  0  0  0  0
M  END
>  <minimizedAffinity>
-5.62464142

$$$$

 OpenBabel03252506533D

 31 34  0  0  0  0  0  0  0  0999 V2000
   37.2060   29.5370   39.2760 C   0  0  0  0  0  0  0  0  0  0  0  0
   36.9690   30.3360   38.1690 C   0  0  0  0  0  0  0  0  0  0  0  0
   37.4030   31.6480   38.1020 C   0  0  0  0  0  0  0  0  0  0  0  0
   38.1040   32.2100   39.1670 C   0  0  0  0  0  0  0  0  0  0  0  0
   38.6590   33.4210   39.4340 N   0  0  0  0  0  0  0  0  0  0  0  0
   39.2230   33.3680   40.6710 C   0  0  0  0  0  0  0  0  0  0  0  0
   39.0030   32.1120   41.1520 N   0  0  0  0  0  0  0  0  0  0  0  0
   38.3250   31.3900   40.2550 C   0  0  0  0  0  0  0  0  0  0  0  0
   37.9070   30.0890   40.3490 C   0  0  0  0  0  0  0  0  0  0  0  0
   36.8520   28.5160   39.2940 H   0  0  0  0  0  0  0  0  0  0  0  0
   37.2200   32.2760   37.2400 H   0  0  0  0  0  0  0  0  0  0  0  0
   38.6380   34.2310   38.7780 H   0  0  0  0  0  0  0  0  0  0  0  0
   39.7490   34.1690   41.1850 H   0  0  0  0  0  0  0  0  0  0  0  0
   36.0650   29.3960   34.7300 C   0  0  0  0  0  0  0  0  0  0  0  0
   34.8410   28.7520   34.9020 C   0  0  0  0  0  0  0  0  0  0  0  0
   34.3240   28.6420   36.2130 C   0  0  0  0  0  0  0  0  0  0  0  0
   35.0690   29.1800   37.2320 N   0  0  0  0  0  0  0  0  0  0  0  0
   36.2430   29.7940   37.0370 C   0  0  0  0  0  0  0  0  0  0  0  0
   36.7310   29.8970   35.7920 N   0  0  0  0  0  0  0  0  0  0  0  0
   36.4260   29.4590   33.7160 H   0  0  0  0  0  0  0  0  0  0  0  0
   34.2280   28.3190   34.1410 H   0  0  0  0  0  0  0  0  0  0  0  0
   33.3930   28.1700   36.4790 H   0  0  0  0  0  0  0  0  0  0  0  0
   40.4370   28.6140   40.0450 Cl  0  0  0  0  0  0  0  0  0  0  0  0
   39.3300   28.5110   41.4070 C   0  0  0  0  0  0  0  0  0  0  0  0
   38.1450   29.2320   41.5010 C   0  0  0  0  0  0  0  0  0  0  0  0
   37.3440   29.0760   42.6190 C   0  0  0  0  0  0  0  0  0  0  0  0
   36.4420   29.6730   42.6140 H   0  0  0  0  0  0  0  0  0  0  0  0
   37.7450   28.2070   43.6150 C   0  0  0  0  0  0  0  0  0  0  0  0
   37.0860   28.1250   44.4600 H   0  0  0  0  0  0  0  0  0  0  0  0
   38.9200   27.4870   43.5310 C   0  0  0  0  0  3  0  0  0  0  0  0
   39.7110   27.6480   42.4130 C   0  0  0  0  0  3  0  0  0  0  0  0
  1 10  1  0  0  0  0
  1  9  1  0  0  0  0
  2  1  2  0  0  0  0
  3  2  1  0  0  0  0
  3  4  2  0  0  0  0
  4  5  1  0  0  0  0
  4  8  1  0  0  0  0
  5  6  1  0  0  0  0
  6  7  2  0  0  0  0
  6 13  1  0  0  0  0
  8  9  2  0  0  0  0
  8  7  1  0  0  0  0
  9 25  1  0  0  0  0
 11  3  1  0  0  0  0
 12  5  1  0  0  0  0
 14 15  2  0  0  0  0
 14 19  1  0  0  0  0
 15 16  1  0  0  0  0
 16 22  1  0  0  0  0
 16 17  2  0  0  0  0
 18 17  1  0  0  0  0
 18  2  1  0  0  0  0
 19 18  2  0  0  0  0
 20 14  1  0  0  0  0
 21 15  1  0  0  0  0
 23 24  1  0  0  0  0
 24 25  2  0  0  0  0
 24 31  1  0  0  0  0
 25 26  1  0  0  0  0
 26 28  2  0  0  0  0
 27 26  1  0  0  0  0
 28 29  1  0  0  0  0
 30 28  1  0  0  0  0
 31 30  2  0  0  0  0
M  END
>  <minimizedAffinity>
-5.59119749

$$$$

 OpenBabel03252506533D

 31 34  0  0  0  0  0  0  0  0999 V2000
   37.2180   27.9540   40.4590 C   0  0  0  0  0  0  0  0  0  0  0  0
   38.2440   28.0070   41.3890 C   0  0  0  0  0  0  0  0  0  0  0  0
   38.8400   29.1990   41.7600 C   0  0  0  0  0  0  0  0  0  0  0  0
   38.4150   30.4000   41.1980 C   0  0  0  0  0  0  0  0  0  0  0  0
   38.7610   31.7080   41.3240 N   0  0  0  0  0  0  0  0  0  0  0  0
   37.9670   32.4400   40.4950 C   0  0  0  0  0  0  0  0  0  0  0  0
   37.1380   31.5620   39.8650 N   0  0  0  0  0  0  0  0  0  0  0  0
   37.3910   30.3160   40.2760 C   0  0  0  0  0  0  0  0  0  0  0  0
   36.7830   29.1520   39.8890 C   0  0  0  0  0  0  0  0  0  0  0  0
   36.7760   27.0050   40.1930 H   0  0  0  0  0  0  0  0  0  0  0  0
   39.6420   29.2450   42.4850 H   0  0  0  0  0  0  0  0  0  0  0  0
   39.5110   32.0560   41.9580 H   0  0  0  0  0  0  0  0  0  0  0  0
   37.9860   33.5180   40.3560 H   0  0  0  0  0  0  0  0  0  0  0  0
   38.6710   24.4400   42.1800 C   0  0  0  0  0  0  0  0  0  0  0  0
   39.6430   24.4640   43.1790 C   0  0  0  0  0  0  0  0  0  0  0  0
   40.1540   25.7190   43.5820 C   0  0  0  0  0  0  0  0  0  0  0  0
   39.6540   26.8330   42.9570 N   0  0  0  0  0  0  0  0  0  0  0  0
   38.7200   26.7810   42.0000 C   0  0  0  0  0  0  0  0  0  0  0  0
   38.2370   25.5880   41.6200 N   0  0  0  0  0  0  0  0  0  0  0  0
   38.3070   23.4650   41.9010 H   0  0  0  0  0  0  0  0  0  0  0  0
   40.0610   23.6250   43.6920 H   0  0  0  0  0  0  0  0  0  0  0  0
   40.9050   25.8730   44.3400 H   0  0  0  0  0  0  0  0  0  0  0  0
   37.8570   29.0810   37.1490 Cl  0  0  0  0  0  0  0  0  0  0  0  0
   36.1600   29.0370   37.6020 C   0  0  0  0  0  0  0  0  0  0  0  0
   35.7040   29.0730   38.9160 C   0  0  0  0  0  0  0  0  0  0  0  0
   34.3430   29.0340   39.1630 C   0  0  0  0  0  0  0  0  0  0  0  0
   34.0740   29.0650   40.2100 H   0  0  0  0  0  0  0  0  0  0  0  0
   33.4700   28.9590   38.0940 C   0  0  0  0  0  0  0  0  0  0  0  0
   32.4250   28.9300   38.3440 H   0  0  0  0  0  0  0  0  0  0  0  0
   33.9120   28.9230   36.7870 C   0  0  0  0  0  3  0  0  0  0  0  0
   35.2690   28.9630   36.5510 C   0  0  0  0  0  3  0  0  0  0  0  0
  1  2  1  0  0  0  0
  2  3  2  0  0  0  0
  2 18  1  0  0  0  0
  3 11  1  0  0  0  0
  4  5  1  0  0  0  0
  4  3  1  0  0  0  0
  5 12  1  0  0  0  0
  6  5  1  0  0  0  0
  7  8  1  0  0  0  0
  7  6  2  0  0  0  0
  8  4  2  0  0  0  0
  9  8  1  0  0  0  0
  9  1  2  0  0  0  0
 10  1  1  0  0  0  0
 13  6  1  0  0  0  0
 14 15  1  0  0  0  0
 15 16  2  0  0  0  0
 15 21  1  0  0  0  0
 16 22  1  0  0  0  0
 17 16  1  0  0  0  0
 18 17  2  0  0  0  0
 19 18  1  0  0  0  0
 19 14  2  0  0  0  0
 20 14  1  0  0  0  0
 23 24  1  0  0  0  0
 24 25  1  0  0  0  0
 25 26  2  0  0  0  0
 25  9  1  0  0  0  0
 26 27  1  0  0  0  0
 28 29  1  0  0  0  0
 28 26  1  0  0  0  0
 30 28  2  0  0  0  0
 31 30  1  0  0  0  0
 31 24  2  0  0  0  0
M  END
>  <minimizedAffinity>
-5.42915535

$$$$

 OpenBabel03252506533D

 31 34  0  0  0  0  0  0  0  0999 V2000
   39.8480   29.7960   39.2230 C   0  0  0  0  0  0  0  0  0  0  0  0
   40.5660   30.5620   38.3190 C   0  0  0  0  0  0  0  0  0  0  0  0
   40.4050   31.9320   38.2240 C   0  0  0  0  0  0  0  0  0  0  0  0
   39.4980   32.5900   39.0520 C   0  0  0  0  0  0  0  0  0  0  0  0
   39.0970   33.8770   39.2250 N   0  0  0  0  0  0  0  0  0  0  0  0
   38.1590   33.9020   40.2110 C   0  0  0  0  0  0  0  0  0  0  0  0
   37.9950   32.6160   40.6320 N   0  0  0  0  0  0  0  0  0  0  0  0
   38.7980   31.8020   39.9420 C   0  0  0  0  0  0  0  0  0  0  0  0
   38.9370   30.4440   40.0580 C   0  0  0  0  0  0  0  0  0  0  0  0
   40.0000   28.7270   39.2690 H   0  0  0  0  0  0  0  0  0  0  0  0
   40.9630   32.5350   37.5190 H   0  0  0  0  0  0  0  0  0  0  0  0
   39.4680   34.6830   38.6790 H   0  0  0  0  0  0  0  0  0  0  0  0
   37.6360   34.7750   40.5930 H   0  0  0  0  0  0  0  0  0  0  0  0
   43.1590   30.0540   35.7600 C   0  0  0  0  0  0  0  0  0  0  0  0
   43.3290   28.6700   35.7700 C   0  0  0  0  0  0  0  0  0  0  0  0
   42.5440   27.9080   36.6640 C   0  0  0  0  0  0  0  0  0  0  0  0
   41.6630   28.5880   37.4670 N   0  0  0  0  0  0  0  0  0  0  0  0
   41.5210   29.9190   37.4370 C   0  0  0  0  0  0  0  0  0  0  0  0
   42.2670   30.6400   36.5860 N   0  0  0  0  0  0  0  0  0  0  0  0
   43.7760   30.5990   35.0650 H   0  0  0  0  0  0  0  0  0  0  0  0
   44.0010   28.0990   35.1650 H   0  0  0  0  0  0  0  0  0  0  0  0
   42.5800   26.8360   36.7690 H   0  0  0  0  0  0  0  0  0  0  0  0
   40.2220   30.4740   42.7060 Cl  0  0  0  0  0  0  0  0  0  0  0  0
   38.7610   29.6010   42.2700 C   0  0  0  0  0  0  0  0  0  0  0  0
   38.1930   29.6210   41.0000 C   0  0  0  0  0  0  0  0  0  0  0  0
   37.0390   28.8960   40.7620 C   0  0  0  0  0  0  0  0  0  0  0  0
   36.6640   28.9660   39.7500 H   0  0  0  0  0  0  0  0  0  0  0  0
   36.4790   28.1690   41.7950 C   0  0  0  0  0  0  0  0  0  0  0  0
   35.5830   27.6250   41.5550 H   0  0  0  0  0  0  0  0  0  0  0  0
   37.0340   28.1420   43.0590 C   0  0  0  0  0  3  0  0  0  0  0  0
   38.1840   28.8680   43.2870 C   0  0  0  0  0  3  0  0  0  0  0  0
  1 10  1  0  0  0  0
  1  9  1  0  0  0  0
  2  1  2  0  0  0  0
  3  2  1  0  0  0  0
  3  4  2  0  0  0  0
  4  5  1  0  0  0  0
  4  8  1  0  0  0  0
  5  6  1  0  0  0  0
  6 13  1  0  0  0  0
  6  7  2  0  0  0  0
  8  9  2  0  0  0  0
  8  7  1  0  0  0  0
  9 25  1  0  0  0  0
 11  3  1  0  0  0  0
 12  5  1  0  0  0  0
 14 15  2  0  0  0  0
 14 19  1  0  0  0  0
 15 16  1  0  0  0  0
 16 22  1  0  0  0  0
 16 17  2  0  0  0  0
 18 17  1  0  0  0  0
 18  2  1  0  0  0  0
 19 18  2  0  0  0  0
 20 14  1  0  0  0  0
 21 15  1  0  0  0  0
 24 23  1  0  0  0  0
 24 31  1  0  0  0  0
 25 24  2  0  0  0  0
 26 25  1  0  0  0  0
 26 28  2  0  0  0  0
 27 26  1  0  0  0  0
 28 30  1  0  0  0  0
 29 28  1  0  0  0  0
 30 31  2  0  0  0  0
M  END
>  <minimizedAffinity>
-5.39508247

$$$$

 OpenBabel03252506533D

 31 34  0  0  0  0  0  0  0  0999 V2000
   39.2120   30.2000   38.0660 C   0  0  0  0  0  0  0  0  0  0  0  0
   40.4170   30.8570   37.8770 C   0  0  0  0  0  0  0  0  0  0  0  0
   40.6290   32.1470   38.3280 C   0  0  0  0  0  0  0  0  0  0  0  0
   39.6170   32.8320   38.9960 C   0  0  0  0  0  0  0  0  0  0  0  0
   39.4820   34.0640   39.5550 N   0  0  0  0  0  0  0  0  0  0  0  0
   38.2280   34.1610   40.0740 C   0  0  0  0  0  0  0  0  0  0  0  0
   37.6040   32.9750   39.8230 N   0  0  0  0  0  0  0  0  0  0  0  0
   38.4290   32.1520   39.1700 C   0  0  0  0  0  0  0  0  0  0  0  0
   38.1890   30.8760   38.7350 C   0  0  0  0  0  0  0  0  0  0  0  0
   39.0800   29.1910   37.7010 H   0  0  0  0  0  0  0  0  0  0  0  0
   41.5690   32.6650   38.1830 H   0  0  0  0  0  0  0  0  0  0  0  0
   40.2330   34.7860   39.5660 H   0  0  0  0  0  0  0  0  0  0  0  0
   37.7980   35.0160   40.5900 H   0  0  0  0  0  0  0  0  0  0  0  0
   43.4730   30.2650   35.9180 C   0  0  0  0  0  0  0  0  0  0  0  0
   43.5450   28.8730   35.8800 C   0  0  0  0  0  0  0  0  0  0  0  0
   42.5340   28.1350   36.5350 C   0  0  0  0  0  0  0  0  0  0  0  0
   41.5430   28.8440   37.1660 N   0  0  0  0  0  0  0  0  0  0  0  0
   41.4980   30.1830   37.1870 C   0  0  0  0  0  0  0  0  0  0  0  0
   42.4610   30.8810   36.5650 N   0  0  0  0  0  0  0  0  0  0  0  0
   44.2630   30.7920   35.4090 H   0  0  0  0  0  0  0  0  0  0  0  0
   44.2950   28.2800   35.4030 H   0  0  0  0  0  0  0  0  0  0  0  0
   42.4750   27.0600   36.5790 H   0  0  0  0  0  0  0  0  0  0  0  0
   36.8470   30.4390   36.1520 Cl  0  0  0  0  0  0  0  0  0  0  0  0
   36.2570   29.9350   37.7290 C   0  0  0  0  0  0  0  0  0  0  0  0
   36.9330   30.1670   38.9220 C   0  0  0  0  0  0  0  0  0  0  0  0
   36.3790   29.7270   40.1110 C   0  0  0  0  0  0  0  0  0  0  0  0
   36.9680   29.9470   40.9910 H   0  0  0  0  0  0  0  0  0  0  0  0
   35.1650   29.0670   40.0820 C   0  0  0  0  0  0  0  0  0  0  0  0
   34.7810   28.7480   41.0340 H   0  0  0  0  0  0  0  0  0  0  0  0
   34.4860   28.8320   38.9030 C   0  0  0  0  0  3  0  0  0  0  0  0
   35.0460   29.2730   37.7230 C   0  0  0  0  0  3  0  0  0  0  0  0
  1  9  1  0  0  0  0
  2  1  2  0  0  0  0
  2  3  1  0  0  0  0
  3  4  2  0  0  0  0
  4  8  1  0  0  0  0
  4  5  1  0  0  0  0
  5 12  1  0  0  0  0
  5  6  1  0  0  0  0
  6 13  1  0  0  0  0
  7  6  2  0  0  0  0
  8  7  1  0  0  0  0
  9 25  1  0  0  0  0
  9  8  2  0  0  0  0
 10  1  1  0  0  0  0
 11  3  1  0  0  0  0
 14 19  1  0  0  0  0
 15 14  2  0  0  0  0
 15 16  1  0  0  0  0
 16 22  1  0  0  0  0
 16 17  2  0  0  0  0
 17 18  1  0  0  0  0
 18  2  1  0  0  0  0
 19 18  2  0  0  0  0
 20 14  1  0  0  0  0
 21 15  1  0  0  0  0
 23 24  1  0  0  0  0
 24 25  1  0  0  0  0
 25 26  2  0  0  0  0
 26 27  1  0  0  0  0
 28 26  1  0  0  0  0
 28 29  1  0  0  0  0
 30 28  2  0  0  0  0
 31 24  2  0  0  0  0
 31 30  1  0  0  0  0
M  END
>  <minimizedAffinity>
-5.38252544

$$$$

 OpenBabel03252506533D

 31 34  0  0  0  0  0  0  0  0999 V2000
   36.9860   30.0650   38.4910 C   0  0  0  0  0  0  0  0  0  0  0  0
   35.8100   29.3570   38.6760 C   0  0  0  0  0  0  0  0  0  0  0  0
   35.4700   28.8000   39.8960 C   0  0  0  0  0  0  0  0  0  0  0  0
   36.3190   28.9410   40.9910 C   0  0  0  0  0  0  0  0  0  0  0  0
   36.3050   28.5410   42.2900 N   0  0  0  0  0  0  0  0  0  0  0  0
   37.4410   28.9930   42.8880 C   0  0  0  0  0  0  0  0  0  0  0  0
   38.1440   29.6700   41.9370 N   0  0  0  0  0  0  0  0  0  0  0  0
   37.4820   29.6520   40.7770 C   0  0  0  0  0  0  0  0  0  0  0  0
   37.8450   30.2140   39.5810 C   0  0  0  0  0  0  0  0  0  0  0  0
   37.2190   30.4870   37.5230 H   0  0  0  0  0  0  0  0  0  0  0  0
   34.5530   28.2460   40.0450 H   0  0  0  0  0  0  0  0  0  0  0  0
   35.5360   27.9850   42.7210 H   0  0  0  0  0  0  0  0  0  0  0  0
   37.7370   28.8450   43.9230 H   0  0  0  0  0  0  0  0  0  0  0  0
   34.4980   29.0490   35.2530 C   0  0  0  0  0  0  0  0  0  0  0  0
   33.1340   28.8540   35.4660 C   0  0  0  0  0  0  0  0  0  0  0  0
   32.6650   28.8280   36.7990 C   0  0  0  0  0  0  0  0  0  0  0  0
   33.5910   28.9990   37.7970 N   0  0  0  0  0  0  0  0  0  0  0  0
   34.8960   29.1850   37.5640 C   0  0  0  0  0  0  0  0  0  0  0  0
   35.3390   29.2080   36.2970 N   0  0  0  0  0  0  0  0  0  0  0  0
   34.8170   29.0610   34.2240 H   0  0  0  0  0  0  0  0  0  0  0  0
   32.3800   28.7160   34.7230 H   0  0  0  0  0  0  0  0  0  0  0  0
   31.6390   28.6860   37.0970 H   0  0  0  0  0  0  0  0  0  0  0  0
   37.3770   33.1020   39.9100 Cl  0  0  0  0  0  0  0  0  0  0  0  0
   38.9070   32.3350   39.5080 C   0  0  0  0  0  0  0  0  0  0  0  0
   39.0740   30.9620   39.3650 C   0  0  0  0  0  0  0  0  0  0  0  0
   40.3240   30.4600   39.0460 C   0  0  0  0  0  0  0  0  0  0  0  0
   40.3670   29.3840   38.9540 H   0  0  0  0  0  0  0  0  0  0  0  0
   41.3760   31.3400   38.8790 C   0  0  0  0  0  0  0  0  0  0  0  0
   42.3240   30.8970   38.6330 H   0  0  0  0  0  0  0  0  0  0  0  0
   41.2210   32.7050   39.0190 C   0  0  0  0  0  3  0  0  0  0  0  0
   39.9720   33.1950   39.3370 C   0  0  0  0  0  3  0  0  0  0  0  0
  1  2  2  0  0  0  0
  1  9  1  0  0  0  0
  2  3  1  0  0  0  0
  3 11  1  0  0  0  0
  3  4  2  0  0  0  0
  4  5  1  0  0  0  0
  5 12  1  0  0  0  0
  5  6  1  0  0  0  0
  6 13  1  0  0  0  0
  7  6  2  0  0  0  0
  8  4  1  0  0  0  0
  8  7  1  0  0  0  0
  9  8  2  0  0  0  0
 10  1  1  0  0  0  0
 14 15  2  0  0  0  0
 14 19  1  0  0  0  0
 15 16  1  0  0  0  0
 16 22  1  0  0  0  0
 16 17  2  0  0  0  0
 18 17  1  0  0  0  0
 18  2  1  0  0  0  0
 19 18  2  0  0  0  0
 20 14  1  0  0  0  0
 21 15  1  0  0  0  0
 24 23  1  0  0  0  0
 25 24  1  0  0  0  0
 25  9  1  0  0  0  0
 26 25  2  0  0  0  0
 27 26  1  0  0  0  0
 28 30  2  0  0  0  0
 28 26  1  0  0  0  0
 29 28  1  0  0  0  0
 30 31  1  0  0  0  0
 31 24  2  0  0  0  0
M  END
>  <minimizedAffinity>
-5.34008121

$$$$

 OpenBabel03252506533D

 31 34  0  0  0  0  0  0  0  0999 V2000
   38.1260   29.5420   39.6570 C   0  0  0  0  0  0  0  0  0  0  0  0
   38.6060   30.4920   40.5450 C   0  0  0  0  0  0  0  0  0  0  0  0
   38.4040   30.3910   41.9100 C   0  0  0  0  0  0  0  0  0  0  0  0
   37.6990   29.3110   42.4360 C   0  0  0  0  0  0  0  0  0  0  0  0
   37.3270   28.9070   43.6790 N   0  0  0  0  0  0  0  0  0  0  0  0
   36.6380   27.7400   43.5590 C   0  0  0  0  0  0  0  0  0  0  0  0
   36.5960   27.4410   42.2300 N   0  0  0  0  0  0  0  0  0  0  0  0
   37.2340   28.3820   41.5280 C   0  0  0  0  0  0  0  0  0  0  0  0
   37.4180   28.4550   40.1730 C   0  0  0  0  0  0  0  0  0  0  0  0
   38.3020   29.6530   38.5960 H   0  0  0  0  0  0  0  0  0  0  0  0
   38.7770   31.1300   42.6070 H   0  0  0  0  0  0  0  0  0  0  0  0
   37.5500   29.4270   44.5540 H   0  0  0  0  0  0  0  0  0  0  0  0
   36.2010   27.1530   44.3630 H   0  0  0  0  0  0  0  0  0  0  0  0
   40.1390   33.8270   40.3070 C   0  0  0  0  0  0  0  0  0  0  0  0
   40.7570   33.7890   39.0580 C   0  0  0  0  0  0  0  0  0  0  0  0
   40.6430   32.6060   38.2930 C   0  0  0  0  0  0  0  0  0  0  0  0
   39.9280   31.5700   38.8380 N   0  0  0  0  0  0  0  0  0  0  0  0
   39.3450   31.6330   40.0410 C   0  0  0  0  0  0  0  0  0  0  0  0
   39.4540   32.7570   40.7650 N   0  0  0  0  0  0  0  0  0  0  0  0
   40.2480   34.7450   40.8600 H   0  0  0  0  0  0  0  0  0  0  0  0
   41.3220   34.5690   38.5950 H   0  0  0  0  0  0  0  0  0  0  0  0
   41.0730   32.4500   37.3170 H   0  0  0  0  0  0  0  0  0  0  0  0
   34.7700   29.2350   39.1500 Cl  0  0  0  0  0  0  0  0  0  0  0  0
   35.6720   27.7920   38.7090 C   0  0  0  0  0  0  0  0  0  0  0  0
   36.9240   27.4700   39.2230 C   0  0  0  0  0  0  0  0  0  0  0  0
   37.5480   26.3070   38.8080 C   0  0  0  0  0  0  0  0  0  0  0  0
   38.5170   26.1320   39.2550 H   0  0  0  0  0  0  0  0  0  0  0  0
   36.9100   25.4950   37.8900 C   0  0  0  0  0  0  0  0  0  0  0  0
   37.4410   24.6050   37.6030 H   0  0  0  0  0  0  0  0  0  0  0  0
   35.6690   25.8050   37.3740 C   0  0  0  0  0  3  0  0  0  0  0  0
   35.0540   26.9660   37.7930 C   0  0  0  0  0  3  0  0  0  0  0  0
  1  9  2  0  0  0  0
  1  2  1  0  0  0  0
  2  3  2  0  0  0  0
  3  4  1  0  0  0  0
  3 11  1  0  0  0  0
  4  5  1  0  0  0  0
  5 12  1  0  0  0  0
  6  5  1  0  0  0  0
  6 13  1  0  0  0  0
  7  6  2  0  0  0  0
  8  7  1  0  0  0  0
  8  4  2  0  0  0  0
  9  8  1  0  0  0  0
 10  1  1  0  0  0  0
 14 19  1  0  0  0  0
 14 20  1  0  0  0  0
 15 14  2  0  0  0  0
 16 17  2  0  0  0  0
 16 15  1  0  0  0  0
 17 18  1  0  0  0  0
 18  2  1  0  0  0  0
 18 19  2  0  0  0  0
 21 15  1  0  0  0  0
 22 16  1  0  0  0  0
 24 23  1  0  0  0  0
 24 25  1  0  0  0  0
 25  9  1  0  0  0  0
 26 25  2  0  0  0  0
 26 27  1  0  0  0  0
 28 26  1  0  0  0  0
 29 28  1  0  0  0  0
 30 31  1  0  0  0  0
 30 28  2  0  0  0  0
 31 24  2  0  0  0  0
M  END
>  <minimizedAffinity>
-5.33118486

$$$$

 OpenBabel03252506533D

 31 34  0  0  0  0  0  0  0  0999 V2000
   38.2980   30.0170   39.5410 C   0  0  0  0  0  0  0  0  0  0  0  0
   38.4300   30.8520   38.4430 C   0  0  0  0  0  0  0  0  0  0  0  0
   37.5950   30.7590   37.3440 C   0  0  0  0  0  0  0  0  0  0  0  0
   36.5820   29.8040   37.3120 C   0  0  0  0  0  0  0  0  0  0  0  0
   35.6140   29.4420   36.4290 N   0  0  0  0  0  0  0  0  0  0  0  0
   34.9060   28.4140   36.9700 C   0  0  0  0  0  0  0  0  0  0  0  0
   35.4560   28.1550   38.1900 N   0  0  0  0  0  0  0  0  0  0  0  0
   36.4750   28.9880   38.4200 C   0  0  0  0  0  0  0  0  0  0  0  0
   37.2860   29.0570   39.5210 C   0  0  0  0  0  0  0  0  0  0  0  0
   38.9680   30.1190   40.3830 H   0  0  0  0  0  0  0  0  0  0  0  0
   37.6940   31.4090   36.4840 H   0  0  0  0  0  0  0  0  0  0  0  0
   35.4680   29.8990   35.5040 H   0  0  0  0  0  0  0  0  0  0  0  0
   34.0640   27.8930   36.5210 H   0  0  0  0  0  0  0  0  0  0  0  0
   41.3910   32.7990   37.4580 C   0  0  0  0  0  0  0  0  0  0  0  0
   41.4410   33.7920   38.4350 C   0  0  0  0  0  0  0  0  0  0  0  0
   40.4470   33.7900   39.4400 C   0  0  0  0  0  0  0  0  0  0  0  0
   39.4950   32.8030   39.3830 N   0  0  0  0  0  0  0  0  0  0  0  0
   39.4710   31.8610   38.4320 C   0  0  0  0  0  0  0  0  0  0  0  0
   40.4160   31.8660   37.4800 N   0  0  0  0  0  0  0  0  0  0  0  0
   42.1650   32.8350   36.7100 H   0  0  0  0  0  0  0  0  0  0  0  0
   42.1600   34.5780   38.5190 H   0  0  0  0  0  0  0  0  0  0  0  0
   40.3740   34.5000   40.2480 H   0  0  0  0  0  0  0  0  0  0  0  0
   38.7860   26.5560   39.1160 Cl  0  0  0  0  0  0  0  0  0  0  0  0
   37.8580   26.9930   40.5440 C   0  0  0  0  0  0  0  0  0  0  0  0
   37.1660   28.1910   40.6850 C   0  0  0  0  0  0  0  0  0  0  0  0
   36.4650   28.4350   41.8520 C   0  0  0  0  0  0  0  0  0  0  0  0
   35.9560   29.3890   41.8810 H   0  0  0  0  0  0  0  0  0  0  0  0
   36.4720   27.4800   42.8510 C   0  0  0  0  0  0  0  0  0  0  0  0
   35.9120   27.7230   43.7360 H   0  0  0  0  0  0  0  0  0  0  0  0
   37.1560   26.2880   42.7210 C   0  0  0  0  0  3  0  0  0  0  0  0
   37.8510   26.0530   41.5540 C   0  0  0  0  0  3  0  0  0  0  0  0
  1 10  1  0  0  0  0
  2  1  2  0  0  0  0
  3  2  1  0  0  0  0
  4  3  2  0  0  0  0
  4  8  1  0  0  0  0
  5  6  1  0  0  0  0
  5  4  1  0  0  0  0
  6  7  2  0  0  0  0
  7  8  1  0  0  0  0
  8  9  2  0  0  0  0
  9  1  1  0  0  0  0
  9 25  1  0  0  0  0
 11  3  1  0  0  0  0
 12  5  1  0  0  0  0
 13  6  1  0  0  0  0
 14 19  2  0  0  0  0
 14 15  1  0  0  0  0
 15 21  1  0  0  0  0
 15 16  2  0  0  0  0
 16 22  1  0  0  0  0
 17 16  1  0  0  0  0
 18  2  1  0  0  0  0
 18 17  2  0  0  0  0
 19 18  1  0  0  0  0
 20 14  1  0  0  0  0
 23 24  1  0  0  0  0
 24 25  2  0  0  0  0
 24 31  1  0  0  0  0
 25 26  1  0  0  0  0
 26 27  1  0  0  0  0
 26 28  2  0  0  0  0
 28 29  1  0  0  0  0
 30 28  1  0  0  0  0
 31 30  2  0  0  0  0
M  END
>  <minimizedAffinity>
-5.26659012

$$$$
