
 OpenBabel03252508213D

 34 36  0  0  0  0  0  0  0  0999 V2000
   43.4590   31.8760   37.9110 C   0  0  0  0  0  0  0  0  0  0  0  0
   43.7980   31.3190   36.7040 C   0  0  0  0  0  0  0  0  0  0  0  0
   44.8550   31.7290   35.9040 C   0  0  0  0  0  0  0  0  0  0  0  0
   45.6000   32.7910   36.4090 C   0  0  0  0  0  0  0  0  0  0  0  0
   45.2820   33.3720   37.6220 C   0  0  0  0  0  0  0  0  0  0  0  0
   44.2340   32.9420   38.3840 C   0  0  0  0  0  0  0  0  0  0  0  0
   43.1670   30.4990   36.3850 H   0  0  0  0  0  0  0  0  0  0  0  0
   45.0740   31.2510   34.9600 H   0  0  0  0  0  0  0  0  0  0  0  0
   46.4200   33.1360   35.8250 H   0  0  0  0  0  0  0  0  0  0  0  0
   45.8990   34.2050   37.9770 H   0  0  0  0  0  0  0  0  0  0  0  0
   42.3330   35.1400   37.9360 Cl  0  0  0  0  0  0  0  0  0  0  0  0
   43.0130   34.6150   39.4820 C   0  0  0  0  0  0  0  0  0  0  0  0
   43.9140   33.5680   39.6630 C   0  0  0  0  0  0  0  0  0  0  0  0
   44.3570   33.2730   40.9210 C   0  0  0  0  0  0  0  0  0  0  0  0
   45.0530   32.4390   40.9350 H   0  0  0  0  0  0  0  0  0  0  0  0
   43.9220   33.9990   42.0020 C   0  0  0  0  0  0  0  0  0  0  0  0
   44.3030   33.7230   42.9700 H   0  0  0  0  0  0  0  0  0  0  0  0
   43.0310   35.0390   41.8420 C   0  0  0  0  0  3  0  0  0  0  0  0
   42.5620   35.3620   40.5690 C   0  0  0  0  0  3  0  0  0  0  0  0
   42.3320   31.4320   38.7550 C   0  0  0  0  0  0  0  0  0  0  0  0
   42.3690   32.0910   39.6720 H   0  0  0  0  0  0  0  0  0  0  0  0
   42.3820   30.4000   39.1010 H   0  0  0  0  0  0  0  0  0  0  0  0
   40.9980   31.7380   38.1010 C   0  0  0  0  0  0  0  0  0  0  0  0
   40.7360   30.9510   37.3410 H   0  0  0  0  0  0  0  0  0  0  0  0
   41.0080   32.7470   37.6700 H   0  0  0  0  0  0  0  0  0  0  0  0
   38.8700   32.5520   41.1200 C   0  0  0  0  0  0  0  0  0  0  0  0
   39.9010   32.6670   40.1530 C   0  0  0  0  0  0  0  0  0  0  0  0
   39.9500   31.6950   39.1540 C   0  0  0  0  0  0  0  0  0  0  0  0
   39.0040   30.6880   39.1650 N   0  0  0  0  0  0  0  0  0  0  0  0
   38.0540   30.6350   40.1080 C   0  0  0  0  0  0  0  0  0  0  0  0
   37.9790   31.5620   41.0880 N   0  0  0  0  0  0  0  0  0  0  0  0
   38.9540   33.3710   41.8290 H   0  0  0  0  0  0  0  0  0  0  0  0
   40.6430   33.4360   40.1240 H   0  0  0  0  0  0  0  0  0  0  0  0
   37.3120   29.8440   40.1140 H   0  0  0  0  0  0  0  0  0  0  0  0
  1  6  1  0  0  0  0
  1 20  1  0  0  0  0
  2  1  2  0  0  0  0
  3  4  2  0  0  0  0
  3  2  1  0  0  0  0
  4  5  1  0  0  0  0
  5 10  1  0  0  0  0
  5  6  2  0  0  0  0
  6 13  1  0  0  0  0
  7  2  1  0  0  0  0
  8  3  1  0  0  0  0
  9  4  1  0  0  0  0
 11 12  1  0  0  0  0
 12 13  2  0  0  0  0
 12 19  1  0  0  0  0
 13 14  1  0  0  0  0
 14 15  1  0  0  0  0
 14 16  2  0  0  0  0
 16 17  1  0  0  0  0
 18 16  1  0  0  0  0
 19 18  2  0  0  0  0
 20 22  1  0  0  0  0
 20 21  1  0  0  0  0
 23 20  1  0  0  0  0
 23 28  1  0  0  0  0
 24 23  1  0  0  0  0
 25 23  1  0  0  0  0
 26 32  1  0  0  0  0
 27 26  2  0  0  0  0
 28 29  2  0  0  0  0
 28 27  1  0  0  0  0
 29 30  1  0  0  0  0
 30 34  1  0  0  0  0
 30 31  2  0  0  0  0
 31 26  1  0  0  0  0
 33 27  1  0  0  0  0
M  END
>  <minimizedAffinity>
-3.77953434

>  <minimizedRMSD>
5.09450102

$$$$
