
 OpenBabel03252508213D

 34 36  0  0  0  0  0  0  0  0999 V2000
   44.2560   33.9990   40.4560 C   0  0  0  0  0  0  0  0  0  0  0  0
   44.4310   35.0640   41.3040 C   0  0  0  0  0  0  0  0  0  0  0  0
   43.4100   35.7530   41.9410 C   0  0  0  0  0  0  0  0  0  0  0  0
   42.1250   35.2910   41.6660 C   0  0  0  0  0  0  0  0  0  0  0  0
   41.9190   34.2210   40.8170 C   0  0  0  0  0  0  0  0  0  0  0  0
   42.9490   33.5650   40.2070 C   0  0  0  0  0  0  0  0  0  0  0  0
   45.4610   35.3590   41.4620 H   0  0  0  0  0  0  0  0  0  0  0  0
   43.6080   36.5870   42.5990 H   0  0  0  0  0  0  0  0  0  0  0  0
   41.3130   35.7940   42.1360 H   0  0  0  0  0  0  0  0  0  0  0  0
   40.8890   33.8940   40.6330 H   0  0  0  0  0  0  0  0  0  0  0  0
   42.7830   31.0920   41.7910 Cl  0  0  0  0  0  0  0  0  0  0  0  0
   42.6280   31.2480   40.0370 C   0  0  0  0  0  0  0  0  0  0  0  0
   42.7120   32.4360   39.3130 C   0  0  0  0  0  0  0  0  0  0  0  0
   42.5720   32.4060   37.9540 C   0  0  0  0  0  0  0  0  0  0  0  0
   42.6560   33.3900   37.5020 H   0  0  0  0  0  0  0  0  0  0  0  0
   42.3510   31.2170   37.3020 C   0  0  0  0  0  0  0  0  0  0  0  0
   42.2480   31.2530   36.2310 H   0  0  0  0  0  0  0  0  0  0  0  0
   42.2640   30.0330   38.0020 C   0  0  0  0  0  3  0  0  0  0  0  0
   42.4040   30.0340   39.3880 C   0  0  0  0  0  3  0  0  0  0  0  0
   45.3510   33.2720   39.7840 C   0  0  0  0  0  0  0  0  0  0  0  0
   45.2490   33.5260   38.6880 H   0  0  0  0  0  0  0  0  0  0  0  0
   45.3130   32.1860   39.8650 H   0  0  0  0  0  0  0  0  0  0  0  0
   46.7080   33.8160   40.1900 C   0  0  0  0  0  0  0  0  0  0  0  0
   47.0410   33.3670   41.1660 H   0  0  0  0  0  0  0  0  0  0  0  0
   46.6840   34.9120   40.2220 H   0  0  0  0  0  0  0  0  0  0  0  0
   48.7300   33.6020   37.0000 C   0  0  0  0  0  0  0  0  0  0  0  0
   47.7590   34.0580   37.9300 C   0  0  0  0  0  0  0  0  0  0  0  0
   47.6950   33.4030   39.1590 C   0  0  0  0  0  0  0  0  0  0  0  0
   48.5690   32.3610   39.3990 N   0  0  0  0  0  0  0  0  0  0  0  0
   49.4650   31.9780   38.4790 C   0  0  0  0  0  0  0  0  0  0  0  0
   49.5520   32.5910   37.2790 N   0  0  0  0  0  0  0  0  0  0  0  0
   48.6650   34.2000   36.0950 H   0  0  0  0  0  0  0  0  0  0  0  0
   47.0730   34.8610   37.7670 H   0  0  0  0  0  0  0  0  0  0  0  0
   50.1500   31.1590   38.6700 H   0  0  0  0  0  0  0  0  0  0  0  0
  1  2  1  0  0  0  0
  2  7  1  0  0  0  0
  2  3  2  0  0  0  0
  3  8  1  0  0  0  0
  4  3  1  0  0  0  0
  4  9  1  0  0  0  0
  5  4  2  0  0  0  0
  6  1  2  0  0  0  0
  6  5  1  0  0  0  0
 10  5  1  0  0  0  0
 12 11  1  0  0  0  0
 13 12  2  0  0  0  0
 13  6  1  0  0  0  0
 14 13  1  0  0  0  0
 15 14  1  0  0  0  0
 16 14  2  0  0  0  0
 16 18  1  0  0  0  0
 17 16  1  0  0  0  0
 18 19  2  0  0  0  0
 19 12  1  0  0  0  0
 20 22  1  0  0  0  0
 20 23  1  0  0  0  0
 20  1  1  0  0  0  0
 21 20  1  0  0  0  0
 23 25  1  0  0  0  0
 23 24  1  0  0  0  0
 26 31  2  0  0  0  0
 26 27  1  0  0  0  0
 27 28  2  0  0  0  0
 28 29  1  0  0  0  0
 28 23  1  0  0  0  0
 30 34  1  0  0  0  0
 30 29  2  0  0  0  0
 31 30  1  0  0  0  0
 32 26  1  0  0  0  0
 33 27  1  0  0  0  0
M  END
>  <minimizedAffinity>
-3.75700259

>  <minimizedRMSD>
7.02718782

$$$$
