
 OpenBabel03252507253D

 27 29  0  0  0  0  0  0  0  0999 V2000
   45.5750   33.9450   45.5460 C   0  0  0  0  0  0  0  0  0  0  0  0
   44.6820   34.9870   45.7980 C   0  0  0  0  0  0  0  0  0  0  0  0
   44.4810   35.9490   44.7810 C   0  0  0  0  0  0  0  0  0  0  0  0
   45.1730   35.8020   43.6090 N   0  0  0  0  0  0  0  0  0  0  0  0
   46.0150   34.7840   43.4230 C   0  0  0  0  0  0  0  0  0  0  0  0
   46.2140   33.8730   44.3680 N   0  0  0  0  0  0  0  0  0  0  0  0
   44.1490   35.0930   46.7080 H   0  0  0  0  0  0  0  0  0  0  0  0
   43.8040   36.7750   44.9170 H   0  0  0  0  0  0  0  0  0  0  0  0
   46.7310   34.6720   42.1550 C   0  0  0  0  0  0  0  0  0  0  0  0
   47.9450   35.3190   41.9690 C   0  0  0  0  0  0  0  0  0  0  0  0
   48.7050   35.2850   40.8220 C   0  0  0  0  0  0  0  0  0  0  0  0
   48.1410   34.5180   39.8110 C   0  0  0  0  0  0  0  0  0  0  0  0
   46.9310   33.8570   39.9560 C   0  0  0  0  0  0  0  0  0  0  0  0
   46.2380   33.9440   41.1350 N   0  0  0  0  0  0  0  0  0  0  0  0
   48.3330   35.9080   42.8090 H   0  0  0  0  0  0  0  0  0  0  0  0
   49.6360   35.8070   40.7390 H   0  0  0  0  0  0  0  0  0  0  0  0
   48.6700   34.4320   38.8640 H   0  0  0  0  0  0  0  0  0  0  0  0
   46.5280   33.2630   39.1280 H   0  0  0  0  0  0  0  0  0  0  0  0
   47.4700   31.8190   44.7220 Cl  0  0  0  0  0  0  0  0  0  0  0  0
   46.6880   31.8800   46.2900 C   0  0  0  0  0  0  0  0  0  0  0  0
   45.8250   32.9220   46.5540 C   0  0  0  0  0  0  0  0  0  0  0  0
   45.2590   32.8860   47.8100 C   0  0  0  0  0  0  0  0  0  0  0  0
   44.5700   33.6720   48.0870 H   0  0  0  0  0  0  0  0  0  0  0  0
   45.5370   31.8880   48.7220 C   0  0  0  0  0  0  0  0  0  0  0  0
   45.0500   31.9300   49.6950 H   0  0  0  0  0  0  0  0  0  0  0  0
   46.4140   30.8630   48.4050 C   0  0  0  0  0  0  0  0  0  0  0  0
   47.0030   30.8600   47.1580 C   0  0  0  0  0  0  0  0  0  0  0  0
  1  2  1  0  0  0  0
  1 21  1  0  0  0  0
  2  7  1  0  0  0  0
  3  8  1  0  0  0  0
  3  2  2  0  0  0  0
  4  3  1  0  0  0  0
  5  4  2  0  0  0  0
  5  6  1  0  0  0  0
  6  1  2  0  0  0  0
  9  5  1  0  0  0  0
 10  9  1  0  0  0  0
 10 15  1  0  0  0  0
 11 10  2  0  0  0  0
 12 13  2  0  0  0  0
 12 11  1  0  0  0  0
 13 14  1  0  0  0  0
 14  9  2  0  0  0  0
 16 11  1  0  0  0  0
 17 12  1  0  0  0  0
 18 13  1  0  0  0  0
 19 20  1  0  0  0  0
 20 21  2  0  0  0  0
 20 27  1  0  0  0  0
 21 22  1  0  0  0  0
 22 23  1  0  0  0  0
 22 24  2  0  0  0  0
 24 25  1  0  0  0  0
 26 24  1  0  0  0  0
 27 26  2  0  0  0  0
M  END
>  <minimizedAffinity>
-6.42574215

>  <minimizedRMSD>
0.47178936

$$$$
