
 OpenBabel03252507383D

 38 42  0  0  0  0  0  0  0  0999 V2000
   45.6160   34.8080   43.5060 C   0  0  0  0  0  0  0  0  0  0  0  0
   46.3150   33.7320   44.1080 C   0  0  0  0  0  0  0  0  0  0  0  0
   46.0820   33.5080   45.4630 C   0  0  0  0  0  0  0  0  0  0  0  0
   45.2320   34.2970   46.1180 N   0  0  0  0  0  0  0  0  0  0  0  0
   44.5720   35.3220   45.5240 C   0  0  0  0  0  0  0  0  0  0  0  0
   44.7690   35.5630   44.2380 N   0  0  0  0  0  0  0  0  0  0  0  0
   46.9910   33.1100   43.5750 H   0  0  0  0  0  0  0  0  0  0  0  0
   43.8950   35.9300   46.0960 H   0  0  0  0  0  0  0  0  0  0  0  0
   46.9890   32.6800   47.5620 C   0  0  0  0  0  0  0  0  0  0  0  0
   46.7490   32.4260   46.2010 C   0  0  0  0  0  0  0  0  0  0  0  0
   47.1400   31.2360   45.6700 C   0  0  0  0  0  0  0  0  0  0  0  0
   47.7640   30.2640   46.4170 C   0  0  0  0  0  0  0  0  0  0  0  0
   48.2300   29.0330   46.1070 N   0  0  0  0  0  0  0  0  0  0  0  0
   48.7660   28.5060   47.2680 C   0  0  0  0  0  0  0  0  0  0  0  0
   48.6180   29.4150   48.2560 N   0  0  0  0  0  0  0  0  0  0  0  0
   48.0100   30.4870   47.7480 C   0  0  0  0  0  0  0  0  0  0  0  0
   47.6210   31.6970   48.3230 C   0  0  0  0  0  0  0  0  0  0  0  0
   46.7120   33.5980   48.0630 H   0  0  0  0  0  0  0  0  0  0  0  0
   46.9410   31.0680   44.6200 H   0  0  0  0  0  0  0  0  0  0  0  0
   48.1870   28.5760   45.1520 H   0  0  0  0  0  0  0  0  0  0  0  0
   49.2140   27.5090   47.2850 H   0  0  0  0  0  0  0  0  0  0  0  0
   47.8360   31.8280   49.3760 H   0  0  0  0  0  0  0  0  0  0  0  0
   45.8480   35.0350   42.1440 O   0  0  0  0  0  0  0  0  0  0  0  0
   44.8970   34.6440   41.2120 C   0  0  0  0  0  0  0  0  0  0  0  0
   45.6070   33.7550   40.4840 C   0  0  0  0  0  0  0  0  0  0  0  0
   44.3110   33.2110   39.2050 S   0  0  0  0  0  0  0  0  0  0  0  0
   43.0590   34.3620   39.9850 C   0  0  0  0  0  0  0  0  0  0  0  0
   43.6620   34.7960   40.7980 N   0  0  0  0  0  0  0  0  0  0  0  0
   46.5460   33.1080   40.1570 H   0  0  0  0  0  0  0  0  0  0  0  0
   40.7980   32.9440   41.4830 Cl  0  0  0  0  0  0  0  0  0  0  0  0
   40.6150   33.8270   39.9840 C   0  0  0  0  0  0  0  0  0  0  0  0
   41.6890   34.4240   39.3990 C   0  0  0  0  0  0  0  0  0  0  0  0
   41.6480   35.1280   38.2420 C   0  0  0  0  0  0  0  0  0  0  0  0
   42.4990   35.6020   37.7750 H   0  0  0  0  0  0  0  0  0  0  0  0
   40.3950   35.2320   37.6270 C   0  0  0  0  0  0  0  0  0  0  0  0
   40.3020   35.7850   36.6970 H   0  0  0  0  0  0  0  0  0  0  0  0
   39.3000   34.6310   38.2120 C   0  0  0  0  0  0  0  0  0  0  0  0
   39.3730   33.9190   39.3920 C   0  0  0  0  0  0  0  0  0  0  0  0
  1  2  2  0  0  0  0
  1  6  1  0  0  0  0
  2  3  1  0  0  0  0
  3  4  2  0  0  0  0
  3 10  1  0  0  0  0
  5  8  1  0  0  0  0
  5  4  1  0  0  0  0
  6  5  2  0  0  0  0
  7  2  1  0  0  0  0
  9 18  1  0  0  0  0
  9 17  1  0  0  0  0
 10  9  2  0  0  0  0
 11 10  1  0  0  0  0
 11 12  2  0  0  0  0
 12 16  1  0  0  0  0
 13 12  1  0  0  0  0
 13 14  1  0  0  0  0
 14 21  1  0  0  0  0
 14 15  2  0  0  0  0
 16 15  1  0  0  0  0
 16 17  2  0  0  0  0
 17 22  1  0  0  0  0
 19 11  1  0  0  0  0
 20 13  1  0  0  0  0
 23  1  1  0  0  0  0
 24 23  1  0  0  0  0
 25 24  2  0  0  0  0
 26 27  1  0  0  0  0
 26 25  1  0  0  0  0
 27 28  2  0  0  0  0
 28 24  1  0  0  0  0
 29 25  1  0  0  0  0
 31 30  1  0  0  0  0
 32 31  1  0  0  0  0
 32 27  1  0  0  0  0
 33 32  2  0  0  0  0
 34 33  1  0  0  0  0
 35 37  2  0  0  0  0
 35 33  1  0  0  0  0
 36 35  1  0  0  0  0
 37 38  1  0  0  0  0
 38 31  2  0  0  0  0
M  END
>  <minimizedAffinity>
-7.09103441

>  <minimizedRMSD>
0.923300505

$$$$
