
 OpenBabel03242513253D

 45 48  0  0  1  0  0  0  0  0999 V2000
   38.7230   26.6860   43.3340 C   0  0  2  0  0  0  0  0  0  0  0  0
   40.2200   26.5470   43.5550 C   0  0  0  0  0  0  0  0  0  0  0  0
   40.4150   25.2640   42.7410 C   0  0  0  0  0  0  0  0  0  0  0  0
   39.6300   25.4250   41.6300 O   0  0  0  0  0  0  0  0  0  0  0  0
   38.6390   26.3350   41.8940 C   0  0  1  0  0  0  0  0  0  0  0  0
   38.2560   25.9700   44.0190 H   0  0  0  0  0  0  0  0  0  0  0  0
   40.8000   27.3880   43.1580 H   0  0  0  0  0  0  0  0  0  0  0  0
   40.4310   26.3440   44.6230 H   0  0  0  0  0  0  0  0  0  0  0  0
   41.4980   25.1840   42.5210 H   0  0  0  0  0  0  0  0  0  0  0  0
   40.0780   24.4370   43.4070 H   0  0  0  0  0  0  0  0  0  0  0  0
   38.7630   27.2120   41.2530 H   0  0  0  0  0  0  0  0  0  0  0  0
   37.3140   25.7180   41.5560 C   0  0  1  0  0  0  0  0  0  0  0  0
   36.8280   26.1520   40.1830 C   0  0  0  0  0  0  0  0  0  0  0  0
   36.2910   24.8520   39.6190 C   0  0  0  0  0  0  0  0  0  0  0  0
   36.2210   23.9600   40.6900 O   0  0  0  0  0  0  0  0  0  0  0  0
   37.4360   24.2130   41.3320 C   0  0  0  0  0  0  0  0  0  0  0  0
   36.5190   25.8780   42.2870 H   0  0  0  0  0  0  0  0  0  0  0  0
   37.6360   26.5650   39.5480 H   0  0  0  0  0  0  0  0  0  0  0  0
   36.0060   26.8820   40.3150 H   0  0  0  0  0  0  0  0  0  0  0  0
   37.0750   24.4570   38.9310 H   0  0  0  0  0  0  0  0  0  0  0  0
   35.3260   24.9750   39.1080 H   0  0  0  0  0  0  0  0  0  0  0  0
   37.5440   23.6610   42.2620 H   0  0  0  0  0  0  0  0  0  0  0  0
   38.1980   23.9900   40.5490 H   0  0  0  0  0  0  0  0  0  0  0  0
   38.2250   28.0430   43.6710 C   0  0  0  0  0  0  0  0  0  0  0  0
   39.0550   28.6080   44.1660 H   0  0  0  0  0  0  0  0  0  0  0  0
   37.3890   28.0310   44.4040 H   0  0  0  0  0  0  0  0  0  0  0  0
   38.3900   30.0010   42.1940 C   0  0  0  0  0  3  0  0  0  0  0  0
   37.8400   28.8510   42.4930 C   0  0  0  0  0  3  0  0  0  0  0  0
   37.8220   32.7420   39.8570 C   0  0  0  0  0  0  0  0  0  0  0  0
   37.1630   32.0750   38.7700 C   0  0  0  0  0  0  0  0  0  0  0  0
   36.9520   30.7090   38.9040 C   0  0  0  0  0  0  0  0  0  0  0  0
   37.3750   30.0920   40.0400 N   0  0  0  0  0  0  0  0  0  0  0  0
   37.9880   30.7470   41.0430 C   0  0  0  0  0  0  0  0  0  0  0  0
   38.2160   32.0540   40.9660 N   0  0  0  0  0  0  0  0  0  0  0  0
   38.0130   33.7880   39.8190 H   0  0  0  0  0  0  0  0  0  0  0  0
   36.8600   32.6180   37.9110 H   0  0  0  0  0  0  0  0  0  0  0  0
   34.5780   29.2390   39.8210 Cl  0  0  0  0  0  0  0  0  0  0  0  0
   35.1720   29.2040   38.1630 C   0  0  0  0  0  0  0  0  0  0  0  0
   36.2960   29.9380   37.8620 C   0  0  0  0  0  0  0  0  0  0  0  0
   36.7150   29.8780   36.5630 C   0  0  0  0  0  0  0  0  0  0  0  0
   37.5770   30.4180   36.2510 H   0  0  0  0  0  0  0  0  0  0  0  0
   36.0270   29.1110   35.6270 C   0  0  0  0  0  0  0  0  0  0  0  0
   36.4200   29.1090   34.6020 H   0  0  0  0  0  0  0  0  0  0  0  0
   34.9120   28.3870   35.9390 C   0  0  0  0  0  3  0  0  0  0  0  0
   34.4950   28.4480   37.2340 C   0  0  0  0  0  3  0  0  0  0  0  0
  1  2  1  0  0  0  0
  1 24  1  0  0  0  0
  1  6  1  1  0  0  0
  2  8  1  0  0  0  0
  3 10  1  0  0  0  0
  3  2  1  0  0  0  0
  4  5  1  0  0  0  0
  4  3  1  0  0  0  0
  5 11  1  6  0  0  0
  5  1  1  0  0  0  0
  7  2  1  0  0  0  0
  9  3  1  0  0  0  0
 12  5  1  0  0  0  0
 12 17  1  1  0  0  0
 13 19  1  0  0  0  0
 13 12  1  0  0  0  0
 14 13  1  0  0  0  0
 14 15  1  0  0  0  0
 15 16  1  0  0  0  0
 16 12  1  0  0  0  0
 16 22  1  0  0  0  0
 18 13  1  0  0  0  0
 20 14  1  0  0  0  0
 21 14  1  0  0  0  0
 23 16  1  0  0  0  0
 24 25  1  0  0  0  0
 24 26  1  0  0  0  0
 27 28  2  0  0  0  0
 28 24  1  0  0  0  0
 29 34  1  0  0  0  0
 30 31  1  0  0  0  0
 30 29  2  0  0  0  0
 31 32  2  0  0  0  0
 32 33  1  0  0  0  0
 33 27  1  0  0  0  0
 34 33  2  0  0  0  0
 35 29  1  0  0  0  0
 36 30  1  0  0  0  0
 38 37  1  0  0  0  0
 39 38  1  0  0  0  0
 39 31  1  0  0  0  0
 40 39  2  0  0  0  0
 41 40  1  0  0  0  0
 42 44  2  0  0  0  0
 42 40  1  0  0  0  0
 43 42  1  0  0  0  0
 44 45  1  0  0  0  0
 45 38  2  0  0  0  0
M  END
>  <minimizedAffinity>
-6.121943

$$$$

 OpenBabel03242513253D

 45 48  0  0  1  0  0  0  0  0999 V2000
   36.6870   28.1390   41.4870 C   0  0  2  0  0  0  0  0  0  0  0  0
   37.1200   29.0930   42.5880 C   0  0  0  0  0  0  0  0  0  0  0  0
   37.3840   28.0340   43.6640 C   0  0  0  0  0  0  0  0  0  0  0  0
   37.9990   27.0030   43.0040 O   0  0  0  0  0  0  0  0  0  0  0  0
   37.6880   27.0570   41.6700 C   0  0  1  0  0  0  0  0  0  0  0  0
   35.6530   27.8660   41.7230 H   0  0  0  0  0  0  0  0  0  0  0  0
   38.0170   29.6700   42.3390 H   0  0  0  0  0  0  0  0  0  0  0  0
   36.2690   29.7300   42.8980 H   0  0  0  0  0  0  0  0  0  0  0  0
   38.0140   28.5140   44.4390 H   0  0  0  0  0  0  0  0  0  0  0  0
   36.3820   27.7670   44.0690 H   0  0  0  0  0  0  0  0  0  0  0  0
   38.5950   27.2390   41.0860 H   0  0  0  0  0  0  0  0  0  0  0  0
   37.1410   25.7270   41.2460 C   0  0  1  0  0  0  0  0  0  0  0  0
   37.7090   25.2910   39.9050 C   0  0  0  0  0  0  0  0  0  0  0  0
   37.9830   23.8210   40.1480 C   0  0  0  0  0  0  0  0  0  0  0  0
   37.3370   23.4930   41.3410 O   0  0  0  0  0  0  0  0  0  0  0  0
   37.6590   24.5980   42.1340 C   0  0  0  0  0  0  0  0  0  0  0  0
   36.0530   25.6510   41.2190 H   0  0  0  0  0  0  0  0  0  0  0  0
   38.6330   25.8350   39.6280 H   0  0  0  0  0  0  0  0  0  0  0  0
   36.9220   25.4130   39.1340 H   0  0  0  0  0  0  0  0  0  0  0  0
   39.0760   23.7310   40.3470 H   0  0  0  0  0  0  0  0  0  0  0  0
   37.6690   23.1840   39.3090 H   0  0  0  0  0  0  0  0  0  0  0  0
   37.1720   24.5760   43.1060 H   0  0  0  0  0  0  0  0  0  0  0  0
   38.7740   24.5900   42.1540 H   0  0  0  0  0  0  0  0  0  0  0  0
   36.7040   28.7780   40.1470 C   0  0  0  0  0  0  0  0  0  0  0  0
   37.5450   28.3330   39.5570 H   0  0  0  0  0  0  0  0  0  0  0  0
   36.9090   29.8700   40.1880 H   0  0  0  0  0  0  0  0  0  0  0  0
   35.4840   28.4020   38.0460 C   0  0  0  0  0  3  0  0  0  0  0  0
   35.4830   28.5310   39.3500 C   0  0  0  0  0  3  0  0  0  0  0  0
   32.7740   26.7280   36.2710 C   0  0  0  0  0  0  0  0  0  0  0  0
   31.9300   27.8310   35.9080 C   0  0  0  0  0  0  0  0  0  0  0  0
   32.3440   29.0980   36.2990 C   0  0  0  0  0  0  0  0  0  0  0  0
   33.5090   29.2170   36.9920 N   0  0  0  0  0  0  0  0  0  0  0  0
   34.2790   28.1630   37.3160 C   0  0  0  0  0  0  0  0  0  0  0  0
   33.9280   26.9300   36.9680 N   0  0  0  0  0  0  0  0  0  0  0  0
   32.5150   25.7320   36.0030 H   0  0  0  0  0  0  0  0  0  0  0  0
   31.0340   27.6660   35.3660 H   0  0  0  0  0  0  0  0  0  0  0  0
   30.6980   30.0740   38.5290 Cl  0  0  0  0  0  0  0  0  0  0  0  0
   30.7510   30.8370   36.9420 C   0  0  0  0  0  0  0  0  0  0  0  0
   31.5640   30.2810   35.9830 C   0  0  0  0  0  0  0  0  0  0  0  0
   31.5700   30.9100   34.7700 C   0  0  0  0  0  0  0  0  0  0  0  0
   32.1730   30.5410   33.9750 H   0  0  0  0  0  0  0  0  0  0  0  0
   30.7880   32.0420   34.5500 C   0  0  0  0  0  0  0  0  0  0  0  0
   30.8410   32.4960   33.5530 H   0  0  0  0  0  0  0  0  0  0  0  0
   29.9850   32.5840   35.5130 C   0  0  0  0  0  3  0  0  0  0  0  0
   29.9810   31.9560   36.7200 C   0  0  0  0  0  3  0  0  0  0  0  0
  1  5  1  0  0  0  0
  1  6  1  1  0  0  0
  1  2  1  0  0  0  0
  2  8  1  0  0  0  0
  2  3  1  0  0  0  0
  3 10  1  0  0  0  0
  3  9  1  0  0  0  0
  4  3  1  0  0  0  0
  5 11  1  6  0  0  0
  5  4  1  0  0  0  0
  7  2  1  0  0  0  0
 12 17  1  6  0  0  0
 12  5  1  0  0  0  0
 12 16  1  0  0  0  0
 13 14  1  0  0  0  0
 13 12  1  0  0  0  0
 14 20  1  0  0  0  0
 14 15  1  0  0  0  0
 15 16  1  0  0  0  0
 16 23  1  0  0  0  0
 16 22  1  0  0  0  0
 18 13  1  0  0  0  0
 19 13  1  0  0  0  0
 21 14  1  0  0  0  0
 24 26  1  0  0  0  0
 24  1  1  0  0  0  0
 25 24  1  0  0  0  0
 27 28  2  0  0  0  0
 28 24  1  0  0  0  0
 29 34  1  0  0  0  0
 30 29  2  0  0  0  0
 30 31  1  0  0  0  0
 31 32  2  0  0  0  0
 32 33  1  0  0  0  0
 33 27  1  0  0  0  0
 34 33  2  0  0  0  0
 35 29  1  0  0  0  0
 36 30  1  0  0  0  0
 38 37  1  0  0  0  0
 39 31  1  0  0  0  0
 39 38  2  0  0  0  0
 40 39  1  0  0  0  0
 41 40  1  0  0  0  0
 42 40  2  0  0  0  0
 42 44  1  0  0  0  0
 43 42  1  0  0  0  0
 44 45  2  0  0  0  0
 45 38  1  0  0  0  0
M  END
>  <minimizedAffinity>
-5.91492319

$$$$

 OpenBabel03242513253D

 45 48  0  0  1  0  0  0  0  0999 V2000
   37.4120   30.5980   39.3050 C   0  0  2  0  0  0  0  0  0  0  0  0
   37.5580   32.0970   39.0930 C   0  0  0  0  0  0  0  0  0  0  0  0
   37.8370   32.4690   40.5540 C   0  0  0  0  0  0  0  0  0  0  0  0
   38.6740   31.4880   41.0170 O   0  0  0  0  0  0  0  0  0  0  0  0
   38.5280   30.3590   40.2540 C   0  0  1  0  0  0  0  0  0  0  0  0
   36.4070   30.4560   39.7170 H   0  0  0  0  0  0  0  0  0  0  0  0
   38.3850   32.3650   38.4280 H   0  0  0  0  0  0  0  0  0  0  0  0
   36.5920   32.5340   38.7780 H   0  0  0  0  0  0  0  0  0  0  0  0
   38.2870   33.4810   40.5470 H   0  0  0  0  0  0  0  0  0  0  0  0
   36.8410   32.4750   41.0530 H   0  0  0  0  0  0  0  0  0  0  0  0
   39.4650   30.1410   39.7330 H   0  0  0  0  0  0  0  0  0  0  0  0
   38.2390   29.1970   41.1570 C   0  0  1  0  0  0  0  0  0  0  0  0
   38.8260   29.4080   42.5440 C   0  0  0  0  0  0  0  0  0  0  0  0
   37.7040   28.9130   43.4330 C   0  0  0  0  0  0  0  0  0  0  0  0
   36.8080   28.2430   42.5990 O   0  0  0  0  0  0  0  0  0  0  0  0
   36.7550   29.1130   41.5060 C   0  0  0  0  0  0  0  0  0  0  0  0
   38.5440   28.2190   40.7810 H   0  0  0  0  0  0  0  0  0  0  0  0
   39.0720   30.4670   42.7540 H   0  0  0  0  0  0  0  0  0  0  0  0
   39.7170   28.7580   42.6510 H   0  0  0  0  0  0  0  0  0  0  0  0
   37.1700   29.8190   43.8050 H   0  0  0  0  0  0  0  0  0  0  0  0
   38.0610   28.2840   44.2610 H   0  0  0  0  0  0  0  0  0  0  0  0
   36.1560   28.7250   40.6870 H   0  0  0  0  0  0  0  0  0  0  0  0
   36.3990   30.0710   41.9520 H   0  0  0  0  0  0  0  0  0  0  0  0
   37.5040   29.8370   38.0340 C   0  0  0  0  0  0  0  0  0  0  0  0
   37.9640   28.8410   38.2550 H   0  0  0  0  0  0  0  0  0  0  0  0
   38.1700   30.3180   37.2850 H   0  0  0  0  0  0  0  0  0  0  0  0
   35.4820   28.4790   37.6970 C   0  0  0  0  0  3  0  0  0  0  0  0
   36.1930   29.5430   37.4150 C   0  0  0  0  0  3  0  0  0  0  0  0
   32.6290   26.7960   36.1720 C   0  0  0  0  0  0  0  0  0  0  0  0
   31.7560   27.8980   35.8790 C   0  0  0  0  0  0  0  0  0  0  0  0
   32.2020   29.1660   36.2250 C   0  0  0  0  0  0  0  0  0  0  0  0
   33.4230   29.2890   36.8140 N   0  0  0  0  0  0  0  0  0  0  0  0
   34.2190   28.2360   37.0750 C   0  0  0  0  0  0  0  0  0  0  0  0
   33.8390   27.0010   36.7650 N   0  0  0  0  0  0  0  0  0  0  0  0
   32.3480   25.7990   35.9320 H   0  0  0  0  0  0  0  0  0  0  0  0
   30.8170   27.7300   35.4170 H   0  0  0  0  0  0  0  0  0  0  0  0
   30.6440   30.0700   38.5470 Cl  0  0  0  0  0  0  0  0  0  0  0  0
   30.6200   30.8720   36.9790 C   0  0  0  0  0  0  0  0  0  0  0  0
   31.3980   30.3480   35.9720 C   0  0  0  0  0  0  0  0  0  0  0  0
   31.3440   31.0060   34.7760 C   0  0  0  0  0  0  0  0  0  0  0  0
   31.9160   30.6630   33.9470 H   0  0  0  0  0  0  0  0  0  0  0  0
   30.5420   32.1340   34.6180 C   0  0  0  0  0  0  0  0  0  0  0  0
   30.5480   32.6120   33.6300 H   0  0  0  0  0  0  0  0  0  0  0  0
   29.7760   32.6440   35.6270 C   0  0  0  0  0  3  0  0  0  0  0  0
   29.8300   31.9870   36.8180 C   0  0  0  0  0  3  0  0  0  0  0  0
  1  6  1  1  0  0  0
  1  5  1  0  0  0  0
  2  1  1  0  0  0  0
  2  3  1  0  0  0  0
  3  4  1  0  0  0  0
  3 10  1  0  0  0  0
  5 11  1  6  0  0  0
  5  4  1  0  0  0  0
  5 12  1  0  0  0  0
  7  2  1  0  0  0  0
  8  2  1  0  0  0  0
  9  3  1  0  0  0  0
 12 17  1  6  0  0  0
 12 16  1  0  0  0  0
 12 13  1  0  0  0  0
 13 19  1  0  0  0  0
 13 18  1  0  0  0  0
 13 14  1  0  0  0  0
 14 20  1  0  0  0  0
 14 21  1  0  0  0  0
 15 14  1  0  0  0  0
 16 23  1  0  0  0  0
 16 15  1  0  0  0  0
 22 16  1  0  0  0  0
 24 25  1  0  0  0  0
 24  1  1  0  0  0  0
 26 24  1  0  0  0  0
 28 27  2  0  0  0  0
 28 24  1  0  0  0  0
 29 34  1  0  0  0  0
 30 29  2  0  0  0  0
 30 31  1  0  0  0  0
 31 32  2  0  0  0  0
 32 33  1  0  0  0  0
 33 27  1  0  0  0  0
 34 33  2  0  0  0  0
 35 29  1  0  0  0  0
 36 30  1  0  0  0  0
 38 37  1  0  0  0  0
 39 31  1  0  0  0  0
 39 38  2  0  0  0  0
 40 39  1  0  0  0  0
 41 40  1  0  0  0  0
 42 40  2  0  0  0  0
 42 44  1  0  0  0  0
 43 42  1  0  0  0  0
 44 45  2  0  0  0  0
 45 38  1  0  0  0  0
M  END
>  <minimizedAffinity>
-5.89026785

$$$$

 OpenBabel03242513253D

 45 48  0  0  1  0  0  0  0  0999 V2000
   37.4120   26.8430   43.0260 C   0  0  2  0  0  0  0  0  0  0  0  0
   38.5740   27.5740   43.6790 C   0  0  0  0  0  0  0  0  0  0  0  0
   39.5610   26.4010   43.6790 C   0  0  0  0  0  0  0  0  0  0  0  0
   39.3850   25.7890   42.4670 O   0  0  0  0  0  0  0  0  0  0  0  0
   38.1380   26.0830   41.9770 C   0  0  1  0  0  0  0  0  0  0  0  0
   36.9630   26.2350   43.8190 H   0  0  0  0  0  0  0  0  0  0  0  0
   38.9360   28.4260   43.0960 H   0  0  0  0  0  0  0  0  0  0  0  0
   38.3180   27.8420   44.7220 H   0  0  0  0  0  0  0  0  0  0  0  0
   40.5710   26.8320   43.8260 H   0  0  0  0  0  0  0  0  0  0  0  0
   39.2650   25.7660   44.5450 H   0  0  0  0  0  0  0  0  0  0  0  0
   38.2320   26.6560   41.0500 H   0  0  0  0  0  0  0  0  0  0  0  0
   37.4350   24.8020   41.6420 C   0  0  1  0  0  0  0  0  0  0  0  0
   36.7180   24.8910   40.3040 C   0  0  0  0  0  0  0  0  0  0  0  0
   37.0420   23.5450   39.6890 C   0  0  0  0  0  0  0  0  0  0  0  0
   37.5760   22.7630   40.7140 O   0  0  0  0  0  0  0  0  0  0  0  0
   38.4260   23.6800   41.3390 C   0  0  0  0  0  0  0  0  0  0  0  0
   36.7410   24.4320   42.3990 H   0  0  0  0  0  0  0  0  0  0  0  0
   37.0830   25.7240   39.6710 H   0  0  0  0  0  0  0  0  0  0  0  0
   35.6300   24.9750   40.4940 H   0  0  0  0  0  0  0  0  0  0  0  0
   37.8710   23.7200   38.9630 H   0  0  0  0  0  0  0  0  0  0  0  0
   36.1730   23.0750   39.2080 H   0  0  0  0  0  0  0  0  0  0  0  0
   38.8900   23.2810   42.2370 H   0  0  0  0  0  0  0  0  0  0  0  0
   39.1280   23.9810   40.5260 H   0  0  0  0  0  0  0  0  0  0  0  0
   36.3760   27.7740   42.5120 C   0  0  0  0  0  0  0  0  0  0  0  0
   36.0440   28.4290   43.3570 H   0  0  0  0  0  0  0  0  0  0  0  0
   35.4600   27.2530   42.1560 H   0  0  0  0  0  0  0  0  0  0  0  0
   36.4980   28.6160   40.2060 C   0  0  0  0  0  3  0  0  0  0  0  0
   36.8640   28.6930   41.4610 C   0  0  0  0  0  3  0  0  0  0  0  0
   36.9580   30.4480   37.0870 C   0  0  0  0  0  0  0  0  0  0  0  0
   38.0410   31.3300   37.4170 C   0  0  0  0  0  0  0  0  0  0  0  0
   38.5560   31.2440   38.7040 C   0  0  0  0  0  0  0  0  0  0  0  0
   38.0100   30.3420   39.5640 N   0  0  0  0  0  0  0  0  0  0  0  0
   36.9950   29.5270   39.2240 C   0  0  0  0  0  0  0  0  0  0  0  0
   36.4660   29.5700   38.0060 N   0  0  0  0  0  0  0  0  0  0  0  0
   36.5190   30.4630   36.1180 H   0  0  0  0  0  0  0  0  0  0  0  0
   38.4190   32.0110   36.6960 H   0  0  0  0  0  0  0  0  0  0  0  0
   37.6960   33.7710   39.9340 Cl  0  0  0  0  0  0  0  0  0  0  0  0
   39.3820   33.3030   39.7320 C   0  0  0  0  0  0  0  0  0  0  0  0
   39.6510   32.0910   39.1410 C   0  0  0  0  0  0  0  0  0  0  0  0
   40.9740   31.7740   39.0080 C   0  0  0  0  0  0  0  0  0  0  0  0
   41.2640   30.8540   38.5590 H   0  0  0  0  0  0  0  0  0  0  0  0
   41.9640   32.6470   39.4530 C   0  0  0  0  0  0  0  0  0  0  0  0
   43.0050   32.3280   39.3140 H   0  0  0  0  0  0  0  0  0  0  0  0
   41.6820   33.8480   40.0390 C   0  0  0  0  0  3  0  0  0  0  0  0
   40.3640   34.1610   40.1710 C   0  0  0  0  0  3  0  0  0  0  0  0
  1  2  1  0  0  0  0
  1  6  1  1  0  0  0
  2  8  1  0  0  0  0
  3  2  1  0  0  0  0
  3  9  1  0  0  0  0
  3 10  1  0  0  0  0
  4  3  1  0  0  0  0
  5 11  1  6  0  0  0
  5  4  1  0  0  0  0
  5  1  1  0  0  0  0
  7  2  1  0  0  0  0
 12  5  1  0  0  0  0
 12 17  1  1  0  0  0
 13 19  1  0  0  0  0
 13 12  1  0  0  0  0
 14 13  1  0  0  0  0
 14 15  1  0  0  0  0
 15 16  1  0  0  0  0
 16 12  1  0  0  0  0
 16 22  1  0  0  0  0
 18 13  1  0  0  0  0
 20 14  1  0  0  0  0
 21 14  1  0  0  0  0
 23 16  1  0  0  0  0
 24  1  1  0  0  0  0
 24 25  1  0  0  0  0
 26 24  1  0  0  0  0
 27 28  2  0  0  0  0
 28 24  1  0  0  0  0
 29 30  2  0  0  0  0
 29 34  1  0  0  0  0
 30 31  1  0  0  0  0
 31 39  1  0  0  0  0
 31 32  2  0  0  0  0
 33 32  1  0  0  0  0
 33 27  1  0  0  0  0
 34 33  2  0  0  0  0
 35 29  1  0  0  0  0
 36 30  1  0  0  0  0
 38 37  1  0  0  0  0
 38 45  1  0  0  0  0
 39 38  2  0  0  0  0
 40 39  1  0  0  0  0
 40 42  2  0  0  0  0
 41 40  1  0  0  0  0
 42 44  1  0  0  0  0
 43 42  1  0  0  0  0
 44 45  2  0  0  0  0
M  END
>  <minimizedAffinity>
-5.82875729

$$$$

 OpenBabel03242513253D

 45 48  0  0  1  0  0  0  0  0999 V2000
   37.6130   25.8900   40.2480 C   0  0  2  0  0  0  0  0  0  0  0  0
   37.2800   24.6010   39.5150 C   0  0  0  0  0  0  0  0  0  0  0  0
   37.3370   23.6700   40.7310 C   0  0  0  0  0  0  0  0  0  0  0  0
   36.7350   24.3700   41.7430 O   0  0  0  0  0  0  0  0  0  0  0  0
   36.7930   25.7130   41.4730 C   0  0  1  0  0  0  0  0  0  0  0  0
   38.6970   25.8690   40.4030 H   0  0  0  0  0  0  0  0  0  0  0  0
   36.2930   24.6110   39.0410 H   0  0  0  0  0  0  0  0  0  0  0  0
   38.0940   24.3410   38.8120 H   0  0  0  0  0  0  0  0  0  0  0  0
   36.8070   22.7390   40.4480 H   0  0  0  0  0  0  0  0  0  0  0  0
   38.4200   23.4780   40.9060 H   0  0  0  0  0  0  0  0  0  0  0  0
   35.7800   26.1080   41.3450 H   0  0  0  0  0  0  0  0  0  0  0  0
   37.4020   26.4180   42.6480 C   0  0  1  0  0  0  0  0  0  0  0  0
   38.8730   26.7240   42.4160 C   0  0  0  0  0  0  0  0  0  0  0  0
   38.9860   28.1330   42.9610 C   0  0  0  0  0  0  0  0  0  0  0  0
   37.8070   28.3760   43.6670 O   0  0  0  0  0  0  0  0  0  0  0  0
   36.8550   27.8360   42.7970 C   0  0  0  0  0  0  0  0  0  0  0  0
   37.2850   25.9180   43.6110 H   0  0  0  0  0  0  0  0  0  0  0  0
   39.1620   26.6780   41.3480 H   0  0  0  0  0  0  0  0  0  0  0  0
   39.4780   26.0250   43.0270 H   0  0  0  0  0  0  0  0  0  0  0  0
   38.9720   28.8160   42.0790 H   0  0  0  0  0  0  0  0  0  0  0  0
   39.8850   28.2810   43.5760 H   0  0  0  0  0  0  0  0  0  0  0  0
   35.8500   27.8540   43.2090 H   0  0  0  0  0  0  0  0  0  0  0  0
   37.0010   28.4170   41.8560 H   0  0  0  0  0  0  0  0  0  0  0  0
   37.2820   27.0970   39.4490 C   0  0  0  0  0  0  0  0  0  0  0  0
   38.1090   27.2680   38.7150 H   0  0  0  0  0  0  0  0  0  0  0  0
   37.2250   28.0230   40.0620 H   0  0  0  0  0  0  0  0  0  0  0  0
   35.4130   27.9780   38.1180 C   0  0  0  0  0  3  0  0  0  0  0  0
   36.0510   26.9610   38.6400 C   0  0  0  0  0  3  0  0  0  0  0  0
   32.6600   26.4390   36.2870 C   0  0  0  0  0  0  0  0  0  0  0  0
   31.9240   27.5870   35.8360 C   0  0  0  0  0  0  0  0  0  0  0  0
   32.4210   28.8340   36.1910 C   0  0  0  0  0  0  0  0  0  0  0  0
   33.5590   28.8950   36.9350 N   0  0  0  0  0  0  0  0  0  0  0  0
   34.2260   27.7990   37.3410 C   0  0  0  0  0  0  0  0  0  0  0  0
   33.7940   26.5830   37.0300 N   0  0  0  0  0  0  0  0  0  0  0  0
   32.3340   25.4550   36.0490 H   0  0  0  0  0  0  0  0  0  0  0  0
   31.0430   27.4670   35.2590 H   0  0  0  0  0  0  0  0  0  0  0  0
   30.7380   30.0250   38.2860 Cl  0  0  0  0  0  0  0  0  0  0  0  0
   30.9350   30.7150   36.6770 C   0  0  0  0  0  0  0  0  0  0  0  0
   31.7530   30.0580   35.7870 C   0  0  0  0  0  0  0  0  0  0  0  0
   31.8720   30.6340   34.5530 C   0  0  0  0  0  0  0  0  0  0  0  0
   32.4870   30.1860   33.8090 H   0  0  0  0  0  0  0  0  0  0  0  0
   31.1940   31.8110   34.2470 C   0  0  0  0  0  0  0  0  0  0  0  0
   31.3360   32.2170   33.2380 H   0  0  0  0  0  0  0  0  0  0  0  0
   30.3850   32.4520   35.1410 C   0  0  0  0  0  3  0  0  0  0  0  0
   30.2680   31.8780   36.3700 C   0  0  0  0  0  3  0  0  0  0  0  0
  1  6  1  1  0  0  0
  1  5  1  0  0  0  0
  2  1  1  0  0  0  0
  2  3  1  0  0  0  0
  3 10  1  0  0  0  0
  3  4  1  0  0  0  0
  5 11  1  6  0  0  0
  5  4  1  0  0  0  0
  5 12  1  0  0  0  0
  7  2  1  0  0  0  0
  8  2  1  0  0  0  0
  9  3  1  0  0  0  0
 12 16  1  0  0  0  0
 12 17  1  1  0  0  0
 13 12  1  0  0  0  0
 13 14  1  0  0  0  0
 13 19  1  0  0  0  0
 14 21  1  0  0  0  0
 14 15  1  0  0  0  0
 16 22  1  0  0  0  0
 16 15  1  0  0  0  0
 18 13  1  0  0  0  0
 20 14  1  0  0  0  0
 23 16  1  0  0  0  0
 24 26  1  0  0  0  0
 24  1  1  0  0  0  0
 25 24  1  0  0  0  0
 27 28  2  0  0  0  0
 28 24  1  0  0  0  0
 29 34  1  0  0  0  0
 30 31  1  0  0  0  0
 30 29  2  0  0  0  0
 31 32  2  0  0  0  0
 32 33  1  0  0  0  0
 33 27  1  0  0  0  0
 34 33  2  0  0  0  0
 35 29  1  0  0  0  0
 36 30  1  0  0  0  0
 38 37  1  0  0  0  0
 39 31  1  0  0  0  0
 39 38  2  0  0  0  0
 40 39  1  0  0  0  0
 41 40  1  0  0  0  0
 42 40  2  0  0  0  0
 42 44  1  0  0  0  0
 43 42  1  0  0  0  0
 44 45  2  0  0  0  0
 45 38  1  0  0  0  0
M  END
>  <minimizedAffinity>
-5.73958158

$$$$

 OpenBabel03242513253D

 45 48  0  0  1  0  0  0  0  0999 V2000
   39.6210   31.7490   40.9290 C   0  0  2  0  0  0  0  0  0  0  0  0
   40.7550   32.7490   40.7690 C   0  0  0  0  0  0  0  0  0  0  0  0
   40.2390   33.4190   39.4910 C   0  0  0  0  0  0  0  0  0  0  0  0
   38.8870   33.5370   39.6730 O   0  0  0  0  0  0  0  0  0  0  0  0
   38.4620   32.6130   40.5920 C   0  0  1  0  0  0  0  0  0  0  0  0
   39.8330   30.9470   40.2130 H   0  0  0  0  0  0  0  0  0  0  0  0
   40.8390   33.4510   41.6050 H   0  0  0  0  0  0  0  0  0  0  0  0
   41.7030   32.2200   40.5520 H   0  0  0  0  0  0  0  0  0  0  0  0
   40.7690   34.3870   39.3990 H   0  0  0  0  0  0  0  0  0  0  0  0
   40.5170   32.7280   38.6620 H   0  0  0  0  0  0  0  0  0  0  0  0
   38.0660   33.1250   41.4740 H   0  0  0  0  0  0  0  0  0  0  0  0
   37.3400   31.8170   39.9960 C   0  0  1  0  0  0  0  0  0  0  0  0
   37.8520   30.5820   39.2730 C   0  0  0  0  0  0  0  0  0  0  0  0
   36.8510   29.5310   39.7060 C   0  0  0  0  0  0  0  0  0  0  0  0
   35.7940   30.2190   40.3040 O   0  0  0  0  0  0  0  0  0  0  0  0
   36.4850   31.1570   41.0760 C   0  0  0  0  0  0  0  0  0  0  0  0
   36.6680   32.3690   39.3370 H   0  0  0  0  0  0  0  0  0  0  0  0
   38.8830   30.3040   39.5660 H   0  0  0  0  0  0  0  0  0  0  0  0
   37.7770   30.7580   38.1820 H   0  0  0  0  0  0  0  0  0  0  0  0
   37.3400   28.9420   40.5160 H   0  0  0  0  0  0  0  0  0  0  0  0
   36.5210   28.8880   38.8780 H   0  0  0  0  0  0  0  0  0  0  0  0
   35.8240   31.8630   41.5730 H   0  0  0  0  0  0  0  0  0  0  0  0
   37.1140   30.5290   41.7500 H   0  0  0  0  0  0  0  0  0  0  0  0
   39.5790   31.1560   42.2890 C   0  0  0  0  0  0  0  0  0  0  0  0
   38.5700   31.3600   42.7280 H   0  0  0  0  0  0  0  0  0  0  0  0
   40.3110   31.6170   42.9880 H   0  0  0  0  0  0  0  0  0  0  0  0
   38.8450   28.8720   42.8220 C   0  0  0  0  0  3  0  0  0  0  0  0
   39.7330   29.6850   42.3070 C   0  0  0  0  0  3  0  0  0  0  0  0
   40.0250   25.5230   43.6530 C   0  0  0  0  0  0  0  0  0  0  0  0
   39.3150   24.7130   42.7030 C   0  0  0  0  0  0  0  0  0  0  0  0
   38.4640   25.3700   41.8250 C   0  0  0  0  0  0  0  0  0  0  0  0
   38.3540   26.7230   41.9140 N   0  0  0  0  0  0  0  0  0  0  0  0
   39.0350   27.4550   42.8160 C   0  0  0  0  0  0  0  0  0  0  0  0
   39.8610   26.8760   43.6800 N   0  0  0  0  0  0  0  0  0  0  0  0
   40.6930   25.0820   44.3540 H   0  0  0  0  0  0  0  0  0  0  0  0
   39.4480   23.6610   42.6890 H   0  0  0  0  0  0  0  0  0  0  0  0
   39.8290   25.1060   39.2350 Cl  0  0  0  0  0  0  0  0  0  0  0  0
   38.2280   24.4540   39.5700 C   0  0  0  0  0  0  0  0  0  0  0  0
   37.7000   24.6460   40.8260 C   0  0  0  0  0  0  0  0  0  0  0  0
   36.4550   24.1210   41.0340 C   0  0  0  0  0  0  0  0  0  0  0  0
   35.9780   24.2270   41.9790 H   0  0  0  0  0  0  0  0  0  0  0  0
   35.7890   23.4400   40.0180 C   0  0  0  0  0  0  0  0  0  0  0  0
   34.7940   23.0450   40.2560 H   0  0  0  0  0  0  0  0  0  0  0  0
   36.3260   23.2560   38.7760 C   0  0  0  0  0  3  0  0  0  0  0  0
   37.5660   23.7800   38.5700 C   0  0  0  0  0  3  0  0  0  0  0  0
  1  6  1  6  0  0  0
  1 24  1  0  0  0  0
  2  1  1  0  0  0  0
  2  7  1  0  0  0  0
  3  4  1  0  0  0  0
  3  2  1  0  0  0  0
  4  5  1  0  0  0  0
  5  1  1  0  0  0  0
  5 11  1  1  0  0  0
  8  2  1  0  0  0  0
  9  3  1  0  0  0  0
 10  3  1  0  0  0  0
 12 17  1  6  0  0  0
 12  5  1  0  0  0  0
 12 16  1  0  0  0  0
 13 18  1  0  0  0  0
 13 14  1  0  0  0  0
 13 12  1  0  0  0  0
 14 15  1  0  0  0  0
 14 20  1  0  0  0  0
 15 16  1  0  0  0  0
 16 22  1  0  0  0  0
 16 23  1  0  0  0  0
 19 13  1  0  0  0  0
 21 14  1  0  0  0  0
 24 28  1  0  0  0  0
 24 25  1  0  0  0  0
 24 26  1  0  0  0  0
 28 27  2  0  0  0  0
 29 34  1  0  0  0  0
 29 35  1  0  0  0  0
 30 29  2  0  0  0  0
 31 32  2  0  0  0  0
 31 30  1  0  0  0  0
 32 33  1  0  0  0  0
 33 27  1  0  0  0  0
 33 34  2  0  0  0  0
 36 30  1  0  0  0  0
 37 38  1  0  0  0  0
 38 39  1  0  0  0  0
 39 40  2  0  0  0  0
 39 31  1  0  0  0  0
 40 41  1  0  0  0  0
 42 43  1  0  0  0  0
 42 40  1  0  0  0  0
 44 42  2  0  0  0  0
 45 44  1  0  0  0  0
 45 38  2  0  0  0  0
M  END
>  <minimizedAffinity>
-5.66149902

$$$$

 OpenBabel03242513253D

 45 48  0  0  1  0  0  0  0  0999 V2000
   37.6150   30.1110   39.1320 C   0  0  2  0  0  0  0  0  0  0  0  0
   36.8100   29.2980   40.1330 C   0  0  0  0  0  0  0  0  0  0  0  0
   36.8170   30.3310   41.2660 C   0  0  0  0  0  0  0  0  0  0  0  0
   36.6230   31.5370   40.6480 O   0  0  0  0  0  0  0  0  0  0  0  0
   37.0070   31.4500   39.3340 C   0  0  1  0  0  0  0  0  0  0  0  0
   38.6590   30.0180   39.4490 H   0  0  0  0  0  0  0  0  0  0  0  0
   35.7980   29.0610   39.7890 H   0  0  0  0  0  0  0  0  0  0  0  0
   37.3810   28.4030   40.4450 H   0  0  0  0  0  0  0  0  0  0  0  0
   36.0050   30.0450   41.9650 H   0  0  0  0  0  0  0  0  0  0  0  0
   37.8160   30.2330   41.7490 H   0  0  0  0  0  0  0  0  0  0  0  0
   36.1400   31.6060   38.6860 H   0  0  0  0  0  0  0  0  0  0  0  0
   37.9870   32.5470   39.0420 C   0  0  1  0  0  0  0  0  0  0  0  0
   37.7400   33.7660   39.9170 C   0  0  0  0  0  0  0  0  0  0  0  0
   39.1500   34.1610   40.3030 C   0  0  0  0  0  0  0  0  0  0  0  0
   40.0030   33.4350   39.4710 O   0  0  0  0  0  0  0  0  0  0  0  0
   39.3970   32.1760   39.4960 C   0  0  0  0  0  0  0  0  0  0  0  0
   38.0490   32.8590   37.9980 H   0  0  0  0  0  0  0  0  0  0  0  0
   37.1230   33.5420   40.8090 H   0  0  0  0  0  0  0  0  0  0  0  0
   37.2760   34.5570   39.2940 H   0  0  0  0  0  0  0  0  0  0  0  0
   39.3150   33.7760   41.3360 H   0  0  0  0  0  0  0  0  0  0  0  0
   39.3220   35.2450   40.2410 H   0  0  0  0  0  0  0  0  0  0  0  0
   39.8750   31.4640   38.8280 H   0  0  0  0  0  0  0  0  0  0  0  0
   39.4050   31.9030   40.5770 H   0  0  0  0  0  0  0  0  0  0  0  0
   37.5000   29.5800   37.7500 C   0  0  0  0  0  0  0  0  0  0  0  0
   37.9810   28.5700   37.7230 H   0  0  0  0  0  0  0  0  0  0  0  0
   38.0460   30.1950   37.0010 H   0  0  0  0  0  0  0  0  0  0  0  0
   35.6830   28.2640   36.7480 C   0  0  0  0  0  3  0  0  0  0  0  0
   36.1070   29.3730   37.3020 C   0  0  0  0  0  3  0  0  0  0  0  0
   32.6540   26.9370   35.2110 C   0  0  0  0  0  0  0  0  0  0  0  0
   31.6740   27.9160   35.5890 C   0  0  0  0  0  0  0  0  0  0  0  0
   32.1150   28.9850   36.3580 C   0  0  0  0  0  0  0  0  0  0  0  0
   33.4300   29.0410   36.7030 N   0  0  0  0  0  0  0  0  0  0  0  0
   34.3250   28.1070   36.3310 C   0  0  0  0  0  0  0  0  0  0  0  0
   33.9550   27.0640   35.5960 N   0  0  0  0  0  0  0  0  0  0  0  0
   32.3820   26.0940   34.6210 H   0  0  0  0  0  0  0  0  0  0  0  0
   30.6640   27.8100   35.2850 H   0  0  0  0  0  0  0  0  0  0  0  0
   31.8100   31.1850   34.4330 Cl  0  0  0  0  0  0  0  0  0  0  0  0
   30.9780   31.1170   35.9830 C   0  0  0  0  0  0  0  0  0  0  0  0
   31.2070   30.0300   36.7950 C   0  0  0  0  0  0  0  0  0  0  0  0
   30.5370   30.0250   37.9860 C   0  0  0  0  0  0  0  0  0  0  0  0
   30.6620   29.2200   38.6690 H   0  0  0  0  0  0  0  0  0  0  0  0
   29.6840   31.0710   38.3280 C   0  0  0  0  0  0  0  0  0  0  0  0
   29.1790   31.0020   39.3000 H   0  0  0  0  0  0  0  0  0  0  0  0
   29.4650   32.1450   37.5120 C   0  0  0  0  0  3  0  0  0  0  0  0
   30.1330   32.1480   36.3260 C   0  0  0  0  0  3  0  0  0  0  0  0
  1  5  1  0  0  0  0
  1  6  1  1  0  0  0
  1  2  1  0  0  0  0
  2  8  1  0  0  0  0
  2  3  1  0  0  0  0
  3 10  1  0  0  0  0
  3  9  1  0  0  0  0
  4  3  1  0  0  0  0
  5 11  1  6  0  0  0
  5  4  1  0  0  0  0
  7  2  1  0  0  0  0
 12 17  1  6  0  0  0
 12  5  1  0  0  0  0
 12 16  1  0  0  0  0
 12 13  1  0  0  0  0
 13 14  1  0  0  0  0
 13 18  1  0  0  0  0
 14 20  1  0  0  0  0
 15 16  1  0  0  0  0
 15 14  1  0  0  0  0
 16 23  1  0  0  0  0
 19 13  1  0  0  0  0
 21 14  1  0  0  0  0
 22 16  1  0  0  0  0
 24  1  1  0  0  0  0
 25 24  1  0  0  0  0
 26 24  1  0  0  0  0
 27 28  2  0  0  0  0
 28 24  1  0  0  0  0
 29 30  2  0  0  0  0
 29 34  1  0  0  0  0
 30 31  1  0  0  0  0
 31 32  2  0  0  0  0
 31 39  1  0  0  0  0
 33 32  1  0  0  0  0
 33 27  1  0  0  0  0
 34 33  2  0  0  0  0
 35 29  1  0  0  0  0
 36 30  1  0  0  0  0
 37 38  1  0  0  0  0
 38 45  2  0  0  0  0
 38 39  1  0  0  0  0
 39 40  2  0  0  0  0
 40 42  1  0  0  0  0
 40 41  1  0  0  0  0
 42 43  1  0  0  0  0
 44 42  2  0  0  0  0
 45 44  1  0  0  0  0
M  END
>  <minimizedAffinity>
-5.63924503

$$$$

 OpenBabel03242513253D

 45 48  0  0  1  0  0  0  0  0999 V2000
   36.2960   30.4040   39.3200 C   0  0  2  0  0  0  0  0  0  0  0  0
   35.6080   29.3050   38.5270 C   0  0  0  0  0  0  0  0  0  0  0  0
   36.1680   29.6830   37.1510 C   0  0  0  0  0  0  0  0  0  0  0  0
   37.4780   30.0120   37.3790 O   0  0  0  0  0  0  0  0  0  0  0  0
   37.6400   30.3760   38.6910 C   0  0  1  0  0  0  0  0  0  0  0  0
   35.7100   31.3110   39.1350 H   0  0  0  0  0  0  0  0  0  0  0  0
   35.9000   28.2950   38.8350 H   0  0  0  0  0  0  0  0  0  0  0  0
   34.5110   29.4570   38.5340 H   0  0  0  0  0  0  0  0  0  0  0  0
   36.0310   28.8000   36.4960 H   0  0  0  0  0  0  0  0  0  0  0  0
   35.5480   30.5410   36.8050 H   0  0  0  0  0  0  0  0  0  0  0  0
   38.3090   29.6690   39.1910 H   0  0  0  0  0  0  0  0  0  0  0  0
   38.2970   31.7230   38.7420 C   0  0  1  0  0  0  0  0  0  0  0  0
   37.3230   32.8050   39.1810 C   0  0  0  0  0  0  0  0  0  0  0  0
   38.1730   33.6180   40.1350 C   0  0  0  0  0  0  0  0  0  0  0  0
   39.4890   33.1930   39.9490 O   0  0  0  0  0  0  0  0  0  0  0  0
   39.3170   31.8080   39.8750 C   0  0  0  0  0  0  0  0  0  0  0  0
   38.7980   32.0390   37.8250 H   0  0  0  0  0  0  0  0  0  0  0  0
   36.4230   32.4000   39.6840 H   0  0  0  0  0  0  0  0  0  0  0  0
   37.0510   33.4120   38.2950 H   0  0  0  0  0  0  0  0  0  0  0  0
   37.8830   33.3030   41.1650 H   0  0  0  0  0  0  0  0  0  0  0  0
   38.0550   34.7020   39.9930 H   0  0  0  0  0  0  0  0  0  0  0  0
   40.2390   31.2810   39.6460 H   0  0  0  0  0  0  0  0  0  0  0  0
   38.8450   31.5510   40.8520 H   0  0  0  0  0  0  0  0  0  0  0  0
   36.2880   30.1370   40.7800 C   0  0  0  0  0  0  0  0  0  0  0  0
   35.2240   30.0190   41.1090 H   0  0  0  0  0  0  0  0  0  0  0  0
   36.6970   30.9800   41.3790 H   0  0  0  0  0  0  0  0  0  0  0  0
   38.0150   28.8340   41.9460 C   0  0  0  0  0  3  0  0  0  0  0  0
   36.9660   28.8800   41.1630 C   0  0  0  0  0  3  0  0  0  0  0  0
   39.9880   26.3030   43.6790 C   0  0  0  0  0  0  0  0  0  0  0  0
   39.7840   25.1480   42.8510 C   0  0  0  0  0  0  0  0  0  0  0  0
   38.9720   25.3070   41.7350 C   0  0  0  0  0  0  0  0  0  0  0  0
   38.4260   26.5300   41.4960 N   0  0  0  0  0  0  0  0  0  0  0  0
   38.6380   27.5940   42.2920 C   0  0  0  0  0  0  0  0  0  0  0  0
   39.4050   27.4960   43.3720 N   0  0  0  0  0  0  0  0  0  0  0  0
   40.6000   26.2490   44.5480 H   0  0  0  0  0  0  0  0  0  0  0  0
   40.2410   24.2230   43.0960 H   0  0  0  0  0  0  0  0  0  0  0  0
   40.7840   25.1780   39.4250 Cl  0  0  0  0  0  0  0  0  0  0  0  0
   39.4780   24.0320   39.7110 C   0  0  0  0  0  0  0  0  0  0  0  0
   38.7000   24.2030   40.8320 C   0  0  0  0  0  0  0  0  0  0  0  0
   37.7000   23.2870   41.0080 C   0  0  0  0  0  0  0  0  0  0  0  0
   37.0550   23.3520   41.8510 H   0  0  0  0  0  0  0  0  0  0  0  0
   37.5070   22.2580   40.0910 C   0  0  0  0  0  0  0  0  0  0  0  0
   36.6860   21.5590   40.2950 H   0  0  0  0  0  0  0  0  0  0  0  0
   38.2880   22.1000   38.9810 C   0  0  0  0  0  3  0  0  0  0  0  0
   39.2830   23.0120   38.8080 C   0  0  0  0  0  3  0  0  0  0  0  0
  1  6  1  6  0  0  0
  1 24  1  0  0  0  0
  2  8  1  0  0  0  0
  2  7  1  0  0  0  0
  2  1  1  0  0  0  0
  3  4  1  0  0  0  0
  3  2  1  0  0  0  0
  4  5  1  0  0  0  0
  5 12  1  0  0  0  0
  5 11  1  1  0  0  0
  5  1  1  0  0  0  0
  9  3  1  0  0  0  0
 10  3  1  0  0  0  0
 12 17  1  6  0  0  0
 12 13  1  0  0  0  0
 12 16  1  0  0  0  0
 13 18  1  0  0  0  0
 13 14  1  0  0  0  0
 14 20  1  0  0  0  0
 15 14  1  0  0  0  0
 16 15  1  0  0  0  0
 16 23  1  0  0  0  0
 19 13  1  0  0  0  0
 21 14  1  0  0  0  0
 22 16  1  0  0  0  0
 24 25  1  0  0  0  0
 24 28  1  0  0  0  0
 24 26  1  0  0  0  0
 27 33  1  0  0  0  0
 28 27  2  0  0  0  0
 29 35  1  0  0  0  0
 30 36  1  0  0  0  0
 30 29  2  0  0  0  0
 31 30  1  0  0  0  0
 32 31  2  0  0  0  0
 32 33  1  0  0  0  0
 33 34  2  0  0  0  0
 34 29  1  0  0  0  0
 37 38  1  0  0  0  0
 38 39  1  0  0  0  0
 39 40  2  0  0  0  0
 39 31  1  0  0  0  0
 40 41  1  0  0  0  0
 42 43  1  0  0  0  0
 42 40  1  0  0  0  0
 44 42  2  0  0  0  0
 45 44  1  0  0  0  0
 45 38  2  0  0  0  0
M  END
>  <minimizedAffinity>
-5.55579185

$$$$

 OpenBabel03242513253D

 45 48  0  0  1  0  0  0  0  0999 V2000
   42.1410   32.4890   39.7010 C   0  0  2  0  0  0  0  0  0  0  0  0
   41.4400   33.8360   39.6250 C   0  0  0  0  0  0  0  0  0  0  0  0
   41.8100   34.1610   38.1730 C   0  0  0  0  0  0  0  0  0  0  0  0
   41.6700   32.9780   37.4980 O   0  0  0  0  0  0  0  0  0  0  0  0
   41.7760   31.9300   38.3750 C   0  0  1  0  0  0  0  0  0  0  0  0
   43.2040   32.7180   39.8370 H   0  0  0  0  0  0  0  0  0  0  0  0
   40.3580   33.7740   39.7780 H   0  0  0  0  0  0  0  0  0  0  0  0
   41.9310   34.5610   40.3030 H   0  0  0  0  0  0  0  0  0  0  0  0
   41.1180   34.9590   37.8370 H   0  0  0  0  0  0  0  0  0  0  0  0
   42.8600   34.5300   38.2120 H   0  0  0  0  0  0  0  0  0  0  0  0
   40.8300   31.3820   38.4110 H   0  0  0  0  0  0  0  0  0  0  0  0
   42.8230   30.9820   37.8730 C   0  0  1  0  0  0  0  0  0  0  0  0
   42.4100   30.3340   36.5620 C   0  0  0  0  0  0  0  0  0  0  0  0
   43.7000   30.3830   35.7700 C   0  0  0  0  0  0  0  0  0  0  0  0
   44.7060   30.7150   36.6800 O   0  0  0  0  0  0  0  0  0  0  0  0
   44.0800   31.7220   37.4190 C   0  0  0  0  0  0  0  0  0  0  0  0
   43.1350   30.2070   38.5760 H   0  0  0  0  0  0  0  0  0  0  0  0
   41.5970   30.8810   36.0450 H   0  0  0  0  0  0  0  0  0  0  0  0
   42.1230   29.2830   36.7640 H   0  0  0  0  0  0  0  0  0  0  0  0
   43.6110   31.2480   35.0720 H   0  0  0  0  0  0  0  0  0  0  0  0
   43.9080   29.4470   35.2340 H   0  0  0  0  0  0  0  0  0  0  0  0
   44.6830   32.0690   38.2540 H   0  0  0  0  0  0  0  0  0  0  0  0
   43.8290   32.4920   36.6520 H   0  0  0  0  0  0  0  0  0  0  0  0
   41.6880   31.6810   40.8610 C   0  0  0  0  0  0  0  0  0  0  0  0
   41.5540   32.3680   41.7350 H   0  0  0  0  0  0  0  0  0  0  0  0
   42.4360   30.9240   41.1840 H   0  0  0  0  0  0  0  0  0  0  0  0
   39.4000   31.0850   41.5330 C   0  0  0  0  0  3  0  0  0  0  0  0
   40.3760   31.0280   40.6610 C   0  0  0  0  0  3  0  0  0  0  0  0
   35.8710   30.5090   40.8160 C   0  0  0  0  0  0  0  0  0  0  0  0
   35.7890   29.0760   40.8590 C   0  0  0  0  0  0  0  0  0  0  0  0
   36.9620   28.3850   41.1330 C   0  0  0  0  0  0  0  0  0  0  0  0
   38.1030   29.0950   41.3420 N   0  0  0  0  0  0  0  0  0  0  0  0
   38.1470   30.4390   41.2970 C   0  0  0  0  0  0  0  0  0  0  0  0
   37.0540   31.1490   41.0380 N   0  0  0  0  0  0  0  0  0  0  0  0
   35.0090   31.0980   40.6120 H   0  0  0  0  0  0  0  0  0  0  0  0
   34.8650   28.5860   40.6860 H   0  0  0  0  0  0  0  0  0  0  0  0
   37.0590   27.0710   38.5050 Cl  0  0  0  0  0  0  0  0  0  0  0  0
   37.0340   26.2000   40.0360 C   0  0  0  0  0  0  0  0  0  0  0  0
   36.9880   26.9350   41.1980 C   0  0  0  0  0  0  0  0  0  0  0  0
   36.9710   26.2120   42.3580 C   0  0  0  0  0  0  0  0  0  0  0  0
   36.9350   26.7070   43.2990 H   0  0  0  0  0  0  0  0  0  0  0  0
   36.9970   24.8200   42.3310 C   0  0  0  0  0  0  0  0  0  0  0  0
   36.9810   24.3040   43.2990 H   0  0  0  0  0  0  0  0  0  0  0  0
   37.0420   24.1030   41.1690 C   0  0  0  0  0  3  0  0  0  0  0  0
   37.0600   24.8250   40.0140 C   0  0  0  0  0  3  0  0  0  0  0  0
  1  6  1  1  0  0  0
  1 24  1  0  0  0  0
  2  1  1  0  0  0  0
  2  7  1  0  0  0  0
  2  8  1  0  0  0  0
  3 10  1  0  0  0  0
  3  2  1  0  0  0  0
  4  3  1  0  0  0  0
  4  5  1  0  0  0  0
  5 11  1  1  0  0  0
  5  1  1  0  0  0  0
  9  3  1  0  0  0  0
 12  5  1  0  0  0  0
 12 17  1  1  0  0  0
 13 19  1  0  0  0  0
 13 12  1  0  0  0  0
 14 13  1  0  0  0  0
 14 15  1  0  0  0  0
 15 16  1  0  0  0  0
 16 12  1  0  0  0  0
 16 22  1  0  0  0  0
 18 13  1  0  0  0  0
 20 14  1  0  0  0  0
 21 14  1  0  0  0  0
 23 16  1  0  0  0  0
 24 26  1  0  0  0  0
 24 25  1  0  0  0  0
 28 24  1  0  0  0  0
 28 27  2  0  0  0  0
 29 30  2  0  0  0  0
 29 34  1  0  0  0  0
 30 31  1  0  0  0  0
 31 39  1  0  0  0  0
 31 32  2  0  0  0  0
 33 32  1  0  0  0  0
 33 27  1  0  0  0  0
 34 33  2  0  0  0  0
 35 29  1  0  0  0  0
 36 30  1  0  0  0  0
 37 38  1  0  0  0  0
 38 39  1  0  0  0  0
 39 40  2  0  0  0  0
 40 41  1  0  0  0  0
 42 40  1  0  0  0  0
 42 43  1  0  0  0  0
 44 42  2  0  0  0  0
 45 38  2  0  0  0  0
 45 44  1  0  0  0  0
M  END
>  <minimizedAffinity>
-5.45370007

$$$$
