
 OpenBabel03242520063D

 46 50  0  0  1  0  0  0  0  0999 V2000
   37.9450   29.2940   40.0720 N   0  0  0  0  0  0  0  0  0  0  0  0
   38.1080   30.4390   39.2470 C   0  0  1  0  0  0  0  0  0  0  0  0
   36.8150   31.1840   39.1690 C   0  0  0  0  0  0  0  0  0  0  0  0
   36.5750   31.6740   40.5110 N   0  0  0  0  0  0  0  0  0  0  0  0
   36.3140   30.5970   41.4290 C   0  0  0  0  0  0  0  0  0  0  0  0
   37.1890   29.3940   41.2560 C   0  0  2  0  0  0  0  0  0  0  0  0
   37.7800   28.4570   39.4690 H   0  0  0  0  0  0  0  0  0  0  0  0
   38.4020   30.1370   38.2390 H   0  0  0  0  0  0  0  0  0  0  0  0
   36.0230   30.5070   38.8330 H   0  0  0  0  0  0  0  0  0  0  0  0
   36.8820   32.0550   38.4850 H   0  0  0  0  0  0  0  0  0  0  0  0
   37.4180   32.1990   40.8320 H   0  0  0  0  0  0  0  0  0  0  0  0
   35.2240   30.4020   41.3590 H   0  0  0  0  0  0  0  0  0  0  0  0
   36.4260   31.0660   42.4510 H   0  0  0  0  0  0  0  0  0  0  0  0
   36.4640   28.5350   41.1900 H   0  0  0  0  0  0  0  0  0  0  0  0
   40.8220   32.0290   40.8920 C   0  0  0  0  0  0  0  0  0  0  0  0
   40.3580   33.0770   40.1110 C   0  0  0  0  0  0  0  0  0  0  0  0
   39.2930   32.6360   39.3990 C   0  0  0  0  0  0  0  0  0  0  0  0
   39.1090   31.3450   39.7370 N   0  0  0  0  0  0  0  0  0  0  0  0
   40.0250   31.0070   40.6220 N   0  0  0  0  0  0  0  0  0  0  0  0
   40.8150   34.0630   40.1160 H   0  0  0  0  0  0  0  0  0  0  0  0
   38.7150   33.2280   38.6970 H   0  0  0  0  0  0  0  0  0  0  0  0
   43.9500   33.0230   42.5570 C   0  0  0  0  0  0  0  0  0  0  0  0
   44.0600   32.0710   43.5830 C   0  0  0  0  0  0  0  0  0  0  0  0
   43.0610   31.1130   43.6800 C   0  0  0  0  0  0  0  0  0  0  0  0
   42.0420   31.1420   42.7920 N   0  0  0  0  0  0  0  0  0  0  0  0
   41.9650   32.0660   41.8170 C   0  0  0  0  0  0  0  0  0  0  0  0
   42.9140   33.0140   41.6880 N   0  0  0  0  0  0  0  0  0  0  0  0
   44.6790   33.8130   42.3960 H   0  0  0  0  0  0  0  0  0  0  0  0
   44.9150   32.1370   44.2420 H   0  0  0  0  0  0  0  0  0  0  0  0
   43.1300   30.3780   44.4610 H   0  0  0  0  0  0  0  0  0  0  0  0
   38.0320   29.2560   42.5100 C   0  0  1  0  0  0  0  0  0  0  0  0
   37.3240   28.5640   43.6750 C   0  0  0  0  0  0  0  0  0  0  0  0
   38.5190   27.9780   43.0140 C   0  0  1  0  0  0  0  0  0  0  0  0
   38.6540   30.1600   42.7840 H   0  0  0  0  0  0  0  0  0  0  0  0
   36.2950   28.2680   43.5130 H   0  0  0  0  0  0  0  0  0  0  0  0
   37.4480   29.0910   44.6680 H   0  0  0  0  0  0  0  0  0  0  0  0
   39.4670   27.9790   43.6090 H   0  0  0  0  0  0  0  0  0  0  0  0
   40.6990   26.9020   41.0890 Cl  0  0  0  0  0  0  0  0  0  0  0  0
   39.1900   26.0990   41.4660 C   0  0  0  0  0  0  0  0  0  0  0  0
   38.3070   26.6670   42.3590 C   0  0  0  0  0  0  0  0  0  0  0  0
   37.1940   25.8750   42.5490 C   0  0  0  0  0  0  0  0  0  0  0  0
   36.4030   26.1730   43.2200 H   0  0  0  0  0  0  0  0  0  0  0  0
   36.9500   24.6650   41.9470 C   0  0  0  0  0  0  0  0  0  0  0  0
   36.0630   24.0720   42.1220 H   0  0  0  0  0  0  0  0  0  0  0  0
   37.8810   24.1640   41.0630 C   0  0  0  0  0  3  0  0  0  0  0  0
   39.0210   24.8950   40.8190 C   0  0  0  0  0  3  0  0  0  0  0  0
  1  6  1  0  0  0  0
  2  8  1  6  0  0  0
  2 18  1  0  0  0  0
  2  1  1  0  0  0  0
  3  2  1  0  0  0  0
  3  4  1  0  0  0  0
  4 11  1  0  0  0  0
  4  5  1  0  0  0  0
  5 13  1  0  0  0  0
  6 14  1  6  0  0  0
  6  5  1  0  0  0  0
  6 31  1  0  0  0  0
  7  1  1  0  0  0  0
  9  3  1  0  0  0  0
 10  3  1  0  0  0  0
 12  5  1  0  0  0  0
 15 26  1  0  0  0  0
 16 20  1  0  0  0  0
 16 15  1  0  0  0  0
 17 18  1  0  0  0  0
 17 16  2  0  0  0  0
 18 19  1  0  0  0  0
 19 15  2  0  0  0  0
 21 17  1  0  0  0  0
 22 23  1  0  0  0  0
 23 24  2  0  0  0  0
 23 29  1  0  0  0  0
 24 30  1  0  0  0  0
 25 24  1  0  0  0  0
 26 25  2  0  0  0  0
 27 26  1  0  0  0  0
 27 22  2  0  0  0  0
 28 22  1  0  0  0  0
 31 34  1  1  0  0  0
 31 33  1  0  0  0  0
 31 32  1  0  0  0  0
 32 36  1  0  0  0  0
 33 37  1  1  0  0  0
 33 32  1  0  0  0  0
 35 32  1  0  0  0  0
 38 39  1  0  0  0  0
 39 40  1  0  0  0  0
 40 41  2  0  0  0  0
 40 33  1  0  0  0  0
 41 42  1  0  0  0  0
 43 44  1  0  0  0  0
 43 41  1  0  0  0  0
 45 43  2  0  0  0  0
 46 45  1  0  0  0  0
 46 39  2  0  0  0  0
M  END
>  <minimizedAffinity>
-6.28969717

$$$$

 OpenBabel03242520063D

 46 50  0  0  1  0  0  0  0  0999 V2000
   37.5600   28.2210   40.1670 N   0  0  0  0  0  0  0  0  0  0  0  0
   38.0720   29.0120   39.1040 C   0  0  1  0  0  0  0  0  0  0  0  0
   37.1330   30.1410   38.8270 C   0  0  0  0  0  0  0  0  0  0  0  0
   37.1740   30.9710   40.0140 N   0  0  0  0  0  0  0  0  0  0  0  0
   36.6010   30.2980   41.1500 C   0  0  0  0  0  0  0  0  0  0  0  0
   36.9690   28.8520   41.2790 C   0  0  2  0  0  0  0  0  0  0  0  0
   37.0660   27.3910   39.7700 H   0  0  0  0  0  0  0  0  0  0  0  0
   38.1720   28.4070   38.2000 H   0  0  0  0  0  0  0  0  0  0  0  0
   36.1310   29.7450   38.6380 H   0  0  0  0  0  0  0  0  0  0  0  0
   37.4660   30.7520   37.9620 H   0  0  0  0  0  0  0  0  0  0  0  0
   38.1680   31.2080   40.2240 H   0  0  0  0  0  0  0  0  0  0  0  0
   35.5120   30.5060   41.1020 H   0  0  0  0  0  0  0  0  0  0  0  0
   36.9410   30.9080   42.0390 H   0  0  0  0  0  0  0  0  0  0  0  0
   35.9800   28.3270   41.3960 H   0  0  0  0  0  0  0  0  0  0  0  0
   41.0470   30.9430   39.2520 C   0  0  0  0  0  0  0  0  0  0  0  0
   41.3290   29.9820   40.2110 C   0  0  0  0  0  0  0  0  0  0  0  0
   40.2720   29.1370   40.2870 C   0  0  0  0  0  0  0  0  0  0  0  0
   39.3630   29.5730   39.3940 N   0  0  0  0  0  0  0  0  0  0  0  0
   39.8420   30.6420   38.7920 N   0  0  0  0  0  0  0  0  0  0  0  0
   42.2590   29.9630   40.7710 H   0  0  0  0  0  0  0  0  0  0  0  0
   40.1960   28.2800   40.9490 H   0  0  0  0  0  0  0  0  0  0  0  0
   43.9390   33.2000   38.9570 C   0  0  0  0  0  0  0  0  0  0  0  0
   43.4790   34.1610   38.0430 C   0  0  0  0  0  0  0  0  0  0  0  0
   42.1900   34.0130   37.5500 C   0  0  0  0  0  0  0  0  0  0  0  0
   41.4490   32.9630   37.9690 N   0  0  0  0  0  0  0  0  0  0  0  0
   41.9170   32.0580   38.8480 C   0  0  0  0  0  0  0  0  0  0  0  0
   43.1630   32.1650   39.3510 N   0  0  0  0  0  0  0  0  0  0  0  0
   44.9310   33.2270   39.4010 H   0  0  0  0  0  0  0  0  0  0  0  0
   44.1510   34.9630   37.7710 H   0  0  0  0  0  0  0  0  0  0  0  0
   41.8230   34.7400   36.8480 H   0  0  0  0  0  0  0  0  0  0  0  0
   37.7840   28.6980   42.5490 C   0  0  1  0  0  0  0  0  0  0  0  0
   37.0610   27.9660   43.6800 C   0  0  0  0  0  0  0  0  0  0  0  0
   38.2810   27.4170   43.0350 C   0  0  1  0  0  0  0  0  0  0  0  0
   38.3840   29.6060   42.8590 H   0  0  0  0  0  0  0  0  0  0  0  0
   36.0410   27.6570   43.4870 H   0  0  0  0  0  0  0  0  0  0  0  0
   37.1520   28.4710   44.6880 H   0  0  0  0  0  0  0  0  0  0  0  0
   39.2150   27.4190   43.6510 H   0  0  0  0  0  0  0  0  0  0  0  0
   40.7850   25.9880   41.8920 Cl  0  0  0  0  0  0  0  0  0  0  0  0
   39.1390   25.4040   41.7730 C   0  0  0  0  0  0  0  0  0  0  0  0
   38.1070   26.1180   42.3440 C   0  0  0  0  0  0  0  0  0  0  0  0
   36.8940   25.4860   42.1730 C   0  0  0  0  0  0  0  0  0  0  0  0
   35.9810   25.9110   42.5610 H   0  0  0  0  0  0  0  0  0  0  0  0
   36.6880   24.2940   41.5220 C   0  0  0  0  0  0  0  0  0  0  0  0
   35.7180   23.8290   41.4080 H   0  0  0  0  0  0  0  0  0  0  0  0
   37.7710   23.6400   40.9750 C   0  0  0  0  0  3  0  0  0  0  0  0
   39.0180   24.2060   41.1040 C   0  0  0  0  0  3  0  0  0  0  0  0
  1  6  1  0  0  0  0
  2  8  1  6  0  0  0
  2 18  1  0  0  0  0
  2  1  1  0  0  0  0
  3  2  1  0  0  0  0
  3  4  1  0  0  0  0
  4 11  1  0  0  0  0
  4  5  1  0  0  0  0
  5  6  1  0  0  0  0
  5 13  1  0  0  0  0
  6 14  1  1  0  0  0
  6 31  1  0  0  0  0
  7  1  1  0  0  0  0
  9  3  1  0  0  0  0
 10  3  1  0  0  0  0
 12  5  1  0  0  0  0
 15 16  1  0  0  0  0
 16 17  2  0  0  0  0
 16 20  1  0  0  0  0
 17 21  1  0  0  0  0
 18 17  1  0  0  0  0
 19 15  2  0  0  0  0
 19 18  1  0  0  0  0
 22 27  1  0  0  0  0
 22 28  1  0  0  0  0
 23 22  2  0  0  0  0
 24 25  2  0  0  0  0
 24 23  1  0  0  0  0
 25 26  1  0  0  0  0
 26 15  1  0  0  0  0
 26 27  2  0  0  0  0
 29 23  1  0  0  0  0
 30 24  1  0  0  0  0
 31 34  1  1  0  0  0
 31 33  1  0  0  0  0
 31 32  1  0  0  0  0
 32 36  1  0  0  0  0
 33 37  1  1  0  0  0
 33 32  1  0  0  0  0
 35 32  1  0  0  0  0
 39 38  1  0  0  0  0
 39 40  1  0  0  0  0
 40 33  1  0  0  0  0
 41 40  2  0  0  0  0
 41 42  1  0  0  0  0
 43 41  1  0  0  0  0
 44 43  1  0  0  0  0
 45 46  1  0  0  0  0
 45 43  2  0  0  0  0
 46 39  2  0  0  0  0
M  END
>  <minimizedAffinity>
-5.86644697

$$$$

 OpenBabel03242520063D

 46 50  0  0  1  0  0  0  0  0999 V2000
   38.6690   29.0770   38.8910 N   0  0  0  0  0  0  0  0  0  0  0  0
   38.8890   30.0150   37.8470 C   0  0  1  0  0  0  0  0  0  0  0  0
   37.5900   30.6470   37.4640 C   0  0  0  0  0  0  0  0  0  0  0  0
   37.1820   31.4120   38.6250 N   0  0  0  0  0  0  0  0  0  0  0  0
   36.8510   30.5560   39.7340 C   0  0  0  0  0  0  0  0  0  0  0  0
   37.7790   29.3960   39.9340 C   0  0  2  0  0  0  0  0  0  0  0  0
   38.6020   28.1180   38.4820 H   0  0  0  0  0  0  0  0  0  0  0  0
   39.3070   29.5120   36.9720 H   0  0  0  0  0  0  0  0  0  0  0  0
   36.8650   29.8680   37.2120 H   0  0  0  0  0  0  0  0  0  0  0  0
   37.7070   31.3450   36.6100 H   0  0  0  0  0  0  0  0  0  0  0  0
   37.9650   32.0430   38.9040 H   0  0  0  0  0  0  0  0  0  0  0  0
   35.7840   30.2880   39.5960 H   0  0  0  0  0  0  0  0  0  0  0  0
   36.8300   31.2470   40.6270 H   0  0  0  0  0  0  0  0  0  0  0  0
   37.0940   28.5050   39.9910 H   0  0  0  0  0  0  0  0  0  0  0  0
   41.2270   32.1580   39.4390 C   0  0  0  0  0  0  0  0  0  0  0  0
   41.0210   32.8530   38.2570 C   0  0  0  0  0  0  0  0  0  0  0  0
   40.1300   32.1600   37.5080 C   0  0  0  0  0  0  0  0  0  0  0  0
   39.7980   31.0630   38.2180 N   0  0  0  0  0  0  0  0  0  0  0  0
   40.4590   31.0830   39.3570 N   0  0  0  0  0  0  0  0  0  0  0  0
   41.5200   33.7910   38.0290 H   0  0  0  0  0  0  0  0  0  0  0  0
   39.7680   32.4510   36.5270 H   0  0  0  0  0  0  0  0  0  0  0  0
   43.0100   32.1990   42.6590 C   0  0  0  0  0  0  0  0  0  0  0  0
   43.8170   33.3430   42.5410 C   0  0  0  0  0  0  0  0  0  0  0  0
   43.7290   34.0710   41.3640 C   0  0  0  0  0  0  0  0  0  0  0  0
   42.8830   33.6500   40.3980 N   0  0  0  0  0  0  0  0  0  0  0  0
   42.1210   32.5500   40.5400 C   0  0  0  0  0  0  0  0  0  0  0  0
   42.1750   31.8140   41.6670 N   0  0  0  0  0  0  0  0  0  0  0  0
   43.0050   31.5620   43.5390 H   0  0  0  0  0  0  0  0  0  0  0  0
   44.4610   33.5930   43.3730 H   0  0  0  0  0  0  0  0  0  0  0  0
   44.3410   34.9490   41.2580 H   0  0  0  0  0  0  0  0  0  0  0  0
   38.4760   29.5920   41.2680 C   0  0  1  0  0  0  0  0  0  0  0  0
   37.5780   29.3820   42.4870 C   0  0  0  0  0  0  0  0  0  0  0  0
   38.7430   28.5060   42.2010 C   0  0  1  0  0  0  0  0  0  0  0  0
   39.1820   30.4740   41.3260 H   0  0  0  0  0  0  0  0  0  0  0  0
   36.5390   29.1480   42.2930 H   0  0  0  0  0  0  0  0  0  0  0  0
   37.6760   30.1880   43.2760 H   0  0  0  0  0  0  0  0  0  0  0  0
   39.6240   28.6090   42.8840 H   0  0  0  0  0  0  0  0  0  0  0  0
   36.2840   27.2680   43.6290 Cl  0  0  0  0  0  0  0  0  0  0  0  0
   37.3750   26.4130   42.5610 C   0  0  0  0  0  0  0  0  0  0  0  0
   38.4240   27.0790   41.9630 C   0  0  0  0  0  0  0  0  0  0  0  0
   39.1510   26.2490   41.1360 C   0  0  0  0  0  0  0  0  0  0  0  0
   40.0060   26.6140   40.5890 H   0  0  0  0  0  0  0  0  0  0  0  0
   38.9010   24.9180   40.9040 C   0  0  0  0  0  0  0  0  0  0  0  0
   39.4950   24.2990   40.2460 H   0  0  0  0  0  0  0  0  0  0  0  0
   37.8340   24.3230   41.5410 C   0  0  0  0  0  3  0  0  0  0  0  0
   37.0590   25.0840   42.3830 C   0  0  0  0  0  3  0  0  0  0  0  0
  1  6  1  0  0  0  0
  2  8  1  6  0  0  0
  2 18  1  0  0  0  0
  2  1  1  0  0  0  0
  3  2  1  0  0  0  0
  3  4  1  0  0  0  0
  4 11  1  0  0  0  0
  4  5  1  0  0  0  0
  5  6  1  0  0  0  0
  5 13  1  0  0  0  0
  6 14  1  1  0  0  0
  6 31  1  0  0  0  0
  7  1  1  0  0  0  0
  9  3  1  0  0  0  0
 10  3  1  0  0  0  0
 12  5  1  0  0  0  0
 15 26  1  0  0  0  0
 16 15  1  0  0  0  0
 17 18  1  0  0  0  0
 17 16  2  0  0  0  0
 18 19  1  0  0  0  0
 19 15  2  0  0  0  0
 20 16  1  0  0  0  0
 21 17  1  0  0  0  0
 22 28  1  0  0  0  0
 23 22  1  0  0  0  0
 23 29  1  0  0  0  0
 24 23  2  0  0  0  0
 25 26  2  0  0  0  0
 25 24  1  0  0  0  0
 26 27  1  0  0  0  0
 27 22  2  0  0  0  0
 30 24  1  0  0  0  0
 31 34  1  1  0  0  0
 31 33  1  0  0  0  0
 31 32  1  0  0  0  0
 32 36  1  0  0  0  0
 33 32  1  0  0  0  0
 33 37  1  1  0  0  0
 35 32  1  0  0  0  0
 39 38  1  0  0  0  0
 40 33  1  0  0  0  0
 40 39  2  0  0  0  0
 41 40  1  0  0  0  0
 42 41  1  0  0  0  0
 43 41  2  0  0  0  0
 43 45  1  0  0  0  0
 44 43  1  0  0  0  0
 45 46  2  0  0  0  0
 46 39  1  0  0  0  0
M  END
>  <minimizedAffinity>
-5.75923538

$$$$

 OpenBabel03242520063D

 46 50  0  0  1  0  0  0  0  0999 V2000
   37.0840   26.8930   41.6740 N   0  0  0  0  0  0  0  0  0  0  0  0
   36.6630   28.0400   42.3990 C   0  0  1  0  0  0  0  0  0  0  0  0
   37.4280   28.1270   43.6800 C   0  0  0  0  0  0  0  0  0  0  0  0
   38.8020   28.3700   43.2870 N   0  0  0  0  0  0  0  0  0  0  0  0
   39.3670   27.2340   42.6090 C   0  0  0  0  0  0  0  0  0  0  0  0
   38.4530   26.5660   41.6270 C   0  0  2  0  0  0  0  0  0  0  0  0
   36.4120   26.1120   41.8460 H   0  0  0  0  0  0  0  0  0  0  0  0
   35.5970   27.9680   42.6290 H   0  0  0  0  0  0  0  0  0  0  0  0
   37.3200   27.1910   44.2350 H   0  0  0  0  0  0  0  0  0  0  0  0
   37.0880   28.9780   44.3050 H   0  0  0  0  0  0  0  0  0  0  0  0
   38.8280   29.1960   42.6500 H   0  0  0  0  0  0  0  0  0  0  0  0
   39.7630   26.5760   43.4090 H   0  0  0  0  0  0  0  0  0  0  0  0
   40.3020   27.6360   42.1180 H   0  0  0  0  0  0  0  0  0  0  0  0
   38.4840   25.4790   41.9210 H   0  0  0  0  0  0  0  0  0  0  0  0
   37.9070   31.0380   40.9640 C   0  0  0  0  0  0  0  0  0  0  0  0
   36.6370   31.0070   40.4080 C   0  0  0  0  0  0  0  0  0  0  0  0
   36.0030   29.8990   40.8620 C   0  0  0  0  0  0  0  0  0  0  0  0
   36.8680   29.2650   41.6780 N   0  0  0  0  0  0  0  0  0  0  0  0
   37.9880   29.9570   41.7240 N   0  0  0  0  0  0  0  0  0  0  0  0
   36.2710   31.7730   39.7310 H   0  0  0  0  0  0  0  0  0  0  0  0
   34.9920   29.6000   40.6030 H   0  0  0  0  0  0  0  0  0  0  0  0
   39.5800   34.1610   39.9660 C   0  0  0  0  0  0  0  0  0  0  0  0
   40.9080   33.9300   40.3600 C   0  0  0  0  0  0  0  0  0  0  0  0
   41.1970   32.7120   40.9560 C   0  0  0  0  0  0  0  0  0  0  0  0
   40.1990   31.8160   41.1280 N   0  0  0  0  0  0  0  0  0  0  0  0
   38.9350   32.0660   40.7390 C   0  0  0  0  0  0  0  0  0  0  0  0
   38.6110   33.2360   40.1550 N   0  0  0  0  0  0  0  0  0  0  0  0
   39.2510   35.0820   39.4910 H   0  0  0  0  0  0  0  0  0  0  0  0
   41.6310   34.7130   40.1780 H   0  0  0  0  0  0  0  0  0  0  0  0
   42.2090   32.5200   41.2650 H   0  0  0  0  0  0  0  0  0  0  0  0
   39.0570   26.7400   40.2470 C   0  0  1  0  0  0  0  0  0  0  0  0
   40.0040   25.6170   39.8240 C   0  0  0  0  0  0  0  0  0  0  0  0
   38.7280   25.8870   39.1120 C   0  0  1  0  0  0  0  0  0  0  0  0
   39.3960   27.7890   39.9890 H   0  0  0  0  0  0  0  0  0  0  0  0
   40.1800   24.8300   40.5460 H   0  0  0  0  0  0  0  0  0  0  0  0
   40.9750   25.9800   39.3690 H   0  0  0  0  0  0  0  0  0  0  0  0
   38.8130   26.3260   38.0870 H   0  0  0  0  0  0  0  0  0  0  0  0
   35.7860   26.5020   38.3520 Cl  0  0  0  0  0  0  0  0  0  0  0  0
   36.4020   24.9390   38.8430 C   0  0  0  0  0  0  0  0  0  0  0  0
   37.7410   24.7830   39.1340 C   0  0  0  0  0  0  0  0  0  0  0  0
   38.0410   23.4790   39.4700 C   0  0  0  0  0  0  0  0  0  0  0  0
   39.0470   23.1840   39.7250 H   0  0  0  0  0  0  0  0  0  0  0  0
   37.1520   22.4330   39.5220 C   0  0  0  0  0  0  0  0  0  0  0  0
   37.4270   21.4220   39.7900 H   0  0  0  0  0  0  0  0  0  0  0  0
   35.8290   22.6700   39.2190 C   0  0  0  0  0  3  0  0  0  0  0  0
   35.4490   23.9460   38.8730 C   0  0  0  0  0  3  0  0  0  0  0  0
  1  7  1  0  0  0  0
  1  2  1  0  0  0  0
  2  8  1  1  0  0  0
  2  3  1  0  0  0  0
  3  9  1  0  0  0  0
  3 10  1  0  0  0  0
  4  3  1  0  0  0  0
  5  4  1  0  0  0  0
  5 12  1  0  0  0  0
  6  1  1  0  0  0  0
  6 14  1  1  0  0  0
  6  5  1  0  0  0  0
 11  4  1  0  0  0  0
 13  5  1  0  0  0  0
 15 19  2  0  0  0  0
 16 17  2  0  0  0  0
 16 15  1  0  0  0  0
 17 18  1  0  0  0  0
 18 19  1  0  0  0  0
 18  2  1  0  0  0  0
 20 16  1  0  0  0  0
 21 17  1  0  0  0  0
 22 27  2  0  0  0  0
 22 23  1  0  0  0  0
 23 24  2  0  0  0  0
 24 25  1  0  0  0  0
 24 30  1  0  0  0  0
 26 15  1  0  0  0  0
 26 25  2  0  0  0  0
 27 26  1  0  0  0  0
 28 22  1  0  0  0  0
 29 23  1  0  0  0  0
 31 34  1  6  0  0  0
 31  6  1  0  0  0  0
 32 31  1  0  0  0  0
 32 35  1  0  0  0  0
 33 37  1  6  0  0  0
 33 40  1  0  0  0  0
 33 32  1  0  0  0  0
 33 31  1  0  0  0  0
 36 32  1  0  0  0  0
 38 39  1  0  0  0  0
 39 46  2  0  0  0  0
 39 40  1  0  0  0  0
 40 41  2  0  0  0  0
 41 43  1  0  0  0  0
 41 42  1  0  0  0  0
 43 44  1  0  0  0  0
 45 43  2  0  0  0  0
 46 45  1  0  0  0  0
M  END
>  <minimizedAffinity>
-5.6312933

$$$$

 OpenBabel03242520063D

 46 50  0  0  1  0  0  0  0  0999 V2000
   39.3040   28.5760   41.4370 N   0  0  0  0  0  0  0  0  0  0  0  0
   39.5350   27.3010   42.0190 C   0  0  1  0  0  0  0  0  0  0  0  0
   39.3390   27.3860   43.4980 C   0  0  0  0  0  0  0  0  0  0  0  0
   37.9300   27.6720   43.6790 N   0  0  0  0  0  0  0  0  0  0  0  0
   37.5900   28.9840   43.1960 C   0  0  0  0  0  0  0  0  0  0  0  0
   38.2320   29.3650   41.8970 C   0  0  2  0  0  0  0  0  0  0  0  0
   40.2200   29.0550   41.2850 H   0  0  0  0  0  0  0  0  0  0  0  0
   40.5580   26.9760   41.8170 H   0  0  0  0  0  0  0  0  0  0  0  0
   39.9730   28.1780   43.9050 H   0  0  0  0  0  0  0  0  0  0  0  0
   39.5670   26.4230   44.0000 H   0  0  0  0  0  0  0  0  0  0  0  0
   37.3720   26.9610   43.1570 H   0  0  0  0  0  0  0  0  0  0  0  0
   37.7890   29.6750   44.0410 H   0  0  0  0  0  0  0  0  0  0  0  0
   36.4620   28.9760   43.1300 H   0  0  0  0  0  0  0  0  0  0  0  0
   38.7010   30.3670   42.1070 H   0  0  0  0  0  0  0  0  0  0  0  0
   37.1440   25.3740   40.2380 C   0  0  0  0  0  0  0  0  0  0  0  0
   37.5630   24.4420   41.1750 C   0  0  0  0  0  0  0  0  0  0  0  0
   38.5010   25.0250   41.9610 C   0  0  0  0  0  0  0  0  0  0  0  0
   38.6520   26.2860   41.5140 N   0  0  0  0  0  0  0  0  0  0  0  0
   37.8390   26.4710   40.4940 N   0  0  0  0  0  0  0  0  0  0  0  0
   37.1670   23.4320   41.2200 H   0  0  0  0  0  0  0  0  0  0  0  0
   39.0170   24.5450   42.7870 H   0  0  0  0  0  0  0  0  0  0  0  0
   34.6120   23.8090   38.0740 C   0  0  0  0  0  0  0  0  0  0  0  0
   34.2730   24.8560   37.2010 C   0  0  0  0  0  0  0  0  0  0  0  0
   34.9210   26.0700   37.3740 C   0  0  0  0  0  0  0  0  0  0  0  0
   35.8350   26.1870   38.3640 N   0  0  0  0  0  0  0  0  0  0  0  0
   36.1390   25.1640   39.1850 C   0  0  0  0  0  0  0  0  0  0  0  0
   35.5340   23.9680   39.0500 N   0  0  0  0  0  0  0  0  0  0  0  0
   34.1630   22.8210   38.0210 H   0  0  0  0  0  0  0  0  0  0  0  0
   33.5280   24.6590   36.4430 H   0  0  0  0  0  0  0  0  0  0  0  0
   34.6720   26.8820   36.7150 H   0  0  0  0  0  0  0  0  0  0  0  0
   37.1280   29.5230   40.8690 C   0  0  1  0  0  0  0  0  0  0  0  0
   36.2100   30.7220   41.1060 C   0  0  0  0  0  0  0  0  0  0  0  0
   37.0780   30.6150   39.9060 C   0  0  1  0  0  0  0  0  0  0  0  0
   36.6130   28.5670   40.5530 H   0  0  0  0  0  0  0  0  0  0  0  0
   36.4070   31.3200   41.9870 H   0  0  0  0  0  0  0  0  0  0  0  0
   35.1080   30.4840   41.0100 H   0  0  0  0  0  0  0  0  0  0  0  0
   36.5610   30.4290   38.9310 H   0  0  0  0  0  0  0  0  0  0  0  0
   39.5870   30.0430   38.1750 Cl  0  0  0  0  0  0  0  0  0  0  0  0
   39.2710   31.5290   39.0450 C   0  0  0  0  0  0  0  0  0  0  0  0
   38.1030   31.6750   39.7650 C   0  0  0  0  0  0  0  0  0  0  0  0
   38.0200   32.9190   40.3530 C   0  0  0  0  0  0  0  0  0  0  0  0
   37.1670   33.1990   40.9520 H   0  0  0  0  0  0  0  0  0  0  0  0
   38.9570   33.9200   40.2640 C   0  0  0  0  0  0  0  0  0  0  0  0
   38.8550   34.8850   40.7420 H   0  0  0  0  0  0  0  0  0  0  0  0
   40.1000   33.6960   39.5280 C   0  0  0  0  0  3  0  0  0  0  0  0
   40.2580   32.4790   38.9080 C   0  0  0  0  0  3  0  0  0  0  0  0
  1  6  1  0  0  0  0
  1  2  1  0  0  0  0
  2  8  1  6  0  0  0
  2  3  1  0  0  0  0
  3  4  1  0  0  0  0
  3  9  1  0  0  0  0
  3 10  1  0  0  0  0
  5  4  1  0  0  0  0
  5 12  1  0  0  0  0
  6 14  1  1  0  0  0
  6  5  1  0  0  0  0
  7  1  1  0  0  0  0
 11  4  1  0  0  0  0
 13  5  1  0  0  0  0
 15 19  2  0  0  0  0
 15 16  1  0  0  0  0
 16 20  1  0  0  0  0
 16 17  2  0  0  0  0
 17 21  1  0  0  0  0
 18 17  1  0  0  0  0
 18  2  1  0  0  0  0
 19 18  1  0  0  0  0
 22 27  1  0  0  0  0
 23 24  1  0  0  0  0
 23 22  2  0  0  0  0
 24 25  2  0  0  0  0
 25 26  1  0  0  0  0
 26 15  1  0  0  0  0
 27 26  2  0  0  0  0
 28 22  1  0  0  0  0
 29 23  1  0  0  0  0
 30 24  1  0  0  0  0
 31 34  1  6  0  0  0
 31 32  1  0  0  0  0
 31  6  1  0  0  0  0
 32 35  1  0  0  0  0
 33 37  1  6  0  0  0
 33 31  1  0  0  0  0
 33 32  1  0  0  0  0
 36 32  1  0  0  0  0
 38 39  1  0  0  0  0
 39 40  1  0  0  0  0
 40 33  1  0  0  0  0
 40 41  2  0  0  0  0
 41 42  1  0  0  0  0
 43 41  1  0  0  0  0
 43 44  1  0  0  0  0
 45 43  2  0  0  0  0
 46 39  2  0  0  0  0
 46 45  1  0  0  0  0
M  END
>  <minimizedAffinity>
-5.63117123

$$$$

 OpenBabel03242520063D

 46 50  0  0  1  0  0  0  0  0999 V2000
   38.4830   27.3810   40.4790 N   0  0  0  0  0  0  0  0  0  0  0  0
   38.9490   26.1680   41.0530 C   0  0  1  0  0  0  0  0  0  0  0  0
   38.9380   26.2860   42.5420 C   0  0  0  0  0  0  0  0  0  0  0  0
   37.5410   26.4020   42.9060 N   0  0  0  0  0  0  0  0  0  0  0  0
   36.9750   27.6430   42.4440 C   0  0  0  0  0  0  0  0  0  0  0  0
   37.3890   28.0490   41.0620 C   0  0  2  0  0  0  0  0  0  0  0  0
   39.3020   27.9630   40.1950 H   0  0  0  0  0  0  0  0  0  0  0  0
   39.9700   25.9640   40.7230 H   0  0  0  0  0  0  0  0  0  0  0  0
   39.5140   27.1660   42.8430 H   0  0  0  0  0  0  0  0  0  0  0  0
   39.3520   25.3790   43.0310 H   0  0  0  0  0  0  0  0  0  0  0  0
   37.0150   25.6080   42.4790 H   0  0  0  0  0  0  0  0  0  0  0  0
   37.1930   28.3850   43.2390 H   0  0  0  0  0  0  0  0  0  0  0  0
   35.8580   27.4920   42.5300 H   0  0  0  0  0  0  0  0  0  0  0  0
   37.7490   29.1080   41.1850 H   0  0  0  0  0  0  0  0  0  0  0  0
   36.4800   23.9300   39.8310 C   0  0  0  0  0  0  0  0  0  0  0  0
   37.3580   23.0310   40.4190 C   0  0  0  0  0  0  0  0  0  0  0  0
   38.3870   23.7330   40.9520 C   0  0  0  0  0  0  0  0  0  0  0  0
   38.1450   25.0330   40.6940 N   0  0  0  0  0  0  0  0  0  0  0  0
   37.0110   25.1260   40.0300 N   0  0  0  0  0  0  0  0  0  0  0  0
   37.1910   21.9580   40.4200 H   0  0  0  0  0  0  0  0  0  0  0  0
   39.2340   23.3070   41.4810 H   0  0  0  0  0  0  0  0  0  0  0  0
   33.8550   23.7160   37.2600 C   0  0  0  0  0  0  0  0  0  0  0  0
   32.8750   22.9360   37.8950 C   0  0  0  0  0  0  0  0  0  0  0  0
   33.1360   22.5040   39.1870 C   0  0  0  0  0  0  0  0  0  0  0  0
   34.3090   22.8490   39.7650 N   0  0  0  0  0  0  0  0  0  0  0  0
   35.2290   23.5990   39.1310 C   0  0  0  0  0  0  0  0  0  0  0  0
   35.0140   24.0400   37.8760 N   0  0  0  0  0  0  0  0  0  0  0  0
   33.7460   24.1030   36.2500 H   0  0  0  0  0  0  0  0  0  0  0  0
   31.9710   22.7150   37.3440 H   0  0  0  0  0  0  0  0  0  0  0  0
   32.3960   21.9050   39.6870 H   0  0  0  0  0  0  0  0  0  0  0  0
   36.1480   28.0290   40.1880 C   0  0  1  0  0  0  0  0  0  0  0  0
   35.0470   28.9920   40.6310 C   0  0  0  0  0  0  0  0  0  0  0  0
   35.7510   29.1380   39.3320 C   0  0  1  0  0  0  0  0  0  0  0  0
   35.7990   27.0050   39.8580 H   0  0  0  0  0  0  0  0  0  0  0  0
   35.2350   29.5670   41.5290 H   0  0  0  0  0  0  0  0  0  0  0  0
   34.0130   28.5330   40.6470 H   0  0  0  0  0  0  0  0  0  0  0  0
   35.1570   28.9020   38.4130 H   0  0  0  0  0  0  0  0  0  0  0  0
   37.1920   29.6510   36.6340 Cl  0  0  0  0  0  0  0  0  0  0  0  0
   37.2160   30.7220   38.0170 C   0  0  0  0  0  0  0  0  0  0  0  0
   36.5140   30.3960   39.1580 C   0  0  0  0  0  0  0  0  0  0  0  0
   36.6280   31.3740   40.1240 C   0  0  0  0  0  0  0  0  0  0  0  0
   36.1370   31.2770   41.0800 H   0  0  0  0  0  0  0  0  0  0  0  0
   37.3410   32.5430   40.0100 C   0  0  0  0  0  0  0  0  0  0  0  0
   37.4070   33.2870   40.7920 H   0  0  0  0  0  0  0  0  0  0  0  0
   38.0190   32.7960   38.8380 C   0  0  0  0  0  3  0  0  0  0  0  0
   37.9540   31.8690   37.8240 C   0  0  0  0  0  3  0  0  0  0  0  0
  1  2  1  0  0  0  0
  1  6  1  0  0  0  0
  2  8  1  6  0  0  0
  2  3  1  0  0  0  0
  3  9  1  0  0  0  0
  3  4  1  0  0  0  0
  3 10  1  0  0  0  0
  5 13  1  0  0  0  0
  5  4  1  0  0  0  0
  5 12  1  0  0  0  0
  6 14  1  1  0  0  0
  6  5  1  0  0  0  0
  7  1  1  0  0  0  0
 11  4  1  0  0  0  0
 15 19  2  0  0  0  0
 15 16  1  0  0  0  0
 16 20  1  0  0  0  0
 16 17  2  0  0  0  0
 17 21  1  0  0  0  0
 18 17  1  0  0  0  0
 18  2  1  0  0  0  0
 19 18  1  0  0  0  0
 22 27  2  0  0  0  0
 22 23  1  0  0  0  0
 23 24  2  0  0  0  0
 24 30  1  0  0  0  0
 24 25  1  0  0  0  0
 26 25  2  0  0  0  0
 26 15  1  0  0  0  0
 27 26  1  0  0  0  0
 28 22  1  0  0  0  0
 29 23  1  0  0  0  0
 31 34  1  6  0  0  0
 31 32  1  0  0  0  0
 31  6  1  0  0  0  0
 32 36  1  0  0  0  0
 32 35  1  0  0  0  0
 33 37  1  6  0  0  0
 33 31  1  0  0  0  0
 33 32  1  0  0  0  0
 38 39  1  0  0  0  0
 39 40  1  0  0  0  0
 40 33  1  0  0  0  0
 40 41  2  0  0  0  0
 41 42  1  0  0  0  0
 43 41  1  0  0  0  0
 43 44  1  0  0  0  0
 45 43  2  0  0  0  0
 46 39  2  0  0  0  0
 46 45  1  0  0  0  0
M  END
>  <minimizedAffinity>
-5.59216547

$$$$

 OpenBabel03242520063D

 46 50  0  0  1  0  0  0  0  0999 V2000
   39.0590   29.2380   40.9450 N   0  0  0  0  0  0  0  0  0  0  0  0
   38.9760   28.4020   42.0910 C   0  0  1  0  0  0  0  0  0  0  0  0
   38.3250   29.1520   43.2080 C   0  0  0  0  0  0  0  0  0  0  0  0
   36.9640   29.3840   42.7690 N   0  0  0  0  0  0  0  0  0  0  0  0
   36.9160   30.2900   41.6520 C   0  0  0  0  0  0  0  0  0  0  0  0
   37.9720   30.0680   40.6130 C   0  0  2  0  0  0  0  0  0  0  0  0
   40.0140   29.6580   40.8960 H   0  0  0  0  0  0  0  0  0  0  0  0
   39.9770   28.0980   42.4070 H   0  0  0  0  0  0  0  0  0  0  0  0
   38.8640   30.0880   43.3830 H   0  0  0  0  0  0  0  0  0  0  0  0
   38.2940   28.5540   44.1430 H   0  0  0  0  0  0  0  0  0  0  0  0
   36.5420   28.4720   42.4870 H   0  0  0  0  0  0  0  0  0  0  0  0
   36.8940   31.3070   42.0940 H   0  0  0  0  0  0  0  0  0  0  0  0
   35.8720   30.1680   41.2360 H   0  0  0  0  0  0  0  0  0  0  0  0
   38.4360   31.0840   40.4740 H   0  0  0  0  0  0  0  0  0  0  0  0
   37.0480   25.7380   40.7570 C   0  0  0  0  0  0  0  0  0  0  0  0
   37.1820   25.3110   42.0700 C   0  0  0  0  0  0  0  0  0  0  0  0
   37.9090   26.2360   42.7420 C   0  0  0  0  0  0  0  0  0  0  0  0
   38.2150   27.2070   41.8600 N   0  0  0  0  0  0  0  0  0  0  0  0
   37.6950   26.8910   40.6910 N   0  0  0  0  0  0  0  0  0  0  0  0
   36.7520   24.3840   42.4350 H   0  0  0  0  0  0  0  0  0  0  0  0
   38.1820   26.1820   43.7920 H   0  0  0  0  0  0  0  0  0  0  0  0
   35.5010   24.9570   37.5100 C   0  0  0  0  0  0  0  0  0  0  0  0
   35.0050   23.6600   37.7170 C   0  0  0  0  0  0  0  0  0  0  0  0
   35.2110   23.0860   38.9630 C   0  0  0  0  0  0  0  0  0  0  0  0
   35.8730   23.7930   39.9060 N   0  0  0  0  0  0  0  0  0  0  0  0
   36.3360   25.0360   39.6780 C   0  0  0  0  0  0  0  0  0  0  0  0
   36.1570   25.6300   38.4820 N   0  0  0  0  0  0  0  0  0  0  0  0
   35.3920   25.4930   36.5710 H   0  0  0  0  0  0  0  0  0  0  0  0
   34.4900   23.1790   36.8970 H   0  0  0  0  0  0  0  0  0  0  0  0
   34.8370   22.0930   39.1380 H   0  0  0  0  0  0  0  0  0  0  0  0
   37.2730   29.6460   39.3330 C   0  0  1  0  0  0  0  0  0  0  0  0
   36.8340   30.8060   38.4400 C   0  0  0  0  0  0  0  0  0  0  0  0
   37.8540   29.8160   38.0080 C   0  0  1  0  0  0  0  0  0  0  0  0
   36.5300   28.8000   39.4380 H   0  0  0  0  0  0  0  0  0  0  0  0
   37.0290   31.8050   38.8080 H   0  0  0  0  0  0  0  0  0  0  0  0
   35.7760   30.7110   38.0500 H   0  0  0  0  0  0  0  0  0  0  0  0
   37.5450   29.0990   37.2060 H   0  0  0  0  0  0  0  0  0  0  0  0
   40.2300   27.8520   37.6650 Cl  0  0  0  0  0  0  0  0  0  0  0  0
   40.3360   29.5980   37.5870 C   0  0  0  0  0  0  0  0  0  0  0  0
   39.2010   30.3680   37.7320 C   0  0  0  0  0  0  0  0  0  0  0  0
   39.4790   31.7130   37.6100 C   0  0  0  0  0  0  0  0  0  0  0  0
   38.7000   32.4550   37.6960 H   0  0  0  0  0  0  0  0  0  0  0  0
   40.7140   32.2650   37.3750 C   0  0  0  0  0  0  0  0  0  0  0  0
   40.8920   33.3280   37.2860 H   0  0  0  0  0  0  0  0  0  0  0  0
   41.8010   31.4290   37.2440 C   0  0  0  0  0  3  0  0  0  0  0  0
   41.6070   30.0710   37.3520 C   0  0  0  0  0  3  0  0  0  0  0  0
  1  2  1  0  0  0  0
  2  8  1  1  0  0  0
  2  3  1  0  0  0  0
  3  9  1  0  0  0  0
  3 10  1  0  0  0  0
  4  3  1  0  0  0  0
  5 12  1  0  0  0  0
  5  4  1  0  0  0  0
  6 14  1  6  0  0  0
  6  1  1  0  0  0  0
  6  5  1  0  0  0  0
  7  1  1  0  0  0  0
 11  4  1  0  0  0  0
 13  5  1  0  0  0  0
 15 16  1  0  0  0  0
 16 20  1  0  0  0  0
 16 17  2  0  0  0  0
 17 21  1  0  0  0  0
 18  2  1  0  0  0  0
 18 17  1  0  0  0  0
 19 15  2  0  0  0  0
 19 18  1  0  0  0  0
 22 23  2  0  0  0  0
 22 27  1  0  0  0  0
 23 24  1  0  0  0  0
 24 30  1  0  0  0  0
 24 25  2  0  0  0  0
 26 25  1  0  0  0  0
 26 15  1  0  0  0  0
 27 26  2  0  0  0  0
 28 22  1  0  0  0  0
 29 23  1  0  0  0  0
 31 34  1  1  0  0  0
 31  6  1  0  0  0  0
 32 35  1  0  0  0  0
 32 31  1  0  0  0  0
 33 37  1  6  0  0  0
 33 32  1  0  0  0  0
 33 31  1  0  0  0  0
 36 32  1  0  0  0  0
 39 38  1  0  0  0  0
 39 40  1  0  0  0  0
 40 33  1  0  0  0  0
 41 42  1  0  0  0  0
 41 40  2  0  0  0  0
 43 41  1  0  0  0  0
 44 43  1  0  0  0  0
 45 46  1  0  0  0  0
 45 43  2  0  0  0  0
 46 39  2  0  0  0  0
M  END
>  <minimizedAffinity>
-5.52865839

$$$$

 OpenBabel03242520063D

 46 50  0  0  1  0  0  0  0  0999 V2000
   38.0790   30.9940   38.4670 N   0  0  0  0  0  0  0  0  0  0  0  0
   39.1280   31.7920   38.9960 C   0  0  1  0  0  0  0  0  0  0  0  0
   38.5580   33.0520   39.5620 C   0  0  0  0  0  0  0  0  0  0  0  0
   37.7520   32.6330   40.6910 N   0  0  0  0  0  0  0  0  0  0  0  0
   36.6030   31.8770   40.2680 C   0  0  0  0  0  0  0  0  0  0  0  0
   36.8650   30.8890   39.1730 C   0  0  2  0  0  0  0  0  0  0  0  0
   38.0210   31.1440   37.4350 H   0  0  0  0  0  0  0  0  0  0  0  0
   39.8380   32.0510   38.2060 H   0  0  0  0  0  0  0  0  0  0  0  0
   37.9610   33.5590   38.7980 H   0  0  0  0  0  0  0  0  0  0  0  0
   39.3520   33.7330   39.9340 H   0  0  0  0  0  0  0  0  0  0  0  0
   38.3380   32.0400   41.3200 H   0  0  0  0  0  0  0  0  0  0  0  0
   35.8160   32.6270   40.0480 H   0  0  0  0  0  0  0  0  0  0  0  0
   36.2290   31.3810   41.2120 H   0  0  0  0  0  0  0  0  0  0  0  0
   36.0800   31.1210   38.4000 H   0  0  0  0  0  0  0  0  0  0  0  0
   40.3980   29.5690   41.4540 C   0  0  0  0  0  0  0  0  0  0  0  0
   41.2930   30.6200   41.5870 C   0  0  0  0  0  0  0  0  0  0  0  0
   40.9470   31.5850   40.7000 C   0  0  0  0  0  0  0  0  0  0  0  0
   39.8640   31.1330   40.0390 N   0  0  0  0  0  0  0  0  0  0  0  0
   39.5560   29.9390   40.5010 N   0  0  0  0  0  0  0  0  0  0  0  0
   42.1120   30.6110   42.3000 H   0  0  0  0  0  0  0  0  0  0  0  0
   41.4610   32.5320   40.5660 H   0  0  0  0  0  0  0  0  0  0  0  0
   41.4570   26.3580   42.9080 C   0  0  0  0  0  0  0  0  0  0  0  0
   40.3410   25.9930   43.6770 C   0  0  0  0  0  0  0  0  0  0  0  0
   39.2540   26.8550   43.6790 C   0  0  0  0  0  0  0  0  0  0  0  0
   39.3210   27.9910   42.9480 N   0  0  0  0  0  0  0  0  0  0  0  0
   40.4050   28.3130   42.2190 C   0  0  0  0  0  0  0  0  0  0  0  0
   41.4820   27.5040   42.1900 N   0  0  0  0  0  0  0  0  0  0  0  0
   42.3580   25.7520   42.8400 H   0  0  0  0  0  0  0  0  0  0  0  0
   40.3890   25.0630   44.2260 H   0  0  0  0  0  0  0  0  0  0  0  0
   38.3910   26.5900   44.2630 H   0  0  0  0  0  0  0  0  0  0  0  0
   36.6290   29.5020   39.7410 C   0  0  1  0  0  0  0  0  0  0  0  0
   35.2160   29.2710   40.2780 C   0  0  0  0  0  0  0  0  0  0  0  0
   35.7550   28.5170   39.1170 C   0  0  1  0  0  0  0  0  0  0  0  0
   37.4670   29.0820   40.3730 H   0  0  0  0  0  0  0  0  0  0  0  0
   34.5350   30.1110   40.2340 H   0  0  0  0  0  0  0  0  0  0  0  0
   35.1850   28.7700   41.2920 H   0  0  0  0  0  0  0  0  0  0  0  0
   35.9820   27.4340   39.2870 H   0  0  0  0  0  0  0  0  0  0  0  0
   37.3260   28.2650   36.4550 Cl  0  0  0  0  0  0  0  0  0  0  0  0
   35.6240   28.6480   36.5970 C   0  0  0  0  0  0  0  0  0  0  0  0
   35.0290   28.7090   37.8400 C   0  0  0  0  0  0  0  0  0  0  0  0
   33.6830   28.9910   37.7470 C   0  0  0  0  0  0  0  0  0  0  0  0
   33.0660   29.0730   38.6290 H   0  0  0  0  0  0  0  0  0  0  0  0
   32.9770   29.1960   36.5860 C   0  0  0  0  0  0  0  0  0  0  0  0
   31.9190   29.4170   36.5540 H   0  0  0  0  0  0  0  0  0  0  0  0
   33.6440   29.1210   35.3820 C   0  0  0  0  0  3  0  0  0  0  0  0
   34.9910   28.8420   35.3900 C   0  0  0  0  0  3  0  0  0  0  0  0
  1  2  1  0  0  0  0
  1  6  1  0  0  0  0
  2  8  1  6  0  0  0
  2  3  1  0  0  0  0
  2 18  1  0  0  0  0
  3 10  1  0  0  0  0
  3  4  1  0  0  0  0
  4 11  1  0  0  0  0
  5  4  1  0  0  0  0
  5 13  1  0  0  0  0
  6 14  1  6  0  0  0
  6 31  1  0  0  0  0
  6  5  1  0  0  0  0
  7  1  1  0  0  0  0
  9  3  1  0  0  0  0
 12  5  1  0  0  0  0
 15 16  1  0  0  0  0
 15 26  1  0  0  0  0
 16 20  1  0  0  0  0
 17 16  2  0  0  0  0
 18 19  1  0  0  0  0
 18 17  1  0  0  0  0
 19 15  2  0  0  0  0
 21 17  1  0  0  0  0
 22 23  1  0  0  0  0
 23 24  2  0  0  0  0
 23 29  1  0  0  0  0
 24 30  1  0  0  0  0
 25 24  1  0  0  0  0
 26 25  2  0  0  0  0
 27 26  1  0  0  0  0
 27 22  2  0  0  0  0
 28 22  1  0  0  0  0
 31 32  1  0  0  0  0
 31 34  1  1  0  0  0
 32 36  1  0  0  0  0
 33 37  1  1  0  0  0
 33 31  1  0  0  0  0
 33 32  1  0  0  0  0
 35 32  1  0  0  0  0
 38 39  1  0  0  0  0
 39 40  1  0  0  0  0
 40 33  1  0  0  0  0
 41 40  2  0  0  0  0
 41 42  1  0  0  0  0
 43 41  1  0  0  0  0
 44 43  1  0  0  0  0
 45 46  1  0  0  0  0
 45 43  2  0  0  0  0
 46 39  2  0  0  0  0
M  END
>  <minimizedAffinity>
-5.52795553

$$$$

 OpenBabel03242520063D

 46 50  0  0  1  0  0  0  0  0999 V2000
   38.8690   26.8540   40.7460 N   0  0  0  0  0  0  0  0  0  0  0  0
   39.0090   25.9540   39.6560 C   0  0  1  0  0  0  0  0  0  0  0  0
   39.5000   24.6350   40.1590 C   0  0  0  0  0  0  0  0  0  0  0  0
   38.4260   24.1180   40.9830 N   0  0  0  0  0  0  0  0  0  0  0  0
   38.2420   24.9100   42.1710 C   0  0  0  0  0  0  0  0  0  0  0  0
   38.3310   26.3910   41.9620 C   0  0  2  0  0  0  0  0  0  0  0  0
   39.7150   27.4630   40.7990 H   0  0  0  0  0  0  0  0  0  0  0  0
   39.7310   26.3470   38.9350 H   0  0  0  0  0  0  0  0  0  0  0  0
   40.4200   24.7820   40.7310 H   0  0  0  0  0  0  0  0  0  0  0  0
   39.6800   23.9190   39.3310 H   0  0  0  0  0  0  0  0  0  0  0  0
   37.5420   24.1270   40.4280 H   0  0  0  0  0  0  0  0  0  0  0  0
   38.9490   24.4950   42.9180 H   0  0  0  0  0  0  0  0  0  0  0  0
   37.2330   24.5930   42.5670 H   0  0  0  0  0  0  0  0  0  0  0  0
   39.0740   26.7320   42.7370 H   0  0  0  0  0  0  0  0  0  0  0  0
   35.8890   26.2050   37.9830 C   0  0  0  0  0  0  0  0  0  0  0  0
   36.0980   24.8360   37.9100 C   0  0  0  0  0  0  0  0  0  0  0  0
   37.2760   24.5550   38.5190 C   0  0  0  0  0  0  0  0  0  0  0  0
   37.7770   25.7280   38.9530 N   0  0  0  0  0  0  0  0  0  0  0  0
   36.9400   26.6910   38.6260 N   0  0  0  0  0  0  0  0  0  0  0  0
   35.3970   24.1570   37.4340 H   0  0  0  0  0  0  0  0  0  0  0  0
   37.7120   23.5660   38.6230 H   0  0  0  0  0  0  0  0  0  0  0  0
   32.9530   27.1320   35.9660 C   0  0  0  0  0  0  0  0  0  0  0  0
   32.5990   28.3780   36.5050 C   0  0  0  0  0  0  0  0  0  0  0  0
   33.3740   28.8710   37.5450 C   0  0  0  0  0  0  0  0  0  0  0  0
   34.4200   28.1360   37.9840 N   0  0  0  0  0  0  0  0  0  0  0  0
   34.7360   26.9440   37.4460 C   0  0  0  0  0  0  0  0  0  0  0  0
   34.0090   26.4290   36.4340 N   0  0  0  0  0  0  0  0  0  0  0  0
   32.4110   26.6600   35.1500 H   0  0  0  0  0  0  0  0  0  0  0  0
   31.7430   28.8860   36.0830 H   0  0  0  0  0  0  0  0  0  0  0  0
   33.1150   29.8250   37.9690 H   0  0  0  0  0  0  0  0  0  0  0  0
   36.9670   26.9790   42.2690 C   0  0  1  0  0  0  0  0  0  0  0  0
   36.8610   27.6520   43.6380 C   0  0  0  0  0  0  0  0  0  0  0  0
   36.7140   28.4110   42.3690 C   0  0  1  0  0  0  0  0  0  0  0  0
   36.0800   26.3450   41.9660 H   0  0  0  0  0  0  0  0  0  0  0  0
   37.7420   27.6210   44.2650 H   0  0  0  0  0  0  0  0  0  0  0  0
   35.9330   27.3680   44.2200 H   0  0  0  0  0  0  0  0  0  0  0  0
   35.6850   28.7780   42.1250 H   0  0  0  0  0  0  0  0  0  0  0  0
   36.3810   30.2820   39.9190 Cl  0  0  0  0  0  0  0  0  0  0  0  0
   37.6940   30.3460   41.0740 C   0  0  0  0  0  0  0  0  0  0  0  0
   37.7210   29.4720   42.1410 C   0  0  0  0  0  0  0  0  0  0  0  0
   38.8110   29.6960   42.9550 C   0  0  0  0  0  0  0  0  0  0  0  0
   38.9820   29.0990   43.8380 H   0  0  0  0  0  0  0  0  0  0  0  0
   39.7770   30.6550   42.7680 C   0  0  0  0  0  0  0  0  0  0  0  0
   40.6200   30.7980   43.4300 H   0  0  0  0  0  0  0  0  0  0  0  0
   39.6820   31.4890   41.6750 C   0  0  0  0  0  3  0  0  0  0  0  0
   38.6210   31.3300   40.8150 C   0  0  0  0  0  3  0  0  0  0  0  0
  1  7  1  0  0  0  0
  1  6  1  0  0  0  0
  2  8  1  6  0  0  0
  2  3  1  0  0  0  0
  2  1  1  0  0  0  0
  3  9  1  0  0  0  0
  3  4  1  0  0  0  0
  4  5  1  0  0  0  0
  5 13  1  0  0  0  0
  5 12  1  0  0  0  0
  6  5  1  0  0  0  0
  6 31  1  0  0  0  0
  6 14  1  1  0  0  0
 10  3  1  0  0  0  0
 11  4  1  0  0  0  0
 15 19  2  0  0  0  0
 16 15  1  0  0  0  0
 16 17  2  0  0  0  0
 17 21  1  0  0  0  0
 17 18  1  0  0  0  0
 18  2  1  0  0  0  0
 19 18  1  0  0  0  0
 20 16  1  0  0  0  0
 22 27  2  0  0  0  0
 22 23  1  0  0  0  0
 23 24  2  0  0  0  0
 24 30  1  0  0  0  0
 24 25  1  0  0  0  0
 26 15  1  0  0  0  0
 26 25  2  0  0  0  0
 27 26  1  0  0  0  0
 28 22  1  0  0  0  0
 29 23  1  0  0  0  0
 31 34  1  6  0  0  0
 31 33  1  0  0  0  0
 31 32  1  0  0  0  0
 32 36  1  0  0  0  0
 32 35  1  0  0  0  0
 33 37  1  6  0  0  0
 33 32  1  0  0  0  0
 38 39  1  0  0  0  0
 39 40  1  0  0  0  0
 40 33  1  0  0  0  0
 40 41  2  0  0  0  0
 41 42  1  0  0  0  0
 43 41  1  0  0  0  0
 43 44  1  0  0  0  0
 45 43  2  0  0  0  0
 46 39  2  0  0  0  0
 46 45  1  0  0  0  0
M  END
>  <minimizedAffinity>
-5.52321672

$$$$
