
 OpenBabel03252505333D

 30 32  0  0  0  0  0  0  0  0999 V2000
   46.5730   34.7800   42.1050 C   0  0  0  0  0  0  0  0  0  0  0  0
   47.9160   35.1090   42.0710 C   0  0  0  0  0  0  0  0  0  0  0  0
   48.7080   34.9150   40.9380 C   0  0  0  0  0  0  0  0  0  0  0  0
   48.1300   34.3720   39.8070 C   0  0  0  0  0  0  0  0  0  0  0  0
   46.8000   34.0550   39.8640 C   0  0  0  0  0  0  0  0  0  0  0  0
   46.0070   34.2430   40.9800 C   0  0  0  0  0  0  0  0  0  0  0  0
   48.3920   35.5380   42.9530 H   0  0  0  0  0  0  0  0  0  0  0  0
   49.7470   35.2010   41.0010 H   0  0  0  0  0  0  0  0  0  0  0  0
   48.8030   34.2590   38.9940 H   0  0  0  0  0  0  0  0  0  0  0  0
   46.3730   33.6300   38.9600 H   0  0  0  0  0  0  0  0  0  0  0  0
   44.4160   36.2610   44.8160 C   0  0  0  0  0  0  0  0  0  0  0  0
   45.0620   36.1260   43.5760 C   0  0  0  0  0  0  0  0  0  0  0  0
   45.8610   35.0250   43.3350 C   0  0  0  0  0  0  0  0  0  0  0  0
   45.9880   34.1000   44.3340 N   0  0  0  0  0  0  0  0  0  0  0  0
   45.3520   34.2550   45.5240 C   0  0  0  0  0  0  0  0  0  0  0  0
   44.5680   35.3410   45.7530 N   0  0  0  0  0  0  0  0  0  0  0  0
   45.4990   33.2750   46.5530 N   0  0  0  0  0  0  0  0  0  0  0  0
   43.8110   37.1490   44.9280 H   0  0  0  0  0  0  0  0  0  0  0  0
   44.9740   36.8470   42.7750 H   0  0  0  0  0  0  0  0  0  0  0  0
   46.1750   33.1690   47.3380 H   0  0  0  0  0  0  0  0  0  0  0  0
   44.7000   32.6670   46.2760 H   0  0  0  0  0  0  0  0  0  0  0  0
   45.4810   31.5310   41.9430 Cl  0  0  0  0  0  0  0  0  0  0  0  0
   44.2100   32.6290   41.4060 C   0  0  0  0  0  0  0  0  0  0  0  0
   44.5930   33.8810   40.9780 C   0  0  0  0  0  0  0  0  0  0  0  0
   43.5290   34.6910   40.5720 C   0  0  0  0  0  0  0  0  0  0  0  0
   43.8110   35.6920   40.2240 H   0  0  0  0  0  0  0  0  0  0  0  0
   42.2290   34.2430   40.6110 C   0  0  0  0  0  0  0  0  0  0  0  0
   41.4400   34.9130   40.2840 H   0  0  0  0  0  0  0  0  0  0  0  0
   41.9250   32.9590   41.0580 C   0  0  0  0  0  0  0  0  0  0  0  0
   42.9530   32.1090   41.4760 C   0  0  0  0  0  0  0  0  0  0  0  0
  1 13  1  0  0  0  0
  2  1  1  0  0  0  0
  2  7  1  0  0  0  0
  3  8  1  0  0  0  0
  3  2  2  0  0  0  0
  4  5  2  0  0  0  0
  4  3  1  0  0  0  0
  5  6  1  0  0  0  0
  6  1  2  0  0  0  0
  9  4  1  0  0  0  0
 10  5  1  0  0  0  0
 11 18  1  0  0  0  0
 11 16  1  0  0  0  0
 12 11  2  0  0  0  0
 13 12  1  0  0  0  0
 13 14  2  0  0  0  0
 14 15  1  0  0  0  0
 15 16  2  0  0  0  0
 15 17  1  0  0  0  0
 17 20  1  0  0  0  0
 19 12  1  0  0  0  0
 21 17  1  0  0  0  0
 23 30  1  0  0  0  0
 23 22  1  0  0  0  0
 24  6  1  0  0  0  0
 24 23  2  0  0  0  0
 25 27  2  0  0  0  0
 25 24  1  0  0  0  0
 26 25  1  0  0  0  0
 27 29  1  0  0  0  0
 28 27  1  0  0  0  0
 29 30  2  0  0  0  0
M  END
>  <minimizedAffinity>
-6.30318785

>  <minimizedRMSD>
1.12398446

$$$$
