
 OpenBabel03252507273D

 27 29  0  0  0  0  0  0  0  0999 V2000
   39.1410   27.6940   41.9090 C   0  0  0  0  0  0  0  0  0  0  0  0
   40.2260   27.8690   42.7690 C   0  0  0  0  0  0  0  0  0  0  0  0
   40.7390   29.1780   42.9300 C   0  0  0  0  0  0  0  0  0  0  0  0
   40.1420   30.1940   42.2350 N   0  0  0  0  0  0  0  0  0  0  0  0
   39.1050   29.9670   41.4250 C   0  0  0  0  0  0  0  0  0  0  0  0
   38.6120   28.7450   41.2640 N   0  0  0  0  0  0  0  0  0  0  0  0
   40.6830   27.0770   43.3040 H   0  0  0  0  0  0  0  0  0  0  0  0
   41.5750   29.3760   43.5800 H   0  0  0  0  0  0  0  0  0  0  0  0
   38.5030   31.0850   40.7050 C   0  0  0  0  0  0  0  0  0  0  0  0
   37.5790   30.8590   39.6940 C   0  0  0  0  0  0  0  0  0  0  0  0
   36.9500   31.8320   38.9490 C   0  0  0  0  0  0  0  0  0  0  0  0
   37.3240   33.1220   39.3020 C   0  0  0  0  0  0  0  0  0  0  0  0
   38.2430   33.3900   40.3050 C   0  0  0  0  0  0  0  0  0  0  0  0
   38.8230   32.3600   40.9970 N   0  0  0  0  0  0  0  0  0  0  0  0
   37.3290   29.8160   39.4670 H   0  0  0  0  0  0  0  0  0  0  0  0
   36.2440   31.5940   38.1800 H   0  0  0  0  0  0  0  0  0  0  0  0
   36.8780   33.9580   38.7670 H   0  0  0  0  0  0  0  0  0  0  0  0
   38.5050   34.4270   40.5450 H   0  0  0  0  0  0  0  0  0  0  0  0
   36.5750   27.2130   43.3130 Cl  0  0  0  0  0  0  0  0  0  0  0  0
   37.3750   26.0250   42.3010 C   0  0  0  0  0  0  0  0  0  0  0  0
   38.5670   26.3700   41.7010 C   0  0  0  0  0  0  0  0  0  0  0  0
   39.1210   25.3740   40.9260 C   0  0  0  0  0  0  0  0  0  0  0  0
   40.0580   25.5730   40.4240 H   0  0  0  0  0  0  0  0  0  0  0  0
   38.5270   24.1380   40.7670 C   0  0  0  0  0  0  0  0  0  0  0  0
   39.0270   23.4040   40.1380 H   0  0  0  0  0  0  0  0  0  0  0  0
   37.3260   23.8450   41.3940 C   0  0  0  0  0  3  0  0  0  0  0  0
   36.7360   24.8120   42.1800 C   0  0  0  0  0  3  0  0  0  0  0  0
  1  2  1  0  0  0  0
  2  3  2  0  0  0  0
  2  7  1  0  0  0  0
  3  8  1  0  0  0  0
  4  3  1  0  0  0  0
  5  4  2  0  0  0  0
  6  5  1  0  0  0  0
  6  1  2  0  0  0  0
  9 14  1  0  0  0  0
  9  5  1  0  0  0  0
 10  9  2  0  0  0  0
 11 12  2  0  0  0  0
 11 10  1  0  0  0  0
 12 13  1  0  0  0  0
 13 18  1  0  0  0  0
 13 14  2  0  0  0  0
 15 10  1  0  0  0  0
 16 11  1  0  0  0  0
 17 12  1  0  0  0  0
 20 19  1  0  0  0  0
 21  1  1  0  0  0  0
 21 20  2  0  0  0  0
 22 21  1  0  0  0  0
 23 22  1  0  0  0  0
 24 22  2  0  0  0  0
 24 26  1  0  0  0  0
 25 24  1  0  0  0  0
 26 27  2  0  0  0  0
 27 20  1  0  0  0  0
M  END
>  <minimizedAffinity>
-5.30971766

$$$$

 OpenBabel03252507273D

 27 29  0  0  0  0  0  0  0  0999 V2000
   37.1700   28.6180   40.9840 C   0  0  0  0  0  0  0  0  0  0  0  0
   36.0480   29.4070   40.7310 C   0  0  0  0  0  0  0  0  0  0  0  0
   36.2120   30.8120   40.7310 C   0  0  0  0  0  0  0  0  0  0  0  0
   37.4610   31.3150   40.9780 N   0  0  0  0  0  0  0  0  0  0  0  0
   38.4990   30.5100   41.2140 C   0  0  0  0  0  0  0  0  0  0  0  0
   38.3610   29.1900   41.2170 N   0  0  0  0  0  0  0  0  0  0  0  0
   35.0840   29.0100   40.5400 H   0  0  0  0  0  0  0  0  0  0  0  0
   35.3830   31.4740   40.5420 H   0  0  0  0  0  0  0  0  0  0  0  0
   39.8120   31.0960   41.4730 C   0  0  0  0  0  0  0  0  0  0  0  0
   40.5810   30.6610   42.5440 C   0  0  0  0  0  0  0  0  0  0  0  0
   41.8270   31.1390   42.8840 C   0  0  0  0  0  0  0  0  0  0  0  0
   42.2840   32.1380   42.0340 C   0  0  0  0  0  0  0  0  0  0  0  0
   41.5460   32.6000   40.9540 C   0  0  0  0  0  0  0  0  0  0  0  0
   40.3120   32.0680   40.6880 N   0  0  0  0  0  0  0  0  0  0  0  0
   40.1600   29.8690   43.1750 H   0  0  0  0  0  0  0  0  0  0  0  0
   42.3720   30.7620   43.7240 H   0  0  0  0  0  0  0  0  0  0  0  0
   43.2600   32.5770   42.2230 H   0  0  0  0  0  0  0  0  0  0  0  0
   41.9510   33.3920   40.3130 H   0  0  0  0  0  0  0  0  0  0  0  0
   36.9090   27.4120   43.6800 Cl  0  0  0  0  0  0  0  0  0  0  0  0
   36.9400   26.4850   42.1910 C   0  0  0  0  0  0  0  0  0  0  0  0
   37.0660   27.1640   40.9980 C   0  0  0  0  0  0  0  0  0  0  0  0
   37.0810   26.3530   39.8840 C   0  0  0  0  0  0  0  0  0  0  0  0
   37.1770   26.8160   38.9110 H   0  0  0  0  0  0  0  0  0  0  0  0
   36.9770   24.9790   39.9620 C   0  0  0  0  0  0  0  0  0  0  0  0
   36.9970   24.4070   39.0360 H   0  0  0  0  0  0  0  0  0  0  0  0
   36.8520   24.3480   41.1890 C   0  0  0  0  0  3  0  0  0  0  0  0
   36.8330   25.1200   42.3310 C   0  0  0  0  0  3  0  0  0  0  0  0
  1 21  1  0  0  0  0
  1  6  1  0  0  0  0
  2  3  1  0  0  0  0
  2  1  2  0  0  0  0
  3  4  2  0  0  0  0
  4  5  1  0  0  0  0
  5  6  2  0  0  0  0
  5  9  1  0  0  0  0
  7  2  1  0  0  0  0
  8  3  1  0  0  0  0
  9 10  1  0  0  0  0
 10 11  2  0  0  0  0
 10 15  1  0  0  0  0
 11 16  1  0  0  0  0
 12 17  1  0  0  0  0
 12 11  1  0  0  0  0
 13 12  2  0  0  0  0
 14 13  1  0  0  0  0
 14  9  2  0  0  0  0
 18 13  1  0  0  0  0
 20 27  1  0  0  0  0
 20 19  1  0  0  0  0
 21 20  2  0  0  0  0
 22 24  2  0  0  0  0
 22 21  1  0  0  0  0
 23 22  1  0  0  0  0
 24 26  1  0  0  0  0
 25 24  1  0  0  0  0
 26 27  2  0  0  0  0
M  END
>  <minimizedAffinity>
-5.29119587

$$$$

 OpenBabel03252507273D

 27 29  0  0  0  0  0  0  0  0999 V2000
   37.9310   30.3290   40.2660 C   0  0  0  0  0  0  0  0  0  0  0  0
   37.1460   31.4520   40.0020 C   0  0  0  0  0  0  0  0  0  0  0  0
   37.5330   32.2940   38.9330 C   0  0  0  0  0  0  0  0  0  0  0  0
   38.6530   31.9590   38.2210 N   0  0  0  0  0  0  0  0  0  0  0  0
   39.3660   30.8700   38.5200 C   0  0  0  0  0  0  0  0  0  0  0  0
   39.0160   30.0700   39.5190 N   0  0  0  0  0  0  0  0  0  0  0  0
   36.2800   31.7040   40.5580 H   0  0  0  0  0  0  0  0  0  0  0  0
   36.9680   33.1750   38.6800 H   0  0  0  0  0  0  0  0  0  0  0  0
   40.5530   30.5560   37.7300 C   0  0  0  0  0  0  0  0  0  0  0  0
   40.8130   29.2510   37.3340 C   0  0  0  0  0  0  0  0  0  0  0  0
   41.8970   28.8390   36.5910 C   0  0  0  0  0  0  0  0  0  0  0  0
   42.7550   29.8750   36.2480 C   0  0  0  0  0  0  0  0  0  0  0  0
   42.5320   31.1910   36.6240 C   0  0  0  0  0  0  0  0  0  0  0  0
   41.4260   31.5140   37.3650 N   0  0  0  0  0  0  0  0  0  0  0  0
   40.0940   28.4810   37.6380 H   0  0  0  0  0  0  0  0  0  0  0  0
   42.0430   27.8150   36.3160 H   0  0  0  0  0  0  0  0  0  0  0  0
   43.6410   29.6450   35.6600 H   0  0  0  0  0  0  0  0  0  0  0  0
   43.2400   31.9730   36.3290 H   0  0  0  0  0  0  0  0  0  0  0  0
   39.4890   30.7180   42.7580 Cl  0  0  0  0  0  0  0  0  0  0  0  0
   38.2390   29.5040   42.5640 C   0  0  0  0  0  0  0  0  0  0  0  0
   37.5840   29.4220   41.3540 C   0  0  0  0  0  0  0  0  0  0  0  0
   36.6200   28.4390   41.2950 C   0  0  0  0  0  0  0  0  0  0  0  0
   36.0650   28.3160   40.3750 H   0  0  0  0  0  0  0  0  0  0  0  0
   36.3380   27.6100   42.3630 C   0  0  0  0  0  0  0  0  0  0  0  0
   35.5610   26.8580   42.2380 H   0  0  0  0  0  0  0  0  0  0  0  0
   37.0260   27.7360   43.5580 C   0  0  0  0  0  3  0  0  0  0  0  0
   38.0010   28.7070   43.6610 C   0  0  0  0  0  3  0  0  0  0  0  0
  1 21  1  0  0  0  0
  2  1  1  0  0  0  0
  2  7  1  0  0  0  0
  3  2  2  0  0  0  0
  4  5  2  0  0  0  0
  4  3  1  0  0  0  0
  5  6  1  0  0  0  0
  6  1  2  0  0  0  0
  8  3  1  0  0  0  0
  9  5  1  0  0  0  0
 10 15  1  0  0  0  0
 10  9  2  0  0  0  0
 11 10  1  0  0  0  0
 12 11  2  0  0  0  0
 12 13  1  0  0  0  0
 13 14  2  0  0  0  0
 14  9  1  0  0  0  0
 16 11  1  0  0  0  0
 17 12  1  0  0  0  0
 18 13  1  0  0  0  0
 20 19  1  0  0  0  0
 20 27  1  0  0  0  0
 21 20  2  0  0  0  0
 22 21  1  0  0  0  0
 22 24  2  0  0  0  0
 23 22  1  0  0  0  0
 24 26  1  0  0  0  0
 25 24  1  0  0  0  0
 26 27  2  0  0  0  0
M  END
>  <minimizedAffinity>
-5.16419125

$$$$

 OpenBabel03252507273D

 27 29  0  0  0  0  0  0  0  0999 V2000
   37.5230   26.8740   41.6870 C   0  0  0  0  0  0  0  0  0  0  0  0
   37.4950   27.1090   43.0620 C   0  0  0  0  0  0  0  0  0  0  0  0
   37.4250   28.4500   43.5050 C   0  0  0  0  0  0  0  0  0  0  0  0
   37.3880   29.4390   42.5600 N   0  0  0  0  0  0  0  0  0  0  0  0
   37.4180   29.1560   41.2560 C   0  0  0  0  0  0  0  0  0  0  0  0
   37.4840   27.9030   40.8250 N   0  0  0  0  0  0  0  0  0  0  0  0
   37.5230   26.3360   43.7870 H   0  0  0  0  0  0  0  0  0  0  0  0
   37.4000   28.6940   44.5540 H   0  0  0  0  0  0  0  0  0  0  0  0
   37.3780   30.2480   40.2870 C   0  0  0  0  0  0  0  0  0  0  0  0
   37.3860   31.5700   40.7120 C   0  0  0  0  0  0  0  0  0  0  0  0
   37.3500   32.6760   39.8930 C   0  0  0  0  0  0  0  0  0  0  0  0
   37.3050   32.3590   38.5420 C   0  0  0  0  0  0  0  0  0  0  0  0
   37.2950   31.0530   38.0770 C   0  0  0  0  0  0  0  0  0  0  0  0
   37.3320   30.0080   38.9640 N   0  0  0  0  0  0  0  0  0  0  0  0
   37.4230   31.7490   41.7930 H   0  0  0  0  0  0  0  0  0  0  0  0
   37.3590   33.6740   40.2820 H   0  0  0  0  0  0  0  0  0  0  0  0
   37.2740   33.1690   37.8170 H   0  0  0  0  0  0  0  0  0  0  0  0
   37.2580   30.8540   37.0000 H   0  0  0  0  0  0  0  0  0  0  0  0
   40.2710   25.8370   41.2850 Cl  0  0  0  0  0  0  0  0  0  0  0  0
   38.8170   24.9190   40.9380 C   0  0  0  0  0  0  0  0  0  0  0  0
   37.5950   25.5140   41.1680 C   0  0  0  0  0  0  0  0  0  0  0  0
   36.5110   24.7180   40.8660 C   0  0  0  0  0  0  0  0  0  0  0  0
   35.5190   25.1190   41.0210 H   0  0  0  0  0  0  0  0  0  0  0  0
   36.6450   23.4340   40.3770 C   0  0  0  0  0  0  0  0  0  0  0  0
   35.7400   22.8690   40.1630 H   0  0  0  0  0  0  0  0  0  0  0  0
   37.8990   22.8850   40.1640 C   0  0  0  0  0  3  0  0  0  0  0  0
   39.0120   23.6470   40.4520 C   0  0  0  0  0  3  0  0  0  0  0  0
  1  2  1  0  0  0  0
  2  3  2  0  0  0  0
  2  7  1  0  0  0  0
  3  8  1  0  0  0  0
  4  3  1  0  0  0  0
  5  4  2  0  0  0  0
  6  5  1  0  0  0  0
  6  1  2  0  0  0  0
  9 10  1  0  0  0  0
  9  5  1  0  0  0  0
 10 15  1  0  0  0  0
 11 16  1  0  0  0  0
 11 10  2  0  0  0  0
 12 11  1  0  0  0  0
 13 12  2  0  0  0  0
 13 14  1  0  0  0  0
 14  9  2  0  0  0  0
 17 12  1  0  0  0  0
 18 13  1  0  0  0  0
 20 21  1  0  0  0  0
 20 19  1  0  0  0  0
 21  1  1  0  0  0  0
 22 23  1  0  0  0  0
 22 21  2  0  0  0  0
 24 22  1  0  0  0  0
 25 24  1  0  0  0  0
 26 24  2  0  0  0  0
 26 27  1  0  0  0  0
 27 20  2  0  0  0  0
M  END
>  <minimizedAffinity>
-5.15074253

$$$$

 OpenBabel03252507273D

 27 29  0  0  0  0  0  0  0  0999 V2000
   38.8220   31.3420   38.8770 C   0  0  0  0  0  0  0  0  0  0  0  0
   37.6460   31.4050   38.1300 C   0  0  0  0  0  0  0  0  0  0  0  0
   36.5580   30.5980   38.5370 C   0  0  0  0  0  0  0  0  0  0  0  0
   36.7210   29.8040   39.6390 N   0  0  0  0  0  0  0  0  0  0  0  0
   37.8720   29.7840   40.3160 C   0  0  0  0  0  0  0  0  0  0  0  0
   38.9020   30.5350   39.9470 N   0  0  0  0  0  0  0  0  0  0  0  0
   37.5270   32.0230   37.2770 H   0  0  0  0  0  0  0  0  0  0  0  0
   35.6230   30.6040   38.0010 H   0  0  0  0  0  0  0  0  0  0  0  0
   37.9970   28.9180   41.4860 C   0  0  0  0  0  0  0  0  0  0  0  0
   36.8740   28.3340   42.0550 C   0  0  0  0  0  0  0  0  0  0  0  0
   36.8710   27.5040   43.1540 C   0  0  0  0  0  0  0  0  0  0  0  0
   38.1370   27.2820   43.6790 C   0  0  0  0  0  0  0  0  0  0  0  0
   39.2830   27.8470   43.1410 C   0  0  0  0  0  0  0  0  0  0  0  0
   39.1950   28.6630   42.0430 N   0  0  0  0  0  0  0  0  0  0  0  0
   35.9050   28.5510   41.5900 H   0  0  0  0  0  0  0  0  0  0  0  0
   35.9690   27.0820   43.5480 H   0  0  0  0  0  0  0  0  0  0  0  0
   38.2350   26.6380   44.5510 H   0  0  0  0  0  0  0  0  0  0  0  0
   40.2600   27.6410   43.5920 H   0  0  0  0  0  0  0  0  0  0  0  0
   39.1870   33.8060   40.4850 Cl  0  0  0  0  0  0  0  0  0  0  0  0
   40.2560   33.3190   39.1830 C   0  0  0  0  0  0  0  0  0  0  0  0
   39.9790   32.1490   38.5080 C   0  0  0  0  0  0  0  0  0  0  0  0
   40.8720   31.8490   37.5030 C   0  0  0  0  0  0  0  0  0  0  0  0
   40.7180   30.9450   36.9300 H   0  0  0  0  0  0  0  0  0  0  0  0
   41.9510   32.6550   37.2010 C   0  0  0  0  0  0  0  0  0  0  0  0
   42.6120   32.3490   36.3920 H   0  0  0  0  0  0  0  0  0  0  0  0
   42.1830   33.8220   37.9120 C   0  0  0  0  0  3  0  0  0  0  0  0
   41.3140   34.1610   38.9270 C   0  0  0  0  0  3  0  0  0  0  0  0
  1  6  1  0  0  0  0
  2  3  1  0  0  0  0
  2  1  2  0  0  0  0
  3  4  2  0  0  0  0
  4  5  1  0  0  0  0
  5  9  1  0  0  0  0
  6  5  2  0  0  0  0
  7  2  1  0  0  0  0
  8  3  1  0  0  0  0
  9 14  2  0  0  0  0
  9 10  1  0  0  0  0
 10 11  2  0  0  0  0
 11 16  1  0  0  0  0
 11 12  1  0  0  0  0
 12 17  1  0  0  0  0
 13 18  1  0  0  0  0
 13 12  2  0  0  0  0
 14 13  1  0  0  0  0
 15 10  1  0  0  0  0
 20 19  1  0  0  0  0
 21  1  1  0  0  0  0
 21 20  2  0  0  0  0
 22 21  1  0  0  0  0
 23 22  1  0  0  0  0
 24 22  2  0  0  0  0
 24 26  1  0  0  0  0
 25 24  1  0  0  0  0
 26 27  2  0  0  0  0
 27 20  1  0  0  0  0
M  END
>  <minimizedAffinity>
-5.10683298

$$$$

 OpenBabel03252507273D

 27 29  0  0  0  0  0  0  0  0999 V2000
   35.7510   29.1220   39.5160 C   0  0  0  0  0  0  0  0  0  0  0  0
   35.8890   30.3250   40.2080 C   0  0  0  0  0  0  0  0  0  0  0  0
   36.6290   30.3150   41.4130 C   0  0  0  0  0  0  0  0  0  0  0  0
   37.1650   29.1270   41.8310 N   0  0  0  0  0  0  0  0  0  0  0  0
   37.0000   28.0050   41.1260 C   0  0  0  0  0  0  0  0  0  0  0  0
   36.3090   27.9980   39.9930 N   0  0  0  0  0  0  0  0  0  0  0  0
   35.4710   31.2410   39.8780 H   0  0  0  0  0  0  0  0  0  0  0  0
   36.7710   31.2130   41.9920 H   0  0  0  0  0  0  0  0  0  0  0  0
   37.5920   26.7620   41.6140 C   0  0  0  0  0  0  0  0  0  0  0  0
   37.0290   25.5360   41.2880 C   0  0  0  0  0  0  0  0  0  0  0  0
   37.4980   24.3050   41.6900 C   0  0  0  0  0  0  0  0  0  0  0  0
   38.6340   24.3820   42.4850 C   0  0  0  0  0  0  0  0  0  0  0  0
   39.2260   25.5860   42.8330 C   0  0  0  0  0  0  0  0  0  0  0  0
   38.6920   26.7680   42.3900 N   0  0  0  0  0  0  0  0  0  0  0  0
   36.1320   25.5470   40.6560 H   0  0  0  0  0  0  0  0  0  0  0  0
   37.0190   23.3910   41.4040 H   0  0  0  0  0  0  0  0  0  0  0  0
   39.0780   23.4590   42.8510 H   0  0  0  0  0  0  0  0  0  0  0  0
   40.1220   25.5940   43.4640 H   0  0  0  0  0  0  0  0  0  0  0  0
   37.3830   29.4600   37.0640 Cl  0  0  0  0  0  0  0  0  0  0  0  0
   35.6470   29.2110   37.0580 C   0  0  0  0  0  0  0  0  0  0  0  0
   35.0000   29.0670   38.2670 C   0  0  0  0  0  0  0  0  0  0  0  0
   33.6400   28.8760   38.1630 C   0  0  0  0  0  0  0  0  0  0  0  0
   33.0650   28.7550   39.0710 H   0  0  0  0  0  0  0  0  0  0  0  0
   32.9860   28.8330   36.9480 C   0  0  0  0  0  0  0  0  0  0  0  0
   31.9080   28.6780   36.9490 H   0  0  0  0  0  0  0  0  0  0  0  0
   33.6860   28.9830   35.7620 C   0  0  0  0  0  3  0  0  0  0  0  0
   35.0500   29.1770   35.8190 C   0  0  0  0  0  3  0  0  0  0  0  0
  1  6  2  0  0  0  0
  1  2  1  0  0  0  0
  2  3  2  0  0  0  0
  3  4  1  0  0  0  0
  3  8  1  0  0  0  0
  5  9  1  0  0  0  0
  5  4  2  0  0  0  0
  6  5  1  0  0  0  0
  7  2  1  0  0  0  0
  9 14  1  0  0  0  0
 10  9  2  0  0  0  0
 10 11  1  0  0  0  0
 11 12  2  0  0  0  0
 12 13  1  0  0  0  0
 12 17  1  0  0  0  0
 13 18  1  0  0  0  0
 14 13  2  0  0  0  0
 15 10  1  0  0  0  0
 16 11  1  0  0  0  0
 20 19  1  0  0  0  0
 20 21  1  0  0  0  0
 21  1  1  0  0  0  0
 22 21  2  0  0  0  0
 22 23  1  0  0  0  0
 24 25  1  0  0  0  0
 24 22  1  0  0  0  0
 26 27  1  0  0  0  0
 26 24  2  0  0  0  0
 27 20  2  0  0  0  0
M  END
>  <minimizedAffinity>
-5.0751915

$$$$

 OpenBabel03252507273D

 27 29  0  0  0  0  0  0  0  0999 V2000
   38.1190   29.2750   41.8360 C   0  0  0  0  0  0  0  0  0  0  0  0
   38.3400   29.0190   43.1900 C   0  0  0  0  0  0  0  0  0  0  0  0
   38.0620   27.7190   43.6720 C   0  0  0  0  0  0  0  0  0  0  0  0
   37.5930   26.7880   42.7850 N   0  0  0  0  0  0  0  0  0  0  0  0
   37.4010   27.0900   41.4990 C   0  0  0  0  0  0  0  0  0  0  0  0
   37.6570   28.3050   41.0310 N   0  0  0  0  0  0  0  0  0  0  0  0
   38.7030   29.7450   43.8700 H   0  0  0  0  0  0  0  0  0  0  0  0
   38.2130   27.4610   44.7070 H   0  0  0  0  0  0  0  0  0  0  0  0
   36.8990   26.0620   40.5920 C   0  0  0  0  0  0  0  0  0  0  0  0
   36.5070   26.3890   39.3010 C   0  0  0  0  0  0  0  0  0  0  0  0
   36.0200   25.5070   38.3620 C   0  0  0  0  0  0  0  0  0  0  0  0
   35.9450   24.1990   38.8230 C   0  0  0  0  0  0  0  0  0  0  0  0
   36.3250   23.8320   40.1050 C   0  0  0  0  0  0  0  0  0  0  0  0
   36.8000   24.7760   40.9770 N   0  0  0  0  0  0  0  0  0  0  0  0
   36.5930   27.4400   39.0010 H   0  0  0  0  0  0  0  0  0  0  0  0
   35.7340   25.8200   37.3790 H   0  0  0  0  0  0  0  0  0  0  0  0
   35.5710   23.4300   38.1510 H   0  0  0  0  0  0  0  0  0  0  0  0
   36.2470   22.7850   40.4210 H   0  0  0  0  0  0  0  0  0  0  0  0
   35.7610   30.6330   40.6610 Cl  0  0  0  0  0  0  0  0  0  0  0  0
   37.3700   31.3270   40.7030 C   0  0  0  0  0  0  0  0  0  0  0  0
   38.3870   30.5950   41.2780 C   0  0  0  0  0  0  0  0  0  0  0  0
   39.6150   31.2200   41.2640 C   0  0  0  0  0  0  0  0  0  0  0  0
   40.4600   30.7040   41.6980 H   0  0  0  0  0  0  0  0  0  0  0  0
   39.8040   32.4740   40.7190 C   0  0  0  0  0  0  0  0  0  0  0  0
   40.8050   32.9010   40.7470 H   0  0  0  0  0  0  0  0  0  0  0  0
   38.7460   33.1670   40.1530 C   0  0  0  0  0  3  0  0  0  0  0  0
   37.4990   32.5790   40.1450 C   0  0  0  0  0  3  0  0  0  0  0  0
  1  2  1  0  0  0  0
  2  3  2  0  0  0  0
  2  7  1  0  0  0  0
  3  8  1  0  0  0  0
  4  3  1  0  0  0  0
  5  4  2  0  0  0  0
  6  5  1  0  0  0  0
  6  1  2  0  0  0  0
  9 14  1  0  0  0  0
  9  5  1  0  0  0  0
 10  9  2  0  0  0  0
 11 12  2  0  0  0  0
 11 10  1  0  0  0  0
 12 13  1  0  0  0  0
 13 18  1  0  0  0  0
 13 14  2  0  0  0  0
 15 10  1  0  0  0  0
 16 11  1  0  0  0  0
 17 12  1  0  0  0  0
 19 20  1  0  0  0  0
 20 21  1  0  0  0  0
 21  1  1  0  0  0  0
 22 21  2  0  0  0  0
 22 23  1  0  0  0  0
 24 25  1  0  0  0  0
 24 22  1  0  0  0  0
 26 24  2  0  0  0  0
 27 26  1  0  0  0  0
 27 20  2  0  0  0  0
M  END
>  <minimizedAffinity>
-5.05925941

$$$$

 OpenBabel03252507273D

 27 29  0  0  0  0  0  0  0  0999 V2000
   37.5050   31.3660   40.0920 C   0  0  0  0  0  0  0  0  0  0  0  0
   37.4290   32.7450   39.8970 C   0  0  0  0  0  0  0  0  0  0  0  0
   38.4720   33.5470   40.4160 C   0  0  0  0  0  0  0  0  0  0  0  0
   39.4950   32.9240   41.0780 N   0  0  0  0  0  0  0  0  0  0  0  0
   39.5150   31.5980   41.2360 C   0  0  0  0  0  0  0  0  0  0  0  0
   38.5430   30.8330   40.7540 N   0  0  0  0  0  0  0  0  0  0  0  0
   36.6340   33.2200   39.3820 H   0  0  0  0  0  0  0  0  0  0  0  0
   38.4700   34.6170   40.2960 H   0  0  0  0  0  0  0  0  0  0  0  0
   40.6280   30.9810   41.9510 C   0  0  0  0  0  0  0  0  0  0  0  0
   40.6150   29.6240   42.2430 C   0  0  0  0  0  0  0  0  0  0  0  0
   41.6040   28.9360   42.9100 C   0  0  0  0  0  0  0  0  0  0  0  0
   42.6730   29.7390   43.2880 C   0  0  0  0  0  0  0  0  0  0  0  0
   42.7240   31.0980   43.0160 C   0  0  0  0  0  0  0  0  0  0  0  0
   41.6930   31.7030   42.3460 N   0  0  0  0  0  0  0  0  0  0  0  0
   39.7410   29.0480   41.9150 H   0  0  0  0  0  0  0  0  0  0  0  0
   41.5360   27.8860   43.1060 H   0  0  0  0  0  0  0  0  0  0  0  0
   43.5040   29.2830   43.8220 H   0  0  0  0  0  0  0  0  0  0  0  0
   43.5900   31.6880   43.3370 H   0  0  0  0  0  0  0  0  0  0  0  0
   37.6180   30.8610   37.1730 Cl  0  0  0  0  0  0  0  0  0  0  0  0
   36.4070   30.1750   38.2390 C   0  0  0  0  0  0  0  0  0  0  0  0
   36.4610   30.4860   39.5810 C   0  0  0  0  0  0  0  0  0  0  0  0
   35.4690   29.9020   40.3400 C   0  0  0  0  0  0  0  0  0  0  0  0
   35.4480   30.1020   41.4020 H   0  0  0  0  0  0  0  0  0  0  0  0
   34.5070   29.0760   39.7950 C   0  0  0  0  0  0  0  0  0  0  0  0
   33.7560   28.6520   40.4610 H   0  0  0  0  0  0  0  0  0  0  0  0
   34.4990   28.7960   38.4390 C   0  0  0  0  0  3  0  0  0  0  0  0
   35.4730   29.3590   37.6420 C   0  0  0  0  0  3  0  0  0  0  0  0
  1  6  1  0  0  0  0
  2  1  2  0  0  0  0
  2  3  1  0  0  0  0
  3  4  2  0  0  0  0
  4  5  1  0  0  0  0
  5  9  1  0  0  0  0
  6  5  2  0  0  0  0
  7  2  1  0  0  0  0
  8  3  1  0  0  0  0
  9 10  2  0  0  0  0
  9 14  1  0  0  0  0
 10 11  1  0  0  0  0
 11 16  1  0  0  0  0
 11 12  2  0  0  0  0
 12 17  1  0  0  0  0
 13 12  1  0  0  0  0
 13 18  1  0  0  0  0
 14 13  2  0  0  0  0
 15 10  1  0  0  0  0
 19 20  1  0  0  0  0
 20 21  1  0  0  0  0
 21  1  1  0  0  0  0
 21 22  2  0  0  0  0
 22 23  1  0  0  0  0
 24 22  1  0  0  0  0
 24 25  1  0  0  0  0
 26 24  2  0  0  0  0
 27 20  2  0  0  0  0
 27 26  1  0  0  0  0
M  END
>  <minimizedAffinity>
-5.04870844

$$$$

 OpenBabel03252507273D

 27 29  0  0  0  0  0  0  0  0999 V2000
   37.7540   29.4010   41.7060 C   0  0  0  0  0  0  0  0  0  0  0  0
   37.8340   29.2940   43.0950 C   0  0  0  0  0  0  0  0  0  0  0  0
   37.5730   28.0330   43.6790 C   0  0  0  0  0  0  0  0  0  0  0  0
   37.2590   26.9910   42.8500 N   0  0  0  0  0  0  0  0  0  0  0  0
   37.1970   27.1520   41.5260 C   0  0  0  0  0  0  0  0  0  0  0  0
   37.4390   28.3290   40.9630 N   0  0  0  0  0  0  0  0  0  0  0  0
   38.0790   30.1070   43.7300 H   0  0  0  0  0  0  0  0  0  0  0  0
   37.6200   27.8890   44.7460 H   0  0  0  0  0  0  0  0  0  0  0  0
   36.8560   26.0080   40.6830 C   0  0  0  0  0  0  0  0  0  0  0  0
   36.8870   24.7190   41.1970 C   0  0  0  0  0  0  0  0  0  0  0  0
   36.5880   23.5700   40.4990 C   0  0  0  0  0  0  0  0  0  0  0  0
   36.2330   23.8060   39.1770 C   0  0  0  0  0  0  0  0  0  0  0  0
   36.1900   25.0770   38.6270 C   0  0  0  0  0  0  0  0  0  0  0  0
   36.5040   26.1690   39.3940 N   0  0  0  0  0  0  0  0  0  0  0  0
   37.1760   24.6040   42.2490 H   0  0  0  0  0  0  0  0  0  0  0  0
   36.6300   22.6010   40.9510 H   0  0  0  0  0  0  0  0  0  0  0  0
   35.9790   22.9570   38.5460 H   0  0  0  0  0  0  0  0  0  0  0  0
   35.9030   25.2110   37.5780 H   0  0  0  0  0  0  0  0  0  0  0  0
   40.6220   30.0670   41.3560 Cl  0  0  0  0  0  0  0  0  0  0  0  0
   39.3060   31.0950   40.8230 C   0  0  0  0  0  0  0  0  0  0  0  0
   38.0120   30.6730   41.0440 C   0  0  0  0  0  0  0  0  0  0  0  0
   37.0460   31.5460   40.5910 C   0  0  0  0  0  0  0  0  0  0  0  0
   36.0070   31.2810   40.7300 H   0  0  0  0  0  0  0  0  0  0  0  0
   37.3550   32.7400   39.9690 C   0  0  0  0  0  0  0  0  0  0  0  0
   36.5350   33.3750   39.6390 H   0  0  0  0  0  0  0  0  0  0  0  0
   38.6740   33.1140   39.7720 C   0  0  0  0  0  3  0  0  0  0  0  0
   39.6740   32.2710   40.2100 C   0  0  0  0  0  3  0  0  0  0  0  0
  1  2  1  0  0  0  0
  2  3  2  0  0  0  0
  2  7  1  0  0  0  0
  3  8  1  0  0  0  0
  4  3  1  0  0  0  0
  5  4  2  0  0  0  0
  6  5  1  0  0  0  0
  6  1  2  0  0  0  0
  9 10  1  0  0  0  0
  9  5  1  0  0  0  0
 10 15  1  0  0  0  0
 11 16  1  0  0  0  0
 11 10  2  0  0  0  0
 12 11  1  0  0  0  0
 13 12  2  0  0  0  0
 13 14  1  0  0  0  0
 14  9  2  0  0  0  0
 17 12  1  0  0  0  0
 18 13  1  0  0  0  0
 20 21  1  0  0  0  0
 20 19  1  0  0  0  0
 21  1  1  0  0  0  0
 22 23  1  0  0  0  0
 22 21  2  0  0  0  0
 24 22  1  0  0  0  0
 25 24  1  0  0  0  0
 26 24  2  0  0  0  0
 26 27  1  0  0  0  0
 27 20  2  0  0  0  0
M  END
>  <minimizedAffinity>
-5.00852442

$$$$
