
 OpenBabel03242510553D

 31 33  0  0  0  0  0  0  0  0999 V2000
   39.5330   32.0670   40.3500 C   0  0  0  0  0  0  0  0  0  0  0  0
   38.5000   32.8690   39.8560 C   0  0  0  0  0  0  0  0  0  0  0  0
   37.1670   32.5290   39.9610 C   0  0  0  0  0  0  0  0  0  0  0  0
   36.8710   31.3440   40.5810 C   0  0  0  0  0  0  0  0  0  0  0  0
   37.8860   30.5400   41.0750 C   0  0  0  0  0  0  0  0  0  0  0  0
   39.1690   30.9210   40.9470 N   0  0  0  0  0  0  0  0  0  0  0  0
   38.7930   33.7990   39.3730 H   0  0  0  0  0  0  0  0  0  0  0  0
   36.3950   33.1510   39.5790 H   0  0  0  0  0  0  0  0  0  0  0  0
   35.8260   31.0840   40.6590 H   0  0  0  0  0  0  0  0  0  0  0  0
   44.8190   34.3070   42.2240 C   0  0  0  0  0  0  0  0  0  0  0  0
   45.4650   34.3490   40.9870 C   0  0  0  0  0  0  0  0  0  0  0  0
   44.7260   33.9750   39.8590 C   0  0  0  0  0  0  0  0  0  0  0  0
   43.4220   33.5930   40.0250 N   0  0  0  0  0  0  0  0  0  0  0  0
   42.8450   33.5700   41.2390 C   0  0  0  0  0  0  0  0  0  0  0  0
   43.5340   33.9260   42.3570 N   0  0  0  0  0  0  0  0  0  0  0  0
   40.9300   32.4750   40.2120 C   0  0  0  0  0  0  0  0  0  0  0  0
   41.5560   32.2190   39.1600 O   0  0  0  0  0  0  0  0  0  0  0  0
   41.4910   33.1650   41.3490 N   0  0  0  0  0  0  0  0  0  0  0  0
   45.4090   34.6000   43.0900 H   0  0  0  0  0  0  0  0  0  0  0  0
   46.4970   34.6560   40.8840 H   0  0  0  0  0  0  0  0  0  0  0  0
   45.1690   33.9860   38.8710 H   0  0  0  0  0  0  0  0  0  0  0  0
   40.9540   33.3780   42.2410 H   0  0  0  0  0  0  0  0  0  0  0  0
   37.5260   28.2450   39.2480 Cl  0  0  0  0  0  0  0  0  0  0  0  0
   37.3990   28.1270   41.0030 C   0  0  0  0  0  0  0  0  0  0  0  0
   37.5900   29.2770   41.7370 C   0  0  0  0  0  0  0  0  0  0  0  0
   37.4740   29.0990   43.0970 C   0  0  0  0  0  0  0  0  0  0  0  0
   37.6090   29.9500   43.7440 H   0  0  0  0  0  0  0  0  0  0  0  0
   37.1920   27.8790   43.6750 C   0  0  0  0  0  0  0  0  0  0  0  0
   37.1180   27.8270   44.7580 H   0  0  0  0  0  0  0  0  0  0  0  0
   37.0100   26.7580   42.8900 C   0  0  0  0  0  3  0  0  0  0  0  0
   37.1150   26.8790   41.5200 C   0  0  0  0  0  3  0  0  0  0  0  0
  1  6  1  0  0  0  0
  2  3  1  0  0  0  0
  2  1  2  0  0  0  0
  3  4  2  0  0  0  0
  4  9  1  0  0  0  0
  4  5  1  0  0  0  0
  5 25  1  0  0  0  0
  6  5  2  0  0  0  0
  7  2  1  0  0  0  0
  8  3  1  0  0  0  0
 10 15  1  0  0  0  0
 10 19  1  0  0  0  0
 11 10  2  0  0  0  0
 12 13  2  0  0  0  0
 12 11  1  0  0  0  0
 13 14  1  0  0  0  0
 14 18  1  0  0  0  0
 14 15  2  0  0  0  0
 16  1  1  0  0  0  0
 16 18  1  0  0  0  0
 17 16  2  0  0  0  0
 18 22  1  0  0  0  0
 20 11  1  0  0  0  0
 21 12  1  0  0  0  0
 23 24  1  0  0  0  0
 24 31  2  0  0  0  0
 24 25  1  0  0  0  0
 25 26  2  0  0  0  0
 26 28  1  0  0  0  0
 26 27  1  0  0  0  0
 28 29  1  0  0  0  0
 30 28  2  0  0  0  0
 31 30  1  0  0  0  0
M  END
>  <minimizedAffinity>
-6.00166225

$$$$

 OpenBabel03242510553D

 31 33  0  0  0  0  0  0  0  0999 V2000
   37.9220   30.3830   40.9240 C   0  0  0  0  0  0  0  0  0  0  0  0
   36.6780   30.9670   40.6620 C   0  0  0  0  0  0  0  0  0  0  0  0
   35.5260   30.2310   40.4770 C   0  0  0  0  0  0  0  0  0  0  0  0
   35.6340   28.8670   40.5580 C   0  0  0  0  0  0  0  0  0  0  0  0
   36.8610   28.2770   40.8170 C   0  0  0  0  0  0  0  0  0  0  0  0
   37.9520   29.0430   40.9900 N   0  0  0  0  0  0  0  0  0  0  0  0
   36.6510   32.0520   40.6090 H   0  0  0  0  0  0  0  0  0  0  0  0
   34.5890   30.6910   40.2790 H   0  0  0  0  0  0  0  0  0  0  0  0
   34.7290   28.2990   40.4120 H   0  0  0  0  0  0  0  0  0  0  0  0
   42.1750   34.3490   39.2930 C   0  0  0  0  0  0  0  0  0  0  0  0
   42.9910   34.2380   40.4210 C   0  0  0  0  0  0  0  0  0  0  0  0
   42.6260   33.2980   41.3920 C   0  0  0  0  0  0  0  0  0  0  0  0
   41.5020   32.5440   41.1880 N   0  0  0  0  0  0  0  0  0  0  0  0
   40.7490   32.6890   40.0840 C   0  0  0  0  0  0  0  0  0  0  0  0
   41.0730   33.5920   39.1190 N   0  0  0  0  0  0  0  0  0  0  0  0
   39.1130   31.2100   41.1110 C   0  0  0  0  0  0  0  0  0  0  0  0
   39.6410   31.3000   42.2410 O   0  0  0  0  0  0  0  0  0  0  0  0
   39.5950   31.8800   39.9280 N   0  0  0  0  0  0  0  0  0  0  0  0
   42.4720   35.0830   38.5490 H   0  0  0  0  0  0  0  0  0  0  0  0
   43.8740   34.8460   40.5560 H   0  0  0  0  0  0  0  0  0  0  0  0
   43.2170   33.1630   42.2890 H   0  0  0  0  0  0  0  0  0  0  0  0
   39.1410   31.8000   38.9700 H   0  0  0  0  0  0  0  0  0  0  0  0
   36.5390   27.1750   43.5400 Cl  0  0  0  0  0  0  0  0  0  0  0  0
   36.8670   26.1860   42.1180 C   0  0  0  0  0  0  0  0  0  0  0  0
   36.9950   26.8300   40.9060 C   0  0  0  0  0  0  0  0  0  0  0  0
   37.2510   25.9870   39.8480 C   0  0  0  0  0  0  0  0  0  0  0  0
   37.3640   26.4120   38.8640 H   0  0  0  0  0  0  0  0  0  0  0  0
   37.3690   24.6200   39.9870 C   0  0  0  0  0  0  0  0  0  0  0  0
   37.5710   24.0290   39.0980 H   0  0  0  0  0  0  0  0  0  0  0  0
   37.2310   24.0280   41.2260 C   0  0  0  0  0  3  0  0  0  0  0  0
   36.9740   24.8250   42.3220 C   0  0  0  0  0  3  0  0  0  0  0  0
  1  6  1  0  0  0  0
  1 16  1  0  0  0  0
  2  1  2  0  0  0  0
  3  4  2  0  0  0  0
  3  2  1  0  0  0  0
  4  5  1  0  0  0  0
  5 25  1  0  0  0  0
  5  6  2  0  0  0  0
  7  2  1  0  0  0  0
  8  3  1  0  0  0  0
  9  4  1  0  0  0  0
 10 11  1  0  0  0  0
 11 20  1  0  0  0  0
 11 12  2  0  0  0  0
 12 21  1  0  0  0  0
 13 12  1  0  0  0  0
 14 13  2  0  0  0  0
 15 10  2  0  0  0  0
 15 14  1  0  0  0  0
 16 17  2  0  0  0  0
 18 14  1  0  0  0  0
 18 16  1  0  0  0  0
 19 10  1  0  0  0  0
 22 18  1  0  0  0  0
 24 31  1  0  0  0  0
 24 23  1  0  0  0  0
 25 24  2  0  0  0  0
 26 28  2  0  0  0  0
 26 25  1  0  0  0  0
 27 26  1  0  0  0  0
 28 30  1  0  0  0  0
 29 28  1  0  0  0  0
 30 31  2  0  0  0  0
M  END
>  <minimizedAffinity>
-5.92352152

$$$$

 OpenBabel03242510553D

 31 33  0  0  0  0  0  0  0  0999 V2000
   38.4920   29.8390   42.0450 C   0  0  0  0  0  0  0  0  0  0  0  0
   38.2770   29.1320   43.2330 C   0  0  0  0  0  0  0  0  0  0  0  0
   37.2730   28.1970   43.3810 C   0  0  0  0  0  0  0  0  0  0  0  0
   36.4630   27.9710   42.3000 C   0  0  0  0  0  0  0  0  0  0  0  0
   36.6660   28.6650   41.1170 C   0  0  0  0  0  0  0  0  0  0  0  0
   37.6610   29.5650   41.0270 N   0  0  0  0  0  0  0  0  0  0  0  0
   38.9500   29.3510   44.0590 H   0  0  0  0  0  0  0  0  0  0  0  0
   37.1250   27.6690   44.2920 H   0  0  0  0  0  0  0  0  0  0  0  0
   35.6800   27.2390   42.4240 H   0  0  0  0  0  0  0  0  0  0  0  0
   41.5970   34.3480   39.4980 C   0  0  0  0  0  0  0  0  0  0  0  0
   42.6920   34.3480   40.3660 C   0  0  0  0  0  0  0  0  0  0  0  0
   42.7270   33.3670   41.3620 C   0  0  0  0  0  0  0  0  0  0  0  0
   41.6970   32.4670   41.4340 N   0  0  0  0  0  0  0  0  0  0  0  0
   40.6650   32.5090   40.5750 C   0  0  0  0  0  0  0  0  0  0  0  0
   40.5980   33.4490   39.5940 N   0  0  0  0  0  0  0  0  0  0  0  0
   39.5710   30.8200   41.9420 C   0  0  0  0  0  0  0  0  0  0  0  0
   40.3650   30.9800   42.8940 O   0  0  0  0  0  0  0  0  0  0  0  0
   39.6270   31.5500   40.6990 N   0  0  0  0  0  0  0  0  0  0  0  0
   41.5870   35.1180   38.7300 H   0  0  0  0  0  0  0  0  0  0  0  0
   43.4920   35.0710   40.2850 H   0  0  0  0  0  0  0  0  0  0  0  0
   43.5480   33.3120   42.0660 H   0  0  0  0  0  0  0  0  0  0  0  0
   38.9490   31.4100   39.8930 H   0  0  0  0  0  0  0  0  0  0  0  0
   37.5490   26.4660   39.3510 Cl  0  0  0  0  0  0  0  0  0  0  0  0
   36.1130   27.4430   39.0520 C   0  0  0  0  0  0  0  0  0  0  0  0
   35.8150   28.4390   39.9580 C   0  0  0  0  0  0  0  0  0  0  0  0
   34.6800   29.1530   39.6510 C   0  0  0  0  0  0  0  0  0  0  0  0
   34.3760   29.9510   40.3100 H   0  0  0  0  0  0  0  0  0  0  0  0
   33.9070   28.8980   38.5380 C   0  0  0  0  0  0  0  0  0  0  0  0
   33.0250   29.5110   38.3710 H   0  0  0  0  0  0  0  0  0  0  0  0
   34.2520   27.8880   37.6630 C   0  0  0  0  0  3  0  0  0  0  0  0
   35.3810   27.1380   37.9210 C   0  0  0  0  0  3  0  0  0  0  0  0
  1  2  1  0  0  0  0
  2  3  2  0  0  0  0
  2  7  1  0  0  0  0
  3  8  1  0  0  0  0
  4  9  1  0  0  0  0
  4  3  1  0  0  0  0
  5  4  2  0  0  0  0
  6  5  1  0  0  0  0
  6  1  2  0  0  0  0
 10 15  2  0  0  0  0
 10 11  1  0  0  0  0
 11 12  2  0  0  0  0
 12 13  1  0  0  0  0
 12 21  1  0  0  0  0
 14 18  1  0  0  0  0
 14 13  2  0  0  0  0
 15 14  1  0  0  0  0
 16  1  1  0  0  0  0
 16 17  2  0  0  0  0
 18 16  1  0  0  0  0
 19 10  1  0  0  0  0
 20 11  1  0  0  0  0
 22 18  1  0  0  0  0
 24 23  1  0  0  0  0
 24 25  1  0  0  0  0
 25  5  1  0  0  0  0
 26 25  2  0  0  0  0
 26 27  1  0  0  0  0
 28 26  1  0  0  0  0
 29 28  1  0  0  0  0
 30 31  1  0  0  0  0
 30 28  2  0  0  0  0
 31 24  2  0  0  0  0
M  END
>  <minimizedAffinity>
-5.86942911

$$$$

 OpenBabel03242510553D

 31 33  0  0  0  0  0  0  0  0999 V2000
   38.1060   28.6080   42.0590 C   0  0  0  0  0  0  0  0  0  0  0  0
   37.3360   28.6660   43.2250 C   0  0  0  0  0  0  0  0  0  0  0  0
   36.5770   27.6070   43.6790 C   0  0  0  0  0  0  0  0  0  0  0  0
   36.5960   26.4580   42.9330 C   0  0  0  0  0  0  0  0  0  0  0  0
   37.3550   26.3880   41.7750 C   0  0  0  0  0  0  0  0  0  0  0  0
   38.0770   27.4510   41.3790 N   0  0  0  0  0  0  0  0  0  0  0  0
   37.3580   29.6020   43.7780 H   0  0  0  0  0  0  0  0  0  0  0  0
   35.9980   27.6690   44.5680 H   0  0  0  0  0  0  0  0  0  0  0  0
   35.9990   25.6340   43.2940 H   0  0  0  0  0  0  0  0  0  0  0  0
   38.9740   34.3060   40.2570 C   0  0  0  0  0  0  0  0  0  0  0  0
   40.3310   34.2080   39.9380 C   0  0  0  0  0  0  0  0  0  0  0  0
   40.9330   32.9500   40.0570 C   0  0  0  0  0  0  0  0  0  0  0  0
   40.1690   31.8930   40.4750 N   0  0  0  0  0  0  0  0  0  0  0  0
   38.8660   32.0390   40.7700 C   0  0  0  0  0  0  0  0  0  0  0  0
   38.2480   33.2470   40.6650 N   0  0  0  0  0  0  0  0  0  0  0  0
   38.8910   29.7610   41.6220 C   0  0  0  0  0  0  0  0  0  0  0  0
   40.1410   29.7080   41.6340 O   0  0  0  0  0  0  0  0  0  0  0  0
   38.1260   30.9080   41.1970 N   0  0  0  0  0  0  0  0  0  0  0  0
   38.5230   35.2900   40.1580 H   0  0  0  0  0  0  0  0  0  0  0  0
   40.9100   35.0590   39.6100 H   0  0  0  0  0  0  0  0  0  0  0  0
   41.9800   32.8070   39.8250 H   0  0  0  0  0  0  0  0  0  0  0  0
   37.0640   30.9470   41.1900 H   0  0  0  0  0  0  0  0  0  0  0  0
   39.3730   24.4000   42.6190 Cl  0  0  0  0  0  0  0  0  0  0  0  0
   38.2810   24.1670   41.2550 C   0  0  0  0  0  0  0  0  0  0  0  0
   37.3870   25.1760   40.9690 C   0  0  0  0  0  0  0  0  0  0  0  0
   36.5720   24.9150   39.8910 C   0  0  0  0  0  0  0  0  0  0  0  0
   35.8430   25.6540   39.6010 H   0  0  0  0  0  0  0  0  0  0  0  0
   36.6430   23.7480   39.1600 C   0  0  0  0  0  0  0  0  0  0  0  0
   35.9610   23.6230   38.3220 H   0  0  0  0  0  0  0  0  0  0  0  0
   37.5590   22.7700   39.4900 C   0  0  0  0  0  3  0  0  0  0  0  0
   38.4010   22.9780   40.5630 C   0  0  0  0  0  3  0  0  0  0  0  0
  1  2  1  0  0  0  0
  2  3  2  0  0  0  0
  2  7  1  0  0  0  0
  3  8  1  0  0  0  0
  4  9  1  0  0  0  0
  4  3  1  0  0  0  0
  5  4  2  0  0  0  0
  6  5  1  0  0  0  0
  6  1  2  0  0  0  0
 10 15  1  0  0  0  0
 11 12  1  0  0  0  0
 11 10  2  0  0  0  0
 12 13  2  0  0  0  0
 13 14  1  0  0  0  0
 14 18  1  0  0  0  0
 15 14  2  0  0  0  0
 16 17  2  0  0  0  0
 16  1  1  0  0  0  0
 18 16  1  0  0  0  0
 19 10  1  0  0  0  0
 20 11  1  0  0  0  0
 21 12  1  0  0  0  0
 22 18  1  0  0  0  0
 24 23  1  0  0  0  0
 25 24  1  0  0  0  0
 25  5  1  0  0  0  0
 26 25  2  0  0  0  0
 27 26  1  0  0  0  0
 28 30  2  0  0  0  0
 28 26  1  0  0  0  0
 29 28  1  0  0  0  0
 30 31  1  0  0  0  0
 31 24  2  0  0  0  0
M  END
>  <minimizedAffinity>
-5.83046246

$$$$

 OpenBabel03242510553D

 31 33  0  0  0  0  0  0  0  0999 V2000
   37.9930   30.3640   39.7300 C   0  0  0  0  0  0  0  0  0  0  0  0
   36.8960   31.1140   40.1660 C   0  0  0  0  0  0  0  0  0  0  0  0
   35.7950   30.5500   40.7780 C   0  0  0  0  0  0  0  0  0  0  0  0
   35.8040   29.1920   40.9540 C   0  0  0  0  0  0  0  0  0  0  0  0
   36.8860   28.4380   40.5270 C   0  0  0  0  0  0  0  0  0  0  0  0
   37.9330   29.0390   39.9360 N   0  0  0  0  0  0  0  0  0  0  0  0
   36.9420   32.1880   40.0010 H   0  0  0  0  0  0  0  0  0  0  0  0
   34.9700   31.1360   41.1030 H   0  0  0  0  0  0  0  0  0  0  0  0
   34.9400   28.7580   41.4330 H   0  0  0  0  0  0  0  0  0  0  0  0
   42.5680   34.2820   39.2940 C   0  0  0  0  0  0  0  0  0  0  0  0
   42.9090   34.0390   37.9620 C   0  0  0  0  0  0  0  0  0  0  0  0
   42.1170   33.1350   37.2460 C   0  0  0  0  0  0  0  0  0  0  0  0
   41.0590   32.5420   37.8820 N   0  0  0  0  0  0  0  0  0  0  0  0
   40.7710   32.8090   39.1680 C   0  0  0  0  0  0  0  0  0  0  0  0
   41.5210   33.6830   39.8940 N   0  0  0  0  0  0  0  0  0  0  0  0
   39.1340   31.0120   39.0850 C   0  0  0  0  0  0  0  0  0  0  0  0
   39.5860   30.5590   38.0110 O   0  0  0  0  0  0  0  0  0  0  0  0
   39.6630   32.1640   39.7730 N   0  0  0  0  0  0  0  0  0  0  0  0
   43.1950   34.9870   39.8350 H   0  0  0  0  0  0  0  0  0  0  0  0
   43.7500   34.5230   37.4840 H   0  0  0  0  0  0  0  0  0  0  0  0
   42.3280   32.9040   36.2100 H   0  0  0  0  0  0  0  0  0  0  0  0
   39.2750   32.5440   40.6870 H   0  0  0  0  0  0  0  0  0  0  0  0
   37.8120   27.5400   43.1860 Cl  0  0  0  0  0  0  0  0  0  0  0  0
   37.3230   26.4400   41.8980 C   0  0  0  0  0  0  0  0  0  0  0  0
   36.9120   26.9930   40.7050 C   0  0  0  0  0  0  0  0  0  0  0  0
   36.5490   26.0670   39.7540 C   0  0  0  0  0  0  0  0  0  0  0  0
   36.2140   26.4170   38.7910 H   0  0  0  0  0  0  0  0  0  0  0  0
   36.5930   24.7060   39.9730 C   0  0  0  0  0  0  0  0  0  0  0  0
   36.2870   24.0440   39.1670 H   0  0  0  0  0  0  0  0  0  0  0  0
   37.0130   24.2060   41.1890 C   0  0  0  0  0  3  0  0  0  0  0  0
   37.3890   25.0900   42.1800 C   0  0  0  0  0  3  0  0  0  0  0  0
  1  6  2  0  0  0  0
  1  2  1  0  0  0  0
  2  3  2  0  0  0  0
  3  4  1  0  0  0  0
  3  8  1  0  0  0  0
  4  9  1  0  0  0  0
  5 25  1  0  0  0  0
  5  4  2  0  0  0  0
  6  5  1  0  0  0  0
  7  2  1  0  0  0  0
 10 19  1  0  0  0  0
 10 15  1  0  0  0  0
 11 10  2  0  0  0  0
 12 13  2  0  0  0  0
 12 11  1  0  0  0  0
 13 14  1  0  0  0  0
 14 18  1  0  0  0  0
 14 15  2  0  0  0  0
 16  1  1  0  0  0  0
 16 18  1  0  0  0  0
 17 16  2  0  0  0  0
 18 22  1  0  0  0  0
 20 11  1  0  0  0  0
 21 12  1  0  0  0  0
 24 31  1  0  0  0  0
 24 23  1  0  0  0  0
 25 24  2  0  0  0  0
 26 28  2  0  0  0  0
 26 25  1  0  0  0  0
 27 26  1  0  0  0  0
 28 30  1  0  0  0  0
 29 28  1  0  0  0  0
 30 31  2  0  0  0  0
M  END
>  <minimizedAffinity>
-5.81217575

$$$$

 OpenBabel03242510553D

 31 33  0  0  0  0  0  0  0  0999 V2000
   39.4040   30.7050   38.4360 C   0  0  0  0  0  0  0  0  0  0  0  0
   38.5080   31.7070   38.0480 C   0  0  0  0  0  0  0  0  0  0  0  0
   37.3230   31.9530   38.7110 C   0  0  0  0  0  0  0  0  0  0  0  0
   37.0350   31.1650   39.7940 C   0  0  0  0  0  0  0  0  0  0  0  0
   37.9150   30.1700   40.1880 C   0  0  0  0  0  0  0  0  0  0  0  0
   39.0570   29.9730   39.5070 N   0  0  0  0  0  0  0  0  0  0  0  0
   38.7870   32.3020   37.1820 H   0  0  0  0  0  0  0  0  0  0  0  0
   36.6540   32.7190   38.4020 H   0  0  0  0  0  0  0  0  0  0  0  0
   36.1060   31.3640   40.3060 H   0  0  0  0  0  0  0  0  0  0  0  0
   45.0570   31.9270   36.6980 C   0  0  0  0  0  0  0  0  0  0  0  0
   45.1710   30.9550   35.7010 C   0  0  0  0  0  0  0  0  0  0  0  0
   44.0420   30.1750   35.4270 C   0  0  0  0  0  0  0  0  0  0  0  0
   42.8960   30.4040   36.1410 N   0  0  0  0  0  0  0  0  0  0  0  0
   42.8370   31.3530   37.0910 C   0  0  0  0  0  0  0  0  0  0  0  0
   43.9150   32.1290   37.3840 N   0  0  0  0  0  0  0  0  0  0  0  0
   40.6470   30.4850   37.6980 C   0  0  0  0  0  0  0  0  0  0  0  0
   40.8070   29.4340   37.0410 O   0  0  0  0  0  0  0  0  0  0  0  0
   41.6230   31.5440   37.7970 N   0  0  0  0  0  0  0  0  0  0  0  0
   45.9440   32.5230   36.8980 H   0  0  0  0  0  0  0  0  0  0  0  0
   46.0890   30.7960   35.1520 H   0  0  0  0  0  0  0  0  0  0  0  0
   44.0650   29.4050   34.6660 H   0  0  0  0  0  0  0  0  0  0  0  0
   41.4810   32.4350   38.3580 H   0  0  0  0  0  0  0  0  0  0  0  0
   36.2220   27.8220   39.5920 Cl  0  0  0  0  0  0  0  0  0  0  0  0
   36.8470   28.1940   41.1980 C   0  0  0  0  0  0  0  0  0  0  0  0
   37.6260   29.3230   41.3360 C   0  0  0  0  0  0  0  0  0  0  0  0
   38.0740   29.5400   42.6200 C   0  0  0  0  0  0  0  0  0  0  0  0
   38.6900   30.4030   42.8130 H   0  0  0  0  0  0  0  0  0  0  0  0
   37.7700   28.7050   43.6740 C   0  0  0  0  0  0  0  0  0  0  0  0
   38.1660   28.9510   44.6560 H   0  0  0  0  0  0  0  0  0  0  0  0
   36.9850   27.5870   43.4780 C   0  0  0  0  0  3  0  0  0  0  0  0
   36.5090   27.3200   42.2110 C   0  0  0  0  0  3  0  0  0  0  0  0
  1  6  1  0  0  0  0
  2  1  2  0  0  0  0
  2  3  1  0  0  0  0
  3  4  2  0  0  0  0
  4  5  1  0  0  0  0
  4  9  1  0  0  0  0
  5 25  1  0  0  0  0
  6  5  2  0  0  0  0
  7  2  1  0  0  0  0
  8  3  1  0  0  0  0
 10 19  1  0  0  0  0
 10 15  1  0  0  0  0
 11 10  2  0  0  0  0
 12 11  1  0  0  0  0
 12 13  2  0  0  0  0
 13 14  1  0  0  0  0
 14 15  2  0  0  0  0
 14 18  1  0  0  0  0
 16 18  1  0  0  0  0
 16  1  1  0  0  0  0
 17 16  2  0  0  0  0
 18 22  1  0  0  0  0
 20 11  1  0  0  0  0
 21 12  1  0  0  0  0
 23 24  1  0  0  0  0
 24 25  2  0  0  0  0
 24 31  1  0  0  0  0
 25 26  1  0  0  0  0
 26 27  1  0  0  0  0
 26 28  2  0  0  0  0
 28 29  1  0  0  0  0
 30 28  1  0  0  0  0
 31 30  2  0  0  0  0
M  END
>  <minimizedAffinity>
-5.74188948

$$$$

 OpenBabel03242510553D

 31 33  0  0  0  0  0  0  0  0999 V2000
   38.9580   30.1910   38.2140 C   0  0  0  0  0  0  0  0  0  0  0  0
   37.8510   30.7200   37.5440 C   0  0  0  0  0  0  0  0  0  0  0  0
   36.5580   30.2970   37.7760 C   0  0  0  0  0  0  0  0  0  0  0  0
   36.3800   29.3110   38.7110 C   0  0  0  0  0  0  0  0  0  0  0  0
   37.4700   28.7790   39.3830 C   0  0  0  0  0  0  0  0  0  0  0  0
   38.7090   29.2290   39.1170 N   0  0  0  0  0  0  0  0  0  0  0  0
   38.0500   31.4990   36.8120 H   0  0  0  0  0  0  0  0  0  0  0  0
   35.7280   30.7100   37.2570 H   0  0  0  0  0  0  0  0  0  0  0  0
   35.3670   28.9850   38.8870 H   0  0  0  0  0  0  0  0  0  0  0  0
   44.2680   30.2970   35.3390 C   0  0  0  0  0  0  0  0  0  0  0  0
   44.9140   31.2300   36.1540 C   0  0  0  0  0  0  0  0  0  0  0  0
   44.2180   31.7050   37.2710 C   0  0  0  0  0  0  0  0  0  0  0  0
   42.9540   31.2350   37.5060 N   0  0  0  0  0  0  0  0  0  0  0  0
   42.3740   30.3360   36.6910 C   0  0  0  0  0  0  0  0  0  0  0  0
   43.0220   29.8530   35.5960 N   0  0  0  0  0  0  0  0  0  0  0  0
   40.3080   30.6750   37.9290 C   0  0  0  0  0  0  0  0  0  0  0  0
   40.7340   31.7080   38.4890 O   0  0  0  0  0  0  0  0  0  0  0  0
   41.0620   29.8860   36.9850 N   0  0  0  0  0  0  0  0  0  0  0  0
   44.8230   29.9400   34.4760 H   0  0  0  0  0  0  0  0  0  0  0  0
   45.9150   31.5840   35.9450 H   0  0  0  0  0  0  0  0  0  0  0  0
   44.6630   32.4280   37.9420 H   0  0  0  0  0  0  0  0  0  0  0  0
   40.6950   29.0090   36.5110 H   0  0  0  0  0  0  0  0  0  0  0  0
   37.3080   29.7450   42.1710 Cl  0  0  0  0  0  0  0  0  0  0  0  0
   37.2100   28.0440   41.7180 C   0  0  0  0  0  0  0  0  0  0  0  0
   37.3010   27.7320   40.3790 C   0  0  0  0  0  0  0  0  0  0  0  0
   37.2150   26.3840   40.1110 C   0  0  0  0  0  0  0  0  0  0  0  0
   37.2770   26.0550   39.0870 H   0  0  0  0  0  0  0  0  0  0  0  0
   37.0550   25.4300   41.0940 C   0  0  0  0  0  0  0  0  0  0  0  0
   36.9960   24.3870   40.7940 H   0  0  0  0  0  0  0  0  0  0  0  0
   36.9700   25.8000   42.4210 C   0  0  0  0  0  3  0  0  0  0  0  0
   37.0490   27.1380   42.7480 C   0  0  0  0  0  3  0  0  0  0  0  0
  1  6  1  0  0  0  0
  2  3  1  0  0  0  0
  2  1  2  0  0  0  0
  3  4  2  0  0  0  0
  4  9  1  0  0  0  0
  4  5  1  0  0  0  0
  5 25  1  0  0  0  0
  6  5  2  0  0  0  0
  7  2  1  0  0  0  0
  8  3  1  0  0  0  0
 10 15  2  0  0  0  0
 10 11  1  0  0  0  0
 11 12  2  0  0  0  0
 12 13  1  0  0  0  0
 12 21  1  0  0  0  0
 14 18  1  0  0  0  0
 14 13  2  0  0  0  0
 15 14  1  0  0  0  0
 16  1  1  0  0  0  0
 16 17  2  0  0  0  0
 18 16  1  0  0  0  0
 19 10  1  0  0  0  0
 20 11  1  0  0  0  0
 22 18  1  0  0  0  0
 24 23  1  0  0  0  0
 24 31  1  0  0  0  0
 25 24  2  0  0  0  0
 26 25  1  0  0  0  0
 26 28  2  0  0  0  0
 27 26  1  0  0  0  0
 28 30  1  0  0  0  0
 29 28  1  0  0  0  0
 30 31  2  0  0  0  0
M  END
>  <minimizedAffinity>
-5.62819624

$$$$

 OpenBabel03242510553D

 31 33  0  0  0  0  0  0  0  0999 V2000
   38.4470   30.4380   40.0930 C   0  0  0  0  0  0  0  0  0  0  0  0
   37.3600   31.2670   40.3870 C   0  0  0  0  0  0  0  0  0  0  0  0
   36.1430   30.7860   40.8260 C   0  0  0  0  0  0  0  0  0  0  0  0
   36.0220   29.4300   40.9710 C   0  0  0  0  0  0  0  0  0  0  0  0
   37.0920   28.5970   40.6830 C   0  0  0  0  0  0  0  0  0  0  0  0
   38.2550   29.1190   40.2580 N   0  0  0  0  0  0  0  0  0  0  0  0
   37.5120   32.3360   40.2540 H   0  0  0  0  0  0  0  0  0  0  0  0
   35.3280   31.4320   41.0450 H   0  0  0  0  0  0  0  0  0  0  0  0
   35.0670   29.0610   41.3140 H   0  0  0  0  0  0  0  0  0  0  0  0
   43.2090   30.9680   36.4180 C   0  0  0  0  0  0  0  0  0  0  0  0
   43.9470   31.8760   37.1820 C   0  0  0  0  0  0  0  0  0  0  0  0
   43.4260   32.2470   38.4260 C   0  0  0  0  0  0  0  0  0  0  0  0
   42.2340   31.7060   38.8280 N   0  0  0  0  0  0  0  0  0  0  0  0
   41.5610   30.8350   38.0550 C   0  0  0  0  0  0  0  0  0  0  0  0
   42.0380   30.4530   36.8390 N   0  0  0  0  0  0  0  0  0  0  0  0
   39.7140   31.0000   39.6290 C   0  0  0  0  0  0  0  0  0  0  0  0
   40.1900   32.0140   40.1850 O   0  0  0  0  0  0  0  0  0  0  0  0
   40.3310   30.3080   38.5240 N   0  0  0  0  0  0  0  0  0  0  0  0
   43.6280   30.6920   35.4540 H   0  0  0  0  0  0  0  0  0  0  0  0
   44.8870   32.2870   36.8410 H   0  0  0  0  0  0  0  0  0  0  0  0
   43.9500   32.9450   39.0670 H   0  0  0  0  0  0  0  0  0  0  0  0
   39.9220   29.4470   38.0550 H   0  0  0  0  0  0  0  0  0  0  0  0
   37.5280   27.6010   43.4310 Cl  0  0  0  0  0  0  0  0  0  0  0  0
   37.1610   26.5570   42.0600 C   0  0  0  0  0  0  0  0  0  0  0  0
   36.9810   27.1530   40.8300 C   0  0  0  0  0  0  0  0  0  0  0  0
   36.6990   26.2670   39.8140 C   0  0  0  0  0  0  0  0  0  0  0  0
   36.5440   26.6530   38.8200 H   0  0  0  0  0  0  0  0  0  0  0  0
   36.6050   24.9050   40.0080 C   0  0  0  0  0  0  0  0  0  0  0  0
   36.3790   24.2780   39.1500 H   0  0  0  0  0  0  0  0  0  0  0  0
   36.7960   24.3620   41.2620 C   0  0  0  0  0  3  0  0  0  0  0  0
   37.0810   25.2030   42.3180 C   0  0  0  0  0  3  0  0  0  0  0  0
  1  6  2  0  0  0  0
  1  2  1  0  0  0  0
  2  3  2  0  0  0  0
  3  4  1  0  0  0  0
  3  8  1  0  0  0  0
  4  9  1  0  0  0  0
  5 25  1  0  0  0  0
  5  4  2  0  0  0  0
  6  5  1  0  0  0  0
  7  2  1  0  0  0  0
 10 15  2  0  0  0  0
 10 11  1  0  0  0  0
 11 12  2  0  0  0  0
 12 13  1  0  0  0  0
 12 21  1  0  0  0  0
 14 18  1  0  0  0  0
 14 13  2  0  0  0  0
 15 14  1  0  0  0  0
 16  1  1  0  0  0  0
 16 17  2  0  0  0  0
 18 16  1  0  0  0  0
 19 10  1  0  0  0  0
 20 11  1  0  0  0  0
 22 18  1  0  0  0  0
 24 31  1  0  0  0  0
 24 23  1  0  0  0  0
 25 24  2  0  0  0  0
 26 28  2  0  0  0  0
 26 25  1  0  0  0  0
 27 26  1  0  0  0  0
 28 30  1  0  0  0  0
 29 28  1  0  0  0  0
 30 31  2  0  0  0  0
M  END
>  <minimizedAffinity>
-5.61651373

$$$$

 OpenBabel03242510553D

 31 33  0  0  0  0  0  0  0  0999 V2000
   34.5410   28.5390   37.8960 C   0  0  0  0  0  0  0  0  0  0  0  0
   34.3900   27.2080   37.4960 C   0  0  0  0  0  0  0  0  0  0  0  0
   33.4070   26.7910   36.6220 C   0  0  0  0  0  0  0  0  0  0  0  0
   32.5530   27.7470   36.1390 C   0  0  0  0  0  0  0  0  0  0  0  0
   32.6920   29.0700   36.5280 C   0  0  0  0  0  0  0  0  0  0  0  0
   33.6680   29.4210   37.3830 N   0  0  0  0  0  0  0  0  0  0  0  0
   35.0960   26.4910   37.9100 H   0  0  0  0  0  0  0  0  0  0  0  0
   33.3080   25.7740   36.3290 H   0  0  0  0  0  0  0  0  0  0  0  0
   31.7860   27.4140   35.4570 H   0  0  0  0  0  0  0  0  0  0  0  0
   37.5180   28.5320   43.1500 C   0  0  0  0  0  0  0  0  0  0  0  0
   38.4290   29.5510   42.8610 C   0  0  0  0  0  0  0  0  0  0  0  0
   38.3030   30.2010   41.6280 C   0  0  0  0  0  0  0  0  0  0  0  0
   37.3040   29.8090   40.7780 N   0  0  0  0  0  0  0  0  0  0  0  0
   36.4510   28.8220   41.1030 C   0  0  0  0  0  0  0  0  0  0  0  0
   36.5440   28.1690   42.2930 N   0  0  0  0  0  0  0  0  0  0  0  0
   35.6000   28.9270   38.8260 C   0  0  0  0  0  0  0  0  0  0  0  0
   36.5630   29.6170   38.4260 O   0  0  0  0  0  0  0  0  0  0  0  0
   35.4360   28.4590   40.1810 N   0  0  0  0  0  0  0  0  0  0  0  0
   37.6310   28.0390   44.1120 H   0  0  0  0  0  0  0  0  0  0  0  0
   39.2090   29.8410   43.5520 H   0  0  0  0  0  0  0  0  0  0  0  0
   38.9770   30.9990   41.3450 H   0  0  0  0  0  0  0  0  0  0  0  0
   34.6160   27.8730   40.5150 H   0  0  0  0  0  0  0  0  0  0  0  0
   30.7070   30.0380   38.4930 Cl  0  0  0  0  0  0  0  0  0  0  0  0
   30.8190   30.6390   36.8390 C   0  0  0  0  0  0  0  0  0  0  0  0
   31.7930   30.0990   36.0260 C   0  0  0  0  0  0  0  0  0  0  0  0
   31.8120   30.6220   34.7530 C   0  0  0  0  0  0  0  0  0  0  0  0
   32.5450   30.2540   34.0530 H   0  0  0  0  0  0  0  0  0  0  0  0
   30.9360   31.5980   34.3270 C   0  0  0  0  0  0  0  0  0  0  0  0
   31.0210   31.9550   33.3040 H   0  0  0  0  0  0  0  0  0  0  0  0
   29.9800   32.1030   35.1840 C   0  0  0  0  0  3  0  0  0  0  0  0
   29.9150   31.6160   36.4730 C   0  0  0  0  0  3  0  0  0  0  0  0
  1 16  1  0  0  0  0
  2  1  1  0  0  0  0
  2  7  1  0  0  0  0
  3  2  2  0  0  0  0
  4  5  2  0  0  0  0
  4  3  1  0  0  0  0
  5  6  1  0  0  0  0
  6  1  2  0  0  0  0
  8  3  1  0  0  0  0
  9  4  1  0  0  0  0
 10 19  1  0  0  0  0
 11 10  1  0  0  0  0
 11 20  1  0  0  0  0
 12 11  2  0  0  0  0
 13 14  2  0  0  0  0
 13 12  1  0  0  0  0
 14 15  1  0  0  0  0
 15 10  2  0  0  0  0
 16 18  1  0  0  0  0
 17 16  2  0  0  0  0
 18 22  1  0  0  0  0
 18 14  1  0  0  0  0
 21 12  1  0  0  0  0
 24 23  1  0  0  0  0
 25  5  1  0  0  0  0
 25 24  2  0  0  0  0
 26 25  1  0  0  0  0
 27 26  1  0  0  0  0
 28 26  2  0  0  0  0
 28 30  1  0  0  0  0
 29 28  1  0  0  0  0
 30 31  2  0  0  0  0
 31 24  1  0  0  0  0
M  END
>  <minimizedAffinity>
-5.49378681

$$$$
