
 OpenBabel03252509173D

 25 27  0  0  0  0  0  0  0  0999 V2000
   37.4220   30.1660   40.6460 C   0  0  0  0  0  0  0  0  0  0  0  0
   36.1880   29.6750   41.1520 C   0  0  0  0  0  0  0  0  0  0  0  0
   36.0550   28.3450   41.3410 C   0  0  0  0  0  0  0  0  0  0  0  0
   37.1170   27.4670   41.0390 C   0  0  0  0  0  0  0  0  0  0  0  0
   38.3670   28.6500   40.4530 S   0  0  0  0  0  0  0  0  0  0  0  0
   35.3980   30.4110   41.3690 H   0  0  0  0  0  0  0  0  0  0  0  0
   35.1260   27.9640   41.7250 H   0  0  0  0  0  0  0  0  0  0  0  0
   37.3610   33.7170   39.5560 C   0  0  0  0  0  0  0  0  0  0  0  0
   38.5800   34.1610   40.1290 C   0  0  0  0  0  0  0  0  0  0  0  0
   39.3470   33.2270   40.8510 C   0  0  0  0  0  0  0  0  0  0  0  0
   38.8750   31.9450   40.9600 N   0  0  0  0  0  0  0  0  0  0  0  0
   37.7050   31.5750   40.3930 C   0  0  0  0  0  0  0  0  0  0  0  0
   36.9500   32.4590   39.6920 N   0  0  0  0  0  0  0  0  0  0  0  0
   36.7540   34.4140   38.9970 H   0  0  0  0  0  0  0  0  0  0  0  0
   38.9110   35.1970   40.0120 H   0  0  0  0  0  0  0  0  0  0  0  0
   40.2780   33.5210   41.3020 H   0  0  0  0  0  0  0  0  0  0  0  0
   38.9030   26.3040   43.2480 Cl  0  0  0  0  0  0  0  0  0  0  0  0
   38.1030   25.3950   41.9920 C   0  0  0  0  0  0  0  0  0  0  0  0
   37.3450   26.1130   41.0950 C   0  0  0  0  0  0  0  0  0  0  0  0
   36.7590   25.2710   40.1420 C   0  0  0  0  0  0  0  0  0  0  0  0
   36.1170   25.6550   39.3400 H   0  0  0  0  0  0  0  0  0  0  0  0
   36.9170   23.9050   40.1000 C   0  0  0  0  0  0  0  0  0  0  0  0
   36.4470   23.2930   39.3460 H   0  0  0  0  0  0  0  0  0  0  0  0
   37.7020   23.3060   41.0550 C   0  0  0  0  0  3  0  0  0  0  0  0
   38.3270   24.0370   42.0410 C   0  0  0  0  0  3  0  0  0  0  0  0
  1  2  2  0  0  0  0
  2  3  1  0  0  0  0
  2  6  1  0  0  0  0
  3  7  1  0  0  0  0
  4 19  1  0  0  0  0
  4  3  2  0  0  0  0
  5  1  1  0  0  0  0
  5  4  1  0  0  0  0
  8 13  2  0  0  0  0
  8  9  1  0  0  0  0
  9 10  2  0  0  0  0
 10 11  1  0  0  0  0
 10 16  1  0  0  0  0
 12  1  1  0  0  0  0
 12 11  2  0  0  0  0
 13 12  1  0  0  0  0
 14  8  1  0  0  0  0
 15  9  1  0  0  0  0
 18 25  1  0  0  0  0
 18 17  1  0  0  0  0
 19 18  2  0  0  0  0
 20 19  1  0  0  0  0
 21 20  1  0  0  0  0
 22 20  2  0  0  0  0
 22 24  1  0  0  0  0
 23 22  1  0  0  0  0
 24 25  2  0  0  0  0
M  END
>  <minimizedAffinity>
-5.08005571

$$$$

 OpenBabel03252509173D

 25 27  0  0  0  0  0  0  0  0999 V2000
   37.8330   30.5300   40.6110 C   0  0  0  0  0  0  0  0  0  0  0  0
   36.4660   30.2900   40.9200 C   0  0  0  0  0  0  0  0  0  0  0  0
   36.0410   29.0110   41.0020 C   0  0  0  0  0  0  0  0  0  0  0  0
   36.9340   27.9420   40.7840 C   0  0  0  0  0  0  0  0  0  0  0  0
   38.4690   28.8570   40.4450 S   0  0  0  0  0  0  0  0  0  0  0  0
   35.8190   31.1660   41.0790 H   0  0  0  0  0  0  0  0  0  0  0  0
   35.0090   28.8190   41.2350 H   0  0  0  0  0  0  0  0  0  0  0  0
   38.4920   34.1610   40.1850 C   0  0  0  0  0  0  0  0  0  0  0  0
   39.9040   34.1610   40.3180 C   0  0  0  0  0  0  0  0  0  0  0  0
   40.5450   32.9280   40.5450 C   0  0  0  0  0  0  0  0  0  0  0  0
   39.7720   31.7990   40.6250 N   0  0  0  0  0  0  0  0  0  0  0  0
   38.4280   31.8560   40.4900 C   0  0  0  0  0  0  0  0  0  0  0  0
   37.7900   33.0340   40.2710 N   0  0  0  0  0  0  0  0  0  0  0  0
   37.9760   35.0930   40.0100 H   0  0  0  0  0  0  0  0  0  0  0  0
   40.4750   35.0910   40.2460 H   0  0  0  0  0  0  0  0  0  0  0  0
   41.6150   32.8820   40.6520 H   0  0  0  0  0  0  0  0  0  0  0  0
   36.1170   26.4520   38.2280 Cl  0  0  0  0  0  0  0  0  0  0  0  0
   36.5350   25.7160   39.7540 C   0  0  0  0  0  0  0  0  0  0  0  0
   36.8730   26.5680   40.7800 C   0  0  0  0  0  0  0  0  0  0  0  0
   37.1860   25.8570   41.9450 C   0  0  0  0  0  0  0  0  0  0  0  0
   37.4810   26.3600   42.8740 H   0  0  0  0  0  0  0  0  0  0  0  0
   37.1590   24.4870   42.0570 C   0  0  0  0  0  0  0  0  0  0  0  0
   37.4080   23.9770   42.9750 H   0  0  0  0  0  0  0  0  0  0  0  0
   36.8030   23.7450   40.9560 C   0  0  0  0  0  3  0  0  0  0  0  0
   36.4760   24.3410   39.7580 C   0  0  0  0  0  3  0  0  0  0  0  0
  1  2  2  0  0  0  0
  2  3  1  0  0  0  0
  2  6  1  0  0  0  0
  3  7  1  0  0  0  0
  4  3  2  0  0  0  0
  5  1  1  0  0  0  0
  5  4  1  0  0  0  0
  8 13  2  0  0  0  0
  8  9  1  0  0  0  0
  9 10  2  0  0  0  0
 10 11  1  0  0  0  0
 10 16  1  0  0  0  0
 12  1  1  0  0  0  0
 12 11  2  0  0  0  0
 13 12  1  0  0  0  0
 14  8  1  0  0  0  0
 15  9  1  0  0  0  0
 17 18  1  0  0  0  0
 18 25  2  0  0  0  0
 18 19  1  0  0  0  0
 19  4  1  0  0  0  0
 19 20  2  0  0  0  0
 20 22  1  0  0  0  0
 20 21  1  0  0  0  0
 22 23  1  0  0  0  0
 24 22  2  0  0  0  0
 25 24  1  0  0  0  0
M  END
>  <minimizedAffinity>
-5.06817532

$$$$

 OpenBabel03252509173D

 25 27  0  0  0  0  0  0  0  0999 V2000
   35.2040   28.5100   38.8230 C   0  0  0  0  0  0  0  0  0  0  0  0
   34.9960   29.1700   40.0650 C   0  0  0  0  0  0  0  0  0  0  0  0
   35.7610   28.8120   41.1190 C   0  0  0  0  0  0  0  0  0  0  0  0
   36.7410   27.8070   40.9850 C   0  0  0  0  0  0  0  0  0  0  0  0
   36.5280   27.3670   39.2340 S   0  0  0  0  0  0  0  0  0  0  0  0
   34.2170   29.9470   40.1050 H   0  0  0  0  0  0  0  0  0  0  0  0
   35.6120   29.3060   42.0620 H   0  0  0  0  0  0  0  0  0  0  0  0
   32.5860   29.2310   36.2870 C   0  0  0  0  0  0  0  0  0  0  0  0
   33.3970   29.3040   35.1260 C   0  0  0  0  0  0  0  0  0  0  0  0
   34.7830   29.1060   35.2760 C   0  0  0  0  0  0  0  0  0  0  0  0
   35.2710   28.8530   36.5320 N   0  0  0  0  0  0  0  0  0  0  0  0
   34.4520   28.7930   37.6050 C   0  0  0  0  0  0  0  0  0  0  0  0
   33.1130   28.9810   37.4840 N   0  0  0  0  0  0  0  0  0  0  0  0
   31.5200   29.3790   36.2000 H   0  0  0  0  0  0  0  0  0  0  0  0
   32.9570   29.5090   34.1460 H   0  0  0  0  0  0  0  0  0  0  0  0
   35.4350   29.1530   34.4220 H   0  0  0  0  0  0  0  0  0  0  0  0
   38.3860   29.4840   42.9600 Cl  0  0  0  0  0  0  0  0  0  0  0  0
   38.5010   27.7580   42.7390 C   0  0  0  0  0  0  0  0  0  0  0  0
   37.6690   27.1970   41.7960 C   0  0  0  0  0  0  0  0  0  0  0  0
   37.8580   25.8120   41.7160 C   0  0  0  0  0  0  0  0  0  0  0  0
   37.2860   25.1850   41.0210 H   0  0  0  0  0  0  0  0  0  0  0  0
   38.7550   25.0980   42.4750 C   0  0  0  0  0  0  0  0  0  0  0  0
   38.8690   24.0300   42.3810 H   0  0  0  0  0  0  0  0  0  0  0  0
   39.5310   25.7770   43.3840 C   0  0  0  0  0  3  0  0  0  0  0  0
   39.4280   27.1410   43.5480 C   0  0  0  0  0  3  0  0  0  0  0  0
  1  5  1  0  0  0  0
  1  2  2  0  0  0  0
  2  6  1  0  0  0  0
  2  3  1  0  0  0  0
  3  7  1  0  0  0  0
  4  3  2  0  0  0  0
  4 19  1  0  0  0  0
  5  4  1  0  0  0  0
  8 13  1  0  0  0  0
  9 10  1  0  0  0  0
  9  8  2  0  0  0  0
 10 11  2  0  0  0  0
 11 12  1  0  0  0  0
 12  1  1  0  0  0  0
 13 12  2  0  0  0  0
 14  8  1  0  0  0  0
 15  9  1  0  0  0  0
 16 10  1  0  0  0  0
 18 17  1  0  0  0  0
 18 25  1  0  0  0  0
 19 18  2  0  0  0  0
 20 19  1  0  0  0  0
 20 22  2  0  0  0  0
 21 20  1  0  0  0  0
 22 24  1  0  0  0  0
 23 22  1  0  0  0  0
 24 25  2  0  0  0  0
M  END
>  <minimizedAffinity>
-4.92698431

$$$$

 OpenBabel03252509173D

 25 27  0  0  0  0  0  0  0  0999 V2000
   40.7660   32.2220   40.0620 C   0  0  0  0  0  0  0  0  0  0  0  0
   39.6000   32.8980   40.5130 C   0  0  0  0  0  0  0  0  0  0  0  0
   38.6230   32.1740   41.0990 C   0  0  0  0  0  0  0  0  0  0  0  0
   38.7600   30.7790   41.2560 C   0  0  0  0  0  0  0  0  0  0  0  0
   40.3980   30.5210   40.5100 S   0  0  0  0  0  0  0  0  0  0  0  0
   39.5540   33.9880   40.3620 H   0  0  0  0  0  0  0  0  0  0  0  0
   37.7380   32.6770   41.4440 H   0  0  0  0  0  0  0  0  0  0  0  0
   44.0600   33.7010   39.1890 C   0  0  0  0  0  0  0  0  0  0  0  0
   43.7730   34.1580   37.8770 C   0  0  0  0  0  0  0  0  0  0  0  0
   42.4780   33.9350   37.3710 C   0  0  0  0  0  0  0  0  0  0  0  0
   41.5710   33.2910   38.1690 N   0  0  0  0  0  0  0  0  0  0  0  0
   41.8980   32.8760   39.4130 C   0  0  0  0  0  0  0  0  0  0  0  0
   43.1390   33.0800   39.9220 N   0  0  0  0  0  0  0  0  0  0  0  0
   45.0450   33.8600   39.6010 H   0  0  0  0  0  0  0  0  0  0  0  0
   44.5350   34.6680   37.2810 H   0  0  0  0  0  0  0  0  0  0  0  0
   42.2180   34.2660   36.3800 H   0  0  0  0  0  0  0  0  0  0  0  0
   36.3730   29.6660   39.6790 Cl  0  0  0  0  0  0  0  0  0  0  0  0
   36.9160   29.1130   41.2420 C   0  0  0  0  0  0  0  0  0  0  0  0
   38.0110   29.7510   41.7780 C   0  0  0  0  0  0  0  0  0  0  0  0
   38.3450   29.2160   43.0290 C   0  0  0  0  0  0  0  0  0  0  0  0
   39.1910   29.5920   43.6170 H   0  0  0  0  0  0  0  0  0  0  0  0
   37.6700   28.1900   43.6470 C   0  0  0  0  0  0  0  0  0  0  0  0
   37.9610   27.8070   44.6130 H   0  0  0  0  0  0  0  0  0  0  0  0
   36.5880   27.6360   43.0060 C   0  0  0  0  0  3  0  0  0  0  0  0
   36.1720   28.0830   41.7710 C   0  0  0  0  0  3  0  0  0  0  0  0
  1  5  1  0  0  0  0
  1  2  2  0  0  0  0
  2  3  1  0  0  0  0
  3  4  2  0  0  0  0
  3  7  1  0  0  0  0
  4 19  1  0  0  0  0
  5  4  1  0  0  0  0
  6  2  1  0  0  0  0
  8 14  1  0  0  0  0
  8 13  1  0  0  0  0
  9  8  2  0  0  0  0
 10  9  1  0  0  0  0
 10 11  2  0  0  0  0
 11 12  1  0  0  0  0
 12 13  2  0  0  0  0
 12  1  1  0  0  0  0
 15  9  1  0  0  0  0
 16 10  1  0  0  0  0
 17 18  1  0  0  0  0
 18 25  2  0  0  0  0
 18 19  1  0  0  0  0
 19 20  2  0  0  0  0
 20 21  1  0  0  0  0
 20 22  1  0  0  0  0
 22 23  1  0  0  0  0
 24 22  2  0  0  0  0
 25 24  1  0  0  0  0
M  END
>  <minimizedAffinity>
-4.80879927

$$$$

 OpenBabel03252509173D

 25 27  0  0  0  0  0  0  0  0999 V2000
   37.3960   27.4100   40.7180 C   0  0  0  0  0  0  0  0  0  0  0  0
   36.9910   28.0560   41.9170 C   0  0  0  0  0  0  0  0  0  0  0  0
   37.1500   29.3930   42.0130 C   0  0  0  0  0  0  0  0  0  0  0  0
   37.7080   30.1270   40.9460 C   0  0  0  0  0  0  0  0  0  0  0  0
   38.0100   28.7930   39.7480 S   0  0  0  0  0  0  0  0  0  0  0  0
   36.5620   27.4270   42.7130 H   0  0  0  0  0  0  0  0  0  0  0  0
   36.8460   29.8910   42.9160 H   0  0  0  0  0  0  0  0  0  0  0  0
   36.7880   24.0280   39.3070 C   0  0  0  0  0  0  0  0  0  0  0  0
   37.2190   23.2350   40.4010 C   0  0  0  0  0  0  0  0  0  0  0  0
   37.6900   23.8990   41.5500 C   0  0  0  0  0  0  0  0  0  0  0  0
   37.7070   25.2680   41.5480 N   0  0  0  0  0  0  0  0  0  0  0  0
   37.2840   25.9760   40.4770 C   0  0  0  0  0  0  0  0  0  0  0  0
   36.8250   25.3570   39.3590 N   0  0  0  0  0  0  0  0  0  0  0  0
   36.4210   23.5440   38.4140 H   0  0  0  0  0  0  0  0  0  0  0  0
   37.1850   22.1430   40.3510 H   0  0  0  0  0  0  0  0  0  0  0  0
   38.0270   23.3360   42.4030 H   0  0  0  0  0  0  0  0  0  0  0  0
   40.3290   31.3270   42.0010 Cl  0  0  0  0  0  0  0  0  0  0  0  0
   39.1230   32.1670   41.0600 C   0  0  0  0  0  0  0  0  0  0  0  0
   38.0150   31.4420   40.6860 C   0  0  0  0  0  0  0  0  0  0  0  0
   37.1280   32.2270   39.9380 C   0  0  0  0  0  0  0  0  0  0  0  0
   36.1830   31.8280   39.5480 H   0  0  0  0  0  0  0  0  0  0  0  0
   37.3300   33.5490   39.6180 C   0  0  0  0  0  0  0  0  0  0  0  0
   36.6190   34.1180   39.0390 H   0  0  0  0  0  0  0  0  0  0  0  0
   38.4810   34.1600   40.0530 C   0  0  0  0  0  3  0  0  0  0  0  0
   39.4240   33.4840   40.7950 C   0  0  0  0  0  3  0  0  0  0  0  0
  1  2  2  0  0  0  0
  2  3  1  0  0  0  0
  2  6  1  0  0  0  0
  3  7  1  0  0  0  0
  4  3  2  0  0  0  0
  5  1  1  0  0  0  0
  5  4  1  0  0  0  0
  8 13  2  0  0  0  0
  8  9  1  0  0  0  0
  9 10  2  0  0  0  0
 10 16  1  0  0  0  0
 11 10  1  0  0  0  0
 12  1  1  0  0  0  0
 12 11  2  0  0  0  0
 13 12  1  0  0  0  0
 14  8  1  0  0  0  0
 15  9  1  0  0  0  0
 18 17  1  0  0  0  0
 19  4  1  0  0  0  0
 19 18  2  0  0  0  0
 20 19  1  0  0  0  0
 21 20  1  0  0  0  0
 22 20  2  0  0  0  0
 22 24  1  0  0  0  0
 23 22  1  0  0  0  0
 24 25  2  0  0  0  0
 25 18  1  0  0  0  0
M  END
>  <minimizedAffinity>
-4.78569794

$$$$

 OpenBabel03252509173D

 25 27  0  0  0  0  0  0  0  0999 V2000
   38.2590   27.9770   41.5550 C   0  0  0  0  0  0  0  0  0  0  0  0
   38.3790   28.6980   42.7740 C   0  0  0  0  0  0  0  0  0  0  0  0
   38.8630   29.9580   42.7310 C   0  0  0  0  0  0  0  0  0  0  0  0
   39.2400   30.5400   41.5030 C   0  0  0  0  0  0  0  0  0  0  0  0
   38.8670   29.1750   40.3610 S   0  0  0  0  0  0  0  0  0  0  0  0
   38.0680   28.1890   43.6990 H   0  0  0  0  0  0  0  0  0  0  0  0
   38.9570   30.5110   43.6480 H   0  0  0  0  0  0  0  0  0  0  0  0
   37.3410   24.4210   42.1140 C   0  0  0  0  0  0  0  0  0  0  0  0
   36.6730   24.1550   40.8920 C   0  0  0  0  0  0  0  0  0  0  0  0
   36.5740   25.2010   39.9540 C   0  0  0  0  0  0  0  0  0  0  0  0
   37.1270   26.4130   40.2720 N   0  0  0  0  0  0  0  0  0  0  0  0
   37.7550   26.6120   41.4520 C   0  0  0  0  0  0  0  0  0  0  0  0
   37.8620   25.6180   42.3710 N   0  0  0  0  0  0  0  0  0  0  0  0
   37.4310   23.6360   42.8500 H   0  0  0  0  0  0  0  0  0  0  0  0
   36.2480   23.1690   40.6870 H   0  0  0  0  0  0  0  0  0  0  0  0
   36.0750   25.0430   39.0130 H   0  0  0  0  0  0  0  0  0  0  0  0
   37.3760   32.6590   40.2960 Cl  0  0  0  0  0  0  0  0  0  0  0  0
   39.0990   32.8170   40.5170 C   0  0  0  0  0  0  0  0  0  0  0  0
   39.7520   31.7430   41.0790 C   0  0  0  0  0  0  0  0  0  0  0  0
   41.1240   31.9960   41.2020 C   0  0  0  0  0  0  0  0  0  0  0  0
   41.8170   31.2590   41.6290 H   0  0  0  0  0  0  0  0  0  0  0  0
   41.7450   33.1590   40.8140 C   0  0  0  0  0  0  0  0  0  0  0  0
   42.8070   33.3130   40.9260 H   0  0  0  0  0  0  0  0  0  0  0  0
   40.9790   34.1590   40.2630 C   0  0  0  0  0  3  0  0  0  0  0  0
   39.6190   34.0190   40.0950 C   0  0  0  0  0  3  0  0  0  0  0  0
  1  2  2  0  0  0  0
  2  6  1  0  0  0  0
  3  2  1  0  0  0  0
  3  7  1  0  0  0  0
  4  3  2  0  0  0  0
  5  4  1  0  0  0  0
  5  1  1  0  0  0  0
  8 13  1  0  0  0  0
  8 14  1  0  0  0  0
  9  8  2  0  0  0  0
 10 11  2  0  0  0  0
 10  9  1  0  0  0  0
 11 12  1  0  0  0  0
 12  1  1  0  0  0  0
 12 13  2  0  0  0  0
 15  9  1  0  0  0  0
 16 10  1  0  0  0  0
 17 18  1  0  0  0  0
 18 19  1  0  0  0  0
 19 20  2  0  0  0  0
 19  4  1  0  0  0  0
 20 21  1  0  0  0  0
 22 23  1  0  0  0  0
 22 20  1  0  0  0  0
 24 22  2  0  0  0  0
 25 24  1  0  0  0  0
 25 18  2  0  0  0  0
M  END
>  <minimizedAffinity>
-4.73642349

$$$$

 OpenBabel03252509173D

 25 27  0  0  0  0  0  0  0  0999 V2000
   35.4960   28.6760   38.7630 C   0  0  0  0  0  0  0  0  0  0  0  0
   35.0170   29.0940   40.0340 C   0  0  0  0  0  0  0  0  0  0  0  0
   35.7840   28.8570   41.1200 C   0  0  0  0  0  0  0  0  0  0  0  0
   37.0300   28.2090   40.9910 C   0  0  0  0  0  0  0  0  0  0  0  0
   37.0760   27.9360   39.1940 S   0  0  0  0  0  0  0  0  0  0  0  0
   34.0370   29.5940   40.0680 H   0  0  0  0  0  0  0  0  0  0  0  0
   35.4300   29.1700   42.0860 H   0  0  0  0  0  0  0  0  0  0  0  0
   34.4900   29.1370   35.2170 C   0  0  0  0  0  0  0  0  0  0  0  0
   33.0840   29.2260   35.3800 C   0  0  0  0  0  0  0  0  0  0  0  0
   32.5650   29.1220   36.6850 C   0  0  0  0  0  0  0  0  0  0  0  0
   33.4430   28.9420   37.7210 N   0  0  0  0  0  0  0  0  0  0  0  0
   34.7750   28.8650   37.5080 C   0  0  0  0  0  0  0  0  0  0  0  0
   35.2980   28.9630   36.2600 N   0  0  0  0  0  0  0  0  0  0  0  0
   34.9140   29.2140   34.2270 H   0  0  0  0  0  0  0  0  0  0  0  0
   32.4270   29.3700   34.5180 H   0  0  0  0  0  0  0  0  0  0  0  0
   31.5040   29.1830   36.8540 H   0  0  0  0  0  0  0  0  0  0  0  0
   36.9810   25.4020   42.2310 Cl  0  0  0  0  0  0  0  0  0  0  0  0
   38.2130   26.6110   42.4810 C   0  0  0  0  0  0  0  0  0  0  0  0
   38.0450   27.8110   41.8290 C   0  0  0  0  0  0  0  0  0  0  0  0
   39.0970   28.6910   42.1110 C   0  0  0  0  0  0  0  0  0  0  0  0
   39.1430   29.7010   41.6840 H   0  0  0  0  0  0  0  0  0  0  0  0
   40.1610   28.4020   42.9310 C   0  0  0  0  0  0  0  0  0  0  0  0
   40.9520   29.1110   43.1230 H   0  0  0  0  0  0  0  0  0  0  0  0
   40.2140   27.1640   43.5260 C   0  0  0  0  0  3  0  0  0  0  0  0
   39.2330   26.2200   43.3190 C   0  0  0  0  0  3  0  0  0  0  0  0
  1  5  1  0  0  0  0
  1  2  2  0  0  0  0
  2  6  1  0  0  0  0
  2  3  1  0  0  0  0
  3  7  1  0  0  0  0
  4  3  2  0  0  0  0
  4 19  1  0  0  0  0
  5  4  1  0  0  0  0
  8  9  2  0  0  0  0
  8 13  1  0  0  0  0
  9 10  1  0  0  0  0
 10 16  1  0  0  0  0
 10 11  2  0  0  0  0
 12 11  1  0  0  0  0
 12  1  1  0  0  0  0
 13 12  2  0  0  0  0
 14  8  1  0  0  0  0
 15  9  1  0  0  0  0
 17 18  1  0  0  0  0
 18 25  1  0  0  0  0
 19 20  1  0  0  0  0
 19 18  2  0  0  0  0
 20 22  2  0  0  0  0
 21 20  1  0  0  0  0
 22 23  1  0  0  0  0
 22 24  1  0  0  0  0
 25 24  2  0  0  0  0
M  END
>  <minimizedAffinity>
-4.71777391

$$$$

 OpenBabel03252509173D

 25 27  0  0  0  0  0  0  0  0999 V2000
   34.5110   28.4780   38.2090 C   0  0  0  0  0  0  0  0  0  0  0  0
   35.3910   27.4070   37.8950 C   0  0  0  0  0  0  0  0  0  0  0  0
   36.2920   27.0220   38.8230 C   0  0  0  0  0  0  0  0  0  0  0  0
   36.3570   27.6710   40.0730 C   0  0  0  0  0  0  0  0  0  0  0  0
   35.0330   28.9020   39.8760 S   0  0  0  0  0  0  0  0  0  0  0  0
   35.2900   26.9410   36.9020 H   0  0  0  0  0  0  0  0  0  0  0  0
   36.9610   26.2120   38.5950 H   0  0  0  0  0  0  0  0  0  0  0  0
   31.4380   29.8850   36.6670 C   0  0  0  0  0  0  0  0  0  0  0  0
   31.8440   29.9050   35.3080 C   0  0  0  0  0  0  0  0  0  0  0  0
   33.1370   29.4390   35.0000 C   0  0  0  0  0  0  0  0  0  0  0  0
   33.9290   28.9960   36.0260 N   0  0  0  0  0  0  0  0  0  0  0  0
   33.4910   28.9990   37.3050 C   0  0  0  0  0  0  0  0  0  0  0  0
   32.2490   29.4420   37.6250 N   0  0  0  0  0  0  0  0  0  0  0  0
   30.4510   30.2360   36.9310 H   0  0  0  0  0  0  0  0  0  0  0  0
   31.1720   30.2700   34.5270 H   0  0  0  0  0  0  0  0  0  0  0  0
   33.4850   29.4370   33.9820 H   0  0  0  0  0  0  0  0  0  0  0  0
   39.3140   26.8670   39.9000 Cl  0  0  0  0  0  0  0  0  0  0  0  0
   38.4330   27.2250   41.3630 C   0  0  0  0  0  0  0  0  0  0  0  0
   37.1080   27.5660   41.2200 C   0  0  0  0  0  0  0  0  0  0  0  0
   36.5170   27.8280   42.4620 C   0  0  0  0  0  0  0  0  0  0  0  0
   35.4630   28.1170   42.5580 H   0  0  0  0  0  0  0  0  0  0  0  0
   37.1690   27.7550   43.6710 C   0  0  0  0  0  0  0  0  0  0  0  0
   36.6760   27.9650   44.6070 H   0  0  0  0  0  0  0  0  0  0  0  0
   38.4970   27.4010   43.6800 C   0  0  0  0  0  3  0  0  0  0  0  0
   39.1790   27.1220   42.5160 C   0  0  0  0  0  3  0  0  0  0  0  0
  1  5  1  0  0  0  0
  2  1  2  0  0  0  0
  2  3  1  0  0  0  0
  3  4  2  0  0  0  0
  4 19  1  0  0  0  0
  5  4  1  0  0  0  0
  6  2  1  0  0  0  0
  7  3  1  0  0  0  0
  8 14  1  0  0  0  0
  8 13  1  0  0  0  0
  9  8  2  0  0  0  0
 10  9  1  0  0  0  0
 10 11  2  0  0  0  0
 11 12  1  0  0  0  0
 12 13  2  0  0  0  0
 12  1  1  0  0  0  0
 15  9  1  0  0  0  0
 16 10  1  0  0  0  0
 17 18  1  0  0  0  0
 18 25  1  0  0  0  0
 19 18  2  0  0  0  0
 19 20  1  0  0  0  0
 20 21  1  0  0  0  0
 20 22  2  0  0  0  0
 22 24  1  0  0  0  0
 22 23  1  0  0  0  0
 25 24  2  0  0  0  0
M  END
>  <minimizedAffinity>
-4.58718204

$$$$

 OpenBabel03252509173D

 25 27  0  0  0  0  0  0  0  0999 V2000
   37.3040   27.2810   40.9340 C   0  0  0  0  0  0  0  0  0  0  0  0
   36.6240   28.4840   41.2690 C   0  0  0  0  0  0  0  0  0  0  0  0
   35.8110   29.0410   40.3460 C   0  0  0  0  0  0  0  0  0  0  0  0
   35.6440   28.4400   39.0810 C   0  0  0  0  0  0  0  0  0  0  0  0
   36.7310   26.9930   39.2560 S   0  0  0  0  0  0  0  0  0  0  0  0
   36.7960   28.9030   42.2730 H   0  0  0  0  0  0  0  0  0  0  0  0
   35.2920   29.9500   40.5910 H   0  0  0  0  0  0  0  0  0  0  0  0
   39.3200   24.7530   42.7640 C   0  0  0  0  0  0  0  0  0  0  0  0
   39.9970   25.6050   43.6740 C   0  0  0  0  0  0  0  0  0  0  0  0
   39.7270   26.9860   43.6090 C   0  0  0  0  0  0  0  0  0  0  0  0
   38.8290   27.4290   42.6740 N   0  0  0  0  0  0  0  0  0  0  0  0
   38.2120   26.5720   41.8300 C   0  0  0  0  0  0  0  0  0  0  0  0
   38.4560   25.2380   41.8750 N   0  0  0  0  0  0  0  0  0  0  0  0
   39.5090   23.6910   42.7930 H   0  0  0  0  0  0  0  0  0  0  0  0
   40.7050   25.2000   44.4020 H   0  0  0  0  0  0  0  0  0  0  0  0
   40.2180   27.6680   44.2810 H   0  0  0  0  0  0  0  0  0  0  0  0
   37.1310   29.0340   36.4620 Cl  0  0  0  0  0  0  0  0  0  0  0  0
   35.3990   28.9870   36.6700 C   0  0  0  0  0  0  0  0  0  0  0  0
   34.9340   28.7010   37.9330 C   0  0  0  0  0  0  0  0  0  0  0  0
   33.5340   28.6940   37.9660 C   0  0  0  0  0  0  0  0  0  0  0  0
   32.9740   28.4860   38.8860 H   0  0  0  0  0  0  0  0  0  0  0  0
   32.7240   28.9400   36.8830 C   0  0  0  0  0  0  0  0  0  0  0  0
   31.6470   28.9240   36.9520 H   0  0  0  0  0  0  0  0  0  0  0  0
   33.3120   29.2140   35.6720 C   0  0  0  0  0  3  0  0  0  0  0  0
   34.6810   29.2470   35.5240 C   0  0  0  0  0  3  0  0  0  0  0  0
  1  2  2  0  0  0  0
  1 12  1  0  0  0  0
  2  6  1  0  0  0  0
  3  7  1  0  0  0  0
  3  2  1  0  0  0  0
  4  5  1  0  0  0  0
  4  3  2  0  0  0  0
  5  1  1  0  0  0  0
  8 14  1  0  0  0  0
  8  9  1  0  0  0  0
  9 15  1  0  0  0  0
 10  9  2  0  0  0  0
 10 16  1  0  0  0  0
 11 10  1  0  0  0  0
 12 13  1  0  0  0  0
 12 11  2  0  0  0  0
 13  8  2  0  0  0  0
 17 18  1  0  0  0  0
 18 19  1  0  0  0  0
 19 20  2  0  0  0  0
 19  4  1  0  0  0  0
 20 21  1  0  0  0  0
 22 23  1  0  0  0  0
 22 20  1  0  0  0  0
 24 22  2  0  0  0  0
 25 24  1  0  0  0  0
 25 18  2  0  0  0  0
M  END
>  <minimizedAffinity>
-4.57711315

$$$$
