
 OpenBabel03252509163D

 25 27  0  0  0  0  0  0  0  0999 V2000
   46.0510   32.9470   45.9380 C   0  0  0  0  0  0  0  0  0  0  0  0
   45.6520   32.7190   47.2830 C   0  0  0  0  0  0  0  0  0  0  0  0
   46.1140   31.6170   47.9120 C   0  0  0  0  0  0  0  0  0  0  0  0
   46.9700   30.7160   47.2460 C   0  0  0  0  0  0  0  0  0  0  0  0
   47.1030   31.5250   45.6230 S   0  0  0  0  0  0  0  0  0  0  0  0
   44.9820   33.4590   47.7470 H   0  0  0  0  0  0  0  0  0  0  0  0
   45.8180   31.4360   48.9300 H   0  0  0  0  0  0  0  0  0  0  0  0
   44.4810   36.0490   44.6280 C   0  0  0  0  0  0  0  0  0  0  0  0
   45.0830   36.0940   43.3450 C   0  0  0  0  0  0  0  0  0  0  0  0
   45.9860   35.0680   43.0040 C   0  0  0  0  0  0  0  0  0  0  0  0
   46.2320   34.0870   43.9270 N   0  0  0  0  0  0  0  0  0  0  0  0
   45.6300   34.0920   45.1370 C   0  0  0  0  0  0  0  0  0  0  0  0
   44.7560   35.0700   45.4870 N   0  0  0  0  0  0  0  0  0  0  0  0
   43.7850   36.8220   44.9140 H   0  0  0  0  0  0  0  0  0  0  0  0
   44.8510   36.9000   42.6440 H   0  0  0  0  0  0  0  0  0  0  0  0
   46.4650   35.0630   42.0400 H   0  0  0  0  0  0  0  0  0  0  0  0
   45.7000   28.0350   46.4610 Cl  0  0  0  0  0  0  0  0  0  0  0  0
   47.2240   28.2450   47.2830 C   0  0  0  0  0  0  0  0  0  0  0  0
   47.6140   29.5380   47.5440 C   0  0  0  0  0  0  0  0  0  0  0  0
   48.8480   29.5700   48.2040 C   0  0  0  0  0  0  0  0  0  0  0  0
   49.3290   30.5110   48.4990 H   0  0  0  0  0  0  0  0  0  0  0  0
   49.5800   28.4590   48.5510 C   0  0  0  0  0  0  0  0  0  0  0  0
   50.5280   28.5280   49.0610 H   0  0  0  0  0  0  0  0  0  0  0  0
   49.0800   27.2190   48.2350 C   0  0  0  0  0  3  0  0  0  0  0  0
   47.8740   27.0690   47.5840 C   0  0  0  0  0  3  0  0  0  0  0  0
  1  2  2  0  0  0  0
  2  6  1  0  0  0  0
  2  3  1  0  0  0  0
  3  7  1  0  0  0  0
  4 19  1  0  0  0  0
  4  3  2  0  0  0  0
  5  1  1  0  0  0  0
  5  4  1  0  0  0  0
  8 14  1  0  0  0  0
  8 13  1  0  0  0  0
  9  8  2  0  0  0  0
 10  9  1  0  0  0  0
 10 11  2  0  0  0  0
 11 12  1  0  0  0  0
 12 13  2  0  0  0  0
 12  1  1  0  0  0  0
 15  9  1  0  0  0  0
 16 10  1  0  0  0  0
 17 18  1  0  0  0  0
 18 19  2  0  0  0  0
 18 25  1  0  0  0  0
 19 20  1  0  0  0  0
 20 21  1  0  0  0  0
 20 22  2  0  0  0  0
 22 23  1  0  0  0  0
 24 22  1  0  0  0  0
 25 24  2  0  0  0  0
M  END
>  <minimizedAffinity>
-4.75142622

>  <minimizedRMSD>
1.3866241

$$$$
