
 OpenBabel03252509163D

 25 27  0  0  0  0  0  0  0  0999 V2000
   46.0800   32.8070   45.6840 C   0  0  0  0  0  0  0  0  0  0  0  0
   46.6550   32.8300   46.9840 C   0  0  0  0  0  0  0  0  0  0  0  0
   46.9580   31.6530   47.5730 C   0  0  0  0  0  0  0  0  0  0  0  0
   46.7070   30.4340   46.9110 C   0  0  0  0  0  0  0  0  0  0  0  0
   45.9950   31.0430   45.3530 S   0  0  0  0  0  0  0  0  0  0  0  0
   46.8260   33.8140   47.4470 H   0  0  0  0  0  0  0  0  0  0  0  0
   47.3940   31.6610   48.5560 H   0  0  0  0  0  0  0  0  0  0  0  0
   44.5990   35.9960   44.4840 C   0  0  0  0  0  0  0  0  0  0  0  0
   45.2450   36.0980   43.2260 C   0  0  0  0  0  0  0  0  0  0  0  0
   46.1450   35.0770   42.8640 C   0  0  0  0  0  0  0  0  0  0  0  0
   46.3460   34.0460   43.7430 N   0  0  0  0  0  0  0  0  0  0  0  0
   45.7030   33.9980   44.9300 C   0  0  0  0  0  0  0  0  0  0  0  0
   44.8310   34.9710   45.3000 N   0  0  0  0  0  0  0  0  0  0  0  0
   43.9030   36.7650   44.7860 H   0  0  0  0  0  0  0  0  0  0  0  0
   45.0490   36.9430   42.5610 H   0  0  0  0  0  0  0  0  0  0  0  0
   46.6580   35.1150   41.9180 H   0  0  0  0  0  0  0  0  0  0  0  0
   49.5280   29.2240   46.9870 Cl  0  0  0  0  0  0  0  0  0  0  0  0
   48.0350   28.3630   47.2580 C   0  0  0  0  0  0  0  0  0  0  0  0
   46.8720   29.0950   47.1780 C   0  0  0  0  0  0  0  0  0  0  0  0
   45.7510   28.2900   47.4140 C   0  0  0  0  0  0  0  0  0  0  0  0
   44.7300   28.6910   47.3940 H   0  0  0  0  0  0  0  0  0  0  0  0
   45.7970   26.9450   47.6900 C   0  0  0  0  0  0  0  0  0  0  0  0
   44.9080   26.3600   47.8660 H   0  0  0  0  0  0  0  0  0  0  0  0
   47.0240   26.3270   47.7410 C   0  0  0  0  0  3  0  0  0  0  0  0
   48.1940   27.0220   47.5250 C   0  0  0  0  0  3  0  0  0  0  0  0
  1  2  2  0  0  0  0
  2  6  1  0  0  0  0
  2  3  1  0  0  0  0
  3  7  1  0  0  0  0
  4 19  1  0  0  0  0
  4  3  2  0  0  0  0
  5  1  1  0  0  0  0
  5  4  1  0  0  0  0
  8 14  1  0  0  0  0
  8 13  1  0  0  0  0
  9  8  2  0  0  0  0
 10  9  1  0  0  0  0
 10 11  2  0  0  0  0
 11 12  1  0  0  0  0
 12 13  2  0  0  0  0
 12  1  1  0  0  0  0
 15  9  1  0  0  0  0
 16 10  1  0  0  0  0
 17 18  1  0  0  0  0
 18 25  1  0  0  0  0
 19 18  2  0  0  0  0
 19 20  1  0  0  0  0
 20 22  2  0  0  0  0
 21 20  1  0  0  0  0
 22 24  1  0  0  0  0
 22 23  1  0  0  0  0
 25 24  2  0  0  0  0
M  END
>  <minimizedAffinity>
-4.66316938

>  <minimizedRMSD>
2.20826602

$$$$
