
 OpenBabel03252507193D

 44 47  0  0  1  0  0  0  0  0999 V2000
   46.8690   33.3180   43.3960 C   0  0  0  0  0  0  0  0  0  0  0  0
   47.9990   33.0230   43.8930 O   0  0  0  0  0  0  0  0  0  0  0  0
   46.4220   32.8990   42.1000 N   0  0  0  0  0  0  0  0  0  0  0  0
   45.1310   32.3690   41.6710 C   0  0  0  0  0  0  0  0  0  0  0  0
   44.6270   33.1800   40.4680 C   0  0  0  0  0  0  0  0  0  0  0  0
   45.5670   33.0010   39.3080 C   0  0  0  0  0  0  0  0  0  0  0  0
   46.8590   32.3960   39.7810 C   0  0  0  0  0  0  0  0  0  0  0  0
   47.3840   33.0150   41.0360 C   0  0  2  0  0  0  0  0  0  0  0  0
   45.1160   31.2970   41.5040 H   0  0  0  0  0  0  0  0  0  0  0  0
   44.4290   32.6300   42.5060 H   0  0  0  0  0  0  0  0  0  0  0  0
   43.5810   32.9750   40.2650 H   0  0  0  0  0  0  0  0  0  0  0  0
   44.6990   34.2370   40.8120 H   0  0  0  0  0  0  0  0  0  0  0  0
   45.1150   32.2420   38.6070 H   0  0  0  0  0  0  0  0  0  0  0  0
   45.6960   33.9270   38.7150 H   0  0  0  0  0  0  0  0  0  0  0  0
   47.6090   32.5080   38.9750 H   0  0  0  0  0  0  0  0  0  0  0  0
   46.6460   31.3060   39.9860 H   0  0  0  0  0  0  0  0  0  0  0  0
   47.5310   34.0970   40.8340 H   0  0  0  0  0  0  0  0  0  0  0  0
   49.4640   35.0060   41.6550 Cl  0  0  0  0  0  0  0  0  0  0  0  0
   49.7750   33.2620   41.6410 C   0  0  0  0  0  0  0  0  0  0  0  0
   48.7050   32.4130   41.3360 C   0  0  0  0  0  0  0  0  0  0  0  0
   49.0300   31.0810   41.3460 C   0  0  0  0  0  0  0  0  0  0  0  0
   48.2170   30.3950   41.1110 H   0  0  0  0  0  0  0  0  0  0  0  0
   50.3000   30.6300   41.6340 C   0  0  0  0  0  0  0  0  0  0  0  0
   50.5240   29.5730   41.6340 H   0  0  0  0  0  0  0  0  0  0  0  0
   51.3250   31.5030   41.9300 C   0  0  0  0  0  3  0  0  0  0  0  0
   51.0600   32.8570   41.9350 C   0  0  0  0  0  3  0  0  0  0  0  0
   45.4920   35.3290   43.6370 C   0  0  0  0  0  0  0  0  0  0  0  0
   45.9860   34.1300   44.2000 C   0  0  0  0  0  0  0  0  0  0  0  0
   45.6140   33.7820   45.4810 C   0  0  0  0  0  0  0  0  0  0  0  0
   44.7850   34.6040   46.1580 N   0  0  0  0  0  0  0  0  0  0  0  0
   44.3020   35.7590   45.6300 C   0  0  0  0  0  0  0  0  0  0  0  0
   44.6680   36.0980   44.3780 N   0  0  0  0  0  0  0  0  0  0  0  0
   45.7760   35.6100   42.6410 H   0  0  0  0  0  0  0  0  0  0  0  0
   43.6430   36.3970   46.1930 H   0  0  0  0  0  0  0  0  0  0  0  0
   46.1330   32.5530   46.0440 C   0  0  0  0  0  0  0  0  0  0  0  0
   45.6990   31.3480   45.5810 C   0  0  0  0  0  0  0  0  0  0  0  0
   46.2050   30.1840   46.1280 C   0  0  0  0  0  0  0  0  0  0  0  0
   47.1430   30.1860   47.1370 C   0  0  0  0  0  0  0  0  0  0  0  0
   47.5560   31.4410   47.5770 C   0  0  0  0  0  0  0  0  0  0  0  0
   47.0410   32.5440   47.0190 N   0  0  0  0  0  0  0  0  0  0  0  0
   44.9780   31.1740   44.8130 H   0  0  0  0  0  0  0  0  0  0  0  0
   45.9000   29.1910   45.8040 H   0  0  0  0  0  0  0  0  0  0  0  0
   47.5480   29.2830   47.5760 H   0  0  0  0  0  0  0  0  0  0  0  0
   48.2900   31.5550   48.3660 H   0  0  0  0  0  0  0  0  0  0  0  0
  1  2  2  0  0  0  0
  1 28  1  0  0  0  0
  3  1  1  0  0  0  0
  4  3  1  0  0  0  0
  4 10  1  0  0  0  0
  5 12  1  0  0  0  0
  5  4  1  0  0  0  0
  6  7  1  0  0  0  0
  6  5  1  0  0  0  0
  7 16  1  0  0  0  0
  7  8  1  0  0  0  0
  8 17  1  6  0  0  0
  8 20  1  0  0  0  0
  8  3  1  0  0  0  0
  9  4  1  0  0  0  0
 11  5  1  0  0  0  0
 13  6  1  0  0  0  0
 14  6  1  0  0  0  0
 15  7  1  0  0  0  0
 19 18  1  0  0  0  0
 19 26  1  0  0  0  0
 20 21  1  0  0  0  0
 20 19  2  0  0  0  0
 21 23  2  0  0  0  0
 22 21  1  0  0  0  0
 23 24  1  0  0  0  0
 23 25  1  0  0  0  0
 25 26  2  0  0  0  0
 27 28  2  0  0  0  0
 27 32  1  0  0  0  0
 28 29  1  0  0  0  0
 29 35  1  0  0  0  0
 29 30  2  0  0  0  0
 31 30  1  0  0  0  0
 31 34  1  0  0  0  0
 32 31  2  0  0  0  0
 33 27  1  0  0  0  0
 35 40  1  0  0  0  0
 36 35  2  0  0  0  0
 36 37  1  0  0  0  0
 37 38  2  0  0  0  0
 38 43  1  0  0  0  0
 38 39  1  0  0  0  0
 39 44  1  0  0  0  0
 40 39  2  0  0  0  0
 41 36  1  0  0  0  0
 42 37  1  0  0  0  0
M  END
>  <minimizedAffinity>
-5.5497117

>  <minimizedRMSD>
1.06959879

$$$$
