
 OpenBabel03252509163D

 25 27  0  0  0  0  0  0  0  0999 V2000
   47.2100   33.0260   43.6830 C   0  0  0  0  0  0  0  0  0  0  0  0
   47.1540   31.6580   44.0650 C   0  0  0  0  0  0  0  0  0  0  0  0
   48.1160   30.8250   43.6130 C   0  0  0  0  0  0  0  0  0  0  0  0
   49.1480   31.3050   42.7810 C   0  0  0  0  0  0  0  0  0  0  0  0
   48.6860   33.0590   42.6580 S   0  0  0  0  0  0  0  0  0  0  0  0
   46.3240   31.3450   44.7160 H   0  0  0  0  0  0  0  0  0  0  0  0
   48.0830   29.7890   43.8980 H   0  0  0  0  0  0  0  0  0  0  0  0
   44.7220   35.1100   45.4900 C   0  0  0  0  0  0  0  0  0  0  0  0
   44.4750   36.0950   44.4990 C   0  0  0  0  0  0  0  0  0  0  0  0
   45.1700   35.9900   43.2790 C   0  0  0  0  0  0  0  0  0  0  0  0
   46.0430   34.9470   43.1160 N   0  0  0  0  0  0  0  0  0  0  0  0
   46.2400   34.0360   44.0940 C   0  0  0  0  0  0  0  0  0  0  0  0
   45.5810   34.1170   45.2780 N   0  0  0  0  0  0  0  0  0  0  0  0
   44.2020   35.1670   46.4340 H   0  0  0  0  0  0  0  0  0  0  0  0
   43.7670   36.9080   44.6800 H   0  0  0  0  0  0  0  0  0  0  0  0
   45.0120   36.7160   42.5000 H   0  0  0  0  0  0  0  0  0  0  0  0
   49.0610   30.7200   39.7700 Cl  0  0  0  0  0  0  0  0  0  0  0  0
   50.4220   30.4520   40.8260 C   0  0  0  0  0  0  0  0  0  0  0  0
   50.2530   30.7830   42.1510 C   0  0  0  0  0  0  0  0  0  0  0  0
   51.4140   30.5210   42.8880 C   0  0  0  0  0  0  0  0  0  0  0  0
   51.4780   30.7190   43.9660 H   0  0  0  0  0  0  0  0  0  0  0  0
   52.5750   30.0020   42.3660 C   0  0  0  0  0  0  0  0  0  0  0  0
   53.4490   29.8150   42.9700 H   0  0  0  0  0  0  0  0  0  0  0  0
   52.6160   29.7120   41.0220 C   0  0  0  0  0  3  0  0  0  0  0  0
   51.5320   29.9310   40.2010 C   0  0  0  0  0  3  0  0  0  0  0  0
  1  2  2  0  0  0  0
  1 12  1  0  0  0  0
  2  6  1  0  0  0  0
  3  7  1  0  0  0  0
  3  2  1  0  0  0  0
  4  3  2  0  0  0  0
  5  4  1  0  0  0  0
  5  1  1  0  0  0  0
  8 14  1  0  0  0  0
  9 15  1  0  0  0  0
  9  8  2  0  0  0  0
 10  9  1  0  0  0  0
 11 10  2  0  0  0  0
 11 12  1  0  0  0  0
 12 13  2  0  0  0  0
 13  8  1  0  0  0  0
 16 10  1  0  0  0  0
 17 18  1  0  0  0  0
 18 19  1  0  0  0  0
 19  4  1  0  0  0  0
 19 20  2  0  0  0  0
 20 21  1  0  0  0  0
 22 20  1  0  0  0  0
 22 23  1  0  0  0  0
 24 22  2  0  0  0  0
 25 18  2  0  0  0  0
 25 24  1  0  0  0  0
M  END
>  <minimizedAffinity>
-3.85178399

>  <minimizedRMSD>
6.24939537

$$$$
