
 OpenBabel03252508213D

 34 36  0  0  0  0  0  0  0  0999 V2000
   45.6740   34.2780   41.2210 C   0  0  0  0  0  0  0  0  0  0  0  0
   46.2610   35.1870   42.0650 C   0  0  0  0  0  0  0  0  0  0  0  0
   45.6140   35.8510   43.0980 C   0  0  0  0  0  0  0  0  0  0  0  0
   44.2670   35.5360   43.2490 C   0  0  0  0  0  0  0  0  0  0  0  0
   43.6490   34.6240   42.4150 C   0  0  0  0  0  0  0  0  0  0  0  0
   44.3170   33.9890   41.4080 C   0  0  0  0  0  0  0  0  0  0  0  0
   47.3110   35.3740   41.8770 H   0  0  0  0  0  0  0  0  0  0  0  0
   46.1300   36.5590   43.7310 H   0  0  0  0  0  0  0  0  0  0  0  0
   43.7340   36.0250   44.0310 H   0  0  0  0  0  0  0  0  0  0  0  0
   42.5860   34.4090   42.5750 H   0  0  0  0  0  0  0  0  0  0  0  0
   42.7230   35.4420   39.4070 Cl  0  0  0  0  0  0  0  0  0  0  0  0
   42.8830   33.6890   39.5770 C   0  0  0  0  0  0  0  0  0  0  0  0
   43.6480   33.0280   40.5370 C   0  0  0  0  0  0  0  0  0  0  0  0
   43.6780   31.6620   40.5470 C   0  0  0  0  0  0  0  0  0  0  0  0
   44.3060   31.2630   41.3390 H   0  0  0  0  0  0  0  0  0  0  0  0
   42.9630   30.9410   39.6230 C   0  0  0  0  0  0  0  0  0  0  0  0
   43.0220   29.8680   39.6790 H   0  0  0  0  0  0  0  0  0  0  0  0
   42.2010   31.5790   38.6660 C   0  0  0  0  0  3  0  0  0  0  0  0
   42.1510   32.9700   38.6320 C   0  0  0  0  0  3  0  0  0  0  0  0
   46.3710   33.5770   40.1260 C   0  0  0  0  0  0  0  0  0  0  0  0
   45.7340   33.7480   39.2090 H   0  0  0  0  0  0  0  0  0  0  0  0
   46.4730   32.4980   40.2480 H   0  0  0  0  0  0  0  0  0  0  0  0
   47.7030   34.2320   39.8090 C   0  0  0  0  0  0  0  0  0  0  0  0
   48.4340   34.0760   40.6490 H   0  0  0  0  0  0  0  0  0  0  0  0
   47.5580   35.2930   39.5740 H   0  0  0  0  0  0  0  0  0  0  0  0
   48.5730   33.3510   36.2340 C   0  0  0  0  0  0  0  0  0  0  0  0
   47.9940   34.0460   37.3280 C   0  0  0  0  0  0  0  0  0  0  0  0
   48.2670   33.5640   38.6070 C   0  0  0  0  0  0  0  0  0  0  0  0
   49.0750   32.4500   38.7350 N   0  0  0  0  0  0  0  0  0  0  0  0
   49.5920   31.8380   37.6610 C   0  0  0  0  0  0  0  0  0  0  0  0
   49.3460   32.2810   36.4090 N   0  0  0  0  0  0  0  0  0  0  0  0
   48.2760   33.8350   35.3080 H   0  0  0  0  0  0  0  0  0  0  0  0
   47.3680   34.9090   37.2530 H   0  0  0  0  0  0  0  0  0  0  0  0
   50.2250   30.9640   37.7640 H   0  0  0  0  0  0  0  0  0  0  0  0
  1  6  2  0  0  0  0
  1  2  1  0  0  0  0
  2  3  2  0  0  0  0
  3  4  1  0  0  0  0
  3  8  1  0  0  0  0
  4  9  1  0  0  0  0
  5 10  1  0  0  0  0
  5  4  2  0  0  0  0
  6  5  1  0  0  0  0
  7  2  1  0  0  0  0
 11 12  1  0  0  0  0
 12 13  1  0  0  0  0
 13 14  2  0  0  0  0
 13  6  1  0  0  0  0
 14 15  1  0  0  0  0
 16 17  1  0  0  0  0
 16 14  1  0  0  0  0
 18 16  2  0  0  0  0
 19 18  1  0  0  0  0
 19 12  2  0  0  0  0
 20 22  1  0  0  0  0
 20  1  1  0  0  0  0
 21 20  1  0  0  0  0
 23 20  1  0  0  0  0
 23 24  1  0  0  0  0
 25 23  1  0  0  0  0
 26 31  2  0  0  0  0
 26 27  1  0  0  0  0
 27 28  2  0  0  0  0
 28 29  1  0  0  0  0
 28 23  1  0  0  0  0
 30 34  1  0  0  0  0
 30 29  2  0  0  0  0
 31 30  1  0  0  0  0
 32 26  1  0  0  0  0
 33 27  1  0  0  0  0
M  END
>  <minimizedAffinity>
-4.30230045

>  <minimizedRMSD>
6.54480982

$$$$
