
 OpenBabel03252507383D

 38 42  0  0  0  0  0  0  0  0999 V2000
   45.4630   34.8620   43.4740 C   0  0  0  0  0  0  0  0  0  0  0  0
   46.1570   33.7700   44.0550 C   0  0  0  0  0  0  0  0  0  0  0  0
   45.9670   33.5560   45.4180 C   0  0  0  0  0  0  0  0  0  0  0  0
   45.1600   34.3680   46.1000 N   0  0  0  0  0  0  0  0  0  0  0  0
   44.5050   35.4070   45.5250 C   0  0  0  0  0  0  0  0  0  0  0  0
   44.6620   35.6400   44.2320 N   0  0  0  0  0  0  0  0  0  0  0  0
   46.7980   33.1300   43.5010 H   0  0  0  0  0  0  0  0  0  0  0  0
   43.8640   36.0330   46.1180 H   0  0  0  0  0  0  0  0  0  0  0  0
   46.9490   32.7220   47.4800 C   0  0  0  0  0  0  0  0  0  0  0  0
   46.6330   32.4600   46.1360 C   0  0  0  0  0  0  0  0  0  0  0  0
   46.9560   31.2510   45.6020 C   0  0  0  0  0  0  0  0  0  0  0  0
   47.5830   30.2670   46.3300 C   0  0  0  0  0  0  0  0  0  0  0  0
   47.9920   29.0180   46.0140 N   0  0  0  0  0  0  0  0  0  0  0  0
   48.5670   28.4860   47.1540 C   0  0  0  0  0  0  0  0  0  0  0  0
   48.4990   29.4100   48.1370 N   0  0  0  0  0  0  0  0  0  0  0  0
   47.9030   30.4970   47.6450 C   0  0  0  0  0  0  0  0  0  0  0  0
   47.5840   31.7260   48.2220 C   0  0  0  0  0  0  0  0  0  0  0  0
   46.7280   33.6540   47.9820 H   0  0  0  0  0  0  0  0  0  0  0  0
   46.7000   31.0790   44.5660 H   0  0  0  0  0  0  0  0  0  0  0  0
   47.8850   28.5510   45.0680 H   0  0  0  0  0  0  0  0  0  0  0  0
   48.9810   27.4740   47.1620 H   0  0  0  0  0  0  0  0  0  0  0  0
   47.8560   31.8620   49.2620 H   0  0  0  0  0  0  0  0  0  0  0  0
   45.6530   35.0780   42.1040 O   0  0  0  0  0  0  0  0  0  0  0  0
   44.6910   34.6440   41.2010 C   0  0  0  0  0  0  0  0  0  0  0  0
   45.4250   33.8100   40.4310 C   0  0  0  0  0  0  0  0  0  0  0  0
   44.1160   33.2080   39.1930 S   0  0  0  0  0  0  0  0  0  0  0  0
   42.8280   34.2690   40.0410 C   0  0  0  0  0  0  0  0  0  0  0  0
   43.4350   34.7270   40.8380 N   0  0  0  0  0  0  0  0  0  0  0  0
   46.3880   33.2270   40.0580 H   0  0  0  0  0  0  0  0  0  0  0  0
   42.2170   36.0040   37.5960 Cl  0  0  0  0  0  0  0  0  0  0  0  0
   41.0580   34.9890   38.4270 C   0  0  0  0  0  0  0  0  0  0  0  0
   41.4350   34.2560   39.5080 C   0  0  0  0  0  0  0  0  0  0  0  0
   40.6130   33.4430   40.2160 C   0  0  0  0  0  0  0  0  0  0  0  0
   40.9100   32.8590   41.0750 H   0  0  0  0  0  0  0  0  0  0  0  0
   39.2850   33.3750   39.7770 C   0  0  0  0  0  0  0  0  0  0  0  0
   38.5820   32.7400   40.3070 H   0  0  0  0  0  0  0  0  0  0  0  0
   38.8940   34.1150   38.6830 C   0  0  0  0  0  3  0  0  0  0  0  0
   39.7530   34.9350   37.9800 C   0  0  0  0  0  3  0  0  0  0  0  0
  1  2  2  0  0  0  0
  1  6  1  0  0  0  0
  2  3  1  0  0  0  0
  3  4  2  0  0  0  0
  3 10  1  0  0  0  0
  5  4  1  0  0  0  0
  5  8  1  0  0  0  0
  6  5  2  0  0  0  0
  7  2  1  0  0  0  0
  9 18  1  0  0  0  0
  9 17  1  0  0  0  0
 10  9  2  0  0  0  0
 11 10  1  0  0  0  0
 11 12  2  0  0  0  0
 12 16  1  0  0  0  0
 13 12  1  0  0  0  0
 13 14  1  0  0  0  0
 14 21  1  0  0  0  0
 14 15  2  0  0  0  0
 16 15  1  0  0  0  0
 16 17  2  0  0  0  0
 17 22  1  0  0  0  0
 19 11  1  0  0  0  0
 20 13  1  0  0  0  0
 23  1  1  0  0  0  0
 24 23  1  0  0  0  0
 25 24  2  0  0  0  0
 26 27  1  0  0  0  0
 26 25  1  0  0  0  0
 27 28  2  0  0  0  0
 28 24  1  0  0  0  0
 29 25  1  0  0  0  0
 30 31  1  0  0  0  0
 31 32  1  0  0  0  0
 32 27  1  0  0  0  0
 32 33  2  0  0  0  0
 33 34  1  0  0  0  0
 35 33  1  0  0  0  0
 35 36  1  0  0  0  0
 37 35  2  0  0  0  0
 38 31  2  0  0  0  0
 38 37  1  0  0  0  0
M  END
>  <minimizedAffinity>
-6.97161198

>  <minimizedRMSD>
0.938198388

$$$$
