
 OpenBabel03252505093D

 43 46  0  0  1  0  0  0  0  0999 V2000
   36.0870   28.9860   37.9680 C   0  0  0  0  0  0  0  0  0  0  0  0
   36.3230   28.3260   39.1940 C   0  0  0  0  0  0  0  0  0  0  0  0
   37.1910   28.9670   40.1340 C   0  0  0  0  0  0  0  0  0  0  0  0
   37.7370   30.1600   39.8050 N   0  0  0  0  0  0  0  0  0  0  0  0
   37.4860   30.7530   38.6250 C   0  0  0  0  0  0  0  0  0  0  0  0
   36.6590   30.1710   37.6980 N   0  0  0  0  0  0  0  0  0  0  0  0
   35.4350   28.5240   37.2370 H   0  0  0  0  0  0  0  0  0  0  0  0
   35.8590   27.3790   39.3950 H   0  0  0  0  0  0  0  0  0  0  0  0
   38.1220   32.0650   38.3220 C   0  0  2  0  0  0  0  0  0  0  0  0
   39.4570   31.7380   37.7100 C   0  0  0  0  0  0  0  0  0  0  0  0
   40.6380   31.9190   38.5730 C   0  0  0  0  0  0  0  0  0  0  0  0
   40.5670   33.3690   39.0460 C   0  0  0  0  0  0  0  0  0  0  0  0
   39.4200   33.6220   39.9020 C   0  0  0  0  0  0  0  0  0  0  0  0
   38.1700   32.9210   39.4850 C   0  0  0  0  0  0  0  0  0  0  0  0
   37.4660   32.5280   37.5500 H   0  0  0  0  0  0  0  0  0  0  0  0
   39.5890   32.3860   36.8180 H   0  0  0  0  0  0  0  0  0  0  0  0
   39.4900   30.6940   37.2870 H   0  0  0  0  0  0  0  0  0  0  0  0
   40.6880   31.2500   39.4420 H   0  0  0  0  0  0  0  0  0  0  0  0
   41.5400   31.8270   37.9700 H   0  0  0  0  0  0  0  0  0  0  0  0
   40.5550   34.0410   38.1640 H   0  0  0  0  0  0  0  0  0  0  0  0
   41.4610   33.5060   39.6710 H   0  0  0  0  0  0  0  0  0  0  0  0
   39.2910   34.2240   40.7900 H   0  0  0  0  0  0  0  0  0  0  0  0
   36.9610   33.0780   40.2410 N   0  0  0  0  0  0  0  0  0  0  0  0
   36.9490   32.6130   41.1680 H   0  0  0  0  0  0  0  0  0  0  0  0
   36.2280   33.6460   39.7670 H   0  0  0  0  0  0  0  0  0  0  0  0
   37.4510   28.3110   41.4050 C   0  0  0  0  0  0  0  0  0  0  0  0
   36.4110   28.0680   42.2370 C   0  0  0  0  0  0  0  0  0  0  0  0
   36.7120   27.4390   43.4500 C   0  0  0  0  0  0  0  0  0  0  0  0
   38.0340   27.1270   43.6800 C   0  0  0  0  0  0  0  0  0  0  0  0
   39.0760   27.3720   42.8420 C   0  0  0  0  0  0  0  0  0  0  0  0
   38.7320   27.9910   41.6650 N   0  0  0  0  0  0  0  0  0  0  0  0
   35.3900   28.3450   41.9850 H   0  0  0  0  0  0  0  0  0  0  0  0
   35.9290   27.2150   44.1610 H   0  0  0  0  0  0  0  0  0  0  0  0
   38.2270   26.6420   44.6240 H   0  0  0  0  0  0  0  0  0  0  0  0
   39.6680   24.4890   42.6430 Cl  0  0  0  0  0  0  0  0  0  0  0  0
   40.8650   25.7150   43.0400 C   0  0  0  0  0  0  0  0  0  0  0  0
   40.4710   27.0340   43.1040 C   0  0  0  0  0  0  0  0  0  0  0  0
   41.4080   27.9950   43.4140 C   0  0  0  0  0  0  0  0  0  0  0  0
   41.1450   29.0400   43.4760 H   0  0  0  0  0  0  0  0  0  0  0  0
   42.7380   27.6890   43.6660 C   0  0  0  0  0  0  0  0  0  0  0  0
   43.4700   28.4650   43.9110 H   0  0  0  0  0  0  0  0  0  0  0  0
   43.1220   26.3760   43.6000 C   0  0  0  0  0  3  0  0  0  0  0  0
   42.2050   25.3910   43.2920 C   0  0  0  0  0  3  0  0  0  0  0  0
  1  2  1  0  0  0  0
  2  8  1  0  0  0  0
  2  3  2  0  0  0  0
  3 26  1  0  0  0  0
  4  3  1  0  0  0  0
  5  4  2  0  0  0  0
  6  1  2  0  0  0  0
  6  5  1  0  0  0  0
  7  1  1  0  0  0  0
  9 15  1  6  0  0  0
  9  5  1  0  0  0  0
  9 14  1  0  0  0  0
 10  9  1  0  0  0  0
 10 11  1  0  0  0  0
 11 12  1  0  0  0  0
 11 18  1  0  0  0  0
 12 21  1  0  0  0  0
 12 13  1  0  0  0  0
 13 22  1  0  0  0  0
 14 13  2  0  0  0  0
 14 23  1  0  0  0  0
 16 10  1  0  0  0  0
 17 10  1  0  0  0  0
 19 11  1  0  0  0  0
 20 12  1  0  0  0  0
 23 24  1  0  0  0  0
 25 23  1  0  0  0  0
 26 31  2  0  0  0  0
 26 27  1  0  0  0  0
 27 28  2  0  0  0  0
 28 29  1  0  0  0  0
 28 33  1  0  0  0  0
 29 34  1  0  0  0  0
 30 37  1  0  0  0  0
 30 29  2  0  0  0  0
 31 30  1  0  0  0  0
 32 27  1  0  0  0  0
 35 36  1  0  0  0  0
 36 37  2  0  0  0  0
 36 43  1  0  0  0  0
 37 38  1  0  0  0  0
 38 39  1  0  0  0  0
 38 40  2  0  0  0  0
 40 41  1  0  0  0  0
 42 40  1  0  0  0  0
 43 42  2  0  0  0  0
M  END
>  <minimizedAffinity>
-6.77072001

$$$$

 OpenBabel03252505093D

 43 46  0  0  1  0  0  0  0  0999 V2000
   37.4720   32.4610   39.9580 C   0  0  0  0  0  0  0  0  0  0  0  0
   37.1460   31.3100   40.7070 C   0  0  0  0  0  0  0  0  0  0  0  0
   38.1730   30.3310   40.8960 C   0  0  0  0  0  0  0  0  0  0  0  0
   39.3920   30.5550   40.3540 N   0  0  0  0  0  0  0  0  0  0  0  0
   39.6590   31.6660   39.6460 C   0  0  0  0  0  0  0  0  0  0  0  0
   38.7020   32.6280   39.4430 N   0  0  0  0  0  0  0  0  0  0  0  0
   36.7150   33.2190   39.7980 H   0  0  0  0  0  0  0  0  0  0  0  0
   36.1590   31.1910   41.1120 H   0  0  0  0  0  0  0  0  0  0  0  0
   41.0200   31.8500   39.0710 C   0  0  2  0  0  0  0  0  0  0  0  0
   41.8680   32.3830   40.1930 C   0  0  0  0  0  0  0  0  0  0  0  0
   42.1900   33.8200   40.1490 C   0  0  0  0  0  0  0  0  0  0  0  0
   42.8430   34.0410   38.7880 C   0  0  0  0  0  0  0  0  0  0  0  0
   41.9240   33.8170   37.6840 C   0  0  0  0  0  0  0  0  0  0  0  0
   40.9940   32.6660   37.8780 C   0  0  0  0  0  0  0  0  0  0  0  0
   41.3590   30.8230   38.8070 H   0  0  0  0  0  0  0  0  0  0  0  0
   42.8260   31.8220   40.1890 H   0  0  0  0  0  0  0  0  0  0  0  0
   41.4310   32.1530   41.2060 H   0  0  0  0  0  0  0  0  0  0  0  0
   41.3300   34.4940   40.2600 H   0  0  0  0  0  0  0  0  0  0  0  0
   42.9450   34.0420   40.9010 H   0  0  0  0  0  0  0  0  0  0  0  0
   43.7320   33.3850   38.6980 H   0  0  0  0  0  0  0  0  0  0  0  0
   43.1010   35.1100   38.7680 H   0  0  0  0  0  0  0  0  0  0  0  0
   41.7780   34.3240   36.7410 H   0  0  0  0  0  0  0  0  0  0  0  0
   40.0310   32.3310   36.8680 N   0  0  0  0  0  0  0  0  0  0  0  0
   39.2380   32.9930   36.7680 H   0  0  0  0  0  0  0  0  0  0  0  0
   40.2390   31.4530   36.3490 H   0  0  0  0  0  0  0  0  0  0  0  0
   37.8660   29.1350   41.6640 C   0  0  0  0  0  0  0  0  0  0  0  0
   37.5770   29.2640   42.9810 C   0  0  0  0  0  0  0  0  0  0  0  0
   37.2920   28.0850   43.6780 C   0  0  0  0  0  0  0  0  0  0  0  0
   37.3320   26.9100   42.9600 C   0  0  0  0  0  0  0  0  0  0  0  0
   37.6220   26.7840   41.6370 C   0  0  0  0  0  0  0  0  0  0  0  0
   37.8950   27.9680   40.9960 N   0  0  0  0  0  0  0  0  0  0  0  0
   37.5650   30.2300   43.4800 H   0  0  0  0  0  0  0  0  0  0  0  0
   37.0530   28.1140   44.7320 H   0  0  0  0  0  0  0  0  0  0  0  0
   37.1060   26.0220   43.5300 H   0  0  0  0  0  0  0  0  0  0  0  0
   40.2740   25.4920   41.6010 Cl  0  0  0  0  0  0  0  0  0  0  0  0
   38.8480   24.8360   40.8090 C   0  0  0  0  0  0  0  0  0  0  0  0
   37.6600   25.5290   40.8940 C   0  0  0  0  0  0  0  0  0  0  0  0
   36.5420   25.0160   40.2730 C   0  0  0  0  0  0  0  0  0  0  0  0
   35.5910   25.5250   40.3130 H   0  0  0  0  0  0  0  0  0  0  0  0
   36.5620   23.8240   39.5630 C   0  0  0  0  0  0  0  0  0  0  0  0
   35.6640   23.4300   39.0760 H   0  0  0  0  0  0  0  0  0  0  0  0
   37.7460   23.1400   39.4830 C   0  0  0  0  0  3  0  0  0  0  0  0
   38.8830   23.6310   40.0950 C   0  0  0  0  0  3  0  0  0  0  0  0
  1  2  1  0  0  0  0
  2  3  2  0  0  0  0
  2  8  1  0  0  0  0
  3 26  1  0  0  0  0
  4  3  1  0  0  0  0
  5  4  2  0  0  0  0
  6  5  1  0  0  0  0
  6  1  2  0  0  0  0
  7  1  1  0  0  0  0
  9 15  1  6  0  0  0
  9  5  1  0  0  0  0
  9 10  1  0  0  0  0
 10 17  1  0  0  0  0
 11 10  1  0  0  0  0
 11 18  1  0  0  0  0
 11 19  1  0  0  0  0
 12 11  1  0  0  0  0
 13 14  2  0  0  0  0
 13 12  1  0  0  0  0
 14  9  1  0  0  0  0
 16 10  1  0  0  0  0
 20 12  1  0  0  0  0
 21 12  1  0  0  0  0
 22 13  1  0  0  0  0
 23 14  1  0  0  0  0
 24 23  1  0  0  0  0
 25 23  1  0  0  0  0
 26 27  1  0  0  0  0
 27 32  1  0  0  0  0
 27 28  2  0  0  0  0
 28 33  1  0  0  0  0
 29 34  1  0  0  0  0
 29 28  1  0  0  0  0
 30 29  2  0  0  0  0
 31 30  1  0  0  0  0
 31 26  2  0  0  0  0
 36 37  1  0  0  0  0
 36 35  1  0  0  0  0
 37 30  1  0  0  0  0
 38 39  1  0  0  0  0
 38 37  2  0  0  0  0
 40 38  1  0  0  0  0
 41 40  1  0  0  0  0
 42 40  2  0  0  0  0
 42 43  1  0  0  0  0
 43 36  2  0  0  0  0
M  END
>  <minimizedAffinity>
-6.75785255

$$$$

 OpenBabel03252505093D

 43 46  0  0  1  0  0  0  0  0999 V2000
   40.5540   32.9840   40.6150 C   0  0  0  0  0  0  0  0  0  0  0  0
   40.9090   31.8170   41.3270 C   0  0  0  0  0  0  0  0  0  0  0  0
   40.1110   30.6470   41.1180 C   0  0  0  0  0  0  0  0  0  0  0  0
   39.0690   30.7160   40.2590 N   0  0  0  0  0  0  0  0  0  0  0  0
   38.7660   31.8490   39.6020 C   0  0  0  0  0  0  0  0  0  0  0  0
   39.5060   32.9910   39.7740 N   0  0  0  0  0  0  0  0  0  0  0  0
   41.1400   33.8850   40.7530 H   0  0  0  0  0  0  0  0  0  0  0  0
   41.7490   31.8270   41.9950 H   0  0  0  0  0  0  0  0  0  0  0  0
   37.6020   31.8610   38.6730 C   0  0  2  0  0  0  0  0  0  0  0  0
   36.5680   30.9700   39.3060 C   0  0  0  0  0  0  0  0  0  0  0  0
   36.4010   29.6320   38.7140 C   0  0  0  0  0  0  0  0  0  0  0  0
   36.1110   29.8820   37.2360 C   0  0  0  0  0  0  0  0  0  0  0  0
   37.2380   30.4770   36.5380 C   0  0  0  0  0  0  0  0  0  0  0  0
   37.9850   31.5010   37.3270 C   0  0  0  0  0  0  0  0  0  0  0  0
   37.2400   32.9140   38.6840 H   0  0  0  0  0  0  0  0  0  0  0  0
   35.5890   31.4910   39.2430 H   0  0  0  0  0  0  0  0  0  0  0  0
   36.7300   30.8450   40.4140 H   0  0  0  0  0  0  0  0  0  0  0  0
   37.2700   28.9670   38.8120 H   0  0  0  0  0  0  0  0  0  0  0  0
   35.5150   29.1610   39.1350 H   0  0  0  0  0  0  0  0  0  0  0  0
   35.2110   30.5230   37.1450 H   0  0  0  0  0  0  0  0  0  0  0  0
   35.9660   28.8820   36.8040 H   0  0  0  0  0  0  0  0  0  0  0  0
   37.6490   30.3220   35.5510 H   0  0  0  0  0  0  0  0  0  0  0  0
   39.1230   32.1680   36.7620 N   0  0  0  0  0  0  0  0  0  0  0  0
   39.9750   31.5850   36.6540 H   0  0  0  0  0  0  0  0  0  0  0  0
   38.9610   33.1680   36.5230 H   0  0  0  0  0  0  0  0  0  0  0  0
   40.4530   29.4310   41.8370 C   0  0  0  0  0  0  0  0  0  0  0  0
   41.5060   29.4530   42.6890 C   0  0  0  0  0  0  0  0  0  0  0  0
   41.7990   28.2580   43.3550 C   0  0  0  0  0  0  0  0  0  0  0  0
   40.9890   27.1770   43.0820 C   0  0  0  0  0  0  0  0  0  0  0  0
   39.9320   27.1580   42.2260 C   0  0  0  0  0  0  0  0  0  0  0  0
   39.6840   28.3530   41.5960 N   0  0  0  0  0  0  0  0  0  0  0  0
   42.1000   30.3490   42.8530 H   0  0  0  0  0  0  0  0  0  0  0  0
   42.6250   28.2040   44.0500 H   0  0  0  0  0  0  0  0  0  0  0  0
   41.2440   26.2740   43.6140 H   0  0  0  0  0  0  0  0  0  0  0  0
   37.2400   27.3300   43.4190 Cl  0  0  0  0  0  0  0  0  0  0  0  0
   37.8060   25.9710   42.4570 C   0  0  0  0  0  0  0  0  0  0  0  0
   39.0870   26.0020   41.9490 C   0  0  0  0  0  0  0  0  0  0  0  0
   39.5310   24.9380   41.1950 C   0  0  0  0  0  0  0  0  0  0  0  0
   40.5260   24.9190   40.7780 H   0  0  0  0  0  0  0  0  0  0  0  0
   38.7390   23.8320   40.9230 C   0  0  0  0  0  0  0  0  0  0  0  0
   39.1070   22.9940   40.3220 H   0  0  0  0  0  0  0  0  0  0  0  0
   37.4660   23.8080   41.4310 C   0  0  0  0  0  3  0  0  0  0  0  0
   36.9950   24.8600   42.1900 C   0  0  0  0  0  3  0  0  0  0  0  0
  1  7  1  0  0  0  0
  1  2  1  0  0  0  0
  2  8  1  0  0  0  0
  3  2  2  0  0  0  0
  3 26  1  0  0  0  0
  4  3  1  0  0  0  0
  5  6  1  0  0  0  0
  5  4  2  0  0  0  0
  6  1  2  0  0  0  0
  9 15  1  6  0  0  0
  9 10  1  0  0  0  0
  9  5  1  0  0  0  0
 10 17  1  0  0  0  0
 11 18  1  0  0  0  0
 11 19  1  0  0  0  0
 11 10  1  0  0  0  0
 12 11  1  0  0  0  0
 13 12  1  0  0  0  0
 13 14  2  0  0  0  0
 14  9  1  0  0  0  0
 16 10  1  0  0  0  0
 20 12  1  0  0  0  0
 21 12  1  0  0  0  0
 22 13  1  0  0  0  0
 23 14  1  0  0  0  0
 24 23  1  0  0  0  0
 25 23  1  0  0  0  0
 26 27  1  0  0  0  0
 27 32  1  0  0  0  0
 27 28  2  0  0  0  0
 28 33  1  0  0  0  0
 29 28  1  0  0  0  0
 29 34  1  0  0  0  0
 30 29  2  0  0  0  0
 31 26  2  0  0  0  0
 31 30  1  0  0  0  0
 36 35  1  0  0  0  0
 37 30  1  0  0  0  0
 37 36  2  0  0  0  0
 38 37  1  0  0  0  0
 39 38  1  0  0  0  0
 40 38  2  0  0  0  0
 40 42  1  0  0  0  0
 41 40  1  0  0  0  0
 42 43  2  0  0  0  0
 43 36  1  0  0  0  0
M  END
>  <minimizedAffinity>
-6.73967743

$$$$

 OpenBabel03252505093D

 43 46  0  0  1  0  0  0  0  0999 V2000
   32.3080   26.6380   35.8150 C   0  0  0  0  0  0  0  0  0  0  0  0
   33.5760   26.9900   36.3270 C   0  0  0  0  0  0  0  0  0  0  0  0
   33.7150   28.2870   36.9150 C   0  0  0  0  0  0  0  0  0  0  0  0
   32.6360   29.1030   36.9490 N   0  0  0  0  0  0  0  0  0  0  0  0
   31.4470   28.7280   36.4480 C   0  0  0  0  0  0  0  0  0  0  0  0
   31.2730   27.4920   35.8780 N   0  0  0  0  0  0  0  0  0  0  0  0
   32.1730   25.6620   35.3640 H   0  0  0  0  0  0  0  0  0  0  0  0
   34.3930   26.2960   36.2690 H   0  0  0  0  0  0  0  0  0  0  0  0
   30.3000   29.6750   36.5130 C   0  0  2  0  0  0  0  0  0  0  0  0
   30.3070   30.4130   35.2020 C   0  0  0  0  0  0  0  0  0  0  0  0
   30.8160   31.7950   35.2270 C   0  0  0  0  0  0  0  0  0  0  0  0
   29.9730   32.5110   36.2790 C   0  0  0  0  0  0  0  0  0  0  0  0
   30.1940   31.9930   37.6190 C   0  0  0  0  0  0  0  0  0  0  0  0
   30.3590   30.5120   37.6900 C   0  0  0  0  0  0  0  0  0  0  0  0
   29.3970   29.0260   36.5670 H   0  0  0  0  0  0  0  0  0  0  0  0
   29.2620   30.4450   34.8260 H   0  0  0  0  0  0  0  0  0  0  0  0
   30.8600   29.8510   34.3970 H   0  0  0  0  0  0  0  0  0  0  0  0
   31.8810   31.8950   35.4760 H   0  0  0  0  0  0  0  0  0  0  0  0
   30.6030   32.2730   34.2730 H   0  0  0  0  0  0  0  0  0  0  0  0
   28.9020   32.4380   36.0020 H   0  0  0  0  0  0  0  0  0  0  0  0
   30.3420   33.5460   36.2790 H   0  0  0  0  0  0  0  0  0  0  0  0
   30.2640   32.4730   38.5850 H   0  0  0  0  0  0  0  0  0  0  0  0
   30.5860   29.8640   38.9510 N   0  0  0  0  0  0  0  0  0  0  0  0
   31.5220   30.0190   39.3710 H   0  0  0  0  0  0  0  0  0  0  0  0
   29.7790   29.3080   39.3000 H   0  0  0  0  0  0  0  0  0  0  0  0
   35.0090   28.6770   37.4510 C   0  0  0  0  0  0  0  0  0  0  0  0
   35.8370   29.4180   36.6770 C   0  0  0  0  0  0  0  0  0  0  0  0
   37.0720   29.7650   37.2350 C   0  0  0  0  0  0  0  0  0  0  0  0
   37.3260   29.3220   38.5140 C   0  0  0  0  0  0  0  0  0  0  0  0
   36.4920   28.5770   39.2890 C   0  0  0  0  0  0  0  0  0  0  0  0
   35.2920   28.2620   38.6990 N   0  0  0  0  0  0  0  0  0  0  0  0
   35.5650   29.7320   35.6720 H   0  0  0  0  0  0  0  0  0  0  0  0
   37.7820   30.3560   36.6730 H   0  0  0  0  0  0  0  0  0  0  0  0
   38.2870   29.6090   38.9110 H   0  0  0  0  0  0  0  0  0  0  0  0
   36.3470   30.6990   41.3330 Cl  0  0  0  0  0  0  0  0  0  0  0  0
   36.7410   29.0210   41.6810 C   0  0  0  0  0  0  0  0  0  0  0  0
   36.7790   28.1160   40.6420 C   0  0  0  0  0  0  0  0  0  0  0  0
   37.0880   26.8010   40.9140 C   0  0  0  0  0  0  0  0  0  0  0  0
   37.1290   26.0580   40.1330 H   0  0  0  0  0  0  0  0  0  0  0  0
   37.3640   26.3480   42.1960 C   0  0  0  0  0  0  0  0  0  0  0  0
   37.6070   25.2990   42.3960 H   0  0  0  0  0  0  0  0  0  0  0  0
   37.3250   27.2530   43.2240 C   0  0  0  0  0  3  0  0  0  0  0  0
   37.0180   28.5770   42.9810 C   0  0  0  0  0  3  0  0  0  0  0  0
  1  6  2  0  0  0  0
  1  2  1  0  0  0  0
  2  3  2  0  0  0  0
  3  4  1  0  0  0  0
  3 26  1  0  0  0  0
  5  9  1  0  0  0  0
  5  4  2  0  0  0  0
  6  5  1  0  0  0  0
  7  1  1  0  0  0  0
  8  2  1  0  0  0  0
  9 15  1  1  0  0  0
  9 14  1  0  0  0  0
 10 11  1  0  0  0  0
 10  9  1  0  0  0  0
 11 18  1  0  0  0  0
 11 12  1  0  0  0  0
 12 21  1  0  0  0  0
 12 13  1  0  0  0  0
 13 14  2  0  0  0  0
 13 22  1  0  0  0  0
 14 23  1  0  0  0  0
 16 10  1  0  0  0  0
 17 10  1  0  0  0  0
 19 11  1  0  0  0  0
 20 12  1  0  0  0  0
 23 25  1  0  0  0  0
 23 24  1  0  0  0  0
 26 31  1  0  0  0  0
 27 28  1  0  0  0  0
 27 26  2  0  0  0  0
 28 29  2  0  0  0  0
 29 34  1  0  0  0  0
 29 30  1  0  0  0  0
 30 37  1  0  0  0  0
 31 30  2  0  0  0  0
 32 27  1  0  0  0  0
 33 28  1  0  0  0  0
 35 36  1  0  0  0  0
 36 43  1  0  0  0  0
 37 38  1  0  0  0  0
 37 36  2  0  0  0  0
 38 40  2  0  0  0  0
 39 38  1  0  0  0  0
 40 41  1  0  0  0  0
 40 42  1  0  0  0  0
 43 42  2  0  0  0  0
M  END
>  <minimizedAffinity>
-6.57539368

$$$$

 OpenBabel03252505093D

 43 46  0  0  1  0  0  0  0  0999 V2000
   36.3710   26.1410   39.1140 C   0  0  0  0  0  0  0  0  0  0  0  0
   37.3350   25.9350   40.1250 C   0  0  0  0  0  0  0  0  0  0  0  0
   37.8800   27.0930   40.7660 C   0  0  0  0  0  0  0  0  0  0  0  0
   37.4490   28.3140   40.3750 N   0  0  0  0  0  0  0  0  0  0  0  0
   36.5300   28.4650   39.4060 C   0  0  0  0  0  0  0  0  0  0  0  0
   35.9830   27.3800   38.7700 N   0  0  0  0  0  0  0  0  0  0  0  0
   35.9410   25.2830   38.6120 H   0  0  0  0  0  0  0  0  0  0  0  0
   37.6350   24.9390   40.3900 H   0  0  0  0  0  0  0  0  0  0  0  0
   36.1020   29.8370   39.0200 C   0  0  2  0  0  0  0  0  0  0  0  0
   36.8550   30.1580   37.7570 C   0  0  0  0  0  0  0  0  0  0  0  0
   37.9960   31.0820   37.8890 C   0  0  0  0  0  0  0  0  0  0  0  0
   37.4210   32.3350   38.5440 C   0  0  0  0  0  0  0  0  0  0  0  0
   36.9600   32.0950   39.9010 C   0  0  0  0  0  0  0  0  0  0  0  0
   36.2800   30.7810   40.1000 C   0  0  0  0  0  0  0  0  0  0  0  0
   35.0170   29.7430   38.7880 H   0  0  0  0  0  0  0  0  0  0  0  0
   36.1370   30.6100   37.0400 H   0  0  0  0  0  0  0  0  0  0  0  0
   37.2140   29.2320   37.2260 H   0  0  0  0  0  0  0  0  0  0  0  0
   38.8350   30.7030   38.4880 H   0  0  0  0  0  0  0  0  0  0  0  0
   38.3380   31.3720   36.8970 H   0  0  0  0  0  0  0  0  0  0  0  0
   36.6000   32.7320   37.9150 H   0  0  0  0  0  0  0  0  0  0  0  0
   38.2710   33.0280   38.6200 H   0  0  0  0  0  0  0  0  0  0  0  0
   37.0120   32.6840   40.8050 H   0  0  0  0  0  0  0  0  0  0  0  0
   35.7750   30.4110   41.3910 N   0  0  0  0  0  0  0  0  0  0  0  0
   36.4940   30.1810   42.1030 H   0  0  0  0  0  0  0  0  0  0  0  0
   34.7370   30.4150   41.4650 H   0  0  0  0  0  0  0  0  0  0  0  0
   38.8740   26.9110   41.8110 C   0  0  0  0  0  0  0  0  0  0  0  0
   38.8590   25.7630   42.5300 C   0  0  0  0  0  0  0  0  0  0  0  0
   39.8330   25.6360   43.5270 C   0  0  0  0  0  0  0  0  0  0  0  0
   40.7110   26.6860   43.6790 C   0  0  0  0  0  0  0  0  0  0  0  0
   40.7230   27.8370   42.9550 C   0  0  0  0  0  0  0  0  0  0  0  0
   39.7500   27.9160   41.9890 N   0  0  0  0  0  0  0  0  0  0  0  0
   38.1310   24.9760   42.3510 H   0  0  0  0  0  0  0  0  0  0  0  0
   39.8790   24.7460   44.1390 H   0  0  0  0  0  0  0  0  0  0  0  0
   41.4470   26.5520   44.4570 H   0  0  0  0  0  0  0  0  0  0  0  0
   39.5530   30.4990   42.4600 Cl  0  0  0  0  0  0  0  0  0  0  0  0
   41.2270   30.2310   42.9280 C   0  0  0  0  0  0  0  0  0  0  0  0
   41.6630   28.9390   43.1320 C   0  0  0  0  0  0  0  0  0  0  0  0
   42.9740   28.7280   43.4990 C   0  0  0  0  0  0  0  0  0  0  0  0
   43.3580   27.7340   43.6700 H   0  0  0  0  0  0  0  0  0  0  0  0
   43.8780   29.7660   43.6720 C   0  0  0  0  0  0  0  0  0  0  0  0
   44.9170   29.5800   43.9640 H   0  0  0  0  0  0  0  0  0  0  0  0
   43.4390   31.0470   43.4670 C   0  0  0  0  0  3  0  0  0  0  0  0
   42.1300   31.2890   43.0980 C   0  0  0  0  0  3  0  0  0  0  0  0
  1  2  1  0  0  0  0
  2  8  1  0  0  0  0
  2  3  2  0  0  0  0
  3 26  1  0  0  0  0
  4  3  1  0  0  0  0
  5  4  2  0  0  0  0
  6  1  2  0  0  0  0
  6  5  1  0  0  0  0
  7  1  1  0  0  0  0
  9 15  1  6  0  0  0
  9  5  1  0  0  0  0
  9 14  1  0  0  0  0
 10 11  1  0  0  0  0
 10  9  1  0  0  0  0
 11 18  1  0  0  0  0
 11 12  1  0  0  0  0
 12 21  1  0  0  0  0
 12 13  1  0  0  0  0
 13 14  2  0  0  0  0
 13 22  1  0  0  0  0
 14 23  1  0  0  0  0
 16 10  1  0  0  0  0
 17 10  1  0  0  0  0
 19 11  1  0  0  0  0
 20 12  1  0  0  0  0
 23 25  1  0  0  0  0
 23 24  1  0  0  0  0
 26 31  2  0  0  0  0
 26 27  1  0  0  0  0
 27 28  2  0  0  0  0
 28 29  1  0  0  0  0
 28 33  1  0  0  0  0
 29 34  1  0  0  0  0
 30 37  1  0  0  0  0
 30 29  2  0  0  0  0
 31 30  1  0  0  0  0
 32 27  1  0  0  0  0
 35 36  1  0  0  0  0
 36 43  2  0  0  0  0
 36 37  1  0  0  0  0
 37 38  2  0  0  0  0
 38 39  1  0  0  0  0
 38 40  1  0  0  0  0
 40 41  1  0  0  0  0
 42 40  2  0  0  0  0
 43 42  1  0  0  0  0
M  END
>  <minimizedAffinity>
-6.51960945

$$$$

 OpenBabel03252505093D

 43 46  0  0  1  0  0  0  0  0999 V2000
   36.0160   24.4030   38.9050 C   0  0  0  0  0  0  0  0  0  0  0  0
   36.0960   25.5710   38.1160 C   0  0  0  0  0  0  0  0  0  0  0  0
   36.6040   26.7560   38.7370 C   0  0  0  0  0  0  0  0  0  0  0  0
   36.9780   26.6990   40.0360 N   0  0  0  0  0  0  0  0  0  0  0  0
   36.8840   25.5640   40.7520 C   0  0  0  0  0  0  0  0  0  0  0  0
   36.4030   24.4080   40.1920 N   0  0  0  0  0  0  0  0  0  0  0  0
   35.6350   23.4910   38.4620 H   0  0  0  0  0  0  0  0  0  0  0  0
   35.7820   25.5510   37.0890 H   0  0  0  0  0  0  0  0  0  0  0  0
   37.3080   25.5690   42.1790 C   0  0  2  0  0  0  0  0  0  0  0  0
   37.3210   27.0150   42.5950 C   0  0  0  0  0  0  0  0  0  0  0  0
   38.6430   27.6550   42.7100 C   0  0  0  0  0  0  0  0  0  0  0  0
   39.4290   26.7760   43.6790 C   0  0  0  0  0  0  0  0  0  0  0  0
   39.6860   25.4490   43.1470 C   0  0  0  0  0  0  0  0  0  0  0  0
   38.5540   24.8620   42.3720 C   0  0  0  0  0  0  0  0  0  0  0  0
   36.4930   25.0370   42.7200 H   0  0  0  0  0  0  0  0  0  0  0  0
   36.8250   27.0870   43.5850 H   0  0  0  0  0  0  0  0  0  0  0  0
   36.6780   27.6580   41.9290 H   0  0  0  0  0  0  0  0  0  0  0  0
   39.1980   27.7520   41.7670 H   0  0  0  0  0  0  0  0  0  0  0  0
   38.5310   28.6280   43.1850 H   0  0  0  0  0  0  0  0  0  0  0  0
   38.8810   26.7140   44.6410 H   0  0  0  0  0  0  0  0  0  0  0  0
   40.4060   27.2690   43.7780 H   0  0  0  0  0  0  0  0  0  0  0  0
   40.5450   24.7950   43.2000 H   0  0  0  0  0  0  0  0  0  0  0  0
   38.6700   23.5570   41.7870 N   0  0  0  0  0  0  0  0  0  0  0  0
   39.3050   23.4890   40.9690 H   0  0  0  0  0  0  0  0  0  0  0  0
   38.0990   22.8230   42.2540 H   0  0  0  0  0  0  0  0  0  0  0  0
   36.6980   27.9740   37.9490 C   0  0  0  0  0  0  0  0  0  0  0  0
   36.2780   27.9490   36.6610 C   0  0  0  0  0  0  0  0  0  0  0  0
   36.3920   29.1430   35.9420 C   0  0  0  0  0  0  0  0  0  0  0  0
   36.9180   30.2270   36.6100 C   0  0  0  0  0  0  0  0  0  0  0  0
   37.3390   30.2480   37.9040 C   0  0  0  0  0  0  0  0  0  0  0  0
   37.2070   29.0540   38.5680 N   0  0  0  0  0  0  0  0  0  0  0  0
   35.8720   27.0510   36.2010 H   0  0  0  0  0  0  0  0  0  0  0  0
   36.0750   29.1950   34.9100 H   0  0  0  0  0  0  0  0  0  0  0  0
   36.9900   31.1290   36.0240 H   0  0  0  0  0  0  0  0  0  0  0  0
   40.2820   30.4130   37.7880 Cl  0  0  0  0  0  0  0  0  0  0  0  0
   39.2620   31.5880   38.6060 C   0  0  0  0  0  0  0  0  0  0  0  0
   37.8950   31.4070   38.5940 C   0  0  0  0  0  0  0  0  0  0  0  0
   37.0950   32.3270   39.2350 C   0  0  0  0  0  0  0  0  0  0  0  0
   36.0200   32.2250   39.2510 H   0  0  0  0  0  0  0  0  0  0  0  0
   37.6080   33.4330   39.8950 C   0  0  0  0  0  0  0  0  0  0  0  0
   36.9580   34.1560   40.4000 H   0  0  0  0  0  0  0  0  0  0  0  0
   38.9670   33.6080   39.9040 C   0  0  0  0  0  3  0  0  0  0  0  0
   39.7940   32.7010   39.2700 C   0  0  0  0  0  3  0  0  0  0  0  0
  1  6  1  0  0  0  0
  2  3  1  0  0  0  0
  2  1  2  0  0  0  0
  3  4  2  0  0  0  0
  4  5  1  0  0  0  0
  5  9  1  0  0  0  0
  6  5  2  0  0  0  0
  7  1  1  0  0  0  0
  8  2  1  0  0  0  0
  9 14  1  0  0  0  0
  9 10  1  0  0  0  0
  9 15  1  1  0  0  0
 10 11  1  0  0  0  0
 10 16  1  0  0  0  0
 11 19  1  0  0  0  0
 11 12  1  0  0  0  0
 12 21  1  0  0  0  0
 12 20  1  0  0  0  0
 13 22  1  0  0  0  0
 13 12  1  0  0  0  0
 14 13  2  0  0  0  0
 17 10  1  0  0  0  0
 18 11  1  0  0  0  0
 23 25  1  0  0  0  0
 23 14  1  0  0  0  0
 24 23  1  0  0  0  0
 26 31  1  0  0  0  0
 26  3  1  0  0  0  0
 27 26  2  0  0  0  0
 28 29  2  0  0  0  0
 28 27  1  0  0  0  0
 29 30  1  0  0  0  0
 30 31  2  0  0  0  0
 30 37  1  0  0  0  0
 32 27  1  0  0  0  0
 33 28  1  0  0  0  0
 34 29  1  0  0  0  0
 35 36  1  0  0  0  0
 36 43  1  0  0  0  0
 37 36  2  0  0  0  0
 37 38  1  0  0  0  0
 38 39  1  0  0  0  0
 38 40  2  0  0  0  0
 40 42  1  0  0  0  0
 40 41  1  0  0  0  0
 43 42  2  0  0  0  0
M  END
>  <minimizedAffinity>
-6.49689102

$$$$

 OpenBabel03252505093D

 43 46  0  0  1  0  0  0  0  0999 V2000
   37.3770   29.8650   38.7440 C   0  0  0  0  0  0  0  0  0  0  0  0
   36.2400   29.6230   37.9420 C   0  0  0  0  0  0  0  0  0  0  0  0
   35.4410   28.4780   38.2550 C   0  0  0  0  0  0  0  0  0  0  0  0
   35.8100   27.6930   39.2930 N   0  0  0  0  0  0  0  0  0  0  0  0
   36.9010   27.9590   40.0310 C   0  0  0  0  0  0  0  0  0  0  0  0
   37.6920   29.0480   39.7630 N   0  0  0  0  0  0  0  0  0  0  0  0
   38.0000   30.7240   38.5310 H   0  0  0  0  0  0  0  0  0  0  0  0
   36.0010   30.2860   37.1320 H   0  0  0  0  0  0  0  0  0  0  0  0
   37.2560   27.0520   41.1560 C   0  0  2  0  0  0  0  0  0  0  0  0
   36.6080   27.6460   42.3780 C   0  0  0  0  0  0  0  0  0  0  0  0
   37.4980   28.3540   43.3150 C   0  0  0  0  0  0  0  0  0  0  0  0
   38.5800   27.3420   43.6800 C   0  0  0  0  0  0  0  0  0  0  0  0
   39.4170   26.9860   42.5460 C   0  0  0  0  0  0  0  0  0  0  0  0
   38.6830   26.8480   41.2540 C   0  0  0  0  0  0  0  0  0  0  0  0
   36.7610   26.0860   40.9100 H   0  0  0  0  0  0  0  0  0  0  0  0
   36.1180   26.8210   42.9360 H   0  0  0  0  0  0  0  0  0  0  0  0
   35.7540   28.3340   42.1180 H   0  0  0  0  0  0  0  0  0  0  0  0
   37.9630   29.2660   42.9170 H   0  0  0  0  0  0  0  0  0  0  0  0
   36.9510   28.5760   44.2300 H   0  0  0  0  0  0  0  0  0  0  0  0
   38.1050   26.4400   44.1150 H   0  0  0  0  0  0  0  0  0  0  0  0
   39.2290   27.8670   44.3950 H   0  0  0  0  0  0  0  0  0  0  0  0
   40.4780   26.8010   42.4510 H   0  0  0  0  0  0  0  0  0  0  0  0
   39.3850   26.5020   40.0510 N   0  0  0  0  0  0  0  0  0  0  0  0
   39.9950   27.2450   39.6600 H   0  0  0  0  0  0  0  0  0  0  0  0
   39.2000   25.5380   39.7060 H   0  0  0  0  0  0  0  0  0  0  0  0
   34.2640   28.2050   37.4460 C   0  0  0  0  0  0  0  0  0  0  0  0
   33.9990   26.9240   37.0960 C   0  0  0  0  0  0  0  0  0  0  0  0
   32.8580   26.7110   36.3140 C   0  0  0  0  0  0  0  0  0  0  0  0
   32.1160   27.8220   35.9780 C   0  0  0  0  0  0  0  0  0  0  0  0
   32.3850   29.1070   36.3320 C   0  0  0  0  0  0  0  0  0  0  0  0
   33.5130   29.2660   37.0980 N   0  0  0  0  0  0  0  0  0  0  0  0
   34.6350   26.0960   37.4010 H   0  0  0  0  0  0  0  0  0  0  0  0
   32.5880   25.7130   35.9980 H   0  0  0  0  0  0  0  0  0  0  0  0
   31.2450   27.6190   35.3760 H   0  0  0  0  0  0  0  0  0  0  0  0
   30.5940   30.0540   38.4760 Cl  0  0  0  0  0  0  0  0  0  0  0  0
   30.7120   30.8020   36.8890 C   0  0  0  0  0  0  0  0  0  0  0  0
   31.5860   30.2710   35.9650 C   0  0  0  0  0  0  0  0  0  0  0  0
   31.6790   30.8560   34.7210 C   0  0  0  0  0  0  0  0  0  0  0  0
   32.3500   30.4740   33.9670 H   0  0  0  0  0  0  0  0  0  0  0  0
   30.9260   31.9640   34.3580 C   0  0  0  0  0  0  0  0  0  0  0  0
   31.0120   32.4170   33.3650 H   0  0  0  0  0  0  0  0  0  0  0  0
   30.0590   32.4870   35.2810 C   0  0  0  0  0  3  0  0  0  0  0  0
   29.9450   31.9210   36.5350 C   0  0  0  0  0  3  0  0  0  0  0  0
  1  6  1  0  0  0  0
  2  3  1  0  0  0  0
  2  1  2  0  0  0  0
  3  4  2  0  0  0  0
  4  5  1  0  0  0  0
  5  9  1  0  0  0  0
  6  5  2  0  0  0  0
  7  1  1  0  0  0  0
  8  2  1  0  0  0  0
  9 15  1  6  0  0  0
  9 14  1  0  0  0  0
  9 10  1  0  0  0  0
 10 16  1  0  0  0  0
 10 11  1  0  0  0  0
 11 12  1  0  0  0  0
 11 19  1  0  0  0  0
 12 20  1  0  0  0  0
 12 21  1  0  0  0  0
 13 12  1  0  0  0  0
 14 13  2  0  0  0  0
 17 10  1  0  0  0  0
 18 11  1  0  0  0  0
 22 13  1  0  0  0  0
 23 14  1  0  0  0  0
 24 23  1  0  0  0  0
 25 23  1  0  0  0  0
 26  3  1  0  0  0  0
 27 32  1  0  0  0  0
 27 26  2  0  0  0  0
 28 27  1  0  0  0  0
 29 28  2  0  0  0  0
 29 30  1  0  0  0  0
 30 31  2  0  0  0  0
 31 26  1  0  0  0  0
 33 28  1  0  0  0  0
 34 29  1  0  0  0  0
 36 35  1  0  0  0  0
 37 30  1  0  0  0  0
 37 36  2  0  0  0  0
 38 37  1  0  0  0  0
 39 38  1  0  0  0  0
 40 38  2  0  0  0  0
 40 42  1  0  0  0  0
 41 40  1  0  0  0  0
 42 43  2  0  0  0  0
 43 36  1  0  0  0  0
M  END
>  <minimizedAffinity>
-6.49162483

$$$$

 OpenBabel03252505093D

 43 46  0  0  1  0  0  0  0  0999 V2000
   37.8050   30.3860   38.0620 C   0  0  0  0  0  0  0  0  0  0  0  0
   36.6170   29.9760   37.4180 C   0  0  0  0  0  0  0  0  0  0  0  0
   35.8840   28.8970   38.0070 C   0  0  0  0  0  0  0  0  0  0  0  0
   36.3600   28.3290   39.1380 N   0  0  0  0  0  0  0  0  0  0  0  0
   37.4980   28.7510   39.7180 C   0  0  0  0  0  0  0  0  0  0  0  0
   38.2280   29.7820   39.1850 N   0  0  0  0  0  0  0  0  0  0  0  0
   38.3810   31.2000   37.6390 H   0  0  0  0  0  0  0  0  0  0  0  0
   36.2920   30.4680   36.5210 H   0  0  0  0  0  0  0  0  0  0  0  0
   37.9710   28.0800   40.9600 C   0  0  2  0  0  0  0  0  0  0  0  0
   38.1150   26.6250   40.6080 C   0  0  0  0  0  0  0  0  0  0  0  0
   37.0640   25.7200   41.1050 C   0  0  0  0  0  0  0  0  0  0  0  0
   37.0310   25.9400   42.6160 C   0  0  0  0  0  0  0  0  0  0  0  0
   36.5920   27.2780   42.9760 C   0  0  0  0  0  0  0  0  0  0  0  0
   37.1060   28.3590   42.0850 C   0  0  0  0  0  0  0  0  0  0  0  0
   38.9780   28.5150   41.1530 H   0  0  0  0  0  0  0  0  0  0  0  0
   39.0850   26.2720   41.0170 H   0  0  0  0  0  0  0  0  0  0  0  0
   38.2200   26.4610   39.4980 H   0  0  0  0  0  0  0  0  0  0  0  0
   36.0640   25.8910   40.6850 H   0  0  0  0  0  0  0  0  0  0  0  0
   37.3720   24.6890   40.9430 H   0  0  0  0  0  0  0  0  0  0  0  0
   38.0340   25.7290   43.0380 H   0  0  0  0  0  0  0  0  0  0  0  0
   36.2610   25.2480   42.9850 H   0  0  0  0  0  0  0  0  0  0  0  0
   35.9590   27.6500   43.7690 H   0  0  0  0  0  0  0  0  0  0  0  0
   36.7510   29.7290   42.3220 N   0  0  0  0  0  0  0  0  0  0  0  0
   35.7670   29.9790   42.1080 H   0  0  0  0  0  0  0  0  0  0  0  0
   37.5280   30.3190   42.6840 H   0  0  0  0  0  0  0  0  0  0  0  0
   34.6570   28.4540   37.3660 C   0  0  0  0  0  0  0  0  0  0  0  0
   34.4390   27.1240   37.2260 C   0  0  0  0  0  0  0  0  0  0  0  0
   33.2460   26.7470   36.5990 C   0  0  0  0  0  0  0  0  0  0  0  0
   32.4100   27.7610   36.1880 C   0  0  0  0  0  0  0  0  0  0  0  0
   32.6310   29.0950   36.3290 C   0  0  0  0  0  0  0  0  0  0  0  0
   33.8140   29.4170   36.9490 N   0  0  0  0  0  0  0  0  0  0  0  0
   35.1490   26.3810   37.5790 H   0  0  0  0  0  0  0  0  0  0  0  0
   33.0090   25.7020   36.4560 H   0  0  0  0  0  0  0  0  0  0  0  0
   31.5000   27.4320   35.7090 H   0  0  0  0  0  0  0  0  0  0  0  0
   30.7650   30.0350   38.4120 Cl  0  0  0  0  0  0  0  0  0  0  0  0
   30.8160   30.6730   36.7740 C   0  0  0  0  0  0  0  0  0  0  0  0
   31.7330   30.1550   35.8850 C   0  0  0  0  0  0  0  0  0  0  0  0
   31.7730   30.6540   34.6020 C   0  0  0  0  0  0  0  0  0  0  0  0
   32.4740   30.2790   33.8720 H   0  0  0  0  0  0  0  0  0  0  0  0
   30.9250   31.6610   34.1640 C   0  0  0  0  0  0  0  0  0  0  0  0
   30.9700   32.0470   33.1400 H   0  0  0  0  0  0  0  0  0  0  0  0
   30.0160   32.1720   35.0530 C   0  0  0  0  0  3  0  0  0  0  0  0
   29.9530   31.6910   36.3460 C   0  0  0  0  0  3  0  0  0  0  0  0
  1  6  1  0  0  0  0
  2  3  1  0  0  0  0
  2  1  2  0  0  0  0
  3  4  2  0  0  0  0
  4  5  1  0  0  0  0
  5  9  1  0  0  0  0
  6  5  2  0  0  0  0
  7  1  1  0  0  0  0
  8  2  1  0  0  0  0
  9 15  1  1  0  0  0
  9 14  1  0  0  0  0
 10  9  1  0  0  0  0
 10 16  1  0  0  0  0
 10 11  1  0  0  0  0
 11 12  1  0  0  0  0
 12 13  1  0  0  0  0
 12 21  1  0  0  0  0
 12 20  1  0  0  0  0
 13 22  1  0  0  0  0
 14 23  1  0  0  0  0
 14 13  2  0  0  0  0
 17 10  1  0  0  0  0
 18 11  1  0  0  0  0
 19 11  1  0  0  0  0
 23 25  1  0  0  0  0
 24 23  1  0  0  0  0
 26  3  1  0  0  0  0
 27 26  1  0  0  0  0
 27 32  1  0  0  0  0
 28 27  2  0  0  0  0
 29 30  2  0  0  0  0
 29 28  1  0  0  0  0
 30 31  1  0  0  0  0
 31 26  2  0  0  0  0
 33 28  1  0  0  0  0
 34 29  1  0  0  0  0
 36 35  1  0  0  0  0
 37 30  1  0  0  0  0
 37 36  2  0  0  0  0
 38 37  1  0  0  0  0
 39 38  1  0  0  0  0
 40 38  2  0  0  0  0
 40 42  1  0  0  0  0
 41 40  1  0  0  0  0
 42 43  2  0  0  0  0
 43 36  1  0  0  0  0
M  END
>  <minimizedAffinity>
-6.44069242

$$$$

 OpenBabel03252505093D

 43 46  0  0  1  0  0  0  0  0999 V2000
   42.4930   29.4140   41.4100 C   0  0  0  0  0  0  0  0  0  0  0  0
   41.4130   28.6090   41.8330 C   0  0  0  0  0  0  0  0  0  0  0  0
   40.1090   29.1980   41.8320 C   0  0  0  0  0  0  0  0  0  0  0  0
   39.9770   30.4830   41.4300 N   0  0  0  0  0  0  0  0  0  0  0  0
   41.0340   31.2140   41.0360 C   0  0  0  0  0  0  0  0  0  0  0  0
   42.2990   30.6850   41.0220 N   0  0  0  0  0  0  0  0  0  0  0  0
   43.4920   28.9940   41.4000 H   0  0  0  0  0  0  0  0  0  0  0  0
   41.5840   27.5940   42.1400 H   0  0  0  0  0  0  0  0  0  0  0  0
   40.8220   32.6250   40.6100 C   0  0  2  0  0  0  0  0  0  0  0  0
   40.4000   32.5560   39.1680 C   0  0  0  0  0  0  0  0  0  0  0  0
   41.4170   32.9230   38.1670 C   0  0  0  0  0  0  0  0  0  0  0  0
   41.8760   34.3250   38.5600 C   0  0  0  0  0  0  0  0  0  0  0  0
   42.5660   34.3480   39.8390 C   0  0  0  0  0  0  0  0  0  0  0  0
   41.9810   33.4470   40.8740 C   0  0  0  0  0  0  0  0  0  0  0  0
   39.9670   32.9830   41.2280 H   0  0  0  0  0  0  0  0  0  0  0  0
   39.5350   33.2390   39.0350 H   0  0  0  0  0  0  0  0  0  0  0  0
   39.9850   31.5460   38.8910 H   0  0  0  0  0  0  0  0  0  0  0  0
   42.2840   32.2510   38.1150 H   0  0  0  0  0  0  0  0  0  0  0  0
   40.9450   33.0080   37.1900 H   0  0  0  0  0  0  0  0  0  0  0  0
   41.0010   35.0050   38.5730 H   0  0  0  0  0  0  0  0  0  0  0  0
   42.6190   34.6020   37.7990 H   0  0  0  0  0  0  0  0  0  0  0  0
   43.4290   34.8950   40.1930 H   0  0  0  0  0  0  0  0  0  0  0  0
   42.5630   33.3680   42.1840 N   0  0  0  0  0  0  0  0  0  0  0  0
   43.4800   32.8850   42.2380 H   0  0  0  0  0  0  0  0  0  0  0  0
   41.9930   33.8070   42.9360 H   0  0  0  0  0  0  0  0  0  0  0  0
   38.9770   28.3930   42.2620 C   0  0  0  0  0  0  0  0  0  0  0  0
   38.2230   28.8310   43.2990 C   0  0  0  0  0  0  0  0  0  0  0  0
   37.1480   28.0200   43.6790 C   0  0  0  0  0  0  0  0  0  0  0  0
   36.9600   26.8580   42.9640 C   0  0  0  0  0  0  0  0  0  0  0  0
   37.7200   26.4200   41.9240 C   0  0  0  0  0  0  0  0  0  0  0  0
   38.7620   27.2490   41.5870 N   0  0  0  0  0  0  0  0  0  0  0  0
   38.4350   29.7640   43.8150 H   0  0  0  0  0  0  0  0  0  0  0  0
   36.5050   28.3100   44.4980 H   0  0  0  0  0  0  0  0  0  0  0  0
   36.1220   26.2590   43.2850 H   0  0  0  0  0  0  0  0  0  0  0  0
   39.4520   24.1910   42.7780 Cl  0  0  0  0  0  0  0  0  0  0  0  0
   38.2580   24.0730   41.4920 C   0  0  0  0  0  0  0  0  0  0  0  0
   37.5040   25.1840   41.1790 C   0  0  0  0  0  0  0  0  0  0  0  0
   36.5690   25.0940   40.1720 C   0  0  0  0  0  0  0  0  0  0  0  0
   35.9570   25.9370   39.8940 H   0  0  0  0  0  0  0  0  0  0  0  0
   36.3530   23.9250   39.4560 C   0  0  0  0  0  0  0  0  0  0  0  0
   35.6040   23.8700   38.6580 H   0  0  0  0  0  0  0  0  0  0  0  0
   37.1050   22.8250   39.7720 C   0  0  0  0  0  3  0  0  0  0  0  0
   38.0510   22.8870   40.7760 C   0  0  0  0  0  3  0  0  0  0  0  0
  1  2  1  0  0  0  0
  2  8  1  0  0  0  0
  3  2  2  0  0  0  0
  3 26  1  0  0  0  0
  4  3  1  0  0  0  0
  5  4  2  0  0  0  0
  6  5  1  0  0  0  0
  6  1  2  0  0  0  0
  7  1  1  0  0  0  0
  9 14  1  0  0  0  0
  9  5  1  0  0  0  0
  9 15  1  1  0  0  0
 10  9  1  0  0  0  0
 11 12  1  0  0  0  0
 11 10  1  0  0  0  0
 12 20  1  0  0  0  0
 12 13  1  0  0  0  0
 13 22  1  0  0  0  0
 13 14  2  0  0  0  0
 14 23  1  0  0  0  0
 16 10  1  0  0  0  0
 17 10  1  0  0  0  0
 18 11  1  0  0  0  0
 19 11  1  0  0  0  0
 21 12  1  0  0  0  0
 23 24  1  0  0  0  0
 23 25  1  0  0  0  0
 26 27  1  0  0  0  0
 27 28  2  0  0  0  0
 27 32  1  0  0  0  0
 28 33  1  0  0  0  0
 29 34  1  0  0  0  0
 29 28  1  0  0  0  0
 30 29  2  0  0  0  0
 31 30  1  0  0  0  0
 31 26  2  0  0  0  0
 36 35  1  0  0  0  0
 37 36  1  0  0  0  0
 37 30  1  0  0  0  0
 38 37  2  0  0  0  0
 39 38  1  0  0  0  0
 40 42  2  0  0  0  0
 40 38  1  0  0  0  0
 41 40  1  0  0  0  0
 42 43  1  0  0  0  0
 43 36  2  0  0  0  0
M  END
>  <minimizedAffinity>
-6.26051807

$$$$
