
 OpenBabel03252508213D

 34 36  0  0  0  0  0  0  0  0999 V2000
   39.3380   32.6610   38.8610 C   0  0  0  0  0  0  0  0  0  0  0  0
   39.0070   33.2670   40.0460 C   0  0  0  0  0  0  0  0  0  0  0  0
   38.3600   32.6470   41.1060 C   0  0  0  0  0  0  0  0  0  0  0  0
   38.0450   31.3070   40.9030 C   0  0  0  0  0  0  0  0  0  0  0  0
   38.3670   30.6700   39.7190 C   0  0  0  0  0  0  0  0  0  0  0  0
   39.0040   31.3110   38.6970 C   0  0  0  0  0  0  0  0  0  0  0  0
   39.2870   34.3100   40.1210 H   0  0  0  0  0  0  0  0  0  0  0  0
   38.1230   33.1770   42.0180 H   0  0  0  0  0  0  0  0  0  0  0  0
   37.5480   30.7950   41.6930 H   0  0  0  0  0  0  0  0  0  0  0  0
   38.0980   29.6130   39.6070 H   0  0  0  0  0  0  0  0  0  0  0  0
   41.7070   30.1720   38.9130 Cl  0  0  0  0  0  0  0  0  0  0  0  0
   40.6150   30.0710   37.5280 C   0  0  0  0  0  0  0  0  0  0  0  0
   39.3360   30.6220   37.4540 C   0  0  0  0  0  0  0  0  0  0  0  0
   38.6020   30.4640   36.3130 C   0  0  0  0  0  0  0  0  0  0  0  0
   37.6250   30.9360   36.3760 H   0  0  0  0  0  0  0  0  0  0  0  0
   39.1120   29.7690   35.2440 C   0  0  0  0  0  0  0  0  0  0  0  0
   38.4900   29.6750   34.3720 H   0  0  0  0  0  0  0  0  0  0  0  0
   40.3750   29.2180   35.3000 C   0  0  0  0  0  3  0  0  0  0  0  0
   41.1480   29.3630   36.4500 C   0  0  0  0  0  3  0  0  0  0  0  0
   40.0260   33.3290   37.7390 C   0  0  0  0  0  0  0  0  0  0  0  0
   39.2210   33.5330   36.9740 H   0  0  0  0  0  0  0  0  0  0  0  0
   40.7970   32.7400   37.2420 H   0  0  0  0  0  0  0  0  0  0  0  0
   40.5430   34.6970   38.1440 C   0  0  0  0  0  0  0  0  0  0  0  0
   39.8280   35.2000   38.8520 H   0  0  0  0  0  0  0  0  0  0  0  0
   40.7460   35.3060   37.2540 H   0  0  0  0  0  0  0  0  0  0  0  0
   43.9540   33.4500   39.2000 C   0  0  0  0  0  0  0  0  0  0  0  0
   42.7590   33.5700   38.4440 C   0  0  0  0  0  0  0  0  0  0  0  0
   41.8210   34.5070   38.8760 C   0  0  0  0  0  0  0  0  0  0  0  0
   42.1050   35.2540   40.0030 N   0  0  0  0  0  0  0  0  0  0  0  0
   43.2540   35.0940   40.6740 C   0  0  0  0  0  0  0  0  0  0  0  0
   44.1830   34.1950   40.2800 N   0  0  0  0  0  0  0  0  0  0  0  0
   44.5860   32.6890   38.7490 H   0  0  0  0  0  0  0  0  0  0  0  0
   42.5180   33.0040   37.5700 H   0  0  0  0  0  0  0  0  0  0  0  0
   43.4750   35.6820   41.5580 H   0  0  0  0  0  0  0  0  0  0  0  0
  1  2  1  0  0  0  0
  2  7  1  0  0  0  0
  2  3  2  0  0  0  0
  3  8  1  0  0  0  0
  4  3  1  0  0  0  0
  4  9  1  0  0  0  0
  5  4  2  0  0  0  0
  6  1  2  0  0  0  0
  6  5  1  0  0  0  0
 10  5  1  0  0  0  0
 12 11  1  0  0  0  0
 13 12  1  0  0  0  0
 13  6  1  0  0  0  0
 14 15  1  0  0  0  0
 14 13  2  0  0  0  0
 16 18  2  0  0  0  0
 16 14  1  0  0  0  0
 17 16  1  0  0  0  0
 18 19  1  0  0  0  0
 19 12  2  0  0  0  0
 20 23  1  0  0  0  0
 20  1  1  0  0  0  0
 21 20  1  0  0  0  0
 22 20  1  0  0  0  0
 23 24  1  0  0  0  0
 23 28  1  0  0  0  0
 25 23  1  0  0  0  0
 26 31  1  0  0  0  0
 27 28  1  0  0  0  0
 27 26  2  0  0  0  0
 28 29  2  0  0  0  0
 29 30  1  0  0  0  0
 30 34  1  0  0  0  0
 31 30  2  0  0  0  0
 32 26  1  0  0  0  0
 33 27  1  0  0  0  0
M  END
>  <minimizedAffinity>
-4.31826448

>  <minimizedRMSD>
8.96639824

$$$$
