
 OpenBabel03252509163D

 25 27  0  0  0  0  0  0  0  0999 V2000
   45.7420   32.8390   45.7920 C   0  0  0  0  0  0  0  0  0  0  0  0
   45.6780   32.7690   47.2100 C   0  0  0  0  0  0  0  0  0  0  0  0
   45.9280   31.5840   47.8070 C   0  0  0  0  0  0  0  0  0  0  0  0
   46.2430   30.4450   47.0370 C   0  0  0  0  0  0  0  0  0  0  0  0
   46.1700   31.1480   45.3610 S   0  0  0  0  0  0  0  0  0  0  0  0
   45.4270   33.6920   47.7550 H   0  0  0  0  0  0  0  0  0  0  0  0
   45.8820   31.5210   48.8790 H   0  0  0  0  0  0  0  0  0  0  0  0
   44.6210   36.1510   44.5370 C   0  0  0  0  0  0  0  0  0  0  0  0
   45.2640   36.1540   43.2730 C   0  0  0  0  0  0  0  0  0  0  0  0
   46.0390   35.0310   42.9250 C   0  0  0  0  0  0  0  0  0  0  0  0
   46.1300   34.0010   43.8240 N   0  0  0  0  0  0  0  0  0  0  0  0
   45.4950   34.0500   45.0160 C   0  0  0  0  0  0  0  0  0  0  0  0
   44.7420   35.1220   45.3720 N   0  0  0  0  0  0  0  0  0  0  0  0
   44.0200   37.0000   44.8270 H   0  0  0  0  0  0  0  0  0  0  0  0
   45.1590   37.0030   42.5910 H   0  0  0  0  0  0  0  0  0  0  0  0
   46.5450   34.9920   41.9760 H   0  0  0  0  0  0  0  0  0  0  0  0
   49.1730   29.5410   47.1520 Cl  0  0  0  0  0  0  0  0  0  0  0  0
   47.7760   28.5180   47.3650 C   0  0  0  0  0  0  0  0  0  0  0  0
   46.5440   29.1250   47.2750 C   0  0  0  0  0  0  0  0  0  0  0  0
   45.5100   28.2000   47.4640 C   0  0  0  0  0  0  0  0  0  0  0  0
   44.4530   28.4910   47.4290 H   0  0  0  0  0  0  0  0  0  0  0  0
   45.6930   26.8590   47.7080 C   0  0  0  0  0  0  0  0  0  0  0  0
   44.8680   26.1790   47.8470 H   0  0  0  0  0  0  0  0  0  0  0  0
   46.9780   26.3740   47.7750 C   0  0  0  0  0  3  0  0  0  0  0  0
   48.0710   27.1950   47.6040 C   0  0  0  0  0  3  0  0  0  0  0  0
  1  2  2  0  0  0  0
  2  6  1  0  0  0  0
  2  3  1  0  0  0  0
  3  7  1  0  0  0  0
  4 19  1  0  0  0  0
  4  3  2  0  0  0  0
  5  1  1  0  0  0  0
  5  4  1  0  0  0  0
  8 14  1  0  0  0  0
  8 13  1  0  0  0  0
  9  8  2  0  0  0  0
 10  9  1  0  0  0  0
 10 11  2  0  0  0  0
 11 12  1  0  0  0  0
 12 13  2  0  0  0  0
 12  1  1  0  0  0  0
 15  9  1  0  0  0  0
 16 10  1  0  0  0  0
 17 18  1  0  0  0  0
 18 25  1  0  0  0  0
 19 18  2  0  0  0  0
 19 20  1  0  0  0  0
 20 22  2  0  0  0  0
 21 20  1  0  0  0  0
 22 24  1  0  0  0  0
 22 23  1  0  0  0  0
 25 24  2  0  0  0  0
M  END
>  <minimizedAffinity>
-4.66419077

>  <minimizedRMSD>
1.99773908

$$$$
