
 OpenBabel03252508383D

 41 44  0  0  0  0  0  0  0  0999 V2000
   45.2780   33.9760   40.7230 C   0  0  0  0  0  0  0  0  0  0  0  0
   44.2090   33.6650   39.9200 C   0  0  0  0  0  0  0  0  0  0  0  0
   44.4960   33.1840   38.6670 C   0  0  0  0  0  0  0  0  0  0  0  0
   45.7680   33.0040   38.1900 C   0  0  0  0  0  0  0  0  0  0  0  0
   46.8030   33.3270   39.0220 C   0  0  0  0  0  0  0  0  0  0  0  0
   46.5870   33.8150   40.2940 C   0  0  0  0  0  0  0  0  0  0  0  0
   43.6610   32.9350   38.0250 H   0  0  0  0  0  0  0  0  0  0  0  0
   45.9750   32.6240   37.1970 H   0  0  0  0  0  0  0  0  0  0  0  0
   47.8190   33.1910   38.6620 H   0  0  0  0  0  0  0  0  0  0  0  0
   41.0100   35.3190   41.0430 C   0  0  0  0  0  0  0  0  0  0  0  0
   42.3020   35.1470   40.5150 C   0  0  0  0  0  0  0  0  0  0  0  0
   42.8830   33.8690   40.4590 C   0  0  0  0  0  0  0  0  0  0  0  0
   42.1120   32.8660   40.9400 N   0  0  0  0  0  0  0  0  0  0  0  0
   40.8890   33.0430   41.4370 C   0  0  0  0  0  0  0  0  0  0  0  0
   40.3410   34.2670   41.4870 N   0  0  0  0  0  0  0  0  0  0  0  0
   40.4750   36.6180   41.0760 N   0  0  0  0  0  0  0  0  0  0  0  0
   42.8970   35.9640   40.1360 H   0  0  0  0  0  0  0  0  0  0  0  0
   40.3640   32.1530   41.7970 H   0  0  0  0  0  0  0  0  0  0  0  0
   40.2160   37.1710   41.9150 H   0  0  0  0  0  0  0  0  0  0  0  0
   40.3820   36.9330   40.0780 H   0  0  0  0  0  0  0  0  0  0  0  0
   47.7480   34.1280   41.1010 C   0  0  0  0  0  0  0  0  0  0  0  0
   48.2160   35.4240   40.9940 C   0  0  0  0  0  0  0  0  0  0  0  0
   49.3130   35.9170   41.6890 C   0  0  0  0  0  0  0  0  0  0  0  0
   49.9670   35.0510   42.5310 C   0  0  0  0  0  0  0  0  0  0  0  0
   49.5240   33.7610   42.6560 C   0  0  0  0  0  0  0  0  0  0  0  0
   48.4210   33.2900   41.9490 C   0  0  0  0  0  0  0  0  0  0  0  0
   47.7440   36.1730   40.3400 H   0  0  0  0  0  0  0  0  0  0  0  0
   49.6590   36.9340   41.5880 H   0  0  0  0  0  0  0  0  0  0  0  0
   50.8320   35.4200   43.0850 H   0  0  0  0  0  0  0  0  0  0  0  0
   50.0480   33.0860   43.3250 H   0  0  0  0  0  0  0  0  0  0  0  0
   49.7070   31.3250   40.0280 Cl  0  0  0  0  0  0  0  0  0  0  0  0
   48.4740   30.9670   41.2270 C   0  0  0  0  0  0  0  0  0  0  0  0
   47.9440   31.9340   42.0680 C   0  0  0  0  0  0  0  0  0  0  0  0
   46.9890   31.4760   42.9470 C   0  0  0  0  0  0  0  0  0  0  0  0
   46.5480   32.1990   43.6200 H   0  0  0  0  0  0  0  0  0  0  0  0
   46.5550   30.1700   43.0300 C   0  0  0  0  0  0  0  0  0  0  0  0
   45.8090   29.9150   43.7460 H   0  0  0  0  0  0  0  0  0  0  0  0
   47.1070   29.2370   42.1770 C   0  0  0  0  0  3  0  0  0  0  0  0
   48.0680   29.6390   41.2750 C   0  0  0  0  0  3  0  0  0  0  0  0
   44.8920   34.8990   43.1440 N   0  0  0  0  0  0  0  0  0  0  0  0
   45.0580   34.4890   42.0560 C   0  0  0  0  0  0  0  0  0  0  0  0
  1 41  1  0  0  0  0
  2 12  1  0  0  0  0
  2  1  2  0  0  0  0
  3  2  1  0  0  0  0
  4  3  2  0  0  0  0
  4  5  1  0  0  0  0
  5  6  2  0  0  0  0
  6  1  1  0  0  0  0
  6 21  1  0  0  0  0
  7  3  1  0  0  0  0
  8  4  1  0  0  0  0
  9  5  1  0  0  0  0
 10 16  1  0  0  0  0
 10 15  1  0  0  0  0
 11 10  2  0  0  0  0
 12 11  1  0  0  0  0
 12 13  2  0  0  0  0
 13 14  1  0  0  0  0
 14 15  2  0  0  0  0
 14 18  1  0  0  0  0
 16 19  1  0  0  0  0
 17 11  1  0  0  0  0
 20 16  1  0  0  0  0
 21 26  1  0  0  0  0
 22 21  2  0  0  0  0
 22 23  1  0  0  0  0
 23 24  2  0  0  0  0
 24 25  1  0  0  0  0
 24 29  1  0  0  0  0
 25 30  1  0  0  0  0
 26 33  1  0  0  0  0
 26 25  2  0  0  0  0
 27 22  1  0  0  0  0
 28 23  1  0  0  0  0
 31 32  1  0  0  0  0
 32 39  2  0  0  0  0
 32 33  1  0  0  0  0
 33 34  2  0  0  0  0
 34 36  1  0  0  0  0
 34 35  1  0  0  0  0
 36 37  1  0  0  0  0
 38 36  2  0  0  0  0
 39 38  1  0  0  0  0
 41 40  3  0  0  0  0
M  END
>  <minimizedAffinity>
-6.09724855

>  <minimizedRMSD>
1.08558738

$$$$
