
 OpenBabel03242513143D

 30 32  0  0  0  0  0  0  0  0999 V2000
   44.6680   30.4610   47.5930 Cl  0  0  0  0  0  0  0  0  0  0  0  0
   46.0400   29.8590   46.6590 C   0  0  0  0  0  0  0  0  0  0  0  0
   47.0340   30.7080   46.2960 C   0  0  0  0  0  0  0  0  0  0  0  0
   48.0850   30.1940   45.5820 C   0  0  0  0  0  0  0  0  0  0  0  0
   48.1360   28.8650   45.2410 C   0  0  0  0  0  0  0  0  0  0  0  0
   47.0960   27.9870   45.6220 C   0  0  0  0  0  0  0  0  0  0  0  0
   46.0320   28.5120   46.3460 C   0  0  0  0  0  0  0  0  0  0  0  0
   48.9590   30.6820   45.2200 H   0  0  0  0  0  0  0  0  0  0  0  0
   48.9030   28.3430   44.6840 H   0  0  0  0  0  0  0  0  0  0  0  0
   47.0810   26.9390   45.3840 H   0  0  0  0  0  0  0  0  0  0  0  0
   43.5320   28.2100   44.6180 Cl  0  0  0  0  0  0  0  0  0  0  0  0
   43.7660   27.3370   46.1080 C   0  0  0  0  0  0  0  0  0  0  0  0
   44.9560   27.6070   46.7420 C   0  0  0  0  0  0  0  0  0  0  0  0
   45.2720   26.9730   47.9490 C   0  0  0  0  0  0  0  0  0  0  0  0
   46.1700   27.1030   48.5380 H   0  0  0  0  0  0  0  0  0  0  0  0
   44.3760   26.0620   48.5120 C   0  0  0  0  0  0  0  0  0  0  0  0
   44.5590   25.5410   49.4370 H   0  0  0  0  0  0  0  0  0  0  0  0
   43.1750   25.7940   47.8620 C   0  0  0  0  0  0  0  0  0  0  0  0
   42.8860   26.4360   46.6680 C   0  0  0  0  0  0  0  0  0  0  0  0
   46.9600   32.1090   46.6560 C   0  0  0  0  0  0  0  0  0  0  0  0
   47.4080   32.4170   47.7970 O   0  0  0  0  0  0  0  0  0  0  0  0
   44.8660   34.8150   45.4440 C   0  0  0  0  0  0  0  0  0  0  0  0
   45.3290   35.0590   44.1370 C   0  0  0  0  0  0  0  0  0  0  0  0
   46.3840   34.2480   43.6990 C   0  0  0  0  0  0  0  0  0  0  0  0
   46.8810   33.3040   44.5400 N   0  0  0  0  0  0  0  0  0  0  0  0
   46.4100   33.1070   45.7770 C   0  0  0  0  0  0  0  0  0  0  0  0
   45.4010   33.8740   46.2090 N   0  0  0  0  0  0  0  0  0  0  0  0
   44.0490   35.4690   45.7350 H   0  0  0  0  0  0  0  0  0  0  0  0
   44.9650   35.7930   43.4390 H   0  0  0  0  0  0  0  0  0  0  0  0
   46.8420   34.3230   42.7120 H   0  0  0  0  0  0  0  0  0  0  0  0
  2  1  1  0  0  0  0
  3 20  1  0  0  0  0
  3  2  2  0  0  0  0
  4  3  1  0  0  0  0
  5  4  2  0  0  0  0
  5  6  1  0  0  0  0
  6  7  2  0  0  0  0
  7  2  1  0  0  0  0
  7 13  1  0  0  0  0
  8  4  1  0  0  0  0
  9  5  1  0  0  0  0
 10  6  1  0  0  0  0
 11 12  1  0  0  0  0
 12 19  2  0  0  0  0
 12 13  1  0  0  0  0
 13 14  2  0  0  0  0
 14 16  1  0  0  0  0
 14 15  1  0  0  0  0
 16 17  1  0  0  0  0
 18 16  2  0  0  0  0
 19 18  1  0  0  0  0
 20 21  2  0  0  0  0
 22 28  1  0  0  0  0
 22 27  1  0  0  0  0
 23 22  2  0  0  0  0
 24 23  1  0  0  0  0
 24 25  2  0  0  0  0
 25 26  1  0  0  0  0
 26 27  2  0  0  0  0
 26 20  1  0  0  0  0
 29 23  1  0  0  0  0
 30 24  1  0  0  0  0
M  END
>  <minimizedAffinity>
-5.03308344

>  <minimizedRMSD>
2.36645126

$$$$
