
 OpenBabel03252503573D

 20 21  0  0  0  0  0  0  0  0999 V2000
   46.0890   34.7370   43.4400 C   0  0  0  0  0  0  0  0  0  0  0  0
   45.1660   35.7750   43.6670 C   0  0  0  0  0  0  0  0  0  0  0  0
   44.4990   35.8000   44.8880 C   0  0  0  0  0  0  0  0  0  0  0  0
   44.7820   34.8120   45.7950 N   0  0  0  0  0  0  0  0  0  0  0  0
   45.6700   33.8470   45.5240 C   0  0  0  0  0  0  0  0  0  0  0  0
   46.3250   33.7920   44.3690 N   0  0  0  0  0  0  0  0  0  0  0  0
   44.9720   36.5400   42.9190 H   0  0  0  0  0  0  0  0  0  0  0  0
   43.7880   36.5970   45.0700 H   0  0  0  0  0  0  0  0  0  0  0  0
   47.4310   31.6220   44.6960 Cl  0  0  0  0  0  0  0  0  0  0  0  0
   46.7210   31.7360   46.2890 C   0  0  0  0  0  0  0  0  0  0  0  0
   45.9180   32.8280   46.5430 C   0  0  0  0  0  0  0  0  0  0  0  0
   45.3590   32.9130   47.8010 C   0  0  0  0  0  0  0  0  0  0  0  0
   44.7080   33.7600   48.0690 H   0  0  0  0  0  0  0  0  0  0  0  0
   45.5590   31.9730   48.8080 C   0  0  0  0  0  0  0  0  0  0  0  0
   45.1110   32.0630   49.7860 H   0  0  0  0  0  0  0  0  0  0  0  0
   46.3810   30.9170   48.4510 C   0  0  0  0  0  0  0  0  0  0  0  0
   46.9750   30.7580   47.2210 C   0  0  0  0  0  0  0  0  0  0  0  0
   46.7380   34.7720   42.1630 C   0  0  0  0  0  0  0  0  0  0  0  0
   47.8080   35.3940   41.9020 O   0  0  0  0  0  0  0  0  0  0  0  0
   46.4900   34.3130   41.2050 H   0  0  0  0  0  0  0  0  0  0  0  0
  1  2  2  0  0  0  0
  1  6  1  0  0  0  0
  2  3  1  0  0  0  0
  3  8  1  0  0  0  0
  3  4  2  0  0  0  0
  5  4  1  0  0  0  0
  5 11  1  0  0  0  0
  6  5  2  0  0  0  0
  7  2  1  0  0  0  0
  9 10  1  0  0  0  0
 10 11  2  0  0  0  0
 10 17  1  0  0  0  0
 11 12  1  0  0  0  0
 12 13  1  0  0  0  0
 12 14  2  0  0  0  0
 14 15  1  0  0  0  0
 16 14  1  0  0  0  0
 17 16  2  0  0  0  0
 18  1  1  0  0  0  0
 19 18  2  0  0  0  0
 20 18  1  0  0  0  0
M  END
>  <minimizedAffinity>
-4.96129894

>  <minimizedRMSD>
0.541378379

$$$$
