
 OpenBabel03242513573D

 34 37  0  0  0  0  0  0  0  0999 V2000
   44.1600   35.7840   42.2300 O   0  0  0  0  0  0  0  0  0  0  0  0
   43.4020   35.2690   41.1910 C   0  0  0  0  0  0  0  0  0  0  0  0
   43.8680   34.6140   40.0770 C   0  0  0  0  0  0  0  0  0  0  0  0
   42.9820   34.1590   39.1250 C   0  0  0  0  0  0  0  0  0  0  0  0
   41.6180   34.3400   39.2490 C   0  0  0  0  0  0  0  0  0  0  0  0
   40.8160   33.8690   38.2820 N   0  0  0  0  0  0  0  0  0  0  0  0
   39.4790   34.0250   38.3650 C   0  0  0  0  0  0  0  0  0  0  0  0
   38.9740   34.6790   39.4690 C   0  0  0  0  0  0  0  0  0  0  0  0
   39.8030   35.1770   40.4900 C   0  0  0  0  0  0  0  0  0  0  0  0
   41.1730   34.9980   40.3720 C   0  0  0  0  0  0  0  0  0  0  0  0
   42.0360   35.4730   41.3540 C   0  0  0  0  0  0  0  0  0  0  0  0
   44.9420   34.4890   40.0100 H   0  0  0  0  0  0  0  0  0  0  0  0
   43.3930   33.6470   38.2640 H   0  0  0  0  0  0  0  0  0  0  0  0
   38.7830   33.6710   37.6240 H   0  0  0  0  0  0  0  0  0  0  0  0
   37.9310   34.8630   39.6480 H   0  0  0  0  0  0  0  0  0  0  0  0
   39.4260   35.6880   41.3570 H   0  0  0  0  0  0  0  0  0  0  0  0
   41.5920   35.9680   42.1820 H   0  0  0  0  0  0  0  0  0  0  0  0
   44.6250   35.5630   44.6480 C   0  0  0  0  0  0  0  0  0  0  0  0
   44.5750   35.0710   43.3360 C   0  0  0  0  0  0  0  0  0  0  0  0
   44.9820   33.7500   43.1490 C   0  0  0  0  0  0  0  0  0  0  0  0
   45.3940   33.0250   44.2080 N   0  0  0  0  0  0  0  0  0  0  0  0
   45.4300   33.5300   45.4650 C   0  0  0  0  0  0  0  0  0  0  0  0
   45.0360   34.8090   45.6510 N   0  0  0  0  0  0  0  0  0  0  0  0
   44.3000   36.5900   44.7440 H   0  0  0  0  0  0  0  0  0  0  0  0
   44.9930   33.2470   42.1920 H   0  0  0  0  0  0  0  0  0  0  0  0
   47.7110   31.6770   44.9040 Cl  0  0  0  0  0  0  0  0  0  0  0  0
   46.9200   31.8790   46.4710 C   0  0  0  0  0  0  0  0  0  0  0  0
   45.8720   32.7630   46.6260 C   0  0  0  0  0  0  0  0  0  0  0  0
   45.2610   32.9060   47.8770 C   0  0  0  0  0  0  0  0  0  0  0  0
   44.4520   33.6230   47.8860 H   0  0  0  0  0  0  0  0  0  0  0  0
   45.7410   32.1420   48.9200 C   0  0  0  0  0  0  0  0  0  0  0  0
   45.2160   32.3110   49.8500 H   0  0  0  0  0  0  0  0  0  0  0  0
   46.7910   31.2660   48.7360 C   0  0  0  0  0  0  0  0  0  0  0  0
   47.4170   31.1020   47.5140 C   0  0  0  0  0  0  0  0  0  0  0  0
  1 19  1  0  0  0  0
  2 11  1  0  0  0  0
  2  1  1  0  0  0  0
  3  2  2  0  0  0  0
  4  5  2  0  0  0  0
  4  3  1  0  0  0  0
  5 10  1  0  0  0  0
  6  7  2  0  0  0  0
  6  5  1  0  0  0  0
  7  8  1  0  0  0  0
  8 15  1  0  0  0  0
  8  9  2  0  0  0  0
  9 16  1  0  0  0  0
 10  9  1  0  0  0  0
 10 11  2  0  0  0  0
 11 17  1  0  0  0  0
 12  3  1  0  0  0  0
 13  4  1  0  0  0  0
 14  7  1  0  0  0  0
 18 24  1  0  0  0  0
 18 23  1  0  0  0  0
 19 18  2  0  0  0  0
 20 19  1  0  0  0  0
 20 21  2  0  0  0  0
 21 22  1  0  0  0  0
 22 23  2  0  0  0  0
 22 28  1  0  0  0  0
 25 20  1  0  0  0  0
 26 27  1  0  0  0  0
 27 28  2  0  0  0  0
 27 34  1  0  0  0  0
 28 29  1  0  0  0  0
 29 30  1  0  0  0  0
 29 31  2  0  0  0  0
 31 32  1  0  0  0  0
 33 31  1  0  0  0  0
 34 33  2  0  0  0  0
M  END
>  <minimizedAffinity>
-6.90561152

>  <minimizedRMSD>
1.19436848

$$$$
