
 OpenBabel03252505573D

 36 38  0  0  0  0  0  0  0  0999 V2000
   44.8920   34.9810   44.9680 C   0  0  0  0  0  0  0  0  0  0  0  0
   45.8190   34.6780   43.9760 C   0  0  0  0  0  0  0  0  0  0  0  0
   46.7700   33.6890   44.2440 C   0  0  0  0  0  0  0  0  0  0  0  0
   46.7370   33.0810   45.4470 N   0  0  0  0  0  0  0  0  0  0  0  0
   45.8280   33.3970   46.3810 C   0  0  0  0  0  0  0  0  0  0  0  0
   44.9040   34.3480   46.1420 N   0  0  0  0  0  0  0  0  0  0  0  0
   44.1470   35.7620   44.7360 H   0  0  0  0  0  0  0  0  0  0  0  0
   45.8680   31.3950   42.6630 Cl  0  0  0  0  0  0  0  0  0  0  0  0
   47.3530   32.3350   42.4770 C   0  0  0  0  0  0  0  0  0  0  0  0
   47.7900   33.4150   43.2330 C   0  0  0  0  0  0  0  0  0  0  0  0
   48.9970   33.9990   42.9240 C   0  0  0  0  0  0  0  0  0  0  0  0
   49.2100   34.8200   43.5840 H   0  0  0  0  0  0  0  0  0  0  0  0
   49.7320   33.4980   41.8770 C   0  0  0  0  0  0  0  0  0  0  0  0
   50.6620   33.9960   41.6790 H   0  0  0  0  0  0  0  0  0  0  0  0
   49.3370   32.4210   41.0920 C   0  0  0  0  0  3  0  0  0  0  0  0
   48.1230   31.8430   41.4150 C   0  0  0  0  0  3  0  0  0  0  0  0
   45.7660   35.4310   42.6800 C   0  0  0  0  0  0  0  0  0  0  0  0
   44.8640   36.4540   42.8980 F   0  0  0  0  0  0  0  0  0  0  0  0
   45.2600   34.5480   41.7270 F   0  0  0  0  0  0  0  0  0  0  0  0
   47.0110   35.8970   42.3680 F   0  0  0  0  0  0  0  0  0  0  0  0
   45.7670   32.7930   47.6260 O   0  0  0  0  0  0  0  0  0  0  0  0
   45.2930   31.4850   47.7790 C   0  0  0  0  0  0  0  0  0  0  0  0
   44.5680   31.2610   47.0010 H   0  0  0  0  0  0  0  0  0  0  0  0
   44.7300   31.4040   48.7490 H   0  0  0  0  0  0  0  0  0  0  0  0
   46.4440   30.5750   47.8220 C   0  0  0  0  0  0  0  0  0  0  0  0
   46.6300   29.3250   47.2800 C   0  0  0  0  0  0  0  0  0  0  0  0
   47.8250   28.6920   47.4880 C   0  0  0  0  0  0  0  0  0  0  0  0
   48.7980   29.2520   48.1950 N   0  0  0  0  0  0  0  0  0  0  0  0
   48.6180   30.4830   48.7320 C   0  0  0  0  0  0  0  0  0  0  0  0
   47.4400   31.1620   48.5540 N   0  0  0  0  0  0  0  0  0  0  0  0
   45.7300   29.0430   46.7440 H   0  0  0  0  0  0  0  0  0  0  0  0
   47.8650   27.7200   47.0210 H   0  0  0  0  0  0  0  0  0  0  0  0
   49.7630   31.0290   49.5010 C   0  0  0  0  0  0  0  0  0  0  0  0
   49.7960   32.3930   49.4560 F   0  0  0  0  0  0  0  0  0  0  0  0
   50.9670   30.5030   49.0100 F   0  0  0  0  0  0  0  0  0  0  0  0
   49.6960   30.6660   50.8350 F   0  0  0  0  0  0  0  0  0  0  0  0
  1  6  1  0  0  0  0
  2  3  1  0  0  0  0
  2  1  2  0  0  0  0
  3  4  2  0  0  0  0
  4  5  1  0  0  0  0
  5 21  1  0  0  0  0
  6  5  2  0  0  0  0
  7  1  1  0  0  0  0
  9  8  1  0  0  0  0
  9 10  1  0  0  0  0
 10  3  1  0  0  0  0
 11 10  2  0  0  0  0
 11 12  1  0  0  0  0
 13 11  1  0  0  0  0
 14 13  1  0  0  0  0
 15 16  1  0  0  0  0
 15 13  2  0  0  0  0
 16  9  2  0  0  0  0
 17 18  1  0  0  0  0
 17  2  1  0  0  0  0
 19 17  1  0  0  0  0
 20 17  1  0  0  0  0
 21 22  1  0  0  0  0
 22 25  1  0  0  0  0
 22 24  1  0  0  0  0
 23 22  1  0  0  0  0
 25 30  1  0  0  0  0
 26 27  1  0  0  0  0
 26 25  2  0  0  0  0
 27 28  2  0  0  0  0
 28 29  1  0  0  0  0
 29 33  1  0  0  0  0
 30 29  2  0  0  0  0
 31 26  1  0  0  0  0
 32 27  1  0  0  0  0
 33 36  1  0  0  0  0
 34 33  1  0  0  0  0
 35 33  1  0  0  0  0
M  END
>  <minimizedAffinity>
-6.26032925

>  <minimizedRMSD>
0.415000349

$$$$
