
 OpenBabel03252508383D

 41 44  0  0  0  0  0  0  0  0999 V2000
   45.1180   33.9760   40.7430 C   0  0  0  0  0  0  0  0  0  0  0  0
   44.0590   33.6260   39.9420 C   0  0  0  0  0  0  0  0  0  0  0  0
   44.3620   33.0770   38.7200 C   0  0  0  0  0  0  0  0  0  0  0  0
   45.6410   32.8680   38.2720 C   0  0  0  0  0  0  0  0  0  0  0  0
   46.6650   33.2320   39.1020 C   0  0  0  0  0  0  0  0  0  0  0  0
   46.4320   33.7870   40.3420 C   0  0  0  0  0  0  0  0  0  0  0  0
   43.5360   32.7960   38.0800 H   0  0  0  0  0  0  0  0  0  0  0  0
   45.8610   32.4340   37.3040 H   0  0  0  0  0  0  0  0  0  0  0  0
   47.6860   33.0730   38.7640 H   0  0  0  0  0  0  0  0  0  0  0  0
   40.7990   35.3150   40.8050 C   0  0  0  0  0  0  0  0  0  0  0  0
   42.0960   35.1090   40.3040 C   0  0  0  0  0  0  0  0  0  0  0  0
   42.7260   33.8620   40.4490 C   0  0  0  0  0  0  0  0  0  0  0  0
   41.9940   32.9200   41.0890 N   0  0  0  0  0  0  0  0  0  0  0  0
   40.7660   33.1280   41.5590 C   0  0  0  0  0  0  0  0  0  0  0  0
   40.1710   34.3220   41.4160 N   0  0  0  0  0  0  0  0  0  0  0  0
   40.2140   36.5800   40.6340 N   0  0  0  0  0  0  0  0  0  0  0  0
   42.6600   35.8770   39.7960 H   0  0  0  0  0  0  0  0  0  0  0  0
   40.2750   32.2870   42.0590 H   0  0  0  0  0  0  0  0  0  0  0  0
   39.9340   37.2500   41.3760 H   0  0  0  0  0  0  0  0  0  0  0  0
   40.1090   36.7290   39.6000 H   0  0  0  0  0  0  0  0  0  0  0  0
   47.5830   34.1400   41.1480 C   0  0  0  0  0  0  0  0  0  0  0  0
   48.1370   35.3780   40.8860 C   0  0  0  0  0  0  0  0  0  0  0  0
   49.2390   35.8970   41.5530 C   0  0  0  0  0  0  0  0  0  0  0  0
   49.8060   35.1180   42.5330 C   0  0  0  0  0  0  0  0  0  0  0  0
   49.2760   33.8870   42.8140 C   0  0  0  0  0  0  0  0  0  0  0  0
   48.1690   33.3890   42.1300 C   0  0  0  0  0  0  0  0  0  0  0  0
   47.7380   36.0560   40.1150 H   0  0  0  0  0  0  0  0  0  0  0  0
   49.6550   36.8670   41.3300 H   0  0  0  0  0  0  0  0  0  0  0  0
   50.6730   35.5090   43.0690 H   0  0  0  0  0  0  0  0  0  0  0  0
   49.7310   33.2820   43.5900 H   0  0  0  0  0  0  0  0  0  0  0  0
   46.7990   33.1700   44.8280 Cl  0  0  0  0  0  0  0  0  0  0  0  0
   46.9580   31.9010   43.6250 C   0  0  0  0  0  0  0  0  0  0  0  0
   47.6020   32.0940   42.4130 C   0  0  0  0  0  0  0  0  0  0  0  0
   47.6320   30.9900   41.5900 C   0  0  0  0  0  0  0  0  0  0  0  0
   48.1280   31.0970   40.6340 H   0  0  0  0  0  0  0  0  0  0  0  0
   47.0800   29.7640   41.8960 C   0  0  0  0  0  0  0  0  0  0  0  0
   47.1560   28.9700   41.1900 H   0  0  0  0  0  0  0  0  0  0  0  0
   46.4460   29.6100   43.1120 C   0  0  0  0  0  3  0  0  0  0  0  0
   46.3870   30.6830   43.9760 C   0  0  0  0  0  3  0  0  0  0  0  0
   44.7000   35.0290   43.1040 N   0  0  0  0  0  0  0  0  0  0  0  0
   44.8810   34.5600   42.0420 C   0  0  0  0  0  0  0  0  0  0  0  0
  1 41  1  0  0  0  0
  2 12  1  0  0  0  0
  2  1  2  0  0  0  0
  3  2  1  0  0  0  0
  4  3  2  0  0  0  0
  4  5  1  0  0  0  0
  5  6  2  0  0  0  0
  6  1  1  0  0  0  0
  6 21  1  0  0  0  0
  7  3  1  0  0  0  0
  8  4  1  0  0  0  0
  9  5  1  0  0  0  0
 10 15  1  0  0  0  0
 11 12  1  0  0  0  0
 11 10  2  0  0  0  0
 12 13  2  0  0  0  0
 13 14  1  0  0  0  0
 14 18  1  0  0  0  0
 15 14  2  0  0  0  0
 16 10  1  0  0  0  0
 16 19  1  0  0  0  0
 17 11  1  0  0  0  0
 20 16  1  0  0  0  0
 21 26  1  0  0  0  0
 22 21  2  0  0  0  0
 22 23  1  0  0  0  0
 23 24  2  0  0  0  0
 24 25  1  0  0  0  0
 24 29  1  0  0  0  0
 25 30  1  0  0  0  0
 26 33  1  0  0  0  0
 26 25  2  0  0  0  0
 27 22  1  0  0  0  0
 28 23  1  0  0  0  0
 32 39  1  0  0  0  0
 32 31  1  0  0  0  0
 33 32  2  0  0  0  0
 34 36  2  0  0  0  0
 34 33  1  0  0  0  0
 35 34  1  0  0  0  0
 36 38  1  0  0  0  0
 37 36  1  0  0  0  0
 38 39  2  0  0  0  0
 41 40  3  0  0  0  0
M  END
>  <minimizedAffinity>
-6.32123041

>  <minimizedRMSD>
0.638575971

$$$$
