
 OpenBabel03252505573D

 36 38  0  0  0  0  0  0  0  0999 V2000
   44.8920   34.9810   44.9700 C   0  0  0  0  0  0  0  0  0  0  0  0
   45.8200   34.6770   43.9770 C   0  0  0  0  0  0  0  0  0  0  0  0
   46.7700   33.6890   44.2450 C   0  0  0  0  0  0  0  0  0  0  0  0
   46.7370   33.0800   45.4480 N   0  0  0  0  0  0  0  0  0  0  0  0
   45.8280   33.3970   46.3820 C   0  0  0  0  0  0  0  0  0  0  0  0
   44.9040   34.3480   46.1440 N   0  0  0  0  0  0  0  0  0  0  0  0
   44.1480   35.7620   44.7380 H   0  0  0  0  0  0  0  0  0  0  0  0
   45.8670   31.3940   42.6650 Cl  0  0  0  0  0  0  0  0  0  0  0  0
   47.3520   32.3340   42.4790 C   0  0  0  0  0  0  0  0  0  0  0  0
   47.7900   33.4140   43.2340 C   0  0  0  0  0  0  0  0  0  0  0  0
   48.9970   33.9980   42.9250 C   0  0  0  0  0  0  0  0  0  0  0  0
   49.2100   34.8180   43.5850 H   0  0  0  0  0  0  0  0  0  0  0  0
   49.7300   33.4960   41.8780 C   0  0  0  0  0  0  0  0  0  0  0  0
   50.6610   33.9950   41.6780 H   0  0  0  0  0  0  0  0  0  0  0  0
   49.3350   32.4200   41.0920 C   0  0  0  0  0  3  0  0  0  0  0  0
   48.1220   31.8420   41.4160 C   0  0  0  0  0  3  0  0  0  0  0  0
   45.7660   35.4300   42.6820 C   0  0  0  0  0  0  0  0  0  0  0  0
   44.8630   36.4530   42.9000 F   0  0  0  0  0  0  0  0  0  0  0  0
   45.2610   34.5470   41.7280 F   0  0  0  0  0  0  0  0  0  0  0  0
   47.0110   35.8970   42.3700 F   0  0  0  0  0  0  0  0  0  0  0  0
   45.7670   32.7920   47.6280 O   0  0  0  0  0  0  0  0  0  0  0  0
   45.2940   31.4840   47.7800 C   0  0  0  0  0  0  0  0  0  0  0  0
   44.5690   31.2600   47.0030 H   0  0  0  0  0  0  0  0  0  0  0  0
   44.7320   31.4020   48.7510 H   0  0  0  0  0  0  0  0  0  0  0  0
   46.4460   30.5750   47.8220 C   0  0  0  0  0  0  0  0  0  0  0  0
   46.6330   29.3260   47.2790 C   0  0  0  0  0  0  0  0  0  0  0  0
   47.8280   28.6940   47.4860 C   0  0  0  0  0  0  0  0  0  0  0  0
   48.8010   29.2540   48.1940 N   0  0  0  0  0  0  0  0  0  0  0  0
   48.6200   30.4830   48.7320 C   0  0  0  0  0  0  0  0  0  0  0  0
   47.4410   31.1610   48.5550 N   0  0  0  0  0  0  0  0  0  0  0  0
   45.7330   29.0430   46.7420 H   0  0  0  0  0  0  0  0  0  0  0  0
   47.8700   27.7220   47.0170 H   0  0  0  0  0  0  0  0  0  0  0  0
   49.7640   31.0300   49.5020 C   0  0  0  0  0  0  0  0  0  0  0  0
   49.7990   32.3930   49.4550 F   0  0  0  0  0  0  0  0  0  0  0  0
   50.9690   30.5030   49.0120 F   0  0  0  0  0  0  0  0  0  0  0  0
   49.6960   30.6680   50.8360 F   0  0  0  0  0  0  0  0  0  0  0  0
  1  6  1  0  0  0  0
  2  3  1  0  0  0  0
  2  1  2  0  0  0  0
  3  4  2  0  0  0  0
  4  5  1  0  0  0  0
  5 21  1  0  0  0  0
  6  5  2  0  0  0  0
  7  1  1  0  0  0  0
  9  8  1  0  0  0  0
  9 10  1  0  0  0  0
 10  3  1  0  0  0  0
 11 10  2  0  0  0  0
 11 12  1  0  0  0  0
 13 11  1  0  0  0  0
 14 13  1  0  0  0  0
 15 16  1  0  0  0  0
 15 13  2  0  0  0  0
 16  9  2  0  0  0  0
 17 18  1  0  0  0  0
 17  2  1  0  0  0  0
 19 17  1  0  0  0  0
 20 17  1  0  0  0  0
 21 22  1  0  0  0  0
 22 25  1  0  0  0  0
 22 24  1  0  0  0  0
 23 22  1  0  0  0  0
 25 30  1  0  0  0  0
 26 27  1  0  0  0  0
 26 25  2  0  0  0  0
 27 28  2  0  0  0  0
 28 29  1  0  0  0  0
 29 33  1  0  0  0  0
 30 29  2  0  0  0  0
 31 26  1  0  0  0  0
 32 27  1  0  0  0  0
 33 36  1  0  0  0  0
 34 33  1  0  0  0  0
 35 33  1  0  0  0  0
M  END
>  <minimizedAffinity>
-6.2621088

>  <minimizedRMSD>
0.977193713

$$$$
