
 OpenBabel03252508383D

 41 44  0  0  0  0  0  0  0  0999 V2000
   45.1840   33.9710   40.7150 C   0  0  0  0  0  0  0  0  0  0  0  0
   44.1260   33.6290   39.9100 C   0  0  0  0  0  0  0  0  0  0  0  0
   44.4300   33.1060   38.6770 C   0  0  0  0  0  0  0  0  0  0  0  0
   45.7090   32.9150   38.2220 C   0  0  0  0  0  0  0  0  0  0  0  0
   46.7320   33.2700   39.0560 C   0  0  0  0  0  0  0  0  0  0  0  0
   46.4980   33.8000   40.3070 C   0  0  0  0  0  0  0  0  0  0  0  0
   43.6040   32.8320   38.0340 H   0  0  0  0  0  0  0  0  0  0  0  0
   45.9290   32.5010   37.2460 H   0  0  0  0  0  0  0  0  0  0  0  0
   47.7530   33.1250   38.7130 H   0  0  0  0  0  0  0  0  0  0  0  0
   40.8460   35.2710   40.7910 C   0  0  0  0  0  0  0  0  0  0  0  0
   42.1430   35.0840   40.2820 C   0  0  0  0  0  0  0  0  0  0  0  0
   42.7920   33.8460   40.4250 C   0  0  0  0  0  0  0  0  0  0  0  0
   42.0780   32.8940   41.0690 N   0  0  0  0  0  0  0  0  0  0  0  0
   40.8490   33.0840   41.5460 C   0  0  0  0  0  0  0  0  0  0  0  0
   40.2360   34.2690   41.4060 N   0  0  0  0  0  0  0  0  0  0  0  0
   40.2420   36.5280   40.6220 N   0  0  0  0  0  0  0  0  0  0  0  0
   42.6930   35.8600   39.7710 H   0  0  0  0  0  0  0  0  0  0  0  0
   40.3740   32.2360   42.0490 H   0  0  0  0  0  0  0  0  0  0  0  0
   39.9560   37.1940   41.3650 H   0  0  0  0  0  0  0  0  0  0  0  0
   40.1290   36.6740   39.5880 H   0  0  0  0  0  0  0  0  0  0  0  0
   47.6480   34.1450   41.1180 C   0  0  0  0  0  0  0  0  0  0  0  0
   48.1670   35.4080   40.9090 C   0  0  0  0  0  0  0  0  0  0  0  0
   49.2630   35.9240   41.5890 C   0  0  0  0  0  0  0  0  0  0  0  0
   49.8610   35.1160   42.5250 C   0  0  0  0  0  0  0  0  0  0  0  0
   49.3670   33.8590   42.7530 C   0  0  0  0  0  0  0  0  0  0  0  0
   48.2660   33.3640   42.0580 C   0  0  0  0  0  0  0  0  0  0  0  0
   47.7420   36.1110   40.1750 H   0  0  0  0  0  0  0  0  0  0  0  0
   49.6500   36.9150   41.4070 H   0  0  0  0  0  0  0  0  0  0  0  0
   50.7240   35.5040   43.0700 H   0  0  0  0  0  0  0  0  0  0  0  0
   49.8460   33.2300   43.4950 H   0  0  0  0  0  0  0  0  0  0  0  0
   46.8870   32.9980   44.7350 Cl  0  0  0  0  0  0  0  0  0  0  0  0
   47.0890   31.7830   43.4830 C   0  0  0  0  0  0  0  0  0  0  0  0
   47.7360   32.0430   42.2840 C   0  0  0  0  0  0  0  0  0  0  0  0
   47.8020   30.9740   41.4180 C   0  0  0  0  0  0  0  0  0  0  0  0
   48.3000   31.1350   40.4720 H   0  0  0  0  0  0  0  0  0  0  0  0
   47.2840   29.7220   41.6710 C   0  0  0  0  0  0  0  0  0  0  0  0
   47.3870   28.9600   40.9350 H   0  0  0  0  0  0  0  0  0  0  0  0
   46.6480   29.5010   42.8760 C   0  0  0  0  0  3  0  0  0  0  0  0
   46.5520   30.5360   43.7820 C   0  0  0  0  0  3  0  0  0  0  0  0
   44.7640   34.9750   43.0970 N   0  0  0  0  0  0  0  0  0  0  0  0
   44.9460   34.5280   42.0260 C   0  0  0  0  0  0  0  0  0  0  0  0
  1 41  1  0  0  0  0
  2 12  1  0  0  0  0
  2  1  2  0  0  0  0
  3  2  1  0  0  0  0
  4  3  2  0  0  0  0
  4  5  1  0  0  0  0
  5  6  2  0  0  0  0
  6  1  1  0  0  0  0
  6 21  1  0  0  0  0
  7  3  1  0  0  0  0
  8  4  1  0  0  0  0
  9  5  1  0  0  0  0
 10 15  1  0  0  0  0
 11 12  1  0  0  0  0
 11 10  2  0  0  0  0
 12 13  2  0  0  0  0
 13 14  1  0  0  0  0
 14 18  1  0  0  0  0
 15 14  2  0  0  0  0
 16 10  1  0  0  0  0
 16 19  1  0  0  0  0
 17 11  1  0  0  0  0
 20 16  1  0  0  0  0
 21 26  1  0  0  0  0
 22 21  2  0  0  0  0
 22 23  1  0  0  0  0
 23 24  2  0  0  0  0
 24 25  1  0  0  0  0
 24 29  1  0  0  0  0
 25 30  1  0  0  0  0
 26 33  1  0  0  0  0
 26 25  2  0  0  0  0
 27 22  1  0  0  0  0
 28 23  1  0  0  0  0
 32 39  1  0  0  0  0
 32 31  1  0  0  0  0
 33 32  2  0  0  0  0
 34 36  2  0  0  0  0
 34 33  1  0  0  0  0
 35 34  1  0  0  0  0
 36 38  1  0  0  0  0
 37 36  1  0  0  0  0
 38 39  2  0  0  0  0
 41 40  3  0  0  0  0
M  END
>  <minimizedAffinity>
-6.28178024

>  <minimizedRMSD>
0.339957625

$$$$
