
 OpenBabel03252504123D

 25 26  0  0  0  0  0  0  0  0999 V2000
   38.9410   30.7730   40.5720 C   0  0  0  0  0  0  0  0  0  0  0  0
   37.8880   31.6790   40.4430 C   0  0  0  0  0  0  0  0  0  0  0  0
   36.5790   31.1790   40.5090 C   0  0  0  0  0  0  0  0  0  0  0  0
   36.4020   29.8580   40.6910 N   0  0  0  0  0  0  0  0  0  0  0  0
   37.4530   29.0080   40.8120 C   0  0  0  0  0  0  0  0  0  0  0  0
   38.7180   29.4490   40.7550 N   0  0  0  0  0  0  0  0  0  0  0  0
   35.7670   31.8620   40.4120 H   0  0  0  0  0  0  0  0  0  0  0  0
   37.2740   28.1460   43.6740 Cl  0  0  0  0  0  0  0  0  0  0  0  0
   37.1310   27.0850   42.3170 C   0  0  0  0  0  0  0  0  0  0  0  0
   37.2280   27.5750   41.0100 C   0  0  0  0  0  0  0  0  0  0  0  0
   37.1080   26.6930   39.9520 C   0  0  0  0  0  0  0  0  0  0  0  0
   37.1800   27.0480   38.9320 H   0  0  0  0  0  0  0  0  0  0  0  0
   36.8960   25.3570   40.2220 C   0  0  0  0  0  0  0  0  0  0  0  0
   36.7930   24.6130   39.4470 H   0  0  0  0  0  0  0  0  0  0  0  0
   36.7950   24.8370   41.4940 C   0  0  0  0  0  3  0  0  0  0  0  0
   36.9170   25.7320   42.5630 C   0  0  0  0  0  3  0  0  0  0  0  0
   38.1940   33.1220   40.2440 C   0  0  0  0  0  0  0  0  0  0  0  0
   39.0770   33.2760   39.1830 F   0  0  0  0  0  0  0  0  0  0  0  0
   37.0240   33.7640   39.8870 F   0  0  0  0  0  0  0  0  0  0  0  0
   38.7450   33.7330   41.3210 F   0  0  0  0  0  0  0  0  0  0  0  0
   40.1950   31.2650   40.5070 O   0  0  0  0  0  0  0  0  0  0  0  0
   41.1230   31.4100   41.5600 C   0  0  0  0  0  0  0  0  0  0  0  0
   40.3750   31.4650   42.7440 F   0  0  0  0  0  0  0  0  0  0  0  0
   41.9980   30.3600   41.5550 F   0  0  0  0  0  0  0  0  0  0  0  0
   41.7430   32.6390   41.4830 F   0  0  0  0  0  0  0  0  0  0  0  0
  1  6  1  0  0  0  0
  2  3  1  0  0  0  0
  2  1  2  0  0  0  0
  3  4  2  0  0  0  0
  4  5  1  0  0  0  0
  5 10  1  0  0  0  0
  6  5  2  0  0  0  0
  7  3  1  0  0  0  0
  9 16  1  0  0  0  0
  9  8  1  0  0  0  0
 10  9  2  0  0  0  0
 11 13  2  0  0  0  0
 11 10  1  0  0  0  0
 12 11  1  0  0  0  0
 13 15  1  0  0  0  0
 14 13  1  0  0  0  0
 15 16  2  0  0  0  0
 17  2  1  0  0  0  0
 17 20  1  0  0  0  0
 18 17  1  0  0  0  0
 19 17  1  0  0  0  0
 21  1  1  0  0  0  0
 21 22  1  0  0  0  0
 22 23  1  0  0  0  0
 24 22  1  0  0  0  0
 25 22  1  0  0  0  0
M  END
>  <minimizedAffinity>
-5.2673769

$$$$

 OpenBabel03252504123D

 25 26  0  0  0  0  0  0  0  0999 V2000
   37.5760   28.5070   40.9610 C   0  0  0  0  0  0  0  0  0  0  0  0
   37.9720   29.7770   41.3830 C   0  0  0  0  0  0  0  0  0  0  0  0
   37.4300   30.8880   40.7210 C   0  0  0  0  0  0  0  0  0  0  0  0
   36.5590   30.6780   39.7170 N   0  0  0  0  0  0  0  0  0  0  0  0
   36.1980   29.4270   39.3360 C   0  0  0  0  0  0  0  0  0  0  0  0
   36.6960   28.3410   39.9450 N   0  0  0  0  0  0  0  0  0  0  0  0
   37.7260   31.8620   41.0340 H   0  0  0  0  0  0  0  0  0  0  0  0
   37.4110   29.4700   36.5990 Cl  0  0  0  0  0  0  0  0  0  0  0  0
   35.7290   29.2380   36.9250 C   0  0  0  0  0  0  0  0  0  0  0  0
   35.2480   29.2320   38.2390 C   0  0  0  0  0  0  0  0  0  0  0  0
   33.8960   29.0450   38.4580 C   0  0  0  0  0  0  0  0  0  0  0  0
   33.5000   29.0370   39.4640 H   0  0  0  0  0  0  0  0  0  0  0  0
   33.0660   28.8680   37.3700 C   0  0  0  0  0  0  0  0  0  0  0  0
   32.0010   28.7170   37.4650 H   0  0  0  0  0  0  0  0  0  0  0  0
   33.5020   28.8680   36.0630 C   0  0  0  0  0  3  0  0  0  0  0  0
   34.8710   29.0590   35.8450 C   0  0  0  0  0  3  0  0  0  0  0  0
   38.9430   29.8970   42.5040 C   0  0  0  0  0  0  0  0  0  0  0  0
   39.3820   31.2100   42.6130 F   0  0  0  0  0  0  0  0  0  0  0  0
   38.2810   29.5980   43.6790 F   0  0  0  0  0  0  0  0  0  0  0  0
   40.0420   29.1110   42.3830 F   0  0  0  0  0  0  0  0  0  0  0  0
   38.1040   27.4450   41.6050 O   0  0  0  0  0  0  0  0  0  0  0  0
   37.5180   26.6800   42.6350 C   0  0  0  0  0  0  0  0  0  0  0  0
   37.1140   25.4720   42.0530 F   0  0  0  0  0  0  0  0  0  0  0  0
   38.4230   26.4880   43.6400 F   0  0  0  0  0  0  0  0  0  0  0  0
   36.3470   27.2710   43.0600 F   0  0  0  0  0  0  0  0  0  0  0  0
  1  2  1  0  0  0  0
  1 21  1  0  0  0  0
  2 17  1  0  0  0  0
  3  7  1  0  0  0  0
  3  2  2  0  0  0  0
  4  3  1  0  0  0  0
  5  4  2  0  0  0  0
  5  6  1  0  0  0  0
  6  1  2  0  0  0  0
  8  9  1  0  0  0  0
  9 10  1  0  0  0  0
 10 11  2  0  0  0  0
 10  5  1  0  0  0  0
 11 12  1  0  0  0  0
 13 14  1  0  0  0  0
 13 11  1  0  0  0  0
 15 13  2  0  0  0  0
 16 15  1  0  0  0  0
 16  9  2  0  0  0  0
 17 18  1  0  0  0  0
 17 19  1  0  0  0  0
 20 17  1  0  0  0  0
 21 22  1  0  0  0  0
 22 25  1  0  0  0  0
 22 24  1  0  0  0  0
 23 22  1  0  0  0  0
M  END
>  <minimizedAffinity>
-5.25742054

$$$$

 OpenBabel03252504123D

 25 26  0  0  0  0  0  0  0  0999 V2000
   38.2230   29.3610   40.5820 C   0  0  0  0  0  0  0  0  0  0  0  0
   36.9200   29.4050   40.0830 C   0  0  0  0  0  0  0  0  0  0  0  0
   36.6180   30.3770   39.1180 C   0  0  0  0  0  0  0  0  0  0  0  0
   37.5930   31.2150   38.7210 N   0  0  0  0  0  0  0  0  0  0  0  0
   38.8490   31.1410   39.2300 C   0  0  0  0  0  0  0  0  0  0  0  0
   39.1740   30.2250   40.1540 N   0  0  0  0  0  0  0  0  0  0  0  0
   35.6270   30.4200   38.7310 H   0  0  0  0  0  0  0  0  0  0  0  0
   39.1590   33.5980   40.9110 Cl  0  0  0  0  0  0  0  0  0  0  0  0
   40.1000   33.2440   39.5060 C   0  0  0  0  0  0  0  0  0  0  0  0
   39.8870   32.0680   38.7780 C   0  0  0  0  0  0  0  0  0  0  0  0
   40.6610   31.8220   37.6590 C   0  0  0  0  0  0  0  0  0  0  0  0
   40.5150   30.9200   37.0790 H   0  0  0  0  0  0  0  0  0  0  0  0
   41.6190   32.7460   37.2980 C   0  0  0  0  0  0  0  0  0  0  0  0
   42.2590   32.6200   36.4370 H   0  0  0  0  0  0  0  0  0  0  0  0
   41.8580   33.9140   37.9880 C   0  0  0  0  0  3  0  0  0  0  0  0
   41.0730   34.1610   39.1200 C   0  0  0  0  0  3  0  0  0  0  0  0
   35.9170   28.4300   40.5910 C   0  0  0  0  0  0  0  0  0  0  0  0
   35.8240   28.5230   41.9730 F   0  0  0  0  0  0  0  0  0  0  0  0
   34.6810   28.7800   40.0820 F   0  0  0  0  0  0  0  0  0  0  0  0
   36.1890   27.1360   40.2900 F   0  0  0  0  0  0  0  0  0  0  0  0
   38.5020   28.4220   41.5090 O   0  0  0  0  0  0  0  0  0  0  0  0
   38.9440   28.6190   42.8340 C   0  0  0  0  0  0  0  0  0  0  0  0
   40.3420   28.5540   42.8000 F   0  0  0  0  0  0  0  0  0  0  0  0
   38.4970   29.8240   43.2960 F   0  0  0  0  0  0  0  0  0  0  0  0
   38.5650   27.5550   43.6250 F   0  0  0  0  0  0  0  0  0  0  0  0
  1 21  1  0  0  0  0
  2  1  2  0  0  0  0
  2 17  1  0  0  0  0
  3  2  1  0  0  0  0
  4  3  2  0  0  0  0
  4  5  1  0  0  0  0
  5  6  2  0  0  0  0
  6  1  1  0  0  0  0
  7  3  1  0  0  0  0
  9  8  1  0  0  0  0
 10  5  1  0  0  0  0
 10  9  2  0  0  0  0
 11 10  1  0  0  0  0
 12 11  1  0  0  0  0
 13 11  2  0  0  0  0
 13 15  1  0  0  0  0
 14 13  1  0  0  0  0
 15 16  2  0  0  0  0
 16  9  1  0  0  0  0
 17 18  1  0  0  0  0
 19 17  1  0  0  0  0
 20 17  1  0  0  0  0
 21 22  1  0  0  0  0
 22 24  1  0  0  0  0
 22 25  1  0  0  0  0
 23 22  1  0  0  0  0
M  END
>  <minimizedAffinity>
-5.20487022

$$$$

 OpenBabel03252504123D

 25 26  0  0  0  0  0  0  0  0999 V2000
   38.6840   29.9630   40.2430 C   0  0  0  0  0  0  0  0  0  0  0  0
   39.6390   30.4820   41.1190 C   0  0  0  0  0  0  0  0  0  0  0  0
   40.1970   29.6170   42.0710 C   0  0  0  0  0  0  0  0  0  0  0  0
   39.7870   28.3360   42.0950 N   0  0  0  0  0  0  0  0  0  0  0  0
   38.8550   27.8680   41.2260 C   0  0  0  0  0  0  0  0  0  0  0  0
   38.3000   28.6650   40.3030 N   0  0  0  0  0  0  0  0  0  0  0  0
   40.9270   30.0020   42.7440 H   0  0  0  0  0  0  0  0  0  0  0  0
   36.5710   27.3160   43.0820 Cl  0  0  0  0  0  0  0  0  0  0  0  0
   37.3680   26.1200   42.1220 C   0  0  0  0  0  0  0  0  0  0  0  0
   38.4300   26.4680   41.2790 C   0  0  0  0  0  0  0  0  0  0  0  0
   39.0420   25.4820   40.5280 C   0  0  0  0  0  0  0  0  0  0  0  0
   39.8650   25.7260   39.8700 H   0  0  0  0  0  0  0  0  0  0  0  0
   38.5820   24.1850   40.6350 C   0  0  0  0  0  0  0  0  0  0  0  0
   39.0110   23.3650   40.0780 H   0  0  0  0  0  0  0  0  0  0  0  0
   37.5410   23.8040   41.4520 C   0  0  0  0  0  3  0  0  0  0  0  0
   36.9240   24.8050   42.2120 C   0  0  0  0  0  3  0  0  0  0  0  0
   40.0210   31.9160   41.0060 C   0  0  0  0  0  0  0  0  0  0  0  0
   38.9820   32.7200   41.4580 F   0  0  0  0  0  0  0  0  0  0  0  0
   41.0950   32.1420   41.8440 F   0  0  0  0  0  0  0  0  0  0  0  0
   40.3250   32.3190   39.7470 F   0  0  0  0  0  0  0  0  0  0  0  0
   38.1540   30.8040   39.3310 O   0  0  0  0  0  0  0  0  0  0  0  0
   36.8330   31.2940   39.2710 C   0  0  0  0  0  0  0  0  0  0  0  0
   36.9260   32.6460   38.9180 F   0  0  0  0  0  0  0  0  0  0  0  0
   36.1130   30.5740   38.3600 F   0  0  0  0  0  0  0  0  0  0  0  0
   36.2690   31.3010   40.5300 F   0  0  0  0  0  0  0  0  0  0  0  0
  1  6  2  0  0  0  0
  1  2  1  0  0  0  0
  2  3  2  0  0  0  0
  3  4  1  0  0  0  0
  3  7  1  0  0  0  0
  5 10  1  0  0  0  0
  5  4  2  0  0  0  0
  6  5  1  0  0  0  0
  9 16  1  0  0  0  0
  9  8  1  0  0  0  0
 10  9  2  0  0  0  0
 11 13  2  0  0  0  0
 11 10  1  0  0  0  0
 12 11  1  0  0  0  0
 13 15  1  0  0  0  0
 14 13  1  0  0  0  0
 15 16  2  0  0  0  0
 17  2  1  0  0  0  0
 17 18  1  0  0  0  0
 17 19  1  0  0  0  0
 20 17  1  0  0  0  0
 21  1  1  0  0  0  0
 22 21  1  0  0  0  0
 22 25  1  0  0  0  0
 23 22  1  0  0  0  0
 24 22  1  0  0  0  0
M  END
>  <minimizedAffinity>
-5.14513159

$$$$

 OpenBabel03252504123D

 25 26  0  0  0  0  0  0  0  0999 V2000
   38.2120   27.2250   40.6490 C   0  0  0  0  0  0  0  0  0  0  0  0
   37.3560   26.8160   41.6730 C   0  0  0  0  0  0  0  0  0  0  0  0
   36.6120   27.8010   42.3400 C   0  0  0  0  0  0  0  0  0  0  0  0
   36.7590   29.0840   41.9630 N   0  0  0  0  0  0  0  0  0  0  0  0
   37.6020   29.4420   40.9610 C   0  0  0  0  0  0  0  0  0  0  0  0
   38.3280   28.5290   40.3020 N   0  0  0  0  0  0  0  0  0  0  0  0
   35.9560   27.5010   43.1230 H   0  0  0  0  0  0  0  0  0  0  0  0
   39.7170   30.9540   42.4470 Cl  0  0  0  0  0  0  0  0  0  0  0  0
   38.7040   31.6300   41.2200 C   0  0  0  0  0  0  0  0  0  0  0  0
   37.7390   30.8480   40.5760 C   0  0  0  0  0  0  0  0  0  0  0  0
   36.9480   31.4270   39.6000 C   0  0  0  0  0  0  0  0  0  0  0  0
   36.1950   30.8430   39.0880 H   0  0  0  0  0  0  0  0  0  0  0  0
   37.1400   32.7580   39.2950 C   0  0  0  0  0  0  0  0  0  0  0  0
   36.5600   33.2750   38.5450 H   0  0  0  0  0  0  0  0  0  0  0  0
   38.0790   33.5590   39.9070 C   0  0  0  0  0  3  0  0  0  0  0  0
   38.8770   32.9710   40.8940 C   0  0  0  0  0  3  0  0  0  0  0  0
   37.2690   25.3700   42.0100 C   0  0  0  0  0  0  0  0  0  0  0  0
   38.4400   24.9580   42.6330 F   0  0  0  0  0  0  0  0  0  0  0  0
   36.2480   25.2020   42.9260 F   0  0  0  0  0  0  0  0  0  0  0  0
   37.0700   24.5550   40.9440 F   0  0  0  0  0  0  0  0  0  0  0  0
   38.9210   26.2700   40.0140 O   0  0  0  0  0  0  0  0  0  0  0  0
   40.3030   26.0050   40.1190 C   0  0  0  0  0  0  0  0  0  0  0  0
   40.4380   24.6120   40.1690 F   0  0  0  0  0  0  0  0  0  0  0  0
   40.9610   26.5460   39.0510 F   0  0  0  0  0  0  0  0  0  0  0  0
   40.7810   26.4450   41.3360 F   0  0  0  0  0  0  0  0  0  0  0  0
  1  2  1  0  0  0  0
  2 17  1  0  0  0  0
  2  3  2  0  0  0  0
  3  7  1  0  0  0  0
  4  3  1  0  0  0  0
  5  4  2  0  0  0  0
  6  1  2  0  0  0  0
  6  5  1  0  0  0  0
  9  8  1  0  0  0  0
 10  5  1  0  0  0  0
 10  9  2  0  0  0  0
 11 10  1  0  0  0  0
 12 11  1  0  0  0  0
 13 11  2  0  0  0  0
 13 15  1  0  0  0  0
 14 13  1  0  0  0  0
 15 16  2  0  0  0  0
 16  9  1  0  0  0  0
 17 18  1  0  0  0  0
 17 19  1  0  0  0  0
 20 17  1  0  0  0  0
 21 22  1  0  0  0  0
 21  1  1  0  0  0  0
 22 23  1  0  0  0  0
 22 25  1  0  0  0  0
 24 22  1  0  0  0  0
M  END
>  <minimizedAffinity>
-5.05952311

$$$$

 OpenBabel03252504123D

 25 26  0  0  0  0  0  0  0  0999 V2000
   37.7420   28.7380   40.6830 C   0  0  0  0  0  0  0  0  0  0  0  0
   38.1810   30.0060   41.0680 C   0  0  0  0  0  0  0  0  0  0  0  0
   37.7980   31.1010   40.2810 C   0  0  0  0  0  0  0  0  0  0  0  0
   37.0310   30.8800   39.1980 N   0  0  0  0  0  0  0  0  0  0  0  0
   36.6240   29.6310   38.8550 C   0  0  0  0  0  0  0  0  0  0  0  0
   36.9700   28.5600   39.5840 N   0  0  0  0  0  0  0  0  0  0  0  0
   38.1270   32.0730   40.5660 H   0  0  0  0  0  0  0  0  0  0  0  0
   33.7370   29.0850   39.4280 Cl  0  0  0  0  0  0  0  0  0  0  0  0
   34.4270   29.1620   37.8460 C   0  0  0  0  0  0  0  0  0  0  0  0
   35.7910   29.4230   37.6700 C   0  0  0  0  0  0  0  0  0  0  0  0
   36.3040   29.4760   36.3870 C   0  0  0  0  0  0  0  0  0  0  0  0
   37.3550   29.6760   36.2260 H   0  0  0  0  0  0  0  0  0  0  0  0
   35.4510   29.2690   35.3220 C   0  0  0  0  0  0  0  0  0  0  0  0
   35.7820   29.2960   34.2950 H   0  0  0  0  0  0  0  0  0  0  0  0
   34.1050   29.0100   35.4550 C   0  0  0  0  0  3  0  0  0  0  0  0
   33.5890   28.9560   36.7550 C   0  0  0  0  0  3  0  0  0  0  0  0
   39.0270   30.1390   42.2850 C   0  0  0  0  0  0  0  0  0  0  0  0
   40.1400   29.3160   42.1810 F   0  0  0  0  0  0  0  0  0  0  0  0
   39.4940   31.4380   42.3430 F   0  0  0  0  0  0  0  0  0  0  0  0
   38.3980   29.8240   43.4450 F   0  0  0  0  0  0  0  0  0  0  0  0
   38.1160   27.6920   41.4470 O   0  0  0  0  0  0  0  0  0  0  0  0
   37.3060   26.9090   42.2970 C   0  0  0  0  0  0  0  0  0  0  0  0
   36.3180   27.7630   42.8030 F   0  0  0  0  0  0  0  0  0  0  0  0
   36.7720   25.8650   41.5950 F   0  0  0  0  0  0  0  0  0  0  0  0
   38.0240   26.5110   43.4050 F   0  0  0  0  0  0  0  0  0  0  0  0
  1  2  1  0  0  0  0
  1 21  1  0  0  0  0
  2 17  1  0  0  0  0
  3  7  1  0  0  0  0
  3  2  2  0  0  0  0
  4  3  1  0  0  0  0
  5  4  2  0  0  0  0
  5  6  1  0  0  0  0
  6  1  2  0  0  0  0
  9  8  1  0  0  0  0
 10  9  1  0  0  0  0
 10  5  1  0  0  0  0
 11 10  2  0  0  0  0
 12 11  1  0  0  0  0
 13 15  2  0  0  0  0
 13 11  1  0  0  0  0
 14 13  1  0  0  0  0
 15 16  1  0  0  0  0
 16  9  2  0  0  0  0
 17 19  1  0  0  0  0
 17 20  1  0  0  0  0
 18 17  1  0  0  0  0
 21 22  1  0  0  0  0
 22 23  1  0  0  0  0
 22 25  1  0  0  0  0
 24 22  1  0  0  0  0
M  END
>  <minimizedAffinity>
-5.04990005

$$$$

 OpenBabel03252504123D

 25 26  0  0  0  0  0  0  0  0999 V2000
   36.5870   27.2390   40.6580 C   0  0  0  0  0  0  0  0  0  0  0  0
   36.6700   28.2820   41.5810 C   0  0  0  0  0  0  0  0  0  0  0  0
   36.2570   29.5580   41.1700 C   0  0  0  0  0  0  0  0  0  0  0  0
   35.8020   29.7140   39.9130 N   0  0  0  0  0  0  0  0  0  0  0  0
   35.7360   28.6730   39.0440 C   0  0  0  0  0  0  0  0  0  0  0  0
   36.1230   27.4400   39.4020 N   0  0  0  0  0  0  0  0  0  0  0  0
   36.3160   30.3620   41.8660 H   0  0  0  0  0  0  0  0  0  0  0  0
   37.8520   29.2110   36.9960 Cl  0  0  0  0  0  0  0  0  0  0  0  0
   36.1590   29.1340   36.6620 C   0  0  0  0  0  0  0  0  0  0  0  0
   35.2370   28.8760   37.6830 C   0  0  0  0  0  0  0  0  0  0  0  0
   33.8910   28.8230   37.3750 C   0  0  0  0  0  0  0  0  0  0  0  0
   33.1590   28.6260   38.1470 H   0  0  0  0  0  0  0  0  0  0  0  0
   33.5010   29.0250   36.0670 C   0  0  0  0  0  0  0  0  0  0  0  0
   32.4680   28.9980   35.7540 H   0  0  0  0  0  0  0  0  0  0  0  0
   34.3770   29.2810   35.0350 C   0  0  0  0  0  3  0  0  0  0  0  0
   35.7400   29.3350   35.3510 C   0  0  0  0  0  3  0  0  0  0  0  0
   37.1890   28.0010   42.9470 C   0  0  0  0  0  0  0  0  0  0  0  0
   38.4590   27.4450   42.8670 F   0  0  0  0  0  0  0  0  0  0  0  0
   37.3200   29.2040   43.6140 F   0  0  0  0  0  0  0  0  0  0  0  0
   36.4220   27.1520   43.6760 F   0  0  0  0  0  0  0  0  0  0  0  0
   36.9870   26.0160   41.0650 O   0  0  0  0  0  0  0  0  0  0  0  0
   37.0630   24.8330   40.3010 C   0  0  0  0  0  0  0  0  0  0  0  0
   37.5650   23.8410   41.1530 F   0  0  0  0  0  0  0  0  0  0  0  0
   35.8260   24.5150   39.8150 F   0  0  0  0  0  0  0  0  0  0  0  0
   38.0200   24.9620   39.3160 F   0  0  0  0  0  0  0  0  0  0  0  0
  1 21  1  0  0  0  0
  1  2  1  0  0  0  0
  2 17  1  0  0  0  0
  3  2  2  0  0  0  0
  3  7  1  0  0  0  0
  4  3  1  0  0  0  0
  5  6  1  0  0  0  0
  5  4  2  0  0  0  0
  6  1  2  0  0  0  0
  9  8  1  0  0  0  0
  9 10  1  0  0  0  0
 10  5  1  0  0  0  0
 11 10  2  0  0  0  0
 11 12  1  0  0  0  0
 13 11  1  0  0  0  0
 14 13  1  0  0  0  0
 15 16  1  0  0  0  0
 15 13  2  0  0  0  0
 16  9  2  0  0  0  0
 17 19  1  0  0  0  0
 17 20  1  0  0  0  0
 18 17  1  0  0  0  0
 22 21  1  0  0  0  0
 22 23  1  0  0  0  0
 24 22  1  0  0  0  0
 25 22  1  0  0  0  0
M  END
>  <minimizedAffinity>
-5.04522991

$$$$

 OpenBabel03252504123D

 25 26  0  0  0  0  0  0  0  0999 V2000
   38.1020   30.0040   38.8670 C   0  0  0  0  0  0  0  0  0  0  0  0
   37.3490   31.0040   39.4840 C   0  0  0  0  0  0  0  0  0  0  0  0
   36.4390   30.6220   40.4800 C   0  0  0  0  0  0  0  0  0  0  0  0
   36.3360   29.3170   40.7920 N   0  0  0  0  0  0  0  0  0  0  0  0
   37.0860   28.3730   40.1690 C   0  0  0  0  0  0  0  0  0  0  0  0
   37.9660   28.7010   39.2120 N   0  0  0  0  0  0  0  0  0  0  0  0
   35.8600   31.3770   40.9580 H   0  0  0  0  0  0  0  0  0  0  0  0
   37.8220   27.7230   42.9970 Cl  0  0  0  0  0  0  0  0  0  0  0  0
   37.2720   26.5680   41.8350 C   0  0  0  0  0  0  0  0  0  0  0  0
   36.9490   26.9610   40.5310 C   0  0  0  0  0  0  0  0  0  0  0  0
   36.5140   26.0070   39.6310 C   0  0  0  0  0  0  0  0  0  0  0  0
   36.2580   26.2860   38.6170 H   0  0  0  0  0  0  0  0  0  0  0  0
   36.4120   24.6960   40.0500 C   0  0  0  0  0  0  0  0  0  0  0  0
   36.0790   23.8990   39.4020 H   0  0  0  0  0  0  0  0  0  0  0  0
   36.7200   24.2710   41.3240 C   0  0  0  0  0  3  0  0  0  0  0  0
   37.1610   25.2400   42.2320 C   0  0  0  0  0  3  0  0  0  0  0  0
   37.5420   32.4180   39.0630 C   0  0  0  0  0  0  0  0  0  0  0  0
   37.1840   32.5690   37.7300 F   0  0  0  0  0  0  0  0  0  0  0  0
   36.6800   33.2070   39.8000 F   0  0  0  0  0  0  0  0  0  0  0  0
   38.8120   32.8760   39.1960 F   0  0  0  0  0  0  0  0  0  0  0  0
   38.9740   30.3830   37.9110 O   0  0  0  0  0  0  0  0  0  0  0  0
   40.3820   30.2910   37.9390 C   0  0  0  0  0  0  0  0  0  0  0  0
   40.8670   31.4170   37.2610 F   0  0  0  0  0  0  0  0  0  0  0  0
   40.8170   30.2440   39.2330 F   0  0  0  0  0  0  0  0  0  0  0  0
   40.8040   29.2200   37.1800 F   0  0  0  0  0  0  0  0  0  0  0  0
  1  6  2  0  0  0  0
  1  2  1  0  0  0  0
  2  3  2  0  0  0  0
  3  4  1  0  0  0  0
  3  7  1  0  0  0  0
  5 10  1  0  0  0  0
  5  4  2  0  0  0  0
  6  5  1  0  0  0  0
  9 16  1  0  0  0  0
  9  8  1  0  0  0  0
 10  9  2  0  0  0  0
 11 13  2  0  0  0  0
 11 10  1  0  0  0  0
 12 11  1  0  0  0  0
 13 15  1  0  0  0  0
 14 13  1  0  0  0  0
 15 16  2  0  0  0  0
 17 20  1  0  0  0  0
 17  2  1  0  0  0  0
 17 19  1  0  0  0  0
 18 17  1  0  0  0  0
 21 22  1  0  0  0  0
 21  1  1  0  0  0  0
 22 24  1  0  0  0  0
 23 22  1  0  0  0  0
 25 22  1  0  0  0  0
M  END
>  <minimizedAffinity>
-5.03543329

$$$$

 OpenBabel03252504123D

 25 26  0  0  0  0  0  0  0  0999 V2000
   37.5800   30.2610   39.7700 C   0  0  0  0  0  0  0  0  0  0  0  0
   38.2580   31.1270   40.6290 C   0  0  0  0  0  0  0  0  0  0  0  0
   38.8750   30.5790   41.7630 C   0  0  0  0  0  0  0  0  0  0  0  0
   38.7840   29.2520   41.9680 N   0  0  0  0  0  0  0  0  0  0  0  0
   38.1150   28.4410   41.1080 C   0  0  0  0  0  0  0  0  0  0  0  0
   37.5140   28.9300   40.0140 N   0  0  0  0  0  0  0  0  0  0  0  0
   39.3950   31.2310   42.4250 H   0  0  0  0  0  0  0  0  0  0  0  0
   40.3800   26.8390   39.9820 Cl  0  0  0  0  0  0  0  0  0  0  0  0
   39.0520   26.1760   40.8680 C   0  0  0  0  0  0  0  0  0  0  0  0
   38.0350   27.0020   41.3600 C   0  0  0  0  0  0  0  0  0  0  0  0
   36.9900   26.4320   42.0630 C   0  0  0  0  0  0  0  0  0  0  0  0
   36.1910   27.0500   42.4520 H   0  0  0  0  0  0  0  0  0  0  0  0
   36.9870   25.0660   42.2570 C   0  0  0  0  0  0  0  0  0  0  0  0
   36.2040   24.5540   42.7970 H   0  0  0  0  0  0  0  0  0  0  0  0
   37.9700   24.2220   41.7900 C   0  0  0  0  0  3  0  0  0  0  0  0
   39.0260   24.8020   41.0770 C   0  0  0  0  0  3  0  0  0  0  0  0
   38.2970   32.5800   40.3090 C   0  0  0  0  0  0  0  0  0  0  0  0
   37.0070   33.0610   40.1350 F   0  0  0  0  0  0  0  0  0  0  0  0
   38.8300   33.2450   41.3960 F   0  0  0  0  0  0  0  0  0  0  0  0
   38.9990   32.8900   39.1900 F   0  0  0  0  0  0  0  0  0  0  0  0
   36.9910   30.7990   38.6820 O   0  0  0  0  0  0  0  0  0  0  0  0
   37.3780   30.6620   37.3330 C   0  0  0  0  0  0  0  0  0  0  0  0
   38.6990   30.1990   37.3420 F   0  0  0  0  0  0  0  0  0  0  0  0
   36.5350   29.7950   36.6960 F   0  0  0  0  0  0  0  0  0  0  0  0
   37.4460   31.9000   36.7290 F   0  0  0  0  0  0  0  0  0  0  0  0
  1  6  2  0  0  0  0
  1  2  1  0  0  0  0
  2  3  2  0  0  0  0
  3  4  1  0  0  0  0
  3  7  1  0  0  0  0
  5 10  1  0  0  0  0
  5  4  2  0  0  0  0
  6  5  1  0  0  0  0
  8  9  1  0  0  0  0
  9 16  2  0  0  0  0
  9 10  1  0  0  0  0
 10 11  2  0  0  0  0
 11 13  1  0  0  0  0
 11 12  1  0  0  0  0
 13 14  1  0  0  0  0
 15 13  2  0  0  0  0
 16 15  1  0  0  0  0
 17  2  1  0  0  0  0
 17 19  1  0  0  0  0
 18 17  1  0  0  0  0
 20 17  1  0  0  0  0
 21  1  1  0  0  0  0
 22 23  1  0  0  0  0
 22 21  1  0  0  0  0
 24 22  1  0  0  0  0
 25 22  1  0  0  0  0
M  END
>  <minimizedAffinity>
-4.95601845

$$$$
