
 OpenBabel03242510283D

 18 19  0  0  0  0  0  0  0  0999 V2000
   37.1700   32.7430   39.4240 C   0  0  0  0  0  0  0  0  0  0  0  0
   37.2170   31.8330   40.4890 C   0  0  0  0  0  0  0  0  0  0  0  0
   37.6070   30.5090   40.2960 C   0  0  0  0  0  0  0  0  0  0  0  0
   37.9330   30.1650   39.0260 N   0  0  0  0  0  0  0  0  0  0  0  0
   37.8850   31.0440   38.0110 C   0  0  0  0  0  0  0  0  0  0  0  0
   37.5080   32.3220   38.2000 N   0  0  0  0  0  0  0  0  0  0  0  0
   36.8630   33.7640   39.6100 H   0  0  0  0  0  0  0  0  0  0  0  0
   36.9480   32.1800   41.4520 H   0  0  0  0  0  0  0  0  0  0  0  0
   38.1490   30.7470   37.0030 H   0  0  0  0  0  0  0  0  0  0  0  0
   35.1440   28.8570   40.6350 Cl  0  0  0  0  0  0  0  0  0  0  0  0
   36.5880   28.7450   41.6090 C   0  0  0  0  0  0  0  0  0  0  0  0
   37.6660   29.5410   41.3830 C   0  0  0  0  0  0  0  0  0  0  0  0
   38.7470   29.3610   42.2170 C   0  0  0  0  0  0  0  0  0  0  0  0
   39.6230   29.9740   42.0690 H   0  0  0  0  0  0  0  0  0  0  0  0
   38.7620   28.4440   43.2220 C   0  0  0  0  0  0  0  0  0  0  0  0
   39.6420   28.3310   43.8660 H   0  0  0  0  0  0  0  0  0  0  0  0
   37.6710   27.6440   43.4470 C   0  0  0  0  0  3  0  0  0  0  0  0
   36.5790   27.8070   42.6240 C   0  0  0  0  0  3  0  0  0  0  0  0
  1  7  1  0  0  0  0
  1  2  1  0  0  0  0
  2  8  1  0  0  0  0
  3  2  2  0  0  0  0
  3 12  1  0  0  0  0
  4  3  1  0  0  0  0
  5  6  1  0  0  0  0
  5  4  2  0  0  0  0
  6  1  2  0  0  0  0
  9  5  1  0  0  0  0
 10 11  1  0  0  0  0
 11 18  1  0  0  0  0
 12 11  2  0  0  0  0
 12 13  1  0  0  0  0
 13 15  2  0  0  0  0
 14 13  1  0  0  0  0
 15 17  1  0  0  0  0
 15 16  1  0  0  0  0
 18 17  2  0  0  0  0
M  END
>  <minimizedAffinity>
-4.29961252

$$$$

 OpenBabel03242510283D

 18 19  0  0  0  0  0  0  0  0999 V2000
   36.1560   30.7980   40.8530 C   0  0  0  0  0  0  0  0  0  0  0  0
   36.0090   29.4060   40.9320 C   0  0  0  0  0  0  0  0  0  0  0  0
   37.1150   28.5570   40.9200 C   0  0  0  0  0  0  0  0  0  0  0  0
   38.3260   29.1610   40.8270 N   0  0  0  0  0  0  0  0  0  0  0  0
   38.4570   30.4960   40.7530 C   0  0  0  0  0  0  0  0  0  0  0  0
   37.3880   31.3130   40.7650 N   0  0  0  0  0  0  0  0  0  0  0  0
   35.2760   31.4270   40.8650 H   0  0  0  0  0  0  0  0  0  0  0  0
   35.0300   29.0120   41.0020 H   0  0  0  0  0  0  0  0  0  0  0  0
   39.4350   30.9560   40.6800 H   0  0  0  0  0  0  0  0  0  0  0  0
   37.3930   27.4290   43.6700 Cl  0  0  0  0  0  0  0  0  0  0  0  0
   37.1070   26.5080   42.2150 C   0  0  0  0  0  0  0  0  0  0  0  0
   36.9940   27.1080   41.0000 C   0  0  0  0  0  0  0  0  0  0  0  0
   36.7710   26.2770   39.9250 C   0  0  0  0  0  0  0  0  0  0  0  0
   36.6750   26.7170   38.9430 H   0  0  0  0  0  0  0  0  0  0  0  0
   36.6650   24.9260   40.0420 C   0  0  0  0  0  0  0  0  0  0  0  0
   36.4860   24.2980   39.1610 H   0  0  0  0  0  0  0  0  0  0  0  0
   36.7800   24.3260   41.2700 C   0  0  0  0  0  3  0  0  0  0  0  0
   37.0040   25.1380   42.3590 C   0  0  0  0  0  3  0  0  0  0  0  0
  1  7  1  0  0  0  0
  1  2  1  0  0  0  0
  2  8  1  0  0  0  0
  3  2  2  0  0  0  0
  3 12  1  0  0  0  0
  4  3  1  0  0  0  0
  5  6  1  0  0  0  0
  5  4  2  0  0  0  0
  6  1  2  0  0  0  0
  9  5  1  0  0  0  0
 11 18  1  0  0  0  0
 11 10  1  0  0  0  0
 12 11  2  0  0  0  0
 13 15  2  0  0  0  0
 13 12  1  0  0  0  0
 14 13  1  0  0  0  0
 15 17  1  0  0  0  0
 16 15  1  0  0  0  0
 17 18  2  0  0  0  0
M  END
>  <minimizedAffinity>
-4.28260517

$$$$

 OpenBabel03242510283D

 18 19  0  0  0  0  0  0  0  0999 V2000
   37.1570   32.3750   39.0650 C   0  0  0  0  0  0  0  0  0  0  0  0
   36.9590   31.5440   40.1770 C   0  0  0  0  0  0  0  0  0  0  0  0
   37.6010   30.3120   40.2860 C   0  0  0  0  0  0  0  0  0  0  0  0
   38.4180   29.9750   39.2580 N   0  0  0  0  0  0  0  0  0  0  0  0
   38.6020   30.7770   38.1960 C   0  0  0  0  0  0  0  0  0  0  0  0
   37.9810   31.9670   38.0940 N   0  0  0  0  0  0  0  0  0  0  0  0
   36.6430   33.3260   39.0140 H   0  0  0  0  0  0  0  0  0  0  0  0
   36.3050   31.8790   40.9390 H   0  0  0  0  0  0  0  0  0  0  0  0
   39.2600   30.4870   37.3860 H   0  0  0  0  0  0  0  0  0  0  0  0
   39.5080   30.7620   42.5400 Cl  0  0  0  0  0  0  0  0  0  0  0  0
   38.2400   29.5620   42.5010 C   0  0  0  0  0  0  0  0  0  0  0  0
   37.4160   29.4280   41.4290 C   0  0  0  0  0  0  0  0  0  0  0  0
   36.4540   28.4460   41.5140 C   0  0  0  0  0  0  0  0  0  0  0  0
   35.7800   28.3080   40.6820 H   0  0  0  0  0  0  0  0  0  0  0  0
   36.3140   27.6390   42.6000 C   0  0  0  0  0  0  0  0  0  0  0  0
   35.5340   26.8680   42.6300 H   0  0  0  0  0  0  0  0  0  0  0  0
   37.1480   27.7780   43.6800 C   0  0  0  0  0  3  0  0  0  0  0  0
   38.1180   28.7550   43.6150 C   0  0  0  0  0  3  0  0  0  0  0  0
  1  2  1  0  0  0  0
  2  3  2  0  0  0  0
  2  8  1  0  0  0  0
  3 12  1  0  0  0  0
  4  3  1  0  0  0  0
  5  4  2  0  0  0  0
  6  5  1  0  0  0  0
  6  1  2  0  0  0  0
  7  1  1  0  0  0  0
  9  5  1  0  0  0  0
 11 10  1  0  0  0  0
 11 18  1  0  0  0  0
 12 13  1  0  0  0  0
 12 11  2  0  0  0  0
 13 15  2  0  0  0  0
 14 13  1  0  0  0  0
 15 16  1  0  0  0  0
 15 17  1  0  0  0  0
 18 17  2  0  0  0  0
M  END
>  <minimizedAffinity>
-4.28147936

$$$$

 OpenBabel03242510283D

 18 19  0  0  0  0  0  0  0  0999 V2000
   38.5410   34.1580   40.2700 C   0  0  0  0  0  0  0  0  0  0  0  0
   37.5440   33.2260   39.9510 C   0  0  0  0  0  0  0  0  0  0  0  0
   37.8050   31.8570   39.9410 C   0  0  0  0  0  0  0  0  0  0  0  0
   39.0730   31.4920   40.2550 N   0  0  0  0  0  0  0  0  0  0  0  0
   40.0230   32.3920   40.5600 C   0  0  0  0  0  0  0  0  0  0  0  0
   39.7670   33.7130   40.5700 N   0  0  0  0  0  0  0  0  0  0  0  0
   38.3030   35.2130   40.2700 H   0  0  0  0  0  0  0  0  0  0  0  0
   36.5780   33.5910   39.7170 H   0  0  0  0  0  0  0  0  0  0  0  0
   41.0290   32.0780   40.8080 H   0  0  0  0  0  0  0  0  0  0  0  0
   37.6050   31.1840   37.0390 Cl  0  0  0  0  0  0  0  0  0  0  0  0
   36.6290   30.4980   38.3140 C   0  0  0  0  0  0  0  0  0  0  0  0
   36.7900   30.8650   39.6130 C   0  0  0  0  0  0  0  0  0  0  0  0
   35.9620   30.2560   40.5290 C   0  0  0  0  0  0  0  0  0  0  0  0
   36.0590   30.5220   41.5710 H   0  0  0  0  0  0  0  0  0  0  0  0
   35.0250   29.3340   40.1810 C   0  0  0  0  0  0  0  0  0  0  0  0
   34.3830   28.8710   40.9410 H   0  0  0  0  0  0  0  0  0  0  0  0
   34.8660   28.9670   38.8700 C   0  0  0  0  0  3  0  0  0  0  0  0
   35.6840   29.5640   37.9360 C   0  0  0  0  0  3  0  0  0  0  0  0
  1  6  1  0  0  0  0
  2  1  2  0  0  0  0
  3  2  1  0  0  0  0
  3  4  2  0  0  0  0
  4  5  1  0  0  0  0
  5  6  2  0  0  0  0
  5  9  1  0  0  0  0
  7  1  1  0  0  0  0
  8  2  1  0  0  0  0
 10 11  1  0  0  0  0
 11 12  1  0  0  0  0
 12  3  1  0  0  0  0
 12 13  2  0  0  0  0
 13 14  1  0  0  0  0
 15 13  1  0  0  0  0
 15 16  1  0  0  0  0
 17 15  2  0  0  0  0
 18 11  2  0  0  0  0
 18 17  1  0  0  0  0
M  END
>  <minimizedAffinity>
-4.28021002

$$$$

 OpenBabel03242510283D

 18 19  0  0  0  0  0  0  0  0999 V2000
   38.1430   31.1740   38.1350 C   0  0  0  0  0  0  0  0  0  0  0  0
   38.1670   30.1980   39.1410 C   0  0  0  0  0  0  0  0  0  0  0  0
   37.6920   30.4650   40.4230 C   0  0  0  0  0  0  0  0  0  0  0  0
   37.2130   31.7170   40.6310 N   0  0  0  0  0  0  0  0  0  0  0  0
   37.1930   32.6460   39.6600 C   0  0  0  0  0  0  0  0  0  0  0  0
   37.6510   32.3850   38.4220 N   0  0  0  0  0  0  0  0  0  0  0  0
   38.5190   30.9310   37.1500 H   0  0  0  0  0  0  0  0  0  0  0  0
   38.5580   29.2440   38.9000 H   0  0  0  0  0  0  0  0  0  0  0  0
   36.8040   33.6390   39.8480 H   0  0  0  0  0  0  0  0  0  0  0  0
   35.1840   28.8660   40.6730 Cl  0  0  0  0  0  0  0  0  0  0  0  0
   36.6040   28.6980   41.6760 C   0  0  0  0  0  0  0  0  0  0  0  0
   37.7050   29.4730   41.4890 C   0  0  0  0  0  0  0  0  0  0  0  0
   38.7630   29.2490   42.3420 C   0  0  0  0  0  0  0  0  0  0  0  0
   39.6560   29.8440   42.2260 H   0  0  0  0  0  0  0  0  0  0  0  0
   38.7340   28.3110   43.3270 C   0  0  0  0  0  0  0  0  0  0  0  0
   39.5980   28.1620   43.9860 H   0  0  0  0  0  0  0  0  0  0  0  0
   37.6210   27.5320   43.5110 C   0  0  0  0  0  3  0  0  0  0  0  0
   36.5510   27.7390   42.6680 C   0  0  0  0  0  3  0  0  0  0  0  0
  1  6  2  0  0  0  0
  1  2  1  0  0  0  0
  2  3  2  0  0  0  0
  3  4  1  0  0  0  0
  3 12  1  0  0  0  0
  5  9  1  0  0  0  0
  5  4  2  0  0  0  0
  6  5  1  0  0  0  0
  7  1  1  0  0  0  0
  8  2  1  0  0  0  0
 10 11  1  0  0  0  0
 11 18  1  0  0  0  0
 12 11  2  0  0  0  0
 12 13  1  0  0  0  0
 13 15  2  0  0  0  0
 14 13  1  0  0  0  0
 15 17  1  0  0  0  0
 15 16  1  0  0  0  0
 18 17  2  0  0  0  0
M  END
>  <minimizedAffinity>
-4.19051456

$$$$

 OpenBabel03242510283D

 18 19  0  0  0  0  0  0  0  0999 V2000
   39.6740   31.6560   39.2040 C   0  0  0  0  0  0  0  0  0  0  0  0
   39.2540   30.5920   40.0140 C   0  0  0  0  0  0  0  0  0  0  0  0
   38.1130   30.6900   40.8080 C   0  0  0  0  0  0  0  0  0  0  0  0
   37.4450   31.8690   40.7460 N   0  0  0  0  0  0  0  0  0  0  0  0
   37.8550   32.8840   39.9650 C   0  0  0  0  0  0  0  0  0  0  0  0
   38.9570   32.7850   39.1990 N   0  0  0  0  0  0  0  0  0  0  0  0
   40.5640   31.5450   38.5990 H   0  0  0  0  0  0  0  0  0  0  0  0
   39.8300   29.7040   40.0080 H   0  0  0  0  0  0  0  0  0  0  0  0
   37.3050   33.8160   39.9300 H   0  0  0  0  0  0  0  0  0  0  0  0
   35.9280   29.0240   39.6400 Cl  0  0  0  0  0  0  0  0  0  0  0  0
   36.6590   28.7920   41.2090 C   0  0  0  0  0  0  0  0  0  0  0  0
   37.6520   29.6030   41.6610 C   0  0  0  0  0  0  0  0  0  0  0  0
   38.1500   29.3220   42.9140 C   0  0  0  0  0  0  0  0  0  0  0  0
   38.9400   29.9430   43.3080 H   0  0  0  0  0  0  0  0  0  0  0  0
   37.6910   28.2960   43.6800 C   0  0  0  0  0  0  0  0  0  0  0  0
   38.1140   28.1040   44.6730 H   0  0  0  0  0  0  0  0  0  0  0  0
   36.6890   27.4810   43.2190 C   0  0  0  0  0  3  0  0  0  0  0  0
   36.1770   27.7440   41.9680 C   0  0  0  0  0  3  0  0  0  0  0  0
  1  2  1  0  0  0  0
  2  3  2  0  0  0  0
  3 12  1  0  0  0  0
  4  3  1  0  0  0  0
  5  4  2  0  0  0  0
  6  1  2  0  0  0  0
  6  5  1  0  0  0  0
  7  1  1  0  0  0  0
  8  2  1  0  0  0  0
  9  5  1  0  0  0  0
 10 11  1  0  0  0  0
 11 12  2  0  0  0  0
 11 18  1  0  0  0  0
 12 13  1  0  0  0  0
 13 14  1  0  0  0  0
 13 15  2  0  0  0  0
 15 16  1  0  0  0  0
 17 15  1  0  0  0  0
 18 17  2  0  0  0  0
M  END
>  <minimizedAffinity>
-4.11158991

$$$$

 OpenBabel03242510283D

 18 19  0  0  0  0  0  0  0  0999 V2000
   40.4210   32.8440   39.0190 C   0  0  0  0  0  0  0  0  0  0  0  0
   39.5240   31.7940   39.2600 C   0  0  0  0  0  0  0  0  0  0  0  0
   38.4480   31.9440   40.1330 C   0  0  0  0  0  0  0  0  0  0  0  0
   38.3290   33.1580   40.7270 N   0  0  0  0  0  0  0  0  0  0  0  0
   39.1930   34.1590   40.4890 C   0  0  0  0  0  0  0  0  0  0  0  0
   40.2300   34.0120   39.6440 N   0  0  0  0  0  0  0  0  0  0  0  0
   41.2440   32.6930   38.3340 H   0  0  0  0  0  0  0  0  0  0  0  0
   39.6850   30.8770   38.7580 H   0  0  0  0  0  0  0  0  0  0  0  0
   39.0780   35.1210   40.9730 H   0  0  0  0  0  0  0  0  0  0  0  0
   39.1030   30.2700   42.5170 Cl  0  0  0  0  0  0  0  0  0  0  0  0
   37.7200   30.0590   41.4720 C   0  0  0  0  0  0  0  0  0  0  0  0
   37.5010   30.8710   40.4050 C   0  0  0  0  0  0  0  0  0  0  0  0
   36.3770   30.6070   39.6540 C   0  0  0  0  0  0  0  0  0  0  0  0
   36.1690   31.2310   38.7970 H   0  0  0  0  0  0  0  0  0  0  0  0
   35.5170   29.5940   39.9410 C   0  0  0  0  0  0  0  0  0  0  0  0
   34.6320   29.4150   39.3180 H   0  0  0  0  0  0  0  0  0  0  0  0
   35.7420   28.7760   41.0180 C   0  0  0  0  0  3  0  0  0  0  0  0
   36.8610   29.0230   41.7840 C   0  0  0  0  0  3  0  0  0  0  0  0
  1  2  2  0  0  0  0
  1  6  1  0  0  0  0
  2  3  1  0  0  0  0
  3 12  1  0  0  0  0
  3  4  2  0  0  0  0
  5  4  1  0  0  0  0
  5  9  1  0  0  0  0
  6  5  2  0  0  0  0
  7  1  1  0  0  0  0
  8  2  1  0  0  0  0
 11 18  1  0  0  0  0
 11 10  1  0  0  0  0
 12 11  2  0  0  0  0
 13 15  2  0  0  0  0
 13 12  1  0  0  0  0
 14 13  1  0  0  0  0
 15 17  1  0  0  0  0
 16 15  1  0  0  0  0
 17 18  2  0  0  0  0
M  END
>  <minimizedAffinity>
-3.95021701

$$$$

 OpenBabel03242510283D

 18 19  0  0  0  0  0  0  0  0999 V2000
   39.1810   27.3140   42.2080 C   0  0  0  0  0  0  0  0  0  0  0  0
   39.1100   28.5340   41.5200 C   0  0  0  0  0  0  0  0  0  0  0  0
   38.2500   29.5500   41.9310 C   0  0  0  0  0  0  0  0  0  0  0  0
   37.4950   29.2830   43.0260 N   0  0  0  0  0  0  0  0  0  0  0  0
   37.5710   28.1110   43.6800 C   0  0  0  0  0  0  0  0  0  0  0  0
   38.4030   27.1320   43.2810 N   0  0  0  0  0  0  0  0  0  0  0  0
   39.8610   26.5470   41.8610 H   0  0  0  0  0  0  0  0  0  0  0  0
   39.7310   28.6650   40.6740 H   0  0  0  0  0  0  0  0  0  0  0  0
   36.9590   27.9200   44.5530 H   0  0  0  0  0  0  0  0  0  0  0  0
   35.8690   29.8290   40.1510 Cl  0  0  0  0  0  0  0  0  0  0  0  0
   37.1000   31.0420   40.4050 C   0  0  0  0  0  0  0  0  0  0  0  0
   38.1530   30.8270   41.2370 C   0  0  0  0  0  0  0  0  0  0  0  0
   39.0600   31.8570   41.3560 C   0  0  0  0  0  0  0  0  0  0  0  0
   39.9100   31.7240   42.0080 H   0  0  0  0  0  0  0  0  0  0  0  0
   38.9330   33.0350   40.6900 C   0  0  0  0  0  0  0  0  0  0  0  0
   39.6770   33.8320   40.8110 H   0  0  0  0  0  0  0  0  0  0  0  0
   37.8690   33.2470   39.8510 C   0  0  0  0  0  3  0  0  0  0  0  0
   36.9500   32.2300   39.7170 C   0  0  0  0  0  3  0  0  0  0  0  0
  1  6  1  0  0  0  0
  2  3  1  0  0  0  0
  2  1  2  0  0  0  0
  3  4  2  0  0  0  0
  4  5  1  0  0  0  0
  5  9  1  0  0  0  0
  6  5  2  0  0  0  0
  7  1  1  0  0  0  0
  8  2  1  0  0  0  0
 10 11  1  0  0  0  0
 11 12  1  0  0  0  0
 12 13  2  0  0  0  0
 12  3  1  0  0  0  0
 13 14  1  0  0  0  0
 15 16  1  0  0  0  0
 15 13  1  0  0  0  0
 17 15  2  0  0  0  0
 18 17  1  0  0  0  0
 18 11  2  0  0  0  0
M  END
>  <minimizedAffinity>
-3.94791365

$$$$

 OpenBabel03242510283D

 18 19  0  0  0  0  0  0  0  0999 V2000
   39.4230   23.7120   39.1740 C   0  0  0  0  0  0  0  0  0  0  0  0
   39.1610   24.8640   39.9280 C   0  0  0  0  0  0  0  0  0  0  0  0
   38.2370   24.8550   40.9720 C   0  0  0  0  0  0  0  0  0  0  0  0
   37.6160   23.6720   41.2040 N   0  0  0  0  0  0  0  0  0  0  0  0
   37.8740   22.5720   40.4770 C   0  0  0  0  0  0  0  0  0  0  0  0
   38.7670   22.5840   39.4700 N   0  0  0  0  0  0  0  0  0  0  0  0
   40.1480   23.7550   38.3720 H   0  0  0  0  0  0  0  0  0  0  0  0
   39.6870   25.7490   39.6840 H   0  0  0  0  0  0  0  0  0  0  0  0
   37.3660   21.6380   40.6810 H   0  0  0  0  0  0  0  0  0  0  0  0
   39.9970   25.2190   43.3560 Cl  0  0  0  0  0  0  0  0  0  0  0  0
   38.6960   26.2810   42.8770 C   0  0  0  0  0  0  0  0  0  0  0  0
   37.9430   26.0360   41.7720 C   0  0  0  0  0  0  0  0  0  0  0  0
   36.9450   26.9430   41.4970 C   0  0  0  0  0  0  0  0  0  0  0  0
   36.3260   26.7830   40.6270 H   0  0  0  0  0  0  0  0  0  0  0  0
   36.7030   28.0350   42.2710 C   0  0  0  0  0  0  0  0  0  0  0  0
   35.8970   28.7350   42.0180 H   0  0  0  0  0  0  0  0  0  0  0  0
   37.4640   28.2780   43.3850 C   0  0  0  0  0  3  0  0  0  0  0  0
   38.4690   27.3820   43.6800 C   0  0  0  0  0  3  0  0  0  0  0  0
  1  6  2  0  0  0  0
  1  2  1  0  0  0  0
  2  3  2  0  0  0  0
  3  4  1  0  0  0  0
  3 12  1  0  0  0  0
  5  9  1  0  0  0  0
  5  4  2  0  0  0  0
  6  5  1  0  0  0  0
  7  1  1  0  0  0  0
  8  2  1  0  0  0  0
 11 10  1  0  0  0  0
 11 18  1  0  0  0  0
 12 11  2  0  0  0  0
 13 12  1  0  0  0  0
 13 15  2  0  0  0  0
 14 13  1  0  0  0  0
 15 17  1  0  0  0  0
 16 15  1  0  0  0  0
 17 18  2  0  0  0  0
M  END
>  <minimizedAffinity>
-3.93966746

$$$$
