
 OpenBabel03252505593D

 36 38  0  0  0  0  0  0  0  0999 V2000
   36.4710   29.7570   39.9970 C   0  0  0  0  0  0  0  0  0  0  0  0
   37.4790   30.3610   39.2500 C   0  0  0  0  0  0  0  0  0  0  0  0
   38.6990   30.6210   39.8800 C   0  0  0  0  0  0  0  0  0  0  0  0
   38.8360   30.2710   41.1750 N   0  0  0  0  0  0  0  0  0  0  0  0
   37.8450   29.6890   41.8650 C   0  0  0  0  0  0  0  0  0  0  0  0
   36.6600   29.4320   41.2760 N   0  0  0  0  0  0  0  0  0  0  0  0
   35.5160   29.5580   39.4810 H   0  0  0  0  0  0  0  0  0  0  0  0
   38.6150   33.4460   40.6420 Cl  0  0  0  0  0  0  0  0  0  0  0  0
   39.7020   32.6550   39.4960 C   0  0  0  0  0  0  0  0  0  0  0  0
   39.7370   31.3180   39.1210 C   0  0  0  0  0  0  0  0  0  0  0  0
   40.6650   30.9100   38.1910 C   0  0  0  0  0  0  0  0  0  0  0  0
   40.5810   29.8570   37.9960 H   0  0  0  0  0  0  0  0  0  0  0  0
   41.5300   31.8370   37.6630 C   0  0  0  0  0  0  0  0  0  0  0  0
   42.2360   31.4610   36.9460 H   0  0  0  0  0  0  0  0  0  0  0  0
   41.5370   33.1840   38.0060 C   0  0  0  0  0  3  0  0  0  0  0  0
   40.5970   33.5800   38.9400 C   0  0  0  0  0  3  0  0  0  0  0  0
   37.2060   30.7170   37.8190 C   0  0  0  0  0  0  0  0  0  0  0  0
   35.9140   30.2860   37.5840 F   0  0  0  0  0  0  0  0  0  0  0  0
   38.1000   29.9770   37.0470 F   0  0  0  0  0  0  0  0  0  0  0  0
   37.3400   32.0650   37.6470 F   0  0  0  0  0  0  0  0  0  0  0  0
   37.9520   29.3190   43.1960 O   0  0  0  0  0  0  0  0  0  0  0  0
   37.3480   28.1520   43.6790 C   0  0  0  0  0  0  0  0  0  0  0  0
   36.3250   28.0890   43.3180 H   0  0  0  0  0  0  0  0  0  0  0  0
   37.2710   28.2100   44.7990 H   0  0  0  0  0  0  0  0  0  0  0  0
   38.1940   27.0080   43.3200 C   0  0  0  0  0  0  0  0  0  0  0  0
   39.4810   26.6860   43.6790 C   0  0  0  0  0  0  0  0  0  0  0  0
   40.0330   25.5380   43.1790 C   0  0  0  0  0  0  0  0  0  0  0  0
   39.3600   24.7370   42.3640 N   0  0  0  0  0  0  0  0  0  0  0  0
   38.0920   25.0510   42.0060 C   0  0  0  0  0  0  0  0  0  0  0  0
   37.4910   26.1900   42.4780 N   0  0  0  0  0  0  0  0  0  0  0  0
   39.8580   27.4570   44.3440 H   0  0  0  0  0  0  0  0  0  0  0  0
   41.0450   25.3810   43.5240 H   0  0  0  0  0  0  0  0  0  0  0  0
   37.4180   24.0940   41.0960 C   0  0  0  0  0  0  0  0  0  0  0  0
   37.5640   24.4520   39.7870 F   0  0  0  0  0  0  0  0  0  0  0  0
   36.0560   24.0020   41.4190 F   0  0  0  0  0  0  0  0  0  0  0  0
   37.9360   22.8170   41.2300 F   0  0  0  0  0  0  0  0  0  0  0  0
  1  6  1  0  0  0  0
  2  3  1  0  0  0  0
  2  1  2  0  0  0  0
  3  4  2  0  0  0  0
  4  5  1  0  0  0  0
  5 21  1  0  0  0  0
  6  5  2  0  0  0  0
  7  1  1  0  0  0  0
  9  8  1  0  0  0  0
 10  9  1  0  0  0  0
 10  3  1  0  0  0  0
 11 10  2  0  0  0  0
 12 11  1  0  0  0  0
 13 15  2  0  0  0  0
 13 11  1  0  0  0  0
 14 13  1  0  0  0  0
 15 16  1  0  0  0  0
 16  9  2  0  0  0  0
 17  2  1  0  0  0  0
 18 17  1  0  0  0  0
 19 17  1  0  0  0  0
 20 17  1  0  0  0  0
 21 22  1  0  0  0  0
 22 24  1  0  0  0  0
 23 22  1  0  0  0  0
 25 22  1  0  0  0  0
 25 26  1  0  0  0  0
 26 31  1  0  0  0  0
 27 32  1  0  0  0  0
 27 26  2  0  0  0  0
 28 27  1  0  0  0  0
 29 28  2  0  0  0  0
 29 30  1  0  0  0  0
 30 25  2  0  0  0  0
 33 36  1  0  0  0  0
 33 35  1  0  0  0  0
 33 29  1  0  0  0  0
 34 33  1  0  0  0  0
M  END
>  <minimizedAffinity>
-6.13294506

$$$$

 OpenBabel03252505593D

 36 38  0  0  0  0  0  0  0  0999 V2000
   36.6230   31.5270   40.6760 C   0  0  0  0  0  0  0  0  0  0  0  0
   37.9280   31.9280   40.4060 C   0  0  0  0  0  0  0  0  0  0  0  0
   38.9730   31.1400   40.8950 C   0  0  0  0  0  0  0  0  0  0  0  0
   38.6630   30.0350   41.6020 N   0  0  0  0  0  0  0  0  0  0  0  0
   37.3930   29.6760   41.8440 C   0  0  0  0  0  0  0  0  0  0  0  0
   36.3710   30.4230   41.3810 N   0  0  0  0  0  0  0  0  0  0  0  0
   35.8110   32.1610   40.2780 H   0  0  0  0  0  0  0  0  0  0  0  0
   40.0500   29.6490   38.6170 Cl  0  0  0  0  0  0  0  0  0  0  0  0
   40.8490   30.8930   39.5850 C   0  0  0  0  0  0  0  0  0  0  0  0
   40.3460   31.5930   40.6750 C   0  0  0  0  0  0  0  0  0  0  0  0
   41.1490   32.5190   41.3000 C   0  0  0  0  0  0  0  0  0  0  0  0
   40.6360   32.9840   42.1210 H   0  0  0  0  0  0  0  0  0  0  0  0
   42.4220   32.7240   40.8270 C   0  0  0  0  0  0  0  0  0  0  0  0
   43.0010   33.4630   41.3500 H   0  0  0  0  0  0  0  0  0  0  0  0
   42.9690   32.0510   39.7410 C   0  0  0  0  0  3  0  0  0  0  0  0
   42.1520   31.1220   39.1240 C   0  0  0  0  0  3  0  0  0  0  0  0
   38.1510   33.1850   39.6200 C   0  0  0  0  0  0  0  0  0  0  0  0
   38.5760   34.1170   40.5480 F   0  0  0  0  0  0  0  0  0  0  0  0
   36.9100   33.5600   39.1060 F   0  0  0  0  0  0  0  0  0  0  0  0
   39.0850   32.9610   38.6490 F   0  0  0  0  0  0  0  0  0  0  0  0
   37.0400   28.5480   42.5660 O   0  0  0  0  0  0  0  0  0  0  0  0
   37.7930   28.1210   43.6650 C   0  0  0  0  0  0  0  0  0  0  0  0
   37.1650   28.0800   44.5510 H   0  0  0  0  0  0  0  0  0  0  0  0
   38.5860   28.8850   43.8920 H   0  0  0  0  0  0  0  0  0  0  0  0
   38.4430   26.8520   43.3190 C   0  0  0  0  0  0  0  0  0  0  0  0
   39.6640   26.3320   43.6800 C   0  0  0  0  0  0  0  0  0  0  0  0
   40.0230   25.1050   43.1930 C   0  0  0  0  0  0  0  0  0  0  0  0
   39.2280   24.4130   42.3880 N   0  0  0  0  0  0  0  0  0  0  0  0
   38.0250   24.9210   42.0290 C   0  0  0  0  0  0  0  0  0  0  0  0
   37.6150   26.1470   42.4880 N   0  0  0  0  0  0  0  0  0  0  0  0
   40.1620   27.0400   44.3350 H   0  0  0  0  0  0  0  0  0  0  0  0
   40.9980   24.7920   43.5380 H   0  0  0  0  0  0  0  0  0  0  0  0
   37.2030   24.0730   41.1310 C   0  0  0  0  0  0  0  0  0  0  0  0
   35.9070   24.0020   41.5510 F   0  0  0  0  0  0  0  0  0  0  0  0
   37.7530   22.7850   41.0510 F   0  0  0  0  0  0  0  0  0  0  0  0
   37.1880   24.5710   39.8400 F   0  0  0  0  0  0  0  0  0  0  0  0
  1  6  1  0  0  0  0
  2  1  2  0  0  0  0
  2  3  1  0  0  0  0
  3  4  2  0  0  0  0
  4  5  1  0  0  0  0
  5 21  1  0  0  0  0
  6  5  2  0  0  0  0
  7  1  1  0  0  0  0
  8  9  1  0  0  0  0
  9 10  1  0  0  0  0
 10  3  1  0  0  0  0
 10 11  2  0  0  0  0
 11 12  1  0  0  0  0
 13 11  1  0  0  0  0
 13 14  1  0  0  0  0
 15 13  2  0  0  0  0
 16  9  2  0  0  0  0
 16 15  1  0  0  0  0
 17  2  1  0  0  0  0
 17 18  1  0  0  0  0
 19 17  1  0  0  0  0
 20 17  1  0  0  0  0
 21 22  1  0  0  0  0
 22 24  1  0  0  0  0
 22 23  1  0  0  0  0
 25 22  1  0  0  0  0
 25 26  1  0  0  0  0
 26 31  1  0  0  0  0
 27 32  1  0  0  0  0
 27 26  2  0  0  0  0
 28 27  1  0  0  0  0
 29 28  2  0  0  0  0
 29 30  1  0  0  0  0
 30 25  2  0  0  0  0
 33 34  1  0  0  0  0
 33 29  1  0  0  0  0
 35 33  1  0  0  0  0
 36 33  1  0  0  0  0
M  END
>  <minimizedAffinity>
-6.05792761

$$$$

 OpenBabel03252505593D

 36 38  0  0  0  0  0  0  0  0999 V2000
   39.7490   31.9400   40.5530 C   0  0  0  0  0  0  0  0  0  0  0  0
   38.6230   31.5650   39.8250 C   0  0  0  0  0  0  0  0  0  0  0  0
   38.3730   30.2010   39.6560 C   0  0  0  0  0  0  0  0  0  0  0  0
   39.2320   29.3210   40.2080 N   0  0  0  0  0  0  0  0  0  0  0  0
   40.3080   29.7160   40.9050 C   0  0  0  0  0  0  0  0  0  0  0  0
   40.5670   31.0270   41.0780 N   0  0  0  0  0  0  0  0  0  0  0  0
   39.9280   33.0210   40.6780 H   0  0  0  0  0  0  0  0  0  0  0  0
   36.1840   29.4710   41.4590 Cl  0  0  0  0  0  0  0  0  0  0  0  0
   36.1920   29.4690   39.6920 C   0  0  0  0  0  0  0  0  0  0  0  0
   37.2320   29.8020   38.8330 C   0  0  0  0  0  0  0  0  0  0  0  0
   37.0280   29.7170   37.4750 C   0  0  0  0  0  0  0  0  0  0  0  0
   37.9100   30.0020   36.9330 H   0  0  0  0  0  0  0  0  0  0  0  0
   35.8020   29.3070   37.0100 C   0  0  0  0  0  0  0  0  0  0  0  0
   35.6990   29.2650   35.9410 H   0  0  0  0  0  0  0  0  0  0  0  0
   34.7310   28.9650   37.8270 C   0  0  0  0  0  3  0  0  0  0  0  0
   34.9510   29.0530   39.1890 C   0  0  0  0  0  3  0  0  0  0  0  0
   37.7460   32.6350   39.2470 C   0  0  0  0  0  0  0  0  0  0  0  0
   38.3510   33.8250   39.6050 F   0  0  0  0  0  0  0  0  0  0  0  0
   36.5090   32.5220   39.8810 F   0  0  0  0  0  0  0  0  0  0  0  0
   37.6670   32.4830   37.8930 F   0  0  0  0  0  0  0  0  0  0  0  0
   41.2110   28.8380   41.4840 O   0  0  0  0  0  0  0  0  0  0  0  0
   41.0700   28.4180   42.8110 C   0  0  0  0  0  0  0  0  0  0  0  0
   40.4750   29.1390   43.3660 H   0  0  0  0  0  0  0  0  0  0  0  0
   42.0780   28.4120   43.3090 H   0  0  0  0  0  0  0  0  0  0  0  0
   40.5320   27.0530   42.8130 C   0  0  0  0  0  0  0  0  0  0  0  0
   41.1520   25.8360   42.9680 C   0  0  0  0  0  0  0  0  0  0  0  0
   40.3900   24.7010   42.9170 C   0  0  0  0  0  0  0  0  0  0  0  0
   39.0790   24.7480   42.7220 N   0  0  0  0  0  0  0  0  0  0  0  0
   38.4640   25.9440   42.5660 C   0  0  0  0  0  0  0  0  0  0  0  0
   39.1800   27.1130   42.6090 N   0  0  0  0  0  0  0  0  0  0  0  0
   42.2140   26.0050   43.1150 H   0  0  0  0  0  0  0  0  0  0  0  0
   40.9750   23.8030   43.0510 H   0  0  0  0  0  0  0  0  0  0  0  0
   36.9960   25.8980   42.3590 C   0  0  0  0  0  0  0  0  0  0  0  0
   36.6520   26.2810   41.0950 F   0  0  0  0  0  0  0  0  0  0  0  0
   36.3520   26.7160   43.2990 F   0  0  0  0  0  0  0  0  0  0  0  0
   36.4980   24.6210   42.5480 F   0  0  0  0  0  0  0  0  0  0  0  0
  1  7  1  0  0  0  0
  1  6  1  0  0  0  0
  2  1  2  0  0  0  0
  3  2  1  0  0  0  0
  3  4  2  0  0  0  0
  4  5  1  0  0  0  0
  5  6  2  0  0  0  0
  5 21  1  0  0  0  0
  9  8  1  0  0  0  0
 10  3  1  0  0  0  0
 10  9  2  0  0  0  0
 11 10  1  0  0  0  0
 12 11  1  0  0  0  0
 13 11  2  0  0  0  0
 13 15  1  0  0  0  0
 14 13  1  0  0  0  0
 15 16  2  0  0  0  0
 16  9  1  0  0  0  0
 17 18  1  0  0  0  0
 17  2  1  0  0  0  0
 17 19  1  0  0  0  0
 20 17  1  0  0  0  0
 21 22  1  0  0  0  0
 22 25  1  0  0  0  0
 22 24  1  0  0  0  0
 22 23  1  0  0  0  0
 25 26  1  0  0  0  0
 26 31  1  0  0  0  0
 27 26  2  0  0  0  0
 27 32  1  0  0  0  0
 28 27  1  0  0  0  0
 29 30  1  0  0  0  0
 29 28  2  0  0  0  0
 30 25  2  0  0  0  0
 33 36  1  0  0  0  0
 33 29  1  0  0  0  0
 33 35  1  0  0  0  0
 34 33  1  0  0  0  0
M  END
>  <minimizedAffinity>
-5.9424243

$$$$

 OpenBabel03252505593D

 36 38  0  0  0  0  0  0  0  0999 V2000
   35.9780   25.3970   38.7990 C   0  0  0  0  0  0  0  0  0  0  0  0
   36.8180   25.1880   39.8900 C   0  0  0  0  0  0  0  0  0  0  0  0
   37.8470   26.1070   40.1140 C   0  0  0  0  0  0  0  0  0  0  0  0
   37.9710   27.1460   39.2640 N   0  0  0  0  0  0  0  0  0  0  0  0
   37.1430   27.3190   38.2230 C   0  0  0  0  0  0  0  0  0  0  0  0
   36.1450   26.4440   37.9900 N   0  0  0  0  0  0  0  0  0  0  0  0
   35.1700   24.6630   38.6410 H   0  0  0  0  0  0  0  0  0  0  0  0
   36.9530   27.6830   42.4130 Cl  0  0  0  0  0  0  0  0  0  0  0  0
   38.3400   26.5940   42.3080 C   0  0  0  0  0  0  0  0  0  0  0  0
   38.7750   25.8540   41.2150 C   0  0  0  0  0  0  0  0  0  0  0  0
   39.8990   25.0710   41.3450 C   0  0  0  0  0  0  0  0  0  0  0  0
   40.1200   24.5570   40.4290 H   0  0  0  0  0  0  0  0  0  0  0  0
   40.5550   25.0440   42.5510 C   0  0  0  0  0  0  0  0  0  0  0  0
   41.4230   24.4110   42.5960 H   0  0  0  0  0  0  0  0  0  0  0  0
   40.1600   25.7630   43.6730 C   0  0  0  0  0  3  0  0  0  0  0  0
   39.0300   26.5470   43.5270 C   0  0  0  0  0  3  0  0  0  0  0  0
   36.5910   23.9870   40.7590 C   0  0  0  0  0  0  0  0  0  0  0  0
   37.6900   23.1770   40.5430 F   0  0  0  0  0  0  0  0  0  0  0  0
   35.4400   23.3610   40.2810 F   0  0  0  0  0  0  0  0  0  0  0  0
   36.4850   24.3770   42.0630 F   0  0  0  0  0  0  0  0  0  0  0  0
   37.2430   28.3750   37.3320 O   0  0  0  0  0  0  0  0  0  0  0  0
   36.3470   29.4500   37.3720 C   0  0  0  0  0  0  0  0  0  0  0  0
   35.3370   29.0970   37.1790 H   0  0  0  0  0  0  0  0  0  0  0  0
   36.5830   30.1620   36.5340 H   0  0  0  0  0  0  0  0  0  0  0  0
   36.5160   30.1490   38.6510 C   0  0  0  0  0  0  0  0  0  0  0  0
   35.8080   30.0690   39.8270 C   0  0  0  0  0  0  0  0  0  0  0  0
   36.1910   30.8580   40.8770 C   0  0  0  0  0  0  0  0  0  0  0  0
   37.2190   31.6910   40.7860 N   0  0  0  0  0  0  0  0  0  0  0  0
   37.9180   31.7750   39.6290 C   0  0  0  0  0  0  0  0  0  0  0  0
   37.5770   31.0070   38.5450 N   0  0  0  0  0  0  0  0  0  0  0  0
   35.0140   29.3390   39.7040 H   0  0  0  0  0  0  0  0  0  0  0  0
   35.5700   30.7160   41.7490 H   0  0  0  0  0  0  0  0  0  0  0  0
   39.0540   32.7290   39.6230 C   0  0  0  0  0  0  0  0  0  0  0  0
   39.9400   32.4650   40.6260 F   0  0  0  0  0  0  0  0  0  0  0  0
   38.5770   34.0440   39.7380 F   0  0  0  0  0  0  0  0  0  0  0  0
   39.7560   32.6730   38.4320 F   0  0  0  0  0  0  0  0  0  0  0  0
  1  2  1  0  0  0  0
  2  3  2  0  0  0  0
  2 17  1  0  0  0  0
  3 10  1  0  0  0  0
  4  3  1  0  0  0  0
  5  4  2  0  0  0  0
  6  5  1  0  0  0  0
  6  1  2  0  0  0  0
  7  1  1  0  0  0  0
  9  8  1  0  0  0  0
  9 16  1  0  0  0  0
 10 11  1  0  0  0  0
 10  9  2  0  0  0  0
 11 13  2  0  0  0  0
 12 11  1  0  0  0  0
 13 14  1  0  0  0  0
 13 15  1  0  0  0  0
 16 15  2  0  0  0  0
 17 20  1  0  0  0  0
 18 17  1  0  0  0  0
 19 17  1  0  0  0  0
 21 22  1  0  0  0  0
 21  5  1  0  0  0  0
 22 25  1  0  0  0  0
 23 22  1  0  0  0  0
 24 22  1  0  0  0  0
 25 26  1  0  0  0  0
 26 27  2  0  0  0  0
 27 32  1  0  0  0  0
 28 27  1  0  0  0  0
 29 28  2  0  0  0  0
 30 25  2  0  0  0  0
 30 29  1  0  0  0  0
 31 26  1  0  0  0  0
 33 29  1  0  0  0  0
 33 35  1  0  0  0  0
 33 34  1  0  0  0  0
 36 33  1  0  0  0  0
M  END
>  <minimizedAffinity>
-5.93806314

$$$$

 OpenBabel03252505593D

 36 38  0  0  0  0  0  0  0  0999 V2000
   37.2360   29.5030   37.5220 C   0  0  0  0  0  0  0  0  0  0  0  0
   37.6390   29.2490   38.8310 C   0  0  0  0  0  0  0  0  0  0  0  0
   36.6870   28.7530   39.7260 C   0  0  0  0  0  0  0  0  0  0  0  0
   35.4330   28.5460   39.2770 N   0  0  0  0  0  0  0  0  0  0  0  0
   35.0790   28.8010   38.0080 C   0  0  0  0  0  0  0  0  0  0  0  0
   35.9810   29.2800   37.1300 N   0  0  0  0  0  0  0  0  0  0  0  0
   38.0030   29.8910   36.8290 H   0  0  0  0  0  0  0  0  0  0  0  0
   37.1130   25.8840   40.1250 Cl  0  0  0  0  0  0  0  0  0  0  0  0
   37.2990   27.1900   41.3000 C   0  0  0  0  0  0  0  0  0  0  0  0
   37.0850   28.5510   41.1190 C   0  0  0  0  0  0  0  0  0  0  0  0
   37.2770   29.4030   42.1820 C   0  0  0  0  0  0  0  0  0  0  0  0
   37.0780   30.4210   41.9030 H   0  0  0  0  0  0  0  0  0  0  0  0
   37.6750   28.8820   43.3890 C   0  0  0  0  0  0  0  0  0  0  0  0
   37.8140   29.5950   44.1820 H   0  0  0  0  0  0  0  0  0  0  0  0
   37.9030   27.5310   43.6200 C   0  0  0  0  0  3  0  0  0  0  0  0
   37.7040   26.6870   42.5440 C   0  0  0  0  0  3  0  0  0  0  0  0
   39.0590   29.5300   39.2190 C   0  0  0  0  0  0  0  0  0  0  0  0
   38.9850   30.5940   40.0980 F   0  0  0  0  0  0  0  0  0  0  0  0
   39.7210   29.9220   38.0560 F   0  0  0  0  0  0  0  0  0  0  0  0
   39.6060   28.4210   39.7970 F   0  0  0  0  0  0  0  0  0  0  0  0
   33.8000   28.6000   37.5150 O   0  0  0  0  0  0  0  0  0  0  0  0
   33.4750   28.9060   36.1890 C   0  0  0  0  0  0  0  0  0  0  0  0
   33.4460   27.9960   35.5950 H   0  0  0  0  0  0  0  0  0  0  0  0
   34.2930   29.5340   35.7400 H   0  0  0  0  0  0  0  0  0  0  0  0
   32.2270   29.6790   36.1830 C   0  0  0  0  0  0  0  0  0  0  0  0
   31.6800   30.5070   35.2310 C   0  0  0  0  0  0  0  0  0  0  0  0
   30.4850   31.1160   35.5020 C   0  0  0  0  0  0  0  0  0  0  0  0
   29.8490   30.9270   36.6510 N   0  0  0  0  0  0  0  0  0  0  0  0
   30.3860   30.1140   37.5910 C   0  0  0  0  0  0  0  0  0  0  0  0
   31.5810   29.4790   37.3730 N   0  0  0  0  0  0  0  0  0  0  0  0
   32.3420   30.5320   34.3710 H   0  0  0  0  0  0  0  0  0  0  0  0
   30.1460   31.7420   34.6890 H   0  0  0  0  0  0  0  0  0  0  0  0
   29.6010   29.9600   38.8410 C   0  0  0  0  0  0  0  0  0  0  0  0
   28.7000   28.9400   38.7490 F   0  0  0  0  0  0  0  0  0  0  0  0
   28.9380   31.1600   39.1430 F   0  0  0  0  0  0  0  0  0  0  0  0
   30.4200   29.6860   39.9220 F   0  0  0  0  0  0  0  0  0  0  0  0
  1  2  1  0  0  0  0
  2 17  1  0  0  0  0
  2  3  2  0  0  0  0
  3 10  1  0  0  0  0
  4  3  1  0  0  0  0
  5  4  2  0  0  0  0
  6  1  2  0  0  0  0
  6  5  1  0  0  0  0
  7  1  1  0  0  0  0
  8  9  1  0  0  0  0
  9 16  1  0  0  0  0
 10  9  2  0  0  0  0
 10 11  1  0  0  0  0
 11 13  2  0  0  0  0
 12 11  1  0  0  0  0
 13 15  1  0  0  0  0
 13 14  1  0  0  0  0
 16 15  2  0  0  0  0
 17 20  1  0  0  0  0
 17 18  1  0  0  0  0
 19 17  1  0  0  0  0
 21  5  1  0  0  0  0
 22 21  1  0  0  0  0
 23 22  1  0  0  0  0
 24 22  1  0  0  0  0
 25 22  1  0  0  0  0
 25 30  1  0  0  0  0
 26 27  1  0  0  0  0
 26 25  2  0  0  0  0
 27 28  2  0  0  0  0
 28 29  1  0  0  0  0
 29 33  1  0  0  0  0
 30 29  2  0  0  0  0
 31 26  1  0  0  0  0
 32 27  1  0  0  0  0
 33 35  1  0  0  0  0
 33 36  1  0  0  0  0
 34 33  1  0  0  0  0
M  END
>  <minimizedAffinity>
-5.84075212

$$$$

 OpenBabel03252505593D

 36 38  0  0  0  0  0  0  0  0999 V2000
   36.6760   29.8500   38.0250 C   0  0  0  0  0  0  0  0  0  0  0  0
   37.2710   29.4580   39.2210 C   0  0  0  0  0  0  0  0  0  0  0  0
   36.4680   28.8420   40.1850 C   0  0  0  0  0  0  0  0  0  0  0  0
   35.1620   28.6570   39.9050 N   0  0  0  0  0  0  0  0  0  0  0  0
   34.6200   29.0460   38.7410 C   0  0  0  0  0  0  0  0  0  0  0  0
   35.3770   29.6430   37.8000 N   0  0  0  0  0  0  0  0  0  0  0  0
   37.3270   30.3320   37.2760 H   0  0  0  0  0  0  0  0  0  0  0  0
   37.0820   25.9790   40.1320 Cl  0  0  0  0  0  0  0  0  0  0  0  0
   37.3720   27.1360   41.4360 C   0  0  0  0  0  0  0  0  0  0  0  0
   37.0710   28.4920   41.4700 C   0  0  0  0  0  0  0  0  0  0  0  0
   37.3720   29.2130   42.6010 C   0  0  0  0  0  0  0  0  0  0  0  0
   37.0870   30.2430   42.4910 H   0  0  0  0  0  0  0  0  0  0  0  0
   37.9640   28.5720   43.6620 C   0  0  0  0  0  0  0  0  0  0  0  0
   38.1810   29.1860   44.5170 H   0  0  0  0  0  0  0  0  0  0  0  0
   38.2870   27.2200   43.6770 C   0  0  0  0  0  3  0  0  0  0  0  0
   37.9760   26.5070   42.5340 C   0  0  0  0  0  3  0  0  0  0  0  0
   38.7310   29.7270   39.4260 C   0  0  0  0  0  0  0  0  0  0  0  0
   39.1990   30.1190   38.1860 F   0  0  0  0  0  0  0  0  0  0  0  0
   39.3130   28.5140   39.7900 F   0  0  0  0  0  0  0  0  0  0  0  0
   38.8920   30.7000   40.3700 F   0  0  0  0  0  0  0  0  0  0  0  0
   33.2830   28.8730   38.4220 O   0  0  0  0  0  0  0  0  0  0  0  0
   32.8400   28.9090   37.0950 C   0  0  0  0  0  0  0  0  0  0  0  0
   32.6620   27.8990   36.7370 H   0  0  0  0  0  0  0  0  0  0  0  0
   33.6560   29.3220   36.4410 H   0  0  0  0  0  0  0  0  0  0  0  0
   31.6750   29.7990   37.0180 C   0  0  0  0  0  0  0  0  0  0  0  0
   30.6740   30.0600   37.9230 C   0  0  0  0  0  0  0  0  0  0  0  0
   29.6910   30.9460   37.5760 C   0  0  0  0  0  0  0  0  0  0  0  0
   29.6830   31.5520   36.3960 N   0  0  0  0  0  0  0  0  0  0  0  0
   30.6660   31.2970   35.5010 C   0  0  0  0  0  0  0  0  0  0  0  0
   31.6750   30.4170   35.7970 N   0  0  0  0  0  0  0  0  0  0  0  0
   30.8550   29.4740   38.8190 H   0  0  0  0  0  0  0  0  0  0  0  0
   28.9580   31.0790   38.3580 H   0  0  0  0  0  0  0  0  0  0  0  0
   30.5760   32.0250   34.2110 C   0  0  0  0  0  0  0  0  0  0  0  0
   29.4600   32.8080   34.1500 F   0  0  0  0  0  0  0  0  0  0  0  0
   30.5820   31.1140   33.1440 F   0  0  0  0  0  0  0  0  0  0  0  0
   31.6680   32.8540   34.0210 F   0  0  0  0  0  0  0  0  0  0  0  0
  1  2  1  0  0  0  0
  2 17  1  0  0  0  0
  2  3  2  0  0  0  0
  3 10  1  0  0  0  0
  4  3  1  0  0  0  0
  5  4  2  0  0  0  0
  6  1  2  0  0  0  0
  6  5  1  0  0  0  0
  7  1  1  0  0  0  0
  8  9  1  0  0  0  0
  9 10  2  0  0  0  0
  9 16  1  0  0  0  0
 10 11  1  0  0  0  0
 11 13  2  0  0  0  0
 12 11  1  0  0  0  0
 13 15  1  0  0  0  0
 13 14  1  0  0  0  0
 16 15  2  0  0  0  0
 17 19  1  0  0  0  0
 17 20  1  0  0  0  0
 18 17  1  0  0  0  0
 21  5  1  0  0  0  0
 22 21  1  0  0  0  0
 23 22  1  0  0  0  0
 24 22  1  0  0  0  0
 25 22  1  0  0  0  0
 25 26  1  0  0  0  0
 26 31  1  0  0  0  0
 27 26  2  0  0  0  0
 27 32  1  0  0  0  0
 28 27  1  0  0  0  0
 29 30  1  0  0  0  0
 29 28  2  0  0  0  0
 30 25  2  0  0  0  0
 33 29  1  0  0  0  0
 34 33  1  0  0  0  0
 35 33  1  0  0  0  0
 36 33  1  0  0  0  0
M  END
>  <minimizedAffinity>
-5.82189751

$$$$

 OpenBabel03252505593D

 36 38  0  0  0  0  0  0  0  0999 V2000
   37.2040   27.1860   43.0950 C   0  0  0  0  0  0  0  0  0  0  0  0
   37.7650   26.3360   42.1460 C   0  0  0  0  0  0  0  0  0  0  0  0
   38.8180   26.8230   41.3670 C   0  0  0  0  0  0  0  0  0  0  0  0
   39.2360   28.0870   41.5750 N   0  0  0  0  0  0  0  0  0  0  0  0
   38.6730   28.8800   42.5000 C   0  0  0  0  0  0  0  0  0  0  0  0
   37.6560   28.4300   43.2600 N   0  0  0  0  0  0  0  0  0  0  0  0
   36.3760   26.7830   43.7020 H   0  0  0  0  0  0  0  0  0  0  0  0
   37.4970   27.5220   38.8490 Cl  0  0  0  0  0  0  0  0  0  0  0  0
   38.7450   26.3030   39.1260 C   0  0  0  0  0  0  0  0  0  0  0  0
   39.3640   25.9590   40.3210 C   0  0  0  0  0  0  0  0  0  0  0  0
   40.3100   24.9600   40.3170 C   0  0  0  0  0  0  0  0  0  0  0  0
   40.7060   24.7980   41.3020 H   0  0  0  0  0  0  0  0  0  0  0  0
   40.6140   24.3350   39.1330 C   0  0  0  0  0  0  0  0  0  0  0  0
   41.3630   23.5660   39.1890 H   0  0  0  0  0  0  0  0  0  0  0  0
   40.0240   24.6430   37.9130 C   0  0  0  0  0  3  0  0  0  0  0  0
   39.0740   25.6480   37.9320 C   0  0  0  0  0  3  0  0  0  0  0  0
   37.2080   24.9520   41.9940 C   0  0  0  0  0  0  0  0  0  0  0  0
   36.1820   24.8770   42.9180 F   0  0  0  0  0  0  0  0  0  0  0  0
   38.2290   24.0700   42.3470 F   0  0  0  0  0  0  0  0  0  0  0  0
   36.7660   24.7720   40.7150 F   0  0  0  0  0  0  0  0  0  0  0  0
   39.0780   30.1840   42.7390 O   0  0  0  0  0  0  0  0  0  0  0  0
   40.3790   30.6080   42.4470 C   0  0  0  0  0  0  0  0  0  0  0  0
   40.9870   29.7590   42.1480 H   0  0  0  0  0  0  0  0  0  0  0  0
   40.8580   31.0090   43.3820 H   0  0  0  0  0  0  0  0  0  0  0  0
   40.3050   31.6860   41.4540 C   0  0  0  0  0  0  0  0  0  0  0  0
   41.2430   32.6020   41.0400 C   0  0  0  0  0  0  0  0  0  0  0  0
   40.8900   33.5150   40.0840 C   0  0  0  0  0  0  0  0  0  0  0  0
   39.6740   33.5360   39.5540 N   0  0  0  0  0  0  0  0  0  0  0  0
   38.7470   32.6370   39.9590 C   0  0  0  0  0  0  0  0  0  0  0  0
   39.0470   31.7000   40.9150 N   0  0  0  0  0  0  0  0  0  0  0  0
   42.1640   32.4240   41.5850 H   0  0  0  0  0  0  0  0  0  0  0  0
   41.6990   34.1850   39.8330 H   0  0  0  0  0  0  0  0  0  0  0  0
   37.4180   32.7340   39.3060 C   0  0  0  0  0  0  0  0  0  0  0  0
   37.4670   32.3390   38.0010 F   0  0  0  0  0  0  0  0  0  0  0  0
   36.9360   34.0490   39.3920 F   0  0  0  0  0  0  0  0  0  0  0  0
   36.4830   31.9350   39.9410 F   0  0  0  0  0  0  0  0  0  0  0  0
  1  6  1  0  0  0  0
  1  7  1  0  0  0  0
  2  1  2  0  0  0  0
  3  4  2  0  0  0  0
  3  2  1  0  0  0  0
  4  5  1  0  0  0  0
  5 21  1  0  0  0  0
  5  6  2  0  0  0  0
  8  9  1  0  0  0  0
  9 10  1  0  0  0  0
 10  3  1  0  0  0  0
 11 10  2  0  0  0  0
 11 12  1  0  0  0  0
 13 14  1  0  0  0  0
 13 11  1  0  0  0  0
 15 16  1  0  0  0  0
 15 13  2  0  0  0  0
 16  9  2  0  0  0  0
 17  2  1  0  0  0  0
 17 19  1  0  0  0  0
 17 18  1  0  0  0  0
 20 17  1  0  0  0  0
 22 21  1  0  0  0  0
 22 24  1  0  0  0  0
 23 22  1  0  0  0  0
 25 22  1  0  0  0  0
 26 25  1  0  0  0  0
 26 31  1  0  0  0  0
 27 26  2  0  0  0  0
 28 29  2  0  0  0  0
 28 27  1  0  0  0  0
 29 30  1  0  0  0  0
 30 25  2  0  0  0  0
 32 27  1  0  0  0  0
 33 35  1  0  0  0  0
 33 36  1  0  0  0  0
 33 29  1  0  0  0  0
 34 33  1  0  0  0  0
M  END
>  <minimizedAffinity>
-5.81914997

$$$$

 OpenBabel03252505593D

 36 38  0  0  0  0  0  0  0  0999 V2000
   32.3680   26.6060   35.9420 C   0  0  0  0  0  0  0  0  0  0  0  0
   31.8130   27.8010   35.4930 C   0  0  0  0  0  0  0  0  0  0  0  0
   32.3600   28.9980   35.9650 C   0  0  0  0  0  0  0  0  0  0  0  0
   33.3950   28.9310   36.8270 N   0  0  0  0  0  0  0  0  0  0  0  0
   33.9060   27.7610   37.2380 C   0  0  0  0  0  0  0  0  0  0  0  0
   33.3930   26.5970   36.7950 N   0  0  0  0  0  0  0  0  0  0  0  0
   31.9250   25.6720   35.5550 H   0  0  0  0  0  0  0  0  0  0  0  0
   30.7390   29.9660   38.2030 Cl  0  0  0  0  0  0  0  0  0  0  0  0
   30.9800   30.7180   36.6220 C   0  0  0  0  0  0  0  0  0  0  0  0
   31.7370   30.2550   35.5530 C   0  0  0  0  0  0  0  0  0  0  0  0
   31.7780   30.9960   34.3950 C   0  0  0  0  0  0  0  0  0  0  0  0
   32.3980   30.5250   33.6550 H   0  0  0  0  0  0  0  0  0  0  0  0
   31.0710   32.1720   34.3310 C   0  0  0  0  0  0  0  0  0  0  0  0
   31.1440   32.7110   33.4050 H   0  0  0  0  0  0  0  0  0  0  0  0
   30.3010   32.6770   35.3720 C   0  0  0  0  0  3  0  0  0  0  0  0
   30.2670   31.9210   36.5290 C   0  0  0  0  0  3  0  0  0  0  0  0
   30.6540   27.7500   34.5440 C   0  0  0  0  0  0  0  0  0  0  0  0
   29.6300   28.4120   35.1940 F   0  0  0  0  0  0  0  0  0  0  0  0
   30.3260   26.4040   34.3870 F   0  0  0  0  0  0  0  0  0  0  0  0
   30.9960   28.3560   33.3690 F   0  0  0  0  0  0  0  0  0  0  0  0
   34.9680   27.6580   38.1220 O   0  0  0  0  0  0  0  0  0  0  0  0
   36.0490   28.5460   38.0700 C   0  0  0  0  0  0  0  0  0  0  0  0
   35.8770   29.2920   37.2990 H   0  0  0  0  0  0  0  0  0  0  0  0
   36.9720   27.9890   37.7520 H   0  0  0  0  0  0  0  0  0  0  0  0
   36.2650   29.0940   39.4140 C   0  0  0  0  0  0  0  0  0  0  0  0
   36.3080   30.3920   39.8660 C   0  0  0  0  0  0  0  0  0  0  0  0
   36.5390   30.6150   41.1960 C   0  0  0  0  0  0  0  0  0  0  0  0
   36.7210   29.6170   42.0500 N   0  0  0  0  0  0  0  0  0  0  0  0
   36.6810   28.3370   41.6090 C   0  0  0  0  0  0  0  0  0  0  0  0
   36.4540   28.0560   40.2860 N   0  0  0  0  0  0  0  0  0  0  0  0
   36.1380   31.0570   39.0260 H   0  0  0  0  0  0  0  0  0  0  0  0
   36.5510   31.6660   41.4440 H   0  0  0  0  0  0  0  0  0  0  0  0
   36.8900   27.2880   42.6380 C   0  0  0  0  0  0  0  0  0  0  0  0
   36.8390   26.0360   42.0990 F   0  0  0  0  0  0  0  0  0  0  0  0
   35.9300   27.4130   43.6530 F   0  0  0  0  0  0  0  0  0  0  0  0
   38.1250   27.4200   43.2510 F   0  0  0  0  0  0  0  0  0  0  0  0
  1  6  1  0  0  0  0
  2  1  2  0  0  0  0
  2  3  1  0  0  0  0
  3  4  2  0  0  0  0
  4  5  1  0  0  0  0
  5 21  1  0  0  0  0
  6  5  2  0  0  0  0
  7  1  1  0  0  0  0
  9  8  1  0  0  0  0
 10  3  1  0  0  0  0
 10  9  2  0  0  0  0
 11 10  1  0  0  0  0
 12 11  1  0  0  0  0
 13 11  2  0  0  0  0
 13 15  1  0  0  0  0
 14 13  1  0  0  0  0
 15 16  2  0  0  0  0
 16  9  1  0  0  0  0
 17 18  1  0  0  0  0
 17  2  1  0  0  0  0
 19 17  1  0  0  0  0
 20 17  1  0  0  0  0
 22 21  1  0  0  0  0
 22 25  1  0  0  0  0
 23 22  1  0  0  0  0
 24 22  1  0  0  0  0
 25 26  2  0  0  0  0
 25 30  1  0  0  0  0
 26 27  1  0  0  0  0
 27 32  1  0  0  0  0
 27 28  2  0  0  0  0
 29 28  1  0  0  0  0
 29 33  1  0  0  0  0
 30 29  2  0  0  0  0
 31 26  1  0  0  0  0
 33 36  1  0  0  0  0
 33 35  1  0  0  0  0
 34 33  1  0  0  0  0
M  END
>  <minimizedAffinity>
-5.80327463

$$$$

 OpenBabel03252505593D

 36 38  0  0  0  0  0  0  0  0999 V2000
   36.3530   29.1950   38.7720 C   0  0  0  0  0  0  0  0  0  0  0  0
   37.1680   30.3200   38.8710 C   0  0  0  0  0  0  0  0  0  0  0  0
   37.6340   30.6840   40.1370 C   0  0  0  0  0  0  0  0  0  0  0  0
   37.2720   29.9290   41.1930 N   0  0  0  0  0  0  0  0  0  0  0  0
   36.4850   28.8500   41.0620 C   0  0  0  0  0  0  0  0  0  0  0  0
   36.0250   28.4820   39.8500 N   0  0  0  0  0  0  0  0  0  0  0  0
   35.9980   28.9210   37.7630 H   0  0  0  0  0  0  0  0  0  0  0  0
   40.4560   29.9070   40.1440 Cl  0  0  0  0  0  0  0  0  0  0  0  0
   39.7700   31.5320   40.2480 C   0  0  0  0  0  0  0  0  0  0  0  0
   38.4320   31.9040   40.2580 C   0  0  0  0  0  0  0  0  0  0  0  0
   38.1110   33.2380   40.3600 C   0  0  0  0  0  0  0  0  0  0  0  0
   37.0470   33.3820   40.3560 H   0  0  0  0  0  0  0  0  0  0  0  0
   39.1250   34.1610   40.4480 C   0  0  0  0  0  0  0  0  0  0  0  0
   38.8160   35.1880   40.5200 H   0  0  0  0  0  0  0  0  0  0  0  0
   40.4770   33.8400   40.4400 C   0  0  0  0  0  3  0  0  0  0  0  0
   40.7840   32.4950   40.3380 C   0  0  0  0  0  3  0  0  0  0  0  0
   37.4930   31.0900   37.6270 C   0  0  0  0  0  0  0  0  0  0  0  0
   36.7740   30.4690   36.6240 F   0  0  0  0  0  0  0  0  0  0  0  0
   38.8590   30.9260   37.4020 F   0  0  0  0  0  0  0  0  0  0  0  0
   37.1320   32.3970   37.7880 F   0  0  0  0  0  0  0  0  0  0  0  0
   36.0940   28.0530   42.1260 O   0  0  0  0  0  0  0  0  0  0  0  0
   37.0250   27.5570   43.0460 C   0  0  0  0  0  0  0  0  0  0  0  0
   36.5680   27.4780   44.0290 H   0  0  0  0  0  0  0  0  0  0  0  0
   37.8640   28.2970   43.1620 H   0  0  0  0  0  0  0  0  0  0  0  0
   37.5720   26.3000   42.5230 C   0  0  0  0  0  0  0  0  0  0  0  0
   36.9570   25.1180   42.1840 C   0  0  0  0  0  0  0  0  0  0  0  0
   37.7290   24.0870   41.7200 C   0  0  0  0  0  0  0  0  0  0  0  0
   39.0450   24.2030   41.5930 N   0  0  0  0  0  0  0  0  0  0  0  0
   39.6540   25.3650   41.9280 C   0  0  0  0  0  0  0  0  0  0  0  0
   38.9280   26.4290   42.3980 N   0  0  0  0  0  0  0  0  0  0  0  0
   35.8910   25.2200   42.3560 H   0  0  0  0  0  0  0  0  0  0  0  0
   37.1480   23.2080   41.4830 H   0  0  0  0  0  0  0  0  0  0  0  0
   41.1260   25.4020   41.7470 C   0  0  0  0  0  0  0  0  0  0  0  0
   41.5010   24.8740   40.5460 F   0  0  0  0  0  0  0  0  0  0  0  0
   41.7560   24.7100   42.7920 F   0  0  0  0  0  0  0  0  0  0  0  0
   41.6090   26.6980   41.7920 F   0  0  0  0  0  0  0  0  0  0  0  0
  1  2  2  0  0  0  0
  1  6  1  0  0  0  0
  2  3  1  0  0  0  0
  3 10  1  0  0  0  0
  3  4  2  0  0  0  0
  5  4  1  0  0  0  0
  5 21  1  0  0  0  0
  6  5  2  0  0  0  0
  7  1  1  0  0  0  0
  8  9  1  0  0  0  0
  9 10  2  0  0  0  0
  9 16  1  0  0  0  0
 10 11  1  0  0  0  0
 11 13  2  0  0  0  0
 12 11  1  0  0  0  0
 13 14  1  0  0  0  0
 15 13  1  0  0  0  0
 16 15  2  0  0  0  0
 17 20  1  0  0  0  0
 17  2  1  0  0  0  0
 18 17  1  0  0  0  0
 19 17  1  0  0  0  0
 21 22  1  0  0  0  0
 22 24  1  0  0  0  0
 22 23  1  0  0  0  0
 25 22  1  0  0  0  0
 26 31  1  0  0  0  0
 26 25  2  0  0  0  0
 27 26  1  0  0  0  0
 28 27  2  0  0  0  0
 28 29  1  0  0  0  0
 29 30  2  0  0  0  0
 30 25  1  0  0  0  0
 32 27  1  0  0  0  0
 33 36  1  0  0  0  0
 33 29  1  0  0  0  0
 33 35  1  0  0  0  0
 34 33  1  0  0  0  0
M  END
>  <minimizedAffinity>
-5.80245495

$$$$
