
 OpenBabel03242517183D

 33 35  0  0  0  0  0  0  0  0999 V2000
   36.6640   28.0130   38.4940 C   0  0  0  0  0  0  0  0  0  0  0  0
   35.4790   28.7290   38.8010 C   0  0  0  0  0  0  0  0  0  0  0  0
   35.2270   29.0530   40.1230 C   0  0  0  0  0  0  0  0  0  0  0  0
   36.1430   28.6570   41.0500 N   0  0  0  0  0  0  0  0  0  0  0  0
   37.2620   27.9800   40.7460 C   0  0  0  0  0  0  0  0  0  0  0  0
   37.5030   27.6680   39.4680 N   0  0  0  0  0  0  0  0  0  0  0  0
   36.8150   27.7850   37.4470 H   0  0  0  0  0  0  0  0  0  0  0  0
   34.3330   29.6010   40.4130 H   0  0  0  0  0  0  0  0  0  0  0  0
   36.9560   25.1230   41.7590 Cl  0  0  0  0  0  0  0  0  0  0  0  0
   38.1340   26.2940   42.2880 C   0  0  0  0  0  0  0  0  0  0  0  0
   38.2120   27.5790   41.7790 C   0  0  0  0  0  0  0  0  0  0  0  0
   39.1670   28.4700   42.2340 C   0  0  0  0  0  0  0  0  0  0  0  0
   39.2190   29.4760   41.8270 H   0  0  0  0  0  0  0  0  0  0  0  0
   40.0770   28.0860   43.2240 C   0  0  0  0  0  0  0  0  0  0  0  0
   40.8260   28.7820   43.5830 H   0  0  0  0  0  0  0  0  0  0  0  0
   39.9630   26.7990   43.7010 C   0  0  0  0  0  3  0  0  0  0  0  0
   39.0260   25.8820   43.2750 C   0  0  0  0  0  3  0  0  0  0  0  0
   34.5430   29.1180   37.7380 C   0  0  0  0  0  3  0  0  0  0  0  0
   33.2890   28.7580   37.6600 C   0  0  0  0  0  3  0  0  0  0  0  0
   32.3860   29.1820   36.5590 C   0  0  0  0  0  0  0  0  0  0  0  0
   32.9740   29.7040   35.7680 H   0  0  0  0  0  0  0  0  0  0  0  0
   31.9610   28.2710   36.0950 H   0  0  0  0  0  0  0  0  0  0  0  0
   31.5980   31.4570   35.1420 F   0  0  0  0  0  0  0  0  0  0  0  0
   30.9570   31.1890   36.3160 C   0  0  0  0  0  0  0  0  0  0  0  0
   31.3270   30.0510   37.0580 C   0  0  0  0  0  0  0  0  0  0  0  0
   30.6030   29.9110   38.2040 C   0  0  0  0  0  0  0  0  0  0  0  0
   29.6100   30.7110   38.6880 C   0  0  0  0  0  0  0  0  0  0  0  0
   29.3160   31.8160   37.8780 C   0  0  0  0  0  0  0  0  0  0  0  0
   29.9600   32.0880   36.6960 C   0  0  0  0  0  0  0  0  0  0  0  0
   30.8430   29.0420   38.8290 H   0  0  0  0  0  0  0  0  0  0  0  0
   29.0900   30.5140   39.6160 H   0  0  0  0  0  0  0  0  0  0  0  0
   28.5460   32.5030   38.1800 H   0  0  0  0  0  0  0  0  0  0  0  0
   29.7390   32.9290   36.0760 H   0  0  0  0  0  0  0  0  0  0  0  0
  1  2  2  0  0  0  0
  1  6  1  0  0  0  0
  2  3  1  0  0  0  0
  3  8  1  0  0  0  0
  3  4  2  0  0  0  0
  5  4  1  0  0  0  0
  5 11  1  0  0  0  0
  6  5  2  0  0  0  0
  7  1  1  0  0  0  0
  9 10  1  0  0  0  0
 10 17  1  0  0  0  0
 11 12  1  0  0  0  0
 11 10  2  0  0  0  0
 12 14  2  0  0  0  0
 13 12  1  0  0  0  0
 14 15  1  0  0  0  0
 14 16  1  0  0  0  0
 17 16  2  0  0  0  0
 18  2  1  0  0  0  0
 19 18  2  0  0  0  0
 20 25  1  0  0  0  0
 20 19  1  0  0  0  0
 21 20  1  0  0  0  0
 22 20  1  0  0  0  0
 23 24  1  0  0  0  0
 24 29  2  0  0  0  0
 24 25  1  0  0  0  0
 25 26  2  0  0  0  0
 26 27  1  0  0  0  0
 26 30  1  0  0  0  0
 27 31  1  0  0  0  0
 28 32  1  0  0  0  0
 28 27  2  0  0  0  0
 29 28  1  0  0  0  0
 33 29  1  0  0  0  0
M  END
>  <minimizedAffinity>
-6.02078009

$$$$

 OpenBabel03242517183D

 33 35  0  0  0  0  0  0  0  0999 V2000
   34.6130   29.1090   39.6100 C   0  0  0  0  0  0  0  0  0  0  0  0
   34.9380   28.7940   38.2660 C   0  0  0  0  0  0  0  0  0  0  0  0
   36.1550   28.1880   38.0050 C   0  0  0  0  0  0  0  0  0  0  0  0
   36.9670   27.9330   39.0690 N   0  0  0  0  0  0  0  0  0  0  0  0
   36.6480   28.2360   40.3370 C   0  0  0  0  0  0  0  0  0  0  0  0
   35.4710   28.8210   40.5860 N   0  0  0  0  0  0  0  0  0  0  0  0
   33.6510   29.5810   39.7600 H   0  0  0  0  0  0  0  0  0  0  0  0
   36.4530   27.9250   36.9930 H   0  0  0  0  0  0  0  0  0  0  0  0
   38.3820   30.5660   41.2550 Cl  0  0  0  0  0  0  0  0  0  0  0  0
   38.3750   28.9520   41.9120 C   0  0  0  0  0  0  0  0  0  0  0  0
   37.5560   27.9400   41.4410 C   0  0  0  0  0  0  0  0  0  0  0  0
   37.5900   26.6760   41.9980 C   0  0  0  0  0  0  0  0  0  0  0  0
   36.9420   25.8890   41.6200 H   0  0  0  0  0  0  0  0  0  0  0  0
   38.4600   26.3930   43.0550 C   0  0  0  0  0  0  0  0  0  0  0  0
   38.4900   25.4020   43.4940 H   0  0  0  0  0  0  0  0  0  0  0  0
   39.2570   27.4280   43.4920 C   0  0  0  0  0  3  0  0  0  0  0  0
   39.2530   28.7010   42.9640 C   0  0  0  0  0  3  0  0  0  0  0  0
   34.0020   29.1040   37.1770 C   0  0  0  0  0  3  0  0  0  0  0  0
   32.9060   28.4450   36.9060 C   0  0  0  0  0  3  0  0  0  0  0  0
   31.9940   28.8030   35.7900 C   0  0  0  0  0  0  0  0  0  0  0  0
   32.5710   28.8690   34.8380 H   0  0  0  0  0  0  0  0  0  0  0  0
   31.2650   27.9790   35.6670 H   0  0  0  0  0  0  0  0  0  0  0  0
   31.9350   30.8430   33.8830 F   0  0  0  0  0  0  0  0  0  0  0  0
   31.3030   31.0690   35.0710 C   0  0  0  0  0  0  0  0  0  0  0  0
   31.3110   30.0640   36.0560 C   0  0  0  0  0  0  0  0  0  0  0  0
   30.6430   30.4270   37.1860 C   0  0  0  0  0  0  0  0  0  0  0  0
   29.9980   31.5990   37.4560 C   0  0  0  0  0  0  0  0  0  0  0  0
   30.0470   32.5340   36.4130 C   0  0  0  0  0  0  0  0  0  0  0  0
   30.6820   32.3100   35.2160 C   0  0  0  0  0  0  0  0  0  0  0  0
   30.6120   29.6870   37.9950 H   0  0  0  0  0  0  0  0  0  0  0  0
   29.4920   31.7950   38.3910 H   0  0  0  0  0  0  0  0  0  0  0  0
   29.5660   33.4880   36.5350 H   0  0  0  0  0  0  0  0  0  0  0  0
   30.7220   33.0200   34.4190 H   0  0  0  0  0  0  0  0  0  0  0  0
  1  7  1  0  0  0  0
  1  6  1  0  0  0  0
  2  1  2  0  0  0  0
  3  2  1  0  0  0  0
  3  4  2  0  0  0  0
  4  5  1  0  0  0  0
  5  6  2  0  0  0  0
  5 11  1  0  0  0  0
  8  3  1  0  0  0  0
  9 10  1  0  0  0  0
 10 17  1  0  0  0  0
 11 10  2  0  0  0  0
 11 12  1  0  0  0  0
 12 14  2  0  0  0  0
 13 12  1  0  0  0  0
 14 16  1  0  0  0  0
 14 15  1  0  0  0  0
 17 16  2  0  0  0  0
 18  2  1  0  0  0  0
 19 18  2  0  0  0  0
 20 25  1  0  0  0  0
 20 19  1  0  0  0  0
 21 20  1  0  0  0  0
 22 20  1  0  0  0  0
 23 24  1  0  0  0  0
 24 29  2  0  0  0  0
 24 25  1  0  0  0  0
 25 26  2  0  0  0  0
 26 27  1  0  0  0  0
 26 30  1  0  0  0  0
 27 31  1  0  0  0  0
 28 32  1  0  0  0  0
 28 27  2  0  0  0  0
 29 28  1  0  0  0  0
 33 29  1  0  0  0  0
M  END
>  <minimizedAffinity>
-5.85651541

$$$$

 OpenBabel03242517183D

 33 35  0  0  0  0  0  0  0  0999 V2000
   35.0490   29.1600   40.3380 C   0  0  0  0  0  0  0  0  0  0  0  0
   35.0960   28.9770   38.9330 C   0  0  0  0  0  0  0  0  0  0  0  0
   36.3270   29.0260   38.3020 C   0  0  0  0  0  0  0  0  0  0  0  0
   37.4210   29.2510   39.0820 N   0  0  0  0  0  0  0  0  0  0  0  0
   37.3630   29.4220   40.4120 C   0  0  0  0  0  0  0  0  0  0  0  0
   36.1720   29.3740   41.0190 N   0  0  0  0  0  0  0  0  0  0  0  0
   34.0630   29.1120   40.7830 H   0  0  0  0  0  0  0  0  0  0  0  0
   36.4200   28.8920   37.2270 H   0  0  0  0  0  0  0  0  0  0  0  0
   38.1580   32.3470   40.7250 Cl  0  0  0  0  0  0  0  0  0  0  0  0
   38.9900   30.9650   41.3870 C   0  0  0  0  0  0  0  0  0  0  0  0
   38.5670   29.6600   41.2020 C   0  0  0  0  0  0  0  0  0  0  0  0
   39.2650   28.6000   41.7490 C   0  0  0  0  0  0  0  0  0  0  0  0
   38.9230   27.5790   41.5980 H   0  0  0  0  0  0  0  0  0  0  0  0
   40.4190   28.8270   42.5050 C   0  0  0  0  0  0  0  0  0  0  0  0
   40.9680   27.9980   42.9350 H   0  0  0  0  0  0  0  0  0  0  0  0
   40.8020   30.1400   42.6640 C   0  0  0  0  0  3  0  0  0  0  0  0
   40.1360   31.2250   42.1350 C   0  0  0  0  0  3  0  0  0  0  0  0
   33.8660   28.7390   38.1670 C   0  0  0  0  0  3  0  0  0  0  0  0
   33.6760   29.0590   36.9140 C   0  0  0  0  0  3  0  0  0  0  0  0
   32.4080   28.7940   36.1870 C   0  0  0  0  0  0  0  0  0  0  0  0
   32.6140   28.1780   35.2810 H   0  0  0  0  0  0  0  0  0  0  0  0
   31.7570   28.1870   36.8460 H   0  0  0  0  0  0  0  0  0  0  0  0
   30.8230   30.1940   38.0120 F   0  0  0  0  0  0  0  0  0  0  0  0
   30.9590   30.7180   36.7600 C   0  0  0  0  0  0  0  0  0  0  0  0
   31.7500   30.0400   35.8130 C   0  0  0  0  0  0  0  0  0  0  0  0
   31.7940   30.6770   34.6100 C   0  0  0  0  0  0  0  0  0  0  0  0
   31.1870   31.8410   34.2390 C   0  0  0  0  0  0  0  0  0  0  0  0
   30.4240   32.4390   35.2510 C   0  0  0  0  0  0  0  0  0  0  0  0
   30.2850   31.9140   36.5120 C   0  0  0  0  0  0  0  0  0  0  0  0
   32.3950   30.1990   33.8260 H   0  0  0  0  0  0  0  0  0  0  0  0
   31.2840   32.2710   33.2510 H   0  0  0  0  0  0  0  0  0  0  0  0
   29.9080   33.3610   35.0500 H   0  0  0  0  0  0  0  0  0  0  0  0
   29.7040   32.3660   37.2860 H   0  0  0  0  0  0  0  0  0  0  0  0
  1  7  1  0  0  0  0
  1  6  1  0  0  0  0
  2  1  2  0  0  0  0
  3  2  1  0  0  0  0
  3  4  2  0  0  0  0
  4  5  1  0  0  0  0
  5  6  2  0  0  0  0
  5 11  1  0  0  0  0
  8  3  1  0  0  0  0
  9 10  1  0  0  0  0
 10 17  1  0  0  0  0
 11 10  2  0  0  0  0
 11 12  1  0  0  0  0
 12 14  2  0  0  0  0
 13 12  1  0  0  0  0
 14 16  1  0  0  0  0
 14 15  1  0  0  0  0
 17 16  2  0  0  0  0
 18  2  1  0  0  0  0
 19 18  2  0  0  0  0
 20 22  1  0  0  0  0
 20 19  1  0  0  0  0
 21 20  1  0  0  0  0
 24 23  1  0  0  0  0
 25 20  1  0  0  0  0
 25 24  2  0  0  0  0
 26 25  1  0  0  0  0
 27 26  2  0  0  0  0
 27 28  1  0  0  0  0
 28 29  2  0  0  0  0
 29 24  1  0  0  0  0
 29 33  1  0  0  0  0
 30 26  1  0  0  0  0
 31 27  1  0  0  0  0
 32 28  1  0  0  0  0
M  END
>  <minimizedAffinity>
-5.72997427

$$$$

 OpenBabel03242517183D

 33 35  0  0  0  0  0  0  0  0999 V2000
   38.4130   29.5820   42.1640 C   0  0  0  0  0  0  0  0  0  0  0  0
   37.4730   28.9540   41.3080 C   0  0  0  0  0  0  0  0  0  0  0  0
   37.1160   29.5960   40.1350 C   0  0  0  0  0  0  0  0  0  0  0  0
   37.6980   30.8010   39.8800 N   0  0  0  0  0  0  0  0  0  0  0  0
   38.5870   31.3850   40.6980 C   0  0  0  0  0  0  0  0  0  0  0  0
   38.9300   30.7620   41.8320 N   0  0  0  0  0  0  0  0  0  0  0  0
   38.6590   29.0390   43.0680 H   0  0  0  0  0  0  0  0  0  0  0  0
   36.4000   29.1580   39.4430 H   0  0  0  0  0  0  0  0  0  0  0  0
   41.3310   31.2660   39.3790 Cl  0  0  0  0  0  0  0  0  0  0  0  0
   40.4280   32.7030   39.7750 C   0  0  0  0  0  0  0  0  0  0  0  0
   39.1820   32.6790   40.3770 C   0  0  0  0  0  0  0  0  0  0  0  0
   38.5080   33.8500   40.6700 C   0  0  0  0  0  0  0  0  0  0  0  0
   37.5290   33.8180   41.1420 H   0  0  0  0  0  0  0  0  0  0  0  0
   39.0770   35.0890   40.3630 C   0  0  0  0  0  0  0  0  0  0  0  0
   38.5510   36.0090   40.5910 H   0  0  0  0  0  0  0  0  0  0  0  0
   40.3170   35.0660   39.7650 C   0  0  0  0  0  3  0  0  0  0  0  0
   41.0220   33.9220   39.4570 C   0  0  0  0  0  3  0  0  0  0  0  0
   36.8940   27.6510   41.6610 C   0  0  0  0  0  3  0  0  0  0  0  0
   37.5570   26.6250   42.1260 C   0  0  0  0  0  3  0  0  0  0  0  0
   36.9190   25.3280   42.4660 C   0  0  0  0  0  0  0  0  0  0  0  0
   37.3890   24.9050   43.3850 H   0  0  0  0  0  0  0  0  0  0  0  0
   35.8570   25.5220   42.7090 H   0  0  0  0  0  0  0  0  0  0  0  0
   39.2300   23.8010   42.1030 F   0  0  0  0  0  0  0  0  0  0  0  0
   38.2130   23.6320   41.2100 C   0  0  0  0  0  0  0  0  0  0  0  0
   37.0330   24.3840   41.3610 C   0  0  0  0  0  0  0  0  0  0  0  0
   36.1070   24.1100   40.3990 C   0  0  0  0  0  0  0  0  0  0  0  0
   36.1920   23.2330   39.3580 C   0  0  0  0  0  0  0  0  0  0  0  0
   37.4050   22.5340   39.2950 C   0  0  0  0  0  0  0  0  0  0  0  0
   38.4310   22.7020   40.1930 C   0  0  0  0  0  0  0  0  0  0  0  0
   35.1620   24.6650   40.4600 H   0  0  0  0  0  0  0  0  0  0  0  0
   35.3970   23.0850   38.6410 H   0  0  0  0  0  0  0  0  0  0  0  0
   37.5640   21.8190   38.5060 H   0  0  0  0  0  0  0  0  0  0  0  0
   39.3570   22.1710   40.1480 H   0  0  0  0  0  0  0  0  0  0  0  0
  1  7  1  0  0  0  0
  2 18  1  0  0  0  0
  2  1  2  0  0  0  0
  3  2  1  0  0  0  0
  4  3  2  0  0  0  0
  4  5  1  0  0  0  0
  5  6  2  0  0  0  0
  6  1  1  0  0  0  0
  8  3  1  0  0  0  0
  9 10  1  0  0  0  0
 10 11  1  0  0  0  0
 11 12  2  0  0  0  0
 11  5  1  0  0  0  0
 12 13  1  0  0  0  0
 14 15  1  0  0  0  0
 14 12  1  0  0  0  0
 16 14  2  0  0  0  0
 17 16  1  0  0  0  0
 17 10  2  0  0  0  0
 18 19  2  0  0  0  0
 19 20  1  0  0  0  0
 20 22  1  0  0  0  0
 20 21  1  0  0  0  0
 24 25  1  0  0  0  0
 24 23  1  0  0  0  0
 25 20  1  0  0  0  0
 26 30  1  0  0  0  0
 26 25  2  0  0  0  0
 27 26  1  0  0  0  0
 28 27  2  0  0  0  0
 28 29  1  0  0  0  0
 29 24  2  0  0  0  0
 31 27  1  0  0  0  0
 32 28  1  0  0  0  0
 33 29  1  0  0  0  0
M  END
>  <minimizedAffinity>
-5.70070314

$$$$

 OpenBabel03242517183D

 33 35  0  0  0  0  0  0  0  0999 V2000
   35.4930   28.8450   40.6380 C   0  0  0  0  0  0  0  0  0  0  0  0
   35.4300   28.5240   39.2590 C   0  0  0  0  0  0  0  0  0  0  0  0
   36.2620   27.5290   38.7740 C   0  0  0  0  0  0  0  0  0  0  0  0
   37.0940   26.9210   39.6650 N   0  0  0  0  0  0  0  0  0  0  0  0
   37.1430   27.2340   40.9690 C   0  0  0  0  0  0  0  0  0  0  0  0
   36.3380   28.1950   41.4350 N   0  0  0  0  0  0  0  0  0  0  0  0
   34.8220   29.6280   40.9670 H   0  0  0  0  0  0  0  0  0  0  0  0
   36.2540   27.2430   37.7250 H   0  0  0  0  0  0  0  0  0  0  0  0
   38.7900   29.0550   42.7730 Cl  0  0  0  0  0  0  0  0  0  0  0  0
   38.8360   27.3130   42.7320 C   0  0  0  0  0  0  0  0  0  0  0  0
   38.0540   26.5500   41.8810 C   0  0  0  0  0  0  0  0  0  0  0  0
   38.1300   25.1690   41.8890 C   0  0  0  0  0  0  0  0  0  0  0  0
   37.5110   24.5800   41.2170 H   0  0  0  0  0  0  0  0  0  0  0  0
   39.0030   24.5140   42.7630 C   0  0  0  0  0  0  0  0  0  0  0  0
   39.0640   23.4320   42.7720 H   0  0  0  0  0  0  0  0  0  0  0  0
   39.7600   25.3120   43.5910 C   0  0  0  0  0  3  0  0  0  0  0  0
   39.7150   26.6890   43.6140 C   0  0  0  0  0  3  0  0  0  0  0  0
   34.5020   29.2310   38.3670 C   0  0  0  0  0  3  0  0  0  0  0  0
   33.6370   28.6650   37.5660 C   0  0  0  0  0  3  0  0  0  0  0  0
   32.7200   29.4300   36.6840 C   0  0  0  0  0  0  0  0  0  0  0  0
   33.0850   30.4790   36.5800 H   0  0  0  0  0  0  0  0  0  0  0  0
   32.7580   28.9760   35.6750 H   0  0  0  0  0  0  0  0  0  0  0  0
   30.6460   28.1860   35.2850 F   0  0  0  0  0  0  0  0  0  0  0  0
   30.3400   28.7810   36.4740 C   0  0  0  0  0  0  0  0  0  0  0  0
   31.3590   29.4180   37.2070 C   0  0  0  0  0  0  0  0  0  0  0  0
   30.9090   29.9670   38.3700 C   0  0  0  0  0  0  0  0  0  0  0  0
   29.6420   29.9670   38.8780 C   0  0  0  0  0  0  0  0  0  0  0  0
   28.7010   29.3080   38.0750 C   0  0  0  0  0  0  0  0  0  0  0  0
   29.0070   28.7080   36.8780 C   0  0  0  0  0  0  0  0  0  0  0  0
   31.6550   30.4800   38.9890 H   0  0  0  0  0  0  0  0  0  0  0  0
   29.3810   30.4330   39.8180 H   0  0  0  0  0  0  0  0  0  0  0  0
   27.6760   29.2580   38.3950 H   0  0  0  0  0  0  0  0  0  0  0  0
   28.2930   28.2050   36.2630 H   0  0  0  0  0  0  0  0  0  0  0  0
  1  7  1  0  0  0  0
  1  6  1  0  0  0  0
  2  1  2  0  0  0  0
  3  2  1  0  0  0  0
  3  4  2  0  0  0  0
  4  5  1  0  0  0  0
  5  6  2  0  0  0  0
  5 11  1  0  0  0  0
  8  3  1  0  0  0  0
 10  9  1  0  0  0  0
 10 17  1  0  0  0  0
 11 12  1  0  0  0  0
 11 10  2  0  0  0  0
 12 14  2  0  0  0  0
 13 12  1  0  0  0  0
 14 15  1  0  0  0  0
 14 16  1  0  0  0  0
 16 17  2  0  0  0  0
 18  2  1  0  0  0  0
 19 18  2  0  0  0  0
 20 25  1  0  0  0  0
 20 19  1  0  0  0  0
 21 20  1  0  0  0  0
 22 20  1  0  0  0  0
 23 24  1  0  0  0  0
 24 29  2  0  0  0  0
 24 25  1  0  0  0  0
 25 26  2  0  0  0  0
 26 27  1  0  0  0  0
 26 30  1  0  0  0  0
 27 31  1  0  0  0  0
 28 32  1  0  0  0  0
 28 27  2  0  0  0  0
 29 28  1  0  0  0  0
 33 29  1  0  0  0  0
M  END
>  <minimizedAffinity>
-5.62719822

$$$$

 OpenBabel03242517183D

 33 35  0  0  0  0  0  0  0  0999 V2000
   35.4560   28.6000   39.3290 C   0  0  0  0  0  0  0  0  0  0  0  0
   34.9750   28.1380   38.0780 C   0  0  0  0  0  0  0  0  0  0  0  0
   35.3430   26.8720   37.6550 C   0  0  0  0  0  0  0  0  0  0  0  0
   36.1540   26.1490   38.4780 N   0  0  0  0  0  0  0  0  0  0  0  0
   36.6020   26.5990   39.6610 C   0  0  0  0  0  0  0  0  0  0  0  0
   36.2440   27.8220   40.0670 N   0  0  0  0  0  0  0  0  0  0  0  0
   35.1380   29.5950   39.6140 H   0  0  0  0  0  0  0  0  0  0  0  0
   35.0020   26.4690   36.7050 H   0  0  0  0  0  0  0  0  0  0  0  0
   39.5910   26.9970   39.2270 Cl  0  0  0  0  0  0  0  0  0  0  0  0
   38.8410   25.9100   40.3640 C   0  0  0  0  0  0  0  0  0  0  0  0
   37.4690   25.7830   40.5050 C   0  0  0  0  0  0  0  0  0  0  0  0
   36.9250   24.9040   41.4230 C   0  0  0  0  0  0  0  0  0  0  0  0
   35.8470   24.8130   41.5260 H   0  0  0  0  0  0  0  0  0  0  0  0
   37.7550   24.1220   42.2320 C   0  0  0  0  0  0  0  0  0  0  0  0
   37.3320   23.4320   42.9520 H   0  0  0  0  0  0  0  0  0  0  0  0
   39.1120   24.2810   42.0570 C   0  0  0  0  0  3  0  0  0  0  0  0
   39.6940   25.1440   41.1540 C   0  0  0  0  0  3  0  0  0  0  0  0
   34.1020   28.9840   37.2520 C   0  0  0  0  0  3  0  0  0  0  0  0
   32.9720   28.6110   36.7110 C   0  0  0  0  0  3  0  0  0  0  0  0
   32.1290   29.5100   35.8830 C   0  0  0  0  0  0  0  0  0  0  0  0
   32.7760   30.2410   35.3420 H   0  0  0  0  0  0  0  0  0  0  0  0
   31.6270   28.8940   35.1120 H   0  0  0  0  0  0  0  0  0  0  0  0
   31.2740   32.0870   35.2240 F   0  0  0  0  0  0  0  0  0  0  0  0
   30.7430   31.5100   36.3410 C   0  0  0  0  0  0  0  0  0  0  0  0
   31.1500   30.2130   36.7040 C   0  0  0  0  0  0  0  0  0  0  0  0
   30.5390   29.7660   37.8370 C   0  0  0  0  0  0  0  0  0  0  0  0
   29.6220   30.4050   38.6200 C   0  0  0  0  0  0  0  0  0  0  0  0
   29.2830   31.6900   38.1740 C   0  0  0  0  0  0  0  0  0  0  0  0
   29.8150   32.2730   37.0500 C   0  0  0  0  0  0  0  0  0  0  0  0
   30.8130   28.7590   38.1760 H   0  0  0  0  0  0  0  0  0  0  0  0
   29.1910   29.9630   39.5080 H   0  0  0  0  0  0  0  0  0  0  0  0
   28.5670   32.2700   38.7290 H   0  0  0  0  0  0  0  0  0  0  0  0
   29.5600   33.2520   36.7080 H   0  0  0  0  0  0  0  0  0  0  0  0
  1  7  1  0  0  0  0
  1  6  1  0  0  0  0
  2  1  2  0  0  0  0
  3  2  1  0  0  0  0
  3  4  2  0  0  0  0
  4  5  1  0  0  0  0
  5  6  2  0  0  0  0
  5 11  1  0  0  0  0
  8  3  1  0  0  0  0
  9 10  1  0  0  0  0
 10 11  2  0  0  0  0
 10 17  1  0  0  0  0
 11 12  1  0  0  0  0
 12 13  1  0  0  0  0
 12 14  2  0  0  0  0
 14 15  1  0  0  0  0
 16 14  1  0  0  0  0
 17 16  2  0  0  0  0
 18  2  1  0  0  0  0
 19 18  2  0  0  0  0
 20 25  1  0  0  0  0
 20 19  1  0  0  0  0
 21 20  1  0  0  0  0
 22 20  1  0  0  0  0
 23 24  1  0  0  0  0
 24 25  2  0  0  0  0
 24 29  1  0  0  0  0
 25 26  1  0  0  0  0
 26 30  1  0  0  0  0
 26 27  2  0  0  0  0
 27 31  1  0  0  0  0
 28 27  1  0  0  0  0
 28 32  1  0  0  0  0
 29 28  2  0  0  0  0
 33 29  1  0  0  0  0
M  END
>  <minimizedAffinity>
-5.54286289

$$$$

 OpenBabel03242517183D

 33 35  0  0  0  0  0  0  0  0999 V2000
   36.0180   27.2310   38.8140 C   0  0  0  0  0  0  0  0  0  0  0  0
   36.0830   27.9170   40.0540 C   0  0  0  0  0  0  0  0  0  0  0  0
   35.2420   28.9970   40.2560 C   0  0  0  0  0  0  0  0  0  0  0  0
   34.4000   29.3330   39.2390 N   0  0  0  0  0  0  0  0  0  0  0  0
   34.3480   28.6760   38.0700 C   0  0  0  0  0  0  0  0  0  0  0  0
   35.1620   27.6320   37.8770 N   0  0  0  0  0  0  0  0  0  0  0  0
   36.6950   26.3940   38.7060 H   0  0  0  0  0  0  0  0  0  0  0  0
   35.2510   29.5570   41.1880 H   0  0  0  0  0  0  0  0  0  0  0  0
   35.5800   28.9250   35.2950 Cl  0  0  0  0  0  0  0  0  0  0  0  0
   33.9150   29.2120   35.7240 C   0  0  0  0  0  0  0  0  0  0  0  0
   33.4260   29.0780   37.0120 C   0  0  0  0  0  0  0  0  0  0  0  0
   32.0950   29.3180   37.2980 C   0  0  0  0  0  0  0  0  0  0  0  0
   31.7220   29.2090   38.3140 H   0  0  0  0  0  0  0  0  0  0  0  0
   31.2120   29.7030   36.2850 C   0  0  0  0  0  0  0  0  0  0  0  0
   30.1690   29.8920   36.5070 H   0  0  0  0  0  0  0  0  0  0  0  0
   31.7410   29.8240   35.0200 C   0  0  0  0  0  3  0  0  0  0  0  0
   33.0610   29.5950   34.6930 C   0  0  0  0  0  3  0  0  0  0  0  0
   37.0220   27.4860   41.0990 C   0  0  0  0  0  3  0  0  0  0  0  0
   36.9410   27.7940   42.3670 C   0  0  0  0  0  3  0  0  0  0  0  0
   37.9210   27.3300   43.3820 C   0  0  0  0  0  0  0  0  0  0  0  0
   37.5280   27.5340   44.4060 H   0  0  0  0  0  0  0  0  0  0  0  0
   38.0160   26.2310   43.2880 H   0  0  0  0  0  0  0  0  0  0  0  0
   40.2920   26.0790   44.1690 F   0  0  0  0  0  0  0  0  0  0  0  0
   40.3870   27.3180   43.6060 C   0  0  0  0  0  0  0  0  0  0  0  0
   39.2130   27.9800   43.1970 C   0  0  0  0  0  0  0  0  0  0  0  0
   39.4600   29.2050   42.6540 C   0  0  0  0  0  0  0  0  0  0  0  0
   40.6580   29.8310   42.4720 C   0  0  0  0  0  0  0  0  0  0  0  0
   41.7650   29.0910   42.9110 C   0  0  0  0  0  0  0  0  0  0  0  0
   41.6730   27.8440   43.4780 C   0  0  0  0  0  0  0  0  0  0  0  0
   38.5850   29.7730   42.3140 H   0  0  0  0  0  0  0  0  0  0  0  0
   40.7520   30.8120   42.0270 H   0  0  0  0  0  0  0  0  0  0  0  0
   42.7520   29.5050   42.8070 H   0  0  0  0  0  0  0  0  0  0  0  0
   42.5130   27.2770   43.8140 H   0  0  0  0  0  0  0  0  0  0  0  0
  1  2  1  0  0  0  0
  2  3  2  0  0  0  0
  2 18  1  0  0  0  0
  3  8  1  0  0  0  0
  4  3  1  0  0  0  0
  5  4  2  0  0  0  0
  6  5  1  0  0  0  0
  6  1  2  0  0  0  0
  7  1  1  0  0  0  0
  9 10  1  0  0  0  0
 10 11  1  0  0  0  0
 11 12  2  0  0  0  0
 11  5  1  0  0  0  0
 12 13  1  0  0  0  0
 14 15  1  0  0  0  0
 14 12  1  0  0  0  0
 16 14  2  0  0  0  0
 17 16  1  0  0  0  0
 17 10  2  0  0  0  0
 18 19  2  0  0  0  0
 19 20  1  0  0  0  0
 20 21  1  0  0  0  0
 22 20  1  0  0  0  0
 24 23  1  0  0  0  0
 25 20  1  0  0  0  0
 25 24  2  0  0  0  0
 26 25  1  0  0  0  0
 27 26  2  0  0  0  0
 27 28  1  0  0  0  0
 28 29  2  0  0  0  0
 29 24  1  0  0  0  0
 29 33  1  0  0  0  0
 30 26  1  0  0  0  0
 31 27  1  0  0  0  0
 32 28  1  0  0  0  0
M  END
>  <minimizedAffinity>
-5.36296225

$$$$

 OpenBabel03242517183D

 33 35  0  0  0  0  0  0  0  0999 V2000
   35.7830   28.4860   37.7870 C   0  0  0  0  0  0  0  0  0  0  0  0
   34.4200   28.7230   38.0970 C   0  0  0  0  0  0  0  0  0  0  0  0
   34.0860   29.0510   39.4000 C   0  0  0  0  0  0  0  0  0  0  0  0
   35.1010   29.1230   40.3060 N   0  0  0  0  0  0  0  0  0  0  0  0
   36.3880   28.8960   39.9990 C   0  0  0  0  0  0  0  0  0  0  0  0
   36.7070   28.5800   38.7390 N   0  0  0  0  0  0  0  0  0  0  0  0
   35.9910   28.2340   36.7550 H   0  0  0  0  0  0  0  0  0  0  0  0
   33.0560   29.2440   39.6910 H   0  0  0  0  0  0  0  0  0  0  0  0
   37.0420   26.2900   41.4340 Cl  0  0  0  0  0  0  0  0  0  0  0  0
   37.7890   27.8420   41.7040 C   0  0  0  0  0  0  0  0  0  0  0  0
   37.4370   28.9870   41.0100 C   0  0  0  0  0  0  0  0  0  0  0  0
   38.0610   30.1940   41.2630 C   0  0  0  0  0  0  0  0  0  0  0  0
   37.7780   31.0870   40.7120 H   0  0  0  0  0  0  0  0  0  0  0  0
   39.0660   30.2810   42.2310 C   0  0  0  0  0  0  0  0  0  0  0  0
   39.5580   31.2260   42.4320 H   0  0  0  0  0  0  0  0  0  0  0  0
   39.3840   29.1180   42.8960 C   0  0  0  0  0  3  0  0  0  0  0  0
   38.7860   27.8960   42.6740 C   0  0  0  0  0  3  0  0  0  0  0  0
   33.3870   28.6250   37.0560 C   0  0  0  0  0  3  0  0  0  0  0  0
   33.2060   29.4770   36.0820 C   0  0  0  0  0  3  0  0  0  0  0  0
   32.1430   29.3280   35.0550 C   0  0  0  0  0  0  0  0  0  0  0  0
   32.6050   29.2460   34.0430 H   0  0  0  0  0  0  0  0  0  0  0  0
   31.6160   28.3730   35.2450 H   0  0  0  0  0  0  0  0  0  0  0  0
   30.7520   30.1370   32.7720 F   0  0  0  0  0  0  0  0  0  0  0  0
   30.5310   30.8300   33.9260 C   0  0  0  0  0  0  0  0  0  0  0  0
   31.2140   30.4510   35.0970 C   0  0  0  0  0  0  0  0  0  0  0  0
   30.8960   31.2290   36.1690 C   0  0  0  0  0  0  0  0  0  0  0  0
   30.0310   32.2830   36.2310 C   0  0  0  0  0  0  0  0  0  0  0  0
   29.4020   32.5810   35.0150 C   0  0  0  0  0  0  0  0  0  0  0  0
   29.6220   31.8850   33.8510 C   0  0  0  0  0  0  0  0  0  0  0  0
   31.3950   30.9860   37.1150 H   0  0  0  0  0  0  0  0  0  0  0  0
   29.8430   32.8430   37.1370 H   0  0  0  0  0  0  0  0  0  0  0  0
   28.7020   33.3960   34.9670 H   0  0  0  0  0  0  0  0  0  0  0  0
   29.1450   32.1090   32.9220 H   0  0  0  0  0  0  0  0  0  0  0  0
  1  2  2  0  0  0  0
  1  6  1  0  0  0  0
  2  3  1  0  0  0  0
  3  8  1  0  0  0  0
  3  4  2  0  0  0  0
  5  4  1  0  0  0  0
  5 11  1  0  0  0  0
  6  5  2  0  0  0  0
  7  1  1  0  0  0  0
  9 10  1  0  0  0  0
 10 17  1  0  0  0  0
 11 12  1  0  0  0  0
 11 10  2  0  0  0  0
 12 14  2  0  0  0  0
 13 12  1  0  0  0  0
 14 15  1  0  0  0  0
 14 16  1  0  0  0  0
 17 16  2  0  0  0  0
 18  2  1  0  0  0  0
 19 18  2  0  0  0  0
 20 25  1  0  0  0  0
 20 22  1  0  0  0  0
 20 19  1  0  0  0  0
 21 20  1  0  0  0  0
 23 24  1  0  0  0  0
 24 25  1  0  0  0  0
 25 26  2  0  0  0  0
 26 27  1  0  0  0  0
 26 30  1  0  0  0  0
 27 31  1  0  0  0  0
 28 27  2  0  0  0  0
 29 24  2  0  0  0  0
 29 28  1  0  0  0  0
 32 28  1  0  0  0  0
 33 29  1  0  0  0  0
M  END
>  <minimizedAffinity>
-5.35540199

$$$$

 OpenBabel03242517183D

 33 35  0  0  0  0  0  0  0  0999 V2000
   36.0730   29.5130   40.7210 C   0  0  0  0  0  0  0  0  0  0  0  0
   36.6890   28.2690   41.0100 C   0  0  0  0  0  0  0  0  0  0  0  0
   36.5630   27.2410   40.0920 C   0  0  0  0  0  0  0  0  0  0  0  0
   35.8460   27.4960   38.9610 N   0  0  0  0  0  0  0  0  0  0  0  0
   35.2680   28.6790   38.6990 C   0  0  0  0  0  0  0  0  0  0  0  0
   35.3920   29.6710   39.5880 N   0  0  0  0  0  0  0  0  0  0  0  0
   36.2020   30.2840   41.4690 H   0  0  0  0  0  0  0  0  0  0  0  0
   37.0150   26.2670   40.2640 H   0  0  0  0  0  0  0  0  0  0  0  0
   36.9460   29.0190   36.1790 Cl  0  0  0  0  0  0  0  0  0  0  0  0
   35.2070   29.0630   36.2850 C   0  0  0  0  0  0  0  0  0  0  0  0
   34.5110   28.8990   37.4710 C   0  0  0  0  0  0  0  0  0  0  0  0
   33.1300   28.9430   37.4990 C   0  0  0  0  0  0  0  0  0  0  0  0
   32.5940   28.8130   38.4360 H   0  0  0  0  0  0  0  0  0  0  0  0
   32.4050   29.1550   36.3230 C   0  0  0  0  0  0  0  0  0  0  0  0
   31.3220   29.1900   36.3420 H   0  0  0  0  0  0  0  0  0  0  0  0
   33.1370   29.3120   35.1670 C   0  0  0  0  0  3  0  0  0  0  0  0
   34.5130   29.2760   35.0960 C   0  0  0  0  0  3  0  0  0  0  0  0
   37.4450   28.0790   42.2550 C   0  0  0  0  0  3  0  0  0  0  0  0
   38.1390   27.0170   42.5690 C   0  0  0  0  0  3  0  0  0  0  0  0
   38.8860   26.8790   43.8450 C   0  0  0  0  0  0  0  0  0  0  0  0
   38.6770   27.7570   44.5010 H   0  0  0  0  0  0  0  0  0  0  0  0
   38.4990   25.9850   44.3720 H   0  0  0  0  0  0  0  0  0  0  0  0
   40.0670   24.3900   43.3790 F   0  0  0  0  0  0  0  0  0  0  0  0
   40.8780   25.4870   43.3710 C   0  0  0  0  0  0  0  0  0  0  0  0
   40.3190   26.7580   43.6020 C   0  0  0  0  0  0  0  0  0  0  0  0
   41.2440   27.7570   43.5640 C   0  0  0  0  0  0  0  0  0  0  0  0
   42.5870   27.6670   43.3390 C   0  0  0  0  0  0  0  0  0  0  0  0
   43.0460   26.3610   43.1200 C   0  0  0  0  0  0  0  0  0  0  0  0
   42.2320   25.2540   43.1280 C   0  0  0  0  0  0  0  0  0  0  0  0
   40.8730   28.7740   43.7370 H   0  0  0  0  0  0  0  0  0  0  0  0
   43.2450   28.5250   43.3290 H   0  0  0  0  0  0  0  0  0  0  0  0
   44.0920   26.1920   42.9340 H   0  0  0  0  0  0  0  0  0  0  0  0
   42.5770   24.2580   42.9620 H   0  0  0  0  0  0  0  0  0  0  0  0
  1  2  1  0  0  0  0
  1  7  1  0  0  0  0
  2 18  1  0  0  0  0
  3  8  1  0  0  0  0
  3  2  2  0  0  0  0
  4  3  1  0  0  0  0
  5  4  2  0  0  0  0
  5  6  1  0  0  0  0
  6  1  2  0  0  0  0
  9 10  1  0  0  0  0
 10 11  1  0  0  0  0
 11 12  2  0  0  0  0
 11  5  1  0  0  0  0
 12 13  1  0  0  0  0
 14 15  1  0  0  0  0
 14 12  1  0  0  0  0
 16 14  2  0  0  0  0
 17 16  1  0  0  0  0
 17 10  2  0  0  0  0
 18 19  2  0  0  0  0
 19 20  1  0  0  0  0
 20 22  1  0  0  0  0
 20 21  1  0  0  0  0
 24 23  1  0  0  0  0
 24 25  1  0  0  0  0
 25 20  1  0  0  0  0
 26 25  2  0  0  0  0
 26 30  1  0  0  0  0
 27 26  1  0  0  0  0
 28 29  1  0  0  0  0
 28 27  2  0  0  0  0
 29 24  2  0  0  0  0
 31 27  1  0  0  0  0
 32 28  1  0  0  0  0
 33 29  1  0  0  0  0
M  END
>  <minimizedAffinity>
-5.35187674

$$$$
