
 OpenBabel03252503033D

 33 34  0  0  0  0  0  0  0  0999 V2000
   39.2880   30.2500   40.4120 C   0  0  0  0  0  0  0  0  0  0  0  0
   38.3360   31.2220   40.6290 C   0  0  0  0  0  0  0  0  0  0  0  0
   37.0190   30.8720   40.9680 C   0  0  0  0  0  0  0  0  0  0  0  0
   36.7670   29.5300   41.0620 N   0  0  0  0  0  0  0  0  0  0  0  0
   37.7170   28.6220   40.8450 C   0  0  0  0  0  0  0  0  0  0  0  0
   38.9560   28.9450   40.5260 N   0  0  0  0  0  0  0  0  0  0  0  0
   40.2990   30.5380   40.1520 H   0  0  0  0  0  0  0  0  0  0  0  0
   36.2980   31.6460   41.1310 H   0  0  0  0  0  0  0  0  0  0  0  0
   37.9550   27.4950   43.5700 Cl  0  0  0  0  0  0  0  0  0  0  0  0
   37.4310   26.5510   42.1920 C   0  0  0  0  0  0  0  0  0  0  0  0
   37.3640   27.2070   40.9660 C   0  0  0  0  0  0  0  0  0  0  0  0
   36.9470   26.4690   39.8530 C   0  0  0  0  0  0  0  0  0  0  0  0
   36.8910   26.9670   38.8940 H   0  0  0  0  0  0  0  0  0  0  0  0
   36.6060   25.1190   39.9480 C   0  0  0  0  0  0  0  0  0  0  0  0
   36.2840   24.5540   39.0790 H   0  0  0  0  0  0  0  0  0  0  0  0
   36.6840   24.4900   41.1940 C   0  0  0  0  0  3  0  0  0  0  0  0
   37.0940   25.2120   42.2950 C   0  0  0  0  0  3  0  0  0  0  0  0
   38.7600   32.9670   40.4820 S   0  0  0  0  0  0  0  0  0  0  0  0
   40.5160   33.1210   40.1280 C   0  0  0  0  0  0  0  0  0  0  0  0
   41.0600   33.6110   40.9700 H   0  0  0  0  0  0  0  0  0  0  0  0
   40.9410   32.1140   39.9320 H   0  0  0  0  0  0  0  0  0  0  0  0
   40.6470   33.8870   38.9040 N   0  0  0  0  0  0  0  0  0  0  0  0
   41.1530   34.7780   39.0080 H   0  0  0  0  0  0  0  0  0  0  0  0
   41.2630   32.9580   37.6000 S   0  0  0  0  0  0  0  0  0  0  0  0
   40.1830   32.4240   36.7390 O   0  0  0  0  0  0  0  0  0  0  0  0
   39.2250   32.3430   36.9360 H   0  0  0  0  0  0  0  0  0  0  0  0
   42.1580   33.8820   36.8010 O   0  0  0  0  0  0  0  0  0  0  0  0
   42.9300   33.5700   36.2550 H   0  0  0  0  0  0  0  0  0  0  0  0
   42.2340   31.7310   38.1860 O   0  0  0  0  0  0  0  0  0  0  0  0
   41.9070   30.4930   37.6820 C   0  0  0  0  0  0  0  0  0  0  0  0
   42.5590   30.1570   36.8370 H   0  0  0  0  0  0  0  0  0  0  0  0
   40.8770   30.5880   37.2290 H   0  0  0  0  0  0  0  0  0  0  0  0
   41.8000   29.7120   38.4670 H   0  0  0  0  0  0  0  0  0  0  0  0
  1  6  2  0  0  0  0
  1  2  1  0  0  0  0
  2  3  2  0  0  0  0
  3  4  1  0  0  0  0
  3  8  1  0  0  0  0
  5 11  1  0  0  0  0
  5  4  2  0  0  0  0
  6  5  1  0  0  0  0
  7  1  1  0  0  0  0
 10 17  1  0  0  0  0
 10  9  1  0  0  0  0
 11 10  2  0  0  0  0
 12 14  2  0  0  0  0
 12 11  1  0  0  0  0
 13 12  1  0  0  0  0
 14 16  1  0  0  0  0
 15 14  1  0  0  0  0
 16 17  2  0  0  0  0
 18  2  1  0  0  0  0
 19 18  1  0  0  0  0
 19 20  1  0  0  0  0
 21 19  1  0  0  0  0
 22 23  1  0  0  0  0
 22 19  1  0  0  0  0
 24 29  1  0  0  0  0
 24 22  1  0  0  0  0
 25 26  1  0  0  0  0
 25 24  1  0  0  0  0
 27 24  1  0  0  0  0
 28 27  1  0  0  0  0
 30 29  1  0  0  0  0
 30 33  1  0  0  0  0
 31 30  1  0  0  0  0
 32 30  1  0  0  0  0
M  END
>  <minimizedAffinity>
-5.56428909

$$$$

 OpenBabel03252503033D

 33 34  0  0  0  0  0  0  0  0999 V2000
   40.2940   29.1160   38.6100 C   0  0  0  0  0  0  0  0  0  0  0  0
   41.6060   28.7670   38.8360 C   0  0  0  0  0  0  0  0  0  0  0  0
   41.9880   28.1580   40.0420 C   0  0  0  0  0  0  0  0  0  0  0  0
   40.9820   27.9460   40.9450 N   0  0  0  0  0  0  0  0  0  0  0  0
   39.7240   28.2980   40.6860 C   0  0  0  0  0  0  0  0  0  0  0  0
   39.3590   28.8710   39.5550 N   0  0  0  0  0  0  0  0  0  0  0  0
   40.0160   29.5850   37.6740 H   0  0  0  0  0  0  0  0  0  0  0  0
   43.0160   27.8970   40.1940 H   0  0  0  0  0  0  0  0  0  0  0  0
   39.4650   30.3830   42.7680 Cl  0  0  0  0  0  0  0  0  0  0  0  0
   38.4820   28.9360   42.7440 C   0  0  0  0  0  0  0  0  0  0  0  0
   38.7070   28.0360   41.7070 C   0  0  0  0  0  0  0  0  0  0  0  0
   37.9310   26.8730   41.6700 C   0  0  0  0  0  0  0  0  0  0  0  0
   38.0970   26.1650   40.8690 H   0  0  0  0  0  0  0  0  0  0  0  0
   36.9580   26.6050   42.6330 C   0  0  0  0  0  0  0  0  0  0  0  0
   36.3600   25.7000   42.5970 H   0  0  0  0  0  0  0  0  0  0  0  0
   36.7560   27.5290   43.6630 C   0  0  0  0  0  3  0  0  0  0  0  0
   37.5170   28.6770   43.7040 C   0  0  0  0  0  3  0  0  0  0  0  0
   42.8650   29.0860   37.5870 S   0  0  0  0  0  0  0  0  0  0  0  0
   42.3640   30.4940   36.5870 C   0  0  0  0  0  0  0  0  0  0  0  0
   42.6540   30.3580   35.5180 H   0  0  0  0  0  0  0  0  0  0  0  0
   41.2650   30.6300   36.6700 H   0  0  0  0  0  0  0  0  0  0  0  0
   42.9880   31.6730   37.1530 N   0  0  0  0  0  0  0  0  0  0  0  0
   43.8440   31.9800   36.6690 H   0  0  0  0  0  0  0  0  0  0  0  0
   41.8840   32.9700   37.3690 S   0  0  0  0  0  0  0  0  0  0  0  0
   42.3450   34.2080   36.7000 O   0  0  0  0  0  0  0  0  0  0  0  0
   43.2430   34.4320   36.3740 H   0  0  0  0  0  0  0  0  0  0  0  0
   40.5680   32.5150   36.7740 O   0  0  0  0  0  0  0  0  0  0  0  0
   39.6790   32.8490   37.0750 H   0  0  0  0  0  0  0  0  0  0  0  0
   41.6180   33.2230   38.9980 O   0  0  0  0  0  0  0  0  0  0  0  0
   41.8870   34.5120   39.3980 C   0  0  0  0  0  0  0  0  0  0  0  0
   40.9810   35.1620   39.4870 H   0  0  0  0  0  0  0  0  0  0  0  0
   42.5010   34.9850   38.5770 H   0  0  0  0  0  0  0  0  0  0  0  0
   42.5340   34.5660   40.3020 H   0  0  0  0  0  0  0  0  0  0  0  0
  1  2  2  0  0  0  0
  1  6  1  0  0  0  0
  2  3  1  0  0  0  0
  3  8  1  0  0  0  0
  3  4  2  0  0  0  0
  5  4  1  0  0  0  0
  5 11  1  0  0  0  0
  6  5  2  0  0  0  0
  7  1  1  0  0  0  0
 10  9  1  0  0  0  0
 10 17  1  0  0  0  0
 11 10  2  0  0  0  0
 12 11  1  0  0  0  0
 12 14  2  0  0  0  0
 13 12  1  0  0  0  0
 14 16  1  0  0  0  0
 15 14  1  0  0  0  0
 16 17  2  0  0  0  0
 18  2  1  0  0  0  0
 19 21  1  0  0  0  0
 19 22  1  0  0  0  0
 19 18  1  0  0  0  0
 20 19  1  0  0  0  0
 22 24  1  0  0  0  0
 23 22  1  0  0  0  0
 24 29  1  0  0  0  0
 25 24  1  0  0  0  0
 26 25  1  0  0  0  0
 27 28  1  0  0  0  0
 27 24  1  0  0  0  0
 29 30  1  0  0  0  0
 30 31  1  0  0  0  0
 30 33  1  0  0  0  0
 32 30  1  0  0  0  0
M  END
>  <minimizedAffinity>
-5.14437675

$$$$

 OpenBabel03252503033D

 33 34  0  0  0  0  0  0  0  0999 V2000
   39.8800   29.4810   40.7500 C   0  0  0  0  0  0  0  0  0  0  0  0
   39.0750   30.5600   41.0350 C   0  0  0  0  0  0  0  0  0  0  0  0
   37.7090   30.3830   41.3090 C   0  0  0  0  0  0  0  0  0  0  0  0
   37.2590   29.0910   41.2710 N   0  0  0  0  0  0  0  0  0  0  0  0
   38.0730   28.0740   40.9920 C   0  0  0  0  0  0  0  0  0  0  0  0
   39.3570   28.2350   40.7330 N   0  0  0  0  0  0  0  0  0  0  0  0
   40.9320   29.6360   40.5410 H   0  0  0  0  0  0  0  0  0  0  0  0
   37.1030   31.2390   41.5270 H   0  0  0  0  0  0  0  0  0  0  0  0
   36.9860   27.2030   38.3820 Cl  0  0  0  0  0  0  0  0  0  0  0  0
   36.9660   26.1870   39.8070 C   0  0  0  0  0  0  0  0  0  0  0  0
   37.5110   26.7220   40.9710 C   0  0  0  0  0  0  0  0  0  0  0  0
   37.5040   25.9260   42.1210 C   0  0  0  0  0  0  0  0  0  0  0  0
   37.9240   26.3300   43.0330 H   0  0  0  0  0  0  0  0  0  0  0  0
   36.9740   24.6360   42.1220 C   0  0  0  0  0  0  0  0  0  0  0  0
   36.9730   24.0250   43.0190 H   0  0  0  0  0  0  0  0  0  0  0  0
   36.4340   24.1270   40.9370 C   0  0  0  0  0  3  0  0  0  0  0  0
   36.4370   24.9080   39.8000 C   0  0  0  0  0  3  0  0  0  0  0  0
   39.7550   32.2280   41.0620 S   0  0  0  0  0  0  0  0  0  0  0  0
   39.5600   32.9730   39.4370 C   0  0  0  0  0  0  0  0  0  0  0  0
   39.1350   32.2470   38.7040 H   0  0  0  0  0  0  0  0  0  0  0  0
   38.9020   33.8630   39.5180 H   0  0  0  0  0  0  0  0  0  0  0  0
   40.8650   33.4400   39.0130 N   0  0  0  0  0  0  0  0  0  0  0  0
   41.6080   33.3360   39.7190 H   0  0  0  0  0  0  0  0  0  0  0  0
   41.3400   32.7990   37.4940 S   0  0  0  0  0  0  0  0  0  0  0  0
   40.1750   32.4090   36.6670 O   0  0  0  0  0  0  0  0  0  0  0  0
   39.2460   32.2620   36.9460 H   0  0  0  0  0  0  0  0  0  0  0  0
   42.1330   33.8860   36.7990 O   0  0  0  0  0  0  0  0  0  0  0  0
   42.8420   33.7090   36.1230 H   0  0  0  0  0  0  0  0  0  0  0  0
   42.3810   31.5120   37.7230 O   0  0  0  0  0  0  0  0  0  0  0  0
   42.9830   31.5150   38.9600 C   0  0  0  0  0  0  0  0  0  0  0  0
   42.5040   30.8320   39.7040 H   0  0  0  0  0  0  0  0  0  0  0  0
   42.8420   32.5500   39.3870 H   0  0  0  0  0  0  0  0  0  0  0  0
   44.0870   31.3760   38.9120 H   0  0  0  0  0  0  0  0  0  0  0  0
  1  2  1  0  0  0  0
  2 18  1  0  0  0  0
  2  3  2  0  0  0  0
  3  8  1  0  0  0  0
  4  3  1  0  0  0  0
  5  4  2  0  0  0  0
  6  1  2  0  0  0  0
  6  5  1  0  0  0  0
  7  1  1  0  0  0  0
  9 10  1  0  0  0  0
 10 11  1  0  0  0  0
 11  5  1  0  0  0  0
 11 12  2  0  0  0  0
 12 14  1  0  0  0  0
 12 13  1  0  0  0  0
 14 15  1  0  0  0  0
 16 14  2  0  0  0  0
 17 10  2  0  0  0  0
 17 16  1  0  0  0  0
 19 21  1  0  0  0  0
 19 18  1  0  0  0  0
 20 19  1  0  0  0  0
 22 19  1  0  0  0  0
 22 23  1  0  0  0  0
 24 29  1  0  0  0  0
 24 22  1  0  0  0  0
 25 26  1  0  0  0  0
 25 24  1  0  0  0  0
 27 24  1  0  0  0  0
 28 27  1  0  0  0  0
 29 30  1  0  0  0  0
 30 32  1  0  0  0  0
 30 31  1  0  0  0  0
 33 30  1  0  0  0  0
M  END
>  <minimizedAffinity>
-5.12326813

$$$$

 OpenBabel03252503033D

 33 34  0  0  0  0  0  0  0  0999 V2000
   39.0170   30.8240   40.5240 C   0  0  0  0  0  0  0  0  0  0  0  0
   37.9610   31.7080   40.5030 C   0  0  0  0  0  0  0  0  0  0  0  0
   36.6450   31.2560   40.6830 C   0  0  0  0  0  0  0  0  0  0  0  0
   36.5000   29.9080   40.8750 N   0  0  0  0  0  0  0  0  0  0  0  0
   37.5490   29.0880   40.8900 C   0  0  0  0  0  0  0  0  0  0  0  0
   38.7890   29.5070   40.7210 N   0  0  0  0  0  0  0  0  0  0  0  0
   40.0270   31.1900   40.3840 H   0  0  0  0  0  0  0  0  0  0  0  0
   35.8410   31.9630   40.6610 H   0  0  0  0  0  0  0  0  0  0  0  0
   37.5260   28.2220   43.7180 Cl  0  0  0  0  0  0  0  0  0  0  0  0
   37.2710   27.1190   42.3840 C   0  0  0  0  0  0  0  0  0  0  0  0
   37.3080   27.6590   41.1020 C   0  0  0  0  0  0  0  0  0  0  0  0
   37.1070   26.7930   40.0220 C   0  0  0  0  0  0  0  0  0  0  0  0
   37.1330   27.2000   39.0200 H   0  0  0  0  0  0  0  0  0  0  0  0
   36.8750   25.4290   40.2040 C   0  0  0  0  0  0  0  0  0  0  0  0
   36.7200   24.7640   39.3600 H   0  0  0  0  0  0  0  0  0  0  0  0
   36.8450   24.9170   41.5040 C   0  0  0  0  0  3  0  0  0  0  0  0
   37.0420   25.7660   42.5730 C   0  0  0  0  0  3  0  0  0  0  0  0
   38.2470   33.4680   40.2420 S   0  0  0  0  0  0  0  0  0  0  0  0
   39.9700   33.7280   39.8000 C   0  0  0  0  0  0  0  0  0  0  0  0
   40.4620   32.7730   39.4970 H   0  0  0  0  0  0  0  0  0  0  0  0
   40.0290   34.4670   38.9740 H   0  0  0  0  0  0  0  0  0  0  0  0
   40.6290   34.3150   40.9490 N   0  0  0  0  0  0  0  0  0  0  0  0
   40.1580   34.1430   41.8490 H   0  0  0  0  0  0  0  0  0  0  0  0
   42.3000   33.9280   41.0270 S   0  0  0  0  0  0  0  0  0  0  0  0
   43.0630   34.5360   39.9130 O   0  0  0  0  0  0  0  0  0  0  0  0
   42.7270   34.9080   39.0700 H   0  0  0  0  0  0  0  0  0  0  0  0
   42.8010   34.4600   42.3540 O   0  0  0  0  0  0  0  0  0  0  0  0
   43.5730   34.0730   42.8500 H   0  0  0  0  0  0  0  0  0  0  0  0
   42.4970   32.2700   41.0640 O   0  0  0  0  0  0  0  0  0  0  0  0
   42.8600   31.7940   42.3030 C   0  0  0  0  0  0  0  0  0  0  0  0
   42.0110   31.3750   42.8990 H   0  0  0  0  0  0  0  0  0  0  0  0
   43.2180   32.6840   42.9000 H   0  0  0  0  0  0  0  0  0  0  0  0
   43.7330   31.1040   42.2710 H   0  0  0  0  0  0  0  0  0  0  0  0
  1  6  1  0  0  0  0
  2  1  2  0  0  0  0
  2  3  1  0  0  0  0
  3  4  2  0  0  0  0
  4  5  1  0  0  0  0
  5 11  1  0  0  0  0
  6  5  2  0  0  0  0
  7  1  1  0  0  0  0
  8  3  1  0  0  0  0
 10 17  1  0  0  0  0
 10  9  1  0  0  0  0
 11 10  2  0  0  0  0
 12 14  2  0  0  0  0
 12 11  1  0  0  0  0
 13 12  1  0  0  0  0
 14 16  1  0  0  0  0
 15 14  1  0  0  0  0
 16 17  2  0  0  0  0
 18  2  1  0  0  0  0
 19 18  1  0  0  0  0
 19 22  1  0  0  0  0
 20 19  1  0  0  0  0
 21 19  1  0  0  0  0
 22 24  1  0  0  0  0
 22 23  1  0  0  0  0
 24 29  1  0  0  0  0
 24 27  1  0  0  0  0
 25 24  1  0  0  0  0
 26 25  1  0  0  0  0
 27 28  1  0  0  0  0
 29 30  1  0  0  0  0
 30 31  1  0  0  0  0
 30 32  1  0  0  0  0
 33 30  1  0  0  0  0
M  END
>  <minimizedAffinity>
-5.08861828

$$$$

 OpenBabel03252503033D

 33 34  0  0  0  0  0  0  0  0999 V2000
   39.4740   29.7140   40.6160 C   0  0  0  0  0  0  0  0  0  0  0  0
   38.6110   30.6880   41.0660 C   0  0  0  0  0  0  0  0  0  0  0  0
   37.3260   30.3510   41.5210 C   0  0  0  0  0  0  0  0  0  0  0  0
   37.0120   29.0190   41.4830 N   0  0  0  0  0  0  0  0  0  0  0  0
   37.8780   28.1090   41.0410 C   0  0  0  0  0  0  0  0  0  0  0  0
   39.0860   28.4200   40.6110 N   0  0  0  0  0  0  0  0  0  0  0  0
   40.4620   29.9910   40.2680 H   0  0  0  0  0  0  0  0  0  0  0  0
   36.6730   31.1270   41.8650 H   0  0  0  0  0  0  0  0  0  0  0  0
   38.5840   26.5760   43.4700 Cl  0  0  0  0  0  0  0  0  0  0  0  0
   37.7320   25.8700   42.1140 C   0  0  0  0  0  0  0  0  0  0  0  0
   37.4630   26.7050   41.0330 C   0  0  0  0  0  0  0  0  0  0  0  0
   36.7830   26.1590   39.9390 C   0  0  0  0  0  0  0  0  0  0  0  0
   36.5680   26.7980   39.0930 H   0  0  0  0  0  0  0  0  0  0  0  0
   36.3790   24.8240   39.9130 C   0  0  0  0  0  0  0  0  0  0  0  0
   35.8520   24.4090   39.0600 H   0  0  0  0  0  0  0  0  0  0  0  0
   36.6650   24.0110   41.0140 C   0  0  0  0  0  3  0  0  0  0  0  0
   37.3350   24.5430   42.0950 C   0  0  0  0  0  3  0  0  0  0  0  0
   39.1110   32.4190   41.0790 S   0  0  0  0  0  0  0  0  0  0  0  0
   38.5660   33.2030   39.5560 C   0  0  0  0  0  0  0  0  0  0  0  0
   37.4780   33.0300   39.3740 H   0  0  0  0  0  0  0  0  0  0  0  0
   38.7760   34.2920   39.6080 H   0  0  0  0  0  0  0  0  0  0  0  0
   39.3690   32.6630   38.4770 N   0  0  0  0  0  0  0  0  0  0  0  0
   40.2220   32.1730   38.7810 H   0  0  0  0  0  0  0  0  0  0  0  0
   38.4530   31.7160   37.3770 S   0  0  0  0  0  0  0  0  0  0  0  0
   38.2840   32.3910   36.0700 O   0  0  0  0  0  0  0  0  0  0  0  0
   38.4160   33.3370   35.8460 H   0  0  0  0  0  0  0  0  0  0  0  0
   39.2100   30.4160   37.1980 O   0  0  0  0  0  0  0  0  0  0  0  0
   38.7770   29.5510   36.9580 H   0  0  0  0  0  0  0  0  0  0  0  0
   36.9770   31.3270   38.0550 O   0  0  0  0  0  0  0  0  0  0  0  0
   36.6340   30.0050   37.8860 C   0  0  0  0  0  0  0  0  0  0  0  0
   36.8400   29.3620   38.7770 H   0  0  0  0  0  0  0  0  0  0  0  0
   37.3050   29.5960   37.0760 H   0  0  0  0  0  0  0  0  0  0  0  0
   35.6010   29.8650   37.4960 H   0  0  0  0  0  0  0  0  0  0  0  0
  1  2  1  0  0  0  0
  2 18  1  0  0  0  0
  2  3  2  0  0  0  0
  3  8  1  0  0  0  0
  4  3  1  0  0  0  0
  5  4  2  0  0  0  0
  6  1  2  0  0  0  0
  6  5  1  0  0  0  0
  7  1  1  0  0  0  0
 10  9  1  0  0  0  0
 11  5  1  0  0  0  0
 11 10  2  0  0  0  0
 12 11  1  0  0  0  0
 13 12  1  0  0  0  0
 14 12  2  0  0  0  0
 14 16  1  0  0  0  0
 15 14  1  0  0  0  0
 16 17  2  0  0  0  0
 17 10  1  0  0  0  0
 19 21  1  0  0  0  0
 19 18  1  0  0  0  0
 20 19  1  0  0  0  0
 22 23  1  0  0  0  0
 22 19  1  0  0  0  0
 24 29  1  0  0  0  0
 24 22  1  0  0  0  0
 25 24  1  0  0  0  0
 26 25  1  0  0  0  0
 27 24  1  0  0  0  0
 28 27  1  0  0  0  0
 30 29  1  0  0  0  0
 30 31  1  0  0  0  0
 32 30  1  0  0  0  0
 33 30  1  0  0  0  0
M  END
>  <minimizedAffinity>
-5.0735321

$$$$

 OpenBabel03252503033D

 33 34  0  0  0  0  0  0  0  0999 V2000
   39.5100   28.4300   40.8370 C   0  0  0  0  0  0  0  0  0  0  0  0
   38.8470   29.2750   41.6980 C   0  0  0  0  0  0  0  0  0  0  0  0
   37.5100   29.0330   42.0520 C   0  0  0  0  0  0  0  0  0  0  0  0
   36.9390   27.9230   41.4890 N   0  0  0  0  0  0  0  0  0  0  0  0
   37.6170   27.1310   40.6610 C   0  0  0  0  0  0  0  0  0  0  0  0
   38.8740   27.3540   40.3250 N   0  0  0  0  0  0  0  0  0  0  0  0
   40.5420   28.6330   40.5740 H   0  0  0  0  0  0  0  0  0  0  0  0
   37.0160   29.7050   42.7230 H   0  0  0  0  0  0  0  0  0  0  0  0
   37.7970   24.6680   42.2890 Cl  0  0  0  0  0  0  0  0  0  0  0  0
   36.9370   24.7410   40.7670 C   0  0  0  0  0  0  0  0  0  0  0  0
   36.9320   25.9640   40.1020 C   0  0  0  0  0  0  0  0  0  0  0  0
   36.2500   26.0420   38.8830 C   0  0  0  0  0  0  0  0  0  0  0  0
   36.2390   26.9870   38.3570 H   0  0  0  0  0  0  0  0  0  0  0  0
   35.5910   24.9410   38.3350 C   0  0  0  0  0  0  0  0  0  0  0  0
   35.0640   25.0110   37.3880 H   0  0  0  0  0  0  0  0  0  0  0  0
   35.6150   23.7270   39.0260 C   0  0  0  0  0  3  0  0  0  0  0  0
   36.2850   23.6440   40.2290 C   0  0  0  0  0  3  0  0  0  0  0  0
   39.6810   30.7150   42.3900 S   0  0  0  0  0  0  0  0  0  0  0  0
   39.8270   31.9810   41.1220 C   0  0  0  0  0  0  0  0  0  0  0  0
   40.8060   32.5120   41.1880 H   0  0  0  0  0  0  0  0  0  0  0  0
   39.7110   31.5140   40.1220 H   0  0  0  0  0  0  0  0  0  0  0  0
   38.7200   32.9000   41.2970 N   0  0  0  0  0  0  0  0  0  0  0  0
   38.9850   33.8960   41.2980 H   0  0  0  0  0  0  0  0  0  0  0  0
   37.4230   32.5930   40.2160 S   0  0  0  0  0  0  0  0  0  0  0  0
   36.2870   31.9210   40.8890 O   0  0  0  0  0  0  0  0  0  0  0  0
   36.2740   31.4540   41.7510 H   0  0  0  0  0  0  0  0  0  0  0  0
   36.9880   33.9390   39.6760 O   0  0  0  0  0  0  0  0  0  0  0  0
   36.5590   34.0660   38.7850 H   0  0  0  0  0  0  0  0  0  0  0  0
   37.9690   31.7010   38.9130 O   0  0  0  0  0  0  0  0  0  0  0  0
   37.1780   30.6110   38.6320 C   0  0  0  0  0  0  0  0  0  0  0  0
   36.4550   30.7740   37.7950 H   0  0  0  0  0  0  0  0  0  0  0  0
   36.5310   30.4360   39.5410 H   0  0  0  0  0  0  0  0  0  0  0  0
   37.7560   29.6680   38.5100 H   0  0  0  0  0  0  0  0  0  0  0  0
  1  2  1  0  0  0  0
  2  3  2  0  0  0  0
  2 18  1  0  0  0  0
  3  8  1  0  0  0  0
  4  3  1  0  0  0  0
  5  4  2  0  0  0  0
  6  5  1  0  0  0  0
  6  1  2  0  0  0  0
  7  1  1  0  0  0  0
 10  9  1  0  0  0  0
 11  5  1  0  0  0  0
 11 10  2  0  0  0  0
 12 11  1  0  0  0  0
 13 12  1  0  0  0  0
 14 12  2  0  0  0  0
 14 16  1  0  0  0  0
 15 14  1  0  0  0  0
 16 17  2  0  0  0  0
 17 10  1  0  0  0  0
 19 20  1  0  0  0  0
 19 22  1  0  0  0  0
 19 18  1  0  0  0  0
 21 19  1  0  0  0  0
 22 23  1  0  0  0  0
 24 25  1  0  0  0  0
 24 22  1  0  0  0  0
 25 26  1  0  0  0  0
 27 24  1  0  0  0  0
 28 27  1  0  0  0  0
 29 24  1  0  0  0  0
 30 29  1  0  0  0  0
 30 32  1  0  0  0  0
 31 30  1  0  0  0  0
 33 30  1  0  0  0  0
M  END
>  <minimizedAffinity>
-4.92386866

$$$$

 OpenBabel03252503033D

 33 34  0  0  0  0  0  0  0  0999 V2000
   38.4080   31.4570   38.4760 C   0  0  0  0  0  0  0  0  0  0  0  0
   38.0570   32.0850   39.6500 C   0  0  0  0  0  0  0  0  0  0  0  0
   36.9370   31.6590   40.3830 C   0  0  0  0  0  0  0  0  0  0  0  0
   36.2470   30.6030   39.8530 N   0  0  0  0  0  0  0  0  0  0  0  0
   36.6220   30.0240   38.7140 C   0  0  0  0  0  0  0  0  0  0  0  0
   37.6720   30.4200   38.0210 N   0  0  0  0  0  0  0  0  0  0  0  0
   39.2750   31.7990   37.9230 H   0  0  0  0  0  0  0  0  0  0  0  0
   36.6840   32.1650   41.2930 H   0  0  0  0  0  0  0  0  0  0  0  0
   37.6260   27.3440   39.4630 Cl  0  0  0  0  0  0  0  0  0  0  0  0
   36.1880   27.5840   38.4940 C   0  0  0  0  0  0  0  0  0  0  0  0
   35.8270   28.8990   38.2150 C   0  0  0  0  0  0  0  0  0  0  0  0
   34.6810   29.1110   37.4420 C   0  0  0  0  0  0  0  0  0  0  0  0
   34.3900   30.1290   37.2170 H   0  0  0  0  0  0  0  0  0  0  0  0
   33.9120   28.0530   36.9570 C   0  0  0  0  0  0  0  0  0  0  0  0
   33.0240   28.2270   36.3580 H   0  0  0  0  0  0  0  0  0  0  0  0
   34.3010   26.7440   37.2550 C   0  0  0  0  0  3  0  0  0  0  0  0
   35.4300   26.5280   38.0170 C   0  0  0  0  0  3  0  0  0  0  0  0
   39.0260   33.4700   40.2730 S   0  0  0  0  0  0  0  0  0  0  0  0
   40.7530   33.2270   39.8370 C   0  0  0  0  0  0  0  0  0  0  0  0
   41.4270   33.4580   40.6960 H   0  0  0  0  0  0  0  0  0  0  0  0
   40.9040   32.1790   39.5030 H   0  0  0  0  0  0  0  0  0  0  0  0
   41.0400   34.0840   38.7030 N   0  0  0  0  0  0  0  0  0  0  0  0
   41.4210   35.0080   38.9500 H   0  0  0  0  0  0  0  0  0  0  0  0
   41.9910   33.3050   37.5050 S   0  0  0  0  0  0  0  0  0  0  0  0
   41.1810   32.4070   36.6510 O   0  0  0  0  0  0  0  0  0  0  0  0
   40.2840   32.0460   36.8170 H   0  0  0  0  0  0  0  0  0  0  0  0
   42.6080   34.4060   36.6670 O   0  0  0  0  0  0  0  0  0  0  0  0
   43.4710   34.3120   36.1790 H   0  0  0  0  0  0  0  0  0  0  0  0
   43.2520   32.4820   38.2280 O   0  0  0  0  0  0  0  0  0  0  0  0
   44.4790   32.7840   37.6840 C   0  0  0  0  0  0  0  0  0  0  0  0
   45.0680   33.5330   38.2710 H   0  0  0  0  0  0  0  0  0  0  0  0
   44.2800   33.2880   36.6930 H   0  0  0  0  0  0  0  0  0  0  0  0
   45.0810   31.8840   37.4290 H   0  0  0  0  0  0  0  0  0  0  0  0
  1  2  1  0  0  0  0
  2 18  1  0  0  0  0
  2  3  2  0  0  0  0
  3  8  1  0  0  0  0
  4  3  1  0  0  0  0
  5  4  2  0  0  0  0
  6  1  2  0  0  0  0
  6  5  1  0  0  0  0
  7  1  1  0  0  0  0
 10  9  1  0  0  0  0
 11 10  1  0  0  0  0
 11  5  1  0  0  0  0
 12 11  2  0  0  0  0
 13 12  1  0  0  0  0
 14 16  2  0  0  0  0
 14 12  1  0  0  0  0
 15 14  1  0  0  0  0
 16 17  1  0  0  0  0
 17 10  2  0  0  0  0
 19 18  1  0  0  0  0
 19 20  1  0  0  0  0
 21 19  1  0  0  0  0
 22 23  1  0  0  0  0
 22 19  1  0  0  0  0
 24 29  1  0  0  0  0
 24 22  1  0  0  0  0
 25 26  1  0  0  0  0
 25 24  1  0  0  0  0
 27 24  1  0  0  0  0
 28 27  1  0  0  0  0
 30 29  1  0  0  0  0
 30 31  1  0  0  0  0
 32 30  1  0  0  0  0
 33 30  1  0  0  0  0
M  END
>  <minimizedAffinity>
-4.90290689

$$$$

 OpenBabel03252503033D

 33 34  0  0  0  0  0  0  0  0999 V2000
   38.1500   30.3840   39.2880 C   0  0  0  0  0  0  0  0  0  0  0  0
   37.1640   31.2460   39.7120 C   0  0  0  0  0  0  0  0  0  0  0  0
   36.0890   30.7800   40.4840 C   0  0  0  0  0  0  0  0  0  0  0  0
   36.1000   29.4420   40.7730 N   0  0  0  0  0  0  0  0  0  0  0  0
   37.0750   28.6420   40.3430 C   0  0  0  0  0  0  0  0  0  0  0  0
   38.0880   29.0750   39.6170 N   0  0  0  0  0  0  0  0  0  0  0  0
   38.9730   30.7600   38.6920 H   0  0  0  0  0  0  0  0  0  0  0  0
   35.3330   31.4700   40.8010 H   0  0  0  0  0  0  0  0  0  0  0  0
   36.1380   26.8500   38.1840 Cl  0  0  0  0  0  0  0  0  0  0  0  0
   36.5880   26.2710   39.7730 C   0  0  0  0  0  0  0  0  0  0  0  0
   37.0120   27.2230   40.6960 C   0  0  0  0  0  0  0  0  0  0  0  0
   37.3760   26.7790   41.9710 C   0  0  0  0  0  0  0  0  0  0  0  0
   37.7060   27.5090   42.6980 H   0  0  0  0  0  0  0  0  0  0  0  0
   37.3230   25.4310   42.3260 C   0  0  0  0  0  0  0  0  0  0  0  0
   37.6070   25.0950   43.3190 H   0  0  0  0  0  0  0  0  0  0  0  0
   36.8930   24.4990   41.3770 C   0  0  0  0  0  3  0  0  0  0  0  0
   36.5330   24.9310   40.1170 C   0  0  0  0  0  3  0  0  0  0  0  0
   37.2310   32.9950   39.2830 S   0  0  0  0  0  0  0  0  0  0  0  0
   38.3080   33.8480   40.4430 C   0  0  0  0  0  0  0  0  0  0  0  0
   37.8120   34.7530   40.8680 H   0  0  0  0  0  0  0  0  0  0  0  0
   38.5950   33.1510   41.2580 H   0  0  0  0  0  0  0  0  0  0  0  0
   39.5200   34.2000   39.7320 N   0  0  0  0  0  0  0  0  0  0  0  0
   39.6340   35.2080   39.5510 H   0  0  0  0  0  0  0  0  0  0  0  0
   40.9280   33.5210   40.4410 S   0  0  0  0  0  0  0  0  0  0  0  0
   41.7220   34.5320   41.1770 O   0  0  0  0  0  0  0  0  0  0  0  0
   41.6750   35.5100   41.1190 H   0  0  0  0  0  0  0  0  0  0  0  0
   40.4510   32.4410   41.3880 O   0  0  0  0  0  0  0  0  0  0  0  0
   40.9920   31.6410   41.6340 H   0  0  0  0  0  0  0  0  0  0  0  0
   41.8460   32.7660   39.2670 O   0  0  0  0  0  0  0  0  0  0  0  0
   41.2090   32.6830   38.0500 C   0  0  0  0  0  0  0  0  0  0  0  0
   41.5170   33.4690   37.3170 H   0  0  0  0  0  0  0  0  0  0  0  0
   40.1140   32.8840   38.2430 H   0  0  0  0  0  0  0  0  0  0  0  0
   41.2360   31.6610   37.6090 H   0  0  0  0  0  0  0  0  0  0  0  0
  1  6  2  0  0  0  0
  1  2  1  0  0  0  0
  2  3  2  0  0  0  0
  3  4  1  0  0  0  0
  3  8  1  0  0  0  0
  5 11  1  0  0  0  0
  5  4  2  0  0  0  0
  6  5  1  0  0  0  0
  7  1  1  0  0  0  0
  9 10  1  0  0  0  0
 10 17  2  0  0  0  0
 10 11  1  0  0  0  0
 11 12  2  0  0  0  0
 12 14  1  0  0  0  0
 12 13  1  0  0  0  0
 14 15  1  0  0  0  0
 16 14  2  0  0  0  0
 17 16  1  0  0  0  0
 18  2  1  0  0  0  0
 18 19  1  0  0  0  0
 19 20  1  0  0  0  0
 19 21  1  0  0  0  0
 22 24  1  0  0  0  0
 22 19  1  0  0  0  0
 23 22  1  0  0  0  0
 24 25  1  0  0  0  0
 24 27  1  0  0  0  0
 26 25  1  0  0  0  0
 27 28  1  0  0  0  0
 29 24  1  0  0  0  0
 30 32  1  0  0  0  0
 30 29  1  0  0  0  0
 31 30  1  0  0  0  0
 33 30  1  0  0  0  0
M  END
>  <minimizedAffinity>
-4.85364866

$$$$

 OpenBabel03252503033D

 33 34  0  0  0  0  0  0  0  0999 V2000
   36.9650   29.7770   41.4400 C   0  0  0  0  0  0  0  0  0  0  0  0
   38.1320   30.2580   40.8910 C   0  0  0  0  0  0  0  0  0  0  0  0
   39.0350   29.3900   40.2560 C   0  0  0  0  0  0  0  0  0  0  0  0
   38.6730   28.0710   40.2290 N   0  0  0  0  0  0  0  0  0  0  0  0
   37.5330   27.6470   40.7720 C   0  0  0  0  0  0  0  0  0  0  0  0
   36.6800   28.4580   41.3700 N   0  0  0  0  0  0  0  0  0  0  0  0
   36.2790   30.4600   41.9270 H   0  0  0  0  0  0  0  0  0  0  0  0
   39.9370   29.7890   39.8380 H   0  0  0  0  0  0  0  0  0  0  0  0
   35.9530   26.8240   38.4100 Cl  0  0  0  0  0  0  0  0  0  0  0  0
   36.4830   25.6970   39.6400 C   0  0  0  0  0  0  0  0  0  0  0  0
   37.2200   26.2190   40.7000 C   0  0  0  0  0  0  0  0  0  0  0  0
   37.6520   25.3340   41.6930 C   0  0  0  0  0  0  0  0  0  0  0  0
   38.2250   25.7270   42.5220 H   0  0  0  0  0  0  0  0  0  0  0  0
   37.3640   23.9690   41.6420 C   0  0  0  0  0  0  0  0  0  0  0  0
   37.7030   23.2900   42.4170 H   0  0  0  0  0  0  0  0  0  0  0  0
   36.6210   23.4770   40.5640 C   0  0  0  0  0  3  0  0  0  0  0  0
   36.1920   24.3440   39.5820 C   0  0  0  0  0  3  0  0  0  0  0  0
   38.5280   32.0130   40.9750 S   0  0  0  0  0  0  0  0  0  0  0  0
   37.7750   32.8570   39.5780 C   0  0  0  0  0  0  0  0  0  0  0  0
   36.8390   32.3460   39.2490 H   0  0  0  0  0  0  0  0  0  0  0  0
   37.5580   33.9090   39.8570 H   0  0  0  0  0  0  0  0  0  0  0  0
   38.7560   32.8900   38.5110 N   0  0  0  0  0  0  0  0  0  0  0  0
   39.7340   32.8090   38.8240 H   0  0  0  0  0  0  0  0  0  0  0  0
   38.4030   31.7830   37.2480 S   0  0  0  0  0  0  0  0  0  0  0  0
   38.2470   32.4620   35.9420 O   0  0  0  0  0  0  0  0  0  0  0  0
   38.0990   33.4140   35.7590 H   0  0  0  0  0  0  0  0  0  0  0  0
   39.5620   30.8100   37.1960 O   0  0  0  0  0  0  0  0  0  0  0  0
   39.4840   29.8720   36.8690 H   0  0  0  0  0  0  0  0  0  0  0  0
   37.0420   30.8950   37.6370 O   0  0  0  0  0  0  0  0  0  0  0  0
   36.8440   29.8150   36.8070 C   0  0  0  0  0  0  0  0  0  0  0  0
   37.1960   28.8420   37.2310 H   0  0  0  0  0  0  0  0  0  0  0  0
   37.4910   29.9820   35.8970 H   0  0  0  0  0  0  0  0  0  0  0  0
   35.8060   29.7500   36.4100 H   0  0  0  0  0  0  0  0  0  0  0  0
  1  7  1  0  0  0  0
  2 18  1  0  0  0  0
  2  1  2  0  0  0  0
  3  2  1  0  0  0  0
  4  3  2  0  0  0  0
  4  5  1  0  0  0  0
  5  6  2  0  0  0  0
  6  1  1  0  0  0  0
  8  3  1  0  0  0  0
  9 10  1  0  0  0  0
 10 11  1  0  0  0  0
 11  5  1  0  0  0  0
 11 12  2  0  0  0  0
 12 13  1  0  0  0  0
 14 12  1  0  0  0  0
 14 15  1  0  0  0  0
 16 14  2  0  0  0  0
 17 10  2  0  0  0  0
 17 16  1  0  0  0  0
 19 21  1  0  0  0  0
 19 18  1  0  0  0  0
 20 19  1  0  0  0  0
 22 23  1  0  0  0  0
 22 19  1  0  0  0  0
 24 29  1  0  0  0  0
 24 22  1  0  0  0  0
 25 24  1  0  0  0  0
 26 25  1  0  0  0  0
 27 24  1  0  0  0  0
 28 27  1  0  0  0  0
 30 31  1  0  0  0  0
 30 29  1  0  0  0  0
 32 30  1  0  0  0  0
 33 30  1  0  0  0  0
M  END
>  <minimizedAffinity>
-4.77152634

$$$$
