
 OpenBabel03252508293D

 39 42  0  0  1  0  0  0  0  0999 V2000
   42.5290   32.0980   39.9190 N   0  0  0  0  0  0  0  0  0  0  0  0
   43.1730   31.6210   41.1470 C   0  0  2  0  0  0  0  0  0  0  0  0
   42.2140   31.4100   42.2550 C   0  0  0  0  0  0  0  0  0  0  0  0
   40.8250   31.5130   41.8340 N   0  0  0  0  0  0  0  0  0  0  0  0
   40.5070   32.6330   41.0290 C   0  0  0  0  0  0  0  0  0  0  0  0
   41.7140   33.2480   40.3700 C   0  0  2  0  0  0  0  0  0  0  0  0
   43.2930   32.5360   39.3550 H   0  0  0  0  0  0  0  0  0  0  0  0
   43.7600   30.7020   40.8760 H   0  0  0  0  0  0  0  0  0  0  0  0
   42.2290   32.1110   43.0970 H   0  0  0  0  0  0  0  0  0  0  0  0
   42.3250   30.3440   42.5920 H   0  0  0  0  0  0  0  0  0  0  0  0
   40.2360   31.3850   42.6760 H   0  0  0  0  0  0  0  0  0  0  0  0
   39.8660   32.2580   40.1860 H   0  0  0  0  0  0  0  0  0  0  0  0
   39.9000   33.4200   41.5260 H   0  0  0  0  0  0  0  0  0  0  0  0
   42.2800   33.7720   41.1670 H   0  0  0  0  0  0  0  0  0  0  0  0
   39.1670   32.6440   38.7850 Cl  0  0  0  0  0  0  0  0  0  0  0  0
   40.2560   33.9880   38.5090 C   0  0  0  0  0  0  0  0  0  0  0  0
   41.3840   34.1700   39.2850 C   0  0  0  0  0  0  0  0  0  0  0  0
   42.2290   35.2430   39.0450 C   0  0  0  0  0  0  0  0  0  0  0  0
   43.1200   35.4060   39.6420 H   0  0  0  0  0  0  0  0  0  0  0  0
   41.9780   36.1460   38.0440 C   0  0  0  0  0  0  0  0  0  0  0  0
   42.6200   36.9960   37.8310 H   0  0  0  0  0  0  0  0  0  0  0  0
   40.8510   35.9980   37.2380 C   0  0  0  0  0  3  0  0  0  0  0  0
   40.0300   34.9050   37.5160 C   0  0  0  0  0  3  0  0  0  0  0  0
   46.0550   33.6500   41.9050 C   0  0  0  0  0  0  0  0  0  0  0  0
   44.9710   34.4320   42.3220 C   0  0  0  0  0  0  0  0  0  0  0  0
   43.7870   33.7570   42.0900 C   0  0  0  0  0  0  0  0  0  0  0  0
   44.1670   32.6030   41.5470 N   0  0  0  0  0  0  0  0  0  0  0  0
   45.4870   32.5380   41.4390 N   0  0  0  0  0  0  0  0  0  0  0  0
   45.1790   35.4180   42.7520 H   0  0  0  0  0  0  0  0  0  0  0  0
   42.9420   34.3530   42.4160 H   0  0  0  0  0  0  0  0  0  0  0  0
   49.3060   35.5430   41.9190 C   0  0  0  0  0  0  0  0  0  0  0  0
   47.9010   35.3170   41.7620 C   0  0  0  0  0  0  0  0  0  0  0  0
   47.4600   34.0420   42.0120 C   0  0  0  0  0  0  0  0  0  0  0  0
   48.3470   33.0800   42.3860 N   0  0  0  0  0  0  0  0  0  0  0  0
   49.6670   33.3210   42.5270 C   0  0  0  0  0  0  0  0  0  0  0  0
   50.1180   34.5600   42.2880 N   0  0  0  0  0  0  0  0  0  0  0  0
   49.6380   36.5540   41.7180 H   0  0  0  0  0  0  0  0  0  0  0  0
   47.1880   36.0670   41.4660 H   0  0  0  0  0  0  0  0  0  0  0  0
   50.2680   32.4720   42.8300 H   0  0  0  0  0  0  0  0  0  0  0  0
  1  6  1  0  0  0  0
  1  2  1  0  0  0  0
  2  8  1  6  0  0  0
  2 27  1  0  0  0  0
  2  3  1  0  0  0  0
  3 10  1  0  0  0  0
  3  9  1  0  0  0  0
  4  3  1  0  0  0  0
  4 11  1  0  0  0  0
  5 13  1  0  0  0  0
  5  4  1  0  0  0  0
  6  5  1  0  0  0  0
  6 14  1  1  0  0  0
  7  1  1  0  0  0  0
 12  5  1  0  0  0  0
 16 15  1  0  0  0  0
 16 17  1  0  0  0  0
 17  6  1  0  0  0  0
 18 17  2  0  0  0  0
 18 19  1  0  0  0  0
 20 18  1  0  0  0  0
 21 20  1  0  0  0  0
 22 23  1  0  0  0  0
 22 20  2  0  0  0  0
 23 16  2  0  0  0  0
 24 33  1  0  0  0  0
 24 25  1  0  0  0  0
 25 29  1  0  0  0  0
 26 25  2  0  0  0  0
 26 30  1  0  0  0  0
 27 26  1  0  0  0  0
 28 27  1  0  0  0  0
 28 24  2  0  0  0  0
 31 36  1  0  0  0  0
 32 31  2  0  0  0  0
 32 33  1  0  0  0  0
 33 34  2  0  0  0  0
 34 35  1  0  0  0  0
 35 39  1  0  0  0  0
 36 35  2  0  0  0  0
 37 31  1  0  0  0  0
 38 32  1  0  0  0  0
M  END
>  <minimizedAffinity>
-5.50000238

>  <minimizedRMSD>
2.64283991

$$$$
