
 OpenBabel03252502463D

 45 48  0  0  1  0  0  0  0  0999 V2000
   47.5730   35.4440   41.8760 C   0  0  0  0  0  0  0  0  0  0  0  0
   47.6960   36.0080   42.8240 H   0  0  0  0  0  0  0  0  0  0  0  0
   47.2410   36.2120   41.1390 H   0  0  0  0  0  0  0  0  0  0  0  0
   48.8690   34.7920   41.5170 C   0  0  1  0  0  0  0  0  0  0  0  0
   50.0020   34.9500   42.4950 C   0  0  0  0  0  0  0  0  0  0  0  0
   49.2880   33.6530   42.3250 C   0  0  2  0  0  0  0  0  0  0  0  0
   49.0880   34.8610   40.4490 H   0  0  0  0  0  0  0  0  0  0  0  0
   50.9880   35.1300   42.0470 H   0  0  0  0  0  0  0  0  0  0  0  0
   49.8000   35.5810   43.3890 H   0  0  0  0  0  0  0  0  0  0  0  0
   48.7890   33.2860   43.2140 H   0  0  0  0  0  0  0  0  0  0  0  0
   50.0700   32.6740   41.5730 N   0  0  0  0  0  0  0  0  0  0  0  0
   49.4520   32.2290   40.3780 C   0  0  0  0  0  0  0  0  0  0  0  0
   50.4100   31.2190   39.7680 C   0  0  0  0  0  0  0  0  0  0  0  0
   50.5900   30.0890   40.6100 N   0  0  0  0  0  0  0  0  0  0  0  0
   50.4200   30.3600   42.0250 C   0  0  0  0  0  0  0  0  0  0  0  0
   50.8530   31.7930   42.3280 C   0  0  0  0  0  0  0  0  0  0  0  0
   49.3160   33.0820   39.6890 H   0  0  0  0  0  0  0  0  0  0  0  0
   48.4860   31.7350   40.6470 H   0  0  0  0  0  0  0  0  0  0  0  0
   50.0730   30.9050   38.7530 H   0  0  0  0  0  0  0  0  0  0  0  0
   51.3840   31.7350   39.6410 H   0  0  0  0  0  0  0  0  0  0  0  0
   51.4340   29.5540   40.3910 H   0  0  0  0  0  0  0  0  0  0  0  0
   51.1640   29.7180   42.5510 H   0  0  0  0  0  0  0  0  0  0  0  0
   49.4070   30.2070   42.4000 H   0  0  0  0  0  0  0  0  0  0  0  0
   51.9600   31.8740   42.1610 H   0  0  0  0  0  0  0  0  0  0  0  0
   50.7040   31.9660   43.4110 H   0  0  0  0  0  0  0  0  0  0  0  0
   46.5740   34.3390   42.0690 C   0  0  0  0  0  0  0  0  0  0  0  0
   46.8920   33.3370   41.8340 H   0  0  0  0  0  0  0  0  0  0  0  0
   45.7330   34.5590   41.3470 H   0  0  0  0  0  0  0  0  0  0  0  0
   44.5400   35.7160   44.8920 C   0  0  0  0  0  0  0  0  0  0  0  0
   45.1240   35.5740   43.6160 C   0  0  0  0  0  0  0  0  0  0  0  0
   45.9400   34.5050   43.4180 C   0  0  0  0  0  0  0  0  0  0  0  0
   46.1600   33.6290   44.4290 N   0  0  0  0  0  0  0  0  0  0  0  0
   45.6150   33.7610   45.6190 C   0  0  0  0  0  0  0  0  0  0  0  0
   44.8050   34.8020   45.8590 N   0  0  0  0  0  0  0  0  0  0  0  0
   43.8980   36.5540   45.0560 H   0  0  0  0  0  0  0  0  0  0  0  0
   44.9420   36.2780   42.8170 H   0  0  0  0  0  0  0  0  0  0  0  0
   47.5400   31.5600   44.8000 Cl  0  0  0  0  0  0  0  0  0  0  0  0
   46.7810   31.7250   46.3610 C   0  0  0  0  0  0  0  0  0  0  0  0
   45.9170   32.7600   46.6440 C   0  0  0  0  0  0  0  0  0  0  0  0
   45.3220   32.8830   47.8750 C   0  0  0  0  0  0  0  0  0  0  0  0
   44.6350   33.7170   48.0830 H   0  0  0  0  0  0  0  0  0  0  0  0
   45.5730   31.9690   48.8730 C   0  0  0  0  0  0  0  0  0  0  0  0
   45.1150   32.0420   49.8570 H   0  0  0  0  0  0  0  0  0  0  0  0
   46.4350   30.9250   48.6090 C   0  0  0  0  0  0  0  0  0  0  0  0
   47.0120   30.8240   47.3800 C   0  0  0  0  0  0  0  0  0  0  0  0
  1 26  1  0  0  0  0
  1  2  1  0  0  0  0
  3  1  1  0  0  0  0
  4  7  1  6  0  0  0
  4  1  1  0  0  0  0
  4  6  1  0  0  0  0
  4  5  1  0  0  0  0
  5  9  1  0  0  0  0
  6  5  1  0  0  0  0
  6 10  1  1  0  0  0
  8  5  1  0  0  0  0
 11  6  1  0  0  0  0
 11 16  1  0  0  0  0
 12 18  1  0  0  0  0
 12 11  1  0  0  0  0
 13 12  1  0  0  0  0
 13 14  1  0  0  0  0
 14 15  1  0  0  0  0
 15 16  1  0  0  0  0
 15 23  1  0  0  0  0
 15 22  1  0  0  0  0
 16 25  1  0  0  0  0
 17 12  1  0  0  0  0
 19 13  1  0  0  0  0
 20 13  1  0  0  0  0
 21 14  1  0  0  0  0
 24 16  1  0  0  0  0
 26 31  1  0  0  0  0
 27 26  1  0  0  0  0
 28 26  1  0  0  0  0
 29 35  1  0  0  0  0
 29 34  1  0  0  0  0
 30 29  2  0  0  0  0
 31 30  1  0  0  0  0
 31 32  2  0  0  0  0
 32 33  1  0  0  0  0
 33 34  2  0  0  0  0
 33 39  1  0  0  0  0
 36 30  1  0  0  0  0
 37 38  1  0  0  0  0
 38 39  2  0  0  0  0
 38 45  1  0  0  0  0
 39 40  1  0  0  0  0
 40 41  1  0  0  0  0
 40 42  2  0  0  0  0
 42 43  1  0  0  0  0
 44 42  1  0  0  0  0
 45 44  2  0  0  0  0
M  END
>  <minimizedAffinity>
-6.11187458

>  <minimizedRMSD>
0.668923974

$$$$
