
 OpenBabel03252508323D

 32 34  0  0  1  0  0  0  0  0999 V2000
   45.9990   33.6620   43.2570 N   0  0  0  0  0  0  0  0  0  0  0  0
   46.6080   33.1470   42.0670 C   0  0  1  0  0  0  0  0  0  0  0  0
   46.4190   33.9810   40.8500 C   0  0  0  0  0  0  0  0  0  0  0  0
   45.1380   34.5680   40.7210 N   0  0  0  0  0  0  0  0  0  0  0  0
   44.5470   35.0740   41.8920 C   0  0  0  0  0  0  0  0  0  0  0  0
   45.4610   34.9770   43.1030 C   0  0  0  0  0  0  0  0  0  0  0  0
   46.2230   32.1180   41.9090 H   0  0  0  0  0  0  0  0  0  0  0  0
   47.2060   34.7900   40.8290 H   0  0  0  0  0  0  0  0  0  0  0  0
   46.6200   33.3580   39.9520 H   0  0  0  0  0  0  0  0  0  0  0  0
   44.9010   34.9430   39.8160 H   0  0  0  0  0  0  0  0  0  0  0  0
   44.3460   36.1690   41.7630 H   0  0  0  0  0  0  0  0  0  0  0  0
   43.5760   34.6250   42.1820 H   0  0  0  0  0  0  0  0  0  0  0  0
   44.9840   35.4320   43.9600 H   0  0  0  0  0  0  0  0  0  0  0  0
   46.3170   35.6680   42.8380 H   0  0  0  0  0  0  0  0  0  0  0  0
   46.2340   33.4980   45.6200 C   0  0  0  0  0  0  0  0  0  0  0  0
   45.9940   32.8460   44.4150 C   0  0  0  0  0  0  0  0  0  0  0  0
   45.7780   31.4810   44.4510 C   0  0  0  0  0  0  0  0  0  0  0  0
   45.8030   30.8190   45.6380 N   0  0  0  0  0  0  0  0  0  0  0  0
   46.0410   31.4820   46.8060 C   0  0  0  0  0  0  0  0  0  0  0  0
   46.2530   32.8090   46.7950 N   0  0  0  0  0  0  0  0  0  0  0  0
   46.4220   34.5480   45.7970 H   0  0  0  0  0  0  0  0  0  0  0  0
   45.5960   30.9940   43.5310 H   0  0  0  0  0  0  0  0  0  0  0  0
   46.0380   30.8540   47.6900 H   0  0  0  0  0  0  0  0  0  0  0  0
   48.1290   35.6910   41.9800 Cl  0  0  0  0  0  0  0  0  0  0  0  0
   48.9450   34.1370   42.1560 C   0  0  0  0  0  0  0  0  0  0  0  0
   48.1050   33.0170   42.1820 C   0  0  0  0  0  0  0  0  0  0  0  0
   48.7390   31.8050   42.3190 C   0  0  0  0  0  0  0  0  0  0  0  0
   48.1780   30.9080   42.3470 H   0  0  0  0  0  0  0  0  0  0  0  0
   50.1060   31.6730   42.4250 C   0  0  0  0  0  0  0  0  0  0  0  0
   50.6070   30.7290   42.5320 H   0  0  0  0  0  0  0  0  0  0  0  0
   50.8980   32.8010   42.3950 C   0  0  0  0  0  3  0  0  0  0  0  0
   50.3110   34.0390   42.2590 C   0  0  0  0  0  3  0  0  0  0  0  0
  1 16  1  0  0  0  0
  2  7  1  6  0  0  0
  2 26  1  0  0  0  0
  2  1  1  0  0  0  0
  3  2  1  0  0  0  0
  4  3  1  0  0  0  0
  4  5  1  0  0  0  0
  5 12  1  0  0  0  0
  5  6  1  0  0  0  0
  6  1  1  0  0  0  0
  6 13  1  0  0  0  0
  8  3  1  0  0  0  0
  9  3  1  0  0  0  0
 10  4  1  0  0  0  0
 11  5  1  0  0  0  0
 14  6  1  0  0  0  0
 15 21  1  0  0  0  0
 15 20  1  0  0  0  0
 16 17  1  0  0  0  0
 16 15  2  0  0  0  0
 17 18  2  0  0  0  0
 18 19  1  0  0  0  0
 19 23  1  0  0  0  0
 20 19  2  0  0  0  0
 22 17  1  0  0  0  0
 24 25  1  0  0  0  0
 25 26  2  0  0  0  0
 25 32  1  0  0  0  0
 26 27  1  0  0  0  0
 27 28  1  0  0  0  0
 27 29  2  0  0  0  0
 29 30  1  0  0  0  0
 31 29  1  0  0  0  0
 32 31  2  0  0  0  0
M  END
>  <minimizedAffinity>
-4.84161329

>  <minimizedRMSD>
2.66721511

$$$$
