
 OpenBabel03252508323D

 32 34  0  0  1  0  0  0  0  0999 V2000
   45.9990   33.6610   43.2580 N   0  0  0  0  0  0  0  0  0  0  0  0
   46.6090   33.1470   42.0670 C   0  0  1  0  0  0  0  0  0  0  0  0
   46.4200   33.9820   40.8500 C   0  0  0  0  0  0  0  0  0  0  0  0
   45.1400   34.5690   40.7220 N   0  0  0  0  0  0  0  0  0  0  0  0
   44.5490   35.0750   41.8930 C   0  0  0  0  0  0  0  0  0  0  0  0
   45.4630   34.9770   43.1040 C   0  0  0  0  0  0  0  0  0  0  0  0
   46.2230   32.1180   41.9090 H   0  0  0  0  0  0  0  0  0  0  0  0
   47.2080   34.7910   40.8310 H   0  0  0  0  0  0  0  0  0  0  0  0
   46.6200   33.3600   39.9520 H   0  0  0  0  0  0  0  0  0  0  0  0
   44.9020   34.9460   39.8180 H   0  0  0  0  0  0  0  0  0  0  0  0
   44.3480   36.1700   41.7650 H   0  0  0  0  0  0  0  0  0  0  0  0
   43.5770   34.6270   42.1830 H   0  0  0  0  0  0  0  0  0  0  0  0
   44.9850   35.4310   43.9620 H   0  0  0  0  0  0  0  0  0  0  0  0
   46.3180   35.6670   42.8400 H   0  0  0  0  0  0  0  0  0  0  0  0
   46.2330   33.4960   45.6200 C   0  0  0  0  0  0  0  0  0  0  0  0
   45.9950   32.8440   44.4150 C   0  0  0  0  0  0  0  0  0  0  0  0
   45.7790   31.4790   44.4490 C   0  0  0  0  0  0  0  0  0  0  0  0
   45.8040   30.8160   45.6360 N   0  0  0  0  0  0  0  0  0  0  0  0
   46.0400   31.4790   46.8040 C   0  0  0  0  0  0  0  0  0  0  0  0
   46.2520   32.8050   46.7950 N   0  0  0  0  0  0  0  0  0  0  0  0
   46.4200   34.5450   45.7980 H   0  0  0  0  0  0  0  0  0  0  0  0
   45.5980   30.9930   43.5290 H   0  0  0  0  0  0  0  0  0  0  0  0
   46.0380   30.8490   47.6890 H   0  0  0  0  0  0  0  0  0  0  0  0
   48.1300   35.6910   41.9810 Cl  0  0  0  0  0  0  0  0  0  0  0  0
   48.9460   34.1360   42.1560 C   0  0  0  0  0  0  0  0  0  0  0  0
   48.1060   33.0160   42.1820 C   0  0  0  0  0  0  0  0  0  0  0  0
   48.7400   31.8050   42.3190 C   0  0  0  0  0  0  0  0  0  0  0  0
   48.1780   30.9070   42.3470 H   0  0  0  0  0  0  0  0  0  0  0  0
   50.1070   31.6710   42.4250 C   0  0  0  0  0  0  0  0  0  0  0  0
   50.6070   30.7270   42.5320 H   0  0  0  0  0  0  0  0  0  0  0  0
   50.8980   32.7990   42.3950 C   0  0  0  0  0  3  0  0  0  0  0  0
   50.3120   34.0370   42.2590 C   0  0  0  0  0  3  0  0  0  0  0  0
  1 16  1  0  0  0  0
  2  7  1  6  0  0  0
  2 26  1  0  0  0  0
  2  1  1  0  0  0  0
  3  2  1  0  0  0  0
  4  3  1  0  0  0  0
  4  5  1  0  0  0  0
  5 12  1  0  0  0  0
  5  6  1  0  0  0  0
  6  1  1  0  0  0  0
  6 13  1  0  0  0  0
  8  3  1  0  0  0  0
  9  3  1  0  0  0  0
 10  4  1  0  0  0  0
 11  5  1  0  0  0  0
 14  6  1  0  0  0  0
 15 21  1  0  0  0  0
 15 20  1  0  0  0  0
 16 17  1  0  0  0  0
 16 15  2  0  0  0  0
 17 18  2  0  0  0  0
 18 19  1  0  0  0  0
 19 23  1  0  0  0  0
 20 19  2  0  0  0  0
 22 17  1  0  0  0  0
 24 25  1  0  0  0  0
 25 26  2  0  0  0  0
 25 32  1  0  0  0  0
 26 27  1  0  0  0  0
 27 28  1  0  0  0  0
 27 29  2  0  0  0  0
 29 30  1  0  0  0  0
 31 29  1  0  0  0  0
 32 31  2  0  0  0  0
M  END
>  <minimizedAffinity>
-4.84313774

>  <minimizedRMSD>
2.68044972

$$$$
