
 OpenBabel03252508293D

 39 42  0  0  1  0  0  0  0  0999 V2000
   42.5420   31.9880   39.9810 N   0  0  0  0  0  0  0  0  0  0  0  0
   43.1970   31.5030   41.2000 C   0  0  2  0  0  0  0  0  0  0  0  0
   42.2430   31.2620   42.3070 C   0  0  0  0  0  0  0  0  0  0  0  0
   40.8520   31.3500   41.8910 N   0  0  0  0  0  0  0  0  0  0  0  0
   40.5160   32.4770   41.1030 C   0  0  0  0  0  0  0  0  0  0  0  0
   41.7120   33.1190   40.4510 C   0  0  2  0  0  0  0  0  0  0  0  0
   43.2990   32.4460   39.4220 H   0  0  0  0  0  0  0  0  0  0  0  0
   43.7970   30.5970   40.9150 H   0  0  0  0  0  0  0  0  0  0  0  0
   42.2500   31.9500   43.1590 H   0  0  0  0  0  0  0  0  0  0  0  0
   42.3710   30.1930   42.6280 H   0  0  0  0  0  0  0  0  0  0  0  0
   40.2670   31.2010   42.7330 H   0  0  0  0  0  0  0  0  0  0  0  0
   39.8790   32.1050   40.2560 H   0  0  0  0  0  0  0  0  0  0  0  0
   39.8980   33.2480   41.6130 H   0  0  0  0  0  0  0  0  0  0  0  0
   42.2720   33.6400   41.2550 H   0  0  0  0  0  0  0  0  0  0  0  0
   39.2790   32.3990   38.7390 Cl  0  0  0  0  0  0  0  0  0  0  0  0
   40.2860   33.8210   38.5500 C   0  0  0  0  0  0  0  0  0  0  0  0
   41.3650   34.0520   39.3810 C   0  0  0  0  0  0  0  0  0  0  0  0
   42.1450   35.1860   39.2090 C   0  0  0  0  0  0  0  0  0  0  0  0
   42.9980   35.3890   39.8490 H   0  0  0  0  0  0  0  0  0  0  0  0
   41.8750   36.1020   38.2250 C   0  0  0  0  0  0  0  0  0  0  0  0
   42.4670   37.0000   38.0650 H   0  0  0  0  0  0  0  0  0  0  0  0
   40.7960   35.9070   37.3670 C   0  0  0  0  0  3  0  0  0  0  0  0
   40.0410   34.7530   37.5760 C   0  0  0  0  0  3  0  0  0  0  0  0
   46.0480   33.5750   41.9590 C   0  0  0  0  0  0  0  0  0  0  0  0
   44.9570   34.3090   42.4420 C   0  0  0  0  0  0  0  0  0  0  0  0
   43.7840   33.6130   42.2170 C   0  0  0  0  0  0  0  0  0  0  0  0
   44.1760   32.4940   41.6130 N   0  0  0  0  0  0  0  0  0  0  0  0
   45.4940   32.4700   41.4630 N   0  0  0  0  0  0  0  0  0  0  0  0
   45.1530   35.2810   42.9080 H   0  0  0  0  0  0  0  0  0  0  0  0
   42.9350   34.1720   42.5940 H   0  0  0  0  0  0  0  0  0  0  0  0
   49.2560   35.5390   41.8900 C   0  0  0  0  0  0  0  0  0  0  0  0
   47.8550   35.2780   41.7530 C   0  0  0  0  0  0  0  0  0  0  0  0
   47.4450   34.0000   42.0410 C   0  0  0  0  0  0  0  0  0  0  0  0
   48.3560   33.0680   42.4310 N   0  0  0  0  0  0  0  0  0  0  0  0
   49.6720   33.3420   42.5510 C   0  0  0  0  0  0  0  0  0  0  0  0
   50.0930   34.5840   42.2760 N   0  0  0  0  0  0  0  0  0  0  0  0
   49.5640   36.5520   41.6590 H   0  0  0  0  0  0  0  0  0  0  0  0
   47.1230   36.0040   41.4460 H   0  0  0  0  0  0  0  0  0  0  0  0
   50.2940   32.5140   42.8700 H   0  0  0  0  0  0  0  0  0  0  0  0
  1  6  1  0  0  0  0
  1  2  1  0  0  0  0
  2  8  1  6  0  0  0
  2 27  1  0  0  0  0
  2  3  1  0  0  0  0
  3 10  1  0  0  0  0
  3  9  1  0  0  0  0
  4  3  1  0  0  0  0
  4 11  1  0  0  0  0
  5 13  1  0  0  0  0
  5  4  1  0  0  0  0
  6  5  1  0  0  0  0
  6 14  1  1  0  0  0
  7  1  1  0  0  0  0
 12  5  1  0  0  0  0
 16 15  1  0  0  0  0
 16 17  1  0  0  0  0
 17  6  1  0  0  0  0
 18 17  2  0  0  0  0
 18 19  1  0  0  0  0
 20 18  1  0  0  0  0
 21 20  1  0  0  0  0
 22 23  1  0  0  0  0
 22 20  2  0  0  0  0
 23 16  2  0  0  0  0
 24 33  1  0  0  0  0
 24 25  1  0  0  0  0
 25 29  1  0  0  0  0
 26 25  2  0  0  0  0
 26 30  1  0  0  0  0
 27 26  1  0  0  0  0
 28 27  1  0  0  0  0
 28 24  2  0  0  0  0
 31 36  1  0  0  0  0
 32 31  2  0  0  0  0
 32 33  1  0  0  0  0
 33 34  2  0  0  0  0
 34 35  1  0  0  0  0
 35 39  1  0  0  0  0
 36 35  2  0  0  0  0
 37 31  1  0  0  0  0
 38 32  1  0  0  0  0
M  END
>  <minimizedAffinity>
-5.38974333

>  <minimizedRMSD>
2.80795932

$$$$
