
 OpenBabel03252502493D

 45 48  0  0  1  0  0  0  0  0999 V2000
   38.0390   29.3180   43.2050 C   0  0  0  0  0  0  0  0  0  0  0  0
   37.1100   29.7420   42.7690 H   0  0  0  0  0  0  0  0  0  0  0  0
   38.0550   29.7060   44.2500 H   0  0  0  0  0  0  0  0  0  0  0  0
   37.9870   27.8270   43.1220 C   0  0  1  0  0  0  0  0  0  0  0  0
   36.6500   27.1800   43.3610 C   0  0  0  0  0  0  0  0  0  0  0  0
   37.2560   27.2470   42.0020 C   0  0  2  0  0  0  0  0  0  0  0  0
   38.8780   27.3550   43.5430 H   0  0  0  0  0  0  0  0  0  0  0  0
   36.6740   26.2600   43.9590 H   0  0  0  0  0  0  0  0  0  0  0  0
   35.8110   27.8600   43.6290 H   0  0  0  0  0  0  0  0  0  0  0  0
   36.6760   27.7950   41.2690 H   0  0  0  0  0  0  0  0  0  0  0  0
   37.8020   25.9640   41.5640 N   0  0  0  0  0  0  0  0  0  0  0  0
   36.9080   24.8730   41.7020 C   0  0  0  0  0  0  0  0  0  0  0  0
   37.6670   23.6520   41.2100 C   0  0  0  0  0  0  0  0  0  0  0  0
   38.8070   23.3820   42.0140 N   0  0  0  0  0  0  0  0  0  0  0  0
   39.3870   24.5520   42.6470 C   0  0  0  0  0  0  0  0  0  0  0  0
   39.1750   25.7750   41.7560 C   0  0  0  0  0  0  0  0  0  0  0  0
   36.0160   25.0400   41.0710 H   0  0  0  0  0  0  0  0  0  0  0  0
   36.6550   24.7640   42.7840 H   0  0  0  0  0  0  0  0  0  0  0  0
   37.0030   22.7590   41.1570 H   0  0  0  0  0  0  0  0  0  0  0  0
   37.9970   23.8730   40.1740 H   0  0  0  0  0  0  0  0  0  0  0  0
   39.4930   22.7810   41.5500 H   0  0  0  0  0  0  0  0  0  0  0  0
   40.4890   24.3850   42.6470 H   0  0  0  0  0  0  0  0  0  0  0  0
   39.0030   24.7660   43.6450 H   0  0  0  0  0  0  0  0  0  0  0  0
   39.7760   25.6410   40.8180 H   0  0  0  0  0  0  0  0  0  0  0  0
   39.6220   26.6460   42.2710 H   0  0  0  0  0  0  0  0  0  0  0  0
   39.2240   29.7540   42.3930 C   0  0  0  0  0  0  0  0  0  0  0  0
   39.9390   28.9980   42.1130 H   0  0  0  0  0  0  0  0  0  0  0  0
   39.7970   30.4720   43.0520 H   0  0  0  0  0  0  0  0  0  0  0  0
   38.5870   32.7310   40.2170 C   0  0  0  0  0  0  0  0  0  0  0  0
   39.0580   31.9360   41.2820 C   0  0  0  0  0  0  0  0  0  0  0  0
   38.7360   30.6150   41.2670 C   0  0  0  0  0  0  0  0  0  0  0  0
   37.9900   30.1160   40.2500 N   0  0  0  0  0  0  0  0  0  0  0  0
   37.5500   30.8570   39.2570 C   0  0  0  0  0  0  0  0  0  0  0  0
   37.8440   32.1650   39.2330 N   0  0  0  0  0  0  0  0  0  0  0  0
   38.8350   33.7700   40.2220 H   0  0  0  0  0  0  0  0  0  0  0  0
   39.6530   32.3430   42.0870 H   0  0  0  0  0  0  0  0  0  0  0  0
   35.0240   29.4490   40.1830 Cl  0  0  0  0  0  0  0  0  0  0  0  0
   35.5880   29.5590   38.5360 C   0  0  0  0  0  0  0  0  0  0  0  0
   36.7500   30.2210   38.2080 C   0  0  0  0  0  0  0  0  0  0  0  0
   37.1890   30.3040   36.9100 C   0  0  0  0  0  0  0  0  0  0  0  0
   38.1200   30.8370   36.6670 H   0  0  0  0  0  0  0  0  0  0  0  0
   36.4730   29.7230   35.8870 C   0  0  0  0  0  0  0  0  0  0  0  0
   36.7970   29.7730   34.8500 H   0  0  0  0  0  0  0  0  0  0  0  0
   35.3060   29.0560   36.1950 C   0  0  0  0  0  3  0  0  0  0  0  0
   34.8930   28.9870   37.4910 C   0  0  0  0  0  3  0  0  0  0  0  0
  1  3  1  0  0  0  0
  2  1  1  0  0  0  0
  4  1  1  0  0  0  0
  4  5  1  0  0  0  0
  4  7  1  1  0  0  0
  5  9  1  0  0  0  0
  5  8  1  0  0  0  0
  6 10  1  6  0  0  0
  6  4  1  0  0  0  0
  6  5  1  0  0  0  0
 11 12  1  0  0  0  0
 11 16  1  0  0  0  0
 11  6  1  0  0  0  0
 12 18  1  0  0  0  0
 13 12  1  0  0  0  0
 13 14  1  0  0  0  0
 14 15  1  0  0  0  0
 15 23  1  0  0  0  0
 16 25  1  0  0  0  0
 16 15  1  0  0  0  0
 17 12  1  0  0  0  0
 19 13  1  0  0  0  0
 20 13  1  0  0  0  0
 21 14  1  0  0  0  0
 22 15  1  0  0  0  0
 24 16  1  0  0  0  0
 26 28  1  0  0  0  0
 26  1  1  0  0  0  0
 27 26  1  0  0  0  0
 29 35  1  0  0  0  0
 29 30  1  0  0  0  0
 30 36  1  0  0  0  0
 31 30  2  0  0  0  0
 31 26  1  0  0  0  0
 32 31  1  0  0  0  0
 33 32  2  0  0  0  0
 34 33  1  0  0  0  0
 34 29  2  0  0  0  0
 38 37  1  0  0  0  0
 39 38  1  0  0  0  0
 39 33  1  0  0  0  0
 40 39  2  0  0  0  0
 41 40  1  0  0  0  0
 42 44  2  0  0  0  0
 42 40  1  0  0  0  0
 43 42  1  0  0  0  0
 44 45  1  0  0  0  0
 45 38  2  0  0  0  0
M  END
>  <minimizedAffinity>
-5.94165182

$$$$

 OpenBabel03252502493D

 45 48  0  0  1  0  0  0  0  0999 V2000
   36.1050   26.9690   38.2510 C   0  0  0  0  0  0  0  0  0  0  0  0
   37.0480   26.9260   37.6680 H   0  0  0  0  0  0  0  0  0  0  0  0
   35.4850   26.1410   37.8350 H   0  0  0  0  0  0  0  0  0  0  0  0
   36.4150   26.8090   39.7050 C   0  0  1  0  0  0  0  0  0  0  0  0
   37.1740   25.5730   40.1050 C   0  0  0  0  0  0  0  0  0  0  0  0
   37.8130   26.9190   40.1040 C   0  0  2  0  0  0  0  0  0  0  0  0
   35.5980   27.1500   40.3450 H   0  0  0  0  0  0  0  0  0  0  0  0
   36.8370   25.0950   41.0330 H   0  0  0  0  0  0  0  0  0  0  0  0
   37.4040   24.8490   39.2920 H   0  0  0  0  0  0  0  0  0  0  0  0
   38.6590   27.0230   39.4340 H   0  0  0  0  0  0  0  0  0  0  0  0
   37.9850   27.4630   41.4490 N   0  0  0  0  0  0  0  0  0  0  0  0
   36.9700   27.0860   42.3640 C   0  0  0  0  0  0  0  0  0  0  0  0
   37.3270   27.7610   43.6780 C   0  0  0  0  0  0  0  0  0  0  0  0
   37.3050   29.1770   43.5660 N   0  0  0  0  0  0  0  0  0  0  0  0
   37.6040   29.6790   42.2380 C   0  0  0  0  0  0  0  0  0  0  0  0
   38.5730   28.7290   41.5360 C   0  0  0  0  0  0  0  0  0  0  0  0
   36.9730   25.9880   42.4920 H   0  0  0  0  0  0  0  0  0  0  0  0
   35.9940   27.4720   41.9810 H   0  0  0  0  0  0  0  0  0  0  0  0
   36.6570   27.4200   44.5010 H   0  0  0  0  0  0  0  0  0  0  0  0
   38.3540   27.4330   43.9390 H   0  0  0  0  0  0  0  0  0  0  0  0
   37.8240   29.6480   44.3110 H   0  0  0  0  0  0  0  0  0  0  0  0
   38.1830   30.6190   42.3900 H   0  0  0  0  0  0  0  0  0  0  0  0
   36.7310   29.8320   41.6020 H   0  0  0  0  0  0  0  0  0  0  0  0
   39.5580   28.7640   42.0740 H   0  0  0  0  0  0  0  0  0  0  0  0
   38.7720   29.1390   40.5280 H   0  0  0  0  0  0  0  0  0  0  0  0
   35.4710   28.3210   38.0930 C   0  0  0  0  0  0  0  0  0  0  0  0
   36.1030   29.1310   37.7670 H   0  0  0  0  0  0  0  0  0  0  0  0
   35.1230   28.6180   39.1270 H   0  0  0  0  0  0  0  0  0  0  0  0
   32.6400   26.7740   36.1980 C   0  0  0  0  0  0  0  0  0  0  0  0
   33.8380   26.9070   36.9290 C   0  0  0  0  0  0  0  0  0  0  0  0
   34.1980   28.1590   37.3190 C   0  0  0  0  0  0  0  0  0  0  0  0
   33.4090   29.2150   37.0010 N   0  0  0  0  0  0  0  0  0  0  0  0
   32.2910   29.0910   36.3190 C   0  0  0  0  0  0  0  0  0  0  0  0
   31.8990   27.8750   35.9140 N   0  0  0  0  0  0  0  0  0  0  0  0
   32.3510   25.7930   35.8870 H   0  0  0  0  0  0  0  0  0  0  0  0
   34.4600   26.0580   37.1770 H   0  0  0  0  0  0  0  0  0  0  0  0
   30.5140   30.1020   38.5650 Cl  0  0  0  0  0  0  0  0  0  0  0  0
   30.6770   30.8250   36.9870 C   0  0  0  0  0  0  0  0  0  0  0  0
   31.5110   30.2950   36.0270 C   0  0  0  0  0  0  0  0  0  0  0  0
   31.6340   30.8690   34.7860 C   0  0  0  0  0  0  0  0  0  0  0  0
   32.3050   30.4310   34.0310 H   0  0  0  0  0  0  0  0  0  0  0  0
   30.9230   32.0020   34.4600 C   0  0  0  0  0  0  0  0  0  0  0  0
   31.0020   32.4780   33.4850 H   0  0  0  0  0  0  0  0  0  0  0  0
   30.0830   32.5480   35.4080 C   0  0  0  0  0  3  0  0  0  0  0  0
   29.9780   31.9600   36.6320 C   0  0  0  0  0  3  0  0  0  0  0  0
  1  4  1  0  0  0  0
  2  1  1  0  0  0  0
  3  1  1  0  0  0  0
  4  6  1  0  0  0  0
  4  5  1  0  0  0  0
  4  7  1  1  0  0  0
  5  8  1  0  0  0  0
  6 10  1  6  0  0  0
  6  5  1  0  0  0  0
  6 11  1  0  0  0  0
  9  5  1  0  0  0  0
 11 16  1  0  0  0  0
 11 12  1  0  0  0  0
 12 17  1  0  0  0  0
 12 13  1  0  0  0  0
 13 20  1  0  0  0  0
 13 19  1  0  0  0  0
 14 13  1  0  0  0  0
 14 21  1  0  0  0  0
 15 22  1  0  0  0  0
 15 14  1  0  0  0  0
 16 24  1  0  0  0  0
 16 15  1  0  0  0  0
 18 12  1  0  0  0  0
 23 15  1  0  0  0  0
 25 16  1  0  0  0  0
 26  1  1  0  0  0  0
 26 28  1  0  0  0  0
 27 26  1  0  0  0  0
 29 30  1  0  0  0  0
 30 36  1  0  0  0  0
 30 31  2  0  0  0  0
 31 26  1  0  0  0  0
 32 31  1  0  0  0  0
 33 32  2  0  0  0  0
 34 29  2  0  0  0  0
 34 33  1  0  0  0  0
 35 29  1  0  0  0  0
 38 37  1  0  0  0  0
 39 33  1  0  0  0  0
 39 38  2  0  0  0  0
 40 39  1  0  0  0  0
 41 40  1  0  0  0  0
 42 40  2  0  0  0  0
 42 44  1  0  0  0  0
 43 42  1  0  0  0  0
 44 45  2  0  0  0  0
 45 38  1  0  0  0  0
M  END
>  <minimizedAffinity>
-5.79851437

$$$$

 OpenBabel03252502493D

 45 48  0  0  1  0  0  0  0  0999 V2000
   35.7940   29.6430   38.1910 C   0  0  0  0  0  0  0  0  0  0  0  0
   34.9490   30.3620   38.2190 H   0  0  0  0  0  0  0  0  0  0  0  0
   36.3060   29.8580   37.2240 H   0  0  0  0  0  0  0  0  0  0  0  0
   36.6640   29.8550   39.3870 C   0  0  1  0  0  0  0  0  0  0  0  0
   36.5500   31.1850   40.0820 C   0  0  0  0  0  0  0  0  0  0  0  0
   36.0030   29.9370   40.6850 C   0  0  2  0  0  0  0  0  0  0  0  0
   37.6550   29.4120   39.2650 H   0  0  0  0  0  0  0  0  0  0  0  0
   37.4990   31.6210   40.4190 H   0  0  0  0  0  0  0  0  0  0  0  0
   35.8610   31.9270   39.6210 H   0  0  0  0  0  0  0  0  0  0  0  0
   34.9320   29.9420   40.8540 H   0  0  0  0  0  0  0  0  0  0  0  0
   36.8270   29.4320   41.7810 N   0  0  0  0  0  0  0  0  0  0  0  0
   38.1410   29.9630   41.8160 C   0  0  0  0  0  0  0  0  0  0  0  0
   38.8210   29.3050   43.0040 C   0  0  0  0  0  0  0  0  0  0  0  0
   38.9270   27.8980   42.8370 N   0  0  0  0  0  0  0  0  0  0  0  0
   37.8870   27.3100   42.0140 C   0  0  0  0  0  0  0  0  0  0  0  0
   36.5950   28.1090   42.1730 C   0  0  0  0  0  0  0  0  0  0  0  0
   38.0960   31.0570   41.9670 H   0  0  0  0  0  0  0  0  0  0  0  0
   38.6570   29.6800   40.8660 H   0  0  0  0  0  0  0  0  0  0  0  0
   39.8220   29.7550   43.1960 H   0  0  0  0  0  0  0  0  0  0  0  0
   38.1930   29.5180   43.8940 H   0  0  0  0  0  0  0  0  0  0  0  0
   39.0890   27.3990   43.7160 H   0  0  0  0  0  0  0  0  0  0  0  0
   37.6670   26.3150   42.4650 H   0  0  0  0  0  0  0  0  0  0  0  0
   38.1330   27.2360   40.9540 H   0  0  0  0  0  0  0  0  0  0  0  0
   36.2230   27.9790   43.2240 H   0  0  0  0  0  0  0  0  0  0  0  0
   35.8290   27.6380   41.5280 H   0  0  0  0  0  0  0  0  0  0  0  0
   35.2690   28.2400   38.2830 C   0  0  0  0  0  0  0  0  0  0  0  0
   35.1660   27.8120   39.2660 H   0  0  0  0  0  0  0  0  0  0  0  0
   36.0340   27.5930   37.7590 H   0  0  0  0  0  0  0  0  0  0  0  0
   32.5980   26.8330   36.0700 C   0  0  0  0  0  0  0  0  0  0  0  0
   33.7430   26.9150   36.8900 C   0  0  0  0  0  0  0  0  0  0  0  0
   34.0530   28.1310   37.4120 C   0  0  0  0  0  0  0  0  0  0  0  0
   33.2680   29.2020   37.1350 N   0  0  0  0  0  0  0  0  0  0  0  0
   32.2010   29.1260   36.3710 C   0  0  0  0  0  0  0  0  0  0  0  0
   31.8590   27.9460   35.8340 N   0  0  0  0  0  0  0  0  0  0  0  0
   32.3490   25.8810   35.6550 H   0  0  0  0  0  0  0  0  0  0  0  0
   34.3610   26.0550   37.1050 H   0  0  0  0  0  0  0  0  0  0  0  0
   30.4500   30.0540   38.6720 Cl  0  0  0  0  0  0  0  0  0  0  0  0
   30.5980   30.8370   37.1210 C   0  0  0  0  0  0  0  0  0  0  0  0
   31.4210   30.3420   36.1320 C   0  0  0  0  0  0  0  0  0  0  0  0
   31.5330   30.9630   34.9130 C   0  0  0  0  0  0  0  0  0  0  0  0
   32.1950   30.5530   34.1350 H   0  0  0  0  0  0  0  0  0  0  0  0
   30.8210   32.1090   34.6380 C   0  0  0  0  0  0  0  0  0  0  0  0
   30.8910   32.6210   33.6820 H   0  0  0  0  0  0  0  0  0  0  0  0
   29.9920   32.6200   35.6160 C   0  0  0  0  0  3  0  0  0  0  0  0
   29.8980   31.9860   36.8160 C   0  0  0  0  0  3  0  0  0  0  0  0
  1  2  1  0  0  0  0
  1 26  1  0  0  0  0
  1  4  1  0  0  0  0
  3  1  1  0  0  0  0
  4  7  1  6  0  0  0
  4  5  1  0  0  0  0
  4  6  1  0  0  0  0
  5  8  1  0  0  0  0
  5  6  1  0  0  0  0
  6 10  1  1  0  0  0
  6 11  1  0  0  0  0
  9  5  1  0  0  0  0
 11 12  1  0  0  0  0
 11 16  1  0  0  0  0
 12 17  1  0  0  0  0
 12 13  1  0  0  0  0
 13 19  1  0  0  0  0
 13 20  1  0  0  0  0
 14 13  1  0  0  0  0
 14 21  1  0  0  0  0
 15 16  1  0  0  0  0
 15 22  1  0  0  0  0
 15 14  1  0  0  0  0
 16 24  1  0  0  0  0
 18 12  1  0  0  0  0
 23 15  1  0  0  0  0
 25 16  1  0  0  0  0
 26 27  1  0  0  0  0
 28 26  1  0  0  0  0
 29 30  1  0  0  0  0
 30 36  1  0  0  0  0
 30 31  2  0  0  0  0
 31 26  1  0  0  0  0
 32 31  1  0  0  0  0
 33 32  2  0  0  0  0
 34 29  2  0  0  0  0
 34 33  1  0  0  0  0
 35 29  1  0  0  0  0
 38 37  1  0  0  0  0
 39 33  1  0  0  0  0
 39 38  2  0  0  0  0
 40 39  1  0  0  0  0
 41 40  1  0  0  0  0
 42 40  2  0  0  0  0
 42 44  1  0  0  0  0
 43 42  1  0  0  0  0
 44 45  2  0  0  0  0
 45 38  1  0  0  0  0
M  END
>  <minimizedAffinity>
-5.76655436

$$$$

 OpenBabel03252502493D

 45 48  0  0  1  0  0  0  0  0999 V2000
   37.4130   29.3330   42.2620 C   0  0  0  0  0  0  0  0  0  0  0  0
   36.9570   30.0950   42.9260 H   0  0  0  0  0  0  0  0  0  0  0  0
   36.7370   28.4500   42.3510 H   0  0  0  0  0  0  0  0  0  0  0  0
   37.5040   29.8770   40.8730 C   0  0  1  0  0  0  0  0  0  0  0  0
   36.7810   31.1680   40.6010 C   0  0  0  0  0  0  0  0  0  0  0  0
   38.2660   31.1050   40.6870 C   0  0  2  0  0  0  0  0  0  0  0  0
   37.4710   29.0910   40.1140 H   0  0  0  0  0  0  0  0  0  0  0  0
   36.2600   31.2210   39.6360 H   0  0  0  0  0  0  0  0  0  0  0  0
   36.1930   31.5940   41.4450 H   0  0  0  0  0  0  0  0  0  0  0  0
   38.7050   31.7070   41.4760 H   0  0  0  0  0  0  0  0  0  0  0  0
   38.9120   31.1880   39.3790 N   0  0  0  0  0  0  0  0  0  0  0  0
   39.6720   32.3680   39.1780 C   0  0  0  0  0  0  0  0  0  0  0  0
   40.2360   32.2610   37.7710 C   0  0  0  0  0  0  0  0  0  0  0  0
   39.2080   32.2370   36.7910 N   0  0  0  0  0  0  0  0  0  0  0  0
   37.9510   31.6780   37.2540 C   0  0  0  0  0  0  0  0  0  0  0  0
   38.2230   30.6070   38.3080 C   0  0  0  0  0  0  0  0  0  0  0  0
   40.4980   32.4080   39.9120 H   0  0  0  0  0  0  0  0  0  0  0  0
   38.9840   33.2440   39.2550 H   0  0  0  0  0  0  0  0  0  0  0  0
   40.9590   33.0830   37.5630 H   0  0  0  0  0  0  0  0  0  0  0  0
   40.8050   31.3090   37.7230 H   0  0  0  0  0  0  0  0  0  0  0  0
   39.5180   31.8650   35.8910 H   0  0  0  0  0  0  0  0  0  0  0  0
   37.5250   31.1240   36.3850 H   0  0  0  0  0  0  0  0  0  0  0  0
   37.2500   32.4090   37.6590 H   0  0  0  0  0  0  0  0  0  0  0  0
   38.7440   29.7450   37.8140 H   0  0  0  0  0  0  0  0  0  0  0  0
   37.2450   30.2100   38.6410 H   0  0  0  0  0  0  0  0  0  0  0  0
   38.8190   29.0480   42.7050 C   0  0  0  0  0  0  0  0  0  0  0  0
   39.1800   29.5710   43.5760 H   0  0  0  0  0  0  0  0  0  0  0  0
   39.4820   29.3950   41.8580 H   0  0  0  0  0  0  0  0  0  0  0  0
   40.0150   25.6390   43.6800 C   0  0  0  0  0  0  0  0  0  0  0  0
   39.8390   27.0380   43.6760 C   0  0  0  0  0  0  0  0  0  0  0  0
   39.0160   27.5620   42.7290 C   0  0  0  0  0  0  0  0  0  0  0  0
   38.4050   26.7410   41.8390 N   0  0  0  0  0  0  0  0  0  0  0  0
   38.5700   25.4360   41.8420 C   0  0  0  0  0  0  0  0  0  0  0  0
   39.3730   24.8780   42.7590 N   0  0  0  0  0  0  0  0  0  0  0  0
   40.6610   25.2200   44.4210 H   0  0  0  0  0  0  0  0  0  0  0  0
   40.3300   27.6840   44.3900 H   0  0  0  0  0  0  0  0  0  0  0  0
   40.2070   24.5960   39.4260 Cl  0  0  0  0  0  0  0  0  0  0  0  0
   38.5300   24.2130   39.7080 C   0  0  0  0  0  0  0  0  0  0  0  0
   37.8660   24.6380   40.8370 C   0  0  0  0  0  0  0  0  0  0  0  0
   36.5450   24.3330   41.0520 C   0  0  0  0  0  0  0  0  0  0  0  0
   36.0310   24.6820   41.9610 H   0  0  0  0  0  0  0  0  0  0  0  0
   35.8370   23.5850   40.1390 C   0  0  0  0  0  0  0  0  0  0  0  0
   34.7900   23.3290   40.2840 H   0  0  0  0  0  0  0  0  0  0  0  0
   36.4840   23.1500   39.0010 C   0  0  0  0  0  3  0  0  0  0  0  0
   37.7950   23.4660   38.8100 C   0  0  0  0  0  3  0  0  0  0  0  0
  1  3  1  0  0  0  0
  1 26  1  0  0  0  0
  1  2  1  0  0  0  0
  4  7  1  6  0  0  0
  4  1  1  0  0  0  0
  5  6  1  0  0  0  0
  5  4  1  0  0  0  0
  5  9  1  0  0  0  0
  6  4  1  0  0  0  0
  6 10  1  1  0  0  0
  8  5  1  0  0  0  0
 11  6  1  0  0  0  0
 12 18  1  0  0  0  0
 12 11  1  0  0  0  0
 12 17  1  0  0  0  0
 13 12  1  0  0  0  0
 14 15  1  0  0  0  0
 14 13  1  0  0  0  0
 15 23  1  0  0  0  0
 15 16  1  0  0  0  0
 16 25  1  0  0  0  0
 16 11  1  0  0  0  0
 19 13  1  0  0  0  0
 20 13  1  0  0  0  0
 21 14  1  0  0  0  0
 22 15  1  0  0  0  0
 24 16  1  0  0  0  0
 26 31  1  0  0  0  0
 26 27  1  0  0  0  0
 28 26  1  0  0  0  0
 29 35  1  0  0  0  0
 30 29  1  0  0  0  0
 30 36  1  0  0  0  0
 31 30  2  0  0  0  0
 32 33  2  0  0  0  0
 32 31  1  0  0  0  0
 33 34  1  0  0  0  0
 34 29  2  0  0  0  0
 37 38  1  0  0  0  0
 38 39  1  0  0  0  0
 39 40  2  0  0  0  0
 39 33  1  0  0  0  0
 40 41  1  0  0  0  0
 42 43  1  0  0  0  0
 42 40  1  0  0  0  0
 44 42  2  0  0  0  0
 45 44  1  0  0  0  0
 45 38  2  0  0  0  0
M  END
>  <minimizedAffinity>
-5.70370817

$$$$

 OpenBabel03252502493D

 45 48  0  0  1  0  0  0  0  0999 V2000
   39.0330   28.6220   43.1010 C   0  0  0  0  0  0  0  0  0  0  0  0
   39.5440   27.9640   42.3690 H   0  0  0  0  0  0  0  0  0  0  0  0
   39.6230   28.5000   44.0400 H   0  0  0  0  0  0  0  0  0  0  0  0
   39.0190   30.0230   42.5820 C   0  0  1  0  0  0  0  0  0  0  0  0
   40.3320   30.7580   42.5750 C   0  0  0  0  0  0  0  0  0  0  0  0
   39.6990   30.2720   41.3170 C   0  0  2  0  0  0  0  0  0  0  0  0
   38.1180   30.5680   42.8760 H   0  0  0  0  0  0  0  0  0  0  0  0
   40.2830   31.8120   42.8770 H   0  0  0  0  0  0  0  0  0  0  0  0
   41.2050   30.2150   43.0030 H   0  0  0  0  0  0  0  0  0  0  0  0
   40.2860   29.5510   40.7580 H   0  0  0  0  0  0  0  0  0  0  0  0
   39.0890   31.3490   40.5400 N   0  0  0  0  0  0  0  0  0  0  0  0
   39.0510   32.5990   41.2070 C   0  0  0  0  0  0  0  0  0  0  0  0
   38.3750   33.5600   40.2440 C   0  0  0  0  0  0  0  0  0  0  0  0
   37.0360   33.1750   39.9680 N   0  0  0  0  0  0  0  0  0  0  0  0
   36.7880   31.7490   40.0670 C   0  0  0  0  0  0  0  0  0  0  0  0
   38.0500   30.9810   39.6780 C   0  0  0  0  0  0  0  0  0  0  0  0
   40.0810   32.9400   41.4180 H   0  0  0  0  0  0  0  0  0  0  0  0
   38.4380   32.4820   42.1330 H   0  0  0  0  0  0  0  0  0  0  0  0
   38.4140   34.6070   40.6260 H   0  0  0  0  0  0  0  0  0  0  0  0
   38.9610   33.5370   39.3020 H   0  0  0  0  0  0  0  0  0  0  0  0
   36.6620   33.6010   39.1160 H   0  0  0  0  0  0  0  0  0  0  0  0
   36.0500   31.5110   39.2670 H   0  0  0  0  0  0  0  0  0  0  0  0
   36.4540   31.4120   41.0490 H   0  0  0  0  0  0  0  0  0  0  0  0
   38.2500   31.1530   38.5870 H   0  0  0  0  0  0  0  0  0  0  0  0
   37.8270   29.9020   39.7710 H   0  0  0  0  0  0  0  0  0  0  0  0
   37.5990   28.2010   43.2460 C   0  0  0  0  0  0  0  0  0  0  0  0
   36.8830   28.9610   43.5100 H   0  0  0  0  0  0  0  0  0  0  0  0
   37.5810   27.4680   44.1060 H   0  0  0  0  0  0  0  0  0  0  0  0
   36.9740   25.2460   41.0370 C   0  0  0  0  0  0  0  0  0  0  0  0
   37.3220   26.0140   42.1670 C   0  0  0  0  0  0  0  0  0  0  0  0
   37.2290   27.3660   42.0560 C   0  0  0  0  0  0  0  0  0  0  0  0
   36.8130   27.9190   40.8900 N   0  0  0  0  0  0  0  0  0  0  0  0
   36.4880   27.2020   39.8360 C   0  0  0  0  0  0  0  0  0  0  0  0
   36.5670   25.8650   39.9010 N   0  0  0  0  0  0  0  0  0  0  0  0
   37.0450   24.1830   41.1160 H   0  0  0  0  0  0  0  0  0  0  0  0
   37.6520   25.5640   43.0920 H   0  0  0  0  0  0  0  0  0  0  0  0
   38.5910   27.5460   37.6720 Cl  0  0  0  0  0  0  0  0  0  0  0  0
   36.9390   28.0980   37.5890 C   0  0  0  0  0  0  0  0  0  0  0  0
   36.0520   27.8970   38.6230 C   0  0  0  0  0  0  0  0  0  0  0  0
   34.7530   28.3340   38.5510 C   0  0  0  0  0  0  0  0  0  0  0  0
   34.0580   28.1650   39.3880 H   0  0  0  0  0  0  0  0  0  0  0  0
   34.2920   28.9920   37.4330 C   0  0  0  0  0  0  0  0  0  0  0  0
   33.2690   29.3500   37.3490 H   0  0  0  0  0  0  0  0  0  0  0  0
   35.1660   29.2030   36.3860 C   0  0  0  0  0  3  0  0  0  0  0  0
   36.4490   28.7600   36.4820 C   0  0  0  0  0  3  0  0  0  0  0  0
  1 26  1  0  0  0  0
  1  3  1  0  0  0  0
  2  1  1  0  0  0  0
  4  7  1  1  0  0  0
  4  1  1  0  0  0  0
  5  4  1  0  0  0  0
  5  8  1  0  0  0  0
  5  9  1  0  0  0  0
  6 10  1  6  0  0  0
  6  5  1  0  0  0  0
  6  4  1  0  0  0  0
 11 12  1  0  0  0  0
 11  6  1  0  0  0  0
 12 17  1  0  0  0  0
 12 18  1  0  0  0  0
 13 19  1  0  0  0  0
 13 12  1  0  0  0  0
 14 15  1  0  0  0  0
 14 13  1  0  0  0  0
 15 23  1  0  0  0  0
 16 25  1  0  0  0  0
 16 15  1  0  0  0  0
 16 11  1  0  0  0  0
 20 13  1  0  0  0  0
 21 14  1  0  0  0  0
 22 15  1  0  0  0  0
 24 16  1  0  0  0  0
 26 27  1  0  0  0  0
 26 28  1  0  0  0  0
 29 35  1  0  0  0  0
 29 30  1  0  0  0  0
 30 36  1  0  0  0  0
 31 30  2  0  0  0  0
 31 26  1  0  0  0  0
 32 31  1  0  0  0  0
 33 34  1  0  0  0  0
 33 32  2  0  0  0  0
 34 29  2  0  0  0  0
 38 37  1  0  0  0  0
 38 39  1  0  0  0  0
 39 33  1  0  0  0  0
 40 39  2  0  0  0  0
 40 41  1  0  0  0  0
 42 40  1  0  0  0  0
 43 42  1  0  0  0  0
 44 45  1  0  0  0  0
 44 42  2  0  0  0  0
 45 38  2  0  0  0  0
M  END
>  <minimizedAffinity>
-5.64483452

$$$$

 OpenBabel03252502493D

 45 48  0  0  1  0  0  0  0  0999 V2000
   36.5730   31.5390   40.6610 C   0  0  0  0  0  0  0  0  0  0  0  0
   36.9450   31.4870   41.7050 H   0  0  0  0  0  0  0  0  0  0  0  0
   35.6100   32.0960   40.7390 H   0  0  0  0  0  0  0  0  0  0  0  0
   37.5900   32.2230   39.8060 C   0  0  1  0  0  0  0  0  0  0  0  0
   37.6830   33.7200   39.9280 C   0  0  0  0  0  0  0  0  0  0  0  0
   38.7340   32.8220   40.4830 C   0  0  2  0  0  0  0  0  0  0  0  0
   37.6710   31.7740   38.8130 H   0  0  0  0  0  0  0  0  0  0  0  0
   37.8250   34.2600   38.9840 H   0  0  0  0  0  0  0  0  0  0  0  0
   36.9520   34.2080   40.6110 H   0  0  0  0  0  0  0  0  0  0  0  0
   38.8740   32.8910   41.5560 H   0  0  0  0  0  0  0  0  0  0  0  0
   39.9510   32.8100   39.6740 N   0  0  0  0  0  0  0  0  0  0  0  0
   40.4340   34.0970   39.3290 C   0  0  0  0  0  0  0  0  0  0  0  0
   41.6770   33.8600   38.4880 C   0  0  0  0  0  0  0  0  0  0  0  0
   41.3750   33.1740   37.2820 N   0  0  0  0  0  0  0  0  0  0  0  0
   40.2170   32.3030   37.3610 C   0  0  0  0  0  0  0  0  0  0  0  0
   40.0900   31.7450   38.7770 C   0  0  0  0  0  0  0  0  0  0  0  0
   40.7010   34.6530   40.2470 H   0  0  0  0  0  0  0  0  0  0  0  0
   39.6490   34.6140   38.7250 H   0  0  0  0  0  0  0  0  0  0  0  0
   42.2080   34.8170   38.2750 H   0  0  0  0  0  0  0  0  0  0  0  0
   42.3640   33.2370   39.0980 H   0  0  0  0  0  0  0  0  0  0  0  0
   42.1920   32.7340   36.8520 H   0  0  0  0  0  0  0  0  0  0  0  0
   40.4550   31.4190   36.7250 H   0  0  0  0  0  0  0  0  0  0  0  0
   39.2740   32.7720   37.0760 H   0  0  0  0  0  0  0  0  0  0  0  0
   40.9620   31.0650   38.9720 H   0  0  0  0  0  0  0  0  0  0  0  0
   39.1960   31.0930   38.8020 H   0  0  0  0  0  0  0  0  0  0  0  0
   36.4100   30.1520   40.1100 C   0  0  0  0  0  0  0  0  0  0  0  0
   36.6740   29.9940   39.0780 H   0  0  0  0  0  0  0  0  0  0  0  0
   35.3040   29.9280   40.1700 H   0  0  0  0  0  0  0  0  0  0  0  0
   37.9330   28.7130   43.2120 C   0  0  0  0  0  0  0  0  0  0  0  0
   37.3530   29.6370   42.3170 C   0  0  0  0  0  0  0  0  0  0  0  0
   37.0240   29.1840   41.0780 C   0  0  0  0  0  0  0  0  0  0  0  0
   37.2560   27.8890   40.7510 N   0  0  0  0  0  0  0  0  0  0  0  0
   37.7970   27.0280   41.5850 C   0  0  0  0  0  0  0  0  0  0  0  0
   38.1380   27.4320   42.8170 N   0  0  0  0  0  0  0  0  0  0  0  0
   38.1950   29.0620   44.1870 H   0  0  0  0  0  0  0  0  0  0  0  0
   37.1710   30.6670   42.5880 H   0  0  0  0  0  0  0  0  0  0  0  0
   40.4610   26.4640   40.2400 Cl  0  0  0  0  0  0  0  0  0  0  0  0
   39.1880   25.3040   40.5120 C   0  0  0  0  0  0  0  0  0  0  0  0
   38.0080   25.6510   41.1330 C   0  0  0  0  0  0  0  0  0  0  0  0
   37.0090   24.7330   41.3430 C   0  0  0  0  0  0  0  0  0  0  0  0
   36.0730   25.0290   41.8410 H   0  0  0  0  0  0  0  0  0  0  0  0
   37.1570   23.4260   40.9380 C   0  0  0  0  0  0  0  0  0  0  0  0
   36.3830   22.6780   41.0920 H   0  0  0  0  0  0  0  0  0  0  0  0
   38.3320   23.0590   40.3140 C   0  0  0  0  0  3  0  0  0  0  0  0
   39.3070   23.9880   40.1170 C   0  0  0  0  0  3  0  0  0  0  0  0
  1  3  1  0  0  0  0
  1  2  1  0  0  0  0
  4  7  1  6  0  0  0
  4  5  1  0  0  0  0
  4  6  1  0  0  0  0
  4  1  1  0  0  0  0
  5  6  1  0  0  0  0
  5  9  1  0  0  0  0
  6 10  1  1  0  0  0
  8  5  1  0  0  0  0
 11  6  1  0  0  0  0
 12 11  1  0  0  0  0
 12 17  1  0  0  0  0
 13 20  1  0  0  0  0
 13 12  1  0  0  0  0
 14 15  1  0  0  0  0
 14 13  1  0  0  0  0
 15 16  1  0  0  0  0
 16 25  1  0  0  0  0
 16 24  1  0  0  0  0
 16 11  1  0  0  0  0
 18 12  1  0  0  0  0
 19 13  1  0  0  0  0
 21 14  1  0  0  0  0
 22 15  1  0  0  0  0
 23 15  1  0  0  0  0
 26 28  1  0  0  0  0
 26  1  1  0  0  0  0
 26 31  1  0  0  0  0
 27 26  1  0  0  0  0
 29 35  1  0  0  0  0
 30 36  1  0  0  0  0
 30 29  2  0  0  0  0
 31 30  1  0  0  0  0
 32 31  2  0  0  0  0
 32 33  1  0  0  0  0
 33 34  2  0  0  0  0
 34 29  1  0  0  0  0
 37 38  1  0  0  0  0
 38 39  1  0  0  0  0
 39 40  2  0  0  0  0
 39 33  1  0  0  0  0
 40 41  1  0  0  0  0
 42 43  1  0  0  0  0
 42 40  1  0  0  0  0
 44 42  2  0  0  0  0
 45 44  1  0  0  0  0
 45 38  2  0  0  0  0
M  END
>  <minimizedAffinity>
-5.60983276

$$$$

 OpenBabel03252502493D

 45 48  0  0  1  0  0  0  0  0999 V2000
   36.1330   26.6110   38.3430 C   0  0  0  0  0  0  0  0  0  0  0  0
   37.0560   26.7900   37.7550 H   0  0  0  0  0  0  0  0  0  0  0  0
   35.7710   25.6160   37.9910 H   0  0  0  0  0  0  0  0  0  0  0  0
   36.4610   26.6450   39.8010 C   0  0  1  0  0  0  0  0  0  0  0  0
   37.2150   25.4670   40.3550 C   0  0  0  0  0  0  0  0  0  0  0  0
   37.8650   26.7940   40.1640 C   0  0  2  0  0  0  0  0  0  0  0  0
   35.6560   27.0780   40.3990 H   0  0  0  0  0  0  0  0  0  0  0  0
   36.8870   25.1220   41.3430 H   0  0  0  0  0  0  0  0  0  0  0  0
   37.4290   24.6370   39.6450 H   0  0  0  0  0  0  0  0  0  0  0  0
   38.7030   26.7980   39.4760 H   0  0  0  0  0  0  0  0  0  0  0  0
   38.0600   27.5130   41.4210 N   0  0  0  0  0  0  0  0  0  0  0  0
   37.2140   27.0840   42.4750 C   0  0  0  0  0  0  0  0  0  0  0  0
   37.5640   27.9580   43.6670 C   0  0  0  0  0  0  0  0  0  0  0  0
   37.2830   29.3280   43.4170 N   0  0  0  0  0  0  0  0  0  0  0  0
   37.3670   29.7130   42.0210 C   0  0  0  0  0  0  0  0  0  0  0  0
   38.4210   28.8610   41.3160 C   0  0  0  0  0  0  0  0  0  0  0  0
   37.4220   26.0240   42.7110 H   0  0  0  0  0  0  0  0  0  0  0  0
   36.1550   27.2560   42.1640 H   0  0  0  0  0  0  0  0  0  0  0  0
   37.0420   27.6100   44.5890 H   0  0  0  0  0  0  0  0  0  0  0  0
   38.6520   27.8380   43.8460 H   0  0  0  0  0  0  0  0  0  0  0  0
   37.7760   29.9620   44.0500 H   0  0  0  0  0  0  0  0  0  0  0  0
   37.7820   30.7480   42.0140 H   0  0  0  0  0  0  0  0  0  0  0  0
   36.4270   29.6440   41.4720 H   0  0  0  0  0  0  0  0  0  0  0  0
   39.4280   29.1210   41.7360 H   0  0  0  0  0  0  0  0  0  0  0  0
   38.4520   29.1770   40.2560 H   0  0  0  0  0  0  0  0  0  0  0  0
   35.1510   27.7190   38.0960 C   0  0  0  0  0  0  0  0  0  0  0  0
   34.4840   27.9800   38.9010 H   0  0  0  0  0  0  0  0  0  0  0  0
   34.4800   27.3520   37.2640 H   0  0  0  0  0  0  0  0  0  0  0  0
   36.5810   30.0750   35.5640 C   0  0  0  0  0  0  0  0  0  0  0  0
   35.8820   28.9860   36.1250 C   0  0  0  0  0  0  0  0  0  0  0  0
   35.8850   28.8730   37.4800 C   0  0  0  0  0  0  0  0  0  0  0  0
   36.5430   29.7910   38.2310 N   0  0  0  0  0  0  0  0  0  0  0  0
   37.1950   30.8060   37.7080 C   0  0  0  0  0  0  0  0  0  0  0  0
   37.2190   30.9550   36.3760 N   0  0  0  0  0  0  0  0  0  0  0  0
   36.5840   30.1700   34.5000 H   0  0  0  0  0  0  0  0  0  0  0  0
   35.3600   28.2600   35.5180 H   0  0  0  0  0  0  0  0  0  0  0  0
   40.1080   30.1930   38.3070 Cl  0  0  0  0  0  0  0  0  0  0  0  0
   39.1980   31.5410   38.9340 C   0  0  0  0  0  0  0  0  0  0  0  0
   37.8740   31.7410   38.6070 C   0  0  0  0  0  0  0  0  0  0  0  0
   37.1630   32.8040   39.1050 C   0  0  0  0  0  0  0  0  0  0  0  0
   36.1070   32.9470   38.8320 H   0  0  0  0  0  0  0  0  0  0  0  0
   37.7560   33.7120   39.9530 C   0  0  0  0  0  0  0  0  0  0  0  0
   37.2160   34.5630   40.3620 H   0  0  0  0  0  0  0  0  0  0  0  0
   39.0800   33.5290   40.2930 C   0  0  0  0  0  3  0  0  0  0  0  0
   39.7630   32.4660   39.7860 C   0  0  0  0  0  3  0  0  0  0  0  0
  1  4  1  0  0  0  0
  2  1  1  0  0  0  0
  3  1  1  0  0  0  0
  4  6  1  0  0  0  0
  4  5  1  0  0  0  0
  4  7  1  1  0  0  0
  5  8  1  0  0  0  0
  6 10  1  6  0  0  0
  6  5  1  0  0  0  0
  6 11  1  0  0  0  0
  9  5  1  0  0  0  0
 11 12  1  0  0  0  0
 12 17  1  0  0  0  0
 12 13  1  0  0  0  0
 13 20  1  0  0  0  0
 13 19  1  0  0  0  0
 14 13  1  0  0  0  0
 14 21  1  0  0  0  0
 15 14  1  0  0  0  0
 16 11  1  0  0  0  0
 16 24  1  0  0  0  0
 16 15  1  0  0  0  0
 18 12  1  0  0  0  0
 22 15  1  0  0  0  0
 23 15  1  0  0  0  0
 25 16  1  0  0  0  0
 26  1  1  0  0  0  0
 26 27  1  0  0  0  0
 28 26  1  0  0  0  0
 29 30  2  0  0  0  0
 29 34  1  0  0  0  0
 30 31  1  0  0  0  0
 31 26  1  0  0  0  0
 31 32  2  0  0  0  0
 33 32  1  0  0  0  0
 33 39  1  0  0  0  0
 34 33  2  0  0  0  0
 35 29  1  0  0  0  0
 36 30  1  0  0  0  0
 37 38  1  0  0  0  0
 38 45  1  0  0  0  0
 39 38  2  0  0  0  0
 39 40  1  0  0  0  0
 40 42  2  0  0  0  0
 41 40  1  0  0  0  0
 42 44  1  0  0  0  0
 42 43  1  0  0  0  0
 45 44  2  0  0  0  0
M  END
>  <minimizedAffinity>
-5.45287561

$$$$

 OpenBabel03252502493D

 45 48  0  0  1  0  0  0  0  0999 V2000
   36.3640   29.9070   39.7780 C   0  0  0  0  0  0  0  0  0  0  0  0
   35.8610   30.0730   40.7520 H   0  0  0  0  0  0  0  0  0  0  0  0
   35.5560   30.0490   39.0220 H   0  0  0  0  0  0  0  0  0  0  0  0
   37.4940   30.8750   39.6330 C   0  0  1  0  0  0  0  0  0  0  0  0
   37.2260   32.1130   38.8200 C   0  0  0  0  0  0  0  0  0  0  0  0
   37.3570   32.1630   40.3030 C   0  0  2  0  0  0  0  0  0  0  0  0
   38.4590   30.3760   39.5220 H   0  0  0  0  0  0  0  0  0  0  0  0
   38.0440   32.4260   38.1580 H   0  0  0  0  0  0  0  0  0  0  0  0
   36.2210   32.1880   38.3490 H   0  0  0  0  0  0  0  0  0  0  0  0
   36.4760   32.5160   40.8290 H   0  0  0  0  0  0  0  0  0  0  0  0
   38.6350   32.7220   40.7390 N   0  0  0  0  0  0  0  0  0  0  0  0
   39.1490   33.7330   39.8880 C   0  0  0  0  0  0  0  0  0  0  0  0
   40.4690   34.1600   40.5060 C   0  0  0  0  0  0  0  0  0  0  0  0
   41.4090   33.0950   40.5300 N   0  0  0  0  0  0  0  0  0  0  0  0
   40.8170   31.7730   40.6070 C   0  0  0  0  0  0  0  0  0  0  0  0
   39.5070   31.8430   41.3910 C   0  0  0  0  0  0  0  0  0  0  0  0
   38.4500   34.5890   39.8640 H   0  0  0  0  0  0  0  0  0  0  0  0
   39.3180   33.2860   38.8780 H   0  0  0  0  0  0  0  0  0  0  0  0
   40.8920   35.0470   39.9800 H   0  0  0  0  0  0  0  0  0  0  0  0
   40.2510   34.4750   41.5470 H   0  0  0  0  0  0  0  0  0  0  0  0
   42.1720   33.2450   41.1950 H   0  0  0  0  0  0  0  0  0  0  0  0
   41.5010   31.1690   41.2470 H   0  0  0  0  0  0  0  0  0  0  0  0
   40.6310   31.3000   39.6430 H   0  0  0  0  0  0  0  0  0  0  0  0
   39.7430   32.1050   42.4560 H   0  0  0  0  0  0  0  0  0  0  0  0
   39.0820   30.8220   41.4240 H   0  0  0  0  0  0  0  0  0  0  0  0
   36.9690   28.5330   39.7470 C   0  0  0  0  0  0  0  0  0  0  0  0
   37.7230   28.3390   39.0030 H   0  0  0  0  0  0  0  0  0  0  0  0
   36.1180   27.8320   39.4950 H   0  0  0  0  0  0  0  0  0  0  0  0
   36.7280   27.6990   43.3870 C   0  0  0  0  0  0  0  0  0  0  0  0
   36.3550   28.0560   42.0750 C   0  0  0  0  0  0  0  0  0  0  0  0
   37.3450   28.1500   41.1470 C   0  0  0  0  0  0  0  0  0  0  0  0
   38.6290   27.9020   41.5050 N   0  0  0  0  0  0  0  0  0  0  0  0
   38.9770   27.5700   42.7290 C   0  0  0  0  0  0  0  0  0  0  0  0
   38.0330   27.4660   43.6760 N   0  0  0  0  0  0  0  0  0  0  0  0
   35.9560   27.6230   44.1220 H   0  0  0  0  0  0  0  0  0  0  0  0
   35.3280   28.2500   41.7990 H   0  0  0  0  0  0  0  0  0  0  0  0
   39.7630   24.6670   43.1520 Cl  0  0  0  0  0  0  0  0  0  0  0  0
   40.8390   26.0380   43.2190 C   0  0  0  0  0  0  0  0  0  0  0  0
   40.3920   27.3240   43.0140 C   0  0  0  0  0  0  0  0  0  0  0  0
   41.2440   28.3990   43.0690 C   0  0  0  0  0  0  0  0  0  0  0  0
   40.8690   29.4200   42.9020 H   0  0  0  0  0  0  0  0  0  0  0  0
   42.5840   28.2220   43.3330 C   0  0  0  0  0  0  0  0  0  0  0  0
   43.2820   29.0550   43.3820 H   0  0  0  0  0  0  0  0  0  0  0  0
   43.0510   26.9410   43.5410 C   0  0  0  0  0  3  0  0  0  0  0  0
   42.1860   25.8920   43.4820 C   0  0  0  0  0  3  0  0  0  0  0  0
  1  2  1  0  0  0  0
  3  1  1  0  0  0  0
  4  7  1  6  0  0  0
  4  1  1  0  0  0  0
  4  6  1  0  0  0  0
  5  4  1  0  0  0  0
  5  6  1  0  0  0  0
  6 11  1  0  0  0  0
  6 10  1  1  0  0  0
  8  5  1  0  0  0  0
  9  5  1  0  0  0  0
 11 16  1  0  0  0  0
 12 13  1  0  0  0  0
 12 11  1  0  0  0  0
 13 14  1  0  0  0  0
 13 20  1  0  0  0  0
 14 15  1  0  0  0  0
 14 21  1  0  0  0  0
 15 22  1  0  0  0  0
 15 16  1  0  0  0  0
 16 25  1  0  0  0  0
 16 24  1  0  0  0  0
 17 12  1  0  0  0  0
 18 12  1  0  0  0  0
 19 13  1  0  0  0  0
 23 15  1  0  0  0  0
 26  1  1  0  0  0  0
 26 31  1  0  0  0  0
 27 26  1  0  0  0  0
 28 26  1  0  0  0  0
 29 34  1  0  0  0  0
 29 35  1  0  0  0  0
 30 29  2  0  0  0  0
 31 32  2  0  0  0  0
 31 30  1  0  0  0  0
 32 33  1  0  0  0  0
 33 39  1  0  0  0  0
 33 34  2  0  0  0  0
 36 30  1  0  0  0  0
 37 38  1  0  0  0  0
 38 45  1  0  0  0  0
 39 40  1  0  0  0  0
 39 38  2  0  0  0  0
 40 42  2  0  0  0  0
 41 40  1  0  0  0  0
 42 43  1  0  0  0  0
 42 44  1  0  0  0  0
 45 44  2  0  0  0  0
M  END
>  <minimizedAffinity>
-5.4449873

$$$$

 OpenBabel03252502493D

 45 48  0  0  1  0  0  0  0  0999 V2000
   38.8850   28.8970   37.5210 C   0  0  0  0  0  0  0  0  0  0  0  0
   39.2200   29.0470   36.4740 H   0  0  0  0  0  0  0  0  0  0  0  0
   39.3490   27.9290   37.8240 H   0  0  0  0  0  0  0  0  0  0  0  0
   39.3300   30.0580   38.3520 C   0  0  1  0  0  0  0  0  0  0  0  0
   40.6490   30.6850   37.9920 C   0  0  0  0  0  0  0  0  0  0  0  0
   39.3540   31.3660   37.7100 C   0  0  2  0  0  0  0  0  0  0  0  0
   39.0830   29.9320   39.4100 H   0  0  0  0  0  0  0  0  0  0  0  0
   41.2800   30.9740   38.8420 H   0  0  0  0  0  0  0  0  0  0  0  0
   41.2150   30.2050   37.1630 H   0  0  0  0  0  0  0  0  0  0  0  0
   39.1600   31.5640   36.6620 H   0  0  0  0  0  0  0  0  0  0  0  0
   39.0820   32.4640   38.6350 N   0  0  0  0  0  0  0  0  0  0  0  0
   40.2230   32.9390   39.3280 C   0  0  0  0  0  0  0  0  0  0  0  0
   39.7230   34.0520   40.2340 C   0  0  0  0  0  0  0  0  0  0  0  0
   38.7990   33.5710   41.2000 N   0  0  0  0  0  0  0  0  0  0  0  0
   38.0430   32.4060   40.7790 C   0  0  0  0  0  0  0  0  0  0  0  0
   37.8330   32.4490   39.2670 C   0  0  0  0  0  0  0  0  0  0  0  0
   40.9570   33.3430   38.6060 H   0  0  0  0  0  0  0  0  0  0  0  0
   40.6360   32.0990   39.9370 H   0  0  0  0  0  0  0  0  0  0  0  0
   40.5710   34.5800   40.7290 H   0  0  0  0  0  0  0  0  0  0  0  0
   39.2150   34.7930   39.5830 H   0  0  0  0  0  0  0  0  0  0  0  0
   38.2230   34.3100   41.6100 H   0  0  0  0  0  0  0  0  0  0  0  0
   37.0240   32.5290   41.2140 H   0  0  0  0  0  0  0  0  0  0  0  0
   38.4920   31.4500   41.0500 H   0  0  0  0  0  0  0  0  0  0  0  0
   37.1630   33.3160   39.0240 H   0  0  0  0  0  0  0  0  0  0  0  0
   37.2610   31.5450   38.9820 H   0  0  0  0  0  0  0  0  0  0  0  0
   37.3850   28.8780   37.5770 C   0  0  0  0  0  0  0  0  0  0  0  0
   36.8680   28.3060   36.8240 H   0  0  0  0  0  0  0  0  0  0  0  0
   37.0600   29.9470   37.4080 H   0  0  0  0  0  0  0  0  0  0  0  0
   35.5140   28.9820   40.8160 C   0  0  0  0  0  0  0  0  0  0  0  0
   35.8890   29.2580   39.4850 C   0  0  0  0  0  0  0  0  0  0  0  0
   36.9680   28.5950   38.9890 C   0  0  0  0  0  0  0  0  0  0  0  0
   37.6320   27.7090   39.7720 N   0  0  0  0  0  0  0  0  0  0  0  0
   37.2820   27.4520   41.0130 C   0  0  0  0  0  0  0  0  0  0  0  0
   36.2250   28.0840   41.5420 N   0  0  0  0  0  0  0  0  0  0  0  0
   34.6680   29.4990   41.2130 H   0  0  0  0  0  0  0  0  0  0  0  0
   35.3520   29.9650   38.8680 H   0  0  0  0  0  0  0  0  0  0  0  0
   36.5940   24.5310   40.5450 Cl  0  0  0  0  0  0  0  0  0  0  0  0
   37.8230   25.1310   41.6260 C   0  0  0  0  0  0  0  0  0  0  0  0
   38.0670   26.4790   41.7750 C   0  0  0  0  0  0  0  0  0  0  0  0
   39.0350   26.9440   42.6290 C   0  0  0  0  0  0  0  0  0  0  0  0
   39.2160   28.0240   42.7350 H   0  0  0  0  0  0  0  0  0  0  0  0
   39.8010   26.0700   43.3690 C   0  0  0  0  0  0  0  0  0  0  0  0
   40.5750   26.4110   44.0520 H   0  0  0  0  0  0  0  0  0  0  0  0
   39.5720   24.7170   43.2330 C   0  0  0  0  0  3  0  0  0  0  0  0
   38.6050   24.2810   42.3800 C   0  0  0  0  0  3  0  0  0  0  0  0
  1 26  1  0  0  0  0
  1  3  1  0  0  0  0
  1  4  1  0  0  0  0
  2  1  1  0  0  0  0
  4  7  1  1  0  0  0
  5  4  1  0  0  0  0
  5  8  1  0  0  0  0
  6 10  1  6  0  0  0
  6  5  1  0  0  0  0
  6  4  1  0  0  0  0
  6 11  1  0  0  0  0
  9  5  1  0  0  0  0
 11 16  1  0  0  0  0
 11 12  1  0  0  0  0
 12 18  1  0  0  0  0
 12 13  1  0  0  0  0
 13 19  1  0  0  0  0
 13 14  1  0  0  0  0
 14 21  1  0  0  0  0
 15 23  1  0  0  0  0
 15 14  1  0  0  0  0
 15 22  1  0  0  0  0
 16 15  1  0  0  0  0
 17 12  1  0  0  0  0
 20 13  1  0  0  0  0
 24 16  1  0  0  0  0
 25 16  1  0  0  0  0
 26 31  1  0  0  0  0
 27 26  1  0  0  0  0
 28 26  1  0  0  0  0
 29 35  1  0  0  0  0
 29 34  1  0  0  0  0
 30 29  2  0  0  0  0
 31 30  1  0  0  0  0
 31 32  2  0  0  0  0
 32 33  1  0  0  0  0
 33 34  2  0  0  0  0
 33 39  1  0  0  0  0
 36 30  1  0  0  0  0
 37 38  1  0  0  0  0
 38 39  2  0  0  0  0
 38 45  1  0  0  0  0
 39 40  1  0  0  0  0
 40 41  1  0  0  0  0
 40 42  2  0  0  0  0
 42 43  1  0  0  0  0
 44 42  1  0  0  0  0
 45 44  2  0  0  0  0
M  END
>  <minimizedAffinity>
-5.37256575

$$$$
