
 OpenBabel03242521153D

 28 30  0  0  0  0  0  0  0  0999 V2000
   36.1310   30.9070   41.0240 C   0  0  0  0  0  0  0  0  0  0  0  0
   37.1630   31.5440   40.2900 C   0  0  0  0  0  0  0  0  0  0  0  0
   38.1350   30.7130   39.7100 C   0  0  0  0  0  0  0  0  0  0  0  0
   38.0400   29.3700   39.8780 N   0  0  0  0  0  0  0  0  0  0  0  0
   37.0490   28.7960   40.5810 C   0  0  0  0  0  0  0  0  0  0  0  0
   36.0890   29.5520   41.1580 N   0  0  0  0  0  0  0  0  0  0  0  0
   35.3600   31.5180   41.4880 H   0  0  0  0  0  0  0  0  0  0  0  0
   37.1960   32.6130   40.1850 H   0  0  0  0  0  0  0  0  0  0  0  0
   39.1770   31.3450   38.9710 N   0  0  0  0  0  0  0  0  0  0  0  0
   40.3270   31.6280   39.6400 C   0  0  0  0  0  0  0  0  0  0  0  0
   41.3640   32.2490   38.9480 C   0  0  0  0  0  0  0  0  0  0  0  0
   41.1510   32.5400   37.6150 C   0  0  0  0  0  0  0  0  0  0  0  0
   42.1110   33.1110   36.9900 O   0  0  0  0  0  0  0  0  0  0  0  0
   40.0030   32.2590   36.9400 N   0  0  0  0  0  0  0  0  0  0  0  0
   39.0490   31.6570   37.6800 C   0  0  0  0  0  0  0  0  0  0  0  0
   37.9640   31.3530   37.1720 O   0  0  0  0  0  0  0  0  0  0  0  0
   40.4220   31.3700   40.6900 H   0  0  0  0  0  0  0  0  0  0  0  0
   42.2890   32.4920   39.4360 H   0  0  0  0  0  0  0  0  0  0  0  0
   39.8900   32.4990   35.9300 H   0  0  0  0  0  0  0  0  0  0  0  0
   37.9140   27.8120   43.2270 Cl  0  0  0  0  0  0  0  0  0  0  0  0
   37.3770   26.7670   41.9270 C   0  0  0  0  0  0  0  0  0  0  0  0
   36.9950   27.3420   40.7290 C   0  0  0  0  0  0  0  0  0  0  0  0
   36.5630   26.5460   39.6790 C   0  0  0  0  0  0  0  0  0  0  0  0
   36.2790   27.0680   38.7690 H   0  0  0  0  0  0  0  0  0  0  0  0
   36.4990   25.1560   39.7890 C   0  0  0  0  0  0  0  0  0  0  0  0
   36.1550   24.5810   38.9390 H   0  0  0  0  0  0  0  0  0  0  0  0
   36.8850   24.6170   40.9900 C   0  0  0  0  0  3  0  0  0  0  0  0
   37.3190   25.3870   42.0530 C   0  0  0  0  0  3  0  0  0  0  0  0
  1  6  1  0  0  0  0
  1  7  1  0  0  0  0
  2  1  2  0  0  0  0
  3  4  2  0  0  0  0
  3  2  1  0  0  0  0
  4  5  1  0  0  0  0
  5 22  1  0  0  0  0
  5  6  2  0  0  0  0
  8  2  1  0  0  0  0
  9 10  1  0  0  0  0
  9  3  1  0  0  0  0
 10 17  1  0  0  0  0
 11 18  1  0  0  0  0
 11 10  2  0  0  0  0
 12 11  1  0  0  0  0
 13 12  2  0  0  0  0
 14 12  1  0  0  0  0
 14 15  1  0  0  0  0
 15  9  1  0  0  0  0
 16 15  2  0  0  0  0
 19 14  1  0  0  0  0
 21 28  1  0  0  0  0
 21 20  1  0  0  0  0
 22 21  2  0  0  0  0
 23 25  2  0  0  0  0
 23 22  1  0  0  0  0
 24 23  1  0  0  0  0
 25 27  1  0  0  0  0
 26 25  1  0  0  0  0
 27 28  2  0  0  0  0
M  END
>  <minimizedAffinity>
-6.19713116

$$$$

 OpenBabel03242521153D

 28 30  0  0  0  0  0  0  0  0999 V2000
   36.1570   30.8490   41.0380 C   0  0  0  0  0  0  0  0  0  0  0  0
   37.1860   31.4970   40.3080 C   0  0  0  0  0  0  0  0  0  0  0  0
   38.1410   30.6730   39.6910 C   0  0  0  0  0  0  0  0  0  0  0  0
   38.0330   29.3280   39.8200 N   0  0  0  0  0  0  0  0  0  0  0  0
   37.0460   28.7430   40.5190 C   0  0  0  0  0  0  0  0  0  0  0  0
   36.1020   29.4920   41.1320 N   0  0  0  0  0  0  0  0  0  0  0  0
   35.3990   31.4550   41.5300 H   0  0  0  0  0  0  0  0  0  0  0  0
   37.2290   32.5690   40.2340 H   0  0  0  0  0  0  0  0  0  0  0  0
   39.1800   31.3160   38.9570 N   0  0  0  0  0  0  0  0  0  0  0  0
   40.3500   31.5440   39.6100 C   0  0  0  0  0  0  0  0  0  0  0  0
   41.3840   32.1750   38.9230 C   0  0  0  0  0  0  0  0  0  0  0  0
   41.1490   32.5300   37.6090 C   0  0  0  0  0  0  0  0  0  0  0  0
   42.1060   33.1080   36.9880 O   0  0  0  0  0  0  0  0  0  0  0  0
   39.9790   32.3040   36.9490 N   0  0  0  0  0  0  0  0  0  0  0  0
   39.0290   31.6890   37.6840 C   0  0  0  0  0  0  0  0  0  0  0  0
   37.9270   31.4310   37.1880 O   0  0  0  0  0  0  0  0  0  0  0  0
   40.4630   31.2370   40.6450 H   0  0  0  0  0  0  0  0  0  0  0  0
   42.3250   32.3750   39.3980 H   0  0  0  0  0  0  0  0  0  0  0  0
   39.8500   32.5910   35.9540 H   0  0  0  0  0  0  0  0  0  0  0  0
   35.9110   27.4030   38.1450 Cl  0  0  0  0  0  0  0  0  0  0  0  0
   36.4640   26.5520   39.5740 C   0  0  0  0  0  0  0  0  0  0  0  0
   36.9780   27.2860   40.6260 C   0  0  0  0  0  0  0  0  0  0  0  0
   37.4260   26.6460   41.7720 C   0  0  0  0  0  0  0  0  0  0  0  0
   37.8160   27.2890   42.5560 H   0  0  0  0  0  0  0  0  0  0  0  0
   37.3750   25.2570   41.9050 C   0  0  0  0  0  0  0  0  0  0  0  0
   37.7370   24.8070   42.8200 H   0  0  0  0  0  0  0  0  0  0  0  0
   36.8600   24.5580   40.8430 C   0  0  0  0  0  3  0  0  0  0  0  0
   36.4070   25.1700   39.6900 C   0  0  0  0  0  3  0  0  0  0  0  0
  1  6  1  0  0  0  0
  1  7  1  0  0  0  0
  2  1  2  0  0  0  0
  3  4  2  0  0  0  0
  3  2  1  0  0  0  0
  4  5  1  0  0  0  0
  5 22  1  0  0  0  0
  5  6  2  0  0  0  0
  8  2  1  0  0  0  0
  9 10  1  0  0  0  0
  9  3  1  0  0  0  0
 10 17  1  0  0  0  0
 11 18  1  0  0  0  0
 11 10  2  0  0  0  0
 12 11  1  0  0  0  0
 13 12  2  0  0  0  0
 14 12  1  0  0  0  0
 14 15  1  0  0  0  0
 15  9  1  0  0  0  0
 16 15  2  0  0  0  0
 19 14  1  0  0  0  0
 20 21  1  0  0  0  0
 21 28  2  0  0  0  0
 21 22  1  0  0  0  0
 22 23  2  0  0  0  0
 23 25  1  0  0  0  0
 23 24  1  0  0  0  0
 25 26  1  0  0  0  0
 27 25  2  0  0  0  0
 28 27  1  0  0  0  0
M  END
>  <minimizedAffinity>
-5.94835663

$$$$

 OpenBabel03242521153D

 28 30  0  0  0  0  0  0  0  0999 V2000
   40.5110   28.6610   42.9990 C   0  0  0  0  0  0  0  0  0  0  0  0
   40.0040   29.8400   42.3970 C   0  0  0  0  0  0  0  0  0  0  0  0
   38.9740   29.6800   41.4560 C   0  0  0  0  0  0  0  0  0  0  0  0
   38.5260   28.4310   41.1760 N   0  0  0  0  0  0  0  0  0  0  0  0
   39.0280   27.3310   41.7630 C   0  0  0  0  0  0  0  0  0  0  0  0
   40.0200   27.4330   42.6750 N   0  0  0  0  0  0  0  0  0  0  0  0
   41.3100   28.7460   43.7330 H   0  0  0  0  0  0  0  0  0  0  0  0
   40.3920   30.8100   42.6520 H   0  0  0  0  0  0  0  0  0  0  0  0
   38.4590   30.8600   40.8450 N   0  0  0  0  0  0  0  0  0  0  0  0
   39.3290   31.6160   40.1260 C   0  0  0  0  0  0  0  0  0  0  0  0
   38.8590   32.7780   39.5190 C   0  0  0  0  0  0  0  0  0  0  0  0
   37.5240   33.0880   39.6920 C   0  0  0  0  0  0  0  0  0  0  0  0
   37.1040   34.1580   39.1310 O   0  0  0  0  0  0  0  0  0  0  0  0
   36.6470   32.3350   40.4120 N   0  0  0  0  0  0  0  0  0  0  0  0
   37.1810   31.2270   40.9660 C   0  0  0  0  0  0  0  0  0  0  0  0
   36.4780   30.4660   41.6400 O   0  0  0  0  0  0  0  0  0  0  0  0
   40.3670   31.3100   40.0330 H   0  0  0  0  0  0  0  0  0  0  0  0
   39.5110   33.4050   38.9410 H   0  0  0  0  0  0  0  0  0  0  0  0
   35.6450   32.6120   40.5130 H   0  0  0  0  0  0  0  0  0  0  0  0
   36.5490   26.5990   43.1900 Cl  0  0  0  0  0  0  0  0  0  0  0  0
   37.3490   25.5580   42.0300 C   0  0  0  0  0  0  0  0  0  0  0  0
   38.5060   26.0080   41.4230 C   0  0  0  0  0  0  0  0  0  0  0  0
   39.1650   25.2120   40.4980 C   0  0  0  0  0  0  0  0  0  0  0  0
   40.0680   25.6320   40.0630 H   0  0  0  0  0  0  0  0  0  0  0  0
   38.6940   23.9440   40.1520 C   0  0  0  0  0  0  0  0  0  0  0  0
   39.2460   23.3630   39.4250 H   0  0  0  0  0  0  0  0  0  0  0  0
   37.5430   23.5270   40.7720 C   0  0  0  0  0  3  0  0  0  0  0  0
   36.8670   24.3000   41.6960 C   0  0  0  0  0  3  0  0  0  0  0  0
  1  7  1  0  0  0  0
  2  8  1  0  0  0  0
  2  1  2  0  0  0  0
  3  2  1  0  0  0  0
  4  3  2  0  0  0  0
  4  5  1  0  0  0  0
  5  6  2  0  0  0  0
  6  1  1  0  0  0  0
  9 15  1  0  0  0  0
  9  3  1  0  0  0  0
 10  9  1  0  0  0  0
 11 12  1  0  0  0  0
 11 10  2  0  0  0  0
 12 14  1  0  0  0  0
 13 12  2  0  0  0  0
 14 19  1  0  0  0  0
 14 15  1  0  0  0  0
 15 16  2  0  0  0  0
 17 10  1  0  0  0  0
 18 11  1  0  0  0  0
 21 20  1  0  0  0  0
 22  5  1  0  0  0  0
 22 21  2  0  0  0  0
 23 22  1  0  0  0  0
 24 23  1  0  0  0  0
 25 23  2  0  0  0  0
 25 27  1  0  0  0  0
 26 25  1  0  0  0  0
 27 28  2  0  0  0  0
 28 21  1  0  0  0  0
M  END
>  <minimizedAffinity>
-5.72976589

$$$$

 OpenBabel03242521153D

 28 30  0  0  0  0  0  0  0  0999 V2000
   37.8090   27.6150   43.6800 C   0  0  0  0  0  0  0  0  0  0  0  0
   37.8190   28.9470   43.1920 C   0  0  0  0  0  0  0  0  0  0  0  0
   37.8150   29.1120   41.7980 C   0  0  0  0  0  0  0  0  0  0  0  0
   37.8030   28.0120   41.0040 N   0  0  0  0  0  0  0  0  0  0  0  0
   37.7940   26.7620   41.4960 C   0  0  0  0  0  0  0  0  0  0  0  0
   37.7970   26.5500   42.8310 N   0  0  0  0  0  0  0  0  0  0  0  0
   37.8120   27.4480   44.7550 H   0  0  0  0  0  0  0  0  0  0  0  0
   37.8290   29.7870   43.8620 H   0  0  0  0  0  0  0  0  0  0  0  0
   37.8270   30.4470   41.2990 N   0  0  0  0  0  0  0  0  0  0  0  0
   39.0180   31.1010   41.3070 C   0  0  0  0  0  0  0  0  0  0  0  0
   39.0630   32.4090   40.8300 C   0  0  0  0  0  0  0  0  0  0  0  0
   37.8800   32.9600   40.3770 C   0  0  0  0  0  0  0  0  0  0  0  0
   37.9340   34.1610   39.9410 O   0  0  0  0  0  0  0  0  0  0  0  0
   36.6840   32.3090   40.3650 N   0  0  0  0  0  0  0  0  0  0  0  0
   36.7260   31.0480   40.8430 C   0  0  0  0  0  0  0  0  0  0  0  0
   35.6990   30.3610   40.8790 O   0  0  0  0  0  0  0  0  0  0  0  0
   39.9080   30.6040   41.6800 H   0  0  0  0  0  0  0  0  0  0  0  0
   39.9820   32.9640   40.8180 H   0  0  0  0  0  0  0  0  0  0  0  0
   35.8160   32.7690   40.0110 H   0  0  0  0  0  0  0  0  0  0  0  0
   40.4730   25.7820   40.7360 Cl  0  0  0  0  0  0  0  0  0  0  0  0
   38.9770   25.0670   40.1690 C   0  0  0  0  0  0  0  0  0  0  0  0
   37.7800   25.6120   40.5930 C   0  0  0  0  0  0  0  0  0  0  0  0
   36.5760   25.0710   40.1660 C   0  0  0  0  0  0  0  0  0  0  0  0
   35.6770   25.5530   40.5400 H   0  0  0  0  0  0  0  0  0  0  0  0
   36.5280   23.9740   39.3040 C   0  0  0  0  0  0  0  0  0  0  0  0
   35.5630   23.5910   39.0010 H   0  0  0  0  0  0  0  0  0  0  0  0
   37.7340   23.4560   38.9030 C   0  0  0  0  0  3  0  0  0  0  0  0
   38.9470   23.9750   39.3130 C   0  0  0  0  0  3  0  0  0  0  0  0
  1  7  1  0  0  0  0
  2  1  1  0  0  0  0
  2  8  1  0  0  0  0
  3  2  2  0  0  0  0
  4  5  2  0  0  0  0
  4  3  1  0  0  0  0
  5  6  1  0  0  0  0
  6  1  2  0  0  0  0
  9 10  1  0  0  0  0
  9  3  1  0  0  0  0
 10 17  1  0  0  0  0
 11 10  2  0  0  0  0
 12 11  1  0  0  0  0
 13 12  2  0  0  0  0
 14 12  1  0  0  0  0
 14 15  1  0  0  0  0
 15 16  2  0  0  0  0
 15  9  1  0  0  0  0
 18 11  1  0  0  0  0
 19 14  1  0  0  0  0
 21 22  1  0  0  0  0
 21 20  1  0  0  0  0
 22  5  1  0  0  0  0
 23 24  1  0  0  0  0
 23 22  2  0  0  0  0
 25 23  1  0  0  0  0
 26 25  1  0  0  0  0
 27 25  2  0  0  0  0
 27 28  1  0  0  0  0
 28 21  2  0  0  0  0
M  END
>  <minimizedAffinity>
-5.72783661

$$$$

 OpenBabel03242521153D

 28 30  0  0  0  0  0  0  0  0999 V2000
   35.8040   30.4200   40.6740 C   0  0  0  0  0  0  0  0  0  0  0  0
   37.0070   31.1700   40.6690 C   0  0  0  0  0  0  0  0  0  0  0  0
   38.2050   30.4470   40.7860 C   0  0  0  0  0  0  0  0  0  0  0  0
   38.1520   29.0970   40.8970 N   0  0  0  0  0  0  0  0  0  0  0  0
   36.9950   28.4140   40.8990 C   0  0  0  0  0  0  0  0  0  0  0  0
   35.8150   29.0630   40.7880 N   0  0  0  0  0  0  0  0  0  0  0  0
   34.8550   30.9460   40.5850 H   0  0  0  0  0  0  0  0  0  0  0  0
   36.9980   32.2410   40.5790 H   0  0  0  0  0  0  0  0  0  0  0  0
   39.4200   31.1930   40.7840 N   0  0  0  0  0  0  0  0  0  0  0  0
   39.8610   31.6550   39.5840 C   0  0  0  0  0  0  0  0  0  0  0  0
   41.0480   32.3830   39.5460 C   0  0  0  0  0  0  0  0  0  0  0  0
   41.7040   32.5890   40.7440 C   0  0  0  0  0  0  0  0  0  0  0  0
   42.7920   33.2590   40.6970 O   0  0  0  0  0  0  0  0  0  0  0  0
   41.2670   32.1300   41.9490 N   0  0  0  0  0  0  0  0  0  0  0  0
   40.1110   31.4350   41.8990 C   0  0  0  0  0  0  0  0  0  0  0  0
   39.6180   30.9700   42.9340 O   0  0  0  0  0  0  0  0  0  0  0  0
   39.2930   31.4530   38.6820 H   0  0  0  0  0  0  0  0  0  0  0  0
   41.4340   32.7670   38.6210 H   0  0  0  0  0  0  0  0  0  0  0  0
   41.7990   32.3120   42.8290 H   0  0  0  0  0  0  0  0  0  0  0  0
   36.8870   27.4270   43.6800 Cl  0  0  0  0  0  0  0  0  0  0  0  0
   36.9480   26.3800   42.2760 C   0  0  0  0  0  0  0  0  0  0  0  0
   36.9970   26.9570   41.0210 C   0  0  0  0  0  0  0  0  0  0  0  0
   37.0450   26.1590   39.8870 C   0  0  0  0  0  0  0  0  0  0  0  0
   37.0820   26.6830   38.9360 H   0  0  0  0  0  0  0  0  0  0  0  0
   37.0480   24.7650   39.9680 C   0  0  0  0  0  0  0  0  0  0  0  0
   37.0870   24.1890   39.0530 H   0  0  0  0  0  0  0  0  0  0  0  0
   36.9990   24.2250   41.2280 C   0  0  0  0  0  3  0  0  0  0  0  0
   36.9500   24.9950   42.3740 C   0  0  0  0  0  3  0  0  0  0  0  0
  1  6  1  0  0  0  0
  2  1  2  0  0  0  0
  2  3  1  0  0  0  0
  3  4  2  0  0  0  0
  4  5  1  0  0  0  0
  5 22  1  0  0  0  0
  6  5  2  0  0  0  0
  7  1  1  0  0  0  0
  8  2  1  0  0  0  0
  9  3  1  0  0  0  0
  9 15  1  0  0  0  0
 10  9  1  0  0  0  0
 11 10  2  0  0  0  0
 11 12  1  0  0  0  0
 12 14  1  0  0  0  0
 13 12  2  0  0  0  0
 14 19  1  0  0  0  0
 15 14  1  0  0  0  0
 15 16  2  0  0  0  0
 17 10  1  0  0  0  0
 18 11  1  0  0  0  0
 21 28  1  0  0  0  0
 21 20  1  0  0  0  0
 22 21  2  0  0  0  0
 23 25  2  0  0  0  0
 23 22  1  0  0  0  0
 24 23  1  0  0  0  0
 25 27  1  0  0  0  0
 26 25  1  0  0  0  0
 27 28  2  0  0  0  0
M  END
>  <minimizedAffinity>
-5.66857433

$$$$

 OpenBabel03242521153D

 28 30  0  0  0  0  0  0  0  0999 V2000
   34.8310   27.3720   37.6300 C   0  0  0  0  0  0  0  0  0  0  0  0
   35.1710   28.7220   37.9010 C   0  0  0  0  0  0  0  0  0  0  0  0
   36.2330   28.9420   38.7920 C   0  0  0  0  0  0  0  0  0  0  0  0
   36.8670   27.8750   39.3390 N   0  0  0  0  0  0  0  0  0  0  0  0
   36.5220   26.6060   39.0620 C   0  0  0  0  0  0  0  0  0  0  0  0
   35.5070   26.3420   38.2100 N   0  0  0  0  0  0  0  0  0  0  0  0
   34.0140   27.1620   36.9430 H   0  0  0  0  0  0  0  0  0  0  0  0
   34.6380   29.5350   37.4430 H   0  0  0  0  0  0  0  0  0  0  0  0
   36.5800   30.2960   39.0720 N   0  0  0  0  0  0  0  0  0  0  0  0
   37.1890   30.9970   38.0800 C   0  0  0  0  0  0  0  0  0  0  0  0
   37.5460   32.3220   38.3220 C   0  0  0  0  0  0  0  0  0  0  0  0
   37.2540   32.8390   39.5700 C   0  0  0  0  0  0  0  0  0  0  0  0
   37.5860   34.0550   39.7810 O   0  0  0  0  0  0  0  0  0  0  0  0
   36.6440   32.1410   40.5680 N   0  0  0  0  0  0  0  0  0  0  0  0
   36.3310   30.8670   40.2520 C   0  0  0  0  0  0  0  0  0  0  0  0
   35.7730   30.1390   41.0810 O   0  0  0  0  0  0  0  0  0  0  0  0
   37.3870   30.5240   37.1230 H   0  0  0  0  0  0  0  0  0  0  0  0
   38.0280   32.9130   37.5680 H   0  0  0  0  0  0  0  0  0  0  0  0
   36.4440   32.5770   41.4950 H   0  0  0  0  0  0  0  0  0  0  0  0
   38.8060   25.6100   37.4800 Cl  0  0  0  0  0  0  0  0  0  0  0  0
   38.3300   24.9440   39.0290 C   0  0  0  0  0  0  0  0  0  0  0  0
   37.2410   25.4930   39.6790 C   0  0  0  0  0  0  0  0  0  0  0  0
   36.8360   24.9920   40.9080 C   0  0  0  0  0  0  0  0  0  0  0  0
   35.9720   25.4730   41.3580 H   0  0  0  0  0  0  0  0  0  0  0  0
   37.5010   23.9300   41.5240 C   0  0  0  0  0  0  0  0  0  0  0  0
   37.1440   23.5770   42.4830 H   0  0  0  0  0  0  0  0  0  0  0  0
   38.5770   23.4080   40.8520 C   0  0  0  0  0  3  0  0  0  0  0  0
   39.0030   23.8880   39.6280 C   0  0  0  0  0  3  0  0  0  0  0  0
  1  2  2  0  0  0  0
  1  6  1  0  0  0  0
  2  3  1  0  0  0  0
  3  9  1  0  0  0  0
  3  4  2  0  0  0  0
  5  4  1  0  0  0  0
  5 22  1  0  0  0  0
  6  5  2  0  0  0  0
  7  1  1  0  0  0  0
  8  2  1  0  0  0  0
  9 15  1  0  0  0  0
 10 11  2  0  0  0  0
 10  9  1  0  0  0  0
 11 12  1  0  0  0  0
 12 13  2  0  0  0  0
 12 14  1  0  0  0  0
 14 19  1  0  0  0  0
 15 14  1  0  0  0  0
 15 16  2  0  0  0  0
 17 10  1  0  0  0  0
 18 11  1  0  0  0  0
 20 21  1  0  0  0  0
 21 28  2  0  0  0  0
 21 22  1  0  0  0  0
 22 23  2  0  0  0  0
 23 24  1  0  0  0  0
 23 25  1  0  0  0  0
 25 26  1  0  0  0  0
 27 25  2  0  0  0  0
 28 27  1  0  0  0  0
M  END
>  <minimizedAffinity>
-5.3991766

$$$$

 OpenBabel03242521153D

 28 30  0  0  0  0  0  0  0  0999 V2000
   36.0280   29.6070   37.7640 C   0  0  0  0  0  0  0  0  0  0  0  0
   37.0590   30.5720   37.6440 C   0  0  0  0  0  0  0  0  0  0  0  0
   38.0580   30.5600   38.6310 C   0  0  0  0  0  0  0  0  0  0  0  0
   37.9870   29.6440   39.6290 N   0  0  0  0  0  0  0  0  0  0  0  0
   36.9960   28.7410   39.7160 C   0  0  0  0  0  0  0  0  0  0  0  0
   36.0110   28.7120   38.7910 N   0  0  0  0  0  0  0  0  0  0  0  0
   35.2360   29.5860   37.0180 H   0  0  0  0  0  0  0  0  0  0  0  0
   37.0720   31.2790   36.8340 H   0  0  0  0  0  0  0  0  0  0  0  0
   39.0980   31.5280   38.5190 N   0  0  0  0  0  0  0  0  0  0  0  0
   40.1290   31.2360   37.6830 C   0  0  0  0  0  0  0  0  0  0  0  0
   41.1650   32.1580   37.5550 C   0  0  0  0  0  0  0  0  0  0  0  0
   41.0730   33.3220   38.2950 C   0  0  0  0  0  0  0  0  0  0  0  0
   42.0290   34.1610   38.1680 O   0  0  0  0  0  0  0  0  0  0  0  0
   40.0420   33.6200   39.1330 N   0  0  0  0  0  0  0  0  0  0  0  0
   39.0810   32.6750   39.2000 C   0  0  0  0  0  0  0  0  0  0  0  0
   38.0960   32.8390   39.9290 O   0  0  0  0  0  0  0  0  0  0  0  0
   40.1350   30.3000   37.1330 H   0  0  0  0  0  0  0  0  0  0  0  0
   41.9990   31.9700   36.9070 H   0  0  0  0  0  0  0  0  0  0  0  0
   40.0180   34.5140   39.6720 H   0  0  0  0  0  0  0  0  0  0  0  0
   37.8280   26.0130   38.9550 Cl  0  0  0  0  0  0  0  0  0  0  0  0
   37.3390   26.4660   40.5750 C   0  0  0  0  0  0  0  0  0  0  0  0
   36.9690   27.7760   40.8140 C   0  0  0  0  0  0  0  0  0  0  0  0
   36.5770   28.1710   42.0850 C   0  0  0  0  0  0  0  0  0  0  0  0
   36.3000   29.2160   42.1960 H   0  0  0  0  0  0  0  0  0  0  0  0
   36.5410   27.2740   43.1540 C   0  0  0  0  0  0  0  0  0  0  0  0
   36.2270   27.6340   44.1260 H   0  0  0  0  0  0  0  0  0  0  0  0
   36.9140   25.9820   42.8840 C   0  0  0  0  0  3  0  0  0  0  0  0
   37.3090   25.5620   41.6280 C   0  0  0  0  0  3  0  0  0  0  0  0
  1  6  1  0  0  0  0
  2  1  2  0  0  0  0
  2  3  1  0  0  0  0
  3  4  2  0  0  0  0
  4  5  1  0  0  0  0
  5 22  1  0  0  0  0
  6  5  2  0  0  0  0
  7  1  1  0  0  0  0
  8  2  1  0  0  0  0
  9  3  1  0  0  0  0
  9 15  1  0  0  0  0
 10  9  1  0  0  0  0
 11 10  2  0  0  0  0
 11 12  1  0  0  0  0
 12 14  1  0  0  0  0
 13 12  2  0  0  0  0
 14 15  1  0  0  0  0
 14 19  1  0  0  0  0
 15 16  2  0  0  0  0
 17 10  1  0  0  0  0
 18 11  1  0  0  0  0
 20 21  1  0  0  0  0
 21 22  2  0  0  0  0
 21 28  1  0  0  0  0
 22 23  1  0  0  0  0
 23 24  1  0  0  0  0
 23 25  2  0  0  0  0
 25 26  1  0  0  0  0
 27 25  1  0  0  0  0
 28 27  2  0  0  0  0
M  END
>  <minimizedAffinity>
-5.3482399

$$$$

 OpenBabel03242521153D

 28 30  0  0  0  0  0  0  0  0999 V2000
   36.9360   32.3190   40.1590 C   0  0  0  0  0  0  0  0  0  0  0  0
   38.1600   32.7080   39.5570 C   0  0  0  0  0  0  0  0  0  0  0  0
   39.2390   31.8180   39.6820 C   0  0  0  0  0  0  0  0  0  0  0  0
   39.0600   30.6560   40.3590 N   0  0  0  0  0  0  0  0  0  0  0  0
   37.8870   30.3160   40.9190 C   0  0  0  0  0  0  0  0  0  0  0  0
   36.8190   31.1380   40.8260 N   0  0  0  0  0  0  0  0  0  0  0  0
   36.0780   32.9830   40.0820 H   0  0  0  0  0  0  0  0  0  0  0  0
   38.2530   33.6400   39.0300 H   0  0  0  0  0  0  0  0  0  0  0  0
   40.4740   32.2000   39.0810 N   0  0  0  0  0  0  0  0  0  0  0  0
   40.6860   31.8090   37.7970 C   0  0  0  0  0  0  0  0  0  0  0  0
   41.8840   32.1630   37.1820 C   0  0  0  0  0  0  0  0  0  0  0  0
   42.7870   32.8960   37.9280 C   0  0  0  0  0  0  0  0  0  0  0  0
   43.8840   33.2140   37.3530 O   0  0  0  0  0  0  0  0  0  0  0  0
   42.5810   33.2910   39.2150 N   0  0  0  0  0  0  0  0  0  0  0  0
   41.3960   32.9080   39.7360 C   0  0  0  0  0  0  0  0  0  0  0  0
   41.0990   33.2120   40.8970 O   0  0  0  0  0  0  0  0  0  0  0  0
   39.9290   31.2340   37.2720 H   0  0  0  0  0  0  0  0  0  0  0  0
   42.0940   31.8760   36.1700 H   0  0  0  0  0  0  0  0  0  0  0  0
   43.2950   33.8440   39.7370 H   0  0  0  0  0  0  0  0  0  0  0  0
   36.7410   28.1230   39.3080 Cl  0  0  0  0  0  0  0  0  0  0  0  0
   37.2250   27.9510   40.9830 C   0  0  0  0  0  0  0  0  0  0  0  0
   37.7510   29.0500   41.6370 C   0  0  0  0  0  0  0  0  0  0  0  0
   38.1460   28.9500   42.9630 C   0  0  0  0  0  0  0  0  0  0  0  0
   38.5490   29.8550   43.4110 H   0  0  0  0  0  0  0  0  0  0  0  0
   38.0280   27.7560   43.6770 C   0  0  0  0  0  0  0  0  0  0  0  0
   38.3510   27.7320   44.7100 H   0  0  0  0  0  0  0  0  0  0  0  0
   37.5040   26.6850   42.9990 C   0  0  0  0  0  3  0  0  0  0  0  0
   37.1030   26.7560   41.6780 C   0  0  0  0  0  3  0  0  0  0  0  0
  1  6  1  0  0  0  0
  2  3  1  0  0  0  0
  2  1  2  0  0  0  0
  3  4  2  0  0  0  0
  4  5  1  0  0  0  0
  5 22  1  0  0  0  0
  6  5  2  0  0  0  0
  7  1  1  0  0  0  0
  8  2  1  0  0  0  0
  9  3  1  0  0  0  0
  9 15  1  0  0  0  0
 10  9  1  0  0  0  0
 11 10  2  0  0  0  0
 11 12  1  0  0  0  0
 12 14  1  0  0  0  0
 13 12  2  0  0  0  0
 14 15  1  0  0  0  0
 14 19  1  0  0  0  0
 15 16  2  0  0  0  0
 17 10  1  0  0  0  0
 18 11  1  0  0  0  0
 20 21  1  0  0  0  0
 21 22  2  0  0  0  0
 21 28  1  0  0  0  0
 22 23  1  0  0  0  0
 23 24  1  0  0  0  0
 23 25  2  0  0  0  0
 25 26  1  0  0  0  0
 27 25  1  0  0  0  0
 28 27  2  0  0  0  0
M  END
>  <minimizedAffinity>
-5.22735262

$$$$

 OpenBabel03242521153D

 28 30  0  0  0  0  0  0  0  0999 V2000
   36.2080   30.4290   41.4580 C   0  0  0  0  0  0  0  0  0  0  0  0
   36.0930   30.3030   40.0510 C   0  0  0  0  0  0  0  0  0  0  0  0
   36.9930   29.4310   39.4160 C   0  0  0  0  0  0  0  0  0  0  0  0
   37.9080   28.7680   40.1660 N   0  0  0  0  0  0  0  0  0  0  0  0
   37.9920   28.9090   41.5000 C   0  0  0  0  0  0  0  0  0  0  0  0
   37.1490   29.7360   42.1570 N   0  0  0  0  0  0  0  0  0  0  0  0
   35.5280   31.0950   41.9840 H   0  0  0  0  0  0  0  0  0  0  0  0
   35.3510   30.8510   39.4990 H   0  0  0  0  0  0  0  0  0  0  0  0
   36.8860   29.2990   38.0010 N   0  0  0  0  0  0  0  0  0  0  0  0
   36.2090   28.2190   37.5290 C   0  0  0  0  0  0  0  0  0  0  0  0
   36.0900   28.0580   36.1500 C   0  0  0  0  0  0  0  0  0  0  0  0
   36.6760   29.0170   35.3470 C   0  0  0  0  0  0  0  0  0  0  0  0
   36.5600   28.8590   34.0830 O   0  0  0  0  0  0  0  0  0  0  0  0
   37.3540   30.1010   35.8140 N   0  0  0  0  0  0  0  0  0  0  0  0
   37.4230   30.1840   37.1590 C   0  0  0  0  0  0  0  0  0  0  0  0
   38.0140   31.1270   37.6960 O   0  0  0  0  0  0  0  0  0  0  0  0
   35.7750   27.5040   38.2210 H   0  0  0  0  0  0  0  0  0  0  0  0
   35.5650   27.2200   35.7330 H   0  0  0  0  0  0  0  0  0  0  0  0
   37.7800   30.8000   35.1650 H   0  0  0  0  0  0  0  0  0  0  0  0
   37.0580   26.3080   42.5390 Cl  0  0  0  0  0  0  0  0  0  0  0  0
   38.6740   26.9360   42.7950 C   0  0  0  0  0  0  0  0  0  0  0  0
   38.9980   28.1680   42.2600 C   0  0  0  0  0  0  0  0  0  0  0  0
   40.2680   28.6960   42.4410 C   0  0  0  0  0  0  0  0  0  0  0  0
   40.4490   29.6680   41.9920 H   0  0  0  0  0  0  0  0  0  0  0  0
   41.2510   28.0140   43.1610 C   0  0  0  0  0  0  0  0  0  0  0  0
   42.2260   28.4710   43.2730 H   0  0  0  0  0  0  0  0  0  0  0  0
   40.8970   26.7940   43.6780 C   0  0  0  0  0  3  0  0  0  0  0  0
   39.6400   26.2450   43.5120 C   0  0  0  0  0  3  0  0  0  0  0  0
  1  7  1  0  0  0  0
  1  6  1  0  0  0  0
  2  1  2  0  0  0  0
  3  2  1  0  0  0  0
  3  4  2  0  0  0  0
  4  5  1  0  0  0  0
  5  6  2  0  0  0  0
  5 22  1  0  0  0  0
  8  2  1  0  0  0  0
  9  3  1  0  0  0  0
 10  9  1  0  0  0  0
 10 17  1  0  0  0  0
 11 10  2  0  0  0  0
 12 14  1  0  0  0  0
 12 11  1  0  0  0  0
 13 12  2  0  0  0  0
 14 15  1  0  0  0  0
 15 16  2  0  0  0  0
 15  9  1  0  0  0  0
 18 11  1  0  0  0  0
 19 14  1  0  0  0  0
 20 21  1  0  0  0  0
 21 28  1  0  0  0  0
 22 23  1  0  0  0  0
 22 21  2  0  0  0  0
 23 25  2  0  0  0  0
 24 23  1  0  0  0  0
 25 26  1  0  0  0  0
 25 27  1  0  0  0  0
 28 27  2  0  0  0  0
M  END
>  <minimizedAffinity>
-5.21748924

$$$$
