
 OpenBabel03252504503D

 24 25  0  0  0  0  0  0  0  0999 V2000
   36.1730   30.7650   40.7010 C   0  0  0  0  0  0  0  0  0  0  0  0
   37.3900   31.3490   40.3600 C   0  0  0  0  0  0  0  0  0  0  0  0
   38.4890   30.5030   40.2150 C   0  0  0  0  0  0  0  0  0  0  0  0
   38.3110   29.1620   40.4140 N   0  0  0  0  0  0  0  0  0  0  0  0
   37.1120   28.6300   40.7450 C   0  0  0  0  0  0  0  0  0  0  0  0
   36.0500   29.4330   40.8870 N   0  0  0  0  0  0  0  0  0  0  0  0
   35.2540   31.3140   40.8420 H   0  0  0  0  0  0  0  0  0  0  0  0
   39.4420   30.9310   39.9510 H   0  0  0  0  0  0  0  0  0  0  0  0
   37.4740   27.7780   43.5370 Cl  0  0  0  0  0  0  0  0  0  0  0  0
   37.1420   26.6650   42.2090 C   0  0  0  0  0  0  0  0  0  0  0  0
   36.9930   27.1900   40.9420 C   0  0  0  0  0  0  0  0  0  0  0  0
   36.7310   26.3860   39.8490 C   0  0  0  0  0  0  0  0  0  0  0  0
   36.6090   26.7730   38.8410 H   0  0  0  0  0  0  0  0  0  0  0  0
   36.6180   25.0160   40.0310 C   0  0  0  0  0  0  0  0  0  0  0  0
   36.4130   24.3700   39.1870 H   0  0  0  0  0  0  0  0  0  0  0  0
   36.7680   24.4830   41.3130 C   0  0  0  0  0  3  0  0  0  0  0  0
   37.0300   25.3190   42.3890 C   0  0  0  0  0  3  0  0  0  0  0  0
   37.4530   32.7780   40.1710 C   0  0  0  0  0  0  0  0  0  0  0  0
   36.6040   33.2870   40.6390 H   0  0  0  0  0  0  0  0  0  0  0  0
   37.4700   32.9830   39.0630 H   0  0  0  0  0  0  0  0  0  0  0  0
   38.7890   33.2730   40.6930 C   0  0  0  0  0  0  0  0  0  0  0  0
   38.6240   33.7640   41.6940 H   0  0  0  0  0  0  0  0  0  0  0  0
   39.4930   32.4430   40.8730 H   0  0  0  0  0  0  0  0  0  0  0  0
   39.2280   34.0400   39.9980 H   0  0  0  0  0  0  0  0  0  0  0  0
  1  7  1  0  0  0  0
  1  6  1  0  0  0  0
  2  1  2  0  0  0  0
  3  2  1  0  0  0  0
  3  4  2  0  0  0  0
  4  5  1  0  0  0  0
  5  6  2  0  0  0  0
  5 11  1  0  0  0  0
  8  3  1  0  0  0  0
 10 17  1  0  0  0  0
 10  9  1  0  0  0  0
 11 10  2  0  0  0  0
 12 14  2  0  0  0  0
 12 11  1  0  0  0  0
 13 12  1  0  0  0  0
 14 16  1  0  0  0  0
 15 14  1  0  0  0  0
 16 17  2  0  0  0  0
 18  2  1  0  0  0  0
 18 19  1  0  0  0  0
 18 21  1  0  0  0  0
 20 18  1  0  0  0  0
 21 23  1  0  0  0  0
 21 22  1  0  0  0  0
 24 21  1  0  0  0  0
M  END
>  <minimizedAffinity>
-4.66077852

$$$$

 OpenBabel03252504503D

 24 25  0  0  0  0  0  0  0  0999 V2000
   36.7820   27.9470   42.5250 C   0  0  0  0  0  0  0  0  0  0  0  0
   37.3530   26.9100   41.7920 C   0  0  0  0  0  0  0  0  0  0  0  0
   38.0980   27.2560   40.6660 C   0  0  0  0  0  0  0  0  0  0  0  0
   38.2240   28.5800   40.3480 N   0  0  0  0  0  0  0  0  0  0  0  0
   37.6540   29.5600   41.0840 C   0  0  0  0  0  0  0  0  0  0  0  0
   36.9360   29.2400   42.1690 N   0  0  0  0  0  0  0  0  0  0  0  0
   36.1850   27.8060   43.4140 H   0  0  0  0  0  0  0  0  0  0  0  0
   38.5510   26.4710   40.0810 H   0  0  0  0  0  0  0  0  0  0  0  0
   39.8470   30.9280   42.4890 Cl  0  0  0  0  0  0  0  0  0  0  0  0
   38.8280   31.7040   41.2760 C   0  0  0  0  0  0  0  0  0  0  0  0
   37.8300   30.9530   40.6880 C   0  0  0  0  0  0  0  0  0  0  0  0
   36.9900   31.4860   39.7300 C   0  0  0  0  0  0  0  0  0  0  0  0
   36.1970   30.9180   39.2520 H   0  0  0  0  0  0  0  0  0  0  0  0
   37.1530   32.8100   39.3500 C   0  0  0  0  0  0  0  0  0  0  0  0
   36.5040   33.2450   38.6010 H   0  0  0  0  0  0  0  0  0  0  0  0
   38.1620   33.5700   39.9440 C   0  0  0  0  0  3  0  0  0  0  0  0
   38.9890   33.0050   40.9030 C   0  0  0  0  0  3  0  0  0  0  0  0
   37.1540   25.5500   42.2300 C   0  0  0  0  0  0  0  0  0  0  0  0
   36.3540   25.4760   42.9740 H   0  0  0  0  0  0  0  0  0  0  0  0
   38.1260   25.1760   42.6620 H   0  0  0  0  0  0  0  0  0  0  0  0
   36.8960   24.6850   41.0100 C   0  0  0  0  0  0  0  0  0  0  0  0
   35.7930   24.4610   40.9560 H   0  0  0  0  0  0  0  0  0  0  0  0
   37.1460   25.2110   40.0730 H   0  0  0  0  0  0  0  0  0  0  0  0
   37.4470   23.7080   41.0920 H   0  0  0  0  0  0  0  0  0  0  0  0
  1  7  1  0  0  0  0
  2 18  1  0  0  0  0
  2  1  2  0  0  0  0
  3  2  1  0  0  0  0
  4  3  2  0  0  0  0
  4  5  1  0  0  0  0
  5  6  2  0  0  0  0
  6  1  1  0  0  0  0
  8  3  1  0  0  0  0
 10  9  1  0  0  0  0
 11  5  1  0  0  0  0
 11 10  2  0  0  0  0
 12 11  1  0  0  0  0
 13 12  1  0  0  0  0
 14 12  2  0  0  0  0
 14 16  1  0  0  0  0
 15 14  1  0  0  0  0
 16 17  2  0  0  0  0
 17 10  1  0  0  0  0
 18 20  1  0  0  0  0
 18 19  1  0  0  0  0
 21 24  1  0  0  0  0
 21 18  1  0  0  0  0
 22 21  1  0  0  0  0
 23 21  1  0  0  0  0
M  END
>  <minimizedAffinity>
-4.59169292

$$$$

 OpenBabel03252504503D

 24 25  0  0  0  0  0  0  0  0999 V2000
   37.7050   26.5190   40.7890 C   0  0  0  0  0  0  0  0  0  0  0  0
   37.1680   26.1050   42.0050 C   0  0  0  0  0  0  0  0  0  0  0  0
   36.9000   27.0890   42.9560 C   0  0  0  0  0  0  0  0  0  0  0  0
   37.1780   28.3910   42.6430 N   0  0  0  0  0  0  0  0  0  0  0  0
   37.7010   28.7550   41.4510 C   0  0  0  0  0  0  0  0  0  0  0  0
   37.9620   27.8190   40.5300 N   0  0  0  0  0  0  0  0  0  0  0  0
   37.9550   25.8520   39.9770 H   0  0  0  0  0  0  0  0  0  0  0  0
   36.4830   26.7940   43.9050 H   0  0  0  0  0  0  0  0  0  0  0  0
   35.5240   30.1380   40.0370 Cl  0  0  0  0  0  0  0  0  0  0  0  0
   37.0260   30.9220   40.5250 C   0  0  0  0  0  0  0  0  0  0  0  0
   37.9720   30.1640   41.1830 C   0  0  0  0  0  0  0  0  0  0  0  0
   39.1740   30.7030   41.6000 C   0  0  0  0  0  0  0  0  0  0  0  0
   39.9360   30.1280   42.1190 H   0  0  0  0  0  0  0  0  0  0  0  0
   39.4370   32.0410   41.3470 C   0  0  0  0  0  0  0  0  0  0  0  0
   40.3730   32.4810   41.6650 H   0  0  0  0  0  0  0  0  0  0  0  0
   38.4810   32.8100   40.6820 C   0  0  0  0  0  3  0  0  0  0  0  0
   37.2840   32.2380   40.2770 C   0  0  0  0  0  3  0  0  0  0  0  0
   36.9130   24.7010   42.2170 C   0  0  0  0  0  0  0  0  0  0  0  0
   36.1330   24.5380   42.9670 H   0  0  0  0  0  0  0  0  0  0  0  0
   37.8770   24.2160   42.5420 H   0  0  0  0  0  0  0  0  0  0  0  0
   36.5750   24.0670   40.8800 C   0  0  0  0  0  0  0  0  0  0  0  0
   35.4610   23.9050   40.8310 H   0  0  0  0  0  0  0  0  0  0  0  0
   36.8230   24.7320   40.0350 H   0  0  0  0  0  0  0  0  0  0  0  0
   37.0770   23.0660   40.7760 H   0  0  0  0  0  0  0  0  0  0  0  0
  1  2  1  0  0  0  0
  2 18  1  0  0  0  0
  2  3  2  0  0  0  0
  3  8  1  0  0  0  0
  4  3  1  0  0  0  0
  5  4  2  0  0  0  0
  6  1  2  0  0  0  0
  6  5  1  0  0  0  0
  7  1  1  0  0  0  0
  9 10  1  0  0  0  0
 10 11  1  0  0  0  0
 11  5  1  0  0  0  0
 11 12  2  0  0  0  0
 12 13  1  0  0  0  0
 14 12  1  0  0  0  0
 14 15  1  0  0  0  0
 16 14  2  0  0  0  0
 17 10  2  0  0  0  0
 17 16  1  0  0  0  0
 18 20  1  0  0  0  0
 18 19  1  0  0  0  0
 21 18  1  0  0  0  0
 22 21  1  0  0  0  0
 23 21  1  0  0  0  0
 24 21  1  0  0  0  0
M  END
>  <minimizedAffinity>
-4.50514841

$$$$

 OpenBabel03252504503D

 24 25  0  0  0  0  0  0  0  0999 V2000
   38.2340   30.4640   39.7610 C   0  0  0  0  0  0  0  0  0  0  0  0
   37.2290   31.3330   40.1770 C   0  0  0  0  0  0  0  0  0  0  0  0
   36.1120   30.7730   40.7950 C   0  0  0  0  0  0  0  0  0  0  0  0
   36.0670   29.4160   40.9550 N   0  0  0  0  0  0  0  0  0  0  0  0
   37.0630   28.6020   40.5380 C   0  0  0  0  0  0  0  0  0  0  0  0
   38.1410   29.1290   39.9430 N   0  0  0  0  0  0  0  0  0  0  0  0
   39.1450   30.7770   39.2720 H   0  0  0  0  0  0  0  0  0  0  0  0
   35.3200   31.4250   41.1270 H   0  0  0  0  0  0  0  0  0  0  0  0
   36.2090   27.1260   38.1410 Cl  0  0  0  0  0  0  0  0  0  0  0  0
   36.5570   26.3590   39.6900 C   0  0  0  0  0  0  0  0  0  0  0  0
   36.9500   27.1620   40.7410 C   0  0  0  0  0  0  0  0  0  0  0  0
   37.2420   26.6390   41.9860 C   0  0  0  0  0  0  0  0  0  0  0  0
   37.5530   27.2480   42.8300 H   0  0  0  0  0  0  0  0  0  0  0  0
   37.1350   25.2700   42.1840 C   0  0  0  0  0  0  0  0  0  0  0  0
   37.3590   24.8420   43.1530 H   0  0  0  0  0  0  0  0  0  0  0  0
   36.7390   24.4560   41.1230 C   0  0  0  0  0  3  0  0  0  0  0  0
   36.4530   25.0140   39.8850 C   0  0  0  0  0  3  0  0  0  0  0  0
   37.3930   32.7500   39.9580 C   0  0  0  0  0  0  0  0  0  0  0  0
   36.5040   33.3130   40.2590 H   0  0  0  0  0  0  0  0  0  0  0  0
   37.6060   32.9100   38.8620 H   0  0  0  0  0  0  0  0  0  0  0  0
   38.6460   33.2070   40.6830 C   0  0  0  0  0  0  0  0  0  0  0  0
   38.3380   33.7430   41.6250 H   0  0  0  0  0  0  0  0  0  0  0  0
   39.2680   32.3550   41.0060 H   0  0  0  0  0  0  0  0  0  0  0  0
   39.2320   33.9270   40.0480 H   0  0  0  0  0  0  0  0  0  0  0  0
  1  6  2  0  0  0  0
  1  2  1  0  0  0  0
  2  3  2  0  0  0  0
  3  4  1  0  0  0  0
  3  8  1  0  0  0  0
  5 11  1  0  0  0  0
  5  4  2  0  0  0  0
  6  5  1  0  0  0  0
  7  1  1  0  0  0  0
  9 10  1  0  0  0  0
 10 17  2  0  0  0  0
 10 11  1  0  0  0  0
 11 12  2  0  0  0  0
 12 14  1  0  0  0  0
 12 13  1  0  0  0  0
 14 15  1  0  0  0  0
 16 14  2  0  0  0  0
 17 16  1  0  0  0  0
 18  2  1  0  0  0  0
 18 19  1  0  0  0  0
 18 21  1  0  0  0  0
 20 18  1  0  0  0  0
 21 23  1  0  0  0  0
 21 22  1  0  0  0  0
 24 21  1  0  0  0  0
M  END
>  <minimizedAffinity>
-4.42880678

$$$$

 OpenBabel03252504503D

 24 25  0  0  0  0  0  0  0  0999 V2000
   38.5470   30.5170   39.4090 C   0  0  0  0  0  0  0  0  0  0  0  0
   37.4650   31.2900   39.8200 C   0  0  0  0  0  0  0  0  0  0  0  0
   36.8180   30.9130   40.9950 C   0  0  0  0  0  0  0  0  0  0  0  0
   37.2770   29.8160   41.6700 N   0  0  0  0  0  0  0  0  0  0  0  0
   38.3320   29.0880   41.2400 C   0  0  0  0  0  0  0  0  0  0  0  0
   38.9620   29.4410   40.1120 N   0  0  0  0  0  0  0  0  0  0  0  0
   39.1270   30.7080   38.5180 H   0  0  0  0  0  0  0  0  0  0  0  0
   35.9760   31.4960   41.3350 H   0  0  0  0  0  0  0  0  0  0  0  0
   36.9030   26.6070   40.5690 Cl  0  0  0  0  0  0  0  0  0  0  0  0
   38.1750   26.7040   41.7870 C   0  0  0  0  0  0  0  0  0  0  0  0
   38.7700   27.9290   42.0100 C   0  0  0  0  0  0  0  0  0  0  0  0
   39.7740   28.0890   42.9450 C   0  0  0  0  0  0  0  0  0  0  0  0
   40.2580   29.0420   43.1400 H   0  0  0  0  0  0  0  0  0  0  0  0
   40.1930   26.9900   43.6800 C   0  0  0  0  0  0  0  0  0  0  0  0
   40.9780   27.0970   44.4170 H   0  0  0  0  0  0  0  0  0  0  0  0
   39.5930   25.7510   43.4550 C   0  0  0  0  0  3  0  0  0  0  0  0
   38.5880   25.6240   42.5080 C   0  0  0  0  0  3  0  0  0  0  0  0
   37.0760   32.4300   39.0250 C   0  0  0  0  0  0  0  0  0  0  0  0
   36.0030   32.4290   38.8120 H   0  0  0  0  0  0  0  0  0  0  0  0
   37.6660   32.4030   38.0650 H   0  0  0  0  0  0  0  0  0  0  0  0
   37.5270   33.6910   39.7400 C   0  0  0  0  0  0  0  0  0  0  0  0
   36.6300   34.1650   40.2290 H   0  0  0  0  0  0  0  0  0  0  0  0
   38.2370   33.4690   40.5550 H   0  0  0  0  0  0  0  0  0  0  0  0
   37.9570   34.4290   39.0100 H   0  0  0  0  0  0  0  0  0  0  0  0
  1  2  2  0  0  0  0
  1  6  1  0  0  0  0
  2  3  1  0  0  0  0
  3  8  1  0  0  0  0
  3  4  2  0  0  0  0
  5  4  1  0  0  0  0
  5 11  1  0  0  0  0
  6  5  2  0  0  0  0
  7  1  1  0  0  0  0
  9 10  1  0  0  0  0
 10 11  2  0  0  0  0
 10 17  1  0  0  0  0
 11 12  1  0  0  0  0
 12 13  1  0  0  0  0
 12 14  2  0  0  0  0
 14 15  1  0  0  0  0
 16 14  1  0  0  0  0
 17 16  2  0  0  0  0
 18 21  1  0  0  0  0
 18  2  1  0  0  0  0
 19 18  1  0  0  0  0
 20 18  1  0  0  0  0
 21 22  1  0  0  0  0
 21 23  1  0  0  0  0
 24 21  1  0  0  0  0
M  END
>  <minimizedAffinity>
-4.41947842

$$$$

 OpenBabel03252504503D

 24 25  0  0  0  0  0  0  0  0999 V2000
   37.3410   27.8020   42.3970 C   0  0  0  0  0  0  0  0  0  0  0  0
   38.2620   26.9150   41.8460 C   0  0  0  0  0  0  0  0  0  0  0  0
   39.1280   27.4130   40.8740 C   0  0  0  0  0  0  0  0  0  0  0  0
   39.0240   28.7290   40.5190 N   0  0  0  0  0  0  0  0  0  0  0  0
   38.1160   29.5610   41.0770 C   0  0  0  0  0  0  0  0  0  0  0  0
   37.2780   29.0950   42.0120 N   0  0  0  0  0  0  0  0  0  0  0  0
   36.6200   27.5350   43.1550 H   0  0  0  0  0  0  0  0  0  0  0  0
   39.8510   26.7460   40.4320 H   0  0  0  0  0  0  0  0  0  0  0  0
   36.1510   30.0790   38.9500 Cl  0  0  0  0  0  0  0  0  0  0  0  0
   37.1760   31.3270   39.6590 C   0  0  0  0  0  0  0  0  0  0  0  0
   38.0600   30.9560   40.6520 C   0  0  0  0  0  0  0  0  0  0  0  0
   38.8970   31.8730   41.2600 C   0  0  0  0  0  0  0  0  0  0  0  0
   39.6010   31.6080   42.0430 H   0  0  0  0  0  0  0  0  0  0  0  0
   38.8480   33.2000   40.8590 C   0  0  0  0  0  0  0  0  0  0  0  0
   39.4960   33.9320   41.3230 H   0  0  0  0  0  0  0  0  0  0  0  0
   37.9540   33.5760   39.8550 C   0  0  0  0  0  3  0  0  0  0  0  0
   37.1270   32.6310   39.2660 C   0  0  0  0  0  3  0  0  0  0  0  0
   38.2790   25.5480   42.3050 C   0  0  0  0  0  0  0  0  0  0  0  0
   38.6180   25.4720   43.3430 H   0  0  0  0  0  0  0  0  0  0  0  0
   38.9620   24.9600   41.6260 H   0  0  0  0  0  0  0  0  0  0  0  0
   36.8980   24.9540   42.0980 C   0  0  0  0  0  0  0  0  0  0  0  0
   36.3720   24.9150   43.0940 H   0  0  0  0  0  0  0  0  0  0  0  0
   36.2710   25.5880   41.4480 H   0  0  0  0  0  0  0  0  0  0  0  0
   36.9710   23.9040   41.7020 H   0  0  0  0  0  0  0  0  0  0  0  0
  1  7  1  0  0  0  0
  2 18  1  0  0  0  0
  2  1  2  0  0  0  0
  3  2  1  0  0  0  0
  4  3  2  0  0  0  0
  4  5  1  0  0  0  0
  5  6  2  0  0  0  0
  6  1  1  0  0  0  0
  8  3  1  0  0  0  0
  9 10  1  0  0  0  0
 10 11  1  0  0  0  0
 11  5  1  0  0  0  0
 11 12  2  0  0  0  0
 12 13  1  0  0  0  0
 14 12  1  0  0  0  0
 14 15  1  0  0  0  0
 16 14  2  0  0  0  0
 17 10  2  0  0  0  0
 17 16  1  0  0  0  0
 18 19  1  0  0  0  0
 20 18  1  0  0  0  0
 21 18  1  0  0  0  0
 21 22  1  0  0  0  0
 23 21  1  0  0  0  0
 24 21  1  0  0  0  0
M  END
>  <minimizedAffinity>
-4.23147917

$$$$

 OpenBabel03252504503D

 24 25  0  0  0  0  0  0  0  0999 V2000
   36.6710   27.8010   40.9240 C   0  0  0  0  0  0  0  0  0  0  0  0
   36.8630   28.9640   41.6650 C   0  0  0  0  0  0  0  0  0  0  0  0
   36.4070   30.1590   41.1100 C   0  0  0  0  0  0  0  0  0  0  0  0
   35.8050   30.1220   39.8830 N   0  0  0  0  0  0  0  0  0  0  0  0
   35.6360   28.9710   39.1930 C   0  0  0  0  0  0  0  0  0  0  0  0
   36.0700   27.8170   39.7150 N   0  0  0  0  0  0  0  0  0  0  0  0
   36.9800   26.8170   41.2460 H   0  0  0  0  0  0  0  0  0  0  0  0
   36.5440   31.0740   41.6640 H   0  0  0  0  0  0  0  0  0  0  0  0
   37.4940   29.3360   36.9420 Cl  0  0  0  0  0  0  0  0  0  0  0  0
   35.7490   29.1690   36.7520 C   0  0  0  0  0  0  0  0  0  0  0  0
   34.9830   29.0030   37.8880 C   0  0  0  0  0  0  0  0  0  0  0  0
   33.6100   28.8650   37.8250 C   0  0  0  0  0  0  0  0  0  0  0  0
   32.9850   28.7330   38.7030 H   0  0  0  0  0  0  0  0  0  0  0  0
   32.9860   28.8950   36.5870 C   0  0  0  0  0  0  0  0  0  0  0  0
   31.9110   28.7880   36.5180 H   0  0  0  0  0  0  0  0  0  0  0  0
   33.7580   29.0620   35.4370 C   0  0  0  0  0  3  0  0  0  0  0  0
   35.1360   29.1980   35.5350 C   0  0  0  0  0  3  0  0  0  0  0  0
   37.5090   28.8770   42.9520 C   0  0  0  0  0  0  0  0  0  0  0  0
   37.3900   29.7990   43.5290 H   0  0  0  0  0  0  0  0  0  0  0  0
   38.6020   28.6600   42.7800 H   0  0  0  0  0  0  0  0  0  0  0  0
   36.9670   27.6600   43.6800 C   0  0  0  0  0  0  0  0  0  0  0  0
   36.2330   28.0070   44.4610 H   0  0  0  0  0  0  0  0  0  0  0  0
   36.4010   26.9950   43.0050 H   0  0  0  0  0  0  0  0  0  0  0  0
   37.7950   27.1070   44.2010 H   0  0  0  0  0  0  0  0  0  0  0  0
  1  7  1  0  0  0  0
  1  2  1  0  0  0  0
  2 18  1  0  0  0  0
  3  8  1  0  0  0  0
  3  2  2  0  0  0  0
  4  3  1  0  0  0  0
  5  6  1  0  0  0  0
  5  4  2  0  0  0  0
  6  1  2  0  0  0  0
 10  9  1  0  0  0  0
 10 11  1  0  0  0  0
 11  5  1  0  0  0  0
 12 11  2  0  0  0  0
 12 13  1  0  0  0  0
 14 12  1  0  0  0  0
 15 14  1  0  0  0  0
 16 17  1  0  0  0  0
 16 14  2  0  0  0  0
 17 10  2  0  0  0  0
 18 19  1  0  0  0  0
 18 21  1  0  0  0  0
 20 18  1  0  0  0  0
 21 24  1  0  0  0  0
 21 22  1  0  0  0  0
 23 21  1  0  0  0  0
M  END
>  <minimizedAffinity>
-4.21180964

$$$$

 OpenBabel03252504503D

 24 25  0  0  0  0  0  0  0  0999 V2000
   40.5760   31.7400   39.6360 C   0  0  0  0  0  0  0  0  0  0  0  0
   40.1920   33.0690   39.7960 C   0  0  0  0  0  0  0  0  0  0  0  0
   39.0770   33.3220   40.5930 C   0  0  0  0  0  0  0  0  0  0  0  0
   38.4290   32.2630   41.1650 N   0  0  0  0  0  0  0  0  0  0  0  0
   38.8310   30.9840   40.9870 C   0  0  0  0  0  0  0  0  0  0  0  0
   39.9020   30.7280   40.2230 N   0  0  0  0  0  0  0  0  0  0  0  0
   41.4200   31.4190   39.0440 H   0  0  0  0  0  0  0  0  0  0  0  0
   38.7590   34.3430   40.7320 H   0  0  0  0  0  0  0  0  0  0  0  0
   36.6510   29.8920   39.3420 Cl  0  0  0  0  0  0  0  0  0  0  0  0
   37.0470   29.3040   40.9570 C   0  0  0  0  0  0  0  0  0  0  0  0
   38.0950   29.9010   41.6290 C   0  0  0  0  0  0  0  0  0  0  0  0
   38.4680   29.4980   42.8960 C   0  0  0  0  0  0  0  0  0  0  0  0
   39.2890   29.9510   43.4460 H   0  0  0  0  0  0  0  0  0  0  0  0
   37.7700   28.4690   43.5100 C   0  0  0  0  0  0  0  0  0  0  0  0
   38.0490   28.1400   44.5030 H   0  0  0  0  0  0  0  0  0  0  0  0
   36.7110   27.8640   42.8330 C   0  0  0  0  0  3  0  0  0  0  0  0
   36.3610   28.2920   41.5600 C   0  0  0  0  0  3  0  0  0  0  0  0
   40.9580   34.1030   39.1440 C   0  0  0  0  0  0  0  0  0  0  0  0
   41.1510   34.9480   39.8120 H   0  0  0  0  0  0  0  0  0  0  0  0
   40.3830   34.4440   38.2360 H   0  0  0  0  0  0  0  0  0  0  0  0
   42.2350   33.4860   38.6030 C   0  0  0  0  0  0  0  0  0  0  0  0
   43.0870   33.7690   39.2850 H   0  0  0  0  0  0  0  0  0  0  0  0
   42.1940   32.3830   38.6090 H   0  0  0  0  0  0  0  0  0  0  0  0
   42.4640   33.8830   37.5760 H   0  0  0  0  0  0  0  0  0  0  0  0
  1  2  2  0  0  0  0
  1  6  1  0  0  0  0
  2  3  1  0  0  0  0
  3  8  1  0  0  0  0
  3  4  2  0  0  0  0
  5  4  1  0  0  0  0
  5 11  1  0  0  0  0
  6  5  2  0  0  0  0
  7  1  1  0  0  0  0
  9 10  1  0  0  0  0
 10 17  2  0  0  0  0
 10 11  1  0  0  0  0
 11 12  2  0  0  0  0
 12 13  1  0  0  0  0
 12 14  1  0  0  0  0
 14 15  1  0  0  0  0
 16 14  2  0  0  0  0
 17 16  1  0  0  0  0
 18  2  1  0  0  0  0
 18 19  1  0  0  0  0
 20 18  1  0  0  0  0
 21 23  1  0  0  0  0
 21 18  1  0  0  0  0
 21 22  1  0  0  0  0
 24 21  1  0  0  0  0
M  END
>  <minimizedAffinity>
-4.13050604

$$$$

 OpenBabel03252504503D

 24 25  0  0  0  0  0  0  0  0999 V2000
   38.4980   30.2910   39.3860 C   0  0  0  0  0  0  0  0  0  0  0  0
   37.4830   31.1040   39.8820 C   0  0  0  0  0  0  0  0  0  0  0  0
   37.0310   30.8480   41.1760 C   0  0  0  0  0  0  0  0  0  0  0  0
   37.6040   29.8230   41.8760 N   0  0  0  0  0  0  0  0  0  0  0  0
   38.5890   29.0530   41.3600 C   0  0  0  0  0  0  0  0  0  0  0  0
   39.0320   29.2890   40.1180 N   0  0  0  0  0  0  0  0  0  0  0  0
   38.9300   30.3900   38.4000 H   0  0  0  0  0  0  0  0  0  0  0  0
   36.2460   31.4640   41.5830 H   0  0  0  0  0  0  0  0  0  0  0  0
   41.0710   29.7920   42.7560 Cl  0  0  0  0  0  0  0  0  0  0  0  0
   40.3230   28.1980   42.8680 C   0  0  0  0  0  0  0  0  0  0  0  0
   39.1570   27.9750   42.1640 C   0  0  0  0  0  0  0  0  0  0  0  0
   38.5090   26.7560   42.1990 C   0  0  0  0  0  0  0  0  0  0  0  0
   37.5910   26.5540   41.6540 H   0  0  0  0  0  0  0  0  0  0  0  0
   39.0460   25.7290   42.9610 C   0  0  0  0  0  0  0  0  0  0  0  0
   38.5520   24.7660   43.0000 H   0  0  0  0  0  0  0  0  0  0  0  0
   40.2240   25.9530   43.6740 C   0  0  0  0  0  3  0  0  0  0  0  0
   40.8500   27.1890   43.6170 C   0  0  0  0  0  3  0  0  0  0  0  0
   36.9600   32.1590   39.0490 C   0  0  0  0  0  0  0  0  0  0  0  0
   35.8690   32.1210   38.9820 H   0  0  0  0  0  0  0  0  0  0  0  0
   37.4200   32.0550   38.0240 H   0  0  0  0  0  0  0  0  0  0  0  0
   37.4640   33.4880   39.5830 C   0  0  0  0  0  0  0  0  0  0  0  0
   36.6250   33.9900   40.1440 H   0  0  0  0  0  0  0  0  0  0  0  0
   38.2810   33.3540   40.3130 H   0  0  0  0  0  0  0  0  0  0  0  0
   37.7730   34.1640   38.7390 H   0  0  0  0  0  0  0  0  0  0  0  0
  1  2  2  0  0  0  0
  1  6  1  0  0  0  0
  2  3  1  0  0  0  0
  3  8  1  0  0  0  0
  3  4  2  0  0  0  0
  5  4  1  0  0  0  0
  5 11  1  0  0  0  0
  6  5  2  0  0  0  0
  7  1  1  0  0  0  0
  9 10  1  0  0  0  0
 10 17  1  0  0  0  0
 11 12  1  0  0  0  0
 11 10  2  0  0  0  0
 12 14  2  0  0  0  0
 13 12  1  0  0  0  0
 14 15  1  0  0  0  0
 14 16  1  0  0  0  0
 17 16  2  0  0  0  0
 18 21  1  0  0  0  0
 18  2  1  0  0  0  0
 19 18  1  0  0  0  0
 20 18  1  0  0  0  0
 21 22  1  0  0  0  0
 21 23  1  0  0  0  0
 24 21  1  0  0  0  0
M  END
>  <minimizedAffinity>
-4.1272378

$$$$
