
 OpenBabel03252505553D

 33 35  0  0  0  0  0  0  0  0999 V2000
   38.9350   31.6940   40.9220 C   0  0  0  0  0  0  0  0  0  0  0  0
   38.6810   33.0460   40.8650 C   0  0  0  0  0  0  0  0  0  0  0  0
   37.8270   33.5380   39.9370 C   0  0  0  0  0  0  0  0  0  0  0  0
   37.2180   32.7200   39.0630 N   0  0  0  0  0  0  0  0  0  0  0  0
   37.4550   31.4040   39.1070 C   0  0  0  0  0  0  0  0  0  0  0  0
   38.3110   30.8840   40.0320 N   0  0  0  0  0  0  0  0  0  0  0  0
   39.2210   33.6080   41.6110 H   0  0  0  0  0  0  0  0  0  0  0  0
   37.6770   34.6090   39.9530 H   0  0  0  0  0  0  0  0  0  0  0  0
   35.2450   29.6340   40.2510 Cl  0  0  0  0  0  0  0  0  0  0  0  0
   35.7750   29.6750   38.5870 C   0  0  0  0  0  0  0  0  0  0  0  0
   36.7840   30.5040   38.1440 C   0  0  0  0  0  0  0  0  0  0  0  0
   37.2410   30.5770   36.8480 C   0  0  0  0  0  0  0  0  0  0  0  0
   38.0350   31.2410   36.5360 H   0  0  0  0  0  0  0  0  0  0  0  0
   36.6010   29.7280   35.9610 C   0  0  0  0  0  0  0  0  0  0  0  0
   36.8790   29.7020   34.9160 H   0  0  0  0  0  0  0  0  0  0  0  0
   35.5870   28.8740   36.3320 C   0  0  0  0  0  3  0  0  0  0  0  0
   35.1750   28.8550   37.6670 C   0  0  0  0  0  3  0  0  0  0  0  0
   39.8090   30.9360   41.8270 C   0  0  0  0  0  0  0  0  0  0  0  0
   40.4290   31.6880   42.3860 H   0  0  0  0  0  0  0  0  0  0  0  0
   40.5460   30.2850   41.3040 H   0  0  0  0  0  0  0  0  0  0  0  0
   38.9880   30.2450   42.7320 O   0  0  0  0  0  0  0  0  0  0  0  0
   37.0600   27.2530   42.7110 C   0  0  0  0  0  0  0  0  0  0  0  0
   37.9370   26.2980   42.2230 C   0  0  0  0  0  0  0  0  0  0  0  0
   39.2300   26.7190   41.8960 C   0  0  0  0  0  0  0  0  0  0  0  0
   39.5730   28.0060   42.0620 N   0  0  0  0  0  0  0  0  0  0  0  0
   38.6750   28.9070   42.5460 C   0  0  0  0  0  0  0  0  0  0  0  0
   37.4400   28.5310   42.8630 N   0  0  0  0  0  0  0  0  0  0  0  0
   36.0580   26.9390   42.9680 H   0  0  0  0  0  0  0  0  0  0  0  0
   39.9090   25.9600   41.5140 H   0  0  0  0  0  0  0  0  0  0  0  0
   37.4450   24.8930   42.0790 C   0  0  0  0  0  0  0  0  0  0  0  0
   37.1790   24.7290   40.7460 F   0  0  0  0  0  0  0  0  0  0  0  0
   36.2570   24.8270   42.8190 F   0  0  0  0  0  0  0  0  0  0  0  0
   38.3880   24.0360   42.5680 F   0  0  0  0  0  0  0  0  0  0  0  0
  1 18  1  0  0  0  0
  2  1  1  0  0  0  0
  2  7  1  0  0  0  0
  3  8  1  0  0  0  0
  3  2  2  0  0  0  0
  4  5  2  0  0  0  0
  4  3  1  0  0  0  0
  5  6  1  0  0  0  0
  6  1  2  0  0  0  0
 10  9  1  0  0  0  0
 11 10  1  0  0  0  0
 11  5  1  0  0  0  0
 12 11  2  0  0  0  0
 13 12  1  0  0  0  0
 14 16  2  0  0  0  0
 14 12  1  0  0  0  0
 15 14  1  0  0  0  0
 16 17  1  0  0  0  0
 17 10  2  0  0  0  0
 18 19  1  0  0  0  0
 18 21  1  0  0  0  0
 20 18  1  0  0  0  0
 22 27  1  0  0  0  0
 22 28  1  0  0  0  0
 23 22  2  0  0  0  0
 24 25  2  0  0  0  0
 24 23  1  0  0  0  0
 25 26  1  0  0  0  0
 26 21  1  0  0  0  0
 26 27  2  0  0  0  0
 29 24  1  0  0  0  0
 30 23  1  0  0  0  0
 30 33  1  0  0  0  0
 30 32  1  0  0  0  0
 31 30  1  0  0  0  0
M  END
>  <minimizedAffinity>
-6.01018667

$$$$

 OpenBabel03252505553D

 33 35  0  0  0  0  0  0  0  0999 V2000
   38.0320   31.5570   38.6690 C   0  0  0  0  0  0  0  0  0  0  0  0
   37.2300   32.6530   38.8890 C   0  0  0  0  0  0  0  0  0  0  0  0
   37.5520   33.5470   39.8540 C   0  0  0  0  0  0  0  0  0  0  0  0
   38.6520   33.3790   40.6060 N   0  0  0  0  0  0  0  0  0  0  0  0
   39.4410   32.3180   40.4020 C   0  0  0  0  0  0  0  0  0  0  0  0
   39.1380   31.4030   39.4370 N   0  0  0  0  0  0  0  0  0  0  0  0
   36.3750   32.6900   38.2320 H   0  0  0  0  0  0  0  0  0  0  0  0
   36.8740   34.3830   39.9690 H   0  0  0  0  0  0  0  0  0  0  0  0
   39.2190   30.2670   42.6550 Cl  0  0  0  0  0  0  0  0  0  0  0  0
   40.6280   31.2240   42.2670 C   0  0  0  0  0  0  0  0  0  0  0  0
   40.6530   32.1330   41.2310 C   0  0  0  0  0  0  0  0  0  0  0  0
   41.7320   32.9120   40.8810 C   0  0  0  0  0  0  0  0  0  0  0  0
   41.7150   33.6150   40.0610 H   0  0  0  0  0  0  0  0  0  0  0  0
   42.8570   32.7260   41.6670 C   0  0  0  0  0  0  0  0  0  0  0  0
   43.7640   33.2860   41.4820 H   0  0  0  0  0  0  0  0  0  0  0  0
   42.9050   31.8370   42.7170 C   0  0  0  0  0  3  0  0  0  0  0  0
   41.7690   31.0800   43.0130 C   0  0  0  0  0  3  0  0  0  0  0  0
   37.8920   30.4660   37.6940 C   0  0  0  0  0  0  0  0  0  0  0  0
   38.8520   29.8830   37.7180 H   0  0  0  0  0  0  0  0  0  0  0  0
   37.7890   30.8120   36.6410 H   0  0  0  0  0  0  0  0  0  0  0  0
   36.8370   29.6450   38.1250 O   0  0  0  0  0  0  0  0  0  0  0  0
   36.0240   28.4720   41.3850 C   0  0  0  0  0  0  0  0  0  0  0  0
   36.9980   27.5220   41.6470 C   0  0  0  0  0  0  0  0  0  0  0  0
   37.9560   27.2920   40.6550 C   0  0  0  0  0  0  0  0  0  0  0  0
   37.9040   27.9840   39.5060 N   0  0  0  0  0  0  0  0  0  0  0  0
   36.9270   28.9090   39.2960 C   0  0  0  0  0  0  0  0  0  0  0  0
   36.0050   29.1450   40.2240 N   0  0  0  0  0  0  0  0  0  0  0  0
   35.2780   28.6600   42.1450 H   0  0  0  0  0  0  0  0  0  0  0  0
   38.7150   26.5440   40.8720 H   0  0  0  0  0  0  0  0  0  0  0  0
   36.9570   26.8120   42.9620 C   0  0  0  0  0  0  0  0  0  0  0  0
   36.6740   25.5050   42.6680 F   0  0  0  0  0  0  0  0  0  0  0  0
   35.8960   27.3860   43.6740 F   0  0  0  0  0  0  0  0  0  0  0  0
   38.1480   26.9920   43.6050 F   0  0  0  0  0  0  0  0  0  0  0  0
  1  2  2  0  0  0  0
  1  6  1  0  0  0  0
  2  3  1  0  0  0  0
  3  8  1  0  0  0  0
  3  4  2  0  0  0  0
  5  4  1  0  0  0  0
  5 11  1  0  0  0  0
  6  5  2  0  0  0  0
  7  2  1  0  0  0  0
 10  9  1  0  0  0  0
 10 17  1  0  0  0  0
 11 10  2  0  0  0  0
 12 11  1  0  0  0  0
 12 14  2  0  0  0  0
 13 12  1  0  0  0  0
 14 16  1  0  0  0  0
 15 14  1  0  0  0  0
 16 17  2  0  0  0  0
 18 19  1  0  0  0  0
 18 21  1  0  0  0  0
 18  1  1  0  0  0  0
 20 18  1  0  0  0  0
 21 26  1  0  0  0  0
 22 23  1  0  0  0  0
 22 28  1  0  0  0  0
 23 30  1  0  0  0  0
 24 29  1  0  0  0  0
 24 23  2  0  0  0  0
 25 24  1  0  0  0  0
 26 25  2  0  0  0  0
 26 27  1  0  0  0  0
 27 22  2  0  0  0  0
 30 33  1  0  0  0  0
 30 32  1  0  0  0  0
 31 30  1  0  0  0  0
M  END
>  <minimizedAffinity>
-5.84318924

$$$$

 OpenBabel03252505553D

 33 35  0  0  0  0  0  0  0  0999 V2000
   34.1770   28.1490   36.4580 C   0  0  0  0  0  0  0  0  0  0  0  0
   33.5720   26.9440   36.1800 C   0  0  0  0  0  0  0  0  0  0  0  0
   32.2710   26.9070   35.8080 C   0  0  0  0  0  0  0  0  0  0  0  0
   31.5550   28.0390   35.7050 N   0  0  0  0  0  0  0  0  0  0  0  0
   32.1310   29.2170   35.9710 C   0  0  0  0  0  0  0  0  0  0  0  0
   33.4390   29.2800   36.3480 N   0  0  0  0  0  0  0  0  0  0  0  0
   34.2370   26.1010   36.2940 H   0  0  0  0  0  0  0  0  0  0  0  0
   31.8640   25.9250   35.6060 H   0  0  0  0  0  0  0  0  0  0  0  0
   30.6610   30.1040   38.4970 Cl  0  0  0  0  0  0  0  0  0  0  0  0
   30.6500   30.9260   36.9560 C   0  0  0  0  0  0  0  0  0  0  0  0
   31.3410   30.4630   35.8560 C   0  0  0  0  0  0  0  0  0  0  0  0
   31.3680   31.0690   34.6210 C   0  0  0  0  0  0  0  0  0  0  0  0
   31.9220   30.6760   33.7800 H   0  0  0  0  0  0  0  0  0  0  0  0
   30.6240   32.2330   34.5330 C   0  0  0  0  0  0  0  0  0  0  0  0
   30.5740   32.7930   33.6080 H   0  0  0  0  0  0  0  0  0  0  0  0
   29.9100   32.7550   35.5880 C   0  0  0  0  0  3  0  0  0  0  0  0
   29.9300   32.0830   36.8130 C   0  0  0  0  0  3  0  0  0  0  0  0
   35.5570   28.4370   36.8740 C   0  0  0  0  0  0  0  0  0  0  0  0
   36.0760   28.8910   35.9870 H   0  0  0  0  0  0  0  0  0  0  0  0
   36.1520   27.5300   37.1240 H   0  0  0  0  0  0  0  0  0  0  0  0
   35.4990   29.3800   37.9120 O   0  0  0  0  0  0  0  0  0  0  0  0
   36.5520   27.3930   40.6710 C   0  0  0  0  0  0  0  0  0  0  0  0
   36.7050   28.3100   41.6990 C   0  0  0  0  0  0  0  0  0  0  0  0
   36.4310   29.6510   41.4120 C   0  0  0  0  0  0  0  0  0  0  0  0
   36.0380   30.0000   40.1770 N   0  0  0  0  0  0  0  0  0  0  0  0
   35.9020   29.0620   39.2000 C   0  0  0  0  0  0  0  0  0  0  0  0
   36.1570   27.7810   39.4490 N   0  0  0  0  0  0  0  0  0  0  0  0
   36.7590   26.3530   40.8820 H   0  0  0  0  0  0  0  0  0  0  0  0
   36.5550   30.3600   42.2260 H   0  0  0  0  0  0  0  0  0  0  0  0
   37.1490   27.8060   43.0350 C   0  0  0  0  0  0  0  0  0  0  0  0
   37.6840   28.8890   43.6790 F   0  0  0  0  0  0  0  0  0  0  0  0
   38.1470   26.8580   42.7740 F   0  0  0  0  0  0  0  0  0  0  0  0
   36.0830   27.2470   43.6800 F   0  0  0  0  0  0  0  0  0  0  0  0
  1 18  1  0  0  0  0
  2  7  1  0  0  0  0
  2  1  2  0  0  0  0
  3  2  1  0  0  0  0
  4  3  2  0  0  0  0
  4  5  1  0  0  0  0
  5  6  2  0  0  0  0
  6  1  1  0  0  0  0
  8  3  1  0  0  0  0
 10  9  1  0  0  0  0
 11  5  1  0  0  0  0
 11 10  2  0  0  0  0
 12 11  1  0  0  0  0
 13 12  1  0  0  0  0
 14 12  2  0  0  0  0
 14 16  1  0  0  0  0
 15 14  1  0  0  0  0
 16 17  2  0  0  0  0
 17 10  1  0  0  0  0
 18 20  1  0  0  0  0
 18 21  1  0  0  0  0
 19 18  1  0  0  0  0
 21 26  1  0  0  0  0
 22 28  1  0  0  0  0
 22 23  1  0  0  0  0
 23 30  1  0  0  0  0
 24 23  2  0  0  0  0
 24 29  1  0  0  0  0
 25 24  1  0  0  0  0
 26 27  1  0  0  0  0
 26 25  2  0  0  0  0
 27 22  2  0  0  0  0
 30 31  1  0  0  0  0
 30 33  1  0  0  0  0
 32 30  1  0  0  0  0
M  END
>  <minimizedAffinity>
-5.73948574

$$$$

 OpenBabel03252505553D

 33 35  0  0  0  0  0  0  0  0999 V2000
   34.5440   28.2490   36.5390 C   0  0  0  0  0  0  0  0  0  0  0  0
   34.1030   27.0740   35.9730 C   0  0  0  0  0  0  0  0  0  0  0  0
   32.7900   26.9100   35.6840 C   0  0  0  0  0  0  0  0  0  0  0  0
   31.9040   27.8860   35.9440 N   0  0  0  0  0  0  0  0  0  0  0  0
   32.3190   29.0330   36.4930 C   0  0  0  0  0  0  0  0  0  0  0  0
   33.6350   29.2220   36.7930 N   0  0  0  0  0  0  0  0  0  0  0  0
   34.8960   26.3610   35.8080 H   0  0  0  0  0  0  0  0  0  0  0  0
   32.5190   25.9610   35.2420 H   0  0  0  0  0  0  0  0  0  0  0  0
   31.8770   31.0630   34.2540 Cl  0  0  0  0  0  0  0  0  0  0  0  0
   31.0900   31.0600   35.8140 C   0  0  0  0  0  0  0  0  0  0  0  0
   31.3420   30.1070   36.7780 C   0  0  0  0  0  0  0  0  0  0  0  0
   30.7530   30.0560   38.0200 C   0  0  0  0  0  0  0  0  0  0  0  0
   30.9760   29.2920   38.7510 H   0  0  0  0  0  0  0  0  0  0  0  0
   29.8420   31.0690   38.2690 C   0  0  0  0  0  0  0  0  0  0  0  0
   29.3180   31.1270   39.2130 H   0  0  0  0  0  0  0  0  0  0  0  0
   29.5400   32.0540   37.3550 C   0  0  0  0  0  3  0  0  0  0  0  0
   30.1790   32.0400   36.1120 C   0  0  0  0  0  3  0  0  0  0  0  0
   35.9000   28.6530   36.9360 C   0  0  0  0  0  0  0  0  0  0  0  0
   35.7860   29.5020   37.6630 H   0  0  0  0  0  0  0  0  0  0  0  0
   36.5100   29.0670   36.1010 H   0  0  0  0  0  0  0  0  0  0  0  0
   36.4970   27.5610   37.5850 O   0  0  0  0  0  0  0  0  0  0  0  0
   36.6070   28.7430   40.9400 C   0  0  0  0  0  0  0  0  0  0  0  0
   36.9350   27.6160   41.6770 C   0  0  0  0  0  0  0  0  0  0  0  0
   37.1190   26.4200   40.9760 C   0  0  0  0  0  0  0  0  0  0  0  0
   36.9760   26.4020   39.6410 N   0  0  0  0  0  0  0  0  0  0  0  0
   36.6540   27.5360   38.9620 C   0  0  0  0  0  0  0  0  0  0  0  0
   36.4730   28.6850   39.6060 N   0  0  0  0  0  0  0  0  0  0  0  0
   36.4630   29.6740   41.4710 H   0  0  0  0  0  0  0  0  0  0  0  0
   37.3760   25.5430   41.5650 H   0  0  0  0  0  0  0  0  0  0  0  0
   37.0670   27.7540   43.1600 C   0  0  0  0  0  0  0  0  0  0  0  0
   35.8770   27.3200   43.6790 F   0  0  0  0  0  0  0  0  0  0  0  0
   37.2280   29.1250   43.4030 F   0  0  0  0  0  0  0  0  0  0  0  0
   38.1520   27.0410   43.5810 F   0  0  0  0  0  0  0  0  0  0  0  0
  1  6  1  0  0  0  0
  1 18  1  0  0  0  0
  2  1  2  0  0  0  0
  3  4  2  0  0  0  0
  3  2  1  0  0  0  0
  4  5  1  0  0  0  0
  5 11  1  0  0  0  0
  5  6  2  0  0  0  0
  7  2  1  0  0  0  0
  8  3  1  0  0  0  0
  9 10  1  0  0  0  0
 10 17  2  0  0  0  0
 10 11  1  0  0  0  0
 11 12  2  0  0  0  0
 12 14  1  0  0  0  0
 12 13  1  0  0  0  0
 14 15  1  0  0  0  0
 16 14  2  0  0  0  0
 17 16  1  0  0  0  0
 18 21  1  0  0  0  0
 18 19  1  0  0  0  0
 20 18  1  0  0  0  0
 21 26  1  0  0  0  0
 22 28  1  0  0  0  0
 22 23  1  0  0  0  0
 23 30  1  0  0  0  0
 24 29  1  0  0  0  0
 24 23  2  0  0  0  0
 25 24  1  0  0  0  0
 26 27  1  0  0  0  0
 26 25  2  0  0  0  0
 27 22  2  0  0  0  0
 30 32  1  0  0  0  0
 30 33  1  0  0  0  0
 30 31  1  0  0  0  0
M  END
>  <minimizedAffinity>
-5.6076436

$$$$

 OpenBabel03252505553D

 33 35  0  0  0  0  0  0  0  0999 V2000
   37.9500   26.9370   42.9400 C   0  0  0  0  0  0  0  0  0  0  0  0
   39.1820   26.3430   43.0990 C   0  0  0  0  0  0  0  0  0  0  0  0
   39.5490   25.3170   42.2950 C   0  0  0  0  0  0  0  0  0  0  0  0
   38.7220   24.8660   41.3370 N   0  0  0  0  0  0  0  0  0  0  0  0
   37.5220   25.4340   41.1720 C   0  0  0  0  0  0  0  0  0  0  0  0
   37.1290   26.4680   41.9690 N   0  0  0  0  0  0  0  0  0  0  0  0
   39.7630   26.7830   43.8940 H   0  0  0  0  0  0  0  0  0  0  0  0
   40.5310   24.9010   42.4780 H   0  0  0  0  0  0  0  0  0  0  0  0
   37.0330   27.3300   38.8280 Cl  0  0  0  0  0  0  0  0  0  0  0  0
   36.3440   25.7370   39.0270 C   0  0  0  0  0  0  0  0  0  0  0  0
   36.6130   24.9360   40.1170 C   0  0  0  0  0  0  0  0  0  0  0  0
   36.0990   23.6760   40.3250 C   0  0  0  0  0  0  0  0  0  0  0  0
   36.3330   23.0770   41.1930 H   0  0  0  0  0  0  0  0  0  0  0  0
   35.2500   23.2270   39.3270 C   0  0  0  0  0  0  0  0  0  0  0  0
   34.7890   22.2510   39.3860 H   0  0  0  0  0  0  0  0  0  0  0  0
   34.9370   23.9710   38.2120 C   0  0  0  0  0  3  0  0  0  0  0  0
   35.4970   25.2430   38.0690 C   0  0  0  0  0  3  0  0  0  0  0  0
   37.3370   28.0490   43.6800 C   0  0  0  0  0  0  0  0  0  0  0  0
   37.4590   27.8190   44.7730 H   0  0  0  0  0  0  0  0  0  0  0  0
   36.2390   28.1450   43.5250 H   0  0  0  0  0  0  0  0  0  0  0  0
   38.0550   29.2140   43.3660 O   0  0  0  0  0  0  0  0  0  0  0  0
   36.6180   30.8150   40.5310 C   0  0  0  0  0  0  0  0  0  0  0  0
   37.6850   30.9650   39.6590 C   0  0  0  0  0  0  0  0  0  0  0  0
   38.9310   30.4930   40.0820 C   0  0  0  0  0  0  0  0  0  0  0  0
   39.0520   29.9220   41.2910 N   0  0  0  0  0  0  0  0  0  0  0  0
   37.9730   29.7970   42.1110 C   0  0  0  0  0  0  0  0  0  0  0  0
   36.7780   30.2390   41.7320 N   0  0  0  0  0  0  0  0  0  0  0  0
   35.6480   31.1750   40.2150 H   0  0  0  0  0  0  0  0  0  0  0  0
   39.7600   30.6170   39.3890 H   0  0  0  0  0  0  0  0  0  0  0  0
   37.4320   31.6170   38.3380 C   0  0  0  0  0  0  0  0  0  0  0  0
   36.5960   30.7690   37.6610 F   0  0  0  0  0  0  0  0  0  0  0  0
   38.6760   31.6800   37.6980 F   0  0  0  0  0  0  0  0  0  0  0  0
   36.9120   32.8620   38.5450 F   0  0  0  0  0  0  0  0  0  0  0  0
  1  2  1  0  0  0  0
  1 18  1  0  0  0  0
  2  7  1  0  0  0  0
  3  8  1  0  0  0  0
  3  2  2  0  0  0  0
  4  3  1  0  0  0  0
  5  4  2  0  0  0  0
  5  6  1  0  0  0  0
  6  1  2  0  0  0  0
  9 10  1  0  0  0  0
 10 11  1  0  0  0  0
 11 12  2  0  0  0  0
 11  5  1  0  0  0  0
 12 13  1  0  0  0  0
 14 15  1  0  0  0  0
 14 12  1  0  0  0  0
 16 14  2  0  0  0  0
 17 16  1  0  0  0  0
 17 10  2  0  0  0  0
 18 19  1  0  0  0  0
 20 18  1  0  0  0  0
 21 18  1  0  0  0  0
 22 27  1  0  0  0  0
 23 24  1  0  0  0  0
 23 22  2  0  0  0  0
 24 25  2  0  0  0  0
 25 26  1  0  0  0  0
 26 21  1  0  0  0  0
 27 26  2  0  0  0  0
 28 22  1  0  0  0  0
 29 24  1  0  0  0  0
 30 33  1  0  0  0  0
 30 23  1  0  0  0  0
 31 30  1  0  0  0  0
 32 30  1  0  0  0  0
M  END
>  <minimizedAffinity>
-5.56341362

$$$$

 OpenBabel03252505553D

 33 35  0  0  0  0  0  0  0  0999 V2000
   33.9400   27.4870   37.0450 C   0  0  0  0  0  0  0  0  0  0  0  0
   33.4050   26.4750   36.2810 C   0  0  0  0  0  0  0  0  0  0  0  0
   32.1860   26.6270   35.7100 C   0  0  0  0  0  0  0  0  0  0  0  0
   31.4850   27.7600   35.8810 N   0  0  0  0  0  0  0  0  0  0  0  0
   31.9940   28.7520   36.6210 C   0  0  0  0  0  0  0  0  0  0  0  0
   33.2190   28.6230   37.2060 N   0  0  0  0  0  0  0  0  0  0  0  0
   34.0490   25.6130   36.2090 H   0  0  0  0  0  0  0  0  0  0  0  0
   31.8300   25.7900   35.1240 H   0  0  0  0  0  0  0  0  0  0  0  0
   32.0580   30.7240   34.2900 Cl  0  0  0  0  0  0  0  0  0  0  0  0
   31.2030   30.9390   35.7980 C   0  0  0  0  0  0  0  0  0  0  0  0
   31.2220   30.0000   36.8080 C   0  0  0  0  0  0  0  0  0  0  0  0
   30.5680   30.1160   38.0140 C   0  0  0  0  0  0  0  0  0  0  0  0
   30.6050   29.3580   38.7830 H   0  0  0  0  0  0  0  0  0  0  0  0
   29.8510   31.2900   38.1710 C   0  0  0  0  0  0  0  0  0  0  0  0
   29.2980   31.4880   39.0800 H   0  0  0  0  0  0  0  0  0  0  0  0
   29.7880   32.2710   37.2070 C   0  0  0  0  0  3  0  0  0  0  0  0
   30.4780   32.0820   36.0070 C   0  0  0  0  0  3  0  0  0  0  0  0
   35.2250   27.5540   37.7540 C   0  0  0  0  0  0  0  0  0  0  0  0
   35.6650   26.5200   37.7280 H   0  0  0  0  0  0  0  0  0  0  0  0
   35.1330   27.8020   38.8350 H   0  0  0  0  0  0  0  0  0  0  0  0
   36.0580   28.4320   37.0420 O   0  0  0  0  0  0  0  0  0  0  0  0
   36.5880   30.9570   39.4940 C   0  0  0  0  0  0  0  0  0  0  0  0
   37.3370   31.9140   38.8260 C   0  0  0  0  0  0  0  0  0  0  0  0
   37.6590   31.6610   37.4890 C   0  0  0  0  0  0  0  0  0  0  0  0
   37.2420   30.5250   36.9070 N   0  0  0  0  0  0  0  0  0  0  0  0
   36.5080   29.6160   37.6050 C   0  0  0  0  0  0  0  0  0  0  0  0
   36.1900   29.8340   38.8770 N   0  0  0  0  0  0  0  0  0  0  0  0
   36.3320   31.1420   40.5280 H   0  0  0  0  0  0  0  0  0  0  0  0
   38.2470   32.4190   36.9770 H   0  0  0  0  0  0  0  0  0  0  0  0
   37.7460   33.1410   39.5760 C   0  0  0  0  0  0  0  0  0  0  0  0
   39.0490   33.3720   39.2230 F   0  0  0  0  0  0  0  0  0  0  0  0
   37.6680   32.8030   40.9340 F   0  0  0  0  0  0  0  0  0  0  0  0
   36.8950   34.1610   39.2640 F   0  0  0  0  0  0  0  0  0  0  0  0
  1  6  1  0  0  0  0
  1 18  1  0  0  0  0
  2  1  2  0  0  0  0
  3  4  2  0  0  0  0
  3  2  1  0  0  0  0
  4  5  1  0  0  0  0
  5 11  1  0  0  0  0
  5  6  2  0  0  0  0
  7  2  1  0  0  0  0
  8  3  1  0  0  0  0
  9 10  1  0  0  0  0
 10 17  2  0  0  0  0
 10 11  1  0  0  0  0
 11 12  2  0  0  0  0
 12 14  1  0  0  0  0
 12 13  1  0  0  0  0
 14 15  1  0  0  0  0
 16 14  2  0  0  0  0
 17 16  1  0  0  0  0
 18 20  1  0  0  0  0
 19 18  1  0  0  0  0
 21 26  1  0  0  0  0
 21 18  1  0  0  0  0
 22 28  1  0  0  0  0
 23 22  2  0  0  0  0
 23 30  1  0  0  0  0
 24 23  1  0  0  0  0
 25 24  2  0  0  0  0
 25 26  1  0  0  0  0
 26 27  2  0  0  0  0
 27 22  1  0  0  0  0
 29 24  1  0  0  0  0
 30 32  1  0  0  0  0
 31 30  1  0  0  0  0
 33 30  1  0  0  0  0
M  END
>  <minimizedAffinity>
-5.52359581

$$$$

 OpenBabel03252505553D

 33 35  0  0  0  0  0  0  0  0999 V2000
   34.0310   28.1410   37.3340 C   0  0  0  0  0  0  0  0  0  0  0  0
   33.6020   26.9560   36.7810 C   0  0  0  0  0  0  0  0  0  0  0  0
   32.4530   26.9180   36.0650 C   0  0  0  0  0  0  0  0  0  0  0  0
   31.7200   28.0290   35.8850 N   0  0  0  0  0  0  0  0  0  0  0  0
   32.1260   29.1880   36.4160 C   0  0  0  0  0  0  0  0  0  0  0  0
   33.2790   29.2520   37.1420 N   0  0  0  0  0  0  0  0  0  0  0  0
   34.2640   26.1290   36.9870 H   0  0  0  0  0  0  0  0  0  0  0  0
   32.1790   25.9520   35.6620 H   0  0  0  0  0  0  0  0  0  0  0  0
   30.3820   30.0360   38.7760 Cl  0  0  0  0  0  0  0  0  0  0  0  0
   30.5060   30.8560   37.2380 C   0  0  0  0  0  0  0  0  0  0  0  0
   31.3180   30.4110   36.2160 C   0  0  0  0  0  0  0  0  0  0  0  0
   31.4550   31.0160   34.9880 C   0  0  0  0  0  0  0  0  0  0  0  0
   32.1030   30.6380   34.2100 H   0  0  0  0  0  0  0  0  0  0  0  0
   30.6910   32.1590   34.8190 C   0  0  0  0  0  0  0  0  0  0  0  0
   30.7200   32.7160   33.8920 H   0  0  0  0  0  0  0  0  0  0  0  0
   29.8580   32.6610   35.7940 C   0  0  0  0  0  3  0  0  0  0  0  0
   29.7720   31.9920   37.0170 C   0  0  0  0  0  3  0  0  0  0  0  0
   35.2270   28.4270   38.1390 C   0  0  0  0  0  0  0  0  0  0  0  0
   35.9390   27.5730   37.9790 H   0  0  0  0  0  0  0  0  0  0  0  0
   35.0390   28.4460   39.2360 H   0  0  0  0  0  0  0  0  0  0  0  0
   35.8000   29.6090   37.6430 O   0  0  0  0  0  0  0  0  0  0  0  0
   38.4850   31.7270   38.6300 C   0  0  0  0  0  0  0  0  0  0  0  0
   38.1790   32.0600   39.9400 C   0  0  0  0  0  0  0  0  0  0  0  0
   37.0050   31.5280   40.4810 C   0  0  0  0  0  0  0  0  0  0  0  0
   36.2290   30.7290   39.7330 N   0  0  0  0  0  0  0  0  0  0  0  0
   36.5730   30.4300   38.4500 C   0  0  0  0  0  0  0  0  0  0  0  0
   37.6840   30.9240   37.9130 N   0  0  0  0  0  0  0  0  0  0  0  0
   39.3920   32.1310   38.2010 H   0  0  0  0  0  0  0  0  0  0  0  0
   36.7750   31.7980   41.5100 H   0  0  0  0  0  0  0  0  0  0  0  0
   39.1180   32.9600   40.6780 C   0  0  0  0  0  0  0  0  0  0  0  0
   40.1610   33.1900   39.8210 F   0  0  0  0  0  0  0  0  0  0  0  0
   39.5580   32.2270   41.7880 F   0  0  0  0  0  0  0  0  0  0  0  0
   38.4500   34.0890   41.0570 F   0  0  0  0  0  0  0  0  0  0  0  0
  1 18  1  0  0  0  0
  2  7  1  0  0  0  0
  2  1  2  0  0  0  0
  3  2  1  0  0  0  0
  4  3  2  0  0  0  0
  4  5  1  0  0  0  0
  5  6  2  0  0  0  0
  6  1  1  0  0  0  0
  8  3  1  0  0  0  0
 10  9  1  0  0  0  0
 11  5  1  0  0  0  0
 11 10  2  0  0  0  0
 12 11  1  0  0  0  0
 13 12  1  0  0  0  0
 14 12  2  0  0  0  0
 14 16  1  0  0  0  0
 15 14  1  0  0  0  0
 16 17  2  0  0  0  0
 17 10  1  0  0  0  0
 18 20  1  0  0  0  0
 19 18  1  0  0  0  0
 21 18  1  0  0  0  0
 21 26  1  0  0  0  0
 22 23  1  0  0  0  0
 23 24  2  0  0  0  0
 23 30  1  0  0  0  0
 24 29  1  0  0  0  0
 25 24  1  0  0  0  0
 26 25  2  0  0  0  0
 27 26  1  0  0  0  0
 27 22  2  0  0  0  0
 28 22  1  0  0  0  0
 30 33  1  0  0  0  0
 30 32  1  0  0  0  0
 31 30  1  0  0  0  0
M  END
>  <minimizedAffinity>
-5.51335859

$$$$

 OpenBabel03252505553D

 33 35  0  0  0  0  0  0  0  0999 V2000
   36.6010   30.7060   39.5840 C   0  0  0  0  0  0  0  0  0  0  0  0
   37.4900   31.2840   38.7070 C   0  0  0  0  0  0  0  0  0  0  0  0
   37.4810   30.9310   37.3990 C   0  0  0  0  0  0  0  0  0  0  0  0
   36.6100   30.0160   36.9420 N   0  0  0  0  0  0  0  0  0  0  0  0
   35.7410   29.4460   37.7840 C   0  0  0  0  0  0  0  0  0  0  0  0
   35.7300   29.7850   39.1050 N   0  0  0  0  0  0  0  0  0  0  0  0
   38.1420   32.0030   39.1780 H   0  0  0  0  0  0  0  0  0  0  0  0
   38.2080   31.4280   36.7710 H   0  0  0  0  0  0  0  0  0  0  0  0
   36.3360   26.5450   38.5290 Cl  0  0  0  0  0  0  0  0  0  0  0  0
   34.9850   27.1080   37.5750 C   0  0  0  0  0  0  0  0  0  0  0  0
   34.7820   28.4390   37.2790 C   0  0  0  0  0  0  0  0  0  0  0  0
   33.7370   28.9380   36.5350 C   0  0  0  0  0  0  0  0  0  0  0  0
   33.6100   29.9900   36.3230 H   0  0  0  0  0  0  0  0  0  0  0  0
   32.8500   27.9810   36.0710 C   0  0  0  0  0  0  0  0  0  0  0  0
   31.9920   28.2600   35.4750 H   0  0  0  0  0  0  0  0  0  0  0  0
   32.9900   26.6360   36.3260 C   0  0  0  0  0  3  0  0  0  0  0  0
   34.0770   26.2030   37.0910 C   0  0  0  0  0  3  0  0  0  0  0  0
   36.4230   30.9240   41.0260 C   0  0  0  0  0  0  0  0  0  0  0  0
   35.4790   30.3910   41.3220 H   0  0  0  0  0  0  0  0  0  0  0  0
   36.2530   31.9890   41.3040 H   0  0  0  0  0  0  0  0  0  0  0  0
   37.5150   30.3360   41.6840 O   0  0  0  0  0  0  0  0  0  0  0  0
   36.8280   26.9420   42.5060 C   0  0  0  0  0  0  0  0  0  0  0  0
   37.8660   26.2410   41.9130 C   0  0  0  0  0  0  0  0  0  0  0  0
   38.8230   26.9810   41.2110 C   0  0  0  0  0  0  0  0  0  0  0  0
   38.7090   28.3160   41.1360 N   0  0  0  0  0  0  0  0  0  0  0  0
   37.6700   28.9590   41.7370 C   0  0  0  0  0  0  0  0  0  0  0  0
   36.7480   28.2780   42.4090 N   0  0  0  0  0  0  0  0  0  0  0  0
   36.0820   26.3810   43.0520 H   0  0  0  0  0  0  0  0  0  0  0  0
   39.6320   26.4200   40.7510 H   0  0  0  0  0  0  0  0  0  0  0  0
   37.8900   24.7540   42.0620 C   0  0  0  0  0  0  0  0  0  0  0  0
   38.1420   24.2610   40.8100 F   0  0  0  0  0  0  0  0  0  0  0  0
   36.6020   24.3890   42.4740 F   0  0  0  0  0  0  0  0  0  0  0  0
   38.8290   24.4130   42.9930 F   0  0  0  0  0  0  0  0  0  0  0  0
  1 18  1  0  0  0  0
  2  7  1  0  0  0  0
  2  1  2  0  0  0  0
  3  2  1  0  0  0  0
  4  3  2  0  0  0  0
  4  5  1  0  0  0  0
  5  6  2  0  0  0  0
  6  1  1  0  0  0  0
  8  3  1  0  0  0  0
 10  9  1  0  0  0  0
 11 10  1  0  0  0  0
 11  5  1  0  0  0  0
 12 11  2  0  0  0  0
 13 12  1  0  0  0  0
 14 16  2  0  0  0  0
 14 12  1  0  0  0  0
 15 14  1  0  0  0  0
 16 17  1  0  0  0  0
 17 10  2  0  0  0  0
 18 20  1  0  0  0  0
 18 19  1  0  0  0  0
 18 21  1  0  0  0  0
 21 26  1  0  0  0  0
 22 28  1  0  0  0  0
 23 30  1  0  0  0  0
 23 22  2  0  0  0  0
 24 23  1  0  0  0  0
 25 24  2  0  0  0  0
 25 26  1  0  0  0  0
 26 27  2  0  0  0  0
 27 22  1  0  0  0  0
 29 24  1  0  0  0  0
 30 32  1  0  0  0  0
 30 33  1  0  0  0  0
 31 30  1  0  0  0  0
M  END
>  <minimizedAffinity>
-5.35494614

$$$$

 OpenBabel03252505553D

 33 35  0  0  0  0  0  0  0  0999 V2000
   37.5440   26.1700   42.2460 C   0  0  0  0  0  0  0  0  0  0  0  0
   36.8950   24.9630   42.1160 C   0  0  0  0  0  0  0  0  0  0  0  0
   37.5530   23.8900   41.6150 C   0  0  0  0  0  0  0  0  0  0  0  0
   38.8380   23.9870   41.2390 N   0  0  0  0  0  0  0  0  0  0  0  0
   39.4800   25.1550   41.3590 C   0  0  0  0  0  0  0  0  0  0  0  0
   38.8410   26.2490   41.8610 N   0  0  0  0  0  0  0  0  0  0  0  0
   35.8690   24.9960   42.4470 H   0  0  0  0  0  0  0  0  0  0  0  0
   36.9790   22.9750   41.5430 H   0  0  0  0  0  0  0  0  0  0  0  0
   41.4980   25.6110   43.6060 Cl  0  0  0  0  0  0  0  0  0  0  0  0
   41.8650   25.4670   41.9040 C   0  0  0  0  0  0  0  0  0  0  0  0
   40.8960   25.2610   40.9450 C   0  0  0  0  0  0  0  0  0  0  0  0
   41.1280   25.1400   39.5930 C   0  0  0  0  0  0  0  0  0  0  0  0
   40.3420   24.9780   38.8700 H   0  0  0  0  0  0  0  0  0  0  0  0
   42.4590   25.2410   39.2240 C   0  0  0  0  0  0  0  0  0  0  0  0
   42.7560   25.1610   38.1880 H   0  0  0  0  0  0  0  0  0  0  0  0
   43.4780   25.4470   40.1260 C   0  0  0  0  0  3  0  0  0  0  0  0
   43.1660   25.5600   41.4830 C   0  0  0  0  0  3  0  0  0  0  0  0
   37.0480   27.4560   42.7560 C   0  0  0  0  0  0  0  0  0  0  0  0
   37.9370   28.1380   42.8380 H   0  0  0  0  0  0  0  0  0  0  0  0
   36.6280   27.4020   43.7860 H   0  0  0  0  0  0  0  0  0  0  0  0
   36.1510   27.9720   41.8070 O   0  0  0  0  0  0  0  0  0  0  0  0
   36.9990   31.2810   40.8060 C   0  0  0  0  0  0  0  0  0  0  0  0
   37.2050   31.1700   39.4390 C   0  0  0  0  0  0  0  0  0  0  0  0
   37.0420   29.9060   38.8650 C   0  0  0  0  0  0  0  0  0  0  0  0
   36.6980   28.8630   39.6360 N   0  0  0  0  0  0  0  0  0  0  0  0
   36.5060   29.0230   40.9750 C   0  0  0  0  0  0  0  0  0  0  0  0
   36.6560   30.2140   41.5440 N   0  0  0  0  0  0  0  0  0  0  0  0
   37.1220   32.2530   41.2620 H   0  0  0  0  0  0  0  0  0  0  0  0
   37.2060   29.8320   37.7920 H   0  0  0  0  0  0  0  0  0  0  0  0
   37.5850   32.4010   38.6800 C   0  0  0  0  0  0  0  0  0  0  0  0
   38.8980   32.6360   38.9910 F   0  0  0  0  0  0  0  0  0  0  0  0
   36.7790   33.4280   39.1870 F   0  0  0  0  0  0  0  0  0  0  0  0
   37.3570   32.1950   37.3500 F   0  0  0  0  0  0  0  0  0  0  0  0
  1 18  1  0  0  0  0
  2  1  1  0  0  0  0
  2  7  1  0  0  0  0
  3  2  2  0  0  0  0
  4  5  2  0  0  0  0
  4  3  1  0  0  0  0
  5  6  1  0  0  0  0
  6  1  2  0  0  0  0
  8  3  1  0  0  0  0
 10  9  1  0  0  0  0
 11  5  1  0  0  0  0
 11 10  2  0  0  0  0
 12 11  1  0  0  0  0
 13 12  1  0  0  0  0
 14 12  2  0  0  0  0
 14 16  1  0  0  0  0
 15 14  1  0  0  0  0
 16 17  2  0  0  0  0
 17 10  1  0  0  0  0
 18 19  1  0  0  0  0
 18 20  1  0  0  0  0
 21 18  1  0  0  0  0
 22 28  1  0  0  0  0
 22 27  1  0  0  0  0
 23 22  2  0  0  0  0
 24 23  1  0  0  0  0
 24 25  2  0  0  0  0
 25 26  1  0  0  0  0
 26 27  2  0  0  0  0
 26 21  1  0  0  0  0
 29 24  1  0  0  0  0
 30 31  1  0  0  0  0
 30 32  1  0  0  0  0
 30 23  1  0  0  0  0
 33 30  1  0  0  0  0
M  END
>  <minimizedAffinity>
-5.32893229

$$$$
