
 OpenBabel03252508293D

 39 42  0  0  1  0  0  0  0  0999 V2000
   42.5730   31.4770   39.7070 N   0  0  0  0  0  0  0  0  0  0  0  0
   43.1710   30.7640   40.8400 C   0  0  2  0  0  0  0  0  0  0  0  0
   42.1690   30.3410   41.8450 C   0  0  0  0  0  0  0  0  0  0  0  0
   40.7980   30.5290   41.3990 N   0  0  0  0  0  0  0  0  0  0  0  0
   40.5070   31.7880   40.8200 C   0  0  0  0  0  0  0  0  0  0  0  0
   41.7360   32.5170   40.3450 C   0  0  2  0  0  0  0  0  0  0  0  0
   43.3570   32.0160   39.2710 H   0  0  0  0  0  0  0  0  0  0  0  0
   43.7730   29.9150   40.4160 H   0  0  0  0  0  0  0  0  0  0  0  0
   42.1480   30.8610   42.8100 H   0  0  0  0  0  0  0  0  0  0  0  0
   42.2720   29.2290   41.9690 H   0  0  0  0  0  0  0  0  0  0  0  0
   40.1760   30.2390   42.1750 H   0  0  0  0  0  0  0  0  0  0  0  0
   39.9010   31.5900   39.8940 H   0  0  0  0  0  0  0  0  0  0  0  0
   39.8770   32.4630   41.4390 H   0  0  0  0  0  0  0  0  0  0  0  0
   42.2670   32.8710   41.2510 H   0  0  0  0  0  0  0  0  0  0  0  0
   43.4100   35.0510   40.7310 Cl  0  0  0  0  0  0  0  0  0  0  0  0
   42.1410   34.8260   39.5430 C   0  0  0  0  0  0  0  0  0  0  0  0
   41.4440   33.6370   39.4520 C   0  0  0  0  0  0  0  0  0  0  0  0
   40.4450   33.4870   38.5020 C   0  0  0  0  0  0  0  0  0  0  0  0
   39.8830   32.5630   38.4120 H   0  0  0  0  0  0  0  0  0  0  0  0
   40.1200   34.4970   37.6330 C   0  0  0  0  0  0  0  0  0  0  0  0
   39.3430   34.4110   36.8790 H   0  0  0  0  0  0  0  0  0  0  0  0
   40.8000   35.7130   37.6920 C   0  0  0  0  0  3  0  0  0  0  0  0
   41.7960   35.8180   38.6630 C   0  0  0  0  0  3  0  0  0  0  0  0
   45.8430   32.9750   41.8220 C   0  0  0  0  0  0  0  0  0  0  0  0
   45.0850   32.8210   42.9890 C   0  0  0  0  0  0  0  0  0  0  0  0
   44.0160   31.9770   42.7480 C   0  0  0  0  0  0  0  0  0  0  0  0
   44.1430   31.6440   41.4660 N   0  0  0  0  0  0  0  0  0  0  0  0
   45.2060   32.2230   40.9260 N   0  0  0  0  0  0  0  0  0  0  0  0
   45.4090   33.3520   43.8910 H   0  0  0  0  0  0  0  0  0  0  0  0
   43.4280   31.8480   43.6490 H   0  0  0  0  0  0  0  0  0  0  0  0
   48.5980   35.2470   40.6360 C   0  0  0  0  0  0  0  0  0  0  0  0
   47.3810   34.4930   40.5820 C   0  0  0  0  0  0  0  0  0  0  0  0
   47.0550   33.7860   41.7120 C   0  0  0  0  0  0  0  0  0  0  0  0
   47.8740   33.8310   42.7980 N   0  0  0  0  0  0  0  0  0  0  0  0
   49.0150   34.5500   42.8210 C   0  0  0  0  0  0  0  0  0  0  0  0
   49.3520   35.2480   41.7280 N   0  0  0  0  0  0  0  0  0  0  0  0
   48.8410   35.7990   39.7360 H   0  0  0  0  0  0  0  0  0  0  0  0
   46.7250   34.4480   39.7310 H   0  0  0  0  0  0  0  0  0  0  0  0
   49.5790   34.5030   43.7450 H   0  0  0  0  0  0  0  0  0  0  0  0
  1  6  1  0  0  0  0
  1  2  1  0  0  0  0
  2  8  1  6  0  0  0
  2 27  1  0  0  0  0
  2  3  1  0  0  0  0
  3 10  1  0  0  0  0
  3  9  1  0  0  0  0
  4  3  1  0  0  0  0
  4 11  1  0  0  0  0
  5  4  1  0  0  0  0
  5 13  1  0  0  0  0
  6  5  1  0  0  0  0
  6 14  1  1  0  0  0
  7  1  1  0  0  0  0
 12  5  1  0  0  0  0
 16 15  1  0  0  0  0
 17 16  1  0  0  0  0
 17  6  1  0  0  0  0
 18 17  2  0  0  0  0
 19 18  1  0  0  0  0
 20 22  2  0  0  0  0
 20 18  1  0  0  0  0
 21 20  1  0  0  0  0
 22 23  1  0  0  0  0
 23 16  2  0  0  0  0
 24 25  1  0  0  0  0
 25 29  1  0  0  0  0
 26 25  2  0  0  0  0
 26 30  1  0  0  0  0
 27 26  1  0  0  0  0
 28 27  1  0  0  0  0
 28 24  2  0  0  0  0
 31 36  1  0  0  0  0
 32 31  2  0  0  0  0
 32 33  1  0  0  0  0
 33 24  1  0  0  0  0
 33 34  2  0  0  0  0
 34 35  1  0  0  0  0
 35 39  1  0  0  0  0
 36 35  2  0  0  0  0
 37 31  1  0  0  0  0
 38 32  1  0  0  0  0
M  END
>  <minimizedAffinity>
-5.05568457

>  <minimizedRMSD>
3.01561165

$$$$
