
 OpenBabel03242523483D

 19 20  0  0  0  0  0  0  0  0999 V2000
   37.2170   32.5660   39.4630 C   0  0  0  0  0  0  0  0  0  0  0  0
   37.2680   31.6900   40.5610 C   0  0  0  0  0  0  0  0  0  0  0  0
   37.6810   30.3710   40.3340 C   0  0  0  0  0  0  0  0  0  0  0  0
   38.0050   30.0200   39.0720 N   0  0  0  0  0  0  0  0  0  0  0  0
   37.9460   30.8830   38.0500 C   0  0  0  0  0  0  0  0  0  0  0  0
   37.5510   32.1610   38.2370 N   0  0  0  0  0  0  0  0  0  0  0  0
   36.9960   32.0430   41.5210 H   0  0  0  0  0  0  0  0  0  0  0  0
   38.2320   30.4850   37.0790 H   0  0  0  0  0  0  0  0  0  0  0  0
   35.1940   28.8350   40.7350 Cl  0  0  0  0  0  0  0  0  0  0  0  0
   36.6530   28.6390   41.7020 C   0  0  0  0  0  0  0  0  0  0  0  0
   37.7560   29.4170   41.4180 C   0  0  0  0  0  0  0  0  0  0  0  0
   38.8530   29.1960   42.2260 C   0  0  0  0  0  0  0  0  0  0  0  0
   39.7360   29.7770   42.0460 H   0  0  0  0  0  0  0  0  0  0  0  0
   38.8670   28.2690   43.2490 C   0  0  0  0  0  0  0  0  0  0  0  0
   39.7640   28.1320   43.8630 H   0  0  0  0  0  0  0  0  0  0  0  0
   37.7290   27.5170   43.4870 C   0  0  0  0  0  3  0  0  0  0  0  0
   36.6010   27.6970   42.7080 C   0  0  0  0  0  3  0  0  0  0  0  0
   36.8140   33.8440   39.7040 O   0  0  0  0  0  0  0  0  0  0  0  0
   37.5390   34.4810   40.0710 H   0  0  0  0  0  0  0  0  0  0  0  0
  1 18  1  0  0  0  0
  1  2  1  0  0  0  0
  2  7  1  0  0  0  0
  3  2  2  0  0  0  0
  3 11  1  0  0  0  0
  4  3  1  0  0  0  0
  5  6  1  0  0  0  0
  5  4  2  0  0  0  0
  6  1  2  0  0  0  0
  8  5  1  0  0  0  0
  9 10  1  0  0  0  0
 10 17  1  0  0  0  0
 11 10  2  0  0  0  0
 11 12  1  0  0  0  0
 12 14  2  0  0  0  0
 13 12  1  0  0  0  0
 14 16  1  0  0  0  0
 14 15  1  0  0  0  0
 17 16  2  0  0  0  0
 18 19  1  0  0  0  0
M  END
>  <minimizedAffinity>
-5.01562691

$$$$

 OpenBabel03242523483D

 19 20  0  0  0  0  0  0  0  0999 V2000
   36.5990   30.3110   41.2230 C   0  0  0  0  0  0  0  0  0  0  0  0
   36.2830   28.9410   41.2300 C   0  0  0  0  0  0  0  0  0  0  0  0
   37.3190   28.0240   41.0150 C   0  0  0  0  0  0  0  0  0  0  0  0
   38.5610   28.5110   40.8140 N   0  0  0  0  0  0  0  0  0  0  0  0
   38.8250   29.8240   40.8160 C   0  0  0  0  0  0  0  0  0  0  0  0
   37.8470   30.7330   41.0190 N   0  0  0  0  0  0  0  0  0  0  0  0
   35.2810   28.6390   41.3950 H   0  0  0  0  0  0  0  0  0  0  0  0
   39.8640   30.0960   40.6430 H   0  0  0  0  0  0  0  0  0  0  0  0
   36.4730   26.9830   38.3870 Cl  0  0  0  0  0  0  0  0  0  0  0  0
   36.6620   25.9980   39.8350 C   0  0  0  0  0  0  0  0  0  0  0  0
   37.0640   26.6010   41.0090 C   0  0  0  0  0  0  0  0  0  0  0  0
   37.1850   25.7530   42.0910 C   0  0  0  0  0  0  0  0  0  0  0  0
   37.4950   26.1730   43.0270 H   0  0  0  0  0  0  0  0  0  0  0  0
   36.9280   24.3980   42.0260 C   0  0  0  0  0  0  0  0  0  0  0  0
   37.0390   23.7670   42.9150 H   0  0  0  0  0  0  0  0  0  0  0  0
   36.5270   23.8500   40.8180 C   0  0  0  0  0  3  0  0  0  0  0  0
   36.3890   24.6530   39.7020 C   0  0  0  0  0  3  0  0  0  0  0  0
   35.5770   31.1870   41.4350 O   0  0  0  0  0  0  0  0  0  0  0  0
   35.3140   31.3380   42.4210 H   0  0  0  0  0  0  0  0  0  0  0  0
  1  2  1  0  0  0  0
  1 18  1  0  0  0  0
  2  7  1  0  0  0  0
  3  2  2  0  0  0  0
  4  5  2  0  0  0  0
  4  3  1  0  0  0  0
  5  6  1  0  0  0  0
  6  1  2  0  0  0  0
  8  5  1  0  0  0  0
  9 10  1  0  0  0  0
 10 11  1  0  0  0  0
 11  3  1  0  0  0  0
 11 12  2  0  0  0  0
 12 13  1  0  0  0  0
 14 12  1  0  0  0  0
 14 15  1  0  0  0  0
 16 14  2  0  0  0  0
 17 10  2  0  0  0  0
 17 16  1  0  0  0  0
 18 19  1  0  0  0  0
M  END
>  <minimizedAffinity>
-4.88297653

$$$$

 OpenBabel03242523483D

 19 20  0  0  0  0  0  0  0  0999 V2000
   36.5460   30.3370   40.9900 C   0  0  0  0  0  0  0  0  0  0  0  0
   36.2500   28.9640   41.0430 C   0  0  0  0  0  0  0  0  0  0  0  0
   37.2380   28.0600   40.6330 C   0  0  0  0  0  0  0  0  0  0  0  0
   38.4160   28.5630   40.2090 N   0  0  0  0  0  0  0  0  0  0  0  0
   38.6630   29.8780   40.1740 C   0  0  0  0  0  0  0  0  0  0  0  0
   37.7300   30.7750   40.5620 N   0  0  0  0  0  0  0  0  0  0  0  0
   35.2990   28.6490   41.3880 H   0  0  0  0  0  0  0  0  0  0  0  0
   39.6490   30.1640   39.8150 H   0  0  0  0  0  0  0  0  0  0  0  0
   37.9250   26.7950   43.2080 Cl  0  0  0  0  0  0  0  0  0  0  0  0
   37.2840   25.9310   41.8130 C   0  0  0  0  0  0  0  0  0  0  0  0
   37.0000   26.6340   40.6610 C   0  0  0  0  0  0  0  0  0  0  0  0
   36.5030   25.8760   39.6200 C   0  0  0  0  0  0  0  0  0  0  0  0
   36.2680   26.3760   38.7010 H   0  0  0  0  0  0  0  0  0  0  0  0
   36.2970   24.5140   39.7040 C   0  0  0  0  0  0  0  0  0  0  0  0
   35.9000   23.9570   38.8480 H   0  0  0  0  0  0  0  0  0  0  0  0
   36.6010   23.8620   40.8880 C   0  0  0  0  0  3  0  0  0  0  0  0
   37.1020   24.5720   41.9630 C   0  0  0  0  0  3  0  0  0  0  0  0
   35.5720   31.2000   41.3940 O   0  0  0  0  0  0  0  0  0  0  0  0
   35.4940   31.3420   42.4130 H   0  0  0  0  0  0  0  0  0  0  0  0
  1  2  1  0  0  0  0
  1 18  1  0  0  0  0
  2  7  1  0  0  0  0
  3 11  1  0  0  0  0
  3  2  2  0  0  0  0
  4  3  1  0  0  0  0
  5  4  2  0  0  0  0
  5  6  1  0  0  0  0
  6  1  2  0  0  0  0
  8  5  1  0  0  0  0
 10 17  1  0  0  0  0
 10  9  1  0  0  0  0
 11 10  2  0  0  0  0
 12 14  2  0  0  0  0
 12 11  1  0  0  0  0
 13 12  1  0  0  0  0
 14 16  1  0  0  0  0
 15 14  1  0  0  0  0
 16 17  2  0  0  0  0
 18 19  1  0  0  0  0
M  END
>  <minimizedAffinity>
-4.88002586

$$$$

 OpenBabel03242523483D

 19 20  0  0  0  0  0  0  0  0999 V2000
   37.1600   32.4780   39.4960 C   0  0  0  0  0  0  0  0  0  0  0  0
   37.1520   31.5910   40.5860 C   0  0  0  0  0  0  0  0  0  0  0  0
   37.5370   30.2640   40.3590 C   0  0  0  0  0  0  0  0  0  0  0  0
   37.8920   29.9160   39.1050 N   0  0  0  0  0  0  0  0  0  0  0  0
   37.8900   30.7890   38.0900 C   0  0  0  0  0  0  0  0  0  0  0  0
   37.5230   32.0760   38.2780 N   0  0  0  0  0  0  0  0  0  0  0  0
   36.8590   31.9430   41.5410 H   0  0  0  0  0  0  0  0  0  0  0  0
   38.1960   30.3930   37.1260 H   0  0  0  0  0  0  0  0  0  0  0  0
   40.0890   30.1710   41.8370 Cl  0  0  0  0  0  0  0  0  0  0  0  0
   38.6910   29.1630   42.2000 C   0  0  0  0  0  0  0  0  0  0  0  0
   37.5500   29.2980   41.4350 C   0  0  0  0  0  0  0  0  0  0  0  0
   36.5060   28.4680   41.7900 C   0  0  0  0  0  0  0  0  0  0  0  0
   35.5970   28.5340   41.2260 H   0  0  0  0  0  0  0  0  0  0  0  0
   36.5760   27.5630   42.8300 C   0  0  0  0  0  0  0  0  0  0  0  0
   35.7180   26.9250   43.0720 H   0  0  0  0  0  0  0  0  0  0  0  0
   37.7490   27.4720   43.5620 C   0  0  0  0  0  3  0  0  0  0  0  0
   38.8270   28.2800   43.2490 C   0  0  0  0  0  3  0  0  0  0  0  0
   36.7840   33.7650   39.7380 O   0  0  0  0  0  0  0  0  0  0  0  0
   37.5130   34.3780   40.1340 H   0  0  0  0  0  0  0  0  0  0  0  0
  1 18  1  0  0  0  0
  1  2  1  0  0  0  0
  2  7  1  0  0  0  0
  3  2  2  0  0  0  0
  3 11  1  0  0  0  0
  4  3  1  0  0  0  0
  5  6  1  0  0  0  0
  5  4  2  0  0  0  0
  6  1  2  0  0  0  0
  8  5  1  0  0  0  0
  9 10  1  0  0  0  0
 10 17  1  0  0  0  0
 11 12  1  0  0  0  0
 11 10  2  0  0  0  0
 12 14  2  0  0  0  0
 13 12  1  0  0  0  0
 14 15  1  0  0  0  0
 14 16  1  0  0  0  0
 17 16  2  0  0  0  0
 18 19  1  0  0  0  0
M  END
>  <minimizedAffinity>
-4.85075808

$$$$

 OpenBabel03242523483D

 19 20  0  0  0  0  0  0  0  0999 V2000
   37.8230   31.1600   38.0520 C   0  0  0  0  0  0  0  0  0  0  0  0
   37.9370   30.1600   39.0330 C   0  0  0  0  0  0  0  0  0  0  0  0
   37.6330   30.4970   40.3570 C   0  0  0  0  0  0  0  0  0  0  0  0
   37.2490   31.7650   40.6130 N   0  0  0  0  0  0  0  0  0  0  0  0
   37.1500   32.6920   39.6520 C   0  0  0  0  0  0  0  0  0  0  0  0
   37.4370   32.3970   38.3650 N   0  0  0  0  0  0  0  0  0  0  0  0
   38.2470   29.1870   38.7500 H   0  0  0  0  0  0  0  0  0  0  0  0
   36.8290   33.6780   39.9790 H   0  0  0  0  0  0  0  0  0  0  0  0
   35.1770   28.9030   40.7260 Cl  0  0  0  0  0  0  0  0  0  0  0  0
   36.6430   28.7100   41.6830 C   0  0  0  0  0  0  0  0  0  0  0  0
   37.7300   29.5170   41.4160 C   0  0  0  0  0  0  0  0  0  0  0  0
   38.8330   29.2970   42.2160 C   0  0  0  0  0  0  0  0  0  0  0  0
   39.7040   29.8990   42.0480 H   0  0  0  0  0  0  0  0  0  0  0  0
   38.8690   28.3450   43.2140 C   0  0  0  0  0  0  0  0  0  0  0  0
   39.7700   28.2090   43.8220 H   0  0  0  0  0  0  0  0  0  0  0  0
   37.7460   27.5640   43.4360 C   0  0  0  0  0  3  0  0  0  0  0  0
   36.6130   27.7430   42.6650 C   0  0  0  0  0  3  0  0  0  0  0  0
   38.1220   30.8120   36.7690 O   0  0  0  0  0  0  0  0  0  0  0  0
   37.3710   30.3330   36.2480 H   0  0  0  0  0  0  0  0  0  0  0  0
  1  6  2  0  0  0  0
  1  2  1  0  0  0  0
  2  3  2  0  0  0  0
  3  4  1  0  0  0  0
  3 11  1  0  0  0  0
  5  8  1  0  0  0  0
  5  4  2  0  0  0  0
  6  5  1  0  0  0  0
  7  2  1  0  0  0  0
  9 10  1  0  0  0  0
 10 17  1  0  0  0  0
 11 10  2  0  0  0  0
 11 12  1  0  0  0  0
 12 14  2  0  0  0  0
 13 12  1  0  0  0  0
 14 16  1  0  0  0  0
 14 15  1  0  0  0  0
 17 16  2  0  0  0  0
 18  1  1  0  0  0  0
 19 18  1  0  0  0  0
M  END
>  <minimizedAffinity>
-4.5968318

$$$$

 OpenBabel03242523483D

 19 20  0  0  0  0  0  0  0  0999 V2000
   38.4310   31.1080   38.3100 C   0  0  0  0  0  0  0  0  0  0  0  0
   38.3050   30.1200   39.3020 C   0  0  0  0  0  0  0  0  0  0  0  0
   37.5400   30.4180   40.4360 C   0  0  0  0  0  0  0  0  0  0  0  0
   36.9690   31.6380   40.5090 N   0  0  0  0  0  0  0  0  0  0  0  0
   37.1090   32.5550   39.5430 C   0  0  0  0  0  0  0  0  0  0  0  0
   37.8410   32.2970   38.4370 N   0  0  0  0  0  0  0  0  0  0  0  0
   38.7860   29.1860   39.1700 H   0  0  0  0  0  0  0  0  0  0  0  0
   36.6010   33.5010   39.7130 H   0  0  0  0  0  0  0  0  0  0  0  0
   39.4780   30.7190   42.6420 Cl  0  0  0  0  0  0  0  0  0  0  0  0
   38.2180   29.4890   42.5830 C   0  0  0  0  0  0  0  0  0  0  0  0
   37.3700   29.4490   41.4960 C   0  0  0  0  0  0  0  0  0  0  0  0
   36.4150   28.4530   41.5350 C   0  0  0  0  0  0  0  0  0  0  0  0
   35.7310   28.3790   40.7120 H   0  0  0  0  0  0  0  0  0  0  0  0
   36.2990   27.5530   42.5750 C   0  0  0  0  0  0  0  0  0  0  0  0
   35.5230   26.7790   42.5580 H   0  0  0  0  0  0  0  0  0  0  0  0
   37.1800   27.6430   43.6400 C   0  0  0  0  0  3  0  0  0  0  0  0
   38.1570   28.6210   43.6530 C   0  0  0  0  0  3  0  0  0  0  0  0
   39.1780   30.7980   37.2140 O   0  0  0  0  0  0  0  0  0  0  0  0
   38.6990   30.2470   36.4860 H   0  0  0  0  0  0  0  0  0  0  0  0
  1  6  2  0  0  0  0
  1  2  1  0  0  0  0
  2  3  2  0  0  0  0
  3  4  1  0  0  0  0
  3 11  1  0  0  0  0
  5  8  1  0  0  0  0
  5  4  2  0  0  0  0
  6  5  1  0  0  0  0
  7  2  1  0  0  0  0
 10  9  1  0  0  0  0
 10 17  1  0  0  0  0
 11 12  1  0  0  0  0
 11 10  2  0  0  0  0
 12 14  2  0  0  0  0
 13 12  1  0  0  0  0
 14 16  1  0  0  0  0
 15 14  1  0  0  0  0
 16 17  2  0  0  0  0
 18  1  1  0  0  0  0
 19 18  1  0  0  0  0
M  END
>  <minimizedAffinity>
-4.5698843

$$$$

 OpenBabel03242523483D

 19 20  0  0  0  0  0  0  0  0999 V2000
   39.5490   32.3100   41.1730 C   0  0  0  0  0  0  0  0  0  0  0  0
   39.2840   31.0190   41.6640 C   0  0  0  0  0  0  0  0  0  0  0  0
   38.0120   30.4780   41.4400 C   0  0  0  0  0  0  0  0  0  0  0  0
   37.1160   31.2280   40.7660 N   0  0  0  0  0  0  0  0  0  0  0  0
   37.4050   32.4540   40.3120 C   0  0  0  0  0  0  0  0  0  0  0  0
   38.6230   33.0040   40.5130 N   0  0  0  0  0  0  0  0  0  0  0  0
   40.0420   30.4940   42.1850 H   0  0  0  0  0  0  0  0  0  0  0  0
   36.6030   32.9620   39.7830 H   0  0  0  0  0  0  0  0  0  0  0  0
   38.0560   28.4080   39.3370 Cl  0  0  0  0  0  0  0  0  0  0  0  0
   37.6580   28.1040   41.0260 C   0  0  0  0  0  0  0  0  0  0  0  0
   37.6710   29.1560   41.9180 C   0  0  0  0  0  0  0  0  0  0  0  0
   37.3460   28.8250   43.2180 C   0  0  0  0  0  0  0  0  0  0  0  0
   37.3420   29.6080   43.9510 H   0  0  0  0  0  0  0  0  0  0  0  0
   37.0280   27.5430   43.6180 C   0  0  0  0  0  0  0  0  0  0  0  0
   36.7770   27.3320   44.6640 H   0  0  0  0  0  0  0  0  0  0  0  0
   37.0310   26.5270   42.6760 C   0  0  0  0  0  3  0  0  0  0  0  0
   37.3490   26.8020   41.3590 C   0  0  0  0  0  3  0  0  0  0  0  0
   40.7930   32.8180   41.4000 O   0  0  0  0  0  0  0  0  0  0  0  0
   41.5290   32.5090   40.7470 H   0  0  0  0  0  0  0  0  0  0  0  0
  1 18  1  0  0  0  0
  1  2  1  0  0  0  0
  2  7  1  0  0  0  0
  3  2  2  0  0  0  0
  3 11  1  0  0  0  0
  4  3  1  0  0  0  0
  5  6  1  0  0  0  0
  5  4  2  0  0  0  0
  6  1  2  0  0  0  0
  8  5  1  0  0  0  0
  9 10  1  0  0  0  0
 10 17  2  0  0  0  0
 10 11  1  0  0  0  0
 11 12  2  0  0  0  0
 12 14  1  0  0  0  0
 12 13  1  0  0  0  0
 14 15  1  0  0  0  0
 16 14  2  0  0  0  0
 17 16  1  0  0  0  0
 19 18  1  0  0  0  0
M  END
>  <minimizedAffinity>
-4.55557728

$$$$

 OpenBabel03242523483D

 19 20  0  0  0  0  0  0  0  0999 V2000
   36.7830   30.6300   41.1860 C   0  0  0  0  0  0  0  0  0  0  0  0
   37.1400   29.3530   41.6540 C   0  0  0  0  0  0  0  0  0  0  0  0
   38.4770   28.9580   41.5360 C   0  0  0  0  0  0  0  0  0  0  0  0
   39.3460   29.8270   40.9790 N   0  0  0  0  0  0  0  0  0  0  0  0
   38.9700   31.0370   40.5450 C   0  0  0  0  0  0  0  0  0  0  0  0
   37.6870   31.4470   40.6450 N   0  0  0  0  0  0  0  0  0  0  0  0
   36.3970   28.7290   42.0800 H   0  0  0  0  0  0  0  0  0  0  0  0
   39.7590   31.6490   40.1150 H   0  0  0  0  0  0  0  0  0  0  0  0
   38.4700   26.8910   39.4300 Cl  0  0  0  0  0  0  0  0  0  0  0  0
   38.9520   26.6090   41.1010 C   0  0  0  0  0  0  0  0  0  0  0  0
   38.9130   27.6580   41.9960 C   0  0  0  0  0  0  0  0  0  0  0  0
   39.3070   27.3450   43.2820 C   0  0  0  0  0  0  0  0  0  0  0  0
   39.2940   28.1260   44.0160 H   0  0  0  0  0  0  0  0  0  0  0  0
   39.7140   26.0830   43.6640 C   0  0  0  0  0  0  0  0  0  0  0  0
   40.0170   25.8860   44.6990 H   0  0  0  0  0  0  0  0  0  0  0  0
   39.7320   25.0700   42.7200 C   0  0  0  0  0  3  0  0  0  0  0  0
   39.3470   25.3270   41.4180 C   0  0  0  0  0  3  0  0  0  0  0  0
   35.4770   30.9970   41.3120 O   0  0  0  0  0  0  0  0  0  0  0  0
   35.1980   31.3510   42.2400 H   0  0  0  0  0  0  0  0  0  0  0  0
  1 18  1  0  0  0  0
  1  2  1  0  0  0  0
  2  7  1  0  0  0  0
  3  2  2  0  0  0  0
  3 11  1  0  0  0  0
  4  3  1  0  0  0  0
  5  6  1  0  0  0  0
  5  4  2  0  0  0  0
  6  1  2  0  0  0  0
  8  5  1  0  0  0  0
  9 10  1  0  0  0  0
 10 17  2  0  0  0  0
 10 11  1  0  0  0  0
 11 12  2  0  0  0  0
 12 14  1  0  0  0  0
 12 13  1  0  0  0  0
 14 15  1  0  0  0  0
 16 14  2  0  0  0  0
 17 16  1  0  0  0  0
 18 19  1  0  0  0  0
M  END
>  <minimizedAffinity>
-4.42094994

$$$$

 OpenBabel03242523483D

 19 20  0  0  0  0  0  0  0  0999 V2000
   40.0540   32.3820   38.2670 C   0  0  0  0  0  0  0  0  0  0  0  0
   39.6170   31.3140   39.0690 C   0  0  0  0  0  0  0  0  0  0  0  0
   39.7030   31.4550   40.4590 C   0  0  0  0  0  0  0  0  0  0  0  0
   40.2040   32.6100   40.9460 N   0  0  0  0  0  0  0  0  0  0  0  0
   40.6100   33.6070   40.1510 C   0  0  0  0  0  0  0  0  0  0  0  0
   40.5390   33.5000   38.8060 N   0  0  0  0  0  0  0  0  0  0  0  0
   39.2360   30.4390   38.6090 H   0  0  0  0  0  0  0  0  0  0  0  0
   40.9940   34.4880   40.6580 H   0  0  0  0  0  0  0  0  0  0  0  0
   36.7790   31.3410   40.8340 Cl  0  0  0  0  0  0  0  0  0  0  0  0
   37.9240   30.2420   41.5970 C   0  0  0  0  0  0  0  0  0  0  0  0
   39.2720   30.3960   41.3440 C   0  0  0  0  0  0  0  0  0  0  0  0
   40.0950   29.4910   41.9840 C   0  0  0  0  0  0  0  0  0  0  0  0
   41.1510   29.5690   41.8210 H   0  0  0  0  0  0  0  0  0  0  0  0
   39.6250   28.4980   42.8200 C   0  0  0  0  0  0  0  0  0  0  0  0
   40.3210   27.8040   43.3050 H   0  0  0  0  0  0  0  0  0  0  0  0
   38.2610   28.3930   43.0360 C   0  0  0  0  0  3  0  0  0  0  0  0
   37.3910   29.2730   42.4200 C   0  0  0  0  0  3  0  0  0  0  0  0
   39.9600   32.2250   36.9170 O   0  0  0  0  0  0  0  0  0  0  0  0
   39.0310   32.4090   36.5080 H   0  0  0  0  0  0  0  0  0  0  0  0
  1  6  2  0  0  0  0
  1  2  1  0  0  0  0
  2  3  2  0  0  0  0
  3  4  1  0  0  0  0
  3 11  1  0  0  0  0
  5  8  1  0  0  0  0
  5  4  2  0  0  0  0
  6  5  1  0  0  0  0
  7  2  1  0  0  0  0
  9 10  1  0  0  0  0
 10 17  1  0  0  0  0
 11 10  2  0  0  0  0
 11 12  1  0  0  0  0
 12 14  2  0  0  0  0
 13 12  1  0  0  0  0
 14 16  1  0  0  0  0
 14 15  1  0  0  0  0
 17 16  2  0  0  0  0
 18  1  1  0  0  0  0
 19 18  1  0  0  0  0
M  END
>  <minimizedAffinity>
-4.34746885

$$$$
