
 OpenBabel03242515043D

 39 41  0  0  0  0  0  0  0  0999 V2000
   44.9510   34.5730   42.3160 C   0  0  0  0  0  0  0  0  0  0  0  0
   46.2050   34.1170   41.9290 C   0  0  0  0  0  0  0  0  0  0  0  0
   47.1260   33.7110   42.8770 C   0  0  0  0  0  0  0  0  0  0  0  0
   46.7290   33.7890   44.1690 N   0  0  0  0  0  0  0  0  0  0  0  0
   45.5010   34.2350   44.5520 C   0  0  0  0  0  0  0  0  0  0  0  0
   44.6570   34.6120   43.6130 N   0  0  0  0  0  0  0  0  0  0  0  0
   46.4440   34.0940   40.9180 H   0  0  0  0  0  0  0  0  0  0  0  0
   49.5380   35.6300   42.2110 Cl  0  0  0  0  0  0  0  0  0  0  0  0
   49.6120   33.9150   42.3670 C   0  0  0  0  0  0  0  0  0  0  0  0
   48.4680   33.2270   42.6580 C   0  0  0  0  0  0  0  0  0  0  0  0
   48.6670   31.8620   42.7310 C   0  0  0  0  0  0  0  0  0  0  0  0
   47.8870   31.1360   42.9500 H   0  0  0  0  0  0  0  0  0  0  0  0
   49.8890   31.2610   42.5330 C   0  0  0  0  0  0  0  0  0  0  0  0
   50.0360   30.1940   42.5930 H   0  0  0  0  0  0  0  0  0  0  0  0
   51.0110   32.0000   42.2430 C   0  0  0  0  0  0  0  0  0  0  0  0
   50.8540   33.3650   42.1600 C   0  0  0  0  0  0  0  0  0  0  0  0
   45.2270   34.2560   45.9770 C   0  0  0  0  0  0  0  0  0  0  0  0
   44.3730   35.0780   46.3810 O   0  0  0  0  0  0  0  0  0  0  0  0
   45.9450   33.3420   46.8190 N   0  0  0  0  0  0  0  0  0  0  0  0
   45.8460   32.3830   47.2400 H   0  0  0  0  0  0  0  0  0  0  0  0
   46.8850   33.5940   47.2060 H   0  0  0  0  0  0  0  0  0  0  0  0
   43.8380   35.0750   41.0110 S   0  0  0  0  0  0  0  0  0  0  0  0
   42.1040   34.9420   41.4910 C   0  0  0  0  0  0  0  0  0  0  0  0
   42.0200   35.1150   42.5860 H   0  0  0  0  0  0  0  0  0  0  0  0
   41.7870   33.8730   41.3340 H   0  0  0  0  0  0  0  0  0  0  0  0
   41.2060   35.8940   40.7870 C   0  0  0  0  0  0  0  0  0  0  0  0
   40.6010   36.5380   41.4870 H   0  0  0  0  0  0  0  0  0  0  0  0
   41.8510   36.6110   40.2220 H   0  0  0  0  0  0  0  0  0  0  0  0
   42.0390   36.0970   37.8780 Cl  0  0  0  0  0  0  0  0  0  0  0  0
   40.6440   35.2400   38.4290 C   0  0  0  0  0  0  0  0  0  0  0  0
   40.3560   35.2130   39.7890 C   0  0  0  0  0  0  0  0  0  0  0  0
   39.2220   34.5090   40.1540 C   0  0  0  0  0  0  0  0  0  0  0  0
   38.3500   33.8320   39.3110 C   0  0  0  0  0  0  0  0  0  0  0  0
   38.6690   33.8840   37.9790 C   0  0  0  0  0  0  0  0  0  0  0  0
   37.6280   33.0590   36.8100 Cl  0  0  0  0  0  0  0  0  0  0  0  0
   39.7830   34.5670   37.5480 C   0  0  0  0  0  0  0  0  0  0  0  0
   39.0220   34.5040   41.2290 H   0  0  0  0  0  0  0  0  0  0  0  0
   37.4980   33.3180   39.7100 H   0  0  0  0  0  0  0  0  0  0  0  0
   40.0070   34.5870   36.4780 H   0  0  0  0  0  0  0  0  0  0  0  0
  1  6  1  0  0  0  0
  2  1  2  0  0  0  0
  2  3  1  0  0  0  0
  3  4  2  0  0  0  0
  4  5  1  0  0  0  0
  5 17  1  0  0  0  0
  6  5  2  0  0  0  0
  7  2  1  0  0  0  0
  8  9  1  0  0  0  0
  9 10  1  0  0  0  0
 10 11  2  0  0  0  0
 10  3  1  0  0  0  0
 11 12  1  0  0  0  0
 13 14  1  0  0  0  0
 13 11  1  0  0  0  0
 15 13  2  0  0  0  0
 16 15  1  0  0  0  0
 16  9  2  0  0  0  0
 17 18  2  0  0  0  0
 17 19  1  0  0  0  0
 19 21  1  0  0  0  0
 19 20  1  0  0  0  0
 22 23  1  0  0  0  0
 22  1  1  0  0  0  0
 23 24  1  0  0  0  0
 25 23  1  0  0  0  0
 26 27  1  0  0  0  0
 26 23  1  0  0  0  0
 28 26  1  0  0  0  0
 29 30  1  0  0  0  0
 30 31  1  0  0  0  0
 31 32  2  0  0  0  0
 31 26  1  0  0  0  0
 32 37  1  0  0  0  0
 33 38  1  0  0  0  0
 33 32  1  0  0  0  0
 34 33  2  0  0  0  0
 35 34  1  0  0  0  0
 36 34  1  0  0  0  0
 36 30  2  0  0  0  0
 39 36  1  0  0  0  0
M  END
>  <minimizedAffinity>
-7.43380499

>  <minimizedRMSD>
1.04568338

$$$$
