
 OpenBabel03252505253D

 43 46  0  0  1  0  0  0  0  0999 V2000
   47.7380   31.4360   45.0500 F   0  0  0  0  0  0  0  0  0  0  0  0
   47.9640   30.1340   45.4350 C   0  0  0  0  0  0  0  0  0  0  0  0
   48.8790   29.3900   44.7140 C   0  0  0  0  0  0  0  0  0  0  0  0
   49.0860   28.1090   45.1100 C   0  0  0  0  0  0  0  0  0  0  0  0
   48.4000   27.5850   46.1960 C   0  0  0  0  0  0  0  0  0  0  0  0
   47.4960   28.3230   46.9070 C   0  0  0  0  0  0  0  0  0  0  0  0
   47.2840   29.6340   46.5010 C   0  0  0  0  0  0  0  0  0  0  0  0
   49.8090   27.5210   44.5410 H   0  0  0  0  0  0  0  0  0  0  0  0
   48.6160   26.5570   46.4550 H   0  0  0  0  0  0  0  0  0  0  0  0
   46.9650   27.9030   47.7550 H   0  0  0  0  0  0  0  0  0  0  0  0
   46.3310   30.3720   47.2710 N   0  0  0  0  0  0  0  0  0  0  0  0
   44.9740   30.0430   47.6450 C   0  0  0  0  0  0  0  0  0  0  0  0
   44.9620   30.3130   49.1480 C   0  0  0  0  0  0  0  0  0  0  0  0
   46.0810   31.3080   49.3280 C   0  0  0  0  0  0  0  0  0  0  0  0
   46.4320   31.6730   47.9070 C   0  0  2  0  0  0  0  0  0  0  0  0
   44.7230   28.9770   47.4320 H   0  0  0  0  0  0  0  0  0  0  0  0
   44.2720   30.7400   47.1340 H   0  0  0  0  0  0  0  0  0  0  0  0
   45.1630   29.3530   49.6880 H   0  0  0  0  0  0  0  0  0  0  0  0
   43.9650   30.7370   49.3720 H   0  0  0  0  0  0  0  0  0  0  0  0
   45.6100   32.2290   49.7690 H   0  0  0  0  0  0  0  0  0  0  0  0
   46.9200   30.9370   49.9140 H   0  0  0  0  0  0  0  0  0  0  0  0
   47.4810   32.0260   47.8060 H   0  0  0  0  0  0  0  0  0  0  0  0
   45.5300   32.7020   47.3110 C   0  0  0  0  0  0  0  0  0  0  0  0
   44.5390   32.7650   47.7970 H   0  0  0  0  0  0  0  0  0  0  0  0
   45.3420   32.4240   46.2540 H   0  0  0  0  0  0  0  0  0  0  0  0
   46.0400   33.6880   47.2940 H   0  0  0  0  0  0  0  0  0  0  0  0
   51.1530   29.8090   41.8830 C   0  0  0  0  0  0  0  0  0  0  0  0
   50.8800   31.1290   41.4480 C   0  0  0  0  0  0  0  0  0  0  0  0
   49.9090   31.8190   42.1640 C   0  0  0  0  0  0  0  0  0  0  0  0
   49.3060   31.2060   43.1970 N   0  0  0  0  0  0  0  0  0  0  0  0
   49.5700   29.9810   43.5890 C   0  0  0  0  0  0  0  0  0  0  0  0
   50.5010   29.2670   42.9320 N   0  0  0  0  0  0  0  0  0  0  0  0
   51.9010   29.2680   41.3370 H   0  0  0  0  0  0  0  0  0  0  0  0
   51.3900   31.5590   40.6240 H   0  0  0  0  0  0  0  0  0  0  0  0
   47.9760   32.0260   39.9610 Cl  0  0  0  0  0  0  0  0  0  0  0  0
   48.6340   33.4180   40.8020 C   0  0  0  0  0  0  0  0  0  0  0  0
   49.5340   33.1840   41.8200 C   0  0  0  0  0  0  0  0  0  0  0  0
   50.0180   34.3110   42.4450 C   0  0  0  0  0  0  0  0  0  0  0  0
   50.7210   34.2010   43.2450 H   0  0  0  0  0  0  0  0  0  0  0  0
   49.6380   35.5890   42.0910 C   0  0  0  0  0  0  0  0  0  0  0  0
   50.0440   36.4380   42.6080 H   0  0  0  0  0  0  0  0  0  0  0  0
   48.7330   35.7570   41.0630 C   0  0  0  0  0  0  0  0  0  0  0  0
   48.2110   34.6680   40.3960 C   0  0  0  0  0  0  0  0  0  0  0  0
  1  2  1  0  0  0  0
  2  7  1  0  0  0  0
  3  4  1  0  0  0  0
  3  2  2  0  0  0  0
  4  5  2  0  0  0  0
  5  9  1  0  0  0  0
  5  6  1  0  0  0  0
  6 10  1  0  0  0  0
  7  6  2  0  0  0  0
  7 11  1  0  0  0  0
  8  4  1  0  0  0  0
 11 12  1  0  0  0  0
 11 15  1  0  0  0  0
 12 13  1  0  0  0  0
 13 14  1  0  0  0  0
 13 19  1  0  0  0  0
 13 18  1  0  0  0  0
 14 20  1  0  0  0  0
 14 21  1  0  0  0  0
 15 22  1  6  0  0  0
 15 14  1  0  0  0  0
 16 12  1  0  0  0  0
 17 12  1  0  0  0  0
 23 24  1  0  0  0  0
 23 15  1  0  0  0  0
 25 23  1  0  0  0  0
 26 23  1  0  0  0  0
 27 32  1  0  0  0  0
 28 27  2  0  0  0  0
 28 29  1  0  0  0  0
 29 30  2  0  0  0  0
 30 31  1  0  0  0  0
 31  3  1  0  0  0  0
 32 31  2  0  0  0  0
 33 27  1  0  0  0  0
 34 28  1  0  0  0  0
 35 36  1  0  0  0  0
 36 37  1  0  0  0  0
 37 29  1  0  0  0  0
 37 38  2  0  0  0  0
 38 39  1  0  0  0  0
 40 38  1  0  0  0  0
 40 41  1  0  0  0  0
 42 40  2  0  0  0  0
 43 36  2  0  0  0  0
 43 42  1  0  0  0  0
M  END
>  <minimizedAffinity>
-5.72178078

>  <minimizedRMSD>
3.55065894

$$$$
