
 OpenBabel03252506273D

 45 49  0  0  0  0  0  0  0  0999 V2000
   36.3760   27.2540   39.6020 C   0  0  0  0  0  0  0  0  0  0  0  0
   35.7850   28.4990   39.6970 C   0  0  0  0  0  0  0  0  0  0  0  0
   35.8790   29.1350   40.9360 C   0  0  0  0  0  0  0  0  0  0  0  0
   36.5230   28.5660   42.0110 C   0  0  0  0  0  0  0  0  0  0  0  0
   36.7640   28.9290   43.2820 N   0  0  0  0  0  0  0  0  0  0  0  0
   37.4560   27.9790   43.9330 C   0  0  0  0  0  0  0  0  0  0  0  0
   37.6980   26.9200   43.0650 C   0  0  0  0  0  0  0  0  0  0  0  0
   37.1060   27.3170   41.8890 C   0  0  0  0  0  0  0  0  0  0  0  0
   37.0160   26.6870   40.6700 C   0  0  0  0  0  0  0  0  0  0  0  0
   36.2700   26.8080   38.6160 H   0  0  0  0  0  0  0  0  0  0  0  0
   35.4640   30.1100   41.1510 H   0  0  0  0  0  0  0  0  0  0  0  0
   36.4580   29.8310   43.7180 H   0  0  0  0  0  0  0  0  0  0  0  0
   37.7940   27.9920   44.9640 H   0  0  0  0  0  0  0  0  0  0  0  0
   38.2260   25.9920   43.2590 H   0  0  0  0  0  0  0  0  0  0  0  0
   39.9610   26.5510   39.8720 Cl  0  0  0  0  0  0  0  0  0  0  0  0
   38.9310   25.1570   40.1320 C   0  0  0  0  0  0  0  0  0  0  0  0
   37.6150   25.3690   40.4900 C   0  0  0  0  0  0  0  0  0  0  0  0
   36.7160   24.3350   40.7190 C   0  0  0  0  0  0  0  0  0  0  0  0
   35.6860   24.4650   40.9990 H   0  0  0  0  0  0  0  0  0  0  0  0
   37.1660   23.0280   40.5800 C   0  0  0  0  0  0  0  0  0  0  0  0
   36.4580   22.2050   40.7620 H   0  0  0  0  0  0  0  0  0  0  0  0
   38.4950   22.7820   40.2190 C   0  0  0  0  0  3  0  0  0  0  0  0
   39.3440   23.8460   40.0030 C   0  0  0  0  0  3  0  0  0  0  0  0
   35.0630   29.2730   38.6950 C   0  0  0  0  0  0  0  0  0  0  0  0
   34.7680   30.2410   39.1960 H   0  0  0  0  0  0  0  0  0  0  0  0
   34.0820   28.8050   38.4410 H   0  0  0  0  0  0  0  0  0  0  0  0
   35.7960   29.6260   37.4600 C   0  0  0  0  0  0  0  0  0  0  0  0
   36.0260   28.6610   36.9250 H   0  0  0  0  0  0  0  0  0  0  0  0
   35.1920   30.2510   36.8060 H   0  0  0  0  0  0  0  0  0  0  0  0
   38.4200   31.7880   38.5760 C   0  0  0  0  0  0  0  0  0  0  0  0
   39.1470   30.7280   37.9770 C   0  0  0  0  0  0  0  0  0  0  0  0
   38.2700   29.8120   37.4970 C   0  0  0  0  0  0  0  0  0  0  0  0
   37.0470   30.2840   37.7880 N   0  0  0  0  0  0  0  0  0  0  0  0
   37.1410   31.4560   38.4270 N   0  0  0  0  0  0  0  0  0  0  0  0
   40.2190   30.6180   37.8870 H   0  0  0  0  0  0  0  0  0  0  0  0
   38.4440   28.8890   36.9870 H   0  0  0  0  0  0  0  0  0  0  0  0
   38.8160   34.8440   40.5150 C   0  0  0  0  0  0  0  0  0  0  0  0
   40.1640   35.1400   40.3760 C   0  0  0  0  0  0  0  0  0  0  0  0
   40.9440   34.2800   39.6070 C   0  0  0  0  0  0  0  0  0  0  0  0
   40.3280   33.2200   39.0550 N   0  0  0  0  0  0  0  0  0  0  0  0
   39.0330   32.9390   39.1910 C   0  0  0  0  0  0  0  0  0  0  0  0
   38.2840   33.7630   39.9270 N   0  0  0  0  0  0  0  0  0  0  0  0
   38.2870   35.5490   41.1180 H   0  0  0  0  0  0  0  0  0  0  0  0
   40.7050   35.9760   40.7990 H   0  0  0  0  0  0  0  0  0  0  0  0
   41.9950   34.3740   39.4080 H   0  0  0  0  0  0  0  0  0  0  0  0
  1  2  2  0  0  0  0
  1  9  1  0  0  0  0
  2  3  1  0  0  0  0
  3 11  1  0  0  0  0
  3  4  2  0  0  0  0
  4  5  1  0  0  0  0
  5 12  1  0  0  0  0
  5  6  1  0  0  0  0
  6 13  1  0  0  0  0
  7 14  1  0  0  0  0
  7  6  2  0  0  0  0
  8  4  1  0  0  0  0
  8  7  1  0  0  0  0
  9  8  2  0  0  0  0
 10  1  1  0  0  0  0
 15 16  1  0  0  0  0
 16 17  1  0  0  0  0
 17  9  1  0  0  0  0
 17 18  2  0  0  0  0
 18 19  1  0  0  0  0
 20 18  1  0  0  0  0
 20 21  1  0  0  0  0
 22 20  2  0  0  0  0
 23 16  2  0  0  0  0
 23 22  1  0  0  0  0
 24 25  1  0  0  0  0
 24  2  1  0  0  0  0
 26 24  1  0  0  0  0
 27 33  1  0  0  0  0
 27 24  1  0  0  0  0
 28 27  1  0  0  0  0
 29 27  1  0  0  0  0
 30 41  1  0  0  0  0
 31 30  1  0  0  0  0
 32 33  1  0  0  0  0
 32 31  2  0  0  0  0
 33 34  1  0  0  0  0
 34 30  2  0  0  0  0
 35 31  1  0  0  0  0
 36 32  1  0  0  0  0
 37 43  1  0  0  0  0
 38 37  1  0  0  0  0
 38 44  1  0  0  0  0
 39 38  2  0  0  0  0
 40 41  2  0  0  0  0
 40 39  1  0  0  0  0
 41 42  1  0  0  0  0
 42 37  2  0  0  0  0
 45 39  1  0  0  0  0
M  END
>  <minimizedAffinity>
-6.92580843

$$$$

 OpenBabel03252506273D

 45 49  0  0  0  0  0  0  0  0999 V2000
   36.9790   27.7900   39.6400 C   0  0  0  0  0  0  0  0  0  0  0  0
   36.6070   29.1190   39.7200 C   0  0  0  0  0  0  0  0  0  0  0  0
   36.5700   29.6740   41.0000 C   0  0  0  0  0  0  0  0  0  0  0  0
   36.8860   28.9520   42.1280 C   0  0  0  0  0  0  0  0  0  0  0  0
   36.9370   29.2130   43.4450 N   0  0  0  0  0  0  0  0  0  0  0  0
   37.3150   28.1250   44.1390 C   0  0  0  0  0  0  0  0  0  0  0  0
   37.5310   27.0750   43.2520 C   0  0  0  0  0  0  0  0  0  0  0  0
   37.2550   27.6230   42.0200 C   0  0  0  0  0  0  0  0  0  0  0  0
   37.2930   27.0710   40.7610 C   0  0  0  0  0  0  0  0  0  0  0  0
   36.9890   27.4120   38.6220 H   0  0  0  0  0  0  0  0  0  0  0  0
   36.2980   30.7000   41.2090 H   0  0  0  0  0  0  0  0  0  0  0  0
   36.7150   30.1370   43.8850 H   0  0  0  0  0  0  0  0  0  0  0  0
   37.4440   28.0330   45.2110 H   0  0  0  0  0  0  0  0  0  0  0  0
   37.8410   26.0590   43.4680 H   0  0  0  0  0  0  0  0  0  0  0  0
   40.2630   26.4290   40.4590 Cl  0  0  0  0  0  0  0  0  0  0  0  0
   38.9770   25.2380   40.4480 C   0  0  0  0  0  0  0  0  0  0  0  0
   37.6760   25.6730   40.5950 C   0  0  0  0  0  0  0  0  0  0  0  0
   36.5850   24.8130   40.6000 C   0  0  0  0  0  0  0  0  0  0  0  0
   35.5610   25.1200   40.7130 H   0  0  0  0  0  0  0  0  0  0  0  0
   36.8190   23.4520   40.4500 C   0  0  0  0  0  0  0  0  0  0  0  0
   35.9570   22.7670   40.4540 H   0  0  0  0  0  0  0  0  0  0  0  0
   38.1270   22.9810   40.3000 C   0  0  0  0  0  3  0  0  0  0  0  0
   39.1730   23.8790   40.3010 C   0  0  0  0  0  3  0  0  0  0  0  0
   36.2390   30.0530   38.6650 C   0  0  0  0  0  0  0  0  0  0  0  0
   35.6320   30.8660   39.1600 H   0  0  0  0  0  0  0  0  0  0  0  0
   35.5180   29.5970   37.9440 H   0  0  0  0  0  0  0  0  0  0  0  0
   37.3410   30.7140   37.9340 C   0  0  0  0  0  0  0  0  0  0  0  0
   38.1330   29.9330   37.7540 H   0  0  0  0  0  0  0  0  0  0  0  0
   37.0060   31.0990   36.9730 H   0  0  0  0  0  0  0  0  0  0  0  0
   39.4090   32.9380   39.8270 C   0  0  0  0  0  0  0  0  0  0  0  0
   38.1400   33.5610   39.9270 C   0  0  0  0  0  0  0  0  0  0  0  0
   37.2330   32.8180   39.2450 C   0  0  0  0  0  0  0  0  0  0  0  0
   37.9130   31.7760   38.7410 N   0  0  0  0  0  0  0  0  0  0  0  0
   39.2030   31.8510   39.0890 N   0  0  0  0  0  0  0  0  0  0  0  0
   37.8800   34.4720   40.4470 H   0  0  0  0  0  0  0  0  0  0  0  0
   36.1850   32.9700   39.0980 H   0  0  0  0  0  0  0  0  0  0  0  0
   42.6140   33.0460   41.5510 C   0  0  0  0  0  0  0  0  0  0  0  0
   42.9080   34.4000   41.5990 C   0  0  0  0  0  0  0  0  0  0  0  0
   41.9940   35.2860   41.0330 C   0  0  0  0  0  0  0  0  0  0  0  0
   40.8890   34.7570   40.4790 N   0  0  0  0  0  0  0  0  0  0  0  0
   40.6110   33.4540   40.4350 C   0  0  0  0  0  0  0  0  0  0  0  0
   41.4860   32.6050   40.9770 N   0  0  0  0  0  0  0  0  0  0  0  0
   43.3630   32.4340   42.0050 H   0  0  0  0  0  0  0  0  0  0  0  0
   43.7790   34.8740   42.0320 H   0  0  0  0  0  0  0  0  0  0  0  0
   42.0790   36.3550   40.9920 H   0  0  0  0  0  0  0  0  0  0  0  0
  1  2  2  0  0  0  0
  1  9  1  0  0  0  0
  2  3  1  0  0  0  0
  3 11  1  0  0  0  0
  3  4  2  0  0  0  0
  4  5  1  0  0  0  0
  5 12  1  0  0  0  0
  5  6  1  0  0  0  0
  6 13  1  0  0  0  0
  7 14  1  0  0  0  0
  7  6  2  0  0  0  0
  8  4  1  0  0  0  0
  8  7  1  0  0  0  0
  9  8  2  0  0  0  0
 10  1  1  0  0  0  0
 16 15  1  0  0  0  0
 16 17  1  0  0  0  0
 17 18  2  0  0  0  0
 17  9  1  0  0  0  0
 18 19  1  0  0  0  0
 20 21  1  0  0  0  0
 20 18  1  0  0  0  0
 22 23  1  0  0  0  0
 22 20  2  0  0  0  0
 23 16  2  0  0  0  0
 24 25  1  0  0  0  0
 24  2  1  0  0  0  0
 26 24  1  0  0  0  0
 27 24  1  0  0  0  0
 27 33  1  0  0  0  0
 28 27  1  0  0  0  0
 29 27  1  0  0  0  0
 30 31  1  0  0  0  0
 30 41  1  0  0  0  0
 31 35  1  0  0  0  0
 32 31  2  0  0  0  0
 33 34  1  0  0  0  0
 33 32  1  0  0  0  0
 34 30  2  0  0  0  0
 36 32  1  0  0  0  0
 37 38  1  0  0  0  0
 37 43  1  0  0  0  0
 38 44  1  0  0  0  0
 39 38  2  0  0  0  0
 40 39  1  0  0  0  0
 41 40  2  0  0  0  0
 41 42  1  0  0  0  0
 42 37  2  0  0  0  0
 45 39  1  0  0  0  0
M  END
>  <minimizedAffinity>
-6.87787676

$$$$

 OpenBabel03252506273D

 45 49  0  0  0  0  0  0  0  0999 V2000
   37.5650   28.6490   39.6040 C   0  0  0  0  0  0  0  0  0  0  0  0
   37.4360   29.9780   39.9590 C   0  0  0  0  0  0  0  0  0  0  0  0
   37.2640   30.2400   41.3200 C   0  0  0  0  0  0  0  0  0  0  0  0
   37.2250   29.2420   42.2650 C   0  0  0  0  0  0  0  0  0  0  0  0
   37.0770   29.1950   43.6000 N   0  0  0  0  0  0  0  0  0  0  0  0
   37.1120   27.9280   44.0460 C   0  0  0  0  0  0  0  0  0  0  0  0
   37.2930   27.0720   42.9650 C   0  0  0  0  0  0  0  0  0  0  0  0
   37.3570   27.9180   41.8820 C   0  0  0  0  0  0  0  0  0  0  0  0
   37.5270   27.6550   40.5430 C   0  0  0  0  0  0  0  0  0  0  0  0
   37.6960   28.5060   38.5350 H   0  0  0  0  0  0  0  0  0  0  0  0
   37.1500   31.2310   41.7370 H   0  0  0  0  0  0  0  0  0  0  0  0
   36.9500   30.0290   44.2200 H   0  0  0  0  0  0  0  0  0  0  0  0
   37.0200   27.5820   45.0700 H   0  0  0  0  0  0  0  0  0  0  0  0
   37.3650   25.9890   42.9630 H   0  0  0  0  0  0  0  0  0  0  0  0
   40.3140   26.4100   40.6130 Cl  0  0  0  0  0  0  0  0  0  0  0  0
   38.8670   25.5880   40.0660 C   0  0  0  0  0  0  0  0  0  0  0  0
   37.6710   26.2760   40.0900 C   0  0  0  0  0  0  0  0  0  0  0  0
   36.4670   25.7170   39.6790 C   0  0  0  0  0  0  0  0  0  0  0  0
   35.5190   26.2260   39.6840 H   0  0  0  0  0  0  0  0  0  0  0  0
   36.4710   24.4050   39.2230 C   0  0  0  0  0  0  0  0  0  0  0  0
   35.5190   23.9580   38.8970 H   0  0  0  0  0  0  0  0  0  0  0  0
   37.6680   23.6820   39.1880 C   0  0  0  0  0  3  0  0  0  0  0  0
   38.8340   24.2860   39.6080 C   0  0  0  0  0  3  0  0  0  0  0  0
   37.4490   31.1750   39.1280 C   0  0  0  0  0  0  0  0  0  0  0  0
   36.6380   31.0320   38.3550 H   0  0  0  0  0  0  0  0  0  0  0  0
   38.3800   31.2410   38.5170 H   0  0  0  0  0  0  0  0  0  0  0  0
   37.1860   32.4660   39.8010 C   0  0  0  0  0  0  0  0  0  0  0  0
   36.3950   32.9970   39.2000 H   0  0  0  0  0  0  0  0  0  0  0  0
   36.8140   32.3160   40.8130 H   0  0  0  0  0  0  0  0  0  0  0  0
   40.4760   33.8460   39.5210 C   0  0  0  0  0  0  0  0  0  0  0  0
   39.7500   34.9280   40.0780 C   0  0  0  0  0  0  0  0  0  0  0  0
   38.4580   34.5490   40.2460 C   0  0  0  0  0  0  0  0  0  0  0  0
   38.3870   33.2810   39.8100 N   0  0  0  0  0  0  0  0  0  0  0  0
   39.5850   32.8680   39.3820 N   0  0  0  0  0  0  0  0  0  0  0  0
   40.1120   35.9110   40.3450 H   0  0  0  0  0  0  0  0  0  0  0  0
   37.6240   35.0910   40.6360 H   0  0  0  0  0  0  0  0  0  0  0  0
   44.0890   33.9800   39.9510 C   0  0  0  0  0  0  0  0  0  0  0  0
   44.5670   33.9890   38.6490 C   0  0  0  0  0  0  0  0  0  0  0  0
   43.6370   33.9480   37.6130 C   0  0  0  0  0  0  0  0  0  0  0  0
   42.3380   33.9030   37.9550 N   0  0  0  0  0  0  0  0  0  0  0  0
   41.8820   33.8950   39.2080 C   0  0  0  0  0  0  0  0  0  0  0  0
   42.7730   33.9340   40.2010 N   0  0  0  0  0  0  0  0  0  0  0  0
   44.8630   34.0130   40.6870 H   0  0  0  0  0  0  0  0  0  0  0  0
   45.5980   34.0240   38.3230 H   0  0  0  0  0  0  0  0  0  0  0  0
   43.8500   33.9480   36.5600 H   0  0  0  0  0  0  0  0  0  0  0  0
  1  2  2  0  0  0  0
  1  9  1  0  0  0  0
  2  3  1  0  0  0  0
  3 11  1  0  0  0  0
  3  4  2  0  0  0  0
  4  5  1  0  0  0  0
  5  6  1  0  0  0  0
  5 12  1  0  0  0  0
  6 13  1  0  0  0  0
  7  6  2  0  0  0  0
  8  4  1  0  0  0  0
  8  7  1  0  0  0  0
  9  8  2  0  0  0  0
 10  1  1  0  0  0  0
 14  7  1  0  0  0  0
 16 17  1  0  0  0  0
 16 15  1  0  0  0  0
 17  9  1  0  0  0  0
 18 19  1  0  0  0  0
 18 17  2  0  0  0  0
 20 18  1  0  0  0  0
 21 20  1  0  0  0  0
 22 20  2  0  0  0  0
 22 23  1  0  0  0  0
 23 16  2  0  0  0  0
 24 27  1  0  0  0  0
 24  2  1  0  0  0  0
 25 24  1  0  0  0  0
 26 24  1  0  0  0  0
 27 33  1  0  0  0  0
 27 29  1  0  0  0  0
 28 27  1  0  0  0  0
 30 31  1  0  0  0  0
 31 32  2  0  0  0  0
 31 35  1  0  0  0  0
 32 36  1  0  0  0  0
 33 32  1  0  0  0  0
 34 30  2  0  0  0  0
 34 33  1  0  0  0  0
 37 42  1  0  0  0  0
 37 43  1  0  0  0  0
 38 37  2  0  0  0  0
 39 40  2  0  0  0  0
 39 38  1  0  0  0  0
 40 41  1  0  0  0  0
 41 30  1  0  0  0  0
 41 42  2  0  0  0  0
 44 38  1  0  0  0  0
 45 39  1  0  0  0  0
M  END
>  <minimizedAffinity>
-6.70824909

$$$$

 OpenBabel03252506273D

 45 49  0  0  0  0  0  0  0  0999 V2000
   37.9040   29.9150   41.3740 C   0  0  0  0  0  0  0  0  0  0  0  0
   37.1130   30.6600   40.5210 C   0  0  0  0  0  0  0  0  0  0  0  0
   36.3720   29.9420   39.5800 C   0  0  0  0  0  0  0  0  0  0  0  0
   36.4160   28.5690   39.4970 C   0  0  0  0  0  0  0  0  0  0  0  0
   35.8320   27.6410   38.7210 N   0  0  0  0  0  0  0  0  0  0  0  0
   36.2300   26.4040   39.0660 C   0  0  0  0  0  0  0  0  0  0  0  0
   37.1250   26.4950   40.1270 C   0  0  0  0  0  0  0  0  0  0  0  0
   37.2170   27.8470   40.3650 C   0  0  0  0  0  0  0  0  0  0  0  0
   37.9480   28.5500   41.2930 C   0  0  0  0  0  0  0  0  0  0  0  0
   38.4570   30.5260   42.0830 H   0  0  0  0  0  0  0  0  0  0  0  0
   35.7130   30.3960   38.8530 H   0  0  0  0  0  0  0  0  0  0  0  0
   35.1560   27.8420   37.9480 H   0  0  0  0  0  0  0  0  0  0  0  0
   35.9290   25.4620   38.6210 H   0  0  0  0  0  0  0  0  0  0  0  0
   37.6390   25.6960   40.6500 H   0  0  0  0  0  0  0  0  0  0  0  0
   36.6910   27.4960   43.8680 Cl  0  0  0  0  0  0  0  0  0  0  0  0
   38.3760   27.3040   43.4280 C   0  0  0  0  0  0  0  0  0  0  0  0
   38.8070   27.8340   42.2300 C   0  0  0  0  0  0  0  0  0  0  0  0
   40.1210   27.7370   41.7870 C   0  0  0  0  0  0  0  0  0  0  0  0
   40.4890   28.1380   40.8600 H   0  0  0  0  0  0  0  0  0  0  0  0
   41.0400   27.0760   42.5920 C   0  0  0  0  0  0  0  0  0  0  0  0
   42.0820   26.9970   42.2450 H   0  0  0  0  0  0  0  0  0  0  0  0
   40.6320   26.5280   43.8120 C   0  0  0  0  0  3  0  0  0  0  0  0
   39.3160   26.6540   44.2030 C   0  0  0  0  0  3  0  0  0  0  0  0
   36.9230   32.1030   40.4390 C   0  0  0  0  0  0  0  0  0  0  0  0
   37.3850   32.5350   41.3750 H   0  0  0  0  0  0  0  0  0  0  0  0
   35.8460   32.3820   40.5310 H   0  0  0  0  0  0  0  0  0  0  0  0
   37.5360   32.8000   39.2880 C   0  0  0  0  0  0  0  0  0  0  0  0
   37.9350   32.0050   38.5950 H   0  0  0  0  0  0  0  0  0  0  0  0
   36.8020   33.3950   38.7490 H   0  0  0  0  0  0  0  0  0  0  0  0
   40.6890   34.2060   40.2300 C   0  0  0  0  0  0  0  0  0  0  0  0
   39.8020   35.2860   40.4670 C   0  0  0  0  0  0  0  0  0  0  0  0
   38.5420   34.8970   40.1500 C   0  0  0  0  0  0  0  0  0  0  0  0
   38.6440   33.6260   39.7320 N   0  0  0  0  0  0  0  0  0  0  0  0
   39.9180   33.2200   39.7810 N   0  0  0  0  0  0  0  0  0  0  0  0
   40.0350   36.2740   40.8400 H   0  0  0  0  0  0  0  0  0  0  0  0
   37.6200   35.4340   40.1990 H   0  0  0  0  0  0  0  0  0  0  0  0
   43.8900   34.9700   41.7880 C   0  0  0  0  0  0  0  0  0  0  0  0
   44.8120   34.3970   40.9250 C   0  0  0  0  0  0  0  0  0  0  0  0
   44.3280   33.7410   39.7960 C   0  0  0  0  0  0  0  0  0  0  0  0
   42.9940   33.7130   39.6270 N   0  0  0  0  0  0  0  0  0  0  0  0
   42.1110   34.2650   40.4580 C   0  0  0  0  0  0  0  0  0  0  0  0
   42.5740   34.8940   41.5410 N   0  0  0  0  0  0  0  0  0  0  0  0
   44.3390   35.4530   42.6290 H   0  0  0  0  0  0  0  0  0  0  0  0
   45.8900   34.3920   41.0170 H   0  0  0  0  0  0  0  0  0  0  0  0
   44.9120   33.2500   39.0400 H   0  0  0  0  0  0  0  0  0  0  0  0
  1 10  1  0  0  0  0
  2  1  2  0  0  0  0
  3  2  1  0  0  0  0
  4  3  2  0  0  0  0
  4  8  1  0  0  0  0
  5  6  1  0  0  0  0
  5  4  1  0  0  0  0
  6  7  2  0  0  0  0
  7  8  1  0  0  0  0
  7 14  1  0  0  0  0
  8  9  2  0  0  0  0
  9  1  1  0  0  0  0
  9 17  1  0  0  0  0
 11  3  1  0  0  0  0
 12  5  1  0  0  0  0
 13  6  1  0  0  0  0
 16 15  1  0  0  0  0
 16 23  1  0  0  0  0
 17 16  2  0  0  0  0
 18 17  1  0  0  0  0
 18 20  2  0  0  0  0
 19 18  1  0  0  0  0
 20 22  1  0  0  0  0
 21 20  1  0  0  0  0
 22 23  2  0  0  0  0
 24  2  1  0  0  0  0
 24 26  1  0  0  0  0
 24 25  1  0  0  0  0
 27 33  1  0  0  0  0
 27 24  1  0  0  0  0
 28 27  1  0  0  0  0
 29 27  1  0  0  0  0
 30 41  1  0  0  0  0
 30 31  1  0  0  0  0
 31 35  1  0  0  0  0
 32 36  1  0  0  0  0
 32 31  2  0  0  0  0
 33 34  1  0  0  0  0
 33 32  1  0  0  0  0
 34 30  2  0  0  0  0
 37 43  1  0  0  0  0
 38 44  1  0  0  0  0
 38 37  2  0  0  0  0
 39 38  1  0  0  0  0
 40 39  2  0  0  0  0
 40 41  1  0  0  0  0
 41 42  2  0  0  0  0
 42 37  1  0  0  0  0
 45 39  1  0  0  0  0
M  END
>  <minimizedAffinity>
-6.64978456

$$$$

 OpenBabel03252506273D

 45 49  0  0  0  0  0  0  0  0999 V2000
   36.8220   26.6770   40.5230 C   0  0  0  0  0  0  0  0  0  0  0  0
   36.4650   27.8580   41.1440 C   0  0  0  0  0  0  0  0  0  0  0  0
   37.1730   28.1850   42.3030 C   0  0  0  0  0  0  0  0  0  0  0  0
   38.1720   27.3850   42.8090 C   0  0  0  0  0  0  0  0  0  0  0  0
   38.9960   27.4420   43.8680 N   0  0  0  0  0  0  0  0  0  0  0  0
   39.8100   26.3720   43.9050 C   0  0  0  0  0  0  0  0  0  0  0  0
   39.5260   25.5500   42.8200 C   0  0  0  0  0  0  0  0  0  0  0  0
   38.5090   26.2060   42.1660 C   0  0  0  0  0  0  0  0  0  0  0  0
   37.8150   25.8810   41.0240 C   0  0  0  0  0  0  0  0  0  0  0  0
   36.2390   26.4740   39.6280 H   0  0  0  0  0  0  0  0  0  0  0  0
   36.9990   29.0770   42.8890 H   0  0  0  0  0  0  0  0  0  0  0  0
   39.0120   28.2120   44.5770 H   0  0  0  0  0  0  0  0  0  0  0  0
   40.5750   26.1450   44.6380 H   0  0  0  0  0  0  0  0  0  0  0  0
   39.9890   24.6080   42.5440 H   0  0  0  0  0  0  0  0  0  0  0  0
   39.9920   25.9880   38.8850 Cl  0  0  0  0  0  0  0  0  0  0  0  0
   39.0920   24.5500   39.3230 C   0  0  0  0  0  0  0  0  0  0  0  0
   38.1340   24.6490   40.3110 C   0  0  0  0  0  0  0  0  0  0  0  0
   37.3650   23.5700   40.7330 C   0  0  0  0  0  0  0  0  0  0  0  0
   36.6120   23.6140   41.4990 H   0  0  0  0  0  0  0  0  0  0  0  0
   37.5740   22.3370   40.1280 C   0  0  0  0  0  0  0  0  0  0  0  0
   36.9680   21.4800   40.4600 H   0  0  0  0  0  0  0  0  0  0  0  0
   38.5390   22.2060   39.1240 C   0  0  0  0  0  3  0  0  0  0  0  0
   39.2730   23.3100   38.7440 C   0  0  0  0  0  3  0  0  0  0  0  0
   35.4500   28.8390   40.7810 C   0  0  0  0  0  0  0  0  0  0  0  0
   35.7420   29.8000   41.2970 H   0  0  0  0  0  0  0  0  0  0  0  0
   34.4600   28.5930   41.2350 H   0  0  0  0  0  0  0  0  0  0  0  0
   35.2920   29.1440   39.3430 C   0  0  0  0  0  0  0  0  0  0  0  0
   35.4200   28.1750   38.7840 H   0  0  0  0  0  0  0  0  0  0  0  0
   34.3020   29.5420   39.1290 H   0  0  0  0  0  0  0  0  0  0  0  0
   37.7320   31.7360   38.9750 C   0  0  0  0  0  0  0  0  0  0  0  0
   37.8170   31.0730   37.7250 C   0  0  0  0  0  0  0  0  0  0  0  0
   36.9320   30.0450   37.7130 C   0  0  0  0  0  0  0  0  0  0  0  0
   36.3230   30.0700   38.9100 N   0  0  0  0  0  0  0  0  0  0  0  0
   36.8000   31.0730   39.6540 N   0  0  0  0  0  0  0  0  0  0  0  0
   38.4580   31.3040   36.8860 H   0  0  0  0  0  0  0  0  0  0  0  0
   36.7130   29.3300   36.9500 H   0  0  0  0  0  0  0  0  0  0  0  0
   40.6130   33.9270   39.3700 C   0  0  0  0  0  0  0  0  0  0  0  0
   40.0860   35.0380   40.0120 C   0  0  0  0  0  0  0  0  0  0  0  0
   38.7260   35.0330   40.3120 C   0  0  0  0  0  0  0  0  0  0  0  0
   38.0220   33.9440   39.9540 N   0  0  0  0  0  0  0  0  0  0  0  0
   38.5320   32.8790   39.3370 C   0  0  0  0  0  0  0  0  0  0  0  0
   39.8360   32.8830   39.0490 N   0  0  0  0  0  0  0  0  0  0  0  0
   41.6600   34.0080   39.1740 H   0  0  0  0  0  0  0  0  0  0  0  0
   40.6080   35.9340   40.3190 H   0  0  0  0  0  0  0  0  0  0  0  0
   38.1750   35.8130   40.8030 H   0  0  0  0  0  0  0  0  0  0  0  0
  1  9  2  0  0  0  0
  1  2  1  0  0  0  0
  2  3  2  0  0  0  0
  3  4  1  0  0  0  0
  3 11  1  0  0  0  0
  4  5  1  0  0  0  0
  5  6  1  0  0  0  0
  5 12  1  0  0  0  0
  6 13  1  0  0  0  0
  7  6  2  0  0  0  0
  8  4  2  0  0  0  0
  8  7  1  0  0  0  0
  9  8  1  0  0  0  0
 10  1  1  0  0  0  0
 14  7  1  0  0  0  0
 15 16  1  0  0  0  0
 16 17  1  0  0  0  0
 17 18  2  0  0  0  0
 17  9  1  0  0  0  0
 18 19  1  0  0  0  0
 20 21  1  0  0  0  0
 20 18  1  0  0  0  0
 22 20  2  0  0  0  0
 23 22  1  0  0  0  0
 23 16  2  0  0  0  0
 24  2  1  0  0  0  0
 24 26  1  0  0  0  0
 24 25  1  0  0  0  0
 27 24  1  0  0  0  0
 28 27  1  0  0  0  0
 29 27  1  0  0  0  0
 30 41  1  0  0  0  0
 30 34  2  0  0  0  0
 31 30  1  0  0  0  0
 32 31  2  0  0  0  0
 32 33  1  0  0  0  0
 33 27  1  0  0  0  0
 33 34  1  0  0  0  0
 35 31  1  0  0  0  0
 36 32  1  0  0  0  0
 37 38  1  0  0  0  0
 38 39  2  0  0  0  0
 38 44  1  0  0  0  0
 39 45  1  0  0  0  0
 40 39  1  0  0  0  0
 41 40  2  0  0  0  0
 42 41  1  0  0  0  0
 42 37  2  0  0  0  0
 43 37  1  0  0  0  0
M  END
>  <minimizedAffinity>
-6.56995869

$$$$

 OpenBabel03252506273D

 45 49  0  0  0  0  0  0  0  0999 V2000
   36.5700   30.9620   38.8560 C   0  0  0  0  0  0  0  0  0  0  0  0
   37.0900   31.8980   39.7290 C   0  0  0  0  0  0  0  0  0  0  0  0
   37.2920   31.4720   41.0430 C   0  0  0  0  0  0  0  0  0  0  0  0
   36.9960   30.1940   41.4590 C   0  0  0  0  0  0  0  0  0  0  0  0
   37.0820   29.5240   42.6210 N   0  0  0  0  0  0  0  0  0  0  0  0
   36.6490   28.2590   42.4820 C   0  0  0  0  0  0  0  0  0  0  0  0
   36.2490   28.0600   41.1650 C   0  0  0  0  0  0  0  0  0  0  0  0
   36.4770   29.2760   40.5640 C   0  0  0  0  0  0  0  0  0  0  0  0
   36.2770   29.6910   39.2680 C   0  0  0  0  0  0  0  0  0  0  0  0
   36.4340   31.3490   37.8490 H   0  0  0  0  0  0  0  0  0  0  0  0
   37.6910   32.0980   41.8290 H   0  0  0  0  0  0  0  0  0  0  0  0
   37.4390   29.9240   43.5200 H   0  0  0  0  0  0  0  0  0  0  0  0
   36.6000   27.4870   43.2420 H   0  0  0  0  0  0  0  0  0  0  0  0
   35.8480   27.1610   40.7080 H   0  0  0  0  0  0  0  0  0  0  0  0
   38.2310   27.8850   37.7700 Cl  0  0  0  0  0  0  0  0  0  0  0  0
   36.4940   27.8870   37.5380 C   0  0  0  0  0  0  0  0  0  0  0  0
   35.7310   28.7590   38.2860 C   0  0  0  0  0  0  0  0  0  0  0  0
   34.3480   28.8410   38.1800 C   0  0  0  0  0  0  0  0  0  0  0  0
   33.7260   29.5090   38.7480 H   0  0  0  0  0  0  0  0  0  0  0  0
   33.7070   28.0030   37.2760 C   0  0  0  0  0  0  0  0  0  0  0  0
   32.6110   28.0630   37.1890 H   0  0  0  0  0  0  0  0  0  0  0  0
   34.4540   27.1070   36.5040 C   0  0  0  0  0  3  0  0  0  0  0  0
   35.8240   27.0690   36.6500 C   0  0  0  0  0  3  0  0  0  0  0  0
   37.4680   33.2860   39.4980 C   0  0  0  0  0  0  0  0  0  0  0  0
   36.5360   33.9000   39.6720 H   0  0  0  0  0  0  0  0  0  0  0  0
   37.7040   33.4750   38.4240 H   0  0  0  0  0  0  0  0  0  0  0  0
   38.5290   33.8490   40.3610 C   0  0  0  0  0  0  0  0  0  0  0  0
   38.2430   34.9160   40.5820 H   0  0  0  0  0  0  0  0  0  0  0  0
   38.6030   33.3070   41.3020 H   0  0  0  0  0  0  0  0  0  0  0  0
   41.4770   33.1040   38.4760 C   0  0  0  0  0  0  0  0  0  0  0  0
   41.6980   34.4540   38.8460 C   0  0  0  0  0  0  0  0  0  0  0  0
   40.6430   34.8860   39.5810 C   0  0  0  0  0  0  0  0  0  0  0  0
   39.8010   33.8440   39.6630 N   0  0  0  0  0  0  0  0  0  0  0  0
   40.2990   32.7890   39.0070 N   0  0  0  0  0  0  0  0  0  0  0  0
   42.5460   35.0830   38.6110 H   0  0  0  0  0  0  0  0  0  0  0  0
   40.4560   35.8370   40.0290 H   0  0  0  0  0  0  0  0  0  0  0  0
   44.5830   31.9290   36.9830 C   0  0  0  0  0  0  0  0  0  0  0  0
   44.1790   30.8580   36.2010 C   0  0  0  0  0  0  0  0  0  0  0  0
   42.8230   30.5360   36.1870 C   0  0  0  0  0  0  0  0  0  0  0  0
   42.0050   31.2940   36.9380 N   0  0  0  0  0  0  0  0  0  0  0  0
   42.3980   32.3230   37.6880 C   0  0  0  0  0  0  0  0  0  0  0  0
   43.6970   32.6310   37.7020 N   0  0  0  0  0  0  0  0  0  0  0  0
   45.6350   32.1110   36.9410 H   0  0  0  0  0  0  0  0  0  0  0  0
   44.7950   30.2200   35.5820 H   0  0  0  0  0  0  0  0  0  0  0  0
   42.3590   29.7410   35.6350 H   0  0  0  0  0  0  0  0  0  0  0  0
  1  9  2  0  0  0  0
  1  2  1  0  0  0  0
  2  3  2  0  0  0  0
  3  4  1  0  0  0  0
  3 11  1  0  0  0  0
  4  5  1  0  0  0  0
  5 12  1  0  0  0  0
  6  5  1  0  0  0  0
  6 13  1  0  0  0  0
  7  6  2  0  0  0  0
  8  7  1  0  0  0  0
  8  4  2  0  0  0  0
  9  8  1  0  0  0  0
 10  1  1  0  0  0  0
 14  7  1  0  0  0  0
 16 15  1  0  0  0  0
 16 17  1  0  0  0  0
 17  9  1  0  0  0  0
 18 17  2  0  0  0  0
 18 19  1  0  0  0  0
 20 18  1  0  0  0  0
 21 20  1  0  0  0  0
 22 23  1  0  0  0  0
 22 20  2  0  0  0  0
 23 16  2  0  0  0  0
 24 25  1  0  0  0  0
 24  2  1  0  0  0  0
 24 27  1  0  0  0  0
 26 24  1  0  0  0  0
 27 28  1  0  0  0  0
 27 29  1  0  0  0  0
 30 31  1  0  0  0  0
 30 34  2  0  0  0  0
 31 32  2  0  0  0  0
 32 33  1  0  0  0  0
 32 36  1  0  0  0  0
 33 27  1  0  0  0  0
 34 33  1  0  0  0  0
 35 31  1  0  0  0  0
 37 42  1  0  0  0  0
 38 37  2  0  0  0  0
 39 38  1  0  0  0  0
 39 40  2  0  0  0  0
 40 41  1  0  0  0  0
 41 42  2  0  0  0  0
 41 30  1  0  0  0  0
 43 37  1  0  0  0  0
 44 38  1  0  0  0  0
 45 39  1  0  0  0  0
M  END
>  <minimizedAffinity>
-6.56873894

$$$$

 OpenBabel03252506273D

 45 49  0  0  0  0  0  0  0  0999 V2000
   37.9470   29.0390   41.1180 C   0  0  0  0  0  0  0  0  0  0  0  0
   38.9490   29.3110   42.0300 C   0  0  0  0  0  0  0  0  0  0  0  0
   39.3630   30.6420   42.1170 C   0  0  0  0  0  0  0  0  0  0  0  0
   38.8110   31.6380   41.3440 C   0  0  0  0  0  0  0  0  0  0  0  0
   39.0010   32.9620   41.2150 N   0  0  0  0  0  0  0  0  0  0  0  0
   38.1750   33.4800   40.2900 C   0  0  0  0  0  0  0  0  0  0  0  0
   37.3870   32.4610   39.7640 C   0  0  0  0  0  0  0  0  0  0  0  0
   37.8080   31.3380   40.4380 C   0  0  0  0  0  0  0  0  0  0  0  0
   37.3980   30.0290   40.3500 C   0  0  0  0  0  0  0  0  0  0  0  0
   37.6670   27.9890   41.0940 H   0  0  0  0  0  0  0  0  0  0  0  0
   40.1350   30.9950   42.7860 H   0  0  0  0  0  0  0  0  0  0  0  0
   39.6960   33.5250   41.7590 H   0  0  0  0  0  0  0  0  0  0  0  0
   38.1000   34.5140   39.9720 H   0  0  0  0  0  0  0  0  0  0  0  0
   36.6190   32.5250   39.0010 H   0  0  0  0  0  0  0  0  0  0  0  0
   38.1430   29.7510   37.4020 Cl  0  0  0  0  0  0  0  0  0  0  0  0
   36.5350   29.5030   38.0540 C   0  0  0  0  0  0  0  0  0  0  0  0
   36.3430   29.6630   39.4100 C   0  0  0  0  0  0  0  0  0  0  0  0
   35.1100   29.4910   40.0270 C   0  0  0  0  0  0  0  0  0  0  0  0
   34.9270   29.6080   41.0800 H   0  0  0  0  0  0  0  0  0  0  0  0
   34.0220   29.1400   39.2380 C   0  0  0  0  0  0  0  0  0  0  0  0
   33.0440   29.0020   39.7220 H   0  0  0  0  0  0  0  0  0  0  0  0
   34.1860   28.9700   37.8600 C   0  0  0  0  0  3  0  0  0  0  0  0
   35.4330   29.1540   37.2990 C   0  0  0  0  0  3  0  0  0  0  0  0
   39.6610   28.4160   42.9340 C   0  0  0  0  0  0  0  0  0  0  0  0
   40.1890   29.0770   43.6820 H   0  0  0  0  0  0  0  0  0  0  0  0
   40.4990   27.8910   42.4170 H   0  0  0  0  0  0  0  0  0  0  0  0
   38.8490   27.4490   43.7030 C   0  0  0  0  0  0  0  0  0  0  0  0
   39.3250   27.3530   44.7200 H   0  0  0  0  0  0  0  0  0  0  0  0
   37.8270   27.8020   43.8290 H   0  0  0  0  0  0  0  0  0  0  0  0
   38.2400   24.4890   41.7870 C   0  0  0  0  0  0  0  0  0  0  0  0
   39.4510   24.1670   42.4500 C   0  0  0  0  0  0  0  0  0  0  0  0
   39.8150   25.2140   43.2310 C   0  0  0  0  0  0  0  0  0  0  0  0
   38.8690   26.1500   43.0580 N   0  0  0  0  0  0  0  0  0  0  0  0
   37.9370   25.7160   42.2020 N   0  0  0  0  0  0  0  0  0  0  0  0
   40.0280   23.2550   42.3840 H   0  0  0  0  0  0  0  0  0  0  0  0
   40.6610   25.3360   43.8720 H   0  0  0  0  0  0  0  0  0  0  0  0
   35.7020   23.1600   39.5410 C   0  0  0  0  0  0  0  0  0  0  0  0
   36.2360   21.9460   39.1340 C   0  0  0  0  0  0  0  0  0  0  0  0
   37.4830   21.5820   39.6370 C   0  0  0  0  0  0  0  0  0  0  0  0
   38.0780   22.4400   40.4850 N   0  0  0  0  0  0  0  0  0  0  0  0
   37.5600   23.6050   40.8740 C   0  0  0  0  0  0  0  0  0  0  0  0
   36.3650   23.9550   40.3920 N   0  0  0  0  0  0  0  0  0  0  0  0
   34.7450   23.3670   39.1110 H   0  0  0  0  0  0  0  0  0  0  0  0
   35.8000   21.2250   38.4570 H   0  0  0  0  0  0  0  0  0  0  0  0
   38.0240   20.6810   39.4170 H   0  0  0  0  0  0  0  0  0  0  0  0
  1  2  1  0  0  0  0
  2  3  2  0  0  0  0
  2 24  1  0  0  0  0
  3 11  1  0  0  0  0
  4  3  1  0  0  0  0
  5  4  1  0  0  0  0
  5 12  1  0  0  0  0
  6  5  1  0  0  0  0
  7  6  2  0  0  0  0
  7  8  1  0  0  0  0
  8  4  2  0  0  0  0
  9  8  1  0  0  0  0
  9  1  2  0  0  0  0
 10  1  1  0  0  0  0
 13  6  1  0  0  0  0
 14  7  1  0  0  0  0
 15 16  1  0  0  0  0
 16 17  1  0  0  0  0
 17 18  2  0  0  0  0
 17  9  1  0  0  0  0
 18 19  1  0  0  0  0
 20 21  1  0  0  0  0
 20 18  1  0  0  0  0
 22 20  2  0  0  0  0
 23 22  1  0  0  0  0
 23 16  2  0  0  0  0
 24 25  1  0  0  0  0
 24 27  1  0  0  0  0
 26 24  1  0  0  0  0
 27 29  1  0  0  0  0
 27 28  1  0  0  0  0
 30 34  2  0  0  0  0
 30 31  1  0  0  0  0
 31 32  2  0  0  0  0
 32 36  1  0  0  0  0
 33 32  1  0  0  0  0
 33 27  1  0  0  0  0
 34 33  1  0  0  0  0
 35 31  1  0  0  0  0
 37 42  1  0  0  0  0
 38 37  2  0  0  0  0
 38 39  1  0  0  0  0
 39 40  2  0  0  0  0
 40 41  1  0  0  0  0
 41 30  1  0  0  0  0
 42 41  2  0  0  0  0
 43 37  1  0  0  0  0
 44 38  1  0  0  0  0
 45 39  1  0  0  0  0
M  END
>  <minimizedAffinity>
-6.55846119

$$$$

 OpenBabel03252506273D

 45 49  0  0  0  0  0  0  0  0999 V2000
   36.5780   27.3850   39.6620 C   0  0  0  0  0  0  0  0  0  0  0  0
   36.0290   28.6480   39.7730 C   0  0  0  0  0  0  0  0  0  0  0  0
   36.0850   29.2370   41.0380 C   0  0  0  0  0  0  0  0  0  0  0  0
   36.6530   28.6070   42.1220 C   0  0  0  0  0  0  0  0  0  0  0  0
   36.8440   28.9170   43.4150 N   0  0  0  0  0  0  0  0  0  0  0  0
   37.4670   27.9190   44.0640 C   0  0  0  0  0  0  0  0  0  0  0  0
   37.7130   26.8810   43.1710 C   0  0  0  0  0  0  0  0  0  0  0  0
   37.1950   27.3410   41.9820 C   0  0  0  0  0  0  0  0  0  0  0  0
   37.1430   26.7580   40.7390 C   0  0  0  0  0  0  0  0  0  0  0  0
   36.5050   26.9770   38.6570 H   0  0  0  0  0  0  0  0  0  0  0  0
   35.6960   30.2190   41.2680 H   0  0  0  0  0  0  0  0  0  0  0  0
   36.5500   29.8140   43.8680 H   0  0  0  0  0  0  0  0  0  0  0  0
   37.7530   27.8830   45.1100 H   0  0  0  0  0  0  0  0  0  0  0  0
   38.1960   25.9280   43.3570 H   0  0  0  0  0  0  0  0  0  0  0  0
   40.1060   26.5370   40.0340 Cl  0  0  0  0  0  0  0  0  0  0  0  0
   39.0200   25.1750   40.2200 C   0  0  0  0  0  0  0  0  0  0  0  0
   37.7010   25.4240   40.5410 C   0  0  0  0  0  0  0  0  0  0  0  0
   36.7590   24.4170   40.7110 C   0  0  0  0  0  0  0  0  0  0  0  0
   35.7250   24.5770   40.9610 H   0  0  0  0  0  0  0  0  0  0  0  0
   37.1670   23.0990   40.5490 C   0  0  0  0  0  0  0  0  0  0  0  0
   36.4250   22.2980   40.6840 H   0  0  0  0  0  0  0  0  0  0  0  0
   38.4980   22.8150   40.2240 C   0  0  0  0  0  3  0  0  0  0  0  0
   39.3910   23.8540   40.0660 C   0  0  0  0  0  3  0  0  0  0  0  0
   35.3880   29.4830   38.7660 C   0  0  0  0  0  0  0  0  0  0  0  0
   35.1160   30.4490   39.2840 H   0  0  0  0  0  0  0  0  0  0  0  0
   34.3980   29.0690   38.4570 H   0  0  0  0  0  0  0  0  0  0  0  0
   36.1880   29.8370   37.5740 C   0  0  0  0  0  0  0  0  0  0  0  0
   36.6850   28.8900   37.2180 H   0  0  0  0  0  0  0  0  0  0  0  0
   35.5590   30.2220   36.7750 H   0  0  0  0  0  0  0  0  0  0  0  0
   39.1760   31.7610   37.9940 C   0  0  0  0  0  0  0  0  0  0  0  0
   38.2480   32.4810   38.7880 C   0  0  0  0  0  0  0  0  0  0  0  0
   37.0440   31.8590   38.7280 C   0  0  0  0  0  0  0  0  0  0  0  0
   37.2180   30.7970   37.9270 N   0  0  0  0  0  0  0  0  0  0  0  0
   38.4830   30.7420   37.4940 N   0  0  0  0  0  0  0  0  0  0  0  0
   38.4170   33.3780   39.3680 H   0  0  0  0  0  0  0  0  0  0  0  0
   36.1150   32.1070   39.1930 H   0  0  0  0  0  0  0  0  0  0  0  0
   42.2820   33.6400   38.2700 C   0  0  0  0  0  0  0  0  0  0  0  0
   43.1810   32.8850   37.5310 C   0  0  0  0  0  0  0  0  0  0  0  0
   42.7130   31.7190   36.9300 C   0  0  0  0  0  0  0  0  0  0  0  0
   41.4170   31.4100   37.1150 N   0  0  0  0  0  0  0  0  0  0  0  0
   40.5570   32.1380   37.8270 C   0  0  0  0  0  0  0  0  0  0  0  0
   41.0050   33.2560   38.4030 N   0  0  0  0  0  0  0  0  0  0  0  0
   42.7170   34.5170   38.6980 H   0  0  0  0  0  0  0  0  0  0  0  0
   44.2280   33.0900   37.3530 H   0  0  0  0  0  0  0  0  0  0  0  0
   43.2820   31.0330   36.3310 H   0  0  0  0  0  0  0  0  0  0  0  0
  1  2  2  0  0  0  0
  1  9  1  0  0  0  0
  2  3  1  0  0  0  0
  3 11  1  0  0  0  0
  3  4  2  0  0  0  0
  4  5  1  0  0  0  0
  5 12  1  0  0  0  0
  5  6  1  0  0  0  0
  6 13  1  0  0  0  0
  7 14  1  0  0  0  0
  7  6  2  0  0  0  0
  8  4  1  0  0  0  0
  8  7  1  0  0  0  0
  9  8  2  0  0  0  0
 10  1  1  0  0  0  0
 15 16  1  0  0  0  0
 16 17  1  0  0  0  0
 17 18  2  0  0  0  0
 17  9  1  0  0  0  0
 18 19  1  0  0  0  0
 20 21  1  0  0  0  0
 20 18  1  0  0  0  0
 22 20  2  0  0  0  0
 23 16  2  0  0  0  0
 23 22  1  0  0  0  0
 24 25  1  0  0  0  0
 24  2  1  0  0  0  0
 26 24  1  0  0  0  0
 27 33  1  0  0  0  0
 27 24  1  0  0  0  0
 28 27  1  0  0  0  0
 29 27  1  0  0  0  0
 30 31  1  0  0  0  0
 31 35  1  0  0  0  0
 32 31  2  0  0  0  0
 32 36  1  0  0  0  0
 33 32  1  0  0  0  0
 34 33  1  0  0  0  0
 34 30  2  0  0  0  0
 37 42  1  0  0  0  0
 37 43  1  0  0  0  0
 38 37  2  0  0  0  0
 39 40  2  0  0  0  0
 39 38  1  0  0  0  0
 40 41  1  0  0  0  0
 41 30  1  0  0  0  0
 41 42  2  0  0  0  0
 44 38  1  0  0  0  0
 45 39  1  0  0  0  0
M  END
>  <minimizedAffinity>
-6.55820656

$$$$

 OpenBabel03252506273D

 45 49  0  0  0  0  0  0  0  0999 V2000
   39.0420   27.8080   41.0890 C   0  0  0  0  0  0  0  0  0  0  0  0
   39.3670   29.0830   41.5130 C   0  0  0  0  0  0  0  0  0  0  0  0
   38.6910   29.5490   42.6420 C   0  0  0  0  0  0  0  0  0  0  0  0
   37.7540   28.7930   43.3070 C   0  0  0  0  0  0  0  0  0  0  0  0
   36.9710   28.9730   44.3840 N   0  0  0  0  0  0  0  0  0  0  0  0
   36.2120   27.8880   44.6170 C   0  0  0  0  0  0  0  0  0  0  0  0
   36.4920   26.9250   43.6530 C   0  0  0  0  0  0  0  0  0  0  0  0
   37.4470   27.5190   42.8610 C   0  0  0  0  0  0  0  0  0  0  0  0
   38.1100   27.0550   41.7500 C   0  0  0  0  0  0  0  0  0  0  0  0
   39.5980   27.4990   40.2080 H   0  0  0  0  0  0  0  0  0  0  0  0
   38.8460   30.5250   43.0820 H   0  0  0  0  0  0  0  0  0  0  0  0
   36.9470   29.8390   44.9720 H   0  0  0  0  0  0  0  0  0  0  0  0
   35.4880   27.7420   45.4110 H   0  0  0  0  0  0  0  0  0  0  0  0
   36.0630   25.9350   43.5410 H   0  0  0  0  0  0  0  0  0  0  0  0
   39.5420   24.6910   43.0490 Cl  0  0  0  0  0  0  0  0  0  0  0  0
   38.3940   24.5620   41.7310 C   0  0  0  0  0  0  0  0  0  0  0  0
   37.8220   25.7180   41.2410 C   0  0  0  0  0  0  0  0  0  0  0  0
   36.9020   25.7260   40.2000 C   0  0  0  0  0  0  0  0  0  0  0  0
   36.4390   26.6080   39.7960 H   0  0  0  0  0  0  0  0  0  0  0  0
   36.5430   24.5120   39.6280 C   0  0  0  0  0  0  0  0  0  0  0  0
   35.8140   24.5140   38.8040 H   0  0  0  0  0  0  0  0  0  0  0  0
   37.1060   23.3240   40.1040 C   0  0  0  0  0  3  0  0  0  0  0  0
   38.0150   23.3730   41.1400 C   0  0  0  0  0  3  0  0  0  0  0  0
   40.3180   30.0390   40.9620 C   0  0  0  0  0  0  0  0  0  0  0  0
   41.3260   29.7650   41.3900 H   0  0  0  0  0  0  0  0  0  0  0  0
   40.1410   31.0680   41.3570 H   0  0  0  0  0  0  0  0  0  0  0  0
   40.4630   30.0740   39.4910 C   0  0  0  0  0  0  0  0  0  0  0  0
   41.2060   30.8870   39.2510 H   0  0  0  0  0  0  0  0  0  0  0  0
   40.8450   29.1300   39.1080 H   0  0  0  0  0  0  0  0  0  0  0  0
   37.4080   30.1950   37.6320 C   0  0  0  0  0  0  0  0  0  0  0  0
   37.4020   31.4500   38.2890 C   0  0  0  0  0  0  0  0  0  0  0  0
   38.5220   31.5540   39.0470 C   0  0  0  0  0  0  0  0  0  0  0  0
   39.1950   30.4060   38.8680 N   0  0  0  0  0  0  0  0  0  0  0  0
   38.5320   29.6040   38.0280 N   0  0  0  0  0  0  0  0  0  0  0  0
   36.6590   32.2330   38.2300 H   0  0  0  0  0  0  0  0  0  0  0  0
   38.8590   32.3480   39.6760 H   0  0  0  0  0  0  0  0  0  0  0  0
   35.6660   29.2770   34.5690 C   0  0  0  0  0  0  0  0  0  0  0  0
   34.4100   28.8960   35.0150 C   0  0  0  0  0  0  0  0  0  0  0  0
   34.1590   28.9550   36.3840 C   0  0  0  0  0  0  0  0  0  0  0  0
   35.1610   29.3800   37.1740 N   0  0  0  0  0  0  0  0  0  0  0  0
   36.3670   29.7450   36.7410 C   0  0  0  0  0  0  0  0  0  0  0  0
   36.6080   29.6890   35.4290 N   0  0  0  0  0  0  0  0  0  0  0  0
   35.7800   29.2030   33.5090 H   0  0  0  0  0  0  0  0  0  0  0  0
   33.5740   28.5480   34.4230 H   0  0  0  0  0  0  0  0  0  0  0  0
   33.2430   28.6940   36.8800 H   0  0  0  0  0  0  0  0  0  0  0  0
  1  2  2  0  0  0  0
  1  9  1  0  0  0  0
  2  3  1  0  0  0  0
  3 11  1  0  0  0  0
  3  4  2  0  0  0  0
  4  5  1  0  0  0  0
  5  6  1  0  0  0  0
  5 12  1  0  0  0  0
  6 13  1  0  0  0  0
  7  6  2  0  0  0  0
  8  4  1  0  0  0  0
  8  7  1  0  0  0  0
  9  8  2  0  0  0  0
 10  1  1  0  0  0  0
 14  7  1  0  0  0  0
 16 15  1  0  0  0  0
 17 16  1  0  0  0  0
 17  9  1  0  0  0  0
 18 17  2  0  0  0  0
 19 18  1  0  0  0  0
 20 22  2  0  0  0  0
 20 18  1  0  0  0  0
 21 20  1  0  0  0  0
 22 23  1  0  0  0  0
 23 16  2  0  0  0  0
 24 26  1  0  0  0  0
 24 25  1  0  0  0  0
 24  2  1  0  0  0  0
 27 24  1  0  0  0  0
 28 27  1  0  0  0  0
 29 27  1  0  0  0  0
 30 34  2  0  0  0  0
 30 31  1  0  0  0  0
 31 32  2  0  0  0  0
 32 36  1  0  0  0  0
 33 32  1  0  0  0  0
 33 27  1  0  0  0  0
 34 33  1  0  0  0  0
 35 31  1  0  0  0  0
 37 38  2  0  0  0  0
 37 42  1  0  0  0  0
 38 39  1  0  0  0  0
 39 45  1  0  0  0  0
 39 40  2  0  0  0  0
 41 40  1  0  0  0  0
 41 30  1  0  0  0  0
 42 41  2  0  0  0  0
 43 37  1  0  0  0  0
 44 38  1  0  0  0  0
M  END
>  <minimizedAffinity>
-6.44290781

$$$$
