
 OpenBabel03252507073D

 24 25  0  0  0  0  0  0  0  0999 V2000
   44.5470   35.9810   44.5260 C   0  0  0  0  0  0  0  0  0  0  0  0
   45.1860   35.9830   43.2770 C   0  0  0  0  0  0  0  0  0  0  0  0
   46.0910   34.9690   43.0000 C   0  0  0  0  0  0  0  0  0  0  0  0
   46.3250   34.0120   43.9530 N   0  0  0  0  0  0  0  0  0  0  0  0
   45.6930   34.0480   45.1350 C   0  0  0  0  0  0  0  0  0  0  0  0
   44.8130   35.0140   45.4300 N   0  0  0  0  0  0  0  0  0  0  0  0
   43.8280   36.7500   44.7990 H   0  0  0  0  0  0  0  0  0  0  0  0
   44.9520   36.7730   42.5710 H   0  0  0  0  0  0  0  0  0  0  0  0
   47.5420   31.8750   44.3080 Cl  0  0  0  0  0  0  0  0  0  0  0  0
   46.7790   31.9640   45.9000 C   0  0  0  0  0  0  0  0  0  0  0  0
   45.9540   33.0210   46.1370 C   0  0  0  0  0  0  0  0  0  0  0  0
   45.3730   33.0640   47.3880 C   0  0  0  0  0  0  0  0  0  0  0  0
   44.7000   33.8670   47.6690 H   0  0  0  0  0  0  0  0  0  0  0  0
   45.5930   32.1120   48.3630 C   0  0  0  0  0  0  0  0  0  0  0  0
   45.1470   32.1400   49.3360 H   0  0  0  0  0  0  0  0  0  0  0  0
   46.4390   31.0700   48.0590 C   0  0  0  0  0  3  0  0  0  0  0  0
   47.0480   30.9750   46.8260 C   0  0  0  0  0  3  0  0  0  0  0  0
   46.7130   34.9900   41.7580 O   0  0  0  0  0  0  0  0  0  0  0  0
   48.5990   33.2640   41.1100 O   0  0  0  0  0  0  0  0  0  0  0  0
   48.3950   34.6650   41.6580 P   0  0  0  0  0  0  0  0  0  0  0  0
   49.0960   35.8410   40.6810 O   0  0  0  0  0  0  0  0  0  0  0  0
   48.9860   35.6660   39.7320 H   0  0  0  0  0  0  0  0  0  0  0  0
   49.0170   34.7360   43.2260 O   0  0  0  0  0  0  0  0  0  0  0  0
   49.9820   34.9650   43.1500 H   0  0  0  0  0  0  0  0  0  0  0  0
  1  7  1  0  0  0  0
  1  6  1  0  0  0  0
  2  1  2  0  0  0  0
  3  2  1  0  0  0  0
  3  4  2  0  0  0  0
  4  5  1  0  0  0  0
  5  6  2  0  0  0  0
  5 11  1  0  0  0  0
  8  2  1  0  0  0  0
  9 10  1  0  0  0  0
 10 11  2  0  0  0  0
 10 17  1  0  0  0  0
 11 12  1  0  0  0  0
 12 13  1  0  0  0  0
 12 14  2  0  0  0  0
 14 15  1  0  0  0  0
 16 14  1  0  0  0  0
 17 16  2  0  0  0  0
 18  3  1  0  0  0  0
 19 20  2  0  0  0  0
 20 18  1  0  0  0  0
 20 23  1  0  0  0  0
 21 20  1  0  0  0  0
 22 21  1  0  0  0  0
 24 23  1  0  0  0  0
M  END
>  <minimizedAffinity>
-5.93549919

>  <minimizedRMSD>
0.43223837

$$$$
