
 OpenBabel03252506563D

 38 42  0  0  0  0  0  0  0  0999 V2000
   47.2310   31.3530   45.1890 C   0  0  0  0  0  0  0  0  0  0  0  0
   46.8570   32.6970   45.1870 C   0  0  0  0  0  0  0  0  0  0  0  0
   46.2540   33.3000   46.2760 C   0  0  0  0  0  0  0  0  0  0  0  0
   45.9980   32.5680   47.4300 C   0  0  0  0  0  0  0  0  0  0  0  0
   45.4420   32.8270   48.6430 N   0  0  0  0  0  0  0  0  0  0  0  0
   45.4700   31.6780   49.3750 C   0  0  0  0  0  0  0  0  0  0  0  0
   46.0460   30.7270   48.5960 N   0  0  0  0  0  0  0  0  0  0  0  0
   46.3750   31.2520   47.4040 C   0  0  0  0  0  0  0  0  0  0  0  0
   46.9710   30.6130   46.3600 C   0  0  0  0  0  0  0  0  0  0  0  0
   47.7000   30.8900   44.3410 H   0  0  0  0  0  0  0  0  0  0  0  0
   45.9670   34.3530   46.2590 H   0  0  0  0  0  0  0  0  0  0  0  0
   45.0740   33.7440   48.9260 H   0  0  0  0  0  0  0  0  0  0  0  0
   45.1120   31.5370   50.3730 H   0  0  0  0  0  0  0  0  0  0  0  0
   46.4450   35.1740   42.5120 C   0  0  0  0  0  0  0  0  0  0  0  0
   47.6060   34.9850   41.7500 C   0  0  0  0  0  0  0  0  0  0  0  0
   48.5200   34.0120   42.1550 C   0  0  0  0  0  0  0  0  0  0  0  0
   48.2370   33.2870   43.2840 N   0  0  0  0  0  0  0  0  0  0  0  0
   47.1090   33.4930   43.9990 C   0  0  0  0  0  0  0  0  0  0  0  0
   46.2270   34.4260   43.6140 N   0  0  0  0  0  0  0  0  0  0  0  0
   45.6840   35.9130   42.2620 H   0  0  0  0  0  0  0  0  0  0  0  0
   47.7600   35.5870   40.8810 H   0  0  0  0  0  0  0  0  0  0  0  0
   49.4280   33.8370   41.5910 H   0  0  0  0  0  0  0  0  0  0  0  0
   47.3390   29.1970   46.4260 C   0  0  0  0  0  0  0  0  0  0  0  0
   48.3260   28.6040   45.6610 C   0  0  0  0  0  0  0  0  0  0  0  0
   48.3040   27.2620   46.0790 C   0  0  0  0  0  0  0  0  0  0  0  0
   47.3310   27.1280   47.0450 C   0  0  0  0  0  0  0  0  0  0  0  0
   46.7910   28.3150   47.2100 O   0  0  0  0  0  0  0  0  0  0  0  0
   48.9770   29.0110   44.9190 H   0  0  0  0  0  0  0  0  0  0  0  0
   48.9300   26.4350   45.7250 H   0  0  0  0  0  0  0  0  0  0  0  0
   49.2730   26.2780   49.1550 Cl  0  0  0  0  0  0  0  0  0  0  0  0
   47.7960   25.4230   48.7480 C   0  0  0  0  0  0  0  0  0  0  0  0
   46.9680   25.9060   47.7520 C   0  0  0  0  0  0  0  0  0  0  0  0
   45.8020   25.2490   47.4160 C   0  0  0  0  0  0  0  0  0  0  0  0
   45.1520   25.6180   46.6410 H   0  0  0  0  0  0  0  0  0  0  0  0
   45.4440   24.0910   48.0750 C   0  0  0  0  0  0  0  0  0  0  0  0
   44.5290   23.5750   47.8110 H   0  0  0  0  0  0  0  0  0  0  0  0
   46.2900   23.6330   49.0640 C   0  0  0  0  0  0  0  0  0  0  0  0
   47.4700   24.2600   49.4340 C   0  0  0  0  0  0  0  0  0  0  0  0
  1  9  1  0  0  0  0
  2  1  2  0  0  0  0
  2  3  1  0  0  0  0
  3  4  2  0  0  0  0
  4  5  1  0  0  0  0
  5 12  1  0  0  0  0
  5  6  1  0  0  0  0
  6 13  1  0  0  0  0
  7  6  2  0  0  0  0
  8  4  1  0  0  0  0
  8  7  1  0  0  0  0
  9 23  1  0  0  0  0
  9  8  2  0  0  0  0
 10  1  1  0  0  0  0
 11  3  1  0  0  0  0
 14 19  1  0  0  0  0
 15 16  1  0  0  0  0
 15 14  2  0  0  0  0
 16 17  2  0  0  0  0
 17 18  1  0  0  0  0
 18  2  1  0  0  0  0
 19 18  2  0  0  0  0
 20 14  1  0  0  0  0
 21 15  1  0  0  0  0
 22 16  1  0  0  0  0
 23 27  1  0  0  0  0
 24 25  1  0  0  0  0
 24 23  2  0  0  0  0
 25 26  2  0  0  0  0
 26 27  1  0  0  0  0
 26 32  1  0  0  0  0
 28 24  1  0  0  0  0
 29 25  1  0  0  0  0
 31 30  1  0  0  0  0
 31 38  1  0  0  0  0
 32 31  2  0  0  0  0
 33 32  1  0  0  0  0
 33 35  2  0  0  0  0
 34 33  1  0  0  0  0
 35 37  1  0  0  0  0
 36 35  1  0  0  0  0
 37 38  2  0  0  0  0
M  END
>  <minimizedAffinity>
-6.10793209

>  <minimizedRMSD>
1.23831201

$$$$
