
 OpenBabel03252503413D

 21 22  0  0  0  0  0  0  0  0999 V2000
   46.7670   33.8210   39.8320 C   0  0  0  0  0  0  0  0  0  0  0  0
   47.9940   34.4380   39.6020 C   0  0  0  0  0  0  0  0  0  0  0  0
   48.5380   35.1840   40.6540 C   0  0  0  0  0  0  0  0  0  0  0  0
   47.8420   35.2540   41.8060 N   0  0  0  0  0  0  0  0  0  0  0  0
   46.6610   34.6440   41.9880 C   0  0  0  0  0  0  0  0  0  0  0  0
   46.0850   33.9110   41.0120 N   0  0  0  0  0  0  0  0  0  0  0  0
   46.2550   33.2210   39.0880 H   0  0  0  0  0  0  0  0  0  0  0  0
   49.4770   35.6350   40.4270 H   0  0  0  0  0  0  0  0  0  0  0  0
   47.3630   32.6070   43.9860 Cl  0  0  0  0  0  0  0  0  0  0  0  0
   46.2210   33.8940   44.3070 C   0  0  0  0  0  0  0  0  0  0  0  0
   45.9850   34.7820   43.2760 C   0  0  0  0  0  0  0  0  0  0  0  0
   45.0940   35.8150   43.4750 C   0  0  0  0  0  0  0  0  0  0  0  0
   44.8990   36.5180   42.6800 H   0  0  0  0  0  0  0  0  0  0  0  0
   44.4650   35.9260   44.7060 C   0  0  0  0  0  0  0  0  0  0  0  0
   43.7570   36.7190   44.9110 H   0  0  0  0  0  0  0  0  0  0  0  0
   44.7350   35.0040   45.7150 C   0  0  0  0  0  0  0  0  0  0  0  0
   45.6260   33.9570   45.5400 C   0  0  0  0  0  0  0  0  0  0  0  0
   48.5670   34.2200   38.2620 C   0  0  0  0  0  0  0  0  0  0  0  0
   48.8250   33.1640   38.1430 H   0  0  0  0  0  0  0  0  0  0  0  0
   49.5030   34.7950   38.1240 H   0  0  0  0  0  0  0  0  0  0  0  0
   47.8380   34.4690   37.4530 H   0  0  0  0  0  0  0  0  0  0  0  0
  1  6  1  0  0  0  0
  2  1  2  0  0  0  0
  2  3  1  0  0  0  0
  3  4  2  0  0  0  0
  4  5  1  0  0  0  0
  5 11  1  0  0  0  0
  6  5  2  0  0  0  0
  7  1  1  0  0  0  0
  8  3  1  0  0  0  0
  9 10  1  0  0  0  0
 10 17  1  0  0  0  0
 11 12  1  0  0  0  0
 11 10  2  0  0  0  0
 12 14  2  0  0  0  0
 13 12  1  0  0  0  0
 14 15  1  0  0  0  0
 14 16  1  0  0  0  0
 17 16  2  0  0  0  0
 18  2  1  0  0  0  0
 19 18  1  0  0  0  0
 20 18  1  0  0  0  0
 21 18  1  0  0  0  0
M  END
>  <minimizedAffinity>
-4.926126

>  <minimizedRMSD>
4.892066

$$$$
