
 OpenBabel03242518213D

 39 42  0  0  0  0  0  0  0  0999 V2000
   44.7810   33.0900   43.0390 C   0  0  0  0  0  0  0  0  0  0  0  0
   44.4460   32.0360   42.9630 H   0  0  0  0  0  0  0  0  0  0  0  0
   44.7200   33.4240   44.0830 H   0  0  0  0  0  0  0  0  0  0  0  0
   43.8950   33.9260   42.1710 C   0  0  0  0  0  0  0  0  0  0  0  0
   44.0390   35.2800   42.0070 C   0  0  0  0  0  0  0  0  0  0  0  0
   43.0640   35.7260   41.1490 C   0  0  0  0  0  0  0  0  0  0  0  0
   42.3440   34.5950   40.8170 C   0  0  0  0  0  0  0  0  0  0  0  0
   42.8800   33.6000   41.4410 O   0  0  0  0  0  0  0  0  0  0  0  0
   44.7520   35.9940   42.4220 H   0  0  0  0  0  0  0  0  0  0  0  0
   42.8580   36.7170   40.7830 H   0  0  0  0  0  0  0  0  0  0  0  0
   41.1920   34.5540   39.9200 C   0  0  0  0  0  0  0  0  0  0  0  0
   41.3270   34.8480   38.5930 C   0  0  0  0  0  0  0  0  0  0  0  0
   40.2660   34.8210   37.6940 C   0  0  0  0  0  0  0  0  0  0  0  0
   39.0430   34.4610   38.2860 C   0  0  0  0  0  0  0  0  0  0  0  0
   38.8880   34.1640   39.6060 C   0  0  0  0  0  0  0  0  0  0  0  0
   39.9740   34.2180   40.3970 N   0  0  0  0  0  0  0  0  0  0  0  0
   42.2910   35.1210   38.1810 H   0  0  0  0  0  0  0  0  0  0  0  0
   40.3640   35.0520   36.6490 H   0  0  0  0  0  0  0  0  0  0  0  0
   38.1780   34.4270   37.6150 H   0  0  0  0  0  0  0  0  0  0  0  0
   37.9010   33.9020   39.9430 H   0  0  0  0  0  0  0  0  0  0  0  0
   48.4420   33.3320   43.1460 C   0  0  0  0  0  0  0  0  0  0  0  0
   48.8100   33.3700   41.8040 C   0  0  0  0  0  0  0  0  0  0  0  0
   47.7970   33.3110   40.8800 C   0  0  0  0  0  0  0  0  0  0  0  0
   46.5000   33.2200   41.2920 N   0  0  0  0  0  0  0  0  0  0  0  0
   46.1990   33.1870   42.6140 C   0  0  0  0  0  0  0  0  0  0  0  0
   47.1770   33.2440   43.5360 N   0  0  0  0  0  0  0  0  0  0  0  0
   49.1740   33.3740   43.9570 H   0  0  0  0  0  0  0  0  0  0  0  0
   47.9250   30.6030   39.5590 Cl  0  0  0  0  0  0  0  0  0  0  0  0
   48.0860   32.1610   38.7720 C   0  0  0  0  0  0  0  0  0  0  0  0
   48.0070   33.3470   39.4620 C   0  0  0  0  0  0  0  0  0  0  0  0
   48.1580   34.4190   38.6240 C   0  0  0  0  0  0  0  0  0  0  0  0
   48.1160   35.4000   39.0580 H   0  0  0  0  0  0  0  0  0  0  0  0
   48.3650   34.4060   37.2640 C   0  0  0  0  0  0  0  0  0  0  0  0
   48.4710   35.2950   36.6940 H   0  0  0  0  0  0  0  0  0  0  0  0
   48.4350   33.1940   36.6270 C   0  0  0  0  0  0  0  0  0  0  0  0
   48.2940   32.0580   37.3920 C   0  0  0  0  0  0  0  0  0  0  0  0
   50.1680   33.4710   41.4960 N   0  0  0  0  0  0  0  0  0  0  0  0
   50.5650   32.4860   41.4550 H   0  0  0  0  0  0  0  0  0  0  0  0
   50.2130   34.5300   41.4340 H   0  0  0  0  0  0  0  0  0  0  0  0
  1  3  1  0  0  0  0
  2  1  1  0  0  0  0
  4  1  1  0  0  0  0
  5  4  2  0  0  0  0
  5  9  1  0  0  0  0
  6  5  1  0  0  0  0
  7  6  2  0  0  0  0
  7  8  1  0  0  0  0
  8  4  1  0  0  0  0
 10  6  1  0  0  0  0
 11 16  1  0  0  0  0
 11  7  1  0  0  0  0
 12 11  2  0  0  0  0
 13 14  2  0  0  0  0
 13 12  1  0  0  0  0
 14 15  1  0  0  0  0
 15 20  1  0  0  0  0
 15 16  2  0  0  0  0
 17 12  1  0  0  0  0
 18 13  1  0  0  0  0
 19 14  1  0  0  0  0
 21 26  1  0  0  0  0
 21 27  1  0  0  0  0
 22 21  2  0  0  0  0
 23 24  2  0  0  0  0
 23 22  1  0  0  0  0
 24 25  1  0  0  0  0
 25  1  1  0  0  0  0
 25 26  2  0  0  0  0
 29 30  1  0  0  0  0
 29 28  1  0  0  0  0
 30 23  1  0  0  0  0
 31 32  1  0  0  0  0
 31 30  2  0  0  0  0
 33 31  1  0  0  0  0
 34 33  1  0  0  0  0
 35 33  2  0  0  0  0
 35 36  1  0  0  0  0
 36 29  2  0  0  0  0
 37 22  1  0  0  0  0
 38 37  1  0  0  0  0
 39 37  1  0  0  0  0
M  END
>  <minimizedAffinity>
-6.13254642

>  <minimizedRMSD>
3.77132177

$$$$
