
 OpenBabel03252504433D

 45 48  0  0  0  0  0  0  0  0999 V2000
   41.5340   33.0860   39.0050 C   0  0  0  0  0  0  0  0  0  0  0  0
   41.5720   33.7660   37.8250 C   0  0  0  0  0  0  0  0  0  0  0  0
   42.4510   33.1190   37.0460 N   0  0  0  0  0  0  0  0  0  0  0  0
   42.9700   32.0580   37.6830 C   0  0  0  0  0  0  0  0  0  0  0  0
   42.3900   32.0440   38.9140 N   0  0  0  0  0  0  0  0  0  0  0  0
   43.9190   31.0900   37.2810 N   0  0  0  0  0  0  0  0  0  0  0  0
   43.4200   29.8710   36.6060 C   0  0  0  0  0  0  0  0  0  0  0  0
   43.7620   30.0850   35.1340 C   0  0  0  0  0  0  0  0  0  0  0  0
   45.2010   30.5360   34.9870 C   0  0  0  0  0  0  0  0  0  0  0  0
   45.9490   30.2420   36.2700 C   0  0  0  0  0  0  0  0  0  0  0  0
   45.3400   31.0400   37.3970 C   0  0  0  0  0  0  0  0  0  0  0  0
   41.0170   34.6540   37.5400 H   0  0  0  0  0  0  0  0  0  0  0  0
   42.7480   33.3430   36.0640 H   0  0  0  0  0  0  0  0  0  0  0  0
   42.3130   29.8060   36.6870 H   0  0  0  0  0  0  0  0  0  0  0  0
   43.8890   28.9720   37.0020 H   0  0  0  0  0  0  0  0  0  0  0  0
   43.5900   29.1100   34.6320 H   0  0  0  0  0  0  0  0  0  0  0  0
   43.0470   30.8100   34.7170 H   0  0  0  0  0  0  0  0  0  0  0  0
   45.2230   31.6160   34.7390 H   0  0  0  0  0  0  0  0  0  0  0  0
   45.6880   29.9240   34.2000 H   0  0  0  0  0  0  0  0  0  0  0  0
   45.8560   29.1590   36.4490 H   0  0  0  0  0  0  0  0  0  0  0  0
   47.0160   30.4730   36.1290 H   0  0  0  0  0  0  0  0  0  0  0  0
   45.8340   32.0200   37.4560 H   0  0  0  0  0  0  0  0  0  0  0  0
   45.5860   30.4680   38.3360 H   0  0  0  0  0  0  0  0  0  0  0  0
   40.7000   33.4190   40.2010 C   0  0  0  0  0  0  0  0  0  0  0  0
   41.3450   33.1180   41.0750 H   0  0  0  0  0  0  0  0  0  0  0  0
   40.4950   34.5030   40.2750 H   0  0  0  0  0  0  0  0  0  0  0  0
   39.4800   31.3800   40.8430 C   0  0  0  0  0  3  0  0  0  0  0  0
   39.5070   32.5700   40.2800 C   0  0  0  0  0  3  0  0  0  0  0  0
   38.2140   30.6480   40.8350 C   0  0  0  0  0  0  0  0  0  0  0  0
   36.9610   31.3320   40.7450 C   0  0  0  0  0  0  0  0  0  0  0  0
   35.8140   30.5700   40.7510 C   0  0  0  0  0  0  0  0  0  0  0  0
   35.9160   29.2200   40.8400 N   0  0  0  0  0  0  0  0  0  0  0  0
   37.1130   28.5940   40.9250 C   0  0  0  0  0  0  0  0  0  0  0  0
   38.2350   29.2830   40.9220 N   0  0  0  0  0  0  0  0  0  0  0  0
   37.0400   32.4060   40.6800 H   0  0  0  0  0  0  0  0  0  0  0  0
   34.8980   31.1120   40.6830 H   0  0  0  0  0  0  0  0  0  0  0  0
   37.4040   27.2710   43.6780 Cl  0  0  0  0  0  0  0  0  0  0  0  0
   37.1080   26.4180   42.1790 C   0  0  0  0  0  0  0  0  0  0  0  0
   36.9990   27.1440   41.0120 C   0  0  0  0  0  0  0  0  0  0  0  0
   36.7640   26.3650   39.9000 C   0  0  0  0  0  0  0  0  0  0  0  0
   36.6560   26.8150   38.9050 H   0  0  0  0  0  0  0  0  0  0  0  0
   36.6480   24.9830   39.9480 C   0  0  0  0  0  0  0  0  0  0  0  0
   36.4610   24.4250   39.0270 H   0  0  0  0  0  0  0  0  0  0  0  0
   36.7680   24.3200   41.1450 C   0  0  0  0  0  3  0  0  0  0  0  0
   37.0010   25.0480   42.2830 C   0  0  0  0  0  3  0  0  0  0  0  0
  1 24  1  0  0  0  0
  2  1  2  0  0  0  0
  3  4  1  0  0  0  0
  3  2  1  0  0  0  0
  4  5  2  0  0  0  0
  5  1  1  0  0  0  0
  6 11  1  0  0  0  0
  6  4  1  0  0  0  0
  7 14  1  0  0  0  0
  7 15  1  0  0  0  0
  7  6  1  0  0  0  0
  8  7  1  0  0  0  0
  9  8  1  0  0  0  0
  9 10  1  0  0  0  0
 10 20  1  0  0  0  0
 10 11  1  0  0  0  0
 11 22  1  0  0  0  0
 11 23  1  0  0  0  0
 12  2  1  0  0  0  0
 13  3  1  0  0  0  0
 16  8  1  0  0  0  0
 17  8  1  0  0  0  0
 18  9  1  0  0  0  0
 19  9  1  0  0  0  0
 21 10  1  0  0  0  0
 24 26  1  0  0  0  0
 24 28  1  0  0  0  0
 24 25  1  0  0  0  0
 28 27  2  0  0  0  0
 29 27  1  0  0  0  0
 29 34  1  0  0  0  0
 30 31  1  0  0  0  0
 30 29  2  0  0  0  0
 31 32  2  0  0  0  0
 32 33  1  0  0  0  0
 33 39  1  0  0  0  0
 34 33  2  0  0  0  0
 35 30  1  0  0  0  0
 36 31  1  0  0  0  0
 38 45  1  0  0  0  0
 38 37  1  0  0  0  0
 39 38  2  0  0  0  0
 40 42  2  0  0  0  0
 40 39  1  0  0  0  0
 41 40  1  0  0  0  0
 42 44  1  0  0  0  0
 43 42  1  0  0  0  0
 44 45  2  0  0  0  0
M  END
>  <minimizedAffinity>
-6.24086237

$$$$

 OpenBabel03252504433D

 45 48  0  0  0  0  0  0  0  0999 V2000
   37.4430   31.7740   40.2730 C   0  0  0  0  0  0  0  0  0  0  0  0
   37.1310   32.6120   39.2450 C   0  0  0  0  0  0  0  0  0  0  0  0
   38.2890   33.1420   38.8280 N   0  0  0  0  0  0  0  0  0  0  0  0
   39.3210   32.6750   39.5470 C   0  0  0  0  0  0  0  0  0  0  0  0
   38.7820   31.8170   40.4540 N   0  0  0  0  0  0  0  0  0  0  0  0
   40.7090   32.9360   39.4820 N   0  0  0  0  0  0  0  0  0  0  0  0
   41.5320   32.0880   38.5910 C   0  0  0  0  0  0  0  0  0  0  0  0
   41.8200   32.9750   37.3830 C   0  0  0  0  0  0  0  0  0  0  0  0
   42.2950   34.3420   37.8330 C   0  0  0  0  0  0  0  0  0  0  0  0
   42.7210   34.2700   39.2840 C   0  0  0  0  0  0  0  0  0  0  0  0
   41.5300   33.9030   40.1360 C   0  0  0  0  0  0  0  0  0  0  0  0
   36.1540   32.8290   38.8240 H   0  0  0  0  0  0  0  0  0  0  0  0
   38.4540   33.8320   38.0530 H   0  0  0  0  0  0  0  0  0  0  0  0
   40.9450   31.2140   38.2340 H   0  0  0  0  0  0  0  0  0  0  0  0
   42.4490   31.7640   39.0800 H   0  0  0  0  0  0  0  0  0  0  0  0
   42.5990   32.4500   36.7920 H   0  0  0  0  0  0  0  0  0  0  0  0
   40.9080   33.0260   36.7690 H   0  0  0  0  0  0  0  0  0  0  0  0
   41.4830   35.0810   37.6810 H   0  0  0  0  0  0  0  0  0  0  0  0
   43.2060   34.6100   37.2580 H   0  0  0  0  0  0  0  0  0  0  0  0
   43.5080   33.5010   39.3440 H   0  0  0  0  0  0  0  0  0  0  0  0
   43.1620   35.2330   39.5810 H   0  0  0  0  0  0  0  0  0  0  0  0
   41.0080   34.8210   40.4430 H   0  0  0  0  0  0  0  0  0  0  0  0
   41.9580   33.4200   41.0590 H   0  0  0  0  0  0  0  0  0  0  0  0
   36.4870   30.9460   41.0720 C   0  0  0  0  0  0  0  0  0  0  0  0
   36.4740   31.4450   42.0830 H   0  0  0  0  0  0  0  0  0  0  0  0
   35.4640   30.9750   40.6550 H   0  0  0  0  0  0  0  0  0  0  0  0
   37.4940   29.1770   42.4550 C   0  0  0  0  0  3  0  0  0  0  0  0
   37.0080   29.5950   41.3050 C   0  0  0  0  0  3  0  0  0  0  0  0
   37.9860   27.8010   42.5310 C   0  0  0  0  0  0  0  0  0  0  0  0
   38.8820   27.3890   43.5660 C   0  0  0  0  0  0  0  0  0  0  0  0
   39.3050   26.0780   43.5620 C   0  0  0  0  0  0  0  0  0  0  0  0
   38.8600   25.2420   42.5910 N   0  0  0  0  0  0  0  0  0  0  0  0
   38.0110   25.6540   41.6200 C   0  0  0  0  0  0  0  0  0  0  0  0
   37.5820   26.8980   41.5860 N   0  0  0  0  0  0  0  0  0  0  0  0
   39.1470   28.1660   44.2660 H   0  0  0  0  0  0  0  0  0  0  0  0
   39.9730   25.8050   44.3470 H   0  0  0  0  0  0  0  0  0  0  0  0
   40.1580   24.6660   39.6640 Cl  0  0  0  0  0  0  0  0  0  0  0  0
   38.5190   24.0620   39.7460 C   0  0  0  0  0  0  0  0  0  0  0  0
   37.6580   24.6000   40.6780 C   0  0  0  0  0  0  0  0  0  0  0  0
   36.3980   24.0440   40.6490 C   0  0  0  0  0  0  0  0  0  0  0  0
   35.6140   24.3810   41.3390 H   0  0  0  0  0  0  0  0  0  0  0  0
   36.0280   23.0380   39.7680 C   0  0  0  0  0  0  0  0  0  0  0  0
   35.0110   22.6410   39.7980 H   0  0  0  0  0  0  0  0  0  0  0  0
   36.9360   22.5450   38.8610 C   0  0  0  0  0  3  0  0  0  0  0  0
   38.2050   23.0640   38.8490 C   0  0  0  0  0  3  0  0  0  0  0  0
  1  5  1  0  0  0  0
  1 24  1  0  0  0  0
  2  1  2  0  0  0  0
  3  2  1  0  0  0  0
  3  4  1  0  0  0  0
  4  5  2  0  0  0  0
  6  4  1  0  0  0  0
  6 11  1  0  0  0  0
  7 15  1  0  0  0  0
  7  6  1  0  0  0  0
  8  9  1  0  0  0  0
  8  7  1  0  0  0  0
  9 10  1  0  0  0  0
 10 20  1  0  0  0  0
 10 21  1  0  0  0  0
 10 11  1  0  0  0  0
 11 22  1  0  0  0  0
 11 23  1  0  0  0  0
 12  2  1  0  0  0  0
 13  3  1  0  0  0  0
 14  7  1  0  0  0  0
 16  8  1  0  0  0  0
 17  8  1  0  0  0  0
 18  9  1  0  0  0  0
 19  9  1  0  0  0  0
 24 28  1  0  0  0  0
 24 25  1  0  0  0  0
 26 24  1  0  0  0  0
 27 29  1  0  0  0  0
 28 27  2  0  0  0  0
 29 30  1  0  0  0  0
 30 35  1  0  0  0  0
 31 30  2  0  0  0  0
 31 36  1  0  0  0  0
 32 31  1  0  0  0  0
 33 32  2  0  0  0  0
 34 33  1  0  0  0  0
 34 29  2  0  0  0  0
 37 38  1  0  0  0  0
 38 39  1  0  0  0  0
 39 33  1  0  0  0  0
 40 39  2  0  0  0  0
 40 41  1  0  0  0  0
 42 43  1  0  0  0  0
 42 40  1  0  0  0  0
 44 42  2  0  0  0  0
 45 44  1  0  0  0  0
 45 38  2  0  0  0  0
M  END
>  <minimizedAffinity>
-6.22108126

$$$$

 OpenBabel03252504433D

 45 48  0  0  0  0  0  0  0  0999 V2000
   38.6950   33.2200   40.0630 C   0  0  0  0  0  0  0  0  0  0  0  0
   39.3690   34.3480   40.4250 C   0  0  0  0  0  0  0  0  0  0  0  0
   40.4820   33.9360   41.0500 N   0  0  0  0  0  0  0  0  0  0  0  0
   40.5410   32.5970   41.0980 C   0  0  0  0  0  0  0  0  0  0  0  0
   39.4150   32.1540   40.4770 N   0  0  0  0  0  0  0  0  0  0  0  0
   41.5020   31.7160   41.6440 N   0  0  0  0  0  0  0  0  0  0  0  0
   42.6180   31.2830   40.7740 C   0  0  0  0  0  0  0  0  0  0  0  0
   43.8170   32.0900   41.2630 C   0  0  0  0  0  0  0  0  0  0  0  0
   43.9200   32.0170   42.7730 C   0  0  0  0  0  0  0  0  0  0  0  0
   43.0760   30.8670   43.2770 C   0  0  0  0  0  0  0  0  0  0  0  0
   41.6290   31.1220   42.9360 C   0  0  0  0  0  0  0  0  0  0  0  0
   39.0910   35.3840   40.2570 H   0  0  0  0  0  0  0  0  0  0  0  0
   41.2510   34.5150   41.4700 H   0  0  0  0  0  0  0  0  0  0  0  0
   42.4250   31.5750   39.7190 H   0  0  0  0  0  0  0  0  0  0  0  0
   42.7950   30.2120   40.8510 H   0  0  0  0  0  0  0  0  0  0  0  0
   44.7090   31.6460   40.7750 H   0  0  0  0  0  0  0  0  0  0  0  0
   43.7100   33.1210   40.8960 H   0  0  0  0  0  0  0  0  0  0  0  0
   43.5960   32.9840   43.2100 H   0  0  0  0  0  0  0  0  0  0  0  0
   44.9680   31.7750   43.0480 H   0  0  0  0  0  0  0  0  0  0  0  0
   43.4510   29.9580   42.7780 H   0  0  0  0  0  0  0  0  0  0  0  0
   43.2310   30.7490   44.3600 H   0  0  0  0  0  0  0  0  0  0  0  0
   41.1570   31.6870   43.7530 H   0  0  0  0  0  0  0  0  0  0  0  0
   41.1460   30.1050   42.8920 H   0  0  0  0  0  0  0  0  0  0  0  0
   37.3890   33.1540   39.3370 C   0  0  0  0  0  0  0  0  0  0  0  0
   36.6620   33.6530   40.0390 H   0  0  0  0  0  0  0  0  0  0  0  0
   37.4110   33.7270   38.3920 H   0  0  0  0  0  0  0  0  0  0  0  0
   37.0260   31.0620   38.0930 C   0  0  0  0  0  3  0  0  0  0  0  0
   36.9180   31.7720   39.1970 C   0  0  0  0  0  3  0  0  0  0  0  0
   36.5000   29.6970   38.1040 C   0  0  0  0  0  0  0  0  0  0  0  0
   35.6240   29.2310   37.0740 C   0  0  0  0  0  0  0  0  0  0  0  0
   35.1660   27.9350   37.1610 C   0  0  0  0  0  0  0  0  0  0  0  0
   35.5590   27.1630   38.2050 N   0  0  0  0  0  0  0  0  0  0  0  0
   36.3890   27.6260   39.1700 C   0  0  0  0  0  0  0  0  0  0  0  0
   36.8500   28.8580   39.1250 N   0  0  0  0  0  0  0  0  0  0  0  0
   35.4020   29.9600   36.3100 H   0  0  0  0  0  0  0  0  0  0  0  0
   34.5150   27.6210   36.3770 H   0  0  0  0  0  0  0  0  0  0  0  0
   36.9190   28.6070   42.0270 Cl  0  0  0  0  0  0  0  0  0  0  0  0
   36.9420   26.9330   41.5190 C   0  0  0  0  0  0  0  0  0  0  0  0
   36.6850   26.6370   40.1980 C   0  0  0  0  0  0  0  0  0  0  0  0
   36.7280   25.2880   39.9180 C   0  0  0  0  0  0  0  0  0  0  0  0
   36.5410   24.9140   38.9040 H   0  0  0  0  0  0  0  0  0  0  0  0
   37.0040   24.3200   40.8730 C   0  0  0  0  0  0  0  0  0  0  0  0
   37.0230   23.2670   40.5830 H   0  0  0  0  0  0  0  0  0  0  0  0
   37.2530   24.6840   42.1740 C   0  0  0  0  0  3  0  0  0  0  0  0
   37.2220   26.0130   42.5060 C   0  0  0  0  0  3  0  0  0  0  0  0
  1  2  2  0  0  0  0
  1  5  1  0  0  0  0
  2  3  1  0  0  0  0
  3  4  1  0  0  0  0
  3 13  1  0  0  0  0
  4  6  1  0  0  0  0
  5  4  2  0  0  0  0
  6 11  1  0  0  0  0
  7 15  1  0  0  0  0
  7  8  1  0  0  0  0
  7  6  1  0  0  0  0
  8  9  1  0  0  0  0
  9 19  1  0  0  0  0
  9 18  1  0  0  0  0
  9 10  1  0  0  0  0
 10 21  1  0  0  0  0
 11 10  1  0  0  0  0
 11 22  1  0  0  0  0
 12  2  1  0  0  0  0
 14  7  1  0  0  0  0
 16  8  1  0  0  0  0
 17  8  1  0  0  0  0
 20 10  1  0  0  0  0
 23 11  1  0  0  0  0
 24 25  1  0  0  0  0
 24  1  1  0  0  0  0
 26 24  1  0  0  0  0
 27 29  1  0  0  0  0
 27 28  2  0  0  0  0
 28 24  1  0  0  0  0
 29 34  1  0  0  0  0
 30 31  1  0  0  0  0
 30 29  2  0  0  0  0
 31 32  2  0  0  0  0
 32 33  1  0  0  0  0
 33 39  1  0  0  0  0
 34 33  2  0  0  0  0
 35 30  1  0  0  0  0
 36 31  1  0  0  0  0
 38 37  1  0  0  0  0
 38 45  1  0  0  0  0
 39 38  2  0  0  0  0
 40 39  1  0  0  0  0
 40 42  2  0  0  0  0
 41 40  1  0  0  0  0
 42 44  1  0  0  0  0
 43 42  1  0  0  0  0
 44 45  2  0  0  0  0
M  END
>  <minimizedAffinity>
-6.18202162

$$$$

 OpenBabel03252504433D

 45 48  0  0  0  0  0  0  0  0999 V2000
   38.0150   27.9980   42.4740 C   0  0  0  0  0  0  0  0  0  0  0  0
   36.8950   28.6710   42.8590 C   0  0  0  0  0  0  0  0  0  0  0  0
   36.9590   29.8740   42.2710 N   0  0  0  0  0  0  0  0  0  0  0  0
   38.0700   29.9900   41.5280 C   0  0  0  0  0  0  0  0  0  0  0  0
   38.7290   28.8080   41.6620 N   0  0  0  0  0  0  0  0  0  0  0  0
   38.5670   31.0500   40.7360 N   0  0  0  0  0  0  0  0  0  0  0  0
   38.1560   31.1050   39.3160 C   0  0  0  0  0  0  0  0  0  0  0  0
   37.1170   32.2220   39.2630 C   0  0  0  0  0  0  0  0  0  0  0  0
   37.6290   33.4520   39.9850 C   0  0  0  0  0  0  0  0  0  0  0  0
   39.1270   33.3370   40.1680 C   0  0  0  0  0  0  0  0  0  0  0  0
   39.4340   32.1430   41.0390 C   0  0  0  0  0  0  0  0  0  0  0  0
   36.0940   28.3330   43.5100 H   0  0  0  0  0  0  0  0  0  0  0  0
   36.2760   30.6710   42.3280 H   0  0  0  0  0  0  0  0  0  0  0  0
   37.6500   30.1600   39.0210 H   0  0  0  0  0  0  0  0  0  0  0  0
   39.0020   31.3100   38.6610 H   0  0  0  0  0  0  0  0  0  0  0  0
   36.9400   32.4280   38.1870 H   0  0  0  0  0  0  0  0  0  0  0  0
   36.1800   31.8390   39.6930 H   0  0  0  0  0  0  0  0  0  0  0  0
   37.1050   33.5510   40.9560 H   0  0  0  0  0  0  0  0  0  0  0  0
   37.4650   34.3380   39.3370 H   0  0  0  0  0  0  0  0  0  0  0  0
   39.5600   33.2200   39.1610 H   0  0  0  0  0  0  0  0  0  0  0  0
   39.5140   34.2730   40.5970 H   0  0  0  0  0  0  0  0  0  0  0  0
   39.4340   32.4550   42.0940 H   0  0  0  0  0  0  0  0  0  0  0  0
   40.4820   31.8340   40.7670 H   0  0  0  0  0  0  0  0  0  0  0  0
   38.4020   26.6080   42.8700 C   0  0  0  0  0  0  0  0  0  0  0  0
   39.5190   26.5850   42.7250 H   0  0  0  0  0  0  0  0  0  0  0  0
   38.1840   26.4040   43.9340 H   0  0  0  0  0  0  0  0  0  0  0  0
   38.2820   24.3660   41.8620 C   0  0  0  0  0  3  0  0  0  0  0  0
   37.8610   25.6120   41.9390 C   0  0  0  0  0  3  0  0  0  0  0  0
   37.6500   23.4910   40.8750 C   0  0  0  0  0  0  0  0  0  0  0  0
   38.3450   22.3700   40.3230 C   0  0  0  0  0  0  0  0  0  0  0  0
   37.6830   21.6000   39.3940 C   0  0  0  0  0  0  0  0  0  0  0  0
   36.4140   21.9300   39.0430 N   0  0  0  0  0  0  0  0  0  0  0  0
   35.7750   22.9970   39.5780 C   0  0  0  0  0  0  0  0  0  0  0  0
   36.3710   23.7590   40.4710 N   0  0  0  0  0  0  0  0  0  0  0  0
   39.3480   22.2340   40.6990 H   0  0  0  0  0  0  0  0  0  0  0  0
   38.2310   20.7730   39.0030 H   0  0  0  0  0  0  0  0  0  0  0  0
   35.3700   24.7770   37.1130 Cl  0  0  0  0  0  0  0  0  0  0  0  0
   34.0940   23.9420   37.9710 C   0  0  0  0  0  0  0  0  0  0  0  0
   34.4220   23.1740   39.0660 C   0  0  0  0  0  0  0  0  0  0  0  0
   33.3370   22.5650   39.6570 C   0  0  0  0  0  0  0  0  0  0  0  0
   33.4570   21.9230   40.5390 H   0  0  0  0  0  0  0  0  0  0  0  0
   32.0360   22.7090   39.1940 C   0  0  0  0  0  0  0  0  0  0  0  0
   31.2200   22.1980   39.7100 H   0  0  0  0  0  0  0  0  0  0  0  0
   31.7770   23.4920   38.0950 C   0  0  0  0  0  3  0  0  0  0  0  0
   32.8220   24.1210   37.4700 C   0  0  0  0  0  3  0  0  0  0  0  0
  1  2  2  0  0  0  0
  1 24  1  0  0  0  0
  2 12  1  0  0  0  0
  3 13  1  0  0  0  0
  3  2  1  0  0  0  0
  4  5  2  0  0  0  0
  4  3  1  0  0  0  0
  5  1  1  0  0  0  0
  6 11  1  0  0  0  0
  6  4  1  0  0  0  0
  7  6  1  0  0  0  0
  8  7  1  0  0  0  0
  8 17  1  0  0  0  0
  8  9  1  0  0  0  0
  9 10  1  0  0  0  0
  9 18  1  0  0  0  0
 10 21  1  0  0  0  0
 10 11  1  0  0  0  0
 11 22  1  0  0  0  0
 14  7  1  0  0  0  0
 15  7  1  0  0  0  0
 16  8  1  0  0  0  0
 19  9  1  0  0  0  0
 20 10  1  0  0  0  0
 23 11  1  0  0  0  0
 24 26  1  0  0  0  0
 25 24  1  0  0  0  0
 27 28  2  0  0  0  0
 28 24  1  0  0  0  0
 29 27  1  0  0  0  0
 30 35  1  0  0  0  0
 30 29  2  0  0  0  0
 31 30  1  0  0  0  0
 32 31  2  0  0  0  0
 32 33  1  0  0  0  0
 33 34  2  0  0  0  0
 34 29  1  0  0  0  0
 36 31  1  0  0  0  0
 37 38  1  0  0  0  0
 38 39  1  0  0  0  0
 39 33  1  0  0  0  0
 39 40  2  0  0  0  0
 40 41  1  0  0  0  0
 42 40  1  0  0  0  0
 42 43  1  0  0  0  0
 44 42  2  0  0  0  0
 45 38  2  0  0  0  0
 45 44  1  0  0  0  0
M  END
>  <minimizedAffinity>
-6.1708889

$$$$

 OpenBabel03252504433D

 45 48  0  0  0  0  0  0  0  0999 V2000
   36.8810   30.0750   40.7590 C   0  0  0  0  0  0  0  0  0  0  0  0
   36.4560   31.3660   40.6590 C   0  0  0  0  0  0  0  0  0  0  0  0
   37.5590   32.1150   40.5130 N   0  0  0  0  0  0  0  0  0  0  0  0
   38.6630   31.3520   40.5150 C   0  0  0  0  0  0  0  0  0  0  0  0
   38.2300   30.0730   40.6710 N   0  0  0  0  0  0  0  0  0  0  0  0
   40.0330   31.6790   40.3920 N   0  0  0  0  0  0  0  0  0  0  0  0
   40.6150   31.7260   39.0320 C   0  0  0  0  0  0  0  0  0  0  0  0
   40.7500   33.2160   38.7280 C   0  0  0  0  0  0  0  0  0  0  0  0
   41.4030   33.9340   39.8920 C   0  0  0  0  0  0  0  0  0  0  0  0
   42.0750   32.9190   40.7920 C   0  0  0  0  0  0  0  0  0  0  0  0
   41.0310   31.9920   41.3640 C   0  0  0  0  0  0  0  0  0  0  0  0
   35.4400   31.7470   40.6890 H   0  0  0  0  0  0  0  0  0  0  0  0
   37.6360   33.1570   40.4050 H   0  0  0  0  0  0  0  0  0  0  0  0
   39.9070   31.2950   38.2910 H   0  0  0  0  0  0  0  0  0  0  0  0
   41.5760   31.2180   38.9890 H   0  0  0  0  0  0  0  0  0  0  0  0
   41.3680   33.2890   37.8090 H   0  0  0  0  0  0  0  0  0  0  0  0
   39.7500   33.6110   38.4960 H   0  0  0  0  0  0  0  0  0  0  0  0
   40.6370   34.5210   40.4370 H   0  0  0  0  0  0  0  0  0  0  0  0
   42.2140   34.5830   39.5000 H   0  0  0  0  0  0  0  0  0  0  0  0
   42.7980   32.3720   40.1660 H   0  0  0  0  0  0  0  0  0  0  0  0
   42.6360   33.4470   41.5790 H   0  0  0  0  0  0  0  0  0  0  0  0
   40.6460   32.4140   42.3030 H   0  0  0  0  0  0  0  0  0  0  0  0
   41.5790   31.0380   41.6100 H   0  0  0  0  0  0  0  0  0  0  0  0
   36.0230   28.8640   40.9350 C   0  0  0  0  0  0  0  0  0  0  0  0
   36.7360   28.0020   40.7980 H   0  0  0  0  0  0  0  0  0  0  0  0
   35.5940   28.8030   41.9530 H   0  0  0  0  0  0  0  0  0  0  0  0
   35.2300   28.0440   38.7540 C   0  0  0  0  0  3  0  0  0  0  0  0
   35.0370   28.7390   39.8560 C   0  0  0  0  0  3  0  0  0  0  0  0
   34.1550   28.0220   37.7630 C   0  0  0  0  0  0  0  0  0  0  0  0
   33.8870   26.8520   36.9850 C   0  0  0  0  0  0  0  0  0  0  0  0
   32.8620   26.9150   36.0670 C   0  0  0  0  0  0  0  0  0  0  0  0
   32.1570   28.0670   35.9400 N   0  0  0  0  0  0  0  0  0  0  0  0
   32.4280   29.1630   36.6870 C   0  0  0  0  0  0  0  0  0  0  0  0
   33.3990   29.1460   37.5770 N   0  0  0  0  0  0  0  0  0  0  0  0
   34.5310   26.0140   37.1980 H   0  0  0  0  0  0  0  0  0  0  0  0
   32.6900   26.0260   35.5040 H   0  0  0  0  0  0  0  0  0  0  0  0
   30.3890   30.0200   38.8140 Cl  0  0  0  0  0  0  0  0  0  0  0  0
   30.5950   30.7840   37.2530 C   0  0  0  0  0  0  0  0  0  0  0  0
   31.5540   30.2910   36.3940 C   0  0  0  0  0  0  0  0  0  0  0  0
   31.6240   30.9730   35.1990 C   0  0  0  0  0  0  0  0  0  0  0  0
   32.3460   30.6850   34.4240 H   0  0  0  0  0  0  0  0  0  0  0  0
   30.8100   32.0530   34.8880 C   0  0  0  0  0  0  0  0  0  0  0  0
   30.9180   32.5490   33.9210 H   0  0  0  0  0  0  0  0  0  0  0  0
   29.8720   32.4940   35.7900 C   0  0  0  0  0  3  0  0  0  0  0  0
   29.7610   31.8500   36.9950 C   0  0  0  0  0  3  0  0  0  0  0  0
  1 24  1  0  0  0  0
  2 12  1  0  0  0  0
  2  1  2  0  0  0  0
  3  4  1  0  0  0  0
  3  2  1  0  0  0  0
  4  5  2  0  0  0  0
  5  1  1  0  0  0  0
  6  4  1  0  0  0  0
  6 11  1  0  0  0  0
  7  6  1  0  0  0  0
  8  7  1  0  0  0  0
  8  9  1  0  0  0  0
  9 18  1  0  0  0  0
  9 10  1  0  0  0  0
 10 11  1  0  0  0  0
 10 21  1  0  0  0  0
 11 23  1  0  0  0  0
 11 22  1  0  0  0  0
 13  3  1  0  0  0  0
 14  7  1  0  0  0  0
 15  7  1  0  0  0  0
 16  8  1  0  0  0  0
 17  8  1  0  0  0  0
 19  9  1  0  0  0  0
 20 10  1  0  0  0  0
 24 26  1  0  0  0  0
 25 24  1  0  0  0  0
 27 28  2  0  0  0  0
 28 24  1  0  0  0  0
 29 27  1  0  0  0  0
 30 35  1  0  0  0  0
 30 29  2  0  0  0  0
 31 30  1  0  0  0  0
 32 31  2  0  0  0  0
 32 33  1  0  0  0  0
 33 34  2  0  0  0  0
 34 29  1  0  0  0  0
 36 31  1  0  0  0  0
 38 37  1  0  0  0  0
 39 33  1  0  0  0  0
 39 38  2  0  0  0  0
 40 39  1  0  0  0  0
 41 40  1  0  0  0  0
 42 40  2  0  0  0  0
 42 44  1  0  0  0  0
 43 42  1  0  0  0  0
 44 45  2  0  0  0  0
 45 38  1  0  0  0  0
M  END
>  <minimizedAffinity>
-6.09377193

$$$$

 OpenBabel03252504433D

 45 48  0  0  0  0  0  0  0  0999 V2000
   38.8560   32.9050   39.6270 C   0  0  0  0  0  0  0  0  0  0  0  0
   39.6290   33.2120   40.7060 C   0  0  0  0  0  0  0  0  0  0  0  0
   40.9010   33.1460   40.2870 N   0  0  0  0  0  0  0  0  0  0  0  0
   40.9650   32.8120   38.9900 C   0  0  0  0  0  0  0  0  0  0  0  0
   39.6760   32.6620   38.5820 N   0  0  0  0  0  0  0  0  0  0  0  0
   42.0630   32.6230   38.1190 N   0  0  0  0  0  0  0  0  0  0  0  0
   42.5680   33.7990   37.3760 C   0  0  0  0  0  0  0  0  0  0  0  0
   43.8550   34.1830   38.1010 C   0  0  0  0  0  0  0  0  0  0  0  0
   44.7200   32.9590   38.3230 C   0  0  0  0  0  0  0  0  0  0  0  0
   44.2460   31.8420   37.4190 C   0  0  0  0  0  0  0  0  0  0  0  0
   42.8310   31.4670   37.7880 C   0  0  0  0  0  0  0  0  0  0  0  0
   39.3130   33.4630   41.7140 H   0  0  0  0  0  0  0  0  0  0  0  0
   41.7820   33.3180   40.8340 H   0  0  0  0  0  0  0  0  0  0  0  0
   41.8610   34.6530   37.4720 H   0  0  0  0  0  0  0  0  0  0  0  0
   42.7500   33.5650   36.3290 H   0  0  0  0  0  0  0  0  0  0  0  0
   44.3640   34.9270   37.4540 H   0  0  0  0  0  0  0  0  0  0  0  0
   43.5830   34.6840   39.0420 H   0  0  0  0  0  0  0  0  0  0  0  0
   44.6740   32.6670   39.3920 H   0  0  0  0  0  0  0  0  0  0  0  0
   45.7570   33.1930   38.0060 H   0  0  0  0  0  0  0  0  0  0  0  0
   44.3030   32.2250   36.3870 H   0  0  0  0  0  0  0  0  0  0  0  0
   44.9350   30.9880   37.5040 H   0  0  0  0  0  0  0  0  0  0  0  0
   42.8520   30.6880   38.5640 H   0  0  0  0  0  0  0  0  0  0  0  0
   42.3860   31.0170   36.8560 H   0  0  0  0  0  0  0  0  0  0  0  0
   37.3620   32.8440   39.5880 C   0  0  0  0  0  0  0  0  0  0  0  0
   37.0500   33.1420   40.6290 H   0  0  0  0  0  0  0  0  0  0  0  0
   36.9350   33.5730   38.8740 H   0  0  0  0  0  0  0  0  0  0  0  0
   36.7660   30.8720   38.2410 C   0  0  0  0  0  3  0  0  0  0  0  0
   36.8820   31.4700   39.4090 C   0  0  0  0  0  3  0  0  0  0  0  0
   36.2630   29.4990   38.2220 C   0  0  0  0  0  0  0  0  0  0  0  0
   35.2600   29.0880   37.2890 C   0  0  0  0  0  0  0  0  0  0  0  0
   34.8350   27.7800   37.3410 C   0  0  0  0  0  0  0  0  0  0  0  0
   35.3770   26.9440   38.2630 N   0  0  0  0  0  0  0  0  0  0  0  0
   36.3250   27.3540   39.1370 C   0  0  0  0  0  0  0  0  0  0  0  0
   36.7610   28.5970   39.1210 N   0  0  0  0  0  0  0  0  0  0  0  0
   34.9260   29.8640   36.6180 H   0  0  0  0  0  0  0  0  0  0  0  0
   34.0860   27.5080   36.6320 H   0  0  0  0  0  0  0  0  0  0  0  0
   36.4370   27.9600   42.1430 Cl  0  0  0  0  0  0  0  0  0  0  0  0
   36.8700   26.4320   41.4080 C   0  0  0  0  0  0  0  0  0  0  0  0
   36.7710   26.3010   40.0400 C   0  0  0  0  0  0  0  0  0  0  0  0
   37.1370   25.0560   39.5790 C   0  0  0  0  0  0  0  0  0  0  0  0
   37.1040   24.8160   38.5080 H   0  0  0  0  0  0  0  0  0  0  0  0
   37.5630   24.0300   40.4100 C   0  0  0  0  0  0  0  0  0  0  0  0
   37.8390   23.0650   39.9780 H   0  0  0  0  0  0  0  0  0  0  0  0
   37.6400   24.2270   41.7680 C   0  0  0  0  0  3  0  0  0  0  0  0
   37.2880   25.4490   42.2790 C   0  0  0  0  0  3  0  0  0  0  0  0
  1  2  2  0  0  0  0
  2 12  1  0  0  0  0
  3  2  1  0  0  0  0
  3 13  1  0  0  0  0
  4  3  1  0  0  0  0
  5  4  2  0  0  0  0
  5  1  1  0  0  0  0
  6  4  1  0  0  0  0
  7 14  1  0  0  0  0
  7  8  1  0  0  0  0
  7  6  1  0  0  0  0
  8  9  1  0  0  0  0
  8 17  1  0  0  0  0
  9 18  1  0  0  0  0
 10 21  1  0  0  0  0
 10 11  1  0  0  0  0
 10  9  1  0  0  0  0
 11  6  1  0  0  0  0
 11 22  1  0  0  0  0
 15  7  1  0  0  0  0
 16  8  1  0  0  0  0
 19  9  1  0  0  0  0
 20 10  1  0  0  0  0
 23 11  1  0  0  0  0
 24  1  1  0  0  0  0
 24 25  1  0  0  0  0
 26 24  1  0  0  0  0
 27 28  2  0  0  0  0
 28 24  1  0  0  0  0
 29 27  1  0  0  0  0
 29 34  1  0  0  0  0
 30 31  1  0  0  0  0
 30 29  2  0  0  0  0
 31 32  2  0  0  0  0
 32 33  1  0  0  0  0
 33 39  1  0  0  0  0
 34 33  2  0  0  0  0
 35 30  1  0  0  0  0
 36 31  1  0  0  0  0
 38 37  1  0  0  0  0
 38 45  1  0  0  0  0
 39 38  2  0  0  0  0
 40 39  1  0  0  0  0
 40 42  2  0  0  0  0
 41 40  1  0  0  0  0
 42 44  1  0  0  0  0
 43 42  1  0  0  0  0
 44 45  2  0  0  0  0
M  END
>  <minimizedAffinity>
-5.95023441

$$$$

 OpenBabel03252504433D

 45 48  0  0  0  0  0  0  0  0999 V2000
   34.1300   26.8620   37.0800 C   0  0  0  0  0  0  0  0  0  0  0  0
   33.0980   26.1280   36.5740 C   0  0  0  0  0  0  0  0  0  0  0  0
   32.1870   27.0110   36.1420 N   0  0  0  0  0  0  0  0  0  0  0  0
   32.5980   28.2710   36.3510 C   0  0  0  0  0  0  0  0  0  0  0  0
   33.8190   28.1690   36.9410 N   0  0  0  0  0  0  0  0  0  0  0  0
   31.9930   29.5180   36.0700 N   0  0  0  0  0  0  0  0  0  0  0  0
   32.2530   30.1310   34.7490 C   0  0  0  0  0  0  0  0  0  0  0  0
   30.9670   29.8990   33.9620 C   0  0  0  0  0  0  0  0  0  0  0  0
   29.7620   30.2940   34.7920 C   0  0  0  0  0  0  0  0  0  0  0  0
   30.2150   31.1570   35.9500 C   0  0  0  0  0  0  0  0  0  0  0  0
   31.1330   30.3570   36.8400 C   0  0  0  0  0  0  0  0  0  0  0  0
   33.0020   25.0490   36.5180 H   0  0  0  0  0  0  0  0  0  0  0  0
   31.2560   26.8270   35.6900 H   0  0  0  0  0  0  0  0  0  0  0  0
   33.0710   29.5920   34.2230 H   0  0  0  0  0  0  0  0  0  0  0  0
   32.4850   31.1920   34.8380 H   0  0  0  0  0  0  0  0  0  0  0  0
   31.0480   30.5200   33.0460 H   0  0  0  0  0  0  0  0  0  0  0  0
   30.9390   28.8440   33.6530 H   0  0  0  0  0  0  0  0  0  0  0  0
   29.2430   29.3790   35.1430 H   0  0  0  0  0  0  0  0  0  0  0  0
   29.0970   30.9310   34.1740 H   0  0  0  0  0  0  0  0  0  0  0  0
   30.7360   32.0240   35.5120 H   0  0  0  0  0  0  0  0  0  0  0  0
   29.3320   31.5290   36.4920 H   0  0  0  0  0  0  0  0  0  0  0  0
   30.5360   29.8340   37.6010 H   0  0  0  0  0  0  0  0  0  0  0  0
   31.7780   31.1160   37.3660 H   0  0  0  0  0  0  0  0  0  0  0  0
   35.3900   26.3310   37.6850 C   0  0  0  0  0  0  0  0  0  0  0  0
   35.0630   25.3930   38.2170 H   0  0  0  0  0  0  0  0  0  0  0  0
   36.1350   26.0540   36.9160 H   0  0  0  0  0  0  0  0  0  0  0  0
   36.5300   26.8070   39.8130 C   0  0  0  0  0  3  0  0  0  0  0  0
   35.9040   27.2210   38.7310 C   0  0  0  0  0  3  0  0  0  0  0  0
   36.9750   27.8170   40.7730 C   0  0  0  0  0  0  0  0  0  0  0  0
   37.0180   27.5400   42.1760 C   0  0  0  0  0  0  0  0  0  0  0  0
   37.4430   28.5460   43.0140 C   0  0  0  0  0  0  0  0  0  0  0  0
   37.7990   29.7440   42.4840 N   0  0  0  0  0  0  0  0  0  0  0  0
   37.7500   29.9840   41.1530 C   0  0  0  0  0  0  0  0  0  0  0  0
   37.3510   29.0490   40.3150 N   0  0  0  0  0  0  0  0  0  0  0  0
   36.7050   26.5440   42.4460 H   0  0  0  0  0  0  0  0  0  0  0  0
   37.4620   28.3060   44.0530 H   0  0  0  0  0  0  0  0  0  0  0  0
   40.6910   30.7480   41.5740 Cl  0  0  0  0  0  0  0  0  0  0  0  0
   39.4590   31.8100   40.9290 C   0  0  0  0  0  0  0  0  0  0  0  0
   38.1740   31.3310   40.7950 C   0  0  0  0  0  0  0  0  0  0  0  0
   37.2940   32.2560   40.2760 C   0  0  0  0  0  0  0  0  0  0  0  0
   36.2380   32.0050   40.1160 H   0  0  0  0  0  0  0  0  0  0  0  0
   37.6640   33.5450   39.9220 C   0  0  0  0  0  0  0  0  0  0  0  0
   36.9150   34.2300   39.5150 H   0  0  0  0  0  0  0  0  0  0  0  0
   38.9640   33.9600   40.0830 C   0  0  0  0  0  3  0  0  0  0  0  0
   39.8810   33.0790   40.5950 C   0  0  0  0  0  3  0  0  0  0  0  0
  1 24  1  0  0  0  0
  2  1  2  0  0  0  0
  3  4  1  0  0  0  0
  3  2  1  0  0  0  0
  4  5  2  0  0  0  0
  5  1  1  0  0  0  0
  6  4  1  0  0  0  0
  6 11  1  0  0  0  0
  7 15  1  0  0  0  0
  7  6  1  0  0  0  0
  8  7  1  0  0  0  0
  8  9  1  0  0  0  0
  9 18  1  0  0  0  0
  9 10  1  0  0  0  0
 10 21  1  0  0  0  0
 10 11  1  0  0  0  0
 11 23  1  0  0  0  0
 11 22  1  0  0  0  0
 12  2  1  0  0  0  0
 13  3  1  0  0  0  0
 14  7  1  0  0  0  0
 16  8  1  0  0  0  0
 17  8  1  0  0  0  0
 19  9  1  0  0  0  0
 20 10  1  0  0  0  0
 24 25  1  0  0  0  0
 24 28  1  0  0  0  0
 26 24  1  0  0  0  0
 27 29  1  0  0  0  0
 28 27  2  0  0  0  0
 29 30  1  0  0  0  0
 30 35  1  0  0  0  0
 30 31  2  0  0  0  0
 31 36  1  0  0  0  0
 32 31  1  0  0  0  0
 33 32  2  0  0  0  0
 34 29  2  0  0  0  0
 34 33  1  0  0  0  0
 38 37  1  0  0  0  0
 39 38  1  0  0  0  0
 39 33  1  0  0  0  0
 40 39  2  0  0  0  0
 41 40  1  0  0  0  0
 42 44  2  0  0  0  0
 42 40  1  0  0  0  0
 43 42  1  0  0  0  0
 44 45  1  0  0  0  0
 45 38  2  0  0  0  0
M  END
>  <minimizedAffinity>
-5.75312805

$$$$

 OpenBabel03252504433D

 45 48  0  0  0  0  0  0  0  0999 V2000
   38.9960   33.0430   40.0770 C   0  0  0  0  0  0  0  0  0  0  0  0
   39.2940   34.2810   40.5620 C   0  0  0  0  0  0  0  0  0  0  0  0
   40.6060   34.2720   40.8340 N   0  0  0  0  0  0  0  0  0  0  0  0
   41.1520   33.0810   40.5410 C   0  0  0  0  0  0  0  0  0  0  0  0
   40.1340   32.3140   40.0670 N   0  0  0  0  0  0  0  0  0  0  0  0
   42.4760   32.5990   40.6540 N   0  0  0  0  0  0  0  0  0  0  0  0
   43.3830   32.7910   39.5010 C   0  0  0  0  0  0  0  0  0  0  0  0
   44.3000   33.9360   39.9250 C   0  0  0  0  0  0  0  0  0  0  0  0
   44.8370   33.6910   41.3210 C   0  0  0  0  0  0  0  0  0  0  0  0
   44.6370   32.2350   41.6850 C   0  0  0  0  0  0  0  0  0  0  0  0
   43.1600   31.9260   41.7100 C   0  0  0  0  0  0  0  0  0  0  0  0
   38.6280   35.1260   40.7110 H   0  0  0  0  0  0  0  0  0  0  0  0
   41.2020   35.0450   41.2220 H   0  0  0  0  0  0  0  0  0  0  0  0
   42.8130   33.1310   38.6090 H   0  0  0  0  0  0  0  0  0  0  0  0
   43.9460   31.8860   39.2780 H   0  0  0  0  0  0  0  0  0  0  0  0
   45.1180   33.9700   39.1760 H   0  0  0  0  0  0  0  0  0  0  0  0
   43.7330   34.8750   39.8500 H   0  0  0  0  0  0  0  0  0  0  0  0
   44.3240   34.3650   42.0350 H   0  0  0  0  0  0  0  0  0  0  0  0
   45.9340   33.8580   41.3140 H   0  0  0  0  0  0  0  0  0  0  0  0
   45.1570   31.6430   40.9160 H   0  0  0  0  0  0  0  0  0  0  0  0
   45.1190   32.0340   42.6540 H   0  0  0  0  0  0  0  0  0  0  0  0
   42.7650   32.1240   42.7170 H   0  0  0  0  0  0  0  0  0  0  0  0
   43.0820   30.8190   41.5170 H   0  0  0  0  0  0  0  0  0  0  0  0
   37.6530   32.5580   39.6310 C   0  0  0  0  0  0  0  0  0  0  0  0
   36.9370   33.0280   40.3630 H   0  0  0  0  0  0  0  0  0  0  0  0
   37.3990   32.9150   38.6160 H   0  0  0  0  0  0  0  0  0  0  0  0
   36.9130   30.3090   38.9590 C   0  0  0  0  0  3  0  0  0  0  0  0
   37.5140   31.1100   39.8150 C   0  0  0  0  0  3  0  0  0  0  0  0
   36.8450   28.8850   39.2870 C   0  0  0  0  0  0  0  0  0  0  0  0
   35.9520   28.0060   38.5970 C   0  0  0  0  0  0  0  0  0  0  0  0
   35.9430   26.6810   38.9700 C   0  0  0  0  0  0  0  0  0  0  0  0
   36.7700   26.2670   39.9630 N   0  0  0  0  0  0  0  0  0  0  0  0
   37.6070   27.1170   40.6040 C   0  0  0  0  0  0  0  0  0  0  0  0
   37.6480   28.3920   40.2780 N   0  0  0  0  0  0  0  0  0  0  0  0
   35.3580   28.4800   37.8320 H   0  0  0  0  0  0  0  0  0  0  0  0
   35.2660   26.0540   38.4360 H   0  0  0  0  0  0  0  0  0  0  0  0
   38.8580   28.8670   42.7910 Cl  0  0  0  0  0  0  0  0  0  0  0  0
   39.0260   27.1290   42.6750 C   0  0  0  0  0  0  0  0  0  0  0  0
   38.4070   26.4700   41.6350 C   0  0  0  0  0  0  0  0  0  0  0  0
   38.6080   25.1070   41.6510 C   0  0  0  0  0  0  0  0  0  0  0  0
   38.1700   24.4610   40.8790 H   0  0  0  0  0  0  0  0  0  0  0  0
   39.3610   24.4580   42.6190 C   0  0  0  0  0  0  0  0  0  0  0  0
   39.4810   23.3730   42.5720 H   0  0  0  0  0  0  0  0  0  0  0  0
   39.9530   25.1760   43.6300 C   0  0  0  0  0  3  0  0  0  0  0  0
   39.7840   26.5360   43.6610 C   0  0  0  0  0  3  0  0  0  0  0  0
  1  2  2  0  0  0  0
  2 12  1  0  0  0  0
  2  3  1  0  0  0  0
  3 13  1  0  0  0  0
  4  6  1  0  0  0  0
  4  3  1  0  0  0  0
  5  1  1  0  0  0  0
  5  4  2  0  0  0  0
  6 11  1  0  0  0  0
  7  8  1  0  0  0  0
  7  6  1  0  0  0  0
  8  9  1  0  0  0  0
  9 10  1  0  0  0  0
  9 18  1  0  0  0  0
 10 11  1  0  0  0  0
 10 21  1  0  0  0  0
 11 22  1  0  0  0  0
 14  7  1  0  0  0  0
 15  7  1  0  0  0  0
 16  8  1  0  0  0  0
 17  8  1  0  0  0  0
 19  9  1  0  0  0  0
 20 10  1  0  0  0  0
 23 11  1  0  0  0  0
 24 28  1  0  0  0  0
 24  1  1  0  0  0  0
 24 25  1  0  0  0  0
 26 24  1  0  0  0  0
 27 29  1  0  0  0  0
 27 28  2  0  0  0  0
 29 34  1  0  0  0  0
 30 31  1  0  0  0  0
 30 29  2  0  0  0  0
 31 32  2  0  0  0  0
 32 33  1  0  0  0  0
 33 39  1  0  0  0  0
 34 33  2  0  0  0  0
 35 30  1  0  0  0  0
 36 31  1  0  0  0  0
 38 37  1  0  0  0  0
 38 45  1  0  0  0  0
 39 40  1  0  0  0  0
 39 38  2  0  0  0  0
 40 42  2  0  0  0  0
 41 40  1  0  0  0  0
 42 44  1  0  0  0  0
 43 42  1  0  0  0  0
 44 45  2  0  0  0  0
M  END
>  <minimizedAffinity>
-5.74094391

$$$$

 OpenBabel03252504433D

 45 48  0  0  0  0  0  0  0  0999 V2000
   37.5970   28.8150   39.0210 C   0  0  0  0  0  0  0  0  0  0  0  0
   38.4250   29.1710   37.9990 C   0  0  0  0  0  0  0  0  0  0  0  0
   38.9240   30.3730   38.3210 N   0  0  0  0  0  0  0  0  0  0  0  0
   38.4490   30.7910   39.5040 C   0  0  0  0  0  0  0  0  0  0  0  0
   37.6150   29.8080   39.9370 N   0  0  0  0  0  0  0  0  0  0  0  0
   38.6800   31.9720   40.2470 N   0  0  0  0  0  0  0  0  0  0  0  0
   39.8050   31.9750   41.2090 C   0  0  0  0  0  0  0  0  0  0  0  0
   40.8910   32.7970   40.5200 C   0  0  0  0  0  0  0  0  0  0  0  0
   40.3120   34.0880   39.9790 C   0  0  0  0  0  0  0  0  0  0  0  0
   38.9700   34.3450   40.6300 C   0  0  0  0  0  0  0  0  0  0  0  0
   38.0160   33.2350   40.2640 C   0  0  0  0  0  0  0  0  0  0  0  0
   38.6560   28.6180   37.0930 H   0  0  0  0  0  0  0  0  0  0  0  0
   39.5990   30.9700   37.7810 H   0  0  0  0  0  0  0  0  0  0  0  0
   40.2010   30.9450   41.3490 H   0  0  0  0  0  0  0  0  0  0  0  0
   39.5150   32.4100   42.1640 H   0  0  0  0  0  0  0  0  0  0  0  0
   41.6660   32.9920   41.2910 H   0  0  0  0  0  0  0  0  0  0  0  0
   41.3460   32.1750   39.7350 H   0  0  0  0  0  0  0  0  0  0  0  0
   40.2240   34.0160   38.8760 H   0  0  0  0  0  0  0  0  0  0  0  0
   40.9690   34.9290   40.2840 H   0  0  0  0  0  0  0  0  0  0  0  0
   39.1480   34.3790   41.7170 H   0  0  0  0  0  0  0  0  0  0  0  0
   38.5970   35.3320   40.3160 H   0  0  0  0  0  0  0  0  0  0  0  0
   37.4950   33.4960   39.3320 H   0  0  0  0  0  0  0  0  0  0  0  0
   37.2540   33.2080   41.0930 H   0  0  0  0  0  0  0  0  0  0  0  0
   36.8020   27.5530   39.1270 C   0  0  0  0  0  0  0  0  0  0  0  0
   37.3850   26.8110   38.5110 H   0  0  0  0  0  0  0  0  0  0  0  0
   36.7510   27.1810   40.1670 H   0  0  0  0  0  0  0  0  0  0  0  0
   35.0810   26.8920   37.4960 C   0  0  0  0  0  3  0  0  0  0  0  0
   35.4990   27.6790   38.4650 C   0  0  0  0  0  3  0  0  0  0  0  0
   33.7580   27.1490   36.9270 C   0  0  0  0  0  0  0  0  0  0  0  0
   33.0640   26.1480   36.1800 C   0  0  0  0  0  0  0  0  0  0  0  0
   31.8260   26.4710   35.6720 C   0  0  0  0  0  0  0  0  0  0  0  0
   31.3210   27.7100   35.8980 N   0  0  0  0  0  0  0  0  0  0  0  0
   31.9960   28.6430   36.6090 C   0  0  0  0  0  0  0  0  0  0  0  0
   33.1820   28.3760   37.1130 N   0  0  0  0  0  0  0  0  0  0  0  0
   33.5920   25.2120   36.0840 H   0  0  0  0  0  0  0  0  0  0  0  0
   31.3370   25.7010   35.1190 H   0  0  0  0  0  0  0  0  0  0  0  0
   32.1120   30.6270   34.2710 Cl  0  0  0  0  0  0  0  0  0  0  0  0
   31.2400   30.8850   35.7660 C   0  0  0  0  0  0  0  0  0  0  0  0
   31.2760   29.9040   36.7340 C   0  0  0  0  0  0  0  0  0  0  0  0
   30.5530   30.2190   37.8630 C   0  0  0  0  0  0  0  0  0  0  0  0
   30.4970   29.5250   38.7120 H   0  0  0  0  0  0  0  0  0  0  0  0
   29.8540   31.4080   38.0140 C   0  0  0  0  0  0  0  0  0  0  0  0
   29.3010   31.5950   38.9380 H   0  0  0  0  0  0  0  0  0  0  0  0
   29.8610   32.3460   37.0100 C   0  0  0  0  0  3  0  0  0  0  0  0
   30.5650   32.0820   35.8640 C   0  0  0  0  0  3  0  0  0  0  0  0
  1 24  1  0  0  0  0
  1  5  1  0  0  0  0
  2  3  1  0  0  0  0
  2  1  2  0  0  0  0
  3  4  1  0  0  0  0
  4  5  2  0  0  0  0
  4  6  1  0  0  0  0
  6 11  1  0  0  0  0
  6  7  1  0  0  0  0
  7 14  1  0  0  0  0
  7 15  1  0  0  0  0
  8  7  1  0  0  0  0
  8 16  1  0  0  0  0
  9 19  1  0  0  0  0
  9  8  1  0  0  0  0
  9 10  1  0  0  0  0
 10 20  1  0  0  0  0
 11 10  1  0  0  0  0
 11 23  1  0  0  0  0
 12  2  1  0  0  0  0
 13  3  1  0  0  0  0
 17  8  1  0  0  0  0
 18  9  1  0  0  0  0
 21 10  1  0  0  0  0
 22 11  1  0  0  0  0
 24 26  1  0  0  0  0
 25 24  1  0  0  0  0
 27 28  2  0  0  0  0
 28 24  1  0  0  0  0
 29 34  1  0  0  0  0
 29 27  1  0  0  0  0
 30 29  2  0  0  0  0
 31 32  2  0  0  0  0
 31 30  1  0  0  0  0
 32 33  1  0  0  0  0
 33 39  1  0  0  0  0
 33 34  2  0  0  0  0
 35 30  1  0  0  0  0
 36 31  1  0  0  0  0
 37 38  1  0  0  0  0
 38 45  2  0  0  0  0
 38 39  1  0  0  0  0
 39 40  2  0  0  0  0
 40 42  1  0  0  0  0
 40 41  1  0  0  0  0
 42 43  1  0  0  0  0
 44 42  2  0  0  0  0
 45 44  1  0  0  0  0
M  END
>  <minimizedAffinity>
-5.73201132

$$$$
