
 OpenBabel03252500573D

 38 40  0  0  0  0  0  0  0  0999 V2000
   43.5740   35.5360   40.0420 O   0  0  0  0  0  0  0  0  0  0  0  0
   43.3450   35.0050   41.4510 P   0  0  1  0  0  0  0  0  0  0  0  0
   43.5120   33.3130   41.3840 O   0  0  0  0  0  0  0  0  0  0  0  0
   43.6380   32.9350   42.3050 H   0  0  0  0  0  0  0  0  0  0  0  0
   44.5480   35.5990   42.4750 O   0  0  0  0  0  0  0  0  0  0  0  0
   46.5410   34.4340   42.9210 C   0  0  0  0  0  0  0  0  0  0  0  0
   45.3080   34.8660   43.3790 C   0  0  0  0  0  0  0  0  0  0  0  0
   44.9330   34.5360   44.6890 C   0  0  0  0  0  0  0  0  0  0  0  0
   45.8020   33.8180   45.4180 N   0  0  0  0  0  0  0  0  0  0  0  0
   46.9880   33.4070   44.9640 C   0  0  0  0  0  0  0  0  0  0  0  0
   47.3550   33.7180   43.7120 N   0  0  0  0  0  0  0  0  0  0  0  0
   43.9790   34.8910   44.9940 H   0  0  0  0  0  0  0  0  0  0  0  0
   47.6210   32.8250   45.6470 H   0  0  0  0  0  0  0  0  0  0  0  0
   47.0020   34.7330   41.5770 C   0  0  0  0  0  0  0  0  0  0  0  0
   46.3220   35.4890   41.1030 H   0  0  0  0  0  0  0  0  0  0  0  0
   46.9650   33.8440   40.9100 H   0  0  0  0  0  0  0  0  0  0  0  0
   48.3730   35.3400   41.6320 C   0  0  0  0  0  0  0  0  0  0  0  0
   49.0510   34.6970   41.0060 H   0  0  0  0  0  0  0  0  0  0  0  0
   48.8150   35.3040   42.6480 H   0  0  0  0  0  0  0  0  0  0  0  0
   48.3940   36.3710   41.1970 H   0  0  0  0  0  0  0  0  0  0  0  0
   41.7770   35.3420   41.9550 O   0  0  0  0  0  0  0  0  0  0  0  0
   40.7150   34.6680   41.3690 C   0  0  0  0  0  0  0  0  0  0  0  0
   39.9980   35.3290   40.3880 C   0  0  0  0  0  0  0  0  0  0  0  0
   38.9190   34.7370   39.7420 C   0  0  0  0  0  0  0  0  0  0  0  0
   38.5810   33.4700   40.1080 N   0  0  0  0  0  0  0  0  0  0  0  0
   39.2740   32.8410   41.0500 C   0  0  0  0  0  0  0  0  0  0  0  0
   40.3150   33.4120   41.6730 N   0  0  0  0  0  0  0  0  0  0  0  0
   40.2650   36.3360   40.0970 H   0  0  0  0  0  0  0  0  0  0  0  0
   38.3470   35.2270   38.9790 H   0  0  0  0  0  0  0  0  0  0  0  0
   41.3040   31.0850   42.4880 Cl  0  0  0  0  0  0  0  0  0  0  0  0
   39.6830   30.5820   42.0520 C   0  0  0  0  0  0  0  0  0  0  0  0
   38.8660   31.4820   41.4010 C   0  0  0  0  0  0  0  0  0  0  0  0
   37.5990   31.0410   41.0780 C   0  0  0  0  0  0  0  0  0  0  0  0
   36.8830   31.6900   40.5600 H   0  0  0  0  0  0  0  0  0  0  0  0
   37.1190   29.7790   41.3650 C   0  0  0  0  0  0  0  0  0  0  0  0
   36.1260   29.4680   41.0990 H   0  0  0  0  0  0  0  0  0  0  0  0
   38.0120   28.9350   42.0250 C   0  0  0  0  0  0  0  0  0  0  0  0
   39.2990   29.3000   42.3820 C   0  0  0  0  0  0  0  0  0  0  0  0
  2  1  2  6  0  0  0
  2 21  1  0  0  0  0
  2  5  1  0  0  0  0
  3  2  1  0  0  0  0
  3  4  1  0  0  0  0
  5  7  1  0  0  0  0
  6  7  2  0  0  0  0
  6 11  1  0  0  0  0
  7  8  1  0  0  0  0
  8 12  1  0  0  0  0
  8  9  2  0  0  0  0
 10  9  1  0  0  0  0
 10 13  1  0  0  0  0
 11 10  2  0  0  0  0
 14 17  1  0  0  0  0
 14  6  1  0  0  0  0
 15 14  1  0  0  0  0
 16 14  1  0  0  0  0
 17 19  1  0  0  0  0
 18 17  1  0  0  0  0
 20 17  1  0  0  0  0
 22 27  1  0  0  0  0
 22 21  1  0  0  0  0
 23 22  2  0  0  0  0
 24 25  2  0  0  0  0
 24 23  1  0  0  0  0
 25 26  1  0  0  0  0
 26 32  1  0  0  0  0
 26 27  2  0  0  0  0
 28 23  1  0  0  0  0
 29 24  1  0  0  0  0
 31 38  1  0  0  0  0
 31 30  1  0  0  0  0
 32 31  2  0  0  0  0
 33 35  2  0  0  0  0
 33 32  1  0  0  0  0
 34 33  1  0  0  0  0
 35 37  1  0  0  0  0
 36 35  1  0  0  0  0
 37 38  2  0  0  0  0
M  END
>  <minimizedAffinity>
-6.17032766

>  <minimizedRMSD>
0.490882486

$$$$
