
 OpenBabel03242517093D

 34 36  0  0  1  0  0  0  0  0999 V2000
   38.2150   28.3540   40.8830 C   0  0  2  0  0  0  0  0  0  0  0  0
   36.9980   27.5870   41.2460 C   0  0  2  0  0  0  0  0  0  0  0  0
   36.5160   27.8430   42.6220 C   0  0  0  0  0  0  0  0  0  0  0  0
   37.5750   27.6540   43.6790 C   0  0  0  0  0  0  0  0  0  0  0  0
   38.8940   28.2340   43.2930 C   0  0  0  0  0  0  0  0  0  0  0  0
   38.8360   29.0850   42.0580 C   0  0  0  0  0  0  0  0  0  0  0  0
   38.9850   27.6790   40.4550 H   0  0  0  0  0  0  0  0  0  0  0  0
   36.1290   27.9490   40.5500 H   0  0  0  0  0  0  0  0  0  0  0  0
   35.6260   27.2270   42.8860 H   0  0  0  0  0  0  0  0  0  0  0  0
   36.1510   28.8970   42.8030 H   0  0  0  0  0  0  0  0  0  0  0  0
   37.2170   28.0700   44.6630 H   0  0  0  0  0  0  0  0  0  0  0  0
   37.6810   26.5780   43.8720 H   0  0  0  0  0  0  0  0  0  0  0  0
   39.2180   28.9100   44.1120 H   0  0  0  0  0  0  0  0  0  0  0  0
   39.6700   27.4570   43.2340 H   0  0  0  0  0  0  0  0  0  0  0  0
   38.2480   29.9990   42.2240 H   0  0  0  0  0  0  0  0  0  0  0  0
   39.8760   29.3670   41.7950 H   0  0  0  0  0  0  0  0  0  0  0  0
   37.9280   29.3730   39.8490 C   0  0  0  0  0  0  0  0  0  0  0  0
   37.2780   30.5560   40.2880 C   0  0  0  0  0  0  0  0  0  0  0  0
   36.9810   31.5650   39.3680 C   0  0  0  0  0  0  0  0  0  0  0  0
   37.3560   31.3250   38.0610 N   0  0  0  0  0  0  0  0  0  0  0  0
   37.9680   30.2020   37.6660 C   0  0  0  0  0  0  0  0  0  0  0  0
   38.2540   29.2260   38.5610 N   0  0  0  0  0  0  0  0  0  0  0  0
   36.9640   30.8060   41.2610 H   0  0  0  0  0  0  0  0  0  0  0  0
   36.4920   32.4880   39.6210 H   0  0  0  0  0  0  0  0  0  0  0  0
   38.2070   30.1370   36.6180 H   0  0  0  0  0  0  0  0  0  0  0  0
   35.8220   26.6820   38.5680 Cl  0  0  0  0  0  0  0  0  0  0  0  0
   36.5370   25.5950   39.7450 C   0  0  0  0  0  0  0  0  0  0  0  0
   37.0240   26.1460   40.9410 C   0  0  0  0  0  0  0  0  0  0  0  0
   37.5520   25.1530   41.7480 C   0  0  0  0  0  0  0  0  0  0  0  0
   37.9850   25.4060   42.6880 H   0  0  0  0  0  0  0  0  0  0  0  0
   37.6050   23.8250   41.4560 C   0  0  0  0  0  0  0  0  0  0  0  0
   38.0230   23.0800   42.1100 H   0  0  0  0  0  0  0  0  0  0  0  0
   37.1070   23.3690   40.2690 C   0  0  0  0  0  3  0  0  0  0  0  0
   36.5610   24.2650   39.3890 C   0  0  0  0  0  3  0  0  0  0  0  0
  1  7  1  6  0  0  0
  1  2  1  0  0  0  0
  1  6  1  0  0  0  0
  2  8  1  6  0  0  0
  2  3  1  0  0  0  0
  3 10  1  0  0  0  0
  3  9  1  0  0  0  0
  3  4  1  0  0  0  0
  4 12  1  0  0  0  0
  4 11  1  0  0  0  0
  5  4  1  0  0  0  0
  5 13  1  0  0  0  0
  6 15  1  0  0  0  0
  6  5  1  0  0  0  0
 14  5  1  0  0  0  0
 16  6  1  0  0  0  0
 17 18  1  0  0  0  0
 17  1  1  0  0  0  0
 18 23  1  0  0  0  0
 19 24  1  0  0  0  0
 19 18  2  0  0  0  0
 20 19  1  0  0  0  0
 21 20  2  0  0  0  0
 21 22  1  0  0  0  0
 22 17  2  0  0  0  0
 25 21  1  0  0  0  0
 26 27  1  0  0  0  0
 27 28  1  0  0  0  0
 28  2  1  0  0  0  0
 28 29  2  0  0  0  0
 29 30  1  0  0  0  0
 31 29  1  0  0  0  0
 31 32  1  0  0  0  0
 33 31  2  0  0  0  0
 34 27  2  0  0  0  0
 34 33  1  0  0  0  0
M  END
>  <minimizedAffinity>
-5.25523376

$$$$

 OpenBabel03242517093D

 34 36  0  0  1  0  0  0  0  0999 V2000
   37.2010   30.3580   40.9770 C   0  0  2  0  0  0  0  0  0  0  0  0
   38.0980   29.2620   40.5340 C   0  0  2  0  0  0  0  0  0  0  0  0
   37.5530   28.4550   39.4190 C   0  0  0  0  0  0  0  0  0  0  0  0
   36.1700   27.9120   39.6840 C   0  0  0  0  0  0  0  0  0  0  0  0
   35.2630   28.9120   40.3180 C   0  0  0  0  0  0  0  0  0  0  0  0
   35.8260   30.3030   40.3400 C   0  0  0  0  0  0  0  0  0  0  0  0
   37.0690   30.3300   42.0790 H   0  0  0  0  0  0  0  0  0  0  0  0
   39.0720   29.7500   40.1050 H   0  0  0  0  0  0  0  0  0  0  0  0
   38.2230   27.6140   39.1310 H   0  0  0  0  0  0  0  0  0  0  0  0
   37.4300   29.0200   38.4470 H   0  0  0  0  0  0  0  0  0  0  0  0
   35.7280   27.5030   38.7330 H   0  0  0  0  0  0  0  0  0  0  0  0
   36.2660   27.0290   40.3300 H   0  0  0  0  0  0  0  0  0  0  0  0
   34.3410   28.9680   39.7020 H   0  0  0  0  0  0  0  0  0  0  0  0
   34.9300   28.5770   41.3110 H   0  0  0  0  0  0  0  0  0  0  0  0
   35.9170   30.7180   39.3260 H   0  0  0  0  0  0  0  0  0  0  0  0
   35.1330   30.9370   40.9300 H   0  0  0  0  0  0  0  0  0  0  0  0
   37.7680   31.6880   40.6570 C   0  0  0  0  0  0  0  0  0  0  0  0
   36.9510   32.5560   39.8870 C   0  0  0  0  0  0  0  0  0  0  0  0
   37.4190   33.8300   39.5530 C   0  0  0  0  0  0  0  0  0  0  0  0
   38.6800   34.1550   40.0120 N   0  0  0  0  0  0  0  0  0  0  0  0
   39.4360   33.3210   40.7360 C   0  0  0  0  0  0  0  0  0  0  0  0
   38.9790   32.0870   41.0580 N   0  0  0  0  0  0  0  0  0  0  0  0
   35.9870   32.3770   39.5050 H   0  0  0  0  0  0  0  0  0  0  0  0
   36.8610   34.5440   38.9750 H   0  0  0  0  0  0  0  0  0  0  0  0
   40.4010   33.6940   41.0320 H   0  0  0  0  0  0  0  0  0  0  0  0
   41.0770   28.5700   40.3880 Cl  0  0  0  0  0  0  0  0  0  0  0  0
   40.0040   28.0280   41.6650 C   0  0  0  0  0  0  0  0  0  0  0  0
   38.6530   28.4080   41.5990 C   0  0  0  0  0  0  0  0  0  0  0  0
   37.9560   27.8970   42.6800 C   0  0  0  0  0  0  0  0  0  0  0  0
   36.9180   28.1120   42.7920 H   0  0  0  0  0  0  0  0  0  0  0  0
   38.4740   27.1340   43.6800 C   0  0  0  0  0  0  0  0  0  0  0  0
   37.9000   26.7530   44.5060 H   0  0  0  0  0  0  0  0  0  0  0  0
   39.7990   26.8080   43.6710 C   0  0  0  0  0  3  0  0  0  0  0  0
   40.5880   27.2600   42.6470 C   0  0  0  0  0  3  0  0  0  0  0  0
  1  7  1  1  0  0  0
  2  8  1  6  0  0  0
  2  1  1  0  0  0  0
  2 28  1  0  0  0  0
  3  4  1  0  0  0  0
  3  2  1  0  0  0  0
  4  5  1  0  0  0  0
  4 12  1  0  0  0  0
  5  6  1  0  0  0  0
  5 14  1  0  0  0  0
  6 16  1  0  0  0  0
  6  1  1  0  0  0  0
  9  3  1  0  0  0  0
 10  3  1  0  0  0  0
 11  4  1  0  0  0  0
 13  5  1  0  0  0  0
 15  6  1  0  0  0  0
 17  1  1  0  0  0  0
 17 22  1  0  0  0  0
 18 17  2  0  0  0  0
 19 18  1  0  0  0  0
 19 20  2  0  0  0  0
 20 21  1  0  0  0  0
 21 25  1  0  0  0  0
 21 22  2  0  0  0  0
 23 18  1  0  0  0  0
 24 19  1  0  0  0  0
 26 27  1  0  0  0  0
 27 34  1  0  0  0  0
 28 27  2  0  0  0  0
 28 29  1  0  0  0  0
 29 30  1  0  0  0  0
 29 31  2  0  0  0  0
 31 32  1  0  0  0  0
 33 31  1  0  0  0  0
 34 33  2  0  0  0  0
M  END
>  <minimizedAffinity>
-5.25172329

$$$$

 OpenBabel03242517093D

 34 36  0  0  1  0  0  0  0  0999 V2000
   36.1550   27.3970   38.7040 C   0  0  2  0  0  0  0  0  0  0  0  0
   35.5870   28.7060   39.1120 C   0  0  2  0  0  0  0  0  0  0  0  0
   34.1470   28.8570   38.8060 C   0  0  0  0  0  0  0  0  0  0  0  0
   33.8020   28.5740   37.3640 C   0  0  0  0  0  0  0  0  0  0  0  0
   34.4980   27.3710   36.8240 C   0  0  0  0  0  0  0  0  0  0  0  0
   35.1990   26.5610   37.8750 C   0  0  0  0  0  0  0  0  0  0  0  0
   37.0830   27.5440   38.1130 H   0  0  0  0  0  0  0  0  0  0  0  0
   35.6570   28.7770   40.2780 H   0  0  0  0  0  0  0  0  0  0  0  0
   33.7530   29.8610   39.0820 H   0  0  0  0  0  0  0  0  0  0  0  0
   33.4700   28.1570   39.3790 H   0  0  0  0  0  0  0  0  0  0  0  0
   32.6850   28.4890   37.2460 H   0  0  0  0  0  0  0  0  0  0  0  0
   34.0620   29.4590   36.7680 H   0  0  0  0  0  0  0  0  0  0  0  0
   33.7260   26.7010   36.3900 H   0  0  0  0  0  0  0  0  0  0  0  0
   35.1580   27.6350   35.9850 H   0  0  0  0  0  0  0  0  0  0  0  0
   34.4860   26.0940   38.5680 H   0  0  0  0  0  0  0  0  0  0  0  0
   35.7760   25.7660   37.3590 H   0  0  0  0  0  0  0  0  0  0  0  0
   36.5310   26.5780   39.8790 C   0  0  0  0  0  0  0  0  0  0  0  0
   36.8900   27.2870   41.0560 C   0  0  0  0  0  0  0  0  0  0  0  0
   37.2500   26.5790   42.2060 C   0  0  0  0  0  0  0  0  0  0  0  0
   37.2270   25.2020   42.1050 N   0  0  0  0  0  0  0  0  0  0  0  0
   36.8860   24.5520   40.9850 C   0  0  0  0  0  0  0  0  0  0  0  0
   36.5380   25.2420   39.8720 N   0  0  0  0  0  0  0  0  0  0  0  0
   36.9310   28.3270   41.2050 H   0  0  0  0  0  0  0  0  0  0  0  0
   37.5340   27.0400   43.1340 H   0  0  0  0  0  0  0  0  0  0  0  0
   36.9080   23.4770   41.0360 H   0  0  0  0  0  0  0  0  0  0  0  0
   36.1070   30.8440   41.2420 Cl  0  0  0  0  0  0  0  0  0  0  0  0
   36.6790   30.9460   39.5860 C   0  0  0  0  0  0  0  0  0  0  0  0
   36.3530   29.8990   38.7090 C   0  0  0  0  0  0  0  0  0  0  0  0
   36.8820   30.1410   37.4530 C   0  0  0  0  0  0  0  0  0  0  0  0
   36.7440   29.4290   36.6720 H   0  0  0  0  0  0  0  0  0  0  0  0
   37.6150   31.2280   37.0870 C   0  0  0  0  0  0  0  0  0  0  0  0
   38.0110   31.3820   36.0990 H   0  0  0  0  0  0  0  0  0  0  0  0
   37.8890   32.2030   38.0020 C   0  0  0  0  0  3  0  0  0  0  0  0
   37.4150   32.0690   39.2800 C   0  0  0  0  0  3  0  0  0  0  0  0
  1  7  1  6  0  0  0
  1  2  1  0  0  0  0
  1 17  1  0  0  0  0
  2  8  1  1  0  0  0
  3  9  1  0  0  0  0
  3  2  1  0  0  0  0
  3 10  1  0  0  0  0
  4  3  1  0  0  0  0
  5  4  1  0  0  0  0
  5  6  1  0  0  0  0
  6 15  1  0  0  0  0
  6  1  1  0  0  0  0
 11  4  1  0  0  0  0
 12  4  1  0  0  0  0
 13  5  1  0  0  0  0
 14  5  1  0  0  0  0
 16  6  1  0  0  0  0
 17 18  1  0  0  0  0
 18 23  1  0  0  0  0
 18 19  2  0  0  0  0
 19 24  1  0  0  0  0
 20 19  1  0  0  0  0
 21 25  1  0  0  0  0
 21 20  2  0  0  0  0
 22 17  2  0  0  0  0
 22 21  1  0  0  0  0
 27 26  1  0  0  0  0
 28  2  1  0  0  0  0
 28 27  2  0  0  0  0
 29 28  1  0  0  0  0
 30 29  1  0  0  0  0
 31 29  2  0  0  0  0
 31 33  1  0  0  0  0
 32 31  1  0  0  0  0
 33 34  2  0  0  0  0
 34 27  1  0  0  0  0
M  END
>  <minimizedAffinity>
-5.24434853

$$$$

 OpenBabel03242517093D

 34 36  0  0  1  0  0  0  0  0999 V2000
   37.2120   27.9570   39.7500 C   0  0  2  0  0  0  0  0  0  0  0  0
   36.5880   29.0640   40.5150 C   0  0  2  0  0  0  0  0  0  0  0  0
   35.1080   29.0510   40.4920 C   0  0  0  0  0  0  0  0  0  0  0  0
   34.5240   28.9950   39.1020 C   0  0  0  0  0  0  0  0  0  0  0  0
   35.2350   28.0350   38.2090 C   0  0  0  0  0  0  0  0  0  0  0  0
   36.2150   27.1560   38.9320 C   0  0  0  0  0  0  0  0  0  0  0  0
   37.9840   28.3500   39.0570 H   0  0  0  0  0  0  0  0  0  0  0  0
   36.8740   28.9240   41.6410 H   0  0  0  0  0  0  0  0  0  0  0  0
   34.6630   29.9140   41.0380 H   0  0  0  0  0  0  0  0  0  0  0  0
   34.6390   28.1610   41.0080 H   0  0  0  0  0  0  0  0  0  0  0  0
   33.4230   28.7660   39.1550 H   0  0  0  0  0  0  0  0  0  0  0  0
   34.5620   30.0050   38.6720 H   0  0  0  0  0  0  0  0  0  0  0  0
   34.4760   27.3500   37.7780 H   0  0  0  0  0  0  0  0  0  0  0  0
   35.6860   28.5480   37.3480 H   0  0  0  0  0  0  0  0  0  0  0  0
   35.7070   26.4650   39.6200 H   0  0  0  0  0  0  0  0  0  0  0  0
   36.7670   26.5700   38.1700 H   0  0  0  0  0  0  0  0  0  0  0  0
   37.8990   26.9980   40.6440 C   0  0  0  0  0  0  0  0  0  0  0  0
   37.0930   25.9860   41.2270 C   0  0  0  0  0  0  0  0  0  0  0  0
   37.6750   25.0410   42.0760 C   0  0  0  0  0  0  0  0  0  0  0  0
   39.0330   25.1700   42.2890 N   0  0  0  0  0  0  0  0  0  0  0  0
   39.7770   26.1330   41.7300 C   0  0  0  0  0  0  0  0  0  0  0  0
   39.2080   27.0470   40.9070 N   0  0  0  0  0  0  0  0  0  0  0  0
   36.0590   25.8270   41.1110 H   0  0  0  0  0  0  0  0  0  0  0  0
   37.1340   24.2460   42.5550 H   0  0  0  0  0  0  0  0  0  0  0  0
   40.8250   26.1250   41.9770 H   0  0  0  0  0  0  0  0  0  0  0  0
   38.6960   30.1580   42.4480 Cl  0  0  0  0  0  0  0  0  0  0  0  0
   38.1020   31.0290   41.0460 C   0  0  0  0  0  0  0  0  0  0  0  0
   37.1200   30.4140   40.2530 C   0  0  0  0  0  0  0  0  0  0  0  0
   36.7700   31.2360   39.1960 C   0  0  0  0  0  0  0  0  0  0  0  0
   36.0490   30.9070   38.4840 H   0  0  0  0  0  0  0  0  0  0  0  0
   37.2820   32.4690   38.9360 C   0  0  0  0  0  0  0  0  0  0  0  0
   36.9840   33.0810   38.1020 H   0  0  0  0  0  0  0  0  0  0  0  0
   38.2350   32.9980   39.7580 C   0  0  0  0  0  3  0  0  0  0  0  0
   38.6600   32.2710   40.8370 C   0  0  0  0  0  3  0  0  0  0  0  0
  1  7  1  6  0  0  0
  1  2  1  0  0  0  0
  1 17  1  0  0  0  0
  2  8  1  1  0  0  0
  3  2  1  0  0  0  0
  3 10  1  0  0  0  0
  3  9  1  0  0  0  0
  4 11  1  0  0  0  0
  4  3  1  0  0  0  0
  5  6  1  0  0  0  0
  5  4  1  0  0  0  0
  6 15  1  0  0  0  0
  6  1  1  0  0  0  0
 12  4  1  0  0  0  0
 13  5  1  0  0  0  0
 14  5  1  0  0  0  0
 16  6  1  0  0  0  0
 17 22  2  0  0  0  0
 17 18  1  0  0  0  0
 18 19  2  0  0  0  0
 19 20  1  0  0  0  0
 19 24  1  0  0  0  0
 21 25  1  0  0  0  0
 21 20  2  0  0  0  0
 22 21  1  0  0  0  0
 23 18  1  0  0  0  0
 27 26  1  0  0  0  0
 28  2  1  0  0  0  0
 28 27  2  0  0  0  0
 29 28  1  0  0  0  0
 30 29  1  0  0  0  0
 31 29  2  0  0  0  0
 31 33  1  0  0  0  0
 32 31  1  0  0  0  0
 33 34  2  0  0  0  0
 34 27  1  0  0  0  0
M  END
>  <minimizedAffinity>
-5.15167904

$$$$

 OpenBabel03242517093D

 34 36  0  0  1  0  0  0  0  0999 V2000
   39.0770   25.5880   41.1710 C   0  0  2  0  0  0  0  0  0  0  0  0
   37.7900   25.9800   41.7970 C   0  0  2  0  0  0  0  0  0  0  0  0
   36.9290   24.8350   42.1670 C   0  0  0  0  0  0  0  0  0  0  0  0
   36.6750   23.8760   41.0300 C   0  0  0  0  0  0  0  0  0  0  0  0
   37.8990   23.5860   40.2280 C   0  0  0  0  0  0  0  0  0  0  0  0
   39.1610   24.1080   40.8500 C   0  0  0  0  0  0  0  0  0  0  0  0
   39.2370   26.1520   40.2280 H   0  0  0  0  0  0  0  0  0  0  0  0
   38.0340   26.5130   42.8100 H   0  0  0  0  0  0  0  0  0  0  0  0
   35.9520   25.1530   42.5970 H   0  0  0  0  0  0  0  0  0  0  0  0
   37.3540   24.1710   42.9790 H   0  0  0  0  0  0  0  0  0  0  0  0
   36.2090   22.9280   41.4220 H   0  0  0  0  0  0  0  0  0  0  0  0
   35.8960   24.3050   40.3860 H   0  0  0  0  0  0  0  0  0  0  0  0
   38.0180   22.4830   40.1810 H   0  0  0  0  0  0  0  0  0  0  0  0
   37.7790   23.9110   39.1840 H   0  0  0  0  0  0  0  0  0  0  0  0
   39.3980   23.5830   41.7860 H   0  0  0  0  0  0  0  0  0  0  0  0
   39.9860   23.9460   40.1260 H   0  0  0  0  0  0  0  0  0  0  0  0
   40.2260   25.9020   42.0490 C   0  0  0  0  0  0  0  0  0  0  0  0
   40.3030   27.2310   42.5410 C   0  0  0  0  0  0  0  0  0  0  0  0
   41.3570   27.5980   43.3820 C   0  0  0  0  0  0  0  0  0  0  0  0
   42.2720   26.6070   43.6770 N   0  0  0  0  0  0  0  0  0  0  0  0
   42.1830   25.3590   43.2010 C   0  0  0  0  0  0  0  0  0  0  0  0
   41.1590   25.0080   42.3870 N   0  0  0  0  0  0  0  0  0  0  0  0
   39.6470   28.0340   42.3590 H   0  0  0  0  0  0  0  0  0  0  0  0
   41.4850   28.5810   43.7950 H   0  0  0  0  0  0  0  0  0  0  0  0
   42.9610   24.6800   43.5060 H   0  0  0  0  0  0  0  0  0  0  0  0
   37.0320   28.4790   43.3970 Cl  0  0  0  0  0  0  0  0  0  0  0  0
   36.6260   28.2330   41.7080 C   0  0  0  0  0  0  0  0  0  0  0  0
   37.0230   27.0300   41.1020 C   0  0  0  0  0  0  0  0  0  0  0  0
   36.6250   27.0040   39.7770 C   0  0  0  0  0  0  0  0  0  0  0  0
   36.8680   26.1660   39.1650 H   0  0  0  0  0  0  0  0  0  0  0  0
   35.9430   27.9850   39.1250 C   0  0  0  0  0  0  0  0  0  0  0  0
   35.6490   27.9300   38.0920 H   0  0  0  0  0  0  0  0  0  0  0  0
   35.5930   29.1260   39.7880 C   0  0  0  0  0  3  0  0  0  0  0  0
   35.9380   29.2620   41.1060 C   0  0  0  0  0  3  0  0  0  0  0  0
  1  7  1  6  0  0  0
  1  2  1  0  0  0  0
  1 17  1  0  0  0  0
  2  3  1  0  0  0  0
  2  8  1  1  0  0  0
  3  9  1  0  0  0  0
  3 10  1  0  0  0  0
  4 11  1  0  0  0  0
  4  3  1  0  0  0  0
  5  6  1  0  0  0  0
  5  4  1  0  0  0  0
  6  1  1  0  0  0  0
  6 15  1  0  0  0  0
 12  4  1  0  0  0  0
 13  5  1  0  0  0  0
 14  5  1  0  0  0  0
 16  6  1  0  0  0  0
 17 22  2  0  0  0  0
 17 18  1  0  0  0  0
 18 19  2  0  0  0  0
 19 20  1  0  0  0  0
 19 24  1  0  0  0  0
 21 25  1  0  0  0  0
 21 20  2  0  0  0  0
 22 21  1  0  0  0  0
 23 18  1  0  0  0  0
 27 26  1  0  0  0  0
 28 27  2  0  0  0  0
 28  2  1  0  0  0  0
 29 28  1  0  0  0  0
 30 29  1  0  0  0  0
 31 29  2  0  0  0  0
 31 33  1  0  0  0  0
 32 31  1  0  0  0  0
 33 34  2  0  0  0  0
 34 27  1  0  0  0  0
M  END
>  <minimizedAffinity>
-5.14647293

$$$$

 OpenBabel03242517093D

 34 36  0  0  1  0  0  0  0  0999 V2000
   37.2590   26.6520   41.4170 C   0  0  2  0  0  0  0  0  0  0  0  0
   38.1960   27.8010   41.3590 C   0  0  2  0  0  0  0  0  0  0  0  0
   38.6930   28.2360   42.6840 C   0  0  0  0  0  0  0  0  0  0  0  0
   37.5960   28.5190   43.6800 C   0  0  0  0  0  0  0  0  0  0  0  0
   36.5090   27.4980   43.6550 C   0  0  0  0  0  0  0  0  0  0  0  0
   36.8410   26.2880   42.8300 C   0  0  0  0  0  0  0  0  0  0  0  0
   36.3400   26.8710   40.8350 H   0  0  0  0  0  0  0  0  0  0  0  0
   39.1500   27.4530   40.7780 H   0  0  0  0  0  0  0  0  0  0  0  0
   39.3620   29.1250   42.6200 H   0  0  0  0  0  0  0  0  0  0  0  0
   39.3400   27.4760   43.2150 H   0  0  0  0  0  0  0  0  0  0  0  0
   38.0320   28.6280   44.7130 H   0  0  0  0  0  0  0  0  0  0  0  0
   37.1820   29.5130   43.4630 H   0  0  0  0  0  0  0  0  0  0  0  0
   36.3700   27.1280   44.6920 H   0  0  0  0  0  0  0  0  0  0  0  0
   35.5450   27.9470   43.3750 H   0  0  0  0  0  0  0  0  0  0  0  0
   37.6620   25.7080   43.2750 H   0  0  0  0  0  0  0  0  0  0  0  0
   35.9330   25.6540   42.7810 H   0  0  0  0  0  0  0  0  0  0  0  0
   37.8540   25.4350   40.8200 C   0  0  0  0  0  0  0  0  0  0  0  0
   37.2880   24.1940   41.2150 C   0  0  0  0  0  0  0  0  0  0  0  0
   37.7940   23.0040   40.6870 C   0  0  0  0  0  0  0  0  0  0  0  0
   38.8390   23.1310   39.7930 N   0  0  0  0  0  0  0  0  0  0  0  0
   39.3590   24.3100   39.4340 C   0  0  0  0  0  0  0  0  0  0  0  0
   38.8650   25.4620   39.9480 N   0  0  0  0  0  0  0  0  0  0  0  0
   36.4960   24.0220   41.8870 H   0  0  0  0  0  0  0  0  0  0  0  0
   37.4210   22.0270   40.9340 H   0  0  0  0  0  0  0  0  0  0  0  0
   40.1720   24.2740   38.7290 H   0  0  0  0  0  0  0  0  0  0  0  0
   40.2910   29.1180   39.5560 Cl  0  0  0  0  0  0  0  0  0  0  0  0
   38.6170   29.6330   39.6560 C   0  0  0  0  0  0  0  0  0  0  0  0
   37.7670   28.9480   40.5390 C   0  0  0  0  0  0  0  0  0  0  0  0
   36.4910   29.4810   40.4900 C   0  0  0  0  0  0  0  0  0  0  0  0
   35.7150   29.0590   41.0880 H   0  0  0  0  0  0  0  0  0  0  0  0
   36.0850   30.5200   39.7120 C   0  0  0  0  0  0  0  0  0  0  0  0
   35.0820   30.9090   39.7000 H   0  0  0  0  0  0  0  0  0  0  0  0
   36.9750   31.1340   38.8790 C   0  0  0  0  0  3  0  0  0  0  0  0
   38.2690   30.6880   38.8430 C   0  0  0  0  0  3  0  0  0  0  0  0
  1  7  1  6  0  0  0
  1  6  1  0  0  0  0
  2  8  1  6  0  0  0
  2  1  1  0  0  0  0
  2  3  1  0  0  0  0
  3 10  1  0  0  0  0
  3  4  1  0  0  0  0
  4 11  1  0  0  0  0
  5  4  1  0  0  0  0
  5 13  1  0  0  0  0
  6 15  1  0  0  0  0
  6  5  1  0  0  0  0
  9  3  1  0  0  0  0
 12  4  1  0  0  0  0
 14  5  1  0  0  0  0
 16  6  1  0  0  0  0
 17 18  1  0  0  0  0
 17  1  1  0  0  0  0
 18 23  1  0  0  0  0
 19 24  1  0  0  0  0
 19 18  2  0  0  0  0
 20 19  1  0  0  0  0
 21 20  2  0  0  0  0
 21 22  1  0  0  0  0
 22 17  2  0  0  0  0
 25 21  1  0  0  0  0
 26 27  1  0  0  0  0
 27 28  1  0  0  0  0
 28  2  1  0  0  0  0
 29 28  2  0  0  0  0
 29 30  1  0  0  0  0
 31 29  1  0  0  0  0
 32 31  1  0  0  0  0
 33 31  2  0  0  0  0
 34 33  1  0  0  0  0
 34 27  2  0  0  0  0
M  END
>  <minimizedAffinity>
-5.10741329

$$$$

 OpenBabel03242517093D

 34 36  0  0  1  0  0  0  0  0999 V2000
   36.9080   27.3190   41.3760 C   0  0  2  0  0  0  0  0  0  0  0  0
   38.0690   28.1240   40.9250 C   0  0  2  0  0  0  0  0  0  0  0  0
   39.1070   28.3150   41.9630 C   0  0  0  0  0  0  0  0  0  0  0  0
   38.5710   28.8690   43.2600 C   0  0  0  0  0  0  0  0  0  0  0  0
   37.2870   28.2350   43.6780 C   0  0  0  0  0  0  0  0  0  0  0  0
   36.9220   27.0280   42.8650 C   0  0  0  0  0  0  0  0  0  0  0  0
   35.9580   27.8410   41.1380 H   0  0  0  0  0  0  0  0  0  0  0  0
   38.6040   27.5310   40.0690 H   0  0  0  0  0  0  0  0  0  0  0  0
   39.9490   28.9560   41.6150 H   0  0  0  0  0  0  0  0  0  0  0  0
   39.6320   27.3650   42.2810 H   0  0  0  0  0  0  0  0  0  0  0  0
   39.3520   28.7830   44.0670 H   0  0  0  0  0  0  0  0  0  0  0  0
   38.4340   29.9520   43.1410 H   0  0  0  0  0  0  0  0  0  0  0  0
   37.4140   27.8710   44.7190 H   0  0  0  0  0  0  0  0  0  0  0  0
   36.4740   28.9730   43.7250 H   0  0  0  0  0  0  0  0  0  0  0  0
   37.6250   26.2000   43.0300 H   0  0  0  0  0  0  0  0  0  0  0  0
   35.9060   26.7070   43.1750 H   0  0  0  0  0  0  0  0  0  0  0  0
   36.8520   26.0110   40.6850 C   0  0  0  0  0  0  0  0  0  0  0  0
   36.5600   26.0410   39.2960 C   0  0  0  0  0  0  0  0  0  0  0  0
   36.4980   24.8440   38.5770 C   0  0  0  0  0  0  0  0  0  0  0  0
   36.7330   23.6890   39.2960 N   0  0  0  0  0  0  0  0  0  0  0  0
   37.0060   23.6820   40.6060 C   0  0  0  0  0  0  0  0  0  0  0  0
   37.0650   24.8440   41.3000 N   0  0  0  0  0  0  0  0  0  0  0  0
   36.3700   26.8770   38.6860 H   0  0  0  0  0  0  0  0  0  0  0  0
   36.2830   24.7830   37.5260 H   0  0  0  0  0  0  0  0  0  0  0  0
   37.1700   22.7150   41.0510 H   0  0  0  0  0  0  0  0  0  0  0  0
   39.0480   28.4550   38.0420 Cl  0  0  0  0  0  0  0  0  0  0  0  0
   38.1240   29.6670   38.9120 C   0  0  0  0  0  0  0  0  0  0  0  0
   37.7540   29.3900   40.2380 C   0  0  0  0  0  0  0  0  0  0  0  0
   37.0340   30.4460   40.7670 C   0  0  0  0  0  0  0  0  0  0  0  0
   36.6580   30.3860   41.7630 H   0  0  0  0  0  0  0  0  0  0  0  0
   36.7160   31.6020   40.1250 C   0  0  0  0  0  0  0  0  0  0  0  0
   36.1540   32.4040   40.5700 H   0  0  0  0  0  0  0  0  0  0  0  0
   37.1150   31.7950   38.8340 C   0  0  0  0  0  3  0  0  0  0  0  0
   37.8340   30.8130   38.2060 C   0  0  0  0  0  3  0  0  0  0  0  0
  1  7  1  6  0  0  0
  1  6  1  0  0  0  0
  2  8  1  6  0  0  0
  2  1  1  0  0  0  0
  2  3  1  0  0  0  0
  3 10  1  0  0  0  0
  3  4  1  0  0  0  0
  4  5  1  0  0  0  0
  4 11  1  0  0  0  0
  5 14  1  0  0  0  0
  5 13  1  0  0  0  0
  6 15  1  0  0  0  0
  6 16  1  0  0  0  0
  6  5  1  0  0  0  0
  9  3  1  0  0  0  0
 12  4  1  0  0  0  0
 17 22  1  0  0  0  0
 17  1  1  0  0  0  0
 18 17  2  0  0  0  0
 19 18  1  0  0  0  0
 19 20  2  0  0  0  0
 20 21  1  0  0  0  0
 21 25  1  0  0  0  0
 21 22  2  0  0  0  0
 23 18  1  0  0  0  0
 24 19  1  0  0  0  0
 26 27  1  0  0  0  0
 27 28  1  0  0  0  0
 28 29  2  0  0  0  0
 28  2  1  0  0  0  0
 29 30  1  0  0  0  0
 31 32  1  0  0  0  0
 31 29  1  0  0  0  0
 33 31  2  0  0  0  0
 34 33  1  0  0  0  0
 34 27  2  0  0  0  0
M  END
>  <minimizedAffinity>
-5.06730556

$$$$

 OpenBabel03242517093D

 34 36  0  0  1  0  0  0  0  0999 V2000
   37.8250   28.3740   40.6230 C   0  0  2  0  0  0  0  0  0  0  0  0
   37.4980   27.8060   41.9540 C   0  0  2  0  0  0  0  0  0  0  0  0
   37.4150   28.8150   43.0330 C   0  0  0  0  0  0  0  0  0  0  0  0
   38.6370   29.6930   43.1370 C   0  0  0  0  0  0  0  0  0  0  0  0
   39.1440   30.1460   41.8090 C   0  0  0  0  0  0  0  0  0  0  0  0
   38.2080   29.8410   40.6750 C   0  0  0  0  0  0  0  0  0  0  0  0
   38.6660   27.8170   40.1590 H   0  0  0  0  0  0  0  0  0  0  0  0
   36.4250   27.3430   41.8900 H   0  0  0  0  0  0  0  0  0  0  0  0
   37.2100   28.3610   44.0290 H   0  0  0  0  0  0  0  0  0  0  0  0
   36.5690   29.5560   42.9180 H   0  0  0  0  0  0  0  0  0  0  0  0
   38.4270   30.5680   43.8150 H   0  0  0  0  0  0  0  0  0  0  0  0
   39.4200   29.1330   43.6650 H   0  0  0  0  0  0  0  0  0  0  0  0
   39.2300   31.2530   41.8400 H   0  0  0  0  0  0  0  0  0  0  0  0
   40.1630   29.7800   41.6230 H   0  0  0  0  0  0  0  0  0  0  0  0
   37.2770   30.4210   40.7510 H   0  0  0  0  0  0  0  0  0  0  0  0
   38.7250   30.1090   39.7310 H   0  0  0  0  0  0  0  0  0  0  0  0
   36.6820   28.2640   39.6890 C   0  0  0  0  0  0  0  0  0  0  0  0
   35.5200   29.0090   40.0190 C   0  0  0  0  0  0  0  0  0  0  0  0
   34.4040   28.9580   39.1790 C   0  0  0  0  0  0  0  0  0  0  0  0
   34.5220   28.1620   38.0580 N   0  0  0  0  0  0  0  0  0  0  0  0
   35.6270   27.4650   37.7640 C   0  0  0  0  0  0  0  0  0  0  0  0
   36.7070   27.5170   38.5810 N   0  0  0  0  0  0  0  0  0  0  0  0
   35.3580   29.6330   40.8510 H   0  0  0  0  0  0  0  0  0  0  0  0
   33.4890   29.4930   39.3590 H   0  0  0  0  0  0  0  0  0  0  0  0
   35.5930   26.8820   36.8600 H   0  0  0  0  0  0  0  0  0  0  0  0
   36.5910   25.0570   40.9530 Cl  0  0  0  0  0  0  0  0  0  0  0  0
   37.9970   25.3180   41.9700 C   0  0  0  0  0  0  0  0  0  0  0  0
   38.2880   26.6330   42.3700 C   0  0  0  0  0  0  0  0  0  0  0  0
   39.4230   26.6550   43.1610 C   0  0  0  0  0  0  0  0  0  0  0  0
   39.7940   27.5830   43.5320 H   0  0  0  0  0  0  0  0  0  0  0  0
   40.1710   25.5770   43.5220 C   0  0  0  0  0  0  0  0  0  0  0  0
   41.0490   25.6330   44.1410 H   0  0  0  0  0  0  0  0  0  0  0  0
   39.8190   24.3310   43.0910 C   0  0  0  0  0  3  0  0  0  0  0  0
   38.7120   24.1880   42.2990 C   0  0  0  0  0  3  0  0  0  0  0  0
  1  7  1  6  0  0  0
  1  6  1  0  0  0  0
  1  2  1  0  0  0  0
  2  8  1  6  0  0  0
  2 28  1  0  0  0  0
  2  3  1  0  0  0  0
  3  4  1  0  0  0  0
  3  9  1  0  0  0  0
  4 12  1  0  0  0  0
  4 11  1  0  0  0  0
  5 13  1  0  0  0  0
  5  4  1  0  0  0  0
  6 15  1  0  0  0  0
  6  5  1  0  0  0  0
 10  3  1  0  0  0  0
 14  5  1  0  0  0  0
 16  6  1  0  0  0  0
 17 18  1  0  0  0  0
 17  1  1  0  0  0  0
 18 23  1  0  0  0  0
 19 24  1  0  0  0  0
 19 18  2  0  0  0  0
 20 19  1  0  0  0  0
 21 20  2  0  0  0  0
 21 22  1  0  0  0  0
 22 17  2  0  0  0  0
 25 21  1  0  0  0  0
 26 27  1  0  0  0  0
 27 34  2  0  0  0  0
 27 28  1  0  0  0  0
 28 29  2  0  0  0  0
 29 31  1  0  0  0  0
 29 30  1  0  0  0  0
 31 32  1  0  0  0  0
 33 31  2  0  0  0  0
 34 33  1  0  0  0  0
M  END
>  <minimizedAffinity>
-5.05781698

$$$$

 OpenBabel03242517093D

 34 36  0  0  1  0  0  0  0  0999 V2000
   36.9620   29.2870   38.6350 C   0  0  2  0  0  0  0  0  0  0  0  0
   36.0020   28.6960   39.5990 C   0  0  2  0  0  0  0  0  0  0  0  0
   35.2620   29.6970   40.4000 C   0  0  0  0  0  0  0  0  0  0  0  0
   36.1550   30.6870   41.1070 C   0  0  0  0  0  0  0  0  0  0  0  0
   37.2710   31.1800   40.2490 C   0  0  0  0  0  0  0  0  0  0  0  0
   37.1400   30.7840   38.8070 C   0  0  0  0  0  0  0  0  0  0  0  0
   37.9590   28.8100   38.7380 H   0  0  0  0  0  0  0  0  0  0  0  0
   35.1800   28.1340   38.9840 H   0  0  0  0  0  0  0  0  0  0  0  0
   34.5790   29.2300   41.1450 H   0  0  0  0  0  0  0  0  0  0  0  0
   34.5650   30.3550   39.8000 H   0  0  0  0  0  0  0  0  0  0  0  0
   35.5400   31.5410   41.5090 H   0  0  0  0  0  0  0  0  0  0  0  0
   36.5580   30.2050   42.0070 H   0  0  0  0  0  0  0  0  0  0  0  0
   37.2410   32.2900   40.2620 H   0  0  0  0  0  0  0  0  0  0  0  0
   38.2500   30.9110   40.6730 H   0  0  0  0  0  0  0  0  0  0  0  0
   36.2800   31.2740   38.3300 H   0  0  0  0  0  0  0  0  0  0  0  0
   38.0690   31.0950   38.2870 H   0  0  0  0  0  0  0  0  0  0  0  0
   36.5330   29.0660   37.2360 C   0  0  0  0  0  0  0  0  0  0  0  0
   35.1360   29.1060   36.9880 C   0  0  0  0  0  0  0  0  0  0  0  0
   34.6590   28.9120   35.6890 C   0  0  0  0  0  0  0  0  0  0  0  0
   35.6140   28.6900   34.7160 N   0  0  0  0  0  0  0  0  0  0  0  0
   36.9280   28.6540   34.9710 C   0  0  0  0  0  0  0  0  0  0  0  0
   37.3860   28.8430   36.2320 N   0  0  0  0  0  0  0  0  0  0  0  0
   34.3560   29.2680   37.6740 H   0  0  0  0  0  0  0  0  0  0  0  0
   33.6190   28.9280   35.4200 H   0  0  0  0  0  0  0  0  0  0  0  0
   37.5690   28.4720   34.1260 H   0  0  0  0  0  0  0  0  0  0  0  0
   35.9550   25.8610   38.4410 Cl  0  0  0  0  0  0  0  0  0  0  0  0
   36.5760   26.2630   40.0330 C   0  0  0  0  0  0  0  0  0  0  0  0
   36.5210   27.6050   40.4440 C   0  0  0  0  0  0  0  0  0  0  0  0
   37.0490   27.7400   41.7150 C   0  0  0  0  0  0  0  0  0  0  0  0
   37.1030   28.7030   42.1690 H   0  0  0  0  0  0  0  0  0  0  0  0
   37.5560   26.7390   42.4850 C   0  0  0  0  0  0  0  0  0  0  0  0
   37.9590   26.8820   43.4720 H   0  0  0  0  0  0  0  0  0  0  0  0
   37.5720   25.4590   42.0110 C   0  0  0  0  0  3  0  0  0  0  0  0
   37.0750   25.2060   40.7600 C   0  0  0  0  0  3  0  0  0  0  0  0
  1  7  1  1  0  0  0
  1  6  1  0  0  0  0
  1  2  1  0  0  0  0
  2  8  1  6  0  0  0
  2  3  1  0  0  0  0
  2 28  1  0  0  0  0
  3  4  1  0  0  0  0
  3  9  1  0  0  0  0
  4 11  1  0  0  0  0
  4 12  1  0  0  0  0
  5 13  1  0  0  0  0
  5 14  1  0  0  0  0
  5  4  1  0  0  0  0
  6  5  1  0  0  0  0
 10  3  1  0  0  0  0
 15  6  1  0  0  0  0
 16  6  1  0  0  0  0
 17  1  1  0  0  0  0
 18 17  1  0  0  0  0
 18 23  1  0  0  0  0
 19 18  2  0  0  0  0
 20 21  2  0  0  0  0
 20 19  1  0  0  0  0
 21 22  1  0  0  0  0
 22 17  2  0  0  0  0
 24 19  1  0  0  0  0
 25 21  1  0  0  0  0
 26 27  1  0  0  0  0
 27 28  2  0  0  0  0
 27 34  1  0  0  0  0
 28 29  1  0  0  0  0
 29 30  1  0  0  0  0
 29 31  2  0  0  0  0
 31 32  1  0  0  0  0
 33 31  1  0  0  0  0
 34 33  2  0  0  0  0
M  END
>  <minimizedAffinity>
-5.052845

$$$$
