
 OpenBabel03252502533D

 31 33  0  0  0  0  0  0  0  0999 V2000
   44.5720   31.8300   42.3270 Br  0  0  0  0  0  0  0  0  0  0  0  0
   43.4460   33.1990   41.5490 C   0  0  0  0  0  0  0  0  0  0  0  0
   42.1110   32.8940   41.4930 C   0  0  0  0  0  0  0  0  0  0  0  0
   41.3160   33.8960   40.9270 C   0  0  0  0  0  0  0  0  0  0  0  0
   41.8180   35.0920   40.4630 C   0  0  0  0  0  0  0  0  0  0  0  0
   43.1690   35.3180   40.5570 C   0  0  0  0  0  0  0  0  0  0  0  0
   44.0120   34.3760   41.1020 C   0  0  0  0  0  0  0  0  0  0  0  0
   40.2420   33.7220   40.8490 H   0  0  0  0  0  0  0  0  0  0  0  0
   41.1560   35.8300   40.0350 H   0  0  0  0  0  0  0  0  0  0  0  0
   43.6240   36.2260   40.2150 H   0  0  0  0  0  0  0  0  0  0  0  0
   45.0320   35.6880   43.6300 Cl  0  0  0  0  0  0  0  0  0  0  0  0
   46.0570   35.0890   42.3490 C   0  0  0  0  0  0  0  0  0  0  0  0
   45.4680   34.5130   41.2520 C   0  0  0  0  0  0  0  0  0  0  0  0
   46.2140   34.0140   40.1960 C   0  0  0  0  0  0  0  0  0  0  0  0
   45.7440   33.5600   39.3290 H   0  0  0  0  0  0  0  0  0  0  0  0
   47.6030   34.1010   40.2520 C   0  0  0  0  0  0  0  0  0  0  0  0
   48.2290   33.7180   39.4360 H   0  0  0  0  0  0  0  0  0  0  0  0
   48.2090   34.6850   41.3650 C   0  0  0  0  0  0  0  0  0  0  0  0
   47.4420   35.1670   42.3890 C   0  0  0  0  0  0  0  0  0  0  0  0
   41.4480   31.6620   41.9490 C   0  0  0  0  0  0  0  0  0  0  0  0
   42.1340   30.8100   42.0790 H   0  0  0  0  0  0  0  0  0  0  0  0
   41.0030   31.8660   42.9500 H   0  0  0  0  0  0  0  0  0  0  0  0
   39.4300   30.3550   39.1000 C   0  0  0  0  0  0  0  0  0  0  0  0
   38.1230   30.5200   39.5670 C   0  0  0  0  0  0  0  0  0  0  0  0
   37.9610   31.0670   40.8230 C   0  0  0  0  0  0  0  0  0  0  0  0
   39.0540   31.4190   41.5530 N   0  0  0  0  0  0  0  0  0  0  0  0
   40.3240   31.2400   41.0610 C   0  0  0  0  0  0  0  0  0  0  0  0
   40.4720   30.7120   39.8450 N   0  0  0  0  0  0  0  0  0  0  0  0
   39.5410   29.9240   38.1110 H   0  0  0  0  0  0  0  0  0  0  0  0
   37.2300   30.2540   39.0190 H   0  0  0  0  0  0  0  0  0  0  0  0
   37.0100   31.2550   41.3170 H   0  0  0  0  0  0  0  0  0  0  0  0
  2  1  1  0  0  0  0
  3  2  1  0  0  0  0
  3 20  1  0  0  0  0
  4  3  2  0  0  0  0
  5  6  2  0  0  0  0
  5  4  1  0  0  0  0
  6  7  1  0  0  0  0
  7 13  1  0  0  0  0
  7  2  2  0  0  0  0
  8  4  1  0  0  0  0
  9  5  1  0  0  0  0
 10  6  1  0  0  0  0
 12 19  1  0  0  0  0
 12 11  1  0  0  0  0
 13 12  2  0  0  0  0
 14 16  2  0  0  0  0
 14 13  1  0  0  0  0
 15 14  1  0  0  0  0
 16 18  1  0  0  0  0
 17 16  1  0  0  0  0
 18 19  2  0  0  0  0
 20 21  1  0  0  0  0
 20 22  1  0  0  0  0
 23 24  2  0  0  0  0
 23 28  1  0  0  0  0
 24 25  1  0  0  0  0
 25 31  1  0  0  0  0
 25 26  2  0  0  0  0
 27 26  1  0  0  0  0
 27 20  1  0  0  0  0
 28 27  2  0  0  0  0
 29 23  1  0  0  0  0
 30 24  1  0  0  0  0
M  END
>  <minimizedAffinity>
-5.24022913

>  <minimizedRMSD>
8.88821507

$$$$
