
 OpenBabel03252506583D

 38 42  0  0  0  0  0  0  0  0999 V2000
   41.4330   30.5890   39.1710 C   0  0  0  0  0  0  0  0  0  0  0  0
   41.8270   31.5550   38.2440 C   0  0  0  0  0  0  0  0  0  0  0  0
   41.2960   32.8320   38.2330 C   0  0  0  0  0  0  0  0  0  0  0  0
   40.3320   33.1980   39.1670 C   0  0  0  0  0  0  0  0  0  0  0  0
   39.6190   34.3230   39.4390 N   0  0  0  0  0  0  0  0  0  0  0  0
   38.8080   34.0620   40.5030 C   0  0  0  0  0  0  0  0  0  0  0  0
   39.0370   32.7750   40.8680 N   0  0  0  0  0  0  0  0  0  0  0  0
   39.9640   32.2300   40.0640 C   0  0  0  0  0  0  0  0  0  0  0  0
   40.4570   30.9630   40.1160 C   0  0  0  0  0  0  0  0  0  0  0  0
   41.8510   29.5990   39.1750 H   0  0  0  0  0  0  0  0  0  0  0  0
   41.6130   33.5770   37.5020 H   0  0  0  0  0  0  0  0  0  0  0  0
   39.7030   35.2010   38.9130 H   0  0  0  0  0  0  0  0  0  0  0  0
   38.1180   34.7330   40.9720 H   0  0  0  0  0  0  0  0  0  0  0  0
   43.4680   29.9910   35.3600 C   0  0  0  0  0  0  0  0  0  0  0  0
   44.7450   30.5670   35.3950 C   0  0  0  0  0  0  0  0  0  0  0  0
   45.0360   31.4850   36.4050 C   0  0  0  0  0  0  0  0  0  0  0  0
   44.0540   31.7800   37.3150 N   0  0  0  0  0  0  0  0  0  0  0  0
   42.8320   31.2090   37.2550 C   0  0  0  0  0  0  0  0  0  0  0  0
   42.5460   30.3250   36.2870 N   0  0  0  0  0  0  0  0  0  0  0  0
   43.1630   29.2670   34.6040 H   0  0  0  0  0  0  0  0  0  0  0  0
   45.4600   30.2890   34.6520 H   0  0  0  0  0  0  0  0  0  0  0  0
   46.0120   31.9510   36.4640 H   0  0  0  0  0  0  0  0  0  0  0  0
   40.0010   29.9950   41.1160 C   0  0  0  0  0  0  0  0  0  0  0  0
   39.9380   30.2370   42.4750 C   0  0  0  0  0  0  0  0  0  0  0  0
   39.4480   29.0290   43.0020 C   0  0  0  0  0  0  0  0  0  0  0  0
   39.2500   28.1530   41.9570 C   0  0  0  0  0  0  0  0  0  0  0  0
   39.5960   28.7850   40.8590 O   0  0  0  0  0  0  0  0  0  0  0  0
   40.1860   31.1050   43.0450 H   0  0  0  0  0  0  0  0  0  0  0  0
   39.2450   28.7840   44.0510 H   0  0  0  0  0  0  0  0  0  0  0  0
   36.2710   27.8970   41.8520 Cl  0  0  0  0  0  0  0  0  0  0  0  0
   37.3890   26.5540   42.0110 C   0  0  0  0  0  0  0  0  0  0  0  0
   38.7510   26.7860   42.0500 C   0  0  0  0  0  0  0  0  0  0  0  0
   39.6470   25.7440   42.1750 C   0  0  0  0  0  0  0  0  0  0  0  0
   40.7090   25.9160   42.2060 H   0  0  0  0  0  0  0  0  0  0  0  0
   39.1910   24.4440   42.2640 C   0  0  0  0  0  0  0  0  0  0  0  0
   39.8950   23.6270   42.3620 H   0  0  0  0  0  0  0  0  0  0  0  0
   37.8270   24.2440   42.2230 C   0  0  0  0  0  3  0  0  0  0  0  0
   36.8920   25.2600   42.0980 C   0  0  0  0  0  3  0  0  0  0  0  0
  1 10  1  0  0  0  0
  1  9  1  0  0  0  0
  2  1  2  0  0  0  0
  3  2  1  0  0  0  0
  3  4  2  0  0  0  0
  4  5  1  0  0  0  0
  4  8  1  0  0  0  0
  5  6  1  0  0  0  0
  6  7  2  0  0  0  0
  6 13  1  0  0  0  0
  8  9  2  0  0  0  0
  8  7  1  0  0  0  0
  9 23  1  0  0  0  0
 11  3  1  0  0  0  0
 12  5  1  0  0  0  0
 14 15  2  0  0  0  0
 14 19  1  0  0  0  0
 15 16  1  0  0  0  0
 16 22  1  0  0  0  0
 16 17  2  0  0  0  0
 18 17  1  0  0  0  0
 18  2  1  0  0  0  0
 19 18  2  0  0  0  0
 20 14  1  0  0  0  0
 21 15  1  0  0  0  0
 23 24  2  0  0  0  0
 24 25  1  0  0  0  0
 24 28  1  0  0  0  0
 25 29  1  0  0  0  0
 26 32  1  0  0  0  0
 26 25  2  0  0  0  0
 27 23  1  0  0  0  0
 27 26  1  0  0  0  0
 30 31  1  0  0  0  0
 31 32  2  0  0  0  0
 31 38  1  0  0  0  0
 32 33  1  0  0  0  0
 33 34  1  0  0  0  0
 33 35  2  0  0  0  0
 35 36  1  0  0  0  0
 37 35  1  0  0  0  0
 38 37  2  0  0  0  0
M  END
>  <minimizedAffinity>
-6.56458235

$$$$

 OpenBabel03252506583D

 38 42  0  0  0  0  0  0  0  0999 V2000
   40.4600   30.5890   38.0680 C   0  0  0  0  0  0  0  0  0  0  0  0
   41.4270   31.5700   37.8480 C   0  0  0  0  0  0  0  0  0  0  0  0
   41.3030   32.8560   38.3400 C   0  0  0  0  0  0  0  0  0  0  0  0
   40.1850   33.2170   39.0850 C   0  0  0  0  0  0  0  0  0  0  0  0
   39.7490   34.3480   39.6990 N   0  0  0  0  0  0  0  0  0  0  0  0
   38.5480   34.0770   40.2830 C   0  0  0  0  0  0  0  0  0  0  0  0
   38.2640   32.7760   40.0150 N   0  0  0  0  0  0  0  0  0  0  0  0
   39.2520   32.2350   39.2840 C   0  0  0  0  0  0  0  0  0  0  0  0
   39.3280   30.9560   38.8230 C   0  0  0  0  0  0  0  0  0  0  0  0
   40.5630   29.5910   37.6840 H   0  0  0  0  0  0  0  0  0  0  0  0
   42.0680   33.6140   38.1600 H   0  0  0  0  0  0  0  0  0  0  0  0
   40.2630   35.2380   39.7040 H   0  0  0  0  0  0  0  0  0  0  0  0
   37.9350   34.7480   40.8470 H   0  0  0  0  0  0  0  0  0  0  0  0
   44.8620   31.5950   36.5570 C   0  0  0  0  0  0  0  0  0  0  0  0
   44.8290   30.5690   35.6040 C   0  0  0  0  0  0  0  0  0  0  0  0
   43.6340   29.8770   35.4080 C   0  0  0  0  0  0  0  0  0  0  0  0
   42.5460   30.2350   36.1630 N   0  0  0  0  0  0  0  0  0  0  0  0
   42.6090   31.2290   37.0750 C   0  0  0  0  0  0  0  0  0  0  0  0
   43.7540   31.8990   37.2670 N   0  0  0  0  0  0  0  0  0  0  0  0
   45.7550   32.1820   36.7680 H   0  0  0  0  0  0  0  0  0  0  0  0
   45.7160   30.3450   35.0530 H   0  0  0  0  0  0  0  0  0  0  0  0
   43.5700   29.0770   34.6800 H   0  0  0  0  0  0  0  0  0  0  0  0
   38.2770   29.9720   39.0880 C   0  0  0  0  0  0  0  0  0  0  0  0
   36.9660   30.0890   38.6690 C   0  0  0  0  0  0  0  0  0  0  0  0
   36.3590   28.9180   39.1580 C   0  0  0  0  0  0  0  0  0  0  0  0
   37.3150   28.1840   39.8250 C   0  0  0  0  0  0  0  0  0  0  0  0
   38.4380   28.8630   39.7490 O   0  0  0  0  0  0  0  0  0  0  0  0
   36.4740   30.8540   38.1100 H   0  0  0  0  0  0  0  0  0  0  0  0
   35.3140   28.6050   39.0510 H   0  0  0  0  0  0  0  0  0  0  0  0
   37.2470   28.3160   42.8130 Cl  0  0  0  0  0  0  0  0  0  0  0  0
   37.0750   26.8470   41.8680 C   0  0  0  0  0  0  0  0  0  0  0  0
   37.1220   26.9000   40.4880 C   0  0  0  0  0  0  0  0  0  0  0  0
   36.9880   25.7580   39.7270 C   0  0  0  0  0  0  0  0  0  0  0  0
   37.0240   25.7900   38.6520 H   0  0  0  0  0  0  0  0  0  0  0  0
   36.8040   24.5340   40.3390 C   0  0  0  0  0  0  0  0  0  0  0  0
   36.7000   23.6370   39.7410 H   0  0  0  0  0  0  0  0  0  0  0  0
   36.7620   24.5120   41.7180 C   0  0  0  0  0  3  0  0  0  0  0  0
   36.8910   25.6340   42.5210 C   0  0  0  0  0  3  0  0  0  0  0  0
  1  9  1  0  0  0  0
  2  1  2  0  0  0  0
  2  3  1  0  0  0  0
  3  4  2  0  0  0  0
  4  8  1  0  0  0  0
  4  5  1  0  0  0  0
  5 12  1  0  0  0  0
  5  6  1  0  0  0  0
  6 13  1  0  0  0  0
  7  6  2  0  0  0  0
  8  7  1  0  0  0  0
  9 23  1  0  0  0  0
  9  8  2  0  0  0  0
 10  1  1  0  0  0  0
 11  3  1  0  0  0  0
 14 20  1  0  0  0  0
 14 19  1  0  0  0  0
 15 14  2  0  0  0  0
 16 15  1  0  0  0  0
 16 17  2  0  0  0  0
 17 18  1  0  0  0  0
 18 19  2  0  0  0  0
 18  2  1  0  0  0  0
 21 15  1  0  0  0  0
 22 16  1  0  0  0  0
 23 27  1  0  0  0  0
 24 23  2  0  0  0  0
 24 25  1  0  0  0  0
 25 26  2  0  0  0  0
 26 32  1  0  0  0  0
 27 26  1  0  0  0  0
 28 24  1  0  0  0  0
 29 25  1  0  0  0  0
 31 38  1  0  0  0  0
 31 30  1  0  0  0  0
 32 31  2  0  0  0  0
 33 35  2  0  0  0  0
 33 32  1  0  0  0  0
 34 33  1  0  0  0  0
 35 37  1  0  0  0  0
 36 35  1  0  0  0  0
 37 38  2  0  0  0  0
M  END
>  <minimizedAffinity>
-6.44872427

$$$$

 OpenBabel03252506583D

 38 42  0  0  0  0  0  0  0  0999 V2000
   34.2820   28.8160   38.0560 C   0  0  0  0  0  0  0  0  0  0  0  0
   33.9210   29.0190   36.7240 C   0  0  0  0  0  0  0  0  0  0  0  0
   34.8140   28.8620   35.6810 C   0  0  0  0  0  0  0  0  0  0  0  0
   36.1300   28.4890   35.9350 C   0  0  0  0  0  0  0  0  0  0  0  0
   37.2370   28.2530   35.1830 N   0  0  0  0  0  0  0  0  0  0  0  0
   38.2550   27.9140   36.0230 C   0  0  0  0  0  0  0  0  0  0  0  0
   37.7540   27.9480   37.2840 N   0  0  0  0  0  0  0  0  0  0  0  0
   36.4580   28.2970   37.2510 C   0  0  0  0  0  0  0  0  0  0  0  0
   35.6160   28.4380   38.3110 C   0  0  0  0  0  0  0  0  0  0  0  0
   33.5830   28.9380   38.8620 H   0  0  0  0  0  0  0  0  0  0  0  0
   34.5170   29.0240   34.6430 H   0  0  0  0  0  0  0  0  0  0  0  0
   37.2660   28.3260   34.1580 H   0  0  0  0  0  0  0  0  0  0  0  0
   39.2610   27.6650   35.7550 H   0  0  0  0  0  0  0  0  0  0  0  0
   30.3870   29.9120   37.1450 C   0  0  0  0  0  0  0  0  0  0  0  0
   29.9790   30.1440   35.8250 C   0  0  0  0  0  0  0  0  0  0  0  0
   30.9140   29.9930   34.8000 C   0  0  0  0  0  0  0  0  0  0  0  0
   32.1910   29.6250   35.1370 N   0  0  0  0  0  0  0  0  0  0  0  0
   32.5550   29.4080   36.4200 C   0  0  0  0  0  0  0  0  0  0  0  0
   31.6600   29.5510   37.4090 N   0  0  0  0  0  0  0  0  0  0  0  0
   29.7180   30.0080   37.9990 H   0  0  0  0  0  0  0  0  0  0  0  0
   28.9670   30.4280   35.6370 H   0  0  0  0  0  0  0  0  0  0  0  0
   30.6350   30.1640   33.7670 H   0  0  0  0  0  0  0  0  0  0  0  0
   36.0580   28.2100   39.6880 C   0  0  0  0  0  0  0  0  0  0  0  0
   35.5400   28.8490   40.7980 C   0  0  0  0  0  0  0  0  0  0  0  0
   36.2750   28.3030   41.8660 C   0  0  0  0  0  0  0  0  0  0  0  0
   37.1690   27.3910   41.3500 C   0  0  0  0  0  0  0  0  0  0  0  0
   36.9930   27.3780   40.0480 O   0  0  0  0  0  0  0  0  0  0  0  0
   34.7710   29.5850   40.8880 H   0  0  0  0  0  0  0  0  0  0  0  0
   36.1850   28.5330   42.9330 H   0  0  0  0  0  0  0  0  0  0  0  0
   36.8240   24.4330   41.0700 Cl  0  0  0  0  0  0  0  0  0  0  0  0
   38.0590   25.2120   42.0440 C   0  0  0  0  0  0  0  0  0  0  0  0
   38.1280   26.5910   42.1030 C   0  0  0  0  0  0  0  0  0  0  0  0
   39.0910   27.2240   42.8620 C   0  0  0  0  0  0  0  0  0  0  0  0
   39.1510   28.2970   42.9130 H   0  0  0  0  0  0  0  0  0  0  0  0
   40.0060   26.4810   43.5800 C   0  0  0  0  0  0  0  0  0  0  0  0
   40.7610   26.9780   44.1770 H   0  0  0  0  0  0  0  0  0  0  0  0
   39.9120   25.1070   43.5030 C   0  0  0  0  0  3  0  0  0  0  0  0
   38.9620   24.4300   42.7530 C   0  0  0  0  0  3  0  0  0  0  0  0
  1  9  1  0  0  0  0
  1 10  1  0  0  0  0
  2  1  2  0  0  0  0
  3  4  2  0  0  0  0
  3  2  1  0  0  0  0
  4  8  1  0  0  0  0
  5  4  1  0  0  0  0
  5  6  1  0  0  0  0
  6  7  2  0  0  0  0
  8  7  1  0  0  0  0
  8  9  2  0  0  0  0
  9 23  1  0  0  0  0
 11  3  1  0  0  0  0
 12  5  1  0  0  0  0
 13  6  1  0  0  0  0
 14 19  1  0  0  0  0
 14 20  1  0  0  0  0
 15 14  2  0  0  0  0
 16 17  2  0  0  0  0
 16 15  1  0  0  0  0
 17 18  1  0  0  0  0
 18  2  1  0  0  0  0
 18 19  2  0  0  0  0
 21 15  1  0  0  0  0
 22 16  1  0  0  0  0
 23 27  1  0  0  0  0
 23 24  2  0  0  0  0
 24 28  1  0  0  0  0
 24 25  1  0  0  0  0
 25 29  1  0  0  0  0
 26 25  2  0  0  0  0
 26 32  1  0  0  0  0
 27 26  1  0  0  0  0
 30 31  1  0  0  0  0
 31 32  2  0  0  0  0
 31 38  1  0  0  0  0
 32 33  1  0  0  0  0
 33 34  1  0  0  0  0
 33 35  2  0  0  0  0
 35 36  1  0  0  0  0
 37 35  1  0  0  0  0
 38 37  2  0  0  0  0
M  END
>  <minimizedAffinity>
-6.44116402

$$$$

 OpenBabel03252506583D

 38 42  0  0  0  0  0  0  0  0999 V2000
   34.1410   28.8270   37.9900 C   0  0  0  0  0  0  0  0  0  0  0  0
   33.7600   29.0510   36.6660 C   0  0  0  0  0  0  0  0  0  0  0  0
   34.6380   28.9100   35.6080 C   0  0  0  0  0  0  0  0  0  0  0  0
   35.9580   28.5320   35.8370 C   0  0  0  0  0  0  0  0  0  0  0  0
   37.0530   28.3060   35.0650 N   0  0  0  0  0  0  0  0  0  0  0  0
   38.0830   27.9520   35.8850 C   0  0  0  0  0  0  0  0  0  0  0  0
   37.6000   27.9660   37.1540 N   0  0  0  0  0  0  0  0  0  0  0  0
   36.3040   28.3180   37.1450 C   0  0  0  0  0  0  0  0  0  0  0  0
   35.4780   28.4430   38.2190 C   0  0  0  0  0  0  0  0  0  0  0  0
   33.4540   28.9370   38.8080 H   0  0  0  0  0  0  0  0  0  0  0  0
   34.3260   29.0900   34.5780 H   0  0  0  0  0  0  0  0  0  0  0  0
   37.0660   28.3960   34.0410 H   0  0  0  0  0  0  0  0  0  0  0  0
   39.0840   27.7060   35.5980 H   0  0  0  0  0  0  0  0  0  0  0  0
   30.2450   29.9790   37.1570 C   0  0  0  0  0  0  0  0  0  0  0  0
   29.8070   30.1950   35.8430 C   0  0  0  0  0  0  0  0  0  0  0  0
   30.7170   30.0230   34.8000 C   0  0  0  0  0  0  0  0  0  0  0  0
   31.9980   29.6490   35.1120 N   0  0  0  0  0  0  0  0  0  0  0  0
   32.3910   29.4470   36.3890 C   0  0  0  0  0  0  0  0  0  0  0  0
   31.5210   29.6110   37.3970 N   0  0  0  0  0  0  0  0  0  0  0  0
   29.5960   30.0920   38.0260 H   0  0  0  0  0  0  0  0  0  0  0  0
   28.7930   30.4850   35.6750 H   0  0  0  0  0  0  0  0  0  0  0  0
   30.4160   30.1810   33.7710 H   0  0  0  0  0  0  0  0  0  0  0  0
   35.9400   28.1920   39.5860 C   0  0  0  0  0  0  0  0  0  0  0  0
   35.4900   28.8660   40.7050 C   0  0  0  0  0  0  0  0  0  0  0  0
   36.2170   28.2790   41.7570 C   0  0  0  0  0  0  0  0  0  0  0  0
   37.0390   27.3110   41.2230 C   0  0  0  0  0  0  0  0  0  0  0  0
   36.8300   27.3050   39.9260 O   0  0  0  0  0  0  0  0  0  0  0  0
   34.7720   29.6490   40.8110 H   0  0  0  0  0  0  0  0  0  0  0  0
   36.1690   28.5180   42.8250 H   0  0  0  0  0  0  0  0  0  0  0  0
   39.0930   28.7760   42.8320 Cl  0  0  0  0  0  0  0  0  0  0  0  0
   38.9550   27.0300   42.7310 C   0  0  0  0  0  0  0  0  0  0  0  0
   37.9660   26.4560   41.9550 C   0  0  0  0  0  0  0  0  0  0  0  0
   37.8400   25.0850   41.8620 C   0  0  0  0  0  0  0  0  0  0  0  0
   37.0720   24.6300   41.2600 H   0  0  0  0  0  0  0  0  0  0  0  0
   38.7080   24.2610   42.5490 C   0  0  0  0  0  0  0  0  0  0  0  0
   38.6100   23.1850   42.4750 H   0  0  0  0  0  0  0  0  0  0  0  0
   39.6860   24.8620   43.3140 C   0  0  0  0  0  3  0  0  0  0  0  0
   39.8480   26.2330   43.4370 C   0  0  0  0  0  3  0  0  0  0  0  0
  1  9  1  0  0  0  0
  1 10  1  0  0  0  0
  2  1  2  0  0  0  0
  3  4  2  0  0  0  0
  3  2  1  0  0  0  0
  4  8  1  0  0  0  0
  5  4  1  0  0  0  0
  5  6  1  0  0  0  0
  6  7  2  0  0  0  0
  8  7  1  0  0  0  0
  8  9  2  0  0  0  0
  9 23  1  0  0  0  0
 11  3  1  0  0  0  0
 12  5  1  0  0  0  0
 13  6  1  0  0  0  0
 14 19  1  0  0  0  0
 14 20  1  0  0  0  0
 15 14  2  0  0  0  0
 16 17  2  0  0  0  0
 16 15  1  0  0  0  0
 17 18  1  0  0  0  0
 18  2  1  0  0  0  0
 18 19  2  0  0  0  0
 21 15  1  0  0  0  0
 22 16  1  0  0  0  0
 23 27  1  0  0  0  0
 23 24  2  0  0  0  0
 24 28  1  0  0  0  0
 24 25  1  0  0  0  0
 25 29  1  0  0  0  0
 26 25  2  0  0  0  0
 26 32  1  0  0  0  0
 27 26  1  0  0  0  0
 31 30  1  0  0  0  0
 31 38  1  0  0  0  0
 32 31  2  0  0  0  0
 33 32  1  0  0  0  0
 33 35  2  0  0  0  0
 34 33  1  0  0  0  0
 35 37  1  0  0  0  0
 36 35  1  0  0  0  0
 37 38  2  0  0  0  0
M  END
>  <minimizedAffinity>
-6.3904171

$$$$

 OpenBabel03252506583D

 38 42  0  0  0  0  0  0  0  0999 V2000
   41.4010   31.6060   40.2940 C   0  0  0  0  0  0  0  0  0  0  0  0
   41.8990   32.4860   39.3310 C   0  0  0  0  0  0  0  0  0  0  0  0
   41.2140   32.7720   38.1650 C   0  0  0  0  0  0  0  0  0  0  0  0
   39.9810   32.1790   37.9120 C   0  0  0  0  0  0  0  0  0  0  0  0
   39.0660   32.2280   36.9080 N   0  0  0  0  0  0  0  0  0  0  0  0
   38.0320   31.4040   37.2380 C   0  0  0  0  0  0  0  0  0  0  0  0
   38.3310   30.8590   38.4460 N   0  0  0  0  0  0  0  0  0  0  0  0
   39.5180   31.3210   38.8730 C   0  0  0  0  0  0  0  0  0  0  0  0
   40.1520   31.0070   40.0350 C   0  0  0  0  0  0  0  0  0  0  0  0
   41.9380   31.3890   41.1990 H   0  0  0  0  0  0  0  0  0  0  0  0
   41.6160   33.4620   37.4210 H   0  0  0  0  0  0  0  0  0  0  0  0
   39.1680   32.8000   36.0600 H   0  0  0  0  0  0  0  0  0  0  0  0
   37.1480   31.2130   36.6670 H   0  0  0  0  0  0  0  0  0  0  0  0
   44.7450   34.0470   41.0400 C   0  0  0  0  0  0  0  0  0  0  0  0
   45.6120   34.3310   39.9760 C   0  0  0  0  0  0  0  0  0  0  0  0
   45.2180   33.9860   38.6830 C   0  0  0  0  0  0  0  0  0  0  0  0
   43.9970   33.3840   38.5160 N   0  0  0  0  0  0  0  0  0  0  0  0
   43.1830   33.1240   39.5620 C   0  0  0  0  0  0  0  0  0  0  0  0
   43.5560   33.4530   40.8070 N   0  0  0  0  0  0  0  0  0  0  0  0
   44.9800   34.2850   42.0770 H   0  0  0  0  0  0  0  0  0  0  0  0
   46.5490   34.8010   40.1810 H   0  0  0  0  0  0  0  0  0  0  0  0
   45.8620   34.1890   37.8350 H   0  0  0  0  0  0  0  0  0  0  0  0
   39.5760   30.0750   41.0060 C   0  0  0  0  0  0  0  0  0  0  0  0
   39.1330   30.4260   42.2670 C   0  0  0  0  0  0  0  0  0  0  0  0
   38.6750   29.2100   42.8060 C   0  0  0  0  0  0  0  0  0  0  0  0
   38.8630   28.2240   41.8620 C   0  0  0  0  0  0  0  0  0  0  0  0
   39.4020   28.8000   40.8110 O   0  0  0  0  0  0  0  0  0  0  0  0
   39.1170   31.3690   42.7680 H   0  0  0  0  0  0  0  0  0  0  0  0
   38.2390   29.0310   43.7950 H   0  0  0  0  0  0  0  0  0  0  0  0
   41.0600   26.5190   42.9660 Cl  0  0  0  0  0  0  0  0  0  0  0  0
   39.4720   25.9340   42.5000 C   0  0  0  0  0  0  0  0  0  0  0  0
   38.5290   26.8110   41.9990 C   0  0  0  0  0  0  0  0  0  0  0  0
   37.2750   26.3720   41.6280 C   0  0  0  0  0  0  0  0  0  0  0  0
   36.5350   27.0490   41.2360 H   0  0  0  0  0  0  0  0  0  0  0  0
   36.9430   25.0380   41.7510 C   0  0  0  0  0  0  0  0  0  0  0  0
   35.9580   24.6940   41.4590 H   0  0  0  0  0  0  0  0  0  0  0  0
   37.9040   24.1860   42.2530 C   0  0  0  0  0  3  0  0  0  0  0  0
   39.1750   24.5840   42.6400 C   0  0  0  0  0  3  0  0  0  0  0  0
  1 10  1  0  0  0  0
  2 18  1  0  0  0  0
  2  1  2  0  0  0  0
  3  2  1  0  0  0  0
  4  3  2  0  0  0  0
  4  8  1  0  0  0  0
  5  6  1  0  0  0  0
  5  4  1  0  0  0  0
  6  7  2  0  0  0  0
  7  8  1  0  0  0  0
  8  9  2  0  0  0  0
  9  1  1  0  0  0  0
  9 23  1  0  0  0  0
 11  3  1  0  0  0  0
 12  5  1  0  0  0  0
 13  6  1  0  0  0  0
 14 20  1  0  0  0  0
 15 21  1  0  0  0  0
 15 14  2  0  0  0  0
 16 15  1  0  0  0  0
 17 16  2  0  0  0  0
 17 18  1  0  0  0  0
 18 19  2  0  0  0  0
 19 14  1  0  0  0  0
 22 16  1  0  0  0  0
 23 24  2  0  0  0  0
 24 28  1  0  0  0  0
 24 25  1  0  0  0  0
 25 29  1  0  0  0  0
 26 32  1  0  0  0  0
 26 25  2  0  0  0  0
 27 23  1  0  0  0  0
 27 26  1  0  0  0  0
 31 38  1  0  0  0  0
 31 30  1  0  0  0  0
 32 31  2  0  0  0  0
 33 35  2  0  0  0  0
 33 32  1  0  0  0  0
 34 33  1  0  0  0  0
 35 37  1  0  0  0  0
 36 35  1  0  0  0  0
 37 38  2  0  0  0  0
M  END
>  <minimizedAffinity>
-6.31138754

$$$$

 OpenBabel03252506583D

 38 42  0  0  0  0  0  0  0  0999 V2000
   36.5000   30.5380   38.6570 C   0  0  0  0  0  0  0  0  0  0  0  0
   35.6140   29.4610   38.7170 C   0  0  0  0  0  0  0  0  0  0  0  0
   35.5020   28.6550   39.8350 C   0  0  0  0  0  0  0  0  0  0  0  0
   36.2850   28.9010   40.9580 C   0  0  0  0  0  0  0  0  0  0  0  0
   36.4320   28.3350   42.1850 N   0  0  0  0  0  0  0  0  0  0  0  0
   37.3800   29.0390   42.8650 C   0  0  0  0  0  0  0  0  0  0  0  0
   37.8020   30.0320   42.0410 N   0  0  0  0  0  0  0  0  0  0  0  0
   37.1450   29.9640   40.8710 C   0  0  0  0  0  0  0  0  0  0  0  0
   37.2920   30.7850   39.7960 C   0  0  0  0  0  0  0  0  0  0  0  0
   36.5820   31.1600   37.7860 H   0  0  0  0  0  0  0  0  0  0  0  0
   34.8040   27.8160   39.8670 H   0  0  0  0  0  0  0  0  0  0  0  0
   35.9020   27.5170   42.5100 H   0  0  0  0  0  0  0  0  0  0  0  0
   37.7330   28.8580   43.8590 H   0  0  0  0  0  0  0  0  0  0  0  0
   32.6850   28.6440   36.6650 C   0  0  0  0  0  0  0  0  0  0  0  0
   33.2210   28.6350   35.3700 C   0  0  0  0  0  0  0  0  0  0  0  0
   34.5800   28.9080   35.2080 C   0  0  0  0  0  0  0  0  0  0  0  0
   35.3260   29.1730   36.3270 N   0  0  0  0  0  0  0  0  0  0  0  0
   34.7800   29.1740   37.5630 C   0  0  0  0  0  0  0  0  0  0  0  0
   33.4750   28.9130   37.7260 N   0  0  0  0  0  0  0  0  0  0  0  0
   31.6350   28.4410   36.8740 H   0  0  0  0  0  0  0  0  0  0  0  0
   32.5790   28.4210   34.5440 H   0  0  0  0  0  0  0  0  0  0  0  0
   35.0300   28.9110   34.2220 H   0  0  0  0  0  0  0  0  0  0  0  0
   38.2410   31.9010   39.7960 C   0  0  0  0  0  0  0  0  0  0  0  0
   37.9520   33.1800   40.2330 C   0  0  0  0  0  0  0  0  0  0  0  0
   39.1590   33.8740   40.0390 C   0  0  0  0  0  0  0  0  0  0  0  0
   40.0800   32.9960   39.5110 C   0  0  0  0  0  0  0  0  0  0  0  0
   39.4750   31.8360   39.3900 O   0  0  0  0  0  0  0  0  0  0  0  0
   37.0530   33.5990   40.6290 H   0  0  0  0  0  0  0  0  0  0  0  0
   39.3740   34.9270   40.2540 H   0  0  0  0  0  0  0  0  0  0  0  0
   42.0880   32.3450   41.6310 Cl  0  0  0  0  0  0  0  0  0  0  0  0
   42.4710   33.0310   40.0620 C   0  0  0  0  0  0  0  0  0  0  0  0
   41.4620   33.2930   39.1540 C   0  0  0  0  0  0  0  0  0  0  0  0
   41.7420   33.8320   37.9160 C   0  0  0  0  0  0  0  0  0  0  0  0
   40.9620   34.0400   37.2030 H   0  0  0  0  0  0  0  0  0  0  0  0
   43.0450   34.1200   37.5630 C   0  0  0  0  0  0  0  0  0  0  0  0
   43.2640   34.5440   36.5910 H   0  0  0  0  0  0  0  0  0  0  0  0
   44.0300   33.8490   38.4890 C   0  0  0  0  0  3  0  0  0  0  0  0
   43.7950   33.3070   39.7440 C   0  0  0  0  0  3  0  0  0  0  0  0
  1  2  2  0  0  0  0
  1  9  1  0  0  0  0
  2  3  1  0  0  0  0
  3 11  1  0  0  0  0
  3  4  2  0  0  0  0
  4  5  1  0  0  0  0
  5 12  1  0  0  0  0
  5  6  1  0  0  0  0
  6 13  1  0  0  0  0
  7  6  2  0  0  0  0
  8  4  1  0  0  0  0
  8  7  1  0  0  0  0
  9 23  1  0  0  0  0
  9  8  2  0  0  0  0
 10  1  1  0  0  0  0
 14 20  1  0  0  0  0
 14 19  1  0  0  0  0
 15 14  2  0  0  0  0
 16 15  1  0  0  0  0
 16 17  2  0  0  0  0
 17 18  1  0  0  0  0
 18 19  2  0  0  0  0
 18  2  1  0  0  0  0
 21 15  1  0  0  0  0
 22 16  1  0  0  0  0
 23 24  2  0  0  0  0
 24 28  1  0  0  0  0
 25 24  1  0  0  0  0
 25 29  1  0  0  0  0
 26 25  2  0  0  0  0
 27 26  1  0  0  0  0
 27 23  1  0  0  0  0
 31 30  1  0  0  0  0
 32 26  1  0  0  0  0
 32 31  2  0  0  0  0
 33 32  1  0  0  0  0
 34 33  1  0  0  0  0
 35 33  2  0  0  0  0
 35 37  1  0  0  0  0
 36 35  1  0  0  0  0
 37 38  2  0  0  0  0
 38 31  1  0  0  0  0
M  END
>  <minimizedAffinity>
-6.30600357

$$$$

 OpenBabel03252506583D

 38 42  0  0  0  0  0  0  0  0999 V2000
   40.7290   31.1770   41.9180 C   0  0  0  0  0  0  0  0  0  0  0  0
   41.2480   32.3510   41.3720 C   0  0  0  0  0  0  0  0  0  0  0  0
   40.5510   33.1120   40.4510 C   0  0  0  0  0  0  0  0  0  0  0  0
   39.2840   32.7190   40.0320 C   0  0  0  0  0  0  0  0  0  0  0  0
   38.3490   33.2050   39.1740 N   0  0  0  0  0  0  0  0  0  0  0  0
   37.2820   32.3570   39.1870 C   0  0  0  0  0  0  0  0  0  0  0  0
   37.5810   31.3590   40.0570 N   0  0  0  0  0  0  0  0  0  0  0  0
   38.8000   31.5630   40.5840 C   0  0  0  0  0  0  0  0  0  0  0  0
   39.4450   30.7810   41.4930 C   0  0  0  0  0  0  0  0  0  0  0  0
   41.2750   30.5910   42.6340 H   0  0  0  0  0  0  0  0  0  0  0  0
   40.9700   34.0290   40.0330 H   0  0  0  0  0  0  0  0  0  0  0  0
   38.4610   34.0670   38.6260 H   0  0  0  0  0  0  0  0  0  0  0  0
   36.3760   32.4470   38.6250 H   0  0  0  0  0  0  0  0  0  0  0  0
   44.3560   34.2900   41.5830 C   0  0  0  0  0  0  0  0  0  0  0  0
   45.0640   33.6100   42.5830 C   0  0  0  0  0  0  0  0  0  0  0  0
   44.4740   32.4940   43.1780 C   0  0  0  0  0  0  0  0  0  0  0  0
   43.2260   32.1170   42.7530 N   0  0  0  0  0  0  0  0  0  0  0  0
   42.5680   32.7930   41.7860 C   0  0  0  0  0  0  0  0  0  0  0  0
   43.1300   33.8660   41.2110 N   0  0  0  0  0  0  0  0  0  0  0  0
   44.7470   35.1680   41.0710 H   0  0  0  0  0  0  0  0  0  0  0  0
   46.0320   33.9610   42.8640 H   0  0  0  0  0  0  0  0  0  0  0  0
   44.9900   31.9430   43.9550 H   0  0  0  0  0  0  0  0  0  0  0  0
   38.8440   29.5570   42.0280 C   0  0  0  0  0  0  0  0  0  0  0  0
   38.2240   29.4580   43.2590 C   0  0  0  0  0  0  0  0  0  0  0  0
   37.8180   28.1130   43.3150 C   0  0  0  0  0  0  0  0  0  0  0  0
   38.2070   27.4970   42.1460 C   0  0  0  0  0  0  0  0  0  0  0  0
   38.8130   28.4080   41.4180 O   0  0  0  0  0  0  0  0  0  0  0  0
   38.0620   30.1860   44.0230 H   0  0  0  0  0  0  0  0  0  0  0  0
   37.2860   27.6020   44.1250 H   0  0  0  0  0  0  0  0  0  0  0  0
   40.1390   25.5680   43.3680 Cl  0  0  0  0  0  0  0  0  0  0  0  0
   38.8260   25.1270   42.2920 C   0  0  0  0  0  0  0  0  0  0  0  0
   37.9900   26.1020   41.7820 C   0  0  0  0  0  0  0  0  0  0  0  0
   36.9510   25.7770   40.9340 C   0  0  0  0  0  0  0  0  0  0  0  0
   36.2950   26.5300   40.5330 H   0  0  0  0  0  0  0  0  0  0  0  0
   36.7310   24.4610   40.5800 C   0  0  0  0  0  0  0  0  0  0  0  0
   35.9160   24.2060   39.9140 H   0  0  0  0  0  0  0  0  0  0  0  0
   37.5820   23.5100   41.1040 C   0  0  0  0  0  3  0  0  0  0  0  0
   38.6370   23.7910   41.9590 C   0  0  0  0  0  3  0  0  0  0  0  0
  1 10  1  0  0  0  0
  2 18  1  0  0  0  0
  2  1  2  0  0  0  0
  3  2  1  0  0  0  0
  4  3  2  0  0  0  0
  4  8  1  0  0  0  0
  5  6  1  0  0  0  0
  5  4  1  0  0  0  0
  6  7  2  0  0  0  0
  7  8  1  0  0  0  0
  8  9  2  0  0  0  0
  9  1  1  0  0  0  0
  9 23  1  0  0  0  0
 11  3  1  0  0  0  0
 12  5  1  0  0  0  0
 13  6  1  0  0  0  0
 14 15  1  0  0  0  0
 15 21  1  0  0  0  0
 15 16  2  0  0  0  0
 16 22  1  0  0  0  0
 17 16  1  0  0  0  0
 18 17  2  0  0  0  0
 19 14  2  0  0  0  0
 19 18  1  0  0  0  0
 20 14  1  0  0  0  0
 23 24  2  0  0  0  0
 24 25  1  0  0  0  0
 24 28  1  0  0  0  0
 25 29  1  0  0  0  0
 26 25  2  0  0  0  0
 27 23  1  0  0  0  0
 27 26  1  0  0  0  0
 31 30  1  0  0  0  0
 32 26  1  0  0  0  0
 32 31  2  0  0  0  0
 33 32  1  0  0  0  0
 34 33  1  0  0  0  0
 35 33  2  0  0  0  0
 35 37  1  0  0  0  0
 36 35  1  0  0  0  0
 37 38  2  0  0  0  0
 38 31  1  0  0  0  0
M  END
>  <minimizedAffinity>
-6.29758358

$$$$

 OpenBabel03252506583D

 38 42  0  0  0  0  0  0  0  0999 V2000
   36.8450   25.3880   40.4560 C   0  0  0  0  0  0  0  0  0  0  0  0
   37.1380   24.0320   40.3050 C   0  0  0  0  0  0  0  0  0  0  0  0
   38.1140   23.3970   41.0510 C   0  0  0  0  0  0  0  0  0  0  0  0
   38.8490   24.1080   41.9940 C   0  0  0  0  0  0  0  0  0  0  0  0
   39.8470   23.8180   42.8700 N   0  0  0  0  0  0  0  0  0  0  0  0
   40.1630   24.9600   43.5440 C   0  0  0  0  0  0  0  0  0  0  0  0
   39.3500   25.9370   43.0680 N   0  0  0  0  0  0  0  0  0  0  0  0
   38.5410   25.4370   42.1210 C   0  0  0  0  0  0  0  0  0  0  0  0
   37.5900   26.1060   41.4120 C   0  0  0  0  0  0  0  0  0  0  0  0
   36.0840   25.8750   39.8750 H   0  0  0  0  0  0  0  0  0  0  0  0
   38.3330   22.3360   40.9210 H   0  0  0  0  0  0  0  0  0  0  0  0
   40.2670   22.8870   42.9790 H   0  0  0  0  0  0  0  0  0  0  0  0
   40.9060   25.0780   44.3050 H   0  0  0  0  0  0  0  0  0  0  0  0
   36.3370   22.0060   37.3540 C   0  0  0  0  0  0  0  0  0  0  0  0
   34.9580   21.7990   37.4990 C   0  0  0  0  0  0  0  0  0  0  0  0
   34.3130   22.3540   38.6050 C   0  0  0  0  0  0  0  0  0  0  0  0
   35.0620   23.0760   39.4980 N   0  0  0  0  0  0  0  0  0  0  0  0
   36.3900   23.2580   39.3300 C   0  0  0  0  0  0  0  0  0  0  0  0
   37.0160   22.7270   38.2700 N   0  0  0  0  0  0  0  0  0  0  0  0
   36.9120   21.6060   36.5190 H   0  0  0  0  0  0  0  0  0  0  0  0
   34.4390   21.2250   36.7630 H   0  0  0  0  0  0  0  0  0  0  0  0
   33.2480   22.2150   38.7510 H   0  0  0  0  0  0  0  0  0  0  0  0
   37.3310   27.5320   41.6190 C   0  0  0  0  0  0  0  0  0  0  0  0
   36.5350   28.0510   42.6220 C   0  0  0  0  0  0  0  0  0  0  0  0
   36.5970   29.4390   42.4080 C   0  0  0  0  0  0  0  0  0  0  0  0
   37.4070   29.6700   41.3170 C   0  0  0  0  0  0  0  0  0  0  0  0
   37.8150   28.4960   40.8900 O   0  0  0  0  0  0  0  0  0  0  0  0
   35.9810   27.5680   43.3970 H   0  0  0  0  0  0  0  0  0  0  0  0
   36.1060   30.2330   42.9810 H   0  0  0  0  0  0  0  0  0  0  0  0
   39.8770   30.9250   42.4430 Cl  0  0  0  0  0  0  0  0  0  0  0  0
   38.8710   31.6350   41.1930 C   0  0  0  0  0  0  0  0  0  0  0  0
   37.7480   30.9670   40.7440 C   0  0  0  0  0  0  0  0  0  0  0  0
   36.9430   31.5060   39.7620 C   0  0  0  0  0  0  0  0  0  0  0  0
   36.0660   30.9930   39.4080 H   0  0  0  0  0  0  0  0  0  0  0  0
   37.2510   32.7330   39.2100 C   0  0  0  0  0  0  0  0  0  0  0  0
   36.6190   33.1570   38.4400 H   0  0  0  0  0  0  0  0  0  0  0  0
   38.3780   33.3770   39.6780 C   0  0  0  0  0  3  0  0  0  0  0  0
   39.2140   32.8720   40.6610 C   0  0  0  0  0  3  0  0  0  0  0  0
  1  9  1  0  0  0  0
  2  1  2  0  0  0  0
  2  3  1  0  0  0  0
  3  4  2  0  0  0  0
  4  8  1  0  0  0  0
  4  5  1  0  0  0  0
  5 12  1  0  0  0  0
  5  6  1  0  0  0  0
  6 13  1  0  0  0  0
  7  6  2  0  0  0  0
  8  7  1  0  0  0  0
  9 23  1  0  0  0  0
  9  8  2  0  0  0  0
 10  1  1  0  0  0  0
 11  3  1  0  0  0  0
 14 15  2  0  0  0  0
 14 19  1  0  0  0  0
 15 16  1  0  0  0  0
 16 22  1  0  0  0  0
 16 17  2  0  0  0  0
 18 17  1  0  0  0  0
 18  2  1  0  0  0  0
 19 18  2  0  0  0  0
 20 14  1  0  0  0  0
 21 15  1  0  0  0  0
 23 24  2  0  0  0  0
 24 28  1  0  0  0  0
 25 24  1  0  0  0  0
 25 29  1  0  0  0  0
 26 25  2  0  0  0  0
 27 26  1  0  0  0  0
 27 23  1  0  0  0  0
 31 30  1  0  0  0  0
 32 31  1  0  0  0  0
 32 26  1  0  0  0  0
 33 32  2  0  0  0  0
 34 33  1  0  0  0  0
 35 37  2  0  0  0  0
 35 33  1  0  0  0  0
 36 35  1  0  0  0  0
 37 38  1  0  0  0  0
 38 31  2  0  0  0  0
M  END
>  <minimizedAffinity>
-6.1105175

$$$$

 OpenBabel03252506583D

 38 42  0  0  0  0  0  0  0  0999 V2000
   37.1790   27.2060   39.4050 C   0  0  0  0  0  0  0  0  0  0  0  0
   36.9350   26.0260   40.1090 C   0  0  0  0  0  0  0  0  0  0  0  0
   36.9530   25.9690   41.4900 C   0  0  0  0  0  0  0  0  0  0  0  0
   37.2220   27.1130   42.2350 C   0  0  0  0  0  0  0  0  0  0  0  0
   37.3180   27.4120   43.5570 N   0  0  0  0  0  0  0  0  0  0  0  0
   37.6130   28.7380   43.6710 C   0  0  0  0  0  0  0  0  0  0  0  0
   37.6930   29.2330   42.4090 N   0  0  0  0  0  0  0  0  0  0  0  0
   37.4580   28.2560   41.5190 C   0  0  0  0  0  0  0  0  0  0  0  0
   37.4500   28.3630   40.1620 C   0  0  0  0  0  0  0  0  0  0  0  0
   37.1620   27.2430   38.3320 H   0  0  0  0  0  0  0  0  0  0  0  0
   36.7610   25.0380   42.0270 H   0  0  0  0  0  0  0  0  0  0  0  0
   37.1850   26.7300   44.3150 H   0  0  0  0  0  0  0  0  0  0  0  0
   37.7550   29.2950   44.5730 H   0  0  0  0  0  0  0  0  0  0  0  0
   36.9030   23.5210   37.4280 C   0  0  0  0  0  0  0  0  0  0  0  0
   36.1000   22.5110   37.9730 C   0  0  0  0  0  0  0  0  0  0  0  0
   35.5740   22.6930   39.2520 C   0  0  0  0  0  0  0  0  0  0  0  0
   35.8720   23.8550   39.9160 N   0  0  0  0  0  0  0  0  0  0  0  0
   36.6510   24.8120   39.3640 C   0  0  0  0  0  0  0  0  0  0  0  0
   37.1580   24.6430   38.1340 N   0  0  0  0  0  0  0  0  0  0  0  0
   37.3510   23.4540   36.4360 H   0  0  0  0  0  0  0  0  0  0  0  0
   35.9100   21.6310   37.3980 H   0  0  0  0  0  0  0  0  0  0  0  0
   34.9490   21.9340   39.7070 H   0  0  0  0  0  0  0  0  0  0  0  0
   37.7150   29.6330   39.4830 C   0  0  0  0  0  0  0  0  0  0  0  0
   36.7970   30.3190   38.7110 C   0  0  0  0  0  0  0  0  0  0  0  0
   37.5080   31.4560   38.2860 C   0  0  0  0  0  0  0  0  0  0  0  0
   38.7790   31.3890   38.8140 C   0  0  0  0  0  0  0  0  0  0  0  0
   38.8420   30.2820   39.5180 O   0  0  0  0  0  0  0  0  0  0  0  0
   35.7830   30.0940   38.4600 H   0  0  0  0  0  0  0  0  0  0  0  0
   37.1540   32.2740   37.6490 H   0  0  0  0  0  0  0  0  0  0  0  0
   38.8580   33.5710   40.8590 Cl  0  0  0  0  0  0  0  0  0  0  0  0
   39.9780   33.4110   39.5180 C   0  0  0  0  0  0  0  0  0  0  0  0
   39.8500   32.3610   38.6280 C   0  0  0  0  0  0  0  0  0  0  0  0
   40.7200   32.2170   37.5680 C   0  0  0  0  0  0  0  0  0  0  0  0
   40.6270   31.4020   36.8700 H   0  0  0  0  0  0  0  0  0  0  0  0
   41.7390   33.1280   37.3780 C   0  0  0  0  0  0  0  0  0  0  0  0
   42.4220   33.0140   36.5450 H   0  0  0  0  0  0  0  0  0  0  0  0
   41.8420   34.1650   38.2810 C   0  0  0  0  0  3  0  0  0  0  0  0
   40.9920   34.3490   39.3600 C   0  0  0  0  0  3  0  0  0  0  0  0
  1  2  2  0  0  0  0
  1  9  1  0  0  0  0
  2  3  1  0  0  0  0
  3 11  1  0  0  0  0
  3  4  2  0  0  0  0
  4  5  1  0  0  0  0
  5  6  1  0  0  0  0
  5 12  1  0  0  0  0
  6 13  1  0  0  0  0
  7  6  2  0  0  0  0
  8  4  1  0  0  0  0
  8  7  1  0  0  0  0
  9  8  2  0  0  0  0
 10  1  1  0  0  0  0
 14 15  2  0  0  0  0
 14 19  1  0  0  0  0
 15 16  1  0  0  0  0
 16 22  1  0  0  0  0
 16 17  2  0  0  0  0
 18 17  1  0  0  0  0
 18  2  1  0  0  0  0
 19 18  2  0  0  0  0
 20 14  1  0  0  0  0
 21 15  1  0  0  0  0
 23 27  1  0  0  0  0
 23  9  1  0  0  0  0
 24 23  2  0  0  0  0
 25 24  1  0  0  0  0
 25 26  2  0  0  0  0
 26 27  1  0  0  0  0
 28 24  1  0  0  0  0
 29 25  1  0  0  0  0
 31 30  1  0  0  0  0
 32 26  1  0  0  0  0
 32 31  2  0  0  0  0
 33 32  1  0  0  0  0
 34 33  1  0  0  0  0
 35 33  2  0  0  0  0
 35 37  1  0  0  0  0
 36 35  1  0  0  0  0
 37 38  2  0  0  0  0
 38 31  1  0  0  0  0
M  END
>  <minimizedAffinity>
-6.05736971

$$$$
