
 OpenBabel03252506563D

 38 42  0  0  0  0  0  0  0  0999 V2000
   47.1200   31.3090   45.1720 C   0  0  0  0  0  0  0  0  0  0  0  0
   46.8100   32.6700   45.2070 C   0  0  0  0  0  0  0  0  0  0  0  0
   46.2580   33.2760   46.3200 C   0  0  0  0  0  0  0  0  0  0  0  0
   45.9900   32.5300   47.4630 C   0  0  0  0  0  0  0  0  0  0  0  0
   45.4700   32.7870   48.6920 N   0  0  0  0  0  0  0  0  0  0  0  0
   45.4580   31.6220   49.3990 C   0  0  0  0  0  0  0  0  0  0  0  0
   45.9730   30.6630   48.5870 N   0  0  0  0  0  0  0  0  0  0  0  0
   46.3040   31.1980   47.4010 C   0  0  0  0  0  0  0  0  0  0  0  0
   46.8480   30.5560   46.3310 C   0  0  0  0  0  0  0  0  0  0  0  0
   47.5500   30.8450   44.3040 H   0  0  0  0  0  0  0  0  0  0  0  0
   46.0210   34.3410   46.3320 H   0  0  0  0  0  0  0  0  0  0  0  0
   45.1520   33.7140   49.0020 H   0  0  0  0  0  0  0  0  0  0  0  0
   45.1130   31.4750   50.4010 H   0  0  0  0  0  0  0  0  0  0  0  0
   46.4290   35.1760   42.5540 C   0  0  0  0  0  0  0  0  0  0  0  0
   47.6000   34.9980   41.8060 C   0  0  0  0  0  0  0  0  0  0  0  0
   48.5120   34.0230   42.2130 C   0  0  0  0  0  0  0  0  0  0  0  0
   48.2150   33.2850   43.3290 N   0  0  0  0  0  0  0  0  0  0  0  0
   47.0770   33.4790   44.0310 C   0  0  0  0  0  0  0  0  0  0  0  0
   46.1970   34.4150   43.6440 N   0  0  0  0  0  0  0  0  0  0  0  0
   45.6690   35.9150   42.3020 H   0  0  0  0  0  0  0  0  0  0  0  0
   47.7650   35.6100   40.9470 H   0  0  0  0  0  0  0  0  0  0  0  0
   49.4290   33.8570   41.6600 H   0  0  0  0  0  0  0  0  0  0  0  0
   47.1500   29.1240   46.3580 C   0  0  0  0  0  0  0  0  0  0  0  0
   48.4210   28.5860   46.2850 C   0  0  0  0  0  0  0  0  0  0  0  0
   48.1960   27.1990   46.3490 C   0  0  0  0  0  0  0  0  0  0  0  0
   46.8380   26.9890   46.4560 C   0  0  0  0  0  0  0  0  0  0  0  0
   46.2680   28.1730   46.4570 O   0  0  0  0  0  0  0  0  0  0  0  0
   49.3770   29.0540   46.1980 H   0  0  0  0  0  0  0  0  0  0  0  0
   48.9380   26.3930   46.3230 H   0  0  0  0  0  0  0  0  0  0  0  0
   47.4520   25.4310   48.9350 Cl  0  0  0  0  0  0  0  0  0  0  0  0
   46.3740   24.9000   47.6560 C   0  0  0  0  0  0  0  0  0  0  0  0
   46.1620   25.7010   46.5510 C   0  0  0  0  0  0  0  0  0  0  0  0
   45.3190   25.3020   45.5340 C   0  0  0  0  0  0  0  0  0  0  0  0
   45.1480   25.9200   44.6700 H   0  0  0  0  0  0  0  0  0  0  0  0
   44.6710   24.0860   45.6080 C   0  0  0  0  0  0  0  0  0  0  0  0
   44.0090   23.7720   44.8100 H   0  0  0  0  0  0  0  0  0  0  0  0
   44.9030   23.3080   46.7230 C   0  0  0  0  0  3  0  0  0  0  0  0
   45.7400   23.6680   47.7670 C   0  0  0  0  0  3  0  0  0  0  0  0
  1  2  2  0  0  0  0
  1  9  1  0  0  0  0
  2  3  1  0  0  0  0
  3 11  1  0  0  0  0
  3  4  2  0  0  0  0
  4  5  1  0  0  0  0
  5 12  1  0  0  0  0
  5  6  1  0  0  0  0
  6 13  1  0  0  0  0
  7  6  2  0  0  0  0
  8  4  1  0  0  0  0
  8  7  1  0  0  0  0
  9 23  1  0  0  0  0
  9  8  2  0  0  0  0
 10  1  1  0  0  0  0
 14 19  1  0  0  0  0
 15 16  1  0  0  0  0
 15 14  2  0  0  0  0
 16 17  2  0  0  0  0
 17 18  1  0  0  0  0
 18  2  1  0  0  0  0
 19 18  2  0  0  0  0
 20 14  1  0  0  0  0
 21 15  1  0  0  0  0
 22 16  1  0  0  0  0
 23 27  1  0  0  0  0
 24 25  1  0  0  0  0
 24 23  2  0  0  0  0
 25 26  2  0  0  0  0
 26 27  1  0  0  0  0
 26 32  1  0  0  0  0
 28 24  1  0  0  0  0
 29 25  1  0  0  0  0
 31 38  1  0  0  0  0
 31 30  1  0  0  0  0
 32 31  2  0  0  0  0
 33 35  2  0  0  0  0
 33 32  1  0  0  0  0
 34 33  1  0  0  0  0
 35 37  1  0  0  0  0
 36 35  1  0  0  0  0
 37 38  2  0  0  0  0
M  END
>  <minimizedAffinity>
-5.68955183

>  <minimizedRMSD>
0.38578397

$$$$
