
 OpenBabel03242516523D

 45 48  0  0  1  0  0  0  0  0999 V2000
   47.7920   32.7780   41.7010 C   0  0  1  0  0  0  0  0  0  0  0  0
   47.4300   32.1200   40.4430 C   0  0  0  0  0  0  0  0  0  0  0  0
   48.4320   32.5960   39.3940 C   0  0  0  0  0  0  0  0  0  0  0  0
   48.1240   34.0590   39.1360 C   0  0  0  0  0  0  0  0  0  0  0  0
   48.0940   34.9070   40.3760 C   0  0  0  0  0  0  0  0  0  0  0  0
   47.6090   34.2970   41.6180 C   0  0  1  0  0  0  0  0  0  0  0  0
   48.9120   32.6790   41.8450 H   0  0  0  0  0  0  0  0  0  0  0  0
   46.4250   32.3420   40.0860 H   0  0  0  0  0  0  0  0  0  0  0  0
   47.5910   31.0170   40.5690 H   0  0  0  0  0  0  0  0  0  0  0  0
   48.2060   32.0780   38.4290 H   0  0  0  0  0  0  0  0  0  0  0  0
   49.4680   32.4400   39.7290 H   0  0  0  0  0  0  0  0  0  0  0  0
   47.1570   34.0870   38.5800 H   0  0  0  0  0  0  0  0  0  0  0  0
   48.8910   34.4560   38.4340 H   0  0  0  0  0  0  0  0  0  0  0  0
   49.1170   35.3460   40.4960 H   0  0  0  0  0  0  0  0  0  0  0  0
   47.4410   35.7900   40.1390 H   0  0  0  0  0  0  0  0  0  0  0  0
   48.2330   34.6940   42.4760 H   0  0  0  0  0  0  0  0  0  0  0  0
   45.3670   30.9240   43.9360 C   0  0  0  0  0  0  0  0  0  0  0  0
   46.0370   31.4440   42.8210 C   0  0  0  0  0  0  0  0  0  0  0  0
   47.1580   32.2750   42.9010 C   0  0  0  0  0  0  0  0  0  0  0  0
   47.5810   32.5640   44.1370 N   0  0  0  0  0  0  0  0  0  0  0  0
   46.9440   32.0700   45.2320 C   0  0  0  0  0  0  0  0  0  0  0  0
   45.8730   31.2760   45.1460 N   0  0  0  0  0  0  0  0  0  0  0  0
   44.5190   30.2980   43.7890 H   0  0  0  0  0  0  0  0  0  0  0  0
   45.6680   31.1890   41.8340 H   0  0  0  0  0  0  0  0  0  0  0  0
   47.3290   32.3360   46.2230 H   0  0  0  0  0  0  0  0  0  0  0  0
   46.2420   34.6960   41.9520 C   0  0  0  0  0  0  0  0  0  0  0  0
   45.8240   35.3000   43.1360 C   0  0  0  0  0  0  0  0  0  0  0  0
   44.4670   35.6070   43.2210 C   0  0  0  0  0  0  0  0  0  0  0  0
   43.6580   35.2960   42.1500 C   0  0  0  0  0  0  0  0  0  0  0  0
   44.0910   34.6930   40.9770 C   0  0  0  0  0  0  0  0  0  0  0  0
   45.4190   34.4010   40.9120 N   0  0  0  0  0  0  0  0  0  0  0  0
   46.5870   35.4770   43.8810 H   0  0  0  0  0  0  0  0  0  0  0  0
   44.1460   36.0720   44.1300 H   0  0  0  0  0  0  0  0  0  0  0  0
   42.6130   35.5690   42.2960 H   0  0  0  0  0  0  0  0  0  0  0  0
   43.1450   34.4080   39.9080 C   0  0  0  0  0  0  0  0  0  0  0  0
   42.6640   35.3740   39.2660 O   0  0  0  0  0  0  0  0  0  0  0  0
   44.7700   33.2630   37.7500 Cl  0  0  0  0  0  0  0  0  0  0  0  0
   43.2570   32.5410   38.3210 C   0  0  0  0  0  0  0  0  0  0  0  0
   42.5720   33.1910   39.3580 C   0  0  0  0  0  0  0  0  0  0  0  0
   41.4220   32.5780   39.7400 C   0  0  0  0  0  0  0  0  0  0  0  0
   40.8660   33.0200   40.5300 H   0  0  0  0  0  0  0  0  0  0  0  0
   40.9080   31.4180   39.2040 C   0  0  0  0  0  0  0  0  0  0  0  0
   39.9850   30.9880   39.5600 H   0  0  0  0  0  0  0  0  0  0  0  0
   41.6250   30.8260   38.1870 C   0  0  0  0  0  3  0  0  0  0  0  0
   42.8050   31.3620   37.7220 C   0  0  0  0  0  3  0  0  0  0  0  0
  1  7  1  1  0  0  0
  1 19  1  0  0  0  0
  2  9  1  0  0  0  0
  2  1  1  0  0  0  0
  3 11  1  0  0  0  0
  3  2  1  0  0  0  0
  4  3  1  0  0  0  0
  4  5  1  0  0  0  0
  5 14  1  0  0  0  0
  5  6  1  0  0  0  0
  6  1  1  0  0  0  0
  6 26  1  0  0  0  0
  6 16  1  1  0  0  0
  8  2  1  0  0  0  0
 10  3  1  0  0  0  0
 12  4  1  0  0  0  0
 13  4  1  0  0  0  0
 15  5  1  0  0  0  0
 17 22  1  0  0  0  0
 18 19  1  0  0  0  0
 18 17  2  0  0  0  0
 19 20  2  0  0  0  0
 20 21  1  0  0  0  0
 21 25  1  0  0  0  0
 22 21  2  0  0  0  0
 23 17  1  0  0  0  0
 24 18  1  0  0  0  0
 26 27  1  0  0  0  0
 27 28  2  0  0  0  0
 27 32  1  0  0  0  0
 28 33  1  0  0  0  0
 29 34  1  0  0  0  0
 29 28  1  0  0  0  0
 30 29  2  0  0  0  0
 31 30  1  0  0  0  0
 31 26  2  0  0  0  0
 35 30  1  0  0  0  0
 36 35  2  0  0  0  0
 37 38  1  0  0  0  0
 38 39  1  0  0  0  0
 39 40  2  0  0  0  0
 39 35  1  0  0  0  0
 40 41  1  0  0  0  0
 42 43  1  0  0  0  0
 42 40  1  0  0  0  0
 44 42  2  0  0  0  0
 45 44  1  0  0  0  0
 45 38  2  0  0  0  0
M  END
>  <minimizedAffinity>
-5.43818998

>  <minimizedRMSD>
0.683290184

$$$$
