
 OpenBabel03242516523D

 45 48  0  0  1  0  0  0  0  0999 V2000
   47.7690   32.7100   41.4080 C   0  0  1  0  0  0  0  0  0  0  0  0
   47.2760   32.1190   40.1610 C   0  0  0  0  0  0  0  0  0  0  0  0
   48.2550   32.5310   39.0640 C   0  0  0  0  0  0  0  0  0  0  0  0
   48.0660   34.0210   38.8550 C   0  0  0  0  0  0  0  0  0  0  0  0
   48.1860   34.8370   40.1110 C   0  0  0  0  0  0  0  0  0  0  0  0
   47.7200   34.2410   41.3670 C   0  0  1  0  0  0  0  0  0  0  0  0
   48.8820   32.5070   41.4830 H   0  0  0  0  0  0  0  0  0  0  0  0
   46.2760   32.4390   39.8700 H   0  0  0  0  0  0  0  0  0  0  0  0
   47.3430   31.0030   40.2550 H   0  0  0  0  0  0  0  0  0  0  0  0
   47.9270   32.0600   38.1040 H   0  0  0  0  0  0  0  0  0  0  0  0
   49.2900   32.2740   39.3320 H   0  0  0  0  0  0  0  0  0  0  0  0
   47.0750   34.1500   38.3580 H   0  0  0  0  0  0  0  0  0  0  0  0
   48.8240   34.3660   38.1160 H   0  0  0  0  0  0  0  0  0  0  0  0
   49.2500   35.1790   40.1770 H   0  0  0  0  0  0  0  0  0  0  0  0
   47.6040   35.7800   39.9310 H   0  0  0  0  0  0  0  0  0  0  0  0
   48.4270   34.5580   42.1940 H   0  0  0  0  0  0  0  0  0  0  0  0
   45.3550   30.9690   43.7430 C   0  0  0  0  0  0  0  0  0  0  0  0
   46.0010   31.4590   42.6010 C   0  0  0  0  0  0  0  0  0  0  0  0
   47.1630   32.2350   42.6340 C   0  0  0  0  0  0  0  0  0  0  0  0
   47.6510   32.5010   43.8510 N   0  0  0  0  0  0  0  0  0  0  0  0
   47.0380   32.0350   44.9720 C   0  0  0  0  0  0  0  0  0  0  0  0
   45.9270   31.2940   44.9310 N   0  0  0  0  0  0  0  0  0  0  0  0
   44.4720   30.3850   43.6320 H   0  0  0  0  0  0  0  0  0  0  0  0
   45.5790   31.2250   41.6310 H   0  0  0  0  0  0  0  0  0  0  0  0
   47.4760   32.2810   45.9460 H   0  0  0  0  0  0  0  0  0  0  0  0
   46.4170   34.7520   41.7910 C   0  0  0  0  0  0  0  0  0  0  0  0
   46.1560   35.4980   42.9380 C   0  0  0  0  0  0  0  0  0  0  0  0
   44.8320   35.8920   43.1250 C   0  0  0  0  0  0  0  0  0  0  0  0
   43.9000   35.5210   42.1800 C   0  0  0  0  0  0  0  0  0  0  0  0
   44.1780   34.7760   41.0420 C   0  0  0  0  0  0  0  0  0  0  0  0
   45.4760   34.4020   40.8770 N   0  0  0  0  0  0  0  0  0  0  0  0
   47.0020   35.7050   43.5800 H   0  0  0  0  0  0  0  0  0  0  0  0
   44.6320   36.4660   44.0060 H   0  0  0  0  0  0  0  0  0  0  0  0
   42.8910   35.8690   42.4000 H   0  0  0  0  0  0  0  0  0  0  0  0
   43.1110   34.4400   40.1100 C   0  0  0  0  0  0  0  0  0  0  0  0
   42.3850   35.3670   39.6760 O   0  0  0  0  0  0  0  0  0  0  0  0
   40.9600   34.8680   38.1610 Cl  0  0  0  0  0  0  0  0  0  0  0  0
   41.6130   33.2700   38.5590 C   0  0  0  0  0  0  0  0  0  0  0  0
   42.6390   33.2010   39.5120 C   0  0  0  0  0  0  0  0  0  0  0  0
   43.0880   31.9440   39.7620 C   0  0  0  0  0  0  0  0  0  0  0  0
   43.8730   31.8330   40.4690 H   0  0  0  0  0  0  0  0  0  0  0  0
   42.6260   30.7880   39.1740 C   0  0  0  0  0  0  0  0  0  0  0  0
   43.0310   29.8210   39.4240 H   0  0  0  0  0  0  0  0  0  0  0  0
   41.6150   30.9190   38.2450 C   0  0  0  0  0  3  0  0  0  0  0  0
   41.0870   32.1480   37.9150 C   0  0  0  0  0  3  0  0  0  0  0  0
  1  7  1  1  0  0  0
  1 19  1  0  0  0  0
  2  9  1  0  0  0  0
  2  1  1  0  0  0  0
  3 11  1  0  0  0  0
  3  2  1  0  0  0  0
  4  3  1  0  0  0  0
  4  5  1  0  0  0  0
  5 14  1  0  0  0  0
  5  6  1  0  0  0  0
  6  1  1  0  0  0  0
  6 26  1  0  0  0  0
  6 16  1  1  0  0  0
  8  2  1  0  0  0  0
 10  3  1  0  0  0  0
 12  4  1  0  0  0  0
 13  4  1  0  0  0  0
 15  5  1  0  0  0  0
 17 22  1  0  0  0  0
 18 19  1  0  0  0  0
 18 17  2  0  0  0  0
 19 20  2  0  0  0  0
 20 21  1  0  0  0  0
 21 25  1  0  0  0  0
 22 21  2  0  0  0  0
 23 17  1  0  0  0  0
 24 18  1  0  0  0  0
 26 27  1  0  0  0  0
 27 28  2  0  0  0  0
 27 32  1  0  0  0  0
 28 33  1  0  0  0  0
 29 34  1  0  0  0  0
 29 28  1  0  0  0  0
 30 29  2  0  0  0  0
 31 30  1  0  0  0  0
 31 26  2  0  0  0  0
 35 30  1  0  0  0  0
 36 35  2  0  0  0  0
 37 38  1  0  0  0  0
 38 39  1  0  0  0  0
 39 40  2  0  0  0  0
 39 35  1  0  0  0  0
 40 41  1  0  0  0  0
 42 43  1  0  0  0  0
 42 40  1  0  0  0  0
 44 42  2  0  0  0  0
 45 44  1  0  0  0  0
 45 38  2  0  0  0  0
M  END
>  <minimizedAffinity>
-5.65557528

>  <minimizedRMSD>
0.672138751

$$$$
