
 OpenBabel03242515023D

 37 39  0  0  0  0  0  0  0  0999 V2000
   36.0000   28.4980   39.5540 C   0  0  0  0  0  0  0  0  0  0  0  0
   36.1650   29.8850   39.6460 C   0  0  0  0  0  0  0  0  0  0  0  0
   36.5830   30.4170   40.8630 C   0  0  0  0  0  0  0  0  0  0  0  0
   36.8100   29.5540   41.9030 N   0  0  0  0  0  0  0  0  0  0  0  0
   36.6440   28.2270   41.7870 C   0  0  0  0  0  0  0  0  0  0  0  0
   36.2400   27.7160   40.6110 N   0  0  0  0  0  0  0  0  0  0  0  0
   35.9990   30.6070   38.8560 H   0  0  0  0  0  0  0  0  0  0  0  0
   36.7220   31.4890   40.9760 H   0  0  0  0  0  0  0  0  0  0  0  0
   36.9110   27.3960   42.9440 C   0  0  0  0  0  0  0  0  0  0  0  0
   36.0650   27.3740   43.8700 O   0  0  0  0  0  0  0  0  0  0  0  0
   36.8490   24.5280   41.8990 Cl  0  0  0  0  0  0  0  0  0  0  0  0
   38.2850   25.3220   42.5310 C   0  0  0  0  0  0  0  0  0  0  0  0
   38.1570   26.6240   42.9680 C   0  0  0  0  0  0  0  0  0  0  0  0
   39.2530   27.3190   43.4820 C   0  0  0  0  0  0  0  0  0  0  0  0
   39.2080   28.3490   43.8410 H   0  0  0  0  0  0  0  0  0  0  0  0
   40.5000   26.7240   43.5690 C   0  0  0  0  0  0  0  0  0  0  0  0
   41.3830   27.2160   43.9590 H   0  0  0  0  0  0  0  0  0  0  0  0
   40.5900   25.4160   43.1210 C   0  0  0  0  0  3  0  0  0  0  0  0
   39.5200   24.6870   42.6010 C   0  0  0  0  0  3  0  0  0  0  0  0
   35.4590   27.8710   37.9600 S   0  0  0  0  0  0  0  0  0  0  0  0
   34.4260   29.0350   37.0760 C   0  0  0  0  0  0  0  0  0  0  0  0
   34.6570   29.0800   35.9730 H   0  0  0  0  0  0  0  0  0  0  0  0
   34.6300   30.0580   37.4720 H   0  0  0  0  0  0  0  0  0  0  0  0
   32.9600   28.7580   37.2100 C   0  0  0  0  0  0  0  0  0  0  0  0
   32.5790   28.8580   38.2430 H   0  0  0  0  0  0  0  0  0  0  0  0
   32.7160   27.7330   36.8550 H   0  0  0  0  0  0  0  0  0  0  0  0
   30.6160   30.1260   38.5750 Cl  0  0  0  0  0  0  0  0  0  0  0  0
   31.0630   30.3820   36.9070 C   0  0  0  0  0  0  0  0  0  0  0  0
   32.1630   29.6980   36.3800 C   0  0  0  0  0  0  0  0  0  0  0  0
   32.4570   29.9500   35.0540 C   0  0  0  0  0  0  0  0  0  0  0  0
   31.7670   30.8060   34.2200 C   0  0  0  0  0  0  0  0  0  0  0  0
   30.6890   31.4630   34.7730 C   0  0  0  0  0  0  0  0  0  0  0  0
   29.7500   32.5780   33.7680 Cl  0  0  0  0  0  0  0  0  0  0  0  0
   30.3500   31.2500   36.0900 C   0  0  0  0  0  0  0  0  0  0  0  0
   33.3130   29.4030   34.6840 H   0  0  0  0  0  0  0  0  0  0  0  0
   32.0830   30.9340   33.1830 H   0  0  0  0  0  0  0  0  0  0  0  0
   29.4940   31.7940   36.4700 H   0  0  0  0  0  0  0  0  0  0  0  0
  1  2  2  0  0  0  0
  1  6  1  0  0  0  0
  2  3  1  0  0  0  0
  3  8  1  0  0  0  0
  3  4  2  0  0  0  0
  5  4  1  0  0  0  0
  5  9  1  0  0  0  0
  6  5  2  0  0  0  0
  7  2  1  0  0  0  0
  9 13  1  0  0  0  0
  9 10  2  0  0  0  0
 11 12  1  0  0  0  0
 12 19  2  0  0  0  0
 12 13  1  0  0  0  0
 13 14  2  0  0  0  0
 14 16  1  0  0  0  0
 14 15  1  0  0  0  0
 16 17  1  0  0  0  0
 18 16  2  0  0  0  0
 19 18  1  0  0  0  0
 20  1  1  0  0  0  0
 21 24  1  0  0  0  0
 21 23  1  0  0  0  0
 21 20  1  0  0  0  0
 22 21  1  0  0  0  0
 24 25  1  0  0  0  0
 26 24  1  0  0  0  0
 28 27  1  0  0  0  0
 29 28  1  0  0  0  0
 29 24  1  0  0  0  0
 30 29  2  0  0  0  0
 31 32  2  0  0  0  0
 31 30  1  0  0  0  0
 32 34  1  0  0  0  0
 33 32  1  0  0  0  0
 34 37  1  0  0  0  0
 34 28  2  0  0  0  0
 35 30  1  0  0  0  0
 36 31  1  0  0  0  0
M  END
>  <minimizedAffinity>
-6.33156061

$$$$

 OpenBabel03242515023D

 37 39  0  0  0  0  0  0  0  0999 V2000
   40.7310   32.0400   41.4180 C   0  0  0  0  0  0  0  0  0  0  0  0
   41.6090   32.9690   40.8480 C   0  0  0  0  0  0  0  0  0  0  0  0
   41.1050   33.8470   39.8930 C   0  0  0  0  0  0  0  0  0  0  0  0
   39.7790   33.7540   39.5620 N   0  0  0  0  0  0  0  0  0  0  0  0
   38.9580   32.8520   40.1240 C   0  0  0  0  0  0  0  0  0  0  0  0
   39.4480   32.0050   41.0460 N   0  0  0  0  0  0  0  0  0  0  0  0
   42.6620   33.0840   41.0740 H   0  0  0  0  0  0  0  0  0  0  0  0
   41.7540   34.5850   39.4260 H   0  0  0  0  0  0  0  0  0  0  0  0
   37.5700   32.8310   39.7100 C   0  0  0  0  0  0  0  0  0  0  0  0
   36.9850   33.9260   39.5270 O   0  0  0  0  0  0  0  0  0  0  0  0
   37.7170   31.5280   36.9520 Cl  0  0  0  0  0  0  0  0  0  0  0  0
   36.9060   30.8190   38.3420 C   0  0  0  0  0  0  0  0  0  0  0  0
   36.9240   31.5280   39.5240 C   0  0  0  0  0  0  0  0  0  0  0  0
   36.3010   31.0280   40.6690 C   0  0  0  0  0  0  0  0  0  0  0  0
   36.2850   31.5470   41.6310 H   0  0  0  0  0  0  0  0  0  0  0  0
   35.6480   29.8070   40.6530 C   0  0  0  0  0  0  0  0  0  0  0  0
   35.1490   29.3730   41.5110 H   0  0  0  0  0  0  0  0  0  0  0  0
   35.6520   29.1250   39.4480 C   0  0  0  0  0  3  0  0  0  0  0  0
   36.2610   29.5890   38.2830 C   0  0  0  0  0  3  0  0  0  0  0  0
   41.4380   30.9340   42.6430 S   0  0  0  0  0  0  0  0  0  0  0  0
   40.6840   29.3120   42.6250 C   0  0  0  0  0  0  0  0  0  0  0  0
   41.1640   28.5940   43.3510 H   0  0  0  0  0  0  0  0  0  0  0  0
   40.8330   28.8660   41.6140 H   0  0  0  0  0  0  0  0  0  0  0  0
   39.2160   29.3280   42.9250 C   0  0  0  0  0  0  0  0  0  0  0  0
   38.6990   30.2410   42.5760 H   0  0  0  0  0  0  0  0  0  0  0  0
   39.0340   29.2310   44.0170 H   0  0  0  0  0  0  0  0  0  0  0  0
   36.9670   28.0240   44.4970 Cl  0  0  0  0  0  0  0  0  0  0  0  0
   37.4770   27.5110   42.9080 C   0  0  0  0  0  0  0  0  0  0  0  0
   38.5270   28.1840   42.2740 C   0  0  0  0  0  0  0  0  0  0  0  0
   38.8750   27.7240   41.0190 C   0  0  0  0  0  0  0  0  0  0  0  0
   38.2840   26.6720   40.3500 C   0  0  0  0  0  0  0  0  0  0  0  0
   37.2540   26.0310   41.0040 C   0  0  0  0  0  0  0  0  0  0  0  0
   36.4450   24.6700   40.2130 Cl  0  0  0  0  0  0  0  0  0  0  0  0
   36.8650   26.4480   42.2570 C   0  0  0  0  0  0  0  0  0  0  0  0
   39.6890   28.2700   40.5640 H   0  0  0  0  0  0  0  0  0  0  0  0
   38.6370   26.3860   39.3570 H   0  0  0  0  0  0  0  0  0  0  0  0
   36.0490   25.9070   42.7220 H   0  0  0  0  0  0  0  0  0  0  0  0
  1 20  1  0  0  0  0
  2  7  1  0  0  0  0
  2  1  2  0  0  0  0
  3  2  1  0  0  0  0
  4  3  2  0  0  0  0
  4  5  1  0  0  0  0
  5  6  2  0  0  0  0
  6  1  1  0  0  0  0
  8  3  1  0  0  0  0
  9  5  1  0  0  0  0
 10  9  2  0  0  0  0
 11 12  1  0  0  0  0
 12 13  1  0  0  0  0
 13  9  1  0  0  0  0
 13 14  2  0  0  0  0
 14 15  1  0  0  0  0
 16 14  1  0  0  0  0
 16 17  1  0  0  0  0
 18 16  2  0  0  0  0
 19 12  2  0  0  0  0
 19 18  1  0  0  0  0
 21 20  1  0  0  0  0
 21 24  1  0  0  0  0
 21 22  1  0  0  0  0
 23 21  1  0  0  0  0
 24 26  1  0  0  0  0
 25 24  1  0  0  0  0
 28 27  1  0  0  0  0
 29 28  1  0  0  0  0
 29 24  1  0  0  0  0
 30 29  2  0  0  0  0
 31 32  2  0  0  0  0
 31 30  1  0  0  0  0
 32 34  1  0  0  0  0
 33 32  1  0  0  0  0
 34 37  1  0  0  0  0
 34 28  2  0  0  0  0
 35 30  1  0  0  0  0
 36 31  1  0  0  0  0
M  END
>  <minimizedAffinity>
-6.16055584

$$$$

 OpenBabel03242515023D

 37 39  0  0  0  0  0  0  0  0999 V2000
   40.9580   32.4560   40.8310 C   0  0  0  0  0  0  0  0  0  0  0  0
   41.5710   33.7130   40.7870 C   0  0  0  0  0  0  0  0  0  0  0  0
   40.8210   34.7940   40.3320 C   0  0  0  0  0  0  0  0  0  0  0  0
   39.5240   34.5690   39.9530 N   0  0  0  0  0  0  0  0  0  0  0  0
   38.9590   33.3520   40.0060 C   0  0  0  0  0  0  0  0  0  0  0  0
   39.6860   32.3100   40.4440 N   0  0  0  0  0  0  0  0  0  0  0  0
   42.5900   33.9430   41.0740 H   0  0  0  0  0  0  0  0  0  0  0  0
   41.2610   35.7870   40.2820 H   0  0  0  0  0  0  0  0  0  0  0  0
   37.5800   33.2140   39.5840 C   0  0  0  0  0  0  0  0  0  0  0  0
   36.9340   34.2530   39.3070 O   0  0  0  0  0  0  0  0  0  0  0  0
   37.7590   31.7340   36.9190 Cl  0  0  0  0  0  0  0  0  0  0  0  0
   37.0200   31.0740   38.3710 C   0  0  0  0  0  0  0  0  0  0  0  0
   37.0140   31.8640   39.5020 C   0  0  0  0  0  0  0  0  0  0  0  0
   36.4450   31.4070   40.6920 C   0  0  0  0  0  0  0  0  0  0  0  0
   36.4130   31.9900   41.6160 H   0  0  0  0  0  0  0  0  0  0  0  0
   35.8710   30.1500   40.7740 C   0  0  0  0  0  0  0  0  0  0  0  0
   35.4160   29.7460   41.6710 H   0  0  0  0  0  0  0  0  0  0  0  0
   35.8950   29.3870   39.6190 C   0  0  0  0  0  3  0  0  0  0  0  0
   36.4520   29.8050   38.4110 C   0  0  0  0  0  3  0  0  0  0  0  0
   41.9750   31.1010   41.4250 S   0  0  0  0  0  0  0  0  0  0  0  0
   41.0930   30.0160   42.5410 C   0  0  0  0  0  0  0  0  0  0  0  0
   41.4030   30.1430   43.6180 H   0  0  0  0  0  0  0  0  0  0  0  0
   41.3410   28.9610   42.2760 H   0  0  0  0  0  0  0  0  0  0  0  0
   39.6050   30.1800   42.4890 C   0  0  0  0  0  0  0  0  0  0  0  0
   39.2510   30.7730   41.6260 H   0  0  0  0  0  0  0  0  0  0  0  0
   39.2270   30.6660   43.4140 H   0  0  0  0  0  0  0  0  0  0  0  0
   39.6680   28.8120   39.7760 Cl  0  0  0  0  0  0  0  0  0  0  0  0
   38.8950   28.1440   41.1920 C   0  0  0  0  0  0  0  0  0  0  0  0
   38.9260   28.8620   42.3920 C   0  0  0  0  0  0  0  0  0  0  0  0
   38.2940   28.2710   43.4700 C   0  0  0  0  0  0  0  0  0  0  0  0
   37.6450   27.0540   43.4600 C   0  0  0  0  0  0  0  0  0  0  0  0
   37.6330   26.3760   42.2610 C   0  0  0  0  0  0  0  0  0  0  0  0
   36.8190   24.8070   42.1650 Cl  0  0  0  0  0  0  0  0  0  0  0  0
   38.2470   26.9160   41.1540 C   0  0  0  0  0  0  0  0  0  0  0  0
   38.3410   28.8560   44.3780 H   0  0  0  0  0  0  0  0  0  0  0  0
   37.1750   26.6760   44.3710 H   0  0  0  0  0  0  0  0  0  0  0  0
   38.2070   26.3380   40.2390 H   0  0  0  0  0  0  0  0  0  0  0  0
  1 20  1  0  0  0  0
  2  1  1  0  0  0  0
  2  7  1  0  0  0  0
  3  2  2  0  0  0  0
  4  5  2  0  0  0  0
  4  3  1  0  0  0  0
  5  6  1  0  0  0  0
  6  1  2  0  0  0  0
  8  3  1  0  0  0  0
  9  5  1  0  0  0  0
 10  9  2  0  0  0  0
 11 12  1  0  0  0  0
 12 19  2  0  0  0  0
 12 13  1  0  0  0  0
 13  9  1  0  0  0  0
 13 14  2  0  0  0  0
 14 16  1  0  0  0  0
 14 15  1  0  0  0  0
 16 17  1  0  0  0  0
 18 16  2  0  0  0  0
 19 18  1  0  0  0  0
 20 21  1  0  0  0  0
 21 22  1  0  0  0  0
 23 21  1  0  0  0  0
 24 21  1  0  0  0  0
 24 26  1  0  0  0  0
 25 24  1  0  0  0  0
 27 28  1  0  0  0  0
 28 29  1  0  0  0  0
 29 24  1  0  0  0  0
 29 30  2  0  0  0  0
 30 35  1  0  0  0  0
 31 30  1  0  0  0  0
 31 36  1  0  0  0  0
 32 31  2  0  0  0  0
 33 32  1  0  0  0  0
 34 28  2  0  0  0  0
 34 32  1  0  0  0  0
 37 34  1  0  0  0  0
M  END
>  <minimizedAffinity>
-6.06981754

$$$$

 OpenBabel03242515023D

 37 39  0  0  0  0  0  0  0  0999 V2000
   38.4850   31.9300   40.5640 C   0  0  0  0  0  0  0  0  0  0  0  0
   37.3130   32.4480   40.0020 C   0  0  0  0  0  0  0  0  0  0  0  0
   37.3200   33.7730   39.5750 C   0  0  0  0  0  0  0  0  0  0  0  0
   38.4730   34.4970   39.7270 N   0  0  0  0  0  0  0  0  0  0  0  0
   39.5850   33.9750   40.2700 C   0  0  0  0  0  0  0  0  0  0  0  0
   39.5750   32.6950   40.6820 N   0  0  0  0  0  0  0  0  0  0  0  0
   36.3780   31.9190   39.8600 H   0  0  0  0  0  0  0  0  0  0  0  0
   36.4300   34.2140   39.1330 H   0  0  0  0  0  0  0  0  0  0  0  0
   40.7560   34.8190   40.3890 C   0  0  0  0  0  0  0  0  0  0  0  0
   40.6790   35.8490   41.1020 O   0  0  0  0  0  0  0  0  0  0  0  0
   43.1390   33.8220   42.0160 Cl  0  0  0  0  0  0  0  0  0  0  0  0
   43.1220   33.9550   40.2630 C   0  0  0  0  0  0  0  0  0  0  0  0
   41.9690   34.4240   39.6680 C   0  0  0  0  0  0  0  0  0  0  0  0
   41.8820   34.5560   38.2810 C   0  0  0  0  0  0  0  0  0  0  0  0
   40.9950   34.9210   37.7580 H   0  0  0  0  0  0  0  0  0  0  0  0
   42.9470   34.2210   37.4620 C   0  0  0  0  0  0  0  0  0  0  0  0
   42.9330   34.3040   36.3820 H   0  0  0  0  0  0  0  0  0  0  0  0
   44.0860   33.7550   38.0960 C   0  0  0  0  0  3  0  0  0  0  0  0
   44.2150   33.6080   39.4770 C   0  0  0  0  0  3  0  0  0  0  0  0
   38.4150   30.2160   41.0970 S   0  0  0  0  0  0  0  0  0  0  0  0
   36.7660   29.7070   41.5670 C   0  0  0  0  0  0  0  0  0  0  0  0
   35.9630   30.1440   40.9050 H   0  0  0  0  0  0  0  0  0  0  0  0
   36.5570   30.0920   42.5930 H   0  0  0  0  0  0  0  0  0  0  0  0
   36.5730   28.2210   41.5710 C   0  0  0  0  0  0  0  0  0  0  0  0
   36.3330   27.7990   40.5770 H   0  0  0  0  0  0  0  0  0  0  0  0
   35.7600   27.9290   42.2690 H   0  0  0  0  0  0  0  0  0  0  0  0
   37.0070   28.0750   44.5740 Cl  0  0  0  0  0  0  0  0  0  0  0  0
   38.1010   27.4000   43.3930 C   0  0  0  0  0  0  0  0  0  0  0  0
   37.8020   27.5260   42.0320 C   0  0  0  0  0  0  0  0  0  0  0  0
   38.7130   26.9670   41.1560 C   0  0  0  0  0  0  0  0  0  0  0  0
   39.8730   26.3070   41.5050 C   0  0  0  0  0  0  0  0  0  0  0  0
   40.1350   26.2020   42.8540 C   0  0  0  0  0  0  0  0  0  0  0  0
   41.6050   25.3710   43.3850 Cl  0  0  0  0  0  0  0  0  0  0  0  0
   39.2620   26.7400   43.7730 C   0  0  0  0  0  0  0  0  0  0  0  0
   38.4460   27.0850   40.1150 H   0  0  0  0  0  0  0  0  0  0  0  0
   40.5270   25.9010   40.7310 H   0  0  0  0  0  0  0  0  0  0  0  0
   39.5200   26.6270   44.8190 H   0  0  0  0  0  0  0  0  0  0  0  0
  1  6  1  0  0  0  0
  1 20  1  0  0  0  0
  2  1  2  0  0  0  0
  3  4  2  0  0  0  0
  3  2  1  0  0  0  0
  4  5  1  0  0  0  0
  5  9  1  0  0  0  0
  5  6  2  0  0  0  0
  7  2  1  0  0  0  0
  8  3  1  0  0  0  0
  9 10  2  0  0  0  0
 12 11  1  0  0  0  0
 13 12  1  0  0  0  0
 13  9  1  0  0  0  0
 14 13  2  0  0  0  0
 15 14  1  0  0  0  0
 16 18  2  0  0  0  0
 16 14  1  0  0  0  0
 17 16  1  0  0  0  0
 18 19  1  0  0  0  0
 19 12  2  0  0  0  0
 20 21  1  0  0  0  0
 21 24  1  0  0  0  0
 21 23  1  0  0  0  0
 22 21  1  0  0  0  0
 24 29  1  0  0  0  0
 24 26  1  0  0  0  0
 25 24  1  0  0  0  0
 28 34  1  0  0  0  0
 28 27  1  0  0  0  0
 29 28  2  0  0  0  0
 30 31  2  0  0  0  0
 30 29  1  0  0  0  0
 31 32  1  0  0  0  0
 32 33  1  0  0  0  0
 32 34  2  0  0  0  0
 34 37  1  0  0  0  0
 35 30  1  0  0  0  0
 36 31  1  0  0  0  0
M  END
>  <minimizedAffinity>
-6.06310463

$$$$

 OpenBabel03242515023D

 37 39  0  0  0  0  0  0  0  0999 V2000
   40.8860   30.5320   39.4350 C   0  0  0  0  0  0  0  0  0  0  0  0
   41.7150   31.6230   39.7140 C   0  0  0  0  0  0  0  0  0  0  0  0
   41.1250   32.8750   39.8670 C   0  0  0  0  0  0  0  0  0  0  0  0
   39.7640   32.9700   39.7350 N   0  0  0  0  0  0  0  0  0  0  0  0
   38.9910   31.9050   39.4660 C   0  0  0  0  0  0  0  0  0  0  0  0
   39.5650   30.6980   39.3190 N   0  0  0  0  0  0  0  0  0  0  0  0
   42.7930   31.6020   39.8280 H   0  0  0  0  0  0  0  0  0  0  0  0
   41.7340   33.7490   40.0850 H   0  0  0  0  0  0  0  0  0  0  0  0
   37.5610   32.1050   39.3450 C   0  0  0  0  0  0  0  0  0  0  0  0
   37.1250   33.2800   39.2930 O   0  0  0  0  0  0  0  0  0  0  0  0
   37.1730   30.7290   36.6480 Cl  0  0  0  0  0  0  0  0  0  0  0  0
   36.4300   30.1940   38.1490 C   0  0  0  0  0  0  0  0  0  0  0  0
   36.7000   30.9200   39.2900 C   0  0  0  0  0  0  0  0  0  0  0  0
   36.1460   30.5550   40.5190 C   0  0  0  0  0  0  0  0  0  0  0  0
   36.3250   31.0930   41.4520 H   0  0  0  0  0  0  0  0  0  0  0  0
   35.3110   29.4560   40.6290 C   0  0  0  0  0  0  0  0  0  0  0  0
   34.8540   29.1300   41.5560 H   0  0  0  0  0  0  0  0  0  0  0  0
   35.0630   28.7540   39.4620 C   0  0  0  0  0  3  0  0  0  0  0  0
   35.5960   29.0840   38.2160 C   0  0  0  0  0  3  0  0  0  0  0  0
   41.7050   28.9450   39.2490 S   0  0  0  0  0  0  0  0  0  0  0  0
   40.9310   27.6520   40.2140 C   0  0  0  0  0  0  0  0  0  0  0  0
   41.0730   27.7860   41.3260 H   0  0  0  0  0  0  0  0  0  0  0  0
   41.4200   26.6820   39.9610 H   0  0  0  0  0  0  0  0  0  0  0  0
   39.4590   27.5190   39.9700 C   0  0  0  0  0  0  0  0  0  0  0  0
   39.1640   26.5460   39.5370 H   0  0  0  0  0  0  0  0  0  0  0  0
   39.0970   28.3180   39.2870 H   0  0  0  0  0  0  0  0  0  0  0  0
   37.2610   25.4820   40.4650 Cl  0  0  0  0  0  0  0  0  0  0  0  0
   37.6610   26.7770   41.5650 C   0  0  0  0  0  0  0  0  0  0  0  0
   38.6940   27.6610   41.2360 C   0  0  0  0  0  0  0  0  0  0  0  0
   38.9540   28.6600   42.1530 C   0  0  0  0  0  0  0  0  0  0  0  0
   38.2900   28.8560   43.3470 C   0  0  0  0  0  0  0  0  0  0  0  0
   37.2780   27.9670   43.6380 C   0  0  0  0  0  0  0  0  0  0  0  0
   36.3770   28.1520   45.1500 Cl  0  0  0  0  0  0  0  0  0  0  0  0
   36.9760   26.9520   42.7600 C   0  0  0  0  0  0  0  0  0  0  0  0
   39.7590   29.3210   41.8630 H   0  0  0  0  0  0  0  0  0  0  0  0
   38.5750   29.6810   44.0030 H   0  0  0  0  0  0  0  0  0  0  0  0
   36.1710   26.2830   43.0420 H   0  0  0  0  0  0  0  0  0  0  0  0
  1  2  1  0  0  0  0
  2  7  1  0  0  0  0
  2  3  2  0  0  0  0
  3  8  1  0  0  0  0
  4  3  1  0  0  0  0
  5  4  2  0  0  0  0
  6  1  2  0  0  0  0
  6  5  1  0  0  0  0
  9  5  1  0  0  0  0
 10  9  2  0  0  0  0
 11 12  1  0  0  0  0
 12 19  2  0  0  0  0
 12 13  1  0  0  0  0
 13  9  1  0  0  0  0
 13 14  2  0  0  0  0
 14 16  1  0  0  0  0
 14 15  1  0  0  0  0
 16 17  1  0  0  0  0
 18 16  2  0  0  0  0
 19 18  1  0  0  0  0
 20  1  1  0  0  0  0
 20 21  1  0  0  0  0
 21 22  1  0  0  0  0
 23 21  1  0  0  0  0
 24 21  1  0  0  0  0
 24 29  1  0  0  0  0
 25 24  1  0  0  0  0
 26 24  1  0  0  0  0
 27 28  1  0  0  0  0
 28 34  1  0  0  0  0
 29 28  2  0  0  0  0
 29 30  1  0  0  0  0
 30 31  2  0  0  0  0
 31 32  1  0  0  0  0
 31 36  1  0  0  0  0
 32 33  1  0  0  0  0
 34 37  1  0  0  0  0
 34 32  2  0  0  0  0
 35 30  1  0  0  0  0
M  END
>  <minimizedAffinity>
-5.93995857

$$$$

 OpenBabel03242515023D

 37 39  0  0  0  0  0  0  0  0999 V2000
   36.3420   27.2360   39.5640 C   0  0  0  0  0  0  0  0  0  0  0  0
   36.3910   25.8450   39.4210 C   0  0  0  0  0  0  0  0  0  0  0  0
   36.9070   25.0950   40.4730 C   0  0  0  0  0  0  0  0  0  0  0  0
   37.3380   25.7580   41.5920 N   0  0  0  0  0  0  0  0  0  0  0  0
   37.2790   27.0960   41.7030 C   0  0  0  0  0  0  0  0  0  0  0  0
   36.7810   27.8170   40.6850 N   0  0  0  0  0  0  0  0  0  0  0  0
   36.0640   25.2740   38.5600 H   0  0  0  0  0  0  0  0  0  0  0  0
   36.9630   24.0110   40.4020 H   0  0  0  0  0  0  0  0  0  0  0  0
   37.7590   27.7060   42.9260 C   0  0  0  0  0  0  0  0  0  0  0  0
   37.0050   27.7080   43.9290 O   0  0  0  0  0  0  0  0  0  0  0  0
   40.0850   25.9670   43.8700 Cl  0  0  0  0  0  0  0  0  0  0  0  0
   40.2490   27.6300   43.3220 C   0  0  0  0  0  0  0  0  0  0  0  0
   39.1040   28.2890   42.9260 C   0  0  0  0  0  0  0  0  0  0  0  0
   39.1570   29.6110   42.4790 C   0  0  0  0  0  0  0  0  0  0  0  0
   38.2830   30.1800   42.1540 H   0  0  0  0  0  0  0  0  0  0  0  0
   40.3580   30.2990   42.4200 C   0  0  0  0  0  0  0  0  0  0  0  0
   40.4550   31.3240   42.0820 H   0  0  0  0  0  0  0  0  0  0  0  0
   41.4840   29.6040   42.8260 C   0  0  0  0  0  3  0  0  0  0  0  0
   41.4750   28.2850   43.2790 C   0  0  0  0  0  3  0  0  0  0  0  0
   35.6670   28.1500   38.1730 S   0  0  0  0  0  0  0  0  0  0  0  0
   36.1470   29.8730   38.1810 C   0  0  0  0  0  0  0  0  0  0  0  0
   35.7970   30.4250   39.1010 H   0  0  0  0  0  0  0  0  0  0  0  0
   35.6580   30.3800   37.3170 H   0  0  0  0  0  0  0  0  0  0  0  0
   37.6270   30.0850   38.0780 C   0  0  0  0  0  0  0  0  0  0  0  0
   37.9980   30.1480   37.0390 H   0  0  0  0  0  0  0  0  0  0  0  0
   38.1810   29.2660   38.5860 H   0  0  0  0  0  0  0  0  0  0  0  0
   40.5760   30.3890   38.7410 Cl  0  0  0  0  0  0  0  0  0  0  0  0
   39.3650   31.5950   39.0910 C   0  0  0  0  0  0  0  0  0  0  0  0
   38.0320   31.3500   38.7420 C   0  0  0  0  0  0  0  0  0  0  0  0
   37.1300   32.3490   39.0500 C   0  0  0  0  0  0  0  0  0  0  0  0
   37.4280   33.5490   39.6630 C   0  0  0  0  0  0  0  0  0  0  0  0
   38.7490   33.7560   39.9940 C   0  0  0  0  0  0  0  0  0  0  0  0
   39.2130   35.2700   40.7860 Cl  0  0  0  0  0  0  0  0  0  0  0  0
   39.6920   32.7940   39.7110 C   0  0  0  0  0  0  0  0  0  0  0  0
   36.1120   32.1230   38.7640 H   0  0  0  0  0  0  0  0  0  0  0  0
   36.6360   34.2740   39.8630 H   0  0  0  0  0  0  0  0  0  0  0  0
   40.7150   33.0130   39.9930 H   0  0  0  0  0  0  0  0  0  0  0  0
  1  6  1  0  0  0  0
  2  1  2  0  0  0  0
  2  3  1  0  0  0  0
  3  4  2  0  0  0  0
  4  5  1  0  0  0  0
  5  9  1  0  0  0  0
  6  5  2  0  0  0  0
  7  2  1  0  0  0  0
  8  3  1  0  0  0  0
  9 13  1  0  0  0  0
  9 10  2  0  0  0  0
 12 11  1  0  0  0  0
 13 12  2  0  0  0  0
 14 13  1  0  0  0  0
 15 14  1  0  0  0  0
 16 14  2  0  0  0  0
 16 18  1  0  0  0  0
 17 16  1  0  0  0  0
 18 19  2  0  0  0  0
 19 12  1  0  0  0  0
 20 21  1  0  0  0  0
 20  1  1  0  0  0  0
 21 22  1  0  0  0  0
 23 21  1  0  0  0  0
 24 21  1  0  0  0  0
 24 26  1  0  0  0  0
 24 29  1  0  0  0  0
 25 24  1  0  0  0  0
 27 28  1  0  0  0  0
 28 34  1  0  0  0  0
 29 30  1  0  0  0  0
 29 28  2  0  0  0  0
 30 31  2  0  0  0  0
 31 36  1  0  0  0  0
 31 32  1  0  0  0  0
 32 33  1  0  0  0  0
 34 37  1  0  0  0  0
 34 32  2  0  0  0  0
 35 30  1  0  0  0  0
M  END
>  <minimizedAffinity>
-5.87056828

$$$$

 OpenBabel03242515023D

 37 39  0  0  0  0  0  0  0  0999 V2000
   37.9610   30.2240   41.6250 C   0  0  0  0  0  0  0  0  0  0  0  0
   36.6100   30.1680   41.2670 C   0  0  0  0  0  0  0  0  0  0  0  0
   36.1970   30.8850   40.1470 C   0  0  0  0  0  0  0  0  0  0  0  0
   37.1360   31.6060   39.4560 N   0  0  0  0  0  0  0  0  0  0  0  0
   38.4280   31.6420   39.8220 C   0  0  0  0  0  0  0  0  0  0  0  0
   38.8230   30.9490   40.9040 N   0  0  0  0  0  0  0  0  0  0  0  0
   35.8300   29.6160   41.7770 H   0  0  0  0  0  0  0  0  0  0  0  0
   35.1550   30.8690   39.8350 H   0  0  0  0  0  0  0  0  0  0  0  0
   39.3460   32.4320   39.0280 C   0  0  0  0  0  0  0  0  0  0  0  0
   39.5470   32.0960   37.8360 O   0  0  0  0  0  0  0  0  0  0  0  0
   42.3390   32.2690   39.6100 Cl  0  0  0  0  0  0  0  0  0  0  0  0
   41.3310   33.6600   39.9850 C   0  0  0  0  0  0  0  0  0  0  0  0
   39.9920   33.5850   39.6630 C   0  0  0  0  0  0  0  0  0  0  0  0
   39.1300   34.6500   39.9300 C   0  0  0  0  0  0  0  0  0  0  0  0
   38.0630   34.6450   39.6960 H   0  0  0  0  0  0  0  0  0  0  0  0
   39.5920   35.8120   40.5270 C   0  0  0  0  0  0  0  0  0  0  0  0
   38.9680   36.6670   40.7570 H   0  0  0  0  0  0  0  0  0  0  0  0
   40.9410   35.8480   40.8370 C   0  0  0  0  0  3  0  0  0  0  0  0
   41.8350   34.8080   40.5860 C   0  0  0  0  0  3  0  0  0  0  0  0
   38.4330   29.2800   43.0780 S   0  0  0  0  0  0  0  0  0  0  0  0
   38.8730   27.5900   42.6880 C   0  0  0  0  0  0  0  0  0  0  0  0
   39.7690   27.2220   43.2670 H   0  0  0  0  0  0  0  0  0  0  0  0
   39.1640   27.5400   41.6130 H   0  0  0  0  0  0  0  0  0  0  0  0
   37.7640   26.6110   42.9240 C   0  0  0  0  0  0  0  0  0  0  0  0
   36.7580   27.0700   42.9440 H   0  0  0  0  0  0  0  0  0  0  0  0
   37.9090   26.0710   43.8850 H   0  0  0  0  0  0  0  0  0  0  0  0
   39.5810   24.2050   43.2980 Cl  0  0  0  0  0  0  0  0  0  0  0  0
   38.5230   24.4300   41.9270 C   0  0  0  0  0  0  0  0  0  0  0  0
   37.7280   25.5780   41.8570 C   0  0  0  0  0  0  0  0  0  0  0  0
   36.9160   25.6880   40.7440 C   0  0  0  0  0  0  0  0  0  0  0  0
   36.8260   24.7740   39.7140 C   0  0  0  0  0  0  0  0  0  0  0  0
   37.6250   23.6560   39.8170 C   0  0  0  0  0  0  0  0  0  0  0  0
   37.5690   22.4370   38.5340 Cl  0  0  0  0  0  0  0  0  0  0  0  0
   38.4530   23.4940   40.9030 C   0  0  0  0  0  0  0  0  0  0  0  0
   36.3170   26.5880   40.7270 H   0  0  0  0  0  0  0  0  0  0  0  0
   36.1510   24.9580   38.8760 H   0  0  0  0  0  0  0  0  0  0  0  0
   39.0570   22.5940   40.9300 H   0  0  0  0  0  0  0  0  0  0  0  0
  1 20  1  0  0  0  0
  2  1  1  0  0  0  0
  2  7  1  0  0  0  0
  3  2  2  0  0  0  0
  4  5  2  0  0  0  0
  4  3  1  0  0  0  0
  5  6  1  0  0  0  0
  6  1  2  0  0  0  0
  8  3  1  0  0  0  0
  9 13  1  0  0  0  0
  9  5  1  0  0  0  0
 10  9  2  0  0  0  0
 11 12  1  0  0  0  0
 12 19  1  0  0  0  0
 13 14  1  0  0  0  0
 13 12  2  0  0  0  0
 14 16  2  0  0  0  0
 15 14  1  0  0  0  0
 16 17  1  0  0  0  0
 16 18  1  0  0  0  0
 19 18  2  0  0  0  0
 21 24  1  0  0  0  0
 21 20  1  0  0  0  0
 21 22  1  0  0  0  0
 23 21  1  0  0  0  0
 24 25  1  0  0  0  0
 24 26  1  0  0  0  0
 28 27  1  0  0  0  0
 29 28  1  0  0  0  0
 29 24  1  0  0  0  0
 30 29  2  0  0  0  0
 31 32  2  0  0  0  0
 31 30  1  0  0  0  0
 32 34  1  0  0  0  0
 33 32  1  0  0  0  0
 34 37  1  0  0  0  0
 34 28  2  0  0  0  0
 35 30  1  0  0  0  0
 36 31  1  0  0  0  0
M  END
>  <minimizedAffinity>
-5.72766829

$$$$

 OpenBabel03242515023D

 37 39  0  0  0  0  0  0  0  0999 V2000
   39.4710   32.1300   40.2360 C   0  0  0  0  0  0  0  0  0  0  0  0
   38.8090   33.3110   40.5900 C   0  0  0  0  0  0  0  0  0  0  0  0
   37.6690   33.6640   39.8730 C   0  0  0  0  0  0  0  0  0  0  0  0
   37.2570   32.8360   38.8620 N   0  0  0  0  0  0  0  0  0  0  0  0
   37.9120   31.7070   38.5430 C   0  0  0  0  0  0  0  0  0  0  0  0
   39.0120   31.3700   39.2360 N   0  0  0  0  0  0  0  0  0  0  0  0
   39.0930   33.9970   41.3780 H   0  0  0  0  0  0  0  0  0  0  0  0
   37.1250   34.5740   40.1160 H   0  0  0  0  0  0  0  0  0  0  0  0
   37.3980   30.8970   37.4580 C   0  0  0  0  0  0  0  0  0  0  0  0
   37.4000   31.3790   36.3000 O   0  0  0  0  0  0  0  0  0  0  0  0
   39.3120   28.5420   37.1220 Cl  0  0  0  0  0  0  0  0  0  0  0  0
   37.6480   28.3960   37.6710 C   0  0  0  0  0  0  0  0  0  0  0  0
   36.9040   29.5530   37.7720 C   0  0  0  0  0  0  0  0  0  0  0  0
   35.5760   29.5160   38.2010 C   0  0  0  0  0  0  0  0  0  0  0  0
   34.9420   30.4000   38.3000 H   0  0  0  0  0  0  0  0  0  0  0  0
   34.9660   28.3190   38.5370 C   0  0  0  0  0  0  0  0  0  0  0  0
   33.9400   28.2330   38.8750 H   0  0  0  0  0  0  0  0  0  0  0  0
   35.7450   27.1790   38.4220 C   0  0  0  0  0  3  0  0  0  0  0  0
   37.0730   27.1730   37.9980 C   0  0  0  0  0  3  0  0  0  0  0  0
   40.9350   31.7270   41.1950 S   0  0  0  0  0  0  0  0  0  0  0  0
   40.6270   30.4660   42.4260 C   0  0  0  0  0  0  0  0  0  0  0  0
   41.2860   30.5670   43.3360 H   0  0  0  0  0  0  0  0  0  0  0  0
   40.8720   29.4720   41.9820 H   0  0  0  0  0  0  0  0  0  0  0  0
   39.2100   30.4310   42.9100 C   0  0  0  0  0  0  0  0  0  0  0  0
   38.5410   31.1380   42.3850 H   0  0  0  0  0  0  0  0  0  0  0  0
   39.1560   30.6570   43.9970 H   0  0  0  0  0  0  0  0  0  0  0  0
   36.5190   30.3110   41.5040 Cl  0  0  0  0  0  0  0  0  0  0  0  0
   37.3810   28.9110   42.0900 C   0  0  0  0  0  0  0  0  0  0  0  0
   38.6160   29.0820   42.7250 C   0  0  0  0  0  0  0  0  0  0  0  0
   39.2400   27.9300   43.1620 C   0  0  0  0  0  0  0  0  0  0  0  0
   38.7540   26.6450   43.0280 C   0  0  0  0  0  0  0  0  0  0  0  0
   37.5350   26.5140   42.3980 C   0  0  0  0  0  0  0  0  0  0  0  0
   36.8430   24.8990   42.1880 Cl  0  0  0  0  0  0  0  0  0  0  0  0
   36.8690   27.6290   41.9420 C   0  0  0  0  0  0  0  0  0  0  0  0
   40.1900   28.1040   43.6460 H   0  0  0  0  0  0  0  0  0  0  0  0
   39.3290   25.7990   43.4110 H   0  0  0  0  0  0  0  0  0  0  0  0
   35.9150   27.4640   41.4550 H   0  0  0  0  0  0  0  0  0  0  0  0
  1  2  1  0  0  0  0
  1 20  1  0  0  0  0
  2  7  1  0  0  0  0
  3  8  1  0  0  0  0
  3  2  2  0  0  0  0
  4  3  1  0  0  0  0
  5  4  2  0  0  0  0
  5  6  1  0  0  0  0
  6  1  2  0  0  0  0
  9 13  1  0  0  0  0
  9  5  1  0  0  0  0
 10  9  2  0  0  0  0
 11 12  1  0  0  0  0
 12 13  2  0  0  0  0
 12 19  1  0  0  0  0
 13 14  1  0  0  0  0
 14 15  1  0  0  0  0
 14 16  2  0  0  0  0
 16 17  1  0  0  0  0
 18 16  1  0  0  0  0
 19 18  2  0  0  0  0
 20 21  1  0  0  0  0
 21 24  1  0  0  0  0
 21 22  1  0  0  0  0
 23 21  1  0  0  0  0
 24 26  1  0  0  0  0
 25 24  1  0  0  0  0
 27 28  1  0  0  0  0
 28 29  1  0  0  0  0
 29 24  1  0  0  0  0
 29 30  2  0  0  0  0
 30 35  1  0  0  0  0
 31 30  1  0  0  0  0
 31 36  1  0  0  0  0
 32 31  2  0  0  0  0
 33 32  1  0  0  0  0
 34 28  2  0  0  0  0
 34 32  1  0  0  0  0
 37 34  1  0  0  0  0
M  END
>  <minimizedAffinity>
-5.72589731

$$$$

 OpenBabel03242515023D

 37 39  0  0  0  0  0  0  0  0999 V2000
   37.4070   25.8810   38.3180 C   0  0  0  0  0  0  0  0  0  0  0  0
   38.3270   25.7490   37.2720 C   0  0  0  0  0  0  0  0  0  0  0  0
   38.4430   26.7980   36.3630 C   0  0  0  0  0  0  0  0  0  0  0  0
   37.6500   27.9010   36.5430 N   0  0  0  0  0  0  0  0  0  0  0  0
   36.7750   28.0020   37.5560 C   0  0  0  0  0  0  0  0  0  0  0  0
   36.6650   26.9870   38.4310 N   0  0  0  0  0  0  0  0  0  0  0  0
   38.9750   24.9010   37.0860 H   0  0  0  0  0  0  0  0  0  0  0  0
   39.1460   26.7350   35.5360 H   0  0  0  0  0  0  0  0  0  0  0  0
   35.9810   29.2090   37.6630 C   0  0  0  0  0  0  0  0  0  0  0  0
   34.9600   29.3170   36.9420 O   0  0  0  0  0  0  0  0  0  0  0  0
   35.0220   29.0020   40.5540 Cl  0  0  0  0  0  0  0  0  0  0  0  0
   36.0650   30.2800   39.9450 C   0  0  0  0  0  0  0  0  0  0  0  0
   36.4140   30.2390   38.6110 C   0  0  0  0  0  0  0  0  0  0  0  0
   37.2380   31.2190   38.0560 C   0  0  0  0  0  0  0  0  0  0  0  0
   37.5460   31.2360   37.0080 H   0  0  0  0  0  0  0  0  0  0  0  0
   37.7300   32.2600   38.8260 C   0  0  0  0  0  0  0  0  0  0  0  0
   38.3730   33.0460   38.4460 H   0  0  0  0  0  0  0  0  0  0  0  0
   37.3580   32.2670   40.1590 C   0  0  0  0  0  3  0  0  0  0  0  0
   36.5370   31.3080   40.7520 C   0  0  0  0  0  3  0  0  0  0  0  0
   37.3030   24.4970   39.4570 S   0  0  0  0  0  0  0  0  0  0  0  0
   37.9870   24.8750   41.0660 C   0  0  0  0  0  0  0  0  0  0  0  0
   39.0180   25.3290   41.0120 H   0  0  0  0  0  0  0  0  0  0  0  0
   38.1030   23.9210   41.6330 H   0  0  0  0  0  0  0  0  0  0  0  0
   37.1370   25.8060   41.8760 C   0  0  0  0  0  0  0  0  0  0  0  0
   36.8950   25.4270   42.8860 H   0  0  0  0  0  0  0  0  0  0  0  0
   36.1790   26.0220   41.3560 H   0  0  0  0  0  0  0  0  0  0  0  0
   36.2300   27.4650   44.2540 Cl  0  0  0  0  0  0  0  0  0  0  0  0
   37.4790   27.9550   43.1380 C   0  0  0  0  0  0  0  0  0  0  0  0
   37.8180   27.1120   42.0750 C   0  0  0  0  0  0  0  0  0  0  0  0
   38.8150   27.5650   41.2330 C   0  0  0  0  0  0  0  0  0  0  0  0
   39.4930   28.7610   41.3510 C   0  0  0  0  0  0  0  0  0  0  0  0
   39.1320   29.5670   42.4090 C   0  0  0  0  0  0  0  0  0  0  0  0
   39.9540   31.1200   42.6290 Cl  0  0  0  0  0  0  0  0  0  0  0  0
   38.1450   29.1660   43.2800 C   0  0  0  0  0  0  0  0  0  0  0  0
   39.0480   26.8850   40.4250 H   0  0  0  0  0  0  0  0  0  0  0  0
   40.2670   29.0260   40.6280 H   0  0  0  0  0  0  0  0  0  0  0  0
   37.9050   29.8400   44.0940 H   0  0  0  0  0  0  0  0  0  0  0  0
  1  6  1  0  0  0  0
  1 20  1  0  0  0  0
  2  1  2  0  0  0  0
  3  4  2  0  0  0  0
  3  2  1  0  0  0  0
  4  5  1  0  0  0  0
  5  9  1  0  0  0  0
  5  6  2  0  0  0  0
  7  2  1  0  0  0  0
  8  3  1  0  0  0  0
  9 13  1  0  0  0  0
 10  9  2  0  0  0  0
 12 11  1  0  0  0  0
 12 19  1  0  0  0  0
 13 12  2  0  0  0  0
 14 13  1  0  0  0  0
 14 16  2  0  0  0  0
 15 14  1  0  0  0  0
 16 18  1  0  0  0  0
 17 16  1  0  0  0  0
 18 19  2  0  0  0  0
 20 21  1  0  0  0  0
 21 23  1  0  0  0  0
 21 24  1  0  0  0  0
 22 21  1  0  0  0  0
 24 29  1  0  0  0  0
 24 25  1  0  0  0  0
 26 24  1  0  0  0  0
 28 34  1  0  0  0  0
 28 27  1  0  0  0  0
 29 28  2  0  0  0  0
 30 31  2  0  0  0  0
 30 29  1  0  0  0  0
 31 32  1  0  0  0  0
 32 33  1  0  0  0  0
 32 34  2  0  0  0  0
 34 37  1  0  0  0  0
 35 30  1  0  0  0  0
 36 31  1  0  0  0  0
M  END
>  <minimizedAffinity>
-5.6910491

$$$$
