
 OpenBabel03242516523D

 45 48  0  0  1  0  0  0  0  0999 V2000
   47.8030   32.8230   41.7010 C   0  0  1  0  0  0  0  0  0  0  0  0
   47.4200   32.1400   40.4630 C   0  0  0  0  0  0  0  0  0  0  0  0
   48.4150   32.5820   39.3920 C   0  0  0  0  0  0  0  0  0  0  0  0
   48.1190   34.0410   39.1050 C   0  0  0  0  0  0  0  0  0  0  0  0
   48.1120   34.9180   40.3250 C   0  0  0  0  0  0  0  0  0  0  0  0
   47.6340   34.3410   41.5850 C   0  0  1  0  0  0  0  0  0  0  0  0
   48.9230   32.7160   41.8360 H   0  0  0  0  0  0  0  0  0  0  0  0
   46.4130   32.3640   40.1120 H   0  0  0  0  0  0  0  0  0  0  0  0
   47.5710   31.0380   40.6120 H   0  0  0  0  0  0  0  0  0  0  0  0
   48.1730   32.0440   38.4420 H   0  0  0  0  0  0  0  0  0  0  0  0
   49.4530   32.4230   39.7200 H   0  0  0  0  0  0  0  0  0  0  0  0
   47.1460   34.0670   38.5580 H   0  0  0  0  0  0  0  0  0  0  0  0
   48.8820   34.4150   38.3850 H   0  0  0  0  0  0  0  0  0  0  0  0
   49.1400   35.3490   40.4230 H   0  0  0  0  0  0  0  0  0  0  0  0
   47.4650   35.8020   40.0740 H   0  0  0  0  0  0  0  0  0  0  0  0
   48.2710   34.7520   42.4280 H   0  0  0  0  0  0  0  0  0  0  0  0
   45.4050   31.0170   44.0040 C   0  0  0  0  0  0  0  0  0  0  0  0
   46.0670   31.5060   42.8710 C   0  0  0  0  0  0  0  0  0  0  0  0
   47.1770   32.3540   42.9200 C   0  0  0  0  0  0  0  0  0  0  0  0
   47.5980   32.6930   44.1440 N   0  0  0  0  0  0  0  0  0  0  0  0
   46.9690   32.2280   45.2570 C   0  0  0  0  0  0  0  0  0  0  0  0
   45.9080   31.4180   45.2000 N   0  0  0  0  0  0  0  0  0  0  0  0
   44.5660   30.3750   43.8810 H   0  0  0  0  0  0  0  0  0  0  0  0
   45.7000   31.2120   41.8940 H   0  0  0  0  0  0  0  0  0  0  0  0
   47.3510   32.5340   46.2370 H   0  0  0  0  0  0  0  0  0  0  0  0
   46.2750   34.7620   41.9250 C   0  0  0  0  0  0  0  0  0  0  0  0
   45.8800   35.4170   43.0900 C   0  0  0  0  0  0  0  0  0  0  0  0
   44.5260   35.7360   43.1850 C   0  0  0  0  0  0  0  0  0  0  0  0
   43.6970   35.3860   42.1410 C   0  0  0  0  0  0  0  0  0  0  0  0
   44.1080   34.7330   40.9870 C   0  0  0  0  0  0  0  0  0  0  0  0
   45.4340   34.4300   40.9120 N   0  0  0  0  0  0  0  0  0  0  0  0
   46.6560   35.6190   43.8150 H   0  0  0  0  0  0  0  0  0  0  0  0
   44.2230   36.2390   44.0790 H   0  0  0  0  0  0  0  0  0  0  0  0
   42.6570   35.6710   42.2920 H   0  0  0  0  0  0  0  0  0  0  0  0
   43.1430   34.4100   39.9450 C   0  0  0  0  0  0  0  0  0  0  0  0
   42.6560   35.3520   39.2730 O   0  0  0  0  0  0  0  0  0  0  0  0
   44.7210   33.1760   37.8030 Cl  0  0  0  0  0  0  0  0  0  0  0  0
   43.2170   32.4830   38.4300 C   0  0  0  0  0  0  0  0  0  0  0  0
   42.5550   33.1750   39.4540 C   0  0  0  0  0  0  0  0  0  0  0  0
   41.4120   32.5820   39.8820 C   0  0  0  0  0  0  0  0  0  0  0  0
   40.8730   33.0560   40.6650 H   0  0  0  0  0  0  0  0  0  0  0  0
   40.8820   31.4040   39.4020 C   0  0  0  0  0  0  0  0  0  0  0  0
   39.9650   30.9920   39.7930 H   0  0  0  0  0  0  0  0  0  0  0  0
   41.5770   30.7700   38.3950 C   0  0  0  0  0  3  0  0  0  0  0  0
   42.7490   31.2840   37.8860 C   0  0  0  0  0  3  0  0  0  0  0  0
  1  7  1  1  0  0  0
  1 19  1  0  0  0  0
  2  9  1  0  0  0  0
  2  1  1  0  0  0  0
  3 11  1  0  0  0  0
  3  2  1  0  0  0  0
  4  3  1  0  0  0  0
  4  5  1  0  0  0  0
  5 14  1  0  0  0  0
  5  6  1  0  0  0  0
  6  1  1  0  0  0  0
  6 26  1  0  0  0  0
  6 16  1  1  0  0  0
  8  2  1  0  0  0  0
 10  3  1  0  0  0  0
 12  4  1  0  0  0  0
 13  4  1  0  0  0  0
 15  5  1  0  0  0  0
 17 22  1  0  0  0  0
 18 19  1  0  0  0  0
 18 17  2  0  0  0  0
 19 20  2  0  0  0  0
 20 21  1  0  0  0  0
 21 25  1  0  0  0  0
 22 21  2  0  0  0  0
 23 17  1  0  0  0  0
 24 18  1  0  0  0  0
 26 27  1  0  0  0  0
 27 28  2  0  0  0  0
 27 32  1  0  0  0  0
 28 33  1  0  0  0  0
 29 34  1  0  0  0  0
 29 28  1  0  0  0  0
 30 29  2  0  0  0  0
 31 30  1  0  0  0  0
 31 26  2  0  0  0  0
 35 30  1  0  0  0  0
 36 35  2  0  0  0  0
 37 38  1  0  0  0  0
 38 39  1  0  0  0  0
 39 40  2  0  0  0  0
 39 35  1  0  0  0  0
 40 41  1  0  0  0  0
 42 43  1  0  0  0  0
 42 40  1  0  0  0  0
 44 42  2  0  0  0  0
 45 44  1  0  0  0  0
 45 38  2  0  0  0  0
M  END
>  <minimizedAffinity>
-5.44262838

>  <minimizedRMSD>
0.653872848

$$$$
