
 OpenBabel03242516523D

 45 48  0  0  1  0  0  0  0  0999 V2000
   47.8410   32.8900   41.8380 C   0  0  1  0  0  0  0  0  0  0  0  0
   47.5100   32.2550   40.5600 C   0  0  0  0  0  0  0  0  0  0  0  0
   48.5220   32.7680   39.5390 C   0  0  0  0  0  0  0  0  0  0  0  0
   48.1980   34.2310   39.3080 C   0  0  0  0  0  0  0  0  0  0  0  0
   48.1350   35.0520   40.5650 C   0  0  0  0  0  0  0  0  0  0  0  0
   47.6380   34.4080   41.7850 C   0  0  1  0  0  0  0  0  0  0  0  0
   48.9590   32.8040   42.0000 H   0  0  0  0  0  0  0  0  0  0  0  0
   46.5070   32.4710   40.1910 H   0  0  0  0  0  0  0  0  0  0  0  0
   47.6840   31.1520   40.6650 H   0  0  0  0  0  0  0  0  0  0  0  0
   48.3200   32.2680   38.5600 H   0  0  0  0  0  0  0  0  0  0  0  0
   49.5550   32.6190   39.8890 H   0  0  0  0  0  0  0  0  0  0  0  0
   47.2400   34.2580   38.7360 H   0  0  0  0  0  0  0  0  0  0  0  0
   48.9710   34.6550   38.6280 H   0  0  0  0  0  0  0  0  0  0  0  0
   49.1500   35.5020   40.7120 H   0  0  0  0  0  0  0  0  0  0  0  0
   47.4740   35.9310   40.3360 H   0  0  0  0  0  0  0  0  0  0  0  0
   48.2420   34.7950   42.6620 H   0  0  0  0  0  0  0  0  0  0  0  0
   45.4150   30.9420   43.9900 C   0  0  0  0  0  0  0  0  0  0  0  0
   46.0960   31.4960   42.8990 C   0  0  0  0  0  0  0  0  0  0  0  0
   47.1940   32.3530   43.0170 C   0  0  0  0  0  0  0  0  0  0  0  0
   47.5840   32.6320   44.2660 N   0  0  0  0  0  0  0  0  0  0  0  0
   46.9360   32.1040   45.3390 C   0  0  0  0  0  0  0  0  0  0  0  0
   45.8860   31.2860   45.2160 N   0  0  0  0  0  0  0  0  0  0  0  0
   44.5860   30.2980   43.8160 H   0  0  0  0  0  0  0  0  0  0  0  0
   45.7540   31.2490   41.9000 H   0  0  0  0  0  0  0  0  0  0  0  0
   47.2920   32.3630   46.3420 H   0  0  0  0  0  0  0  0  0  0  0  0
   46.2600   34.7810   42.1040 C   0  0  0  0  0  0  0  0  0  0  0  0
   45.8150   35.3580   43.2910 C   0  0  0  0  0  0  0  0  0  0  0  0
   44.4520   35.6440   43.3610 C   0  0  0  0  0  0  0  0  0  0  0  0
   43.6640   35.3390   42.2720 C   0  0  0  0  0  0  0  0  0  0  0  0
   44.1250   34.7630   41.0960 C   0  0  0  0  0  0  0  0  0  0  0  0
   45.4580   34.4920   41.0470 N   0  0  0  0  0  0  0  0  0  0  0  0
   46.5630   35.5340   44.0510 H   0  0  0  0  0  0  0  0  0  0  0  0
   44.1100   36.0880   44.2720 H   0  0  0  0  0  0  0  0  0  0  0  0
   42.6130   35.5930   42.4060 H   0  0  0  0  0  0  0  0  0  0  0  0
   43.1990   34.4820   40.0070 C   0  0  0  0  0  0  0  0  0  0  0  0
   42.5910   35.4450   39.4800 O   0  0  0  0  0  0  0  0  0  0  0  0
   40.8650   33.2350   41.2750 Cl  0  0  0  0  0  0  0  0  0  0  0  0
   41.6590   32.5810   39.8330 C   0  0  0  0  0  0  0  0  0  0  0  0
   42.7700   33.2710   39.3270 C   0  0  0  0  0  0  0  0  0  0  0  0
   43.3220   32.7090   38.2210 C   0  0  0  0  0  0  0  0  0  0  0  0
   44.1610   33.1950   37.7870 H   0  0  0  0  0  0  0  0  0  0  0  0
   42.8870   31.5630   37.5940 C   0  0  0  0  0  0  0  0  0  0  0  0
   43.3780   31.1750   36.7160 H   0  0  0  0  0  0  0  0  0  0  0  0
   41.7900   30.9280   38.1370 C   0  0  0  0  0  3  0  0  0  0  0  0
   41.1520   31.4120   39.2580 C   0  0  0  0  0  3  0  0  0  0  0  0
  1  7  1  1  0  0  0
  1 19  1  0  0  0  0
  2  9  1  0  0  0  0
  2  1  1  0  0  0  0
  3 11  1  0  0  0  0
  3  2  1  0  0  0  0
  4  3  1  0  0  0  0
  4  5  1  0  0  0  0
  5 14  1  0  0  0  0
  5  6  1  0  0  0  0
  6  1  1  0  0  0  0
  6 26  1  0  0  0  0
  6 16  1  1  0  0  0
  8  2  1  0  0  0  0
 10  3  1  0  0  0  0
 12  4  1  0  0  0  0
 13  4  1  0  0  0  0
 15  5  1  0  0  0  0
 17 22  1  0  0  0  0
 18 19  1  0  0  0  0
 18 17  2  0  0  0  0
 19 20  2  0  0  0  0
 20 21  1  0  0  0  0
 21 25  1  0  0  0  0
 22 21  2  0  0  0  0
 23 17  1  0  0  0  0
 24 18  1  0  0  0  0
 26 27  1  0  0  0  0
 27 28  2  0  0  0  0
 27 32  1  0  0  0  0
 28 33  1  0  0  0  0
 29 34  1  0  0  0  0
 29 28  1  0  0  0  0
 30 29  2  0  0  0  0
 31 30  1  0  0  0  0
 31 26  2  0  0  0  0
 35 30  1  0  0  0  0
 36 35  2  0  0  0  0
 38 37  1  0  0  0  0
 39 38  1  0  0  0  0
 39 35  1  0  0  0  0
 40 39  2  0  0  0  0
 41 40  1  0  0  0  0
 42 44  2  0  0  0  0
 42 40  1  0  0  0  0
 43 42  1  0  0  0  0
 44 45  1  0  0  0  0
 45 38  2  0  0  0  0
M  END
>  <minimizedAffinity>
-5.60155582

>  <minimizedRMSD>
0.458398491

$$$$
