
 OpenBabel03252507433D

 31 33  0  0  0  0  0  0  0  0999 V2000
   46.2840   34.8330   42.0640 C   0  0  0  0  0  0  0  0  0  0  0  0
   46.6410   35.8770   42.2840 H   0  0  0  0  0  0  0  0  0  0  0  0
   46.4990   34.2640   42.9960 H   0  0  0  0  0  0  0  0  0  0  0  0
   44.8240   34.8570   41.7800 C   0  0  0  0  0  0  0  0  0  0  0  0
   43.9840   35.8140   42.4600 C   0  0  0  0  0  0  0  0  0  0  0  0
   42.3220   35.4160   41.7540 S   0  0  0  0  0  0  0  0  0  0  0  0
   43.0670   34.0540   40.6910 C   0  0  0  0  0  0  0  0  0  0  0  0
   44.1680   34.0830   40.9490 N   0  0  0  0  0  0  0  0  0  0  0  0
   44.3010   36.5400   43.1760 H   0  0  0  0  0  0  0  0  0  0  0  0
   41.9600   35.4320   38.1780 Cl  0  0  0  0  0  0  0  0  0  0  0  0
   41.5810   33.8140   38.6740 C   0  0  0  0  0  0  0  0  0  0  0  0
   42.1130   33.2810   39.7980 C   0  0  0  0  0  0  0  0  0  0  0  0
   41.8850   32.0300   40.2780 C   0  0  0  0  0  0  0  0  0  0  0  0
   42.3200   31.6190   41.1790 H   0  0  0  0  0  0  0  0  0  0  0  0
   41.0330   31.2240   39.5540 C   0  0  0  0  0  0  0  0  0  0  0  0
   40.7730   30.2140   39.8290 H   0  0  0  0  0  0  0  0  0  0  0  0
   40.4600   31.7240   38.3930 C   0  0  0  0  0  3  0  0  0  0  0  0
   40.7110   33.0160   37.9210 C   0  0  0  0  0  3  0  0  0  0  0  0
   47.1160   34.3340   40.9240 C   0  0  0  0  0  0  0  0  0  0  0  0
   46.5640   33.5720   40.3860 H   0  0  0  0  0  0  0  0  0  0  0  0
   47.2050   35.1980   40.1990 H   0  0  0  0  0  0  0  0  0  0  0  0
   48.4640   33.8840   41.3200 C   0  0  0  0  0  0  0  0  0  0  0  0
   48.9160   32.6650   40.7790 C   0  0  0  0  0  0  0  0  0  0  0  0
   50.1730   32.2070   41.1230 C   0  0  0  0  0  0  0  0  0  0  0  0
   50.9330   32.9540   41.9790 N   0  0  0  0  0  0  0  0  0  0  0  0
   50.4640   34.1190   42.4760 C   0  0  0  0  0  0  0  0  0  0  0  0
   49.2610   34.5520   42.1420 N   0  0  0  0  0  0  0  0  0  0  0  0
   50.4840   31.2640   40.6860 H   0  0  0  0  0  0  0  0  0  0  0  0
   51.1510   34.6300   43.1440 H   0  0  0  0  0  0  0  0  0  0  0  0
   47.8580   31.7310   39.6570 S   0  0  0  0  0  0  0  0  0  0  0  0
   47.0710   30.8270   40.4010 H   0  0  0  0  0  0  0  0  0  0  0  0
  1  2  1  0  0  0  0
  1  3  1  0  0  0  0
  4  1  1  0  0  0  0
  4  5  2  0  0  0  0
  5  9  1  0  0  0  0
  6  5  1  0  0  0  0
  7  8  2  0  0  0  0
  7  6  1  0  0  0  0
  8  4  1  0  0  0  0
 10 11  1  0  0  0  0
 11 12  1  0  0  0  0
 12 13  2  0  0  0  0
 12  7  1  0  0  0  0
 13 14  1  0  0  0  0
 15 16  1  0  0  0  0
 15 13  1  0  0  0  0
 17 15  2  0  0  0  0
 18 17  1  0  0  0  0
 18 11  2  0  0  0  0
 19 22  1  0  0  0  0
 19  1  1  0  0  0  0
 20 19  1  0  0  0  0
 21 19  1  0  0  0  0
 22 27  1  0  0  0  0
 23 24  1  0  0  0  0
 23 22  2  0  0  0  0
 24 25  2  0  0  0  0
 25 26  1  0  0  0  0
 26 29  1  0  0  0  0
 27 26  2  0  0  0  0
 28 24  1  0  0  0  0
 30 31  1  0  0  0  0
 30 23  1  0  0  0  0
M  END
>  <minimizedAffinity>
-4.48100471

>  <minimizedRMSD>
1.47712183

$$$$
