
 OpenBabel03252507433D

 31 33  0  0  0  0  0  0  0  0999 V2000
   43.7670   34.5880   41.8110 C   0  0  0  0  0  0  0  0  0  0  0  0
   43.9640   35.6110   42.2370 H   0  0  0  0  0  0  0  0  0  0  0  0
   43.9250   33.8960   42.6680 H   0  0  0  0  0  0  0  0  0  0  0  0
   42.3640   34.5170   41.3200 C   0  0  0  0  0  0  0  0  0  0  0  0
   41.6130   35.7350   41.1380 C   0  0  0  0  0  0  0  0  0  0  0  0
   39.9910   35.0830   40.5330 S   0  0  0  0  0  0  0  0  0  0  0  0
   40.6280   33.3160   40.6390 C   0  0  0  0  0  0  0  0  0  0  0  0
   41.6880   33.4340   41.0150 N   0  0  0  0  0  0  0  0  0  0  0  0
   41.9600   36.7280   41.3240 H   0  0  0  0  0  0  0  0  0  0  0  0
   40.9010   32.0830   37.8370 Cl  0  0  0  0  0  0  0  0  0  0  0  0
   39.7180   31.6180   39.0190 C   0  0  0  0  0  0  0  0  0  0  0  0
   39.6670   32.2140   40.2330 C   0  0  0  0  0  0  0  0  0  0  0  0
   38.7860   31.9310   41.2280 C   0  0  0  0  0  0  0  0  0  0  0  0
   38.7580   32.4170   42.1940 H   0  0  0  0  0  0  0  0  0  0  0  0
   37.8560   30.9430   40.9820 C   0  0  0  0  0  0  0  0  0  0  0  0
   37.1050   30.6260   41.6890 H   0  0  0  0  0  0  0  0  0  0  0  0
   37.8670   30.3010   39.7520 C   0  0  0  0  0  3  0  0  0  0  0  0
   38.7840   30.6130   38.7440 C   0  0  0  0  0  3  0  0  0  0  0  0
   44.7950   34.3690   40.7450 C   0  0  0  0  0  0  0  0  0  0  0  0
   44.5170   33.5050   40.1520 H   0  0  0  0  0  0  0  0  0  0  0  0
   44.7070   35.2490   40.0390 H   0  0  0  0  0  0  0  0  0  0  0  0
   46.1770   34.2860   41.2550 C   0  0  0  0  0  0  0  0  0  0  0  0
   47.1400   33.7180   40.4000 C   0  0  0  0  0  0  0  0  0  0  0  0
   48.4470   33.6200   40.8380 C   0  0  0  0  0  0  0  0  0  0  0  0
   48.7570   34.0770   42.0880 N   0  0  0  0  0  0  0  0  0  0  0  0
   47.8040   34.6160   42.8790 C   0  0  0  0  0  0  0  0  0  0  0  0
   46.5550   34.7070   42.4530 N   0  0  0  0  0  0  0  0  0  0  0  0
   49.1590   33.1760   40.1500 H   0  0  0  0  0  0  0  0  0  0  0  0
   48.1610   34.9470   43.8490 H   0  0  0  0  0  0  0  0  0  0  0  0
   46.6600   33.1340   38.7640 S   0  0  0  0  0  0  0  0  0  0  0  0
   46.2870   31.7750   38.8430 H   0  0  0  0  0  0  0  0  0  0  0  0
  1  2  1  0  0  0  0
  1  3  1  0  0  0  0
  4  1  1  0  0  0  0
  5  4  2  0  0  0  0
  5  9  1  0  0  0  0
  6  7  1  0  0  0  0
  6  5  1  0  0  0  0
  7  8  2  0  0  0  0
  8  4  1  0  0  0  0
 10 11  1  0  0  0  0
 11 12  1  0  0  0  0
 12  7  1  0  0  0  0
 12 13  2  0  0  0  0
 13 14  1  0  0  0  0
 15 13  1  0  0  0  0
 15 16  1  0  0  0  0
 17 15  2  0  0  0  0
 18 11  2  0  0  0  0
 18 17  1  0  0  0  0
 19 22  1  0  0  0  0
 19  1  1  0  0  0  0
 20 19  1  0  0  0  0
 21 19  1  0  0  0  0
 22 27  1  0  0  0  0
 23 24  1  0  0  0  0
 23 22  2  0  0  0  0
 24 25  2  0  0  0  0
 25 26  1  0  0  0  0
 26 29  1  0  0  0  0
 27 26  2  0  0  0  0
 28 24  1  0  0  0  0
 30 31  1  0  0  0  0
 30 23  1  0  0  0  0
M  END
>  <minimizedAffinity>
-4.7593379

>  <minimizedRMSD>
3.13095522

$$$$
