
 OpenBabel03242523253D

 43 46  0  0  1  0  0  0  0  0999 V2000
   37.7860   30.0080   41.2650 C   0  0  0  0  0  0  0  0  0  0  0  0
   36.9820   29.0400   41.7020 C   0  0  0  0  0  0  0  0  0  0  0  0
   36.0080   28.6500   40.8070 C   0  0  0  0  0  0  0  0  0  0  0  0
   35.9550   29.2930   39.5600 N   0  0  0  0  0  0  0  0  0  0  0  0
   36.7840   30.2450   39.1990 C   0  0  0  0  0  0  0  0  0  0  0  0
   37.7680   30.6580   40.0650 N   0  0  0  0  0  0  0  0  0  0  0  0
   35.2650   27.8820   40.9780 H   0  0  0  0  0  0  0  0  0  0  0  0
   36.5970   30.6270   38.2000 H   0  0  0  0  0  0  0  0  0  0  0  0
   36.9570   28.4540   42.9940 C   0  0  1  0  0  0  0  0  0  0  0  0
   36.3160   27.3440   43.4200 C   0  0  0  0  0  0  0  0  0  0  0  0
   37.8260   27.2260   43.2980 C   0  0  1  0  0  0  0  0  0  0  0  0
   36.9560   29.2370   43.7790 H   0  0  0  0  0  0  0  0  0  0  0  0
   35.9750   27.0720   44.4680 H   0  0  0  0  0  0  0  0  0  0  0  0
   35.6240   26.8160   42.7290 H   0  0  0  0  0  0  0  0  0  0  0  0
   38.4140   27.3400   44.2320 H   0  0  0  0  0  0  0  0  0  0  0  0
   40.5910   26.9200   41.7850 Cl  0  0  0  0  0  0  0  0  0  0  0  0
   39.2570   25.8290   41.6780 C   0  0  0  0  0  0  0  0  0  0  0  0
   38.1460   26.1330   42.4520 C   0  0  0  0  0  0  0  0  0  0  0  0
   37.1600   25.1330   42.3010 C   0  0  0  0  0  0  0  0  0  0  0  0
   36.2090   25.2230   42.8520 H   0  0  0  0  0  0  0  0  0  0  0  0
   37.2540   24.0100   41.5100 C   0  0  0  0  0  0  0  0  0  0  0  0
   36.4490   23.2970   41.4550 H   0  0  0  0  0  0  0  0  0  0  0  0
   38.3940   23.8270   40.7980 C   0  0  0  0  0  3  0  0  0  0  0  0
   39.4100   24.7420   40.8790 C   0  0  0  0  0  3  0  0  0  0  0  0
   38.9480   30.5770   41.9820 C   0  0  0  0  0  0  0  0  0  0  0  0
   39.7570   30.6240   42.8630 O   0  0  0  0  0  0  0  0  0  0  0  0
   41.5250   30.3650   40.2990 Cl  0  0  0  0  0  0  0  0  0  0  0  0
   40.5920   31.8540   40.4250 C   0  0  0  0  0  0  0  0  0  0  0  0
   39.4230   31.7780   41.2250 C   0  0  0  0  0  0  0  0  0  0  0  0
   38.7850   33.0000   41.2390 C   0  0  0  0  0  0  0  0  0  0  0  0
   39.0870   34.1510   40.6580 C   0  0  0  0  0  0  0  0  0  0  0  0
   40.2360   34.1420   39.9020 C   0  0  0  0  0  0  0  0  0  0  0  0
   40.9890   33.0140   39.7770 C   0  0  0  0  0  0  0  0  0  0  0  0
   37.8260   33.0650   41.8080 H   0  0  0  0  0  0  0  0  0  0  0  0
   38.5120   35.0690   40.7350 H   0  0  0  0  0  0  0  0  0  0  0  0
   40.5290   35.0830   39.3990 H   0  0  0  0  0  0  0  0  0  0  0  0
   42.1040   33.1370   38.9960 O   0  0  0  0  0  0  0  0  0  0  0  0
   43.3800   31.6890   37.2220 O   0  0  0  0  0  0  0  0  0  0  0  0
   42.3440   32.7790   37.3680 P   0  0  0  0  0  0  0  0  0  0  0  0
   40.8640   32.3110   36.6790 O   0  0  0  0  0  0  0  0  0  0  0  0
   40.6060   31.4490   37.0680 H   0  0  0  0  0  0  0  0  0  0  0  0
   42.8210   34.1610   36.5020 O   0  0  0  0  0  0  0  0  0  0  0  0
   43.1260   34.8860   37.0950 H   0  0  0  0  0  0  0  0  0  0  0  0
  1  2  1  0  0  0  0
  1 25  1  0  0  0  0
  2  9  1  0  0  0  0
  3  7  1  0  0  0  0
  3  2  2  0  0  0  0
  4  3  1  0  0  0  0
  5  4  2  0  0  0  0
  5  6  1  0  0  0  0
  6  1  2  0  0  0  0
  8  5  1  0  0  0  0
  9 11  1  0  0  0  0
  9 10  1  0  0  0  0
  9 12  1  1  0  0  0
 10 13  1  0  0  0  0
 11 10  1  0  0  0  0
 11 15  1  1  0  0  0
 14 10  1  0  0  0  0
 17 16  1  0  0  0  0
 17 18  1  0  0  0  0
 18 11  1  0  0  0  0
 19 18  2  0  0  0  0
 19 20  1  0  0  0  0
 21 19  1  0  0  0  0
 22 21  1  0  0  0  0
 23 24  1  0  0  0  0
 23 21  2  0  0  0  0
 24 17  2  0  0  0  0
 25 26  2  0  0  0  0
 27 28  1  0  0  0  0
 28 29  1  0  0  0  0
 29 30  2  0  0  0  0
 29 25  1  0  0  0  0
 30 34  1  0  0  0  0
 31 35  1  0  0  0  0
 31 30  1  0  0  0  0
 32 31  2  0  0  0  0
 33 32  1  0  0  0  0
 33 28  2  0  0  0  0
 36 32  1  0  0  0  0
 37 33  1  0  0  0  0
 38 39  2  0  0  0  0
 39 37  1  0  0  0  0
 40 41  1  0  0  0  0
 40 39  1  0  0  0  0
 42 43  1  0  0  0  0
 42 39  1  0  0  0  0
M  END
>  <minimizedAffinity>
-7.17811728

$$$$

 OpenBabel03242523253D

 43 46  0  0  1  0  0  0  0  0999 V2000
   36.9020   29.0330   40.1510 C   0  0  0  0  0  0  0  0  0  0  0  0
   36.8790   27.9160   40.8770 C   0  0  0  0  0  0  0  0  0  0  0  0
   37.0630   26.7550   40.1570 C   0  0  0  0  0  0  0  0  0  0  0  0
   37.2480   26.8560   38.7690 N   0  0  0  0  0  0  0  0  0  0  0  0
   37.2560   27.9970   38.1190 C   0  0  0  0  0  0  0  0  0  0  0  0
   37.0780   29.1740   38.8050 N   0  0  0  0  0  0  0  0  0  0  0  0
   37.0770   25.7540   40.5680 H   0  0  0  0  0  0  0  0  0  0  0  0
   37.4120   27.8850   37.0500 H   0  0  0  0  0  0  0  0  0  0  0  0
   36.5910   27.7900   42.2610 C   0  0  1  0  0  0  0  0  0  0  0  0
   36.5640   26.6830   43.0340 C   0  0  0  0  0  0  0  0  0  0  0  0
   37.7340   27.6220   43.2710 C   0  0  1  0  0  0  0  0  0  0  0  0
   35.7970   28.5030   42.5620 H   0  0  0  0  0  0  0  0  0  0  0  0
   35.9950   26.4980   43.9980 H   0  0  0  0  0  0  0  0  0  0  0  0
   36.6930   25.6860   42.5610 H   0  0  0  0  0  0  0  0  0  0  0  0
   37.6510   28.3200   44.1300 H   0  0  0  0  0  0  0  0  0  0  0  0
   37.8900   24.5370   42.5730 Cl  0  0  0  0  0  0  0  0  0  0  0  0
   39.2400   25.5730   42.8690 C   0  0  0  0  0  0  0  0  0  0  0  0
   38.9500   26.9060   43.1260 C   0  0  0  0  0  0  0  0  0  0  0  0
   40.1470   27.6380   43.2990 C   0  0  0  0  0  0  0  0  0  0  0  0
   40.0940   28.7190   43.5120 H   0  0  0  0  0  0  0  0  0  0  0  0
   41.4260   27.1340   43.2320 C   0  0  0  0  0  0  0  0  0  0  0  0
   42.2840   27.7690   43.3780 H   0  0  0  0  0  0  0  0  0  0  0  0
   41.5760   25.8110   42.9750 C   0  0  0  0  0  3  0  0  0  0  0  0
   40.4750   25.0170   42.7900 C   0  0  0  0  0  3  0  0  0  0  0  0
   36.7940   30.4170   40.6620 C   0  0  0  0  0  0  0  0  0  0  0  0
   36.2030   31.3800   41.0560 O   0  0  0  0  0  0  0  0  0  0  0  0
   37.8170   32.2710   38.4170 Cl  0  0  0  0  0  0  0  0  0  0  0  0
   38.8000   31.8350   39.8130 C   0  0  0  0  0  0  0  0  0  0  0  0
   38.1750   30.9880   40.7620 C   0  0  0  0  0  0  0  0  0  0  0  0
   39.0420   30.7270   41.8010 C   0  0  0  0  0  0  0  0  0  0  0  0
   40.2870   31.1220   42.0220 C   0  0  0  0  0  0  0  0  0  0  0  0
   40.8220   31.9400   41.0540 C   0  0  0  0  0  0  0  0  0  0  0  0
   40.0980   32.3010   39.9570 C   0  0  0  0  0  0  0  0  0  0  0  0
   38.6560   30.0960   42.6390 H   0  0  0  0  0  0  0  0  0  0  0  0
   40.8930   30.8540   42.8820 H   0  0  0  0  0  0  0  0  0  0  0  0
   41.8610   32.2940   41.1950 H   0  0  0  0  0  0  0  0  0  0  0  0
   40.7440   33.1190   39.0730 O   0  0  0  0  0  0  0  0  0  0  0  0
   42.7920   31.8470   38.0420 O   0  0  0  0  0  0  0  0  0  0  0  0
   41.6320   32.7490   37.6900 P   0  0  0  0  0  0  0  0  0  0  0  0
   40.6080   32.0130   36.5530 O   0  0  0  0  0  0  0  0  0  0  0  0
   40.3490   31.1340   36.9020 H   0  0  0  0  0  0  0  0  0  0  0  0
   42.1970   34.1610   36.9310 O   0  0  0  0  0  0  0  0  0  0  0  0
   42.1470   34.9480   37.5220 H   0  0  0  0  0  0  0  0  0  0  0  0
  1 25  1  0  0  0  0
  1  2  1  0  0  0  0
  2  9  1  0  0  0  0
  3  7  1  0  0  0  0
  3  2  2  0  0  0  0
  4  3  1  0  0  0  0
  5  4  2  0  0  0  0
  5  6  1  0  0  0  0
  6  1  2  0  0  0  0
  8  5  1  0  0  0  0
  9 12  1  1  0  0  0
  9 10  1  0  0  0  0
  9 11  1  0  0  0  0
 10 11  1  0  0  0  0
 10 13  1  0  0  0  0
 11 15  1  1  0  0  0
 14 10  1  0  0  0  0
 16 17  1  0  0  0  0
 17 18  1  0  0  0  0
 18 11  1  0  0  0  0
 18 19  2  0  0  0  0
 19 20  1  0  0  0  0
 21 19  1  0  0  0  0
 21 22  1  0  0  0  0
 23 21  2  0  0  0  0
 24 17  2  0  0  0  0
 24 23  1  0  0  0  0
 25 29  1  0  0  0  0
 25 26  2  0  0  0  0
 27 28  1  0  0  0  0
 28 33  2  0  0  0  0
 28 29  1  0  0  0  0
 29 30  2  0  0  0  0
 30 31  1  0  0  0  0
 30 34  1  0  0  0  0
 31 35  1  0  0  0  0
 32 36  1  0  0  0  0
 32 31  2  0  0  0  0
 33 32  1  0  0  0  0
 37 33  1  0  0  0  0
 39 38  2  0  0  0  0
 39 37  1  0  0  0  0
 40 41  1  0  0  0  0
 40 39  1  0  0  0  0
 42 43  1  0  0  0  0
 42 39  1  0  0  0  0
M  END
>  <minimizedAffinity>
-6.99292326

$$$$

 OpenBabel03242523253D

 43 46  0  0  1  0  0  0  0  0999 V2000
   36.0150   27.3650   39.4550 C   0  0  0  0  0  0  0  0  0  0  0  0
   36.6630   27.0330   40.5700 C   0  0  0  0  0  0  0  0  0  0  0  0
   37.4200   25.8850   40.4790 C   0  0  0  0  0  0  0  0  0  0  0  0
   37.4330   25.1930   39.2580 N   0  0  0  0  0  0  0  0  0  0  0  0
   36.7640   25.5810   38.1970 C   0  0  0  0  0  0  0  0  0  0  0  0
   36.0000   26.7220   38.2510 N   0  0  0  0  0  0  0  0  0  0  0  0
   38.0150   25.4570   41.2750 H   0  0  0  0  0  0  0  0  0  0  0  0
   36.8910   24.9250   37.3400 H   0  0  0  0  0  0  0  0  0  0  0  0
   36.5780   27.6630   41.8390 C   0  0  1  0  0  0  0  0  0  0  0  0
   37.0240   27.2350   43.0400 C   0  0  0  0  0  0  0  0  0  0  0  0
   37.8000   28.3860   42.4210 C   0  0  1  0  0  0  0  0  0  0  0  0
   35.6160   28.2040   41.9440 H   0  0  0  0  0  0  0  0  0  0  0  0
   36.6590   27.5100   44.0780 H   0  0  0  0  0  0  0  0  0  0  0  0
   37.4530   26.2150   43.1290 H   0  0  0  0  0  0  0  0  0  0  0  0
   37.5600   29.4060   42.7860 H   0  0  0  0  0  0  0  0  0  0  0  0
   39.5590   28.8340   39.8260 Cl  0  0  0  0  0  0  0  0  0  0  0  0
   40.0980   28.1010   41.2940 C   0  0  0  0  0  0  0  0  0  0  0  0
   39.1710   28.0320   42.3260 C   0  0  0  0  0  0  0  0  0  0  0  0
   39.7640   27.4570   43.4720 C   0  0  0  0  0  0  0  0  0  0  0  0
   39.1600   27.3300   44.3870 H   0  0  0  0  0  0  0  0  0  0  0  0
   41.0630   27.0180   43.5830 C   0  0  0  0  0  0  0  0  0  0  0  0
   41.4310   26.5900   44.5010 H   0  0  0  0  0  0  0  0  0  0  0  0
   41.8710   27.1390   42.5000 C   0  0  0  0  0  3  0  0  0  0  0  0
   41.3880   27.6860   41.3410 C   0  0  0  0  0  3  0  0  0  0  0  0
   35.1830   28.5710   39.2450 C   0  0  0  0  0  0  0  0  0  0  0  0
   34.1670   29.2020   39.2810 O   0  0  0  0  0  0  0  0  0  0  0  0
   36.0180   30.9670   41.0010 Cl  0  0  0  0  0  0  0  0  0  0  0  0
   36.5020   30.8100   39.3140 C   0  0  0  0  0  0  0  0  0  0  0  0
   36.0490   29.6400   38.6540 C   0  0  0  0  0  0  0  0  0  0  0  0
   36.4960   29.6350   37.3500 C   0  0  0  0  0  0  0  0  0  0  0  0
   37.2310   30.5040   36.6740 C   0  0  0  0  0  0  0  0  0  0  0  0
   37.6290   31.6120   37.3850 C   0  0  0  0  0  0  0  0  0  0  0  0
   37.2770   31.7760   38.6910 C   0  0  0  0  0  0  0  0  0  0  0  0
   36.2350   28.7440   36.7270 H   0  0  0  0  0  0  0  0  0  0  0  0
   37.5300   30.4080   35.6350 H   0  0  0  0  0  0  0  0  0  0  0  0
   38.2440   32.3680   36.8600 H   0  0  0  0  0  0  0  0  0  0  0  0
   37.7380   32.9180   39.2840 O   0  0  0  0  0  0  0  0  0  0  0  0
   39.7470   31.8840   40.6130 O   0  0  0  0  0  0  0  0  0  0  0  0
   39.1340   33.1960   40.1840 P   0  0  0  0  0  0  0  0  0  0  0  0
   40.2240   34.1040   39.2510 O   0  0  0  0  0  0  0  0  0  0  0  0
   40.5360   33.5400   38.5130 H   0  0  0  0  0  0  0  0  0  0  0  0
   38.8020   34.1600   41.5440 O   0  0  0  0  0  0  0  0  0  0  0  0
   37.8390   34.2020   41.7450 H   0  0  0  0  0  0  0  0  0  0  0  0
  1  2  1  0  0  0  0
  2  9  1  0  0  0  0
  3  2  2  0  0  0  0
  3  7  1  0  0  0  0
  4  3  1  0  0  0  0
  5  6  1  0  0  0  0
  5  4  2  0  0  0  0
  6  1  2  0  0  0  0
  8  5  1  0  0  0  0
  9 12  1  1  0  0  0
  9 11  1  0  0  0  0
  9 10  1  0  0  0  0
 10 14  1  0  0  0  0
 10 13  1  0  0  0  0
 11 15  1  1  0  0  0
 11 10  1  0  0  0  0
 16 17  1  0  0  0  0
 17 24  2  0  0  0  0
 17 18  1  0  0  0  0
 18 11  1  0  0  0  0
 18 19  2  0  0  0  0
 19 21  1  0  0  0  0
 19 20  1  0  0  0  0
 21 22  1  0  0  0  0
 23 21  2  0  0  0  0
 24 23  1  0  0  0  0
 25 26  2  0  0  0  0
 25  1  1  0  0  0  0
 28 27  1  0  0  0  0
 29 25  1  0  0  0  0
 29 28  2  0  0  0  0
 30 29  1  0  0  0  0
 31 30  2  0  0  0  0
 31 32  1  0  0  0  0
 32 33  2  0  0  0  0
 33 37  1  0  0  0  0
 33 28  1  0  0  0  0
 34 30  1  0  0  0  0
 35 31  1  0  0  0  0
 36 32  1  0  0  0  0
 37 39  1  0  0  0  0
 39 38  2  0  0  0  0
 39 42  1  0  0  0  0
 40 39  1  0  0  0  0
 41 40  1  0  0  0  0
 42 43  1  0  0  0  0
M  END
>  <minimizedAffinity>
-6.66409492

$$$$

 OpenBabel03242523253D

 43 46  0  0  1  0  0  0  0  0999 V2000
   38.9410   29.7710   40.9170 C   0  0  0  0  0  0  0  0  0  0  0  0
   39.3740   29.1750   42.0270 C   0  0  0  0  0  0  0  0  0  0  0  0
   40.6760   28.7250   41.9700 C   0  0  0  0  0  0  0  0  0  0  0  0
   41.3990   28.9290   40.7840 N   0  0  0  0  0  0  0  0  0  0  0  0
   40.9020   29.5260   39.7260 C   0  0  0  0  0  0  0  0  0  0  0  0
   39.6080   29.9890   39.7470 N   0  0  0  0  0  0  0  0  0  0  0  0
   41.2040   28.2190   42.7680 H   0  0  0  0  0  0  0  0  0  0  0  0
   41.6030   29.5970   38.8990 H   0  0  0  0  0  0  0  0  0  0  0  0
   38.6260   28.8700   43.1930 C   0  0  1  0  0  0  0  0  0  0  0  0
   37.3820   28.3540   43.3030 C   0  0  0  0  0  0  0  0  0  0  0  0
   38.5180   27.4180   43.6790 C   0  0  1  0  0  0  0  0  0  0  0  0
   38.8150   29.6200   43.9870 H   0  0  0  0  0  0  0  0  0  0  0  0
   36.6410   28.4500   44.1570 H   0  0  0  0  0  0  0  0  0  0  0  0
   36.7720   28.2050   42.3870 H   0  0  0  0  0  0  0  0  0  0  0  0
   38.7430   27.3110   44.7600 H   0  0  0  0  0  0  0  0  0  0  0  0
   40.9200   25.3980   43.2500 Cl  0  0  0  0  0  0  0  0  0  0  0  0
   39.3400   25.2460   42.5670 C   0  0  0  0  0  0  0  0  0  0  0  0
   38.4220   26.2290   42.9110 C   0  0  0  0  0  0  0  0  0  0  0  0
   37.1680   25.9480   42.3220 C   0  0  0  0  0  0  0  0  0  0  0  0
   36.3230   26.6350   42.4980 H   0  0  0  0  0  0  0  0  0  0  0  0
   36.8690   24.8710   41.5210 C   0  0  0  0  0  0  0  0  0  0  0  0
   35.8810   24.7360   41.1130 H   0  0  0  0  0  0  0  0  0  0  0  0
   37.8560   23.9790   41.2570 C   0  0  0  0  0  3  0  0  0  0  0  0
   39.1070   24.1640   41.7830 C   0  0  0  0  0  3  0  0  0  0  0  0
   37.6170   30.4010   40.7160 C   0  0  0  0  0  0  0  0  0  0  0  0
   36.7690   31.2210   40.9170 O   0  0  0  0  0  0  0  0  0  0  0  0
   37.2400   31.5740   37.8870 Cl  0  0  0  0  0  0  0  0  0  0  0  0
   36.5940   30.0040   38.3600 C   0  0  0  0  0  0  0  0  0  0  0  0
   36.8710   29.6040   39.6920 C   0  0  0  0  0  0  0  0  0  0  0  0
   36.3170   28.3650   39.9340 C   0  0  0  0  0  0  0  0  0  0  0  0
   35.6110   27.5560   39.1590 C   0  0  0  0  0  0  0  0  0  0  0  0
   35.3850   28.0170   37.8830 C   0  0  0  0  0  0  0  0  0  0  0  0
   35.8650   29.2250   37.4740 C   0  0  0  0  0  0  0  0  0  0  0  0
   36.4940   27.9180   40.9420 H   0  0  0  0  0  0  0  0  0  0  0  0
   35.2130   26.5890   39.4490 H   0  0  0  0  0  0  0  0  0  0  0  0
   34.7980   27.3750   37.1990 H   0  0  0  0  0  0  0  0  0  0  0  0
   35.5730   29.5660   36.1830 O   0  0  0  0  0  0  0  0  0  0  0  0
   35.5170   28.2860   33.8960 O   0  0  0  0  0  0  0  0  0  0  0  0
   36.3710   29.1960   34.7470 P   0  0  0  0  0  0  0  0  0  0  0  0
   36.7320   30.6380   33.9260 O   0  0  0  0  0  0  0  0  0  0  0  0
   35.8880   31.0360   33.6240 H   0  0  0  0  0  0  0  0  0  0  0  0
   37.8770   28.4700   35.0530 O   0  0  0  0  0  0  0  0  0  0  0  0
   37.9530   28.1470   35.9800 H   0  0  0  0  0  0  0  0  0  0  0  0
  1  2  1  0  0  0  0
  2  9  1  0  0  0  0
  3  2  2  0  0  0  0
  3  7  1  0  0  0  0
  4  3  1  0  0  0  0
  5  6  1  0  0  0  0
  5  4  2  0  0  0  0
  6  1  2  0  0  0  0
  8  5  1  0  0  0  0
  9 10  1  0  0  0  0
  9 11  1  0  0  0  0
  9 12  1  1  0  0  0
 10 11  1  0  0  0  0
 10 13  1  0  0  0  0
 11 15  1  1  0  0  0
 14 10  1  0  0  0  0
 17 18  1  0  0  0  0
 17 16  1  0  0  0  0
 18 11  1  0  0  0  0
 19 20  1  0  0  0  0
 19 18  2  0  0  0  0
 21 19  1  0  0  0  0
 22 21  1  0  0  0  0
 23 21  2  0  0  0  0
 23 24  1  0  0  0  0
 24 17  2  0  0  0  0
 25  1  1  0  0  0  0
 25 26  2  0  0  0  0
 27 28  1  0  0  0  0
 28 29  1  0  0  0  0
 29 30  2  0  0  0  0
 29 25  1  0  0  0  0
 30 34  1  0  0  0  0
 31 35  1  0  0  0  0
 31 30  1  0  0  0  0
 32 31  2  0  0  0  0
 33 32  1  0  0  0  0
 33 28  2  0  0  0  0
 36 32  1  0  0  0  0
 37 33  1  0  0  0  0
 38 39  2  0  0  0  0
 39 42  1  0  0  0  0
 39 37  1  0  0  0  0
 40 39  1  0  0  0  0
 41 40  1  0  0  0  0
 42 43  1  0  0  0  0
M  END
>  <minimizedAffinity>
-6.63421011

$$$$

 OpenBabel03242523253D

 43 46  0  0  1  0  0  0  0  0999 V2000
   37.5230   29.9020   40.9830 C   0  0  0  0  0  0  0  0  0  0  0  0
   36.8230   29.0220   41.6980 C   0  0  0  0  0  0  0  0  0  0  0  0
   35.6550   28.5950   41.1050 C   0  0  0  0  0  0  0  0  0  0  0  0
   35.3210   29.1130   39.8430 N   0  0  0  0  0  0  0  0  0  0  0  0
   36.0630   29.9830   39.1970 C   0  0  0  0  0  0  0  0  0  0  0  0
   37.2350   30.4300   39.7580 N   0  0  0  0  0  0  0  0  0  0  0  0
   34.9560   27.8850   41.5270 H   0  0  0  0  0  0  0  0  0  0  0  0
   35.6510   30.2740   38.2350 H   0  0  0  0  0  0  0  0  0  0  0  0
   37.0940   28.5680   43.0150 C   0  0  1  0  0  0  0  0  0  0  0  0
   36.5800   27.5110   43.6800 C   0  0  0  0  0  0  0  0  0  0  0  0
   38.0270   27.3710   43.2380 C   0  0  1  0  0  0  0  0  0  0  0  0
   37.2550   29.4260   43.6990 H   0  0  0  0  0  0  0  0  0  0  0  0
   36.4840   27.3470   44.7990 H   0  0  0  0  0  0  0  0  0  0  0  0
   35.7610   26.9220   43.2150 H   0  0  0  0  0  0  0  0  0  0  0  0
   38.8060   27.5720   44.0020 H   0  0  0  0  0  0  0  0  0  0  0  0
   40.7950   26.3320   42.1040 Cl  0  0  0  0  0  0  0  0  0  0  0  0
   39.2560   25.5960   41.8350 C   0  0  0  0  0  0  0  0  0  0  0  0
   38.1690   26.1960   42.4550 C   0  0  0  0  0  0  0  0  0  0  0  0
   36.9920   25.4610   42.1880 C   0  0  0  0  0  0  0  0  0  0  0  0
   36.0320   25.8050   42.6090 H   0  0  0  0  0  0  0  0  0  0  0  0
   36.9020   24.3160   41.4290 C   0  0  0  0  0  0  0  0  0  0  0  0
   35.9580   23.8200   41.2780 H   0  0  0  0  0  0  0  0  0  0  0  0
   38.0400   23.8280   40.8750 C   0  0  0  0  0  3  0  0  0  0  0  0
   39.2330   24.4710   41.0770 C   0  0  0  0  0  3  0  0  0  0  0  0
   38.8370   30.4800   41.3400 C   0  0  0  0  0  0  0  0  0  0  0  0
   39.6000   31.0730   42.0460 O   0  0  0  0  0  0  0  0  0  0  0  0
   39.6810   32.7800   39.4640 Cl  0  0  0  0  0  0  0  0  0  0  0  0
   40.2650   31.1280   39.2670 C   0  0  0  0  0  0  0  0  0  0  0  0
   39.7940   30.1950   40.2250 C   0  0  0  0  0  0  0  0  0  0  0  0
   40.3230   28.9490   39.9640 C   0  0  0  0  0  0  0  0  0  0  0  0
   41.1450   28.5290   39.0150 C   0  0  0  0  0  0  0  0  0  0  0  0
   41.5540   29.4950   38.1250 C   0  0  0  0  0  0  0  0  0  0  0  0
   41.1280   30.7840   38.2380 C   0  0  0  0  0  0  0  0  0  0  0  0
   40.0570   28.1260   40.6720 H   0  0  0  0  0  0  0  0  0  0  0  0
   41.5050   27.5120   38.8930 H   0  0  0  0  0  0  0  0  0  0  0  0
   42.2410   29.1900   37.3130 H   0  0  0  0  0  0  0  0  0  0  0  0
   41.6100   31.6460   37.2930 O   0  0  0  0  0  0  0  0  0  0  0  0
   43.3560   32.9340   38.7640 O   0  0  0  0  0  0  0  0  0  0  0  0
   42.9320   32.6870   37.3350 P   0  0  0  0  0  0  0  0  0  0  0  0
   44.2000   32.0100   36.4310 O   0  0  0  0  0  0  0  0  0  0  0  0
   44.5200   31.2130   36.9040 H   0  0  0  0  0  0  0  0  0  0  0  0
   42.5750   34.1600   36.5660 O   0  0  0  0  0  0  0  0  0  0  0  0
   41.6080   34.2900   36.4390 H   0  0  0  0  0  0  0  0  0  0  0  0
  1 25  1  0  0  0  0
  1  2  1  0  0  0  0
  2  9  1  0  0  0  0
  3  7  1  0  0  0  0
  3  2  2  0  0  0  0
  4  3  1  0  0  0  0
  5  6  1  0  0  0  0
  5  4  2  0  0  0  0
  6  1  2  0  0  0  0
  8  5  1  0  0  0  0
  9 11  1  0  0  0  0
  9 10  1  0  0  0  0
  9 12  1  1  0  0  0
 10 13  1  0  0  0  0
 11 10  1  0  0  0  0
 11 15  1  1  0  0  0
 14 10  1  0  0  0  0
 17 16  1  0  0  0  0
 17 18  1  0  0  0  0
 18 11  1  0  0  0  0
 19 18  2  0  0  0  0
 19 20  1  0  0  0  0
 21 19  1  0  0  0  0
 22 21  1  0  0  0  0
 23 24  1  0  0  0  0
 23 21  2  0  0  0  0
 24 17  2  0  0  0  0
 25 26  2  0  0  0  0
 28 27  1  0  0  0  0
 28 29  1  0  0  0  0
 29 25  1  0  0  0  0
 30 29  2  0  0  0  0
 30 34  1  0  0  0  0
 31 30  1  0  0  0  0
 32 33  1  0  0  0  0
 32 31  2  0  0  0  0
 33 28  2  0  0  0  0
 35 31  1  0  0  0  0
 36 32  1  0  0  0  0
 37 39  1  0  0  0  0
 37 33  1  0  0  0  0
 39 38  2  0  0  0  0
 40 41  1  0  0  0  0
 40 39  1  0  0  0  0
 42 39  1  0  0  0  0
 43 42  1  0  0  0  0
M  END
>  <minimizedAffinity>
-6.60771704

$$$$

 OpenBabel03242523253D

 43 46  0  0  1  0  0  0  0  0999 V2000
   37.6860   29.9480   41.3540 C   0  0  0  0  0  0  0  0  0  0  0  0
   38.0700   29.5620   42.5700 C   0  0  0  0  0  0  0  0  0  0  0  0
   39.2690   30.0940   42.9930 C   0  0  0  0  0  0  0  0  0  0  0  0
   39.9530   30.9630   42.1290 N   0  0  0  0  0  0  0  0  0  0  0  0
   39.5110   31.2980   40.9380 C   0  0  0  0  0  0  0  0  0  0  0  0
   38.3190   30.7880   40.4840 N   0  0  0  0  0  0  0  0  0  0  0  0
   39.7440   29.9010   43.9460 H   0  0  0  0  0  0  0  0  0  0  0  0
   40.1690   31.9810   40.4080 H   0  0  0  0  0  0  0  0  0  0  0  0
   37.4440   28.6060   43.4110 C   0  0  1  0  0  0  0  0  0  0  0  0
   36.6540   27.5610   43.0820 C   0  0  0  0  0  0  0  0  0  0  0  0
   38.0490   27.2040   43.5640 C   0  0  1  0  0  0  0  0  0  0  0  0
   37.1030   29.0780   44.3550 H   0  0  0  0  0  0  0  0  0  0  0  0
   35.8660   27.0350   43.7060 H   0  0  0  0  0  0  0  0  0  0  0  0
   36.3420   27.4260   42.0240 H   0  0  0  0  0  0  0  0  0  0  0  0
   38.1490   26.8950   44.6250 H   0  0  0  0  0  0  0  0  0  0  0  0
   36.7760   24.5920   42.3030 Cl  0  0  0  0  0  0  0  0  0  0  0  0
   38.3440   25.2230   41.9460 C   0  0  0  0  0  0  0  0  0  0  0  0
   38.6950   26.4030   42.5870 C   0  0  0  0  0  0  0  0  0  0  0  0
   39.9760   26.8230   42.1630 C   0  0  0  0  0  0  0  0  0  0  0  0
   40.4070   27.7500   42.5780 H   0  0  0  0  0  0  0  0  0  0  0  0
   40.7830   26.1800   41.2520 C   0  0  0  0  0  0  0  0  0  0  0  0
   41.7500   26.5750   40.9870 H   0  0  0  0  0  0  0  0  0  0  0  0
   40.3250   25.0320   40.6950 C   0  0  0  0  0  3  0  0  0  0  0  0
   39.0930   24.5430   41.0420 C   0  0  0  0  0  3  0  0  0  0  0  0
   36.4230   29.5870   40.6740 C   0  0  0  0  0  0  0  0  0  0  0  0
   35.2350   29.5910   40.5270 O   0  0  0  0  0  0  0  0  0  0  0  0
   36.7830   30.9140   37.9110 Cl  0  0  0  0  0  0  0  0  0  0  0  0
   36.9340   29.1750   38.1580 C   0  0  0  0  0  0  0  0  0  0  0  0
   36.7560   28.7290   39.4920 C   0  0  0  0  0  0  0  0  0  0  0  0
   36.9010   27.3600   39.5510 C   0  0  0  0  0  0  0  0  0  0  0  0
   37.1590   26.4660   38.6090 C   0  0  0  0  0  0  0  0  0  0  0  0
   37.3170   26.9790   37.3430 C   0  0  0  0  0  0  0  0  0  0  0  0
   37.2090   28.3170   37.1050 C   0  0  0  0  0  0  0  0  0  0  0  0
   36.8190   26.8830   40.5590 H   0  0  0  0  0  0  0  0  0  0  0  0
   37.2520   25.3950   38.7610 H   0  0  0  0  0  0  0  0  0  0  0  0
   37.5330   26.2690   36.5220 H   0  0  0  0  0  0  0  0  0  0  0  0
   37.3890   28.6980   35.8050 O   0  0  0  0  0  0  0  0  0  0  0  0
   34.8910   29.2620   35.2420 O   0  0  0  0  0  0  0  0  0  0  0  0
   36.2950   29.3190   34.6860 P   0  0  0  0  0  0  0  0  0  0  0  0
   36.7360   30.9150   34.3060 O   0  0  0  0  0  0  0  0  0  0  0  0
   36.5900   31.4680   35.1020 H   0  0  0  0  0  0  0  0  0  0  0  0
   36.3770   28.4730   33.2150 O   0  0  0  0  0  0  0  0  0  0  0  0
   36.8480   27.6130   33.3050 H   0  0  0  0  0  0  0  0  0  0  0  0
  1  2  1  0  0  0  0
  2  3  2  0  0  0  0
  2  9  1  0  0  0  0
  3  7  1  0  0  0  0
  4  3  1  0  0  0  0
  5  4  2  0  0  0  0
  6  5  1  0  0  0  0
  6  1  2  0  0  0  0
  8  5  1  0  0  0  0
  9 11  1  0  0  0  0
  9 12  1  1  0  0  0
 10  9  1  0  0  0  0
 10 11  1  0  0  0  0
 10 13  1  0  0  0  0
 11 15  1  1  0  0  0
 14 10  1  0  0  0  0
 17 16  1  0  0  0  0
 17 18  1  0  0  0  0
 18 11  1  0  0  0  0
 19 20  1  0  0  0  0
 19 18  2  0  0  0  0
 21 19  1  0  0  0  0
 22 21  1  0  0  0  0
 23 24  1  0  0  0  0
 23 21  2  0  0  0  0
 24 17  2  0  0  0  0
 25  1  1  0  0  0  0
 26 25  2  0  0  0  0
 27 28  1  0  0  0  0
 28 29  1  0  0  0  0
 29 30  2  0  0  0  0
 29 25  1  0  0  0  0
 30 34  1  0  0  0  0
 31 35  1  0  0  0  0
 31 30  1  0  0  0  0
 32 31  2  0  0  0  0
 33 32  1  0  0  0  0
 33 28  2  0  0  0  0
 36 32  1  0  0  0  0
 37 33  1  0  0  0  0
 39 38  2  0  0  0  0
 39 37  1  0  0  0  0
 40 39  1  0  0  0  0
 40 41  1  0  0  0  0
 42 43  1  0  0  0  0
 42 39  1  0  0  0  0
M  END
>  <minimizedAffinity>
-6.39472961

$$$$

 OpenBabel03242523253D

 43 46  0  0  1  0  0  0  0  0999 V2000
   37.7740   29.6870   37.5550 C   0  0  0  0  0  0  0  0  0  0  0  0
   37.1150   29.1440   38.5770 C   0  0  0  0  0  0  0  0  0  0  0  0
   37.4590   27.8400   38.8580 C   0  0  0  0  0  0  0  0  0  0  0  0
   38.4390   27.2240   38.0640 N   0  0  0  0  0  0  0  0  0  0  0  0
   39.0470   27.8240   37.0670 C   0  0  0  0  0  0  0  0  0  0  0  0
   38.7300   29.1260   36.7590 N   0  0  0  0  0  0  0  0  0  0  0  0
   37.0360   27.2320   39.6480 H   0  0  0  0  0  0  0  0  0  0  0  0
   39.7760   27.1970   36.5630 H   0  0  0  0  0  0  0  0  0  0  0  0
   36.0510   29.7170   39.3210 C   0  0  1  0  0  0  0  0  0  0  0  0
   35.1630   29.1210   40.1460 C   0  0  0  0  0  0  0  0  0  0  0  0
   36.2190   29.9780   40.8240 C   0  0  1  0  0  0  0  0  0  0  0  0
   35.5720   30.5380   38.7510 H   0  0  0  0  0  0  0  0  0  0  0  0
   34.1210   29.4590   40.4410 H   0  0  0  0  0  0  0  0  0  0  0  0
   35.1580   28.0140   40.2310 H   0  0  0  0  0  0  0  0  0  0  0  0
   35.9180   31.0060   41.1160 H   0  0  0  0  0  0  0  0  0  0  0  0
   39.0960   30.6950   41.9360 Cl  0  0  0  0  0  0  0  0  0  0  0  0
   38.1650   29.3070   42.3710 C   0  0  0  0  0  0  0  0  0  0  0  0
   36.9090   29.2000   41.7900 C   0  0  0  0  0  0  0  0  0  0  0  0
   36.2470   28.0490   42.2740 C   0  0  0  0  0  0  0  0  0  0  0  0
   35.2320   27.8160   41.9100 H   0  0  0  0  0  0  0  0  0  0  0  0
   36.7460   27.1470   43.1850 C   0  0  0  0  0  0  0  0  0  0  0  0
   36.1680   26.2930   43.4980 H   0  0  0  0  0  0  0  0  0  0  0  0
   37.9900   27.3630   43.6800 C   0  0  0  0  0  3  0  0  0  0  0  0
   38.7120   28.4530   43.2720 C   0  0  0  0  0  3  0  0  0  0  0  0
   37.6560   31.0800   37.0710 C   0  0  0  0  0  0  0  0  0  0  0  0
   37.3700   31.9270   36.2750 O   0  0  0  0  0  0  0  0  0  0  0  0
   40.7040   31.4520   37.3780 Cl  0  0  0  0  0  0  0  0  0  0  0  0
   39.5380   32.2570   38.4250 C   0  0  0  0  0  0  0  0  0  0  0  0
   38.1740   31.9930   38.1400 C   0  0  0  0  0  0  0  0  0  0  0  0
   37.3690   32.6810   39.0220 C   0  0  0  0  0  0  0  0  0  0  0  0
   37.6650   33.4900   40.0270 C   0  0  0  0  0  0  0  0  0  0  0  0
   39.0090   33.6930   40.2390 C   0  0  0  0  0  0  0  0  0  0  0  0
   39.9460   33.0910   39.4550 C   0  0  0  0  0  0  0  0  0  0  0  0
   36.2650   32.5860   38.8810 H   0  0  0  0  0  0  0  0  0  0  0  0
   36.9470   33.9870   40.6720 H   0  0  0  0  0  0  0  0  0  0  0  0
   39.3040   34.3620   41.0700 H   0  0  0  0  0  0  0  0  0  0  0  0
   41.2450   33.3770   39.7680 O   0  0  0  0  0  0  0  0  0  0  0  0
   42.1340   31.0350   40.5420 O   0  0  0  0  0  0  0  0  0  0  0  0
   42.3590   32.5210   40.6970 P   0  0  0  0  0  0  0  0  0  0  0  0
   43.9300   32.9540   40.2160 O   0  0  0  0  0  0  0  0  0  0  0  0
   44.0750   32.6120   39.3090 H   0  0  0  0  0  0  0  0  0  0  0  0
   42.2580   32.9630   42.3350 O   0  0  0  0  0  0  0  0  0  0  0  0
   41.4240   33.4440   42.5400 H   0  0  0  0  0  0  0  0  0  0  0  0
  1  2  1  0  0  0  0
  2  3  2  0  0  0  0
  2  9  1  0  0  0  0
  3  7  1  0  0  0  0
  4  3  1  0  0  0  0
  5  4  2  0  0  0  0
  6  5  1  0  0  0  0
  6  1  2  0  0  0  0
  8  5  1  0  0  0  0
  9 12  1  6  0  0  0
  9 10  1  0  0  0  0
  9 11  1  0  0  0  0
 10 14  1  0  0  0  0
 10 13  1  0  0  0  0
 10 11  1  0  0  0  0
 11 15  1  1  0  0  0
 11 18  1  0  0  0  0
 16 17  1  0  0  0  0
 17 24  1  0  0  0  0
 18 19  1  0  0  0  0
 18 17  2  0  0  0  0
 19 21  2  0  0  0  0
 20 19  1  0  0  0  0
 21 22  1  0  0  0  0
 21 23  1  0  0  0  0
 24 23  2  0  0  0  0
 25  1  1  0  0  0  0
 25 29  1  0  0  0  0
 26 25  2  0  0  0  0
 27 28  1  0  0  0  0
 28 33  1  0  0  0  0
 29 28  2  0  0  0  0
 29 30  1  0  0  0  0
 30 31  2  0  0  0  0
 31 32  1  0  0  0  0
 31 35  1  0  0  0  0
 32 36  1  0  0  0  0
 33 37  1  0  0  0  0
 33 32  2  0  0  0  0
 34 30  1  0  0  0  0
 37 39  1  0  0  0  0
 38 39  2  0  0  0  0
 39 42  1  0  0  0  0
 40 39  1  0  0  0  0
 41 40  1  0  0  0  0
 42 43  1  0  0  0  0
M  END
>  <minimizedAffinity>
-6.37690449

$$$$

 OpenBabel03242523253D

 43 46  0  0  1  0  0  0  0  0999 V2000
   40.1690   28.6190   42.2610 C   0  0  0  0  0  0  0  0  0  0  0  0
   39.4900   27.5710   42.7240 C   0  0  0  0  0  0  0  0  0  0  0  0
   40.0280   26.3440   42.3980 C   0  0  0  0  0  0  0  0  0  0  0  0
   41.2030   26.3160   41.6300 N   0  0  0  0  0  0  0  0  0  0  0  0
   41.8180   27.3960   41.2050 C   0  0  0  0  0  0  0  0  0  0  0  0
   41.3110   28.6350   41.5120 N   0  0  0  0  0  0  0  0  0  0  0  0
   39.6230   25.3820   42.6830 H   0  0  0  0  0  0  0  0  0  0  0  0
   42.7110   27.1860   40.6240 H   0  0  0  0  0  0  0  0  0  0  0  0
   38.2490   27.5800   43.4120 C   0  0  1  0  0  0  0  0  0  0  0  0
   37.3170   28.5550   43.4850 C   0  0  0  0  0  0  0  0  0  0  0  0
   36.9420   27.3480   42.6420 C   0  0  1  0  0  0  0  0  0  0  0  0
   38.3310   27.0380   44.3760 H   0  0  0  0  0  0  0  0  0  0  0  0
   36.5380   28.7410   44.2890 H   0  0  0  0  0  0  0  0  0  0  0  0
   37.5310   29.5470   43.0340 H   0  0  0  0  0  0  0  0  0  0  0  0
   36.2950   26.5840   43.1200 H   0  0  0  0  0  0  0  0  0  0  0  0
   37.6270   25.7220   40.0120 Cl  0  0  0  0  0  0  0  0  0  0  0  0
   36.8260   27.2510   40.0720 C   0  0  0  0  0  0  0  0  0  0  0  0
   36.5930   27.7760   41.3350 C   0  0  0  0  0  0  0  0  0  0  0  0
   35.8900   28.9980   41.2300 C   0  0  0  0  0  0  0  0  0  0  0  0
   35.6240   29.5490   42.1480 H   0  0  0  0  0  0  0  0  0  0  0  0
   35.4840   29.6060   40.0650 C   0  0  0  0  0  0  0  0  0  0  0  0
   34.9510   30.5420   40.0790 H   0  0  0  0  0  0  0  0  0  0  0  0
   35.7750   28.9900   38.8910 C   0  0  0  0  0  3  0  0  0  0  0  0
   36.4520   27.8000   38.8890 C   0  0  0  0  0  3  0  0  0  0  0  0
   39.8620   30.0450   42.5060 C   0  0  0  0  0  0  0  0  0  0  0  0
   39.5800   30.9880   43.1870 O   0  0  0  0  0  0  0  0  0  0  0  0
   42.1660   32.0310   41.9890 Cl  0  0  0  0  0  0  0  0  0  0  0  0
   40.8930   31.7230   40.8090 C   0  0  0  0  0  0  0  0  0  0  0  0
   39.9190   30.7690   41.1960 C   0  0  0  0  0  0  0  0  0  0  0  0
   38.9870   30.6160   40.1920 C   0  0  0  0  0  0  0  0  0  0  0  0
   38.8780   31.1950   39.0050 C   0  0  0  0  0  0  0  0  0  0  0  0
   39.8610   32.1090   38.7070 C   0  0  0  0  0  0  0  0  0  0  0  0
   40.8640   32.3790   39.5890 C   0  0  0  0  0  0  0  0  0  0  0  0
   38.1800   29.8620   40.3570 H   0  0  0  0  0  0  0  0  0  0  0  0
   38.0940   31.0050   38.2780 H   0  0  0  0  0  0  0  0  0  0  0  0
   39.8100   32.6190   37.7260 H   0  0  0  0  0  0  0  0  0  0  0  0
   41.7790   33.3050   39.1710 O   0  0  0  0  0  0  0  0  0  0  0  0
   43.1580   31.7950   37.5310 O   0  0  0  0  0  0  0  0  0  0  0  0
   42.9260   33.2300   37.9400 P   0  0  0  0  0  0  0  0  0  0  0  0
   42.3900   34.1610   36.6250 O   0  0  0  0  0  0  0  0  0  0  0  0
   41.6070   33.7170   36.2360 H   0  0  0  0  0  0  0  0  0  0  0  0
   44.3900   33.9460   38.4240 O   0  0  0  0  0  0  0  0  0  0  0  0
   44.4410   34.0660   39.4000 H   0  0  0  0  0  0  0  0  0  0  0  0
  1 25  1  0  0  0  0
  1  2  1  0  0  0  0
  2  9  1  0  0  0  0
  3  7  1  0  0  0  0
  3  2  2  0  0  0  0
  4  3  1  0  0  0  0
  5  6  1  0  0  0  0
  5  4  2  0  0  0  0
  6  1  2  0  0  0  0
  8  5  1  0  0  0  0
  9 10  1  0  0  0  0
  9 12  1  1  0  0  0
 10 13  1  0  0  0  0
 11 15  1  1  0  0  0
 11  9  1  0  0  0  0
 11 10  1  0  0  0  0
 14 10  1  0  0  0  0
 16 17  1  0  0  0  0
 17 18  1  0  0  0  0
 18 11  1  0  0  0  0
 19 18  2  0  0  0  0
 19 20  1  0  0  0  0
 21 22  1  0  0  0  0
 21 19  1  0  0  0  0
 23 21  2  0  0  0  0
 24 23  1  0  0  0  0
 24 17  2  0  0  0  0
 25 26  2  0  0  0  0
 28 29  1  0  0  0  0
 28 27  1  0  0  0  0
 29 25  1  0  0  0  0
 30 34  1  0  0  0  0
 30 29  2  0  0  0  0
 31 30  1  0  0  0  0
 32 31  2  0  0  0  0
 32 33  1  0  0  0  0
 33 28  2  0  0  0  0
 35 31  1  0  0  0  0
 36 32  1  0  0  0  0
 37 33  1  0  0  0  0
 38 39  2  0  0  0  0
 39 42  1  0  0  0  0
 39 37  1  0  0  0  0
 40 39  1  0  0  0  0
 41 40  1  0  0  0  0
 42 43  1  0  0  0  0
M  END
>  <minimizedAffinity>
-6.35957098

$$$$

 OpenBabel03242523253D

 43 46  0  0  1  0  0  0  0  0999 V2000
   39.3450   26.7000   41.7820 C   0  0  0  0  0  0  0  0  0  0  0  0
   39.4540   25.3880   41.5790 C   0  0  0  0  0  0  0  0  0  0  0  0
   40.5130   25.0130   40.7810 C   0  0  0  0  0  0  0  0  0  0  0  0
   41.3490   26.0180   40.2700 N   0  0  0  0  0  0  0  0  0  0  0  0
   41.1770   27.2970   40.5120 C   0  0  0  0  0  0  0  0  0  0  0  0
   40.1330   27.7070   41.3050 N   0  0  0  0  0  0  0  0  0  0  0  0
   40.7660   23.9980   40.5040 H   0  0  0  0  0  0  0  0  0  0  0  0
   41.9180   27.9320   40.0350 H   0  0  0  0  0  0  0  0  0  0  0  0
   38.5600   24.3700   42.0020 C   0  0  1  0  0  0  0  0  0  0  0  0
   37.2100   24.3580   41.9940 C   0  0  0  0  0  0  0  0  0  0  0  0
   37.8810   23.4650   40.9660 C   0  0  1  0  0  0  0  0  0  0  0  0
   38.9550   23.8490   42.8970 H   0  0  0  0  0  0  0  0  0  0  0  0
   36.4950   23.7590   42.6420 H   0  0  0  0  0  0  0  0  0  0  0  0
   36.6590   25.2790   41.7070 H   0  0  0  0  0  0  0  0  0  0  0  0
   37.9680   22.3880   41.2180 H   0  0  0  0  0  0  0  0  0  0  0  0
   39.3940   22.7120   38.2870 Cl  0  0  0  0  0  0  0  0  0  0  0  0
   37.9190   23.6050   38.3950 C   0  0  0  0  0  0  0  0  0  0  0  0
   37.4060   23.7970   39.6710 C   0  0  0  0  0  0  0  0  0  0  0  0
   36.1800   24.4950   39.6000 C   0  0  0  0  0  0  0  0  0  0  0  0
   35.6370   24.7300   40.5310 H   0  0  0  0  0  0  0  0  0  0  0  0
   35.5590   24.9360   38.4540 C   0  0  0  0  0  0  0  0  0  0  0  0
   34.6210   25.4630   38.4950 H   0  0  0  0  0  0  0  0  0  0  0  0
   36.1650   24.6870   37.2660 C   0  0  0  0  0  3  0  0  0  0  0  0
   37.3580   24.0140   37.2300 C   0  0  0  0  0  3  0  0  0  0  0  0
   38.3480   27.3780   42.6400 C   0  0  0  0  0  0  0  0  0  0  0  0
   37.8050   27.6240   43.6780 O   0  0  0  0  0  0  0  0  0  0  0  0
   38.7840   30.4280   42.8030 Cl  0  0  0  0  0  0  0  0  0  0  0  0
   37.5820   29.6940   41.7440 C   0  0  0  0  0  0  0  0  0  0  0  0
   37.5210   28.2780   41.7750 C   0  0  0  0  0  0  0  0  0  0  0  0
   36.5500   27.8310   40.9060 C   0  0  0  0  0  0  0  0  0  0  0  0
   35.7230   28.4870   40.1060 C   0  0  0  0  0  0  0  0  0  0  0  0
   35.8440   29.8560   40.1350 C   0  0  0  0  0  0  0  0  0  0  0  0
   36.7590   30.4670   40.9390 C   0  0  0  0  0  0  0  0  0  0  0  0
   36.4250   26.7250   40.8100 H   0  0  0  0  0  0  0  0  0  0  0  0
   34.9820   28.0350   39.4530 H   0  0  0  0  0  0  0  0  0  0  0  0
   35.1710   30.4470   39.4830 H   0  0  0  0  0  0  0  0  0  0  0  0
   36.7790   31.8320   40.8720 O   0  0  0  0  0  0  0  0  0  0  0  0
   38.8140   32.0890   39.2410 O   0  0  0  0  0  0  0  0  0  0  0  0
   37.8600   32.8740   40.1090 P   0  0  0  0  0  0  0  0  0  0  0  0
   36.9860   34.0030   39.1890 O   0  0  0  0  0  0  0  0  0  0  0  0
   36.5620   33.5260   38.4450 H   0  0  0  0  0  0  0  0  0  0  0  0
   38.7240   33.7980   41.2440 O   0  0  0  0  0  0  0  0  0  0  0  0
   38.6590   33.4270   42.1540 H   0  0  0  0  0  0  0  0  0  0  0  0
  1 25  1  0  0  0  0
  2  1  1  0  0  0  0
  2  9  1  0  0  0  0
  3  2  2  0  0  0  0
  4  5  2  0  0  0  0
  4  3  1  0  0  0  0
  5  6  1  0  0  0  0
  6  1  2  0  0  0  0
  7  3  1  0  0  0  0
  8  5  1  0  0  0  0
  9 12  1  1  0  0  0
 10  9  1  0  0  0  0
 10 13  1  0  0  0  0
 11 15  1  1  0  0  0
 11 10  1  0  0  0  0
 11  9  1  0  0  0  0
 14 10  1  0  0  0  0
 16 17  1  0  0  0  0
 17 18  1  0  0  0  0
 18 11  1  0  0  0  0
 19 18  2  0  0  0  0
 19 20  1  0  0  0  0
 21 22  1  0  0  0  0
 21 19  1  0  0  0  0
 23 21  2  0  0  0  0
 24 23  1  0  0  0  0
 24 17  2  0  0  0  0
 25 26  2  0  0  0  0
 28 29  1  0  0  0  0
 28 27  1  0  0  0  0
 29 25  1  0  0  0  0
 30 29  2  0  0  0  0
 31 32  2  0  0  0  0
 31 30  1  0  0  0  0
 32 33  1  0  0  0  0
 33 28  2  0  0  0  0
 34 30  1  0  0  0  0
 35 31  1  0  0  0  0
 36 32  1  0  0  0  0
 37 33  1  0  0  0  0
 38 39  2  0  0  0  0
 39 37  1  0  0  0  0
 39 42  1  0  0  0  0
 40 39  1  0  0  0  0
 41 40  1  0  0  0  0
 42 43  1  0  0  0  0
M  END
>  <minimizedAffinity>
-6.35648823

$$$$
