
 OpenBabel03242519573D

 28 30  0  0  0  0  0  0  0  0999 V2000
   44.7500   32.9480   41.2090 Br  0  0  0  0  0  0  0  0  0  0  0  0
   46.3810   33.9430   41.0090 C   0  0  0  0  0  0  0  0  0  0  0  0
   46.8880   34.7590   41.9930 C   0  0  0  0  0  0  0  0  0  0  0  0
   48.0640   35.4220   41.7390 C   0  0  0  0  0  0  0  0  0  0  0  0
   48.7470   35.2990   40.5440 C   0  0  0  0  0  0  0  0  0  0  0  0
   48.2430   34.4760   39.5440 C   0  0  0  0  0  0  0  0  0  0  0  0
   47.0670   33.8170   39.8080 C   0  0  0  0  0  0  0  0  0  0  0  0
   48.4420   36.0610   42.5330 H   0  0  0  0  0  0  0  0  0  0  0  0
   49.6660   35.8660   40.4480 H   0  0  0  0  0  0  0  0  0  0  0  0
   48.7840   34.3850   38.6100 H   0  0  0  0  0  0  0  0  0  0  0  0
   44.4870   35.9350   44.6720 C   0  0  0  0  0  0  0  0  0  0  0  0
   45.2030   35.8660   43.4680 C   0  0  0  0  0  0  0  0  0  0  0  0
   46.1250   34.8550   43.2410 C   0  0  0  0  0  0  0  0  0  0  0  0
   46.2950   33.9400   44.2410 N   0  0  0  0  0  0  0  0  0  0  0  0
   45.5910   34.0300   45.3920 C   0  0  0  0  0  0  0  0  0  0  0  0
   44.7000   35.0130   45.6040 N   0  0  0  0  0  0  0  0  0  0  0  0
   43.8090   36.7840   44.6860 H   0  0  0  0  0  0  0  0  0  0  0  0
   45.0990   36.5690   42.6520 H   0  0  0  0  0  0  0  0  0  0  0  0
   45.7120   33.3140   46.1990 H   0  0  0  0  0  0  0  0  0  0  0  0
   48.1230   31.0920   40.1010 Cl  0  0  0  0  0  0  0  0  0  0  0  0
   47.0630   31.6550   38.8140 C   0  0  0  0  0  0  0  0  0  0  0  0
   46.5860   32.9680   38.7190 C   0  0  0  0  0  0  0  0  0  0  0  0
   45.7570   33.3280   37.6760 C   0  0  0  0  0  0  0  0  0  0  0  0
   45.4410   34.3560   37.6840 H   0  0  0  0  0  0  0  0  0  0  0  0
   45.4180   32.3820   36.7500 C   0  0  0  0  0  0  0  0  0  0  0  0
   44.7620   32.6890   35.9340 H   0  0  0  0  0  0  0  0  0  0  0  0
   45.8720   31.0800   36.8160 C   0  0  0  0  0  3  0  0  0  0  0  0
   46.7120   30.6920   37.8620 C   0  0  0  0  0  3  0  0  0  0  0  0
  2  1  1  0  0  0  0
  2  3  1  0  0  0  0
  3 13  1  0  0  0  0
  4  3  2  0  0  0  0
  4  8  1  0  0  0  0
  5  4  1  0  0  0  0
  6  7  1  0  0  0  0
  6  5  2  0  0  0  0
  7  2  2  0  0  0  0
  9  5  1  0  0  0  0
 10  6  1  0  0  0  0
 11 17  1  0  0  0  0
 11 16  1  0  0  0  0
 12 11  2  0  0  0  0
 13 12  1  0  0  0  0
 13 14  2  0  0  0  0
 14 15  1  0  0  0  0
 15 16  2  0  0  0  0
 15 19  1  0  0  0  0
 18 12  1  0  0  0  0
 21 20  1  0  0  0  0
 22 21  1  0  0  0  0
 22  7  1  0  0  0  0
 23 24  1  0  0  0  0
 23 22  2  0  0  0  0
 25 27  2  0  0  0  0
 25 23  1  0  0  0  0
 26 25  1  0  0  0  0
 27 28  1  0  0  0  0
 28 21  2  0  0  0  0
M  END
>  <minimizedAffinity>
-5.56019878

>  <minimizedRMSD>
1.01673448

$$$$
