
 OpenBabel03242510133D

 42 45  0  0  1  0  0  0  0  0999 V2000
   46.8050   32.9940   38.7040 N   0  0  0  0  0  0  0  0  0  0  0  0
   45.7210   33.2050   37.7420 C   0  0  0  0  0  0  0  0  0  0  0  0
   45.0740   31.9070   37.3280 C   0  0  0  0  0  0  0  0  0  0  0  0
   45.9960   31.0580   36.6110 N   0  0  0  0  0  0  0  0  0  0  0  0
   47.3560   31.4630   36.9450 C   0  0  0  0  0  0  0  0  0  0  0  0
   47.4520   31.7360   38.4200 C   0  0  1  0  0  0  0  0  0  0  0  0
   44.9280   33.7680   38.3100 H   0  0  0  0  0  0  0  0  0  0  0  0
   46.0140   33.8440   36.9110 H   0  0  0  0  0  0  0  0  0  0  0  0
   44.7920   31.3660   38.2600 H   0  0  0  0  0  0  0  0  0  0  0  0
   44.1640   32.1390   36.7540 H   0  0  0  0  0  0  0  0  0  0  0  0
   45.8330   30.9860   35.6020 H   0  0  0  0  0  0  0  0  0  0  0  0
   47.4840   32.4370   36.3940 H   0  0  0  0  0  0  0  0  0  0  0  0
   48.1080   30.7400   36.5870 H   0  0  0  0  0  0  0  0  0  0  0  0
   46.6990   30.9770   38.8640 H   0  0  0  0  0  0  0  0  0  0  0  0
   44.9070   32.9350   41.1950 Br  0  0  0  0  0  0  0  0  0  0  0  0
   46.5150   33.9510   40.9540 C   0  0  0  0  0  0  0  0  0  0  0  0
   46.9410   34.7700   41.9610 C   0  0  0  0  0  0  0  0  0  0  0  0
   48.1110   35.5310   41.7990 C   0  0  0  0  0  0  0  0  0  0  0  0
   48.8010   35.4230   40.6100 C   0  0  0  0  0  0  0  0  0  0  0  0
   48.3140   34.5760   39.6310 C   0  0  0  0  0  0  0  0  0  0  0  0
   47.1970   33.8370   39.7660 C   0  0  0  0  0  0  0  0  0  0  0  0
   48.3780   36.1550   42.6480 H   0  0  0  0  0  0  0  0  0  0  0  0
   49.6870   36.0400   40.5650 H   0  0  0  0  0  0  0  0  0  0  0  0
   48.9720   34.6320   38.7760 H   0  0  0  0  0  0  0  0  0  0  0  0
   45.6770   34.0230   45.2980 C   0  0  0  0  0  0  0  0  0  0  0  0
   44.7180   35.0460   45.5310 C   0  0  0  0  0  0  0  0  0  0  0  0
   44.5360   35.9780   44.5100 C   0  0  0  0  0  0  0  0  0  0  0  0
   45.2640   35.8630   43.3780 N   0  0  0  0  0  0  0  0  0  0  0  0
   46.1830   34.8550   43.1930 C   0  0  0  0  0  0  0  0  0  0  0  0
   46.3670   33.9540   44.1650 N   0  0  0  0  0  0  0  0  0  0  0  0
   45.7430   33.3530   46.1430 H   0  0  0  0  0  0  0  0  0  0  0  0
   44.1230   35.1780   46.4020 H   0  0  0  0  0  0  0  0  0  0  0  0
   43.8550   36.8190   44.5130 H   0  0  0  0  0  0  0  0  0  0  0  0
   47.5420   30.4860   41.2510 Cl  0  0  0  0  0  0  0  0  0  0  0  0
   48.9350   30.8540   40.2660 C   0  0  0  0  0  0  0  0  0  0  0  0
   48.7180   31.4450   39.0350 C   0  0  0  0  0  0  0  0  0  0  0  0
   49.9350   31.7170   38.3880 C   0  0  0  0  0  0  0  0  0  0  0  0
   49.8660   32.1890   37.3980 H   0  0  0  0  0  0  0  0  0  0  0  0
   51.2020   31.4540   38.8620 C   0  0  0  0  0  0  0  0  0  0  0  0
   52.0560   31.7170   38.2530 H   0  0  0  0  0  0  0  0  0  0  0  0
   51.2880   30.8610   40.1020 C   0  0  0  0  0  0  0  0  0  0  0  0
   50.1530   30.5530   40.8220 C   0  0  0  0  0  0  0  0  0  0  0  0
  1 21  1  0  0  0  0
  2  7  1  0  0  0  0
  2  1  1  0  0  0  0
  3  2  1  0  0  0  0
  3  9  1  0  0  0  0
  4  5  1  0  0  0  0
  4  3  1  0  0  0  0
  5  6  1  0  0  0  0
  6  1  1  0  0  0  0
  6 14  1  1  0  0  0
  6 36  1  0  0  0  0
  8  2  1  0  0  0  0
 10  3  1  0  0  0  0
 11  4  1  0  0  0  0
 12  5  1  0  0  0  0
 13  5  1  0  0  0  0
 16 15  1  0  0  0  0
 16 17  1  0  0  0  0
 17 29  1  0  0  0  0
 18 17  2  0  0  0  0
 18 22  1  0  0  0  0
 19 18  1  0  0  0  0
 20 21  1  0  0  0  0
 20 19  2  0  0  0  0
 21 16  2  0  0  0  0
 23 19  1  0  0  0  0
 24 20  1  0  0  0  0
 25 26  1  0  0  0  0
 25 31  1  0  0  0  0
 26 32  1  0  0  0  0
 27 33  1  0  0  0  0
 27 26  2  0  0  0  0
 28 27  1  0  0  0  0
 29 28  2  0  0  0  0
 29 30  1  0  0  0  0
 30 25  2  0  0  0  0
 35 42  1  0  0  0  0
 35 34  1  0  0  0  0
 36 35  2  0  0  0  0
 37 39  2  0  0  0  0
 37 36  1  0  0  0  0
 38 37  1  0  0  0  0
 39 41  1  0  0  0  0
 40 39  1  0  0  0  0
 41 42  2  0  0  0  0
M  END
>  <minimizedAffinity>
-5.87056208

>  <minimizedRMSD>
0.913936675

$$$$
