
 OpenBabel03242519183D

 42 45  0  0  1  0  0  0  0  0999 V2000
   37.1690   29.0600   42.2860 C   0  0  0  0  0  0  0  0  0  0  0  0
   36.1900   28.3110   41.6730 C   0  0  0  0  0  0  0  0  0  0  0  0
   35.5090   28.7280   40.5200 C   0  0  0  0  0  0  0  0  0  0  0  0
   35.8820   29.9460   40.0340 N   0  0  0  0  0  0  0  0  0  0  0  0
   36.8330   30.6730   40.6320 C   0  0  0  0  0  0  0  0  0  0  0  0
   37.4570   30.2320   41.7320 N   0  0  0  0  0  0  0  0  0  0  0  0
   35.9630   27.3420   42.1450 H   0  0  0  0  0  0  0  0  0  0  0  0
   34.7580   28.1080   40.0830 H   0  0  0  0  0  0  0  0  0  0  0  0
   37.2740   31.9990   40.0920 C   0  0  2  0  0  0  0  0  0  0  0  0
   37.2290   32.2190   38.6130 C   0  0  0  0  0  0  0  0  0  0  0  0
   38.5640   32.0120   39.3460 C   0  0  1  0  0  0  0  0  0  0  0  0
   37.0510   32.8370   40.7640 H   0  0  0  0  0  0  0  0  0  0  0  0
   36.9470   31.3800   37.9370 H   0  0  0  0  0  0  0  0  0  0  0  0
   37.0920   33.2410   38.2200 H   0  0  0  0  0  0  0  0  0  0  0  0
   39.0830   31.0370   39.2110 H   0  0  0  0  0  0  0  0  0  0  0  0
   41.0350   31.9340   37.6870 Cl  0  0  0  0  0  0  0  0  0  0  0  0
   40.5880   33.2020   38.8310 C   0  0  0  0  0  0  0  0  0  0  0  0
   39.4160   33.2060   39.5950 C   0  0  0  0  0  0  0  0  0  0  0  0
   39.1920   34.2640   40.4530 C   0  0  0  0  0  0  0  0  0  0  0  0
   38.2680   34.1840   41.0010 H   0  0  0  0  0  0  0  0  0  0  0  0
   40.1210   35.2810   40.5340 C   0  0  0  0  0  0  0  0  0  0  0  0
   39.8760   36.0850   41.2330 H   0  0  0  0  0  0  0  0  0  0  0  0
   41.2790   35.2860   39.7830 C   0  0  0  0  0  3  0  0  0  0  0  0
   41.5110   34.2310   38.9220 C   0  0  0  0  0  3  0  0  0  0  0  0
   37.8590   28.6010   43.4630 C   0  0  0  0  0  0  0  0  0  0  0  0
   38.6940   29.2780   43.7420 H   0  0  0  0  0  0  0  0  0  0  0  0
   37.2130   28.5450   44.3840 H   0  0  0  0  0  0  0  0  0  0  0  0
   38.4280   27.2380   43.2310 C   0  0  0  0  0  0  0  0  0  0  0  0
   38.1080   26.5110   43.9960 H   0  0  0  0  0  0  0  0  0  0  0  0
   38.0780   26.8290   42.2590 H   0  0  0  0  0  0  0  0  0  0  0  0
   39.7450   24.5690   43.4440 Cl  0  0  0  0  0  0  0  0  0  0  0  0
   40.6390   26.0460   43.2850 C   0  0  0  0  0  0  0  0  0  0  0  0
   39.9210   27.2200   43.1940 C   0  0  0  0  0  0  0  0  0  0  0  0
   40.6330   28.4030   43.0660 C   0  0  0  0  0  0  0  0  0  0  0  0
   42.0120   28.4000   43.0320 C   0  0  0  0  0  0  0  0  0  0  0  0
   42.7300   27.2060   43.1240 C   0  0  0  0  0  0  0  0  0  0  0  0
   42.0090   26.0290   43.2520 C   0  0  0  0  0  0  0  0  0  0  0  0
   40.1190   29.3510   42.9910 H   0  0  0  0  0  0  0  0  0  0  0  0
   42.5430   29.3490   42.9310 H   0  0  0  0  0  0  0  0  0  0  0  0
   43.8100   27.1870   43.0990 H   0  0  0  0  0  0  0  0  0  0  0  0
   42.6360   24.7810   43.3520 O   0  0  0  0  0  0  0  0  0  0  0  0
   43.1910   24.5590   44.1660 H   0  0  0  0  0  0  0  0  0  0  0  0
  1 25  1  0  0  0  0
  2  7  1  0  0  0  0
  2  1  2  0  0  0  0
  3  2  1  0  0  0  0
  4  3  2  0  0  0  0
  4  5  1  0  0  0  0
  5  6  2  0  0  0  0
  6  1  1  0  0  0  0
  8  3  1  0  0  0  0
  9  5  1  0  0  0  0
  9 12  1  1  0  0  0
 10 11  1  0  0  0  0
 10  9  1  0  0  0  0
 11 15  1  6  0  0  0
 11 18  1  0  0  0  0
 11  9  1  0  0  0  0
 13 10  1  0  0  0  0
 14 10  1  0  0  0  0
 16 17  1  0  0  0  0
 17 24  2  0  0  0  0
 17 18  1  0  0  0  0
 18 19  2  0  0  0  0
 19 21  1  0  0  0  0
 19 20  1  0  0  0  0
 21 22  1  0  0  0  0
 23 21  2  0  0  0  0
 24 23  1  0  0  0  0
 25 26  1  0  0  0  0
 25 27  1  0  0  0  0
 28 25  1  0  0  0  0
 28 29  1  0  0  0  0
 30 28  1  0  0  0  0
 32 31  1  0  0  0  0
 33 28  1  0  0  0  0
 33 32  2  0  0  0  0
 34 33  1  0  0  0  0
 35 34  2  0  0  0  0
 35 36  1  0  0  0  0
 36 37  2  0  0  0  0
 37 32  1  0  0  0  0
 37 41  1  0  0  0  0
 38 34  1  0  0  0  0
 39 35  1  0  0  0  0
 40 36  1  0  0  0  0
 41 42  1  0  0  0  0
M  END
>  <minimizedAffinity>
-6.91862726

$$$$

 OpenBabel03242519183D

 42 45  0  0  1  0  0  0  0  0999 V2000
   38.8970   30.0920   41.7980 C   0  0  0  0  0  0  0  0  0  0  0  0
   39.3990   31.3670   41.6590 C   0  0  0  0  0  0  0  0  0  0  0  0
   38.7590   32.3700   40.9160 C   0  0  0  0  0  0  0  0  0  0  0  0
   37.5870   32.0000   40.3290 N   0  0  0  0  0  0  0  0  0  0  0  0
   37.1000   30.7600   40.4650 C   0  0  0  0  0  0  0  0  0  0  0  0
   37.7480   29.8340   41.1850 N   0  0  0  0  0  0  0  0  0  0  0  0
   40.3530   31.5640   42.1730 H   0  0  0  0  0  0  0  0  0  0  0  0
   39.1920   33.3440   40.8410 H   0  0  0  0  0  0  0  0  0  0  0  0
   35.7990   30.3470   39.8500 C   0  0  2  0  0  0  0  0  0  0  0  0
   35.0450   29.2120   40.4670 C   0  0  0  0  0  0  0  0  0  0  0  0
   35.7920   29.0400   39.1340 C   0  0  1  0  0  0  0  0  0  0  0  0
   35.2400   31.1850   39.4130 H   0  0  0  0  0  0  0  0  0  0  0  0
   35.4930   28.6460   41.3140 H   0  0  0  0  0  0  0  0  0  0  0  0
   33.9460   29.1720   40.3690 H   0  0  0  0  0  0  0  0  0  0  0  0
   36.7360   28.4510   39.1420 H   0  0  0  0  0  0  0  0  0  0  0  0
   37.5110   29.4940   36.7460 Cl  0  0  0  0  0  0  0  0  0  0  0  0
   35.7660   29.2290   36.7380 C   0  0  0  0  0  0  0  0  0  0  0  0
   34.9890   29.0190   37.8820 C   0  0  0  0  0  0  0  0  0  0  0  0
   33.6300   28.8260   37.7300 C   0  0  0  0  0  0  0  0  0  0  0  0
   33.1110   28.6720   38.6600 H   0  0  0  0  0  0  0  0  0  0  0  0
   33.0790   28.8440   36.4640 C   0  0  0  0  0  0  0  0  0  0  0  0
   31.9990   28.6840   36.4210 H   0  0  0  0  0  0  0  0  0  0  0  0
   33.8380   29.0500   35.3310 C   0  0  0  0  0  3  0  0  0  0  0  0
   35.1980   29.2450   35.4740 C   0  0  0  0  0  3  0  0  0  0  0  0
   39.5700   29.0850   42.5750 C   0  0  0  0  0  0  0  0  0  0  0  0
   40.1100   28.3590   41.9310 H   0  0  0  0  0  0  0  0  0  0  0  0
   40.3560   29.4900   43.2740 H   0  0  0  0  0  0  0  0  0  0  0  0
   38.5830   28.3250   43.4020 C   0  0  0  0  0  0  0  0  0  0  0  0
   38.8830   28.2590   44.4610 H   0  0  0  0  0  0  0  0  0  0  0  0
   37.5960   28.8330   43.3960 H   0  0  0  0  0  0  0  0  0  0  0  0
   40.6360   26.2900   44.1450 Cl  0  0  0  0  0  0  0  0  0  0  0  0
   39.2370   25.9070   43.1960 C   0  0  0  0  0  0  0  0  0  0  0  0
   38.3560   26.9310   42.9150 C   0  0  0  0  0  0  0  0  0  0  0  0
   37.2350   26.6280   42.1560 C   0  0  0  0  0  0  0  0  0  0  0  0
   37.0150   25.3450   41.7000 C   0  0  0  0  0  0  0  0  0  0  0  0
   37.9120   24.3150   41.9900 C   0  0  0  0  0  0  0  0  0  0  0  0
   39.0280   24.6290   42.7480 C   0  0  0  0  0  0  0  0  0  0  0  0
   36.5140   27.3940   41.9080 H   0  0  0  0  0  0  0  0  0  0  0  0
   36.1220   25.1400   41.1040 H   0  0  0  0  0  0  0  0  0  0  0  0
   37.7530   23.3050   41.6390 H   0  0  0  0  0  0  0  0  0  0  0  0
   39.9870   23.6680   43.0920 O   0  0  0  0  0  0  0  0  0  0  0  0
   40.5610   23.2480   42.3740 H   0  0  0  0  0  0  0  0  0  0  0  0
  1 25  1  0  0  0  0
  2  1  1  0  0  0  0
  2  7  1  0  0  0  0
  3  2  2  0  0  0  0
  4  5  2  0  0  0  0
  4  3  1  0  0  0  0
  5  6  1  0  0  0  0
  6  1  2  0  0  0  0
  8  3  1  0  0  0  0
  9 12  1  6  0  0  0
  9  5  1  0  0  0  0
  9 10  1  0  0  0  0
 10 13  1  0  0  0  0
 11 15  1  1  0  0  0
 11  9  1  0  0  0  0
 11 10  1  0  0  0  0
 14 10  1  0  0  0  0
 17 16  1  0  0  0  0
 17 18  1  0  0  0  0
 18 11  1  0  0  0  0
 19 18  2  0  0  0  0
 19 20  1  0  0  0  0
 21 19  1  0  0  0  0
 22 21  1  0  0  0  0
 23 24  1  0  0  0  0
 23 21  2  0  0  0  0
 24 17  2  0  0  0  0
 25 27  1  0  0  0  0
 25 28  1  0  0  0  0
 26 25  1  0  0  0  0
 28 29  1  0  0  0  0
 30 28  1  0  0  0  0
 32 31  1  0  0  0  0
 33 32  1  0  0  0  0
 33 28  1  0  0  0  0
 34 33  2  0  0  0  0
 35 36  2  0  0  0  0
 35 34  1  0  0  0  0
 36 37  1  0  0  0  0
 37 41  1  0  0  0  0
 37 32  2  0  0  0  0
 38 34  1  0  0  0  0
 39 35  1  0  0  0  0
 40 36  1  0  0  0  0
 42 41  1  0  0  0  0
M  END
>  <minimizedAffinity>
-6.65678978

$$$$

 OpenBabel03242519183D

 42 45  0  0  1  0  0  0  0  0999 V2000
   36.3840   26.9360   37.3030 C   0  0  0  0  0  0  0  0  0  0  0  0
   35.2500   26.3260   36.8150 C   0  0  0  0  0  0  0  0  0  0  0  0
   34.7140   25.1480   37.3580 C   0  0  0  0  0  0  0  0  0  0  0  0
   35.3970   24.6340   38.4190 N   0  0  0  0  0  0  0  0  0  0  0  0
   36.5000   25.2290   38.8920 C   0  0  0  0  0  0  0  0  0  0  0  0
   36.9740   26.3530   38.3410 N   0  0  0  0  0  0  0  0  0  0  0  0
   34.7730   26.8210   35.9550 H   0  0  0  0  0  0  0  0  0  0  0  0
   33.8310   24.7160   36.9410 H   0  0  0  0  0  0  0  0  0  0  0  0
   37.2430   24.6920   40.0760 C   0  0  2  0  0  0  0  0  0  0  0  0
   36.4640   24.0420   41.1750 C   0  0  0  0  0  0  0  0  0  0  0  0
   37.0780   25.4400   41.3540 C   0  0  1  0  0  0  0  0  0  0  0  0
   38.2380   24.3030   39.8240 H   0  0  0  0  0  0  0  0  0  0  0  0
   35.3510   24.0370   41.1360 H   0  0  0  0  0  0  0  0  0  0  0  0
   36.9430   23.2640   41.7940 H   0  0  0  0  0  0  0  0  0  0  0  0
   36.3890   26.3140   41.3470 H   0  0  0  0  0  0  0  0  0  0  0  0
   36.9720   27.8330   43.1220 Cl  0  0  0  0  0  0  0  0  0  0  0  0
   38.3000   26.6750   43.0160 C   0  0  0  0  0  0  0  0  0  0  0  0
   38.3160   25.5590   42.1720 C   0  0  0  0  0  0  0  0  0  0  0  0
   39.4220   24.7340   42.1900 C   0  0  0  0  0  0  0  0  0  0  0  0
   39.3480   23.9020   41.5100 H   0  0  0  0  0  0  0  0  0  0  0  0
   40.4750   25.0280   43.0320 C   0  0  0  0  0  0  0  0  0  0  0  0
   41.3160   24.3310   42.9930 H   0  0  0  0  0  0  0  0  0  0  0  0
   40.4680   26.1260   43.8680 C   0  0  0  0  0  3  0  0  0  0  0  0
   39.3650   26.9570   43.8560 C   0  0  0  0  0  3  0  0  0  0  0  0
   36.9060   28.1500   36.7330 C   0  0  0  0  0  0  0  0  0  0  0  0
   37.8890   28.4220   37.1700 H   0  0  0  0  0  0  0  0  0  0  0  0
   37.0880   28.0970   35.6220 H   0  0  0  0  0  0  0  0  0  0  0  0
   35.9620   29.2840   36.9780 C   0  0  0  0  0  0  0  0  0  0  0  0
   35.7880   29.8900   36.0740 H   0  0  0  0  0  0  0  0  0  0  0  0
   34.9650   28.9030   37.2850 H   0  0  0  0  0  0  0  0  0  0  0  0
   34.6340   29.0150   39.6360 Cl  0  0  0  0  0  0  0  0  0  0  0  0
   35.8790   30.1800   39.3240 C   0  0  0  0  0  0  0  0  0  0  0  0
   36.4210   30.2110   38.0560 C   0  0  0  0  0  0  0  0  0  0  0  0
   37.4180   31.1400   37.8030 C   0  0  0  0  0  0  0  0  0  0  0  0
   37.8500   32.0020   38.7900 C   0  0  0  0  0  0  0  0  0  0  0  0
   37.2960   31.9630   40.0710 C   0  0  0  0  0  0  0  0  0  0  0  0
   36.3000   31.0300   40.3130 C   0  0  0  0  0  0  0  0  0  0  0  0
   37.8760   31.2070   36.8250 H   0  0  0  0  0  0  0  0  0  0  0  0
   38.6370   32.7230   38.5580 H   0  0  0  0  0  0  0  0  0  0  0  0
   37.6240   32.6310   40.8540 H   0  0  0  0  0  0  0  0  0  0  0  0
   35.6820   30.9110   41.5630 O   0  0  0  0  0  0  0  0  0  0  0  0
   35.1000   31.6610   41.9130 H   0  0  0  0  0  0  0  0  0  0  0  0
  1  6  1  0  0  0  0
  2  1  2  0  0  0  0
  2  3  1  0  0  0  0
  3  4  2  0  0  0  0
  4  5  1  0  0  0  0
  5  9  1  0  0  0  0
  6  5  2  0  0  0  0
  7  2  1  0  0  0  0
  8  3  1  0  0  0  0
  9 12  1  6  0  0  0
  9 10  1  0  0  0  0
  9 11  1  0  0  0  0
 10 11  1  0  0  0  0
 10 14  1  0  0  0  0
 11 15  1  6  0  0  0
 11 18  1  0  0  0  0
 13 10  1  0  0  0  0
 17 16  1  0  0  0  0
 17 24  1  0  0  0  0
 18 19  1  0  0  0  0
 18 17  2  0  0  0  0
 19 21  2  0  0  0  0
 20 19  1  0  0  0  0
 21 23  1  0  0  0  0
 22 21  1  0  0  0  0
 24 23  2  0  0  0  0
 25 28  1  0  0  0  0
 25 26  1  0  0  0  0
 25  1  1  0  0  0  0
 27 25  1  0  0  0  0
 28 30  1  0  0  0  0
 28 33  1  0  0  0  0
 29 28  1  0  0  0  0
 32 31  1  0  0  0  0
 32 37  1  0  0  0  0
 33 32  2  0  0  0  0
 34 33  1  0  0  0  0
 34 35  2  0  0  0  0
 35 36  1  0  0  0  0
 36 37  2  0  0  0  0
 36 40  1  0  0  0  0
 37 41  1  0  0  0  0
 38 34  1  0  0  0  0
 39 35  1  0  0  0  0
 41 42  1  0  0  0  0
M  END
>  <minimizedAffinity>
-6.63788748

$$$$

 OpenBabel03242519183D

 42 45  0  0  1  0  0  0  0  0999 V2000
   38.7510   29.9940   42.3330 C   0  0  0  0  0  0  0  0  0  0  0  0
   39.8860   30.7120   42.6350 C   0  0  0  0  0  0  0  0  0  0  0  0
   40.5340   31.5520   41.7160 C   0  0  0  0  0  0  0  0  0  0  0  0
   39.9610   31.6150   40.4820 N   0  0  0  0  0  0  0  0  0  0  0  0
   38.8580   30.9150   40.1900 C   0  0  0  0  0  0  0  0  0  0  0  0
   38.2730   30.1250   41.1010 N   0  0  0  0  0  0  0  0  0  0  0  0
   40.2700   30.5910   43.6600 H   0  0  0  0  0  0  0  0  0  0  0  0
   41.4120   32.0870   42.0030 H   0  0  0  0  0  0  0  0  0  0  0  0
   38.1990   30.9970   38.8470 C   0  0  2  0  0  0  0  0  0  0  0  0
   37.2870   32.1490   38.5680 C   0  0  0  0  0  0  0  0  0  0  0  0
   36.7330   30.7370   38.8140 C   0  0  1  0  0  0  0  0  0  0  0  0
   38.8190   30.5970   38.0340 H   0  0  0  0  0  0  0  0  0  0  0  0
   37.0510   32.8770   39.3770 H   0  0  0  0  0  0  0  0  0  0  0  0
   37.1600   32.5020   37.5290 H   0  0  0  0  0  0  0  0  0  0  0  0
   36.2290   30.5400   39.7870 H   0  0  0  0  0  0  0  0  0  0  0  0
   34.3090   29.1400   39.4790 Cl  0  0  0  0  0  0  0  0  0  0  0  0
   35.1250   29.1930   37.9140 C   0  0  0  0  0  0  0  0  0  0  0  0
   36.2640   29.9560   37.6370 C   0  0  0  0  0  0  0  0  0  0  0  0
   36.8010   29.9030   36.3660 C   0  0  0  0  0  0  0  0  0  0  0  0
   37.6740   30.5200   36.2430 H   0  0  0  0  0  0  0  0  0  0  0  0
   36.2050   29.1050   35.4100 C   0  0  0  0  0  0  0  0  0  0  0  0
   36.6850   29.1130   34.4280 H   0  0  0  0  0  0  0  0  0  0  0  0
   35.0810   28.3490   35.6750 C   0  0  0  0  0  3  0  0  0  0  0  0
   34.5380   28.3970   36.9440 C   0  0  0  0  0  3  0  0  0  0  0  0
   38.1020   29.1480   43.2980 C   0  0  0  0  0  0  0  0  0  0  0  0
   38.8080   28.7940   44.0790 H   0  0  0  0  0  0  0  0  0  0  0  0
   37.2700   29.6520   43.8680 H   0  0  0  0  0  0  0  0  0  0  0  0
   37.5180   27.9470   42.6250 C   0  0  0  0  0  0  0  0  0  0  0  0
   36.5050   27.7090   42.9890 H   0  0  0  0  0  0  0  0  0  0  0  0
   37.4150   28.1230   41.5330 H   0  0  0  0  0  0  0  0  0  0  0  0
   36.7330   25.5690   41.0020 Cl  0  0  0  0  0  0  0  0  0  0  0  0
   38.0830   25.5570   42.0890 C   0  0  0  0  0  0  0  0  0  0  0  0
   38.3510   26.7170   42.7870 C   0  0  0  0  0  0  0  0  0  0  0  0
   39.4310   26.7110   43.6570 C   0  0  0  0  0  0  0  0  0  0  0  0
   40.2070   25.5820   43.8160 C   0  0  0  0  0  0  0  0  0  0  0  0
   39.9280   24.4130   43.1050 C   0  0  0  0  0  0  0  0  0  0  0  0
   38.8460   24.4290   42.2380 C   0  0  0  0  0  0  0  0  0  0  0  0
   39.6840   27.5940   44.2280 H   0  0  0  0  0  0  0  0  0  0  0  0
   41.0490   25.6110   44.5100 H   0  0  0  0  0  0  0  0  0  0  0  0
   40.5260   23.5200   43.2190 H   0  0  0  0  0  0  0  0  0  0  0  0
   38.4850   23.3080   41.4810 O   0  0  0  0  0  0  0  0  0  0  0  0
   38.1350   22.4790   41.9420 H   0  0  0  0  0  0  0  0  0  0  0  0
  1  2  1  0  0  0  0
  1 25  1  0  0  0  0
  2  7  1  0  0  0  0
  3  8  1  0  0  0  0
  3  2  2  0  0  0  0
  4  3  1  0  0  0  0
  5  4  2  0  0  0  0
  5  6  1  0  0  0  0
  6  1  2  0  0  0  0
  9 12  1  6  0  0  0
  9  5  1  0  0  0  0
 10 11  1  0  0  0  0
 10  9  1  0  0  0  0
 10 13  1  0  0  0  0
 11  9  1  0  0  0  0
 11 15  1  1  0  0  0
 14 10  1  0  0  0  0
 17 16  1  0  0  0  0
 18 17  1  0  0  0  0
 18 11  1  0  0  0  0
 19 18  2  0  0  0  0
 20 19  1  0  0  0  0
 21 23  2  0  0  0  0
 21 19  1  0  0  0  0
 22 21  1  0  0  0  0
 23 24  1  0  0  0  0
 24 17  2  0  0  0  0
 25 27  1  0  0  0  0
 25 26  1  0  0  0  0
 28 33  1  0  0  0  0
 28 29  1  0  0  0  0
 28 25  1  0  0  0  0
 30 28  1  0  0  0  0
 31 32  1  0  0  0  0
 32 37  2  0  0  0  0
 32 33  1  0  0  0  0
 33 34  2  0  0  0  0
 34 35  1  0  0  0  0
 34 38  1  0  0  0  0
 35 39  1  0  0  0  0
 36 40  1  0  0  0  0
 36 35  2  0  0  0  0
 37 36  1  0  0  0  0
 41 42  1  0  0  0  0
 41 37  1  0  0  0  0
M  END
>  <minimizedAffinity>
-6.59642935

$$$$

 OpenBabel03242519183D

 42 45  0  0  1  0  0  0  0  0999 V2000
   36.7850   29.1010   41.7380 C   0  0  0  0  0  0  0  0  0  0  0  0
   35.6480   28.6340   41.1180 C   0  0  0  0  0  0  0  0  0  0  0  0
   35.0560   29.2670   40.0150 C   0  0  0  0  0  0  0  0  0  0  0  0
   35.6870   30.3960   39.5860 N   0  0  0  0  0  0  0  0  0  0  0  0
   36.7920   30.8500   40.1900 C   0  0  0  0  0  0  0  0  0  0  0  0
   37.3220   30.2100   41.2410 N   0  0  0  0  0  0  0  0  0  0  0  0
   35.2160   27.7140   41.5420 H   0  0  0  0  0  0  0  0  0  0  0  0
   34.1740   28.8620   39.5710 H   0  0  0  0  0  0  0  0  0  0  0  0
   37.5130   32.0720   39.7110 C   0  0  2  0  0  0  0  0  0  0  0  0
   37.9200   32.1440   38.2730 C   0  0  0  0  0  0  0  0  0  0  0  0
   38.9560   31.9020   39.3830 C   0  0  1  0  0  0  0  0  0  0  0  0
   37.1990   32.9900   40.2240 H   0  0  0  0  0  0  0  0  0  0  0  0
   37.7550   31.2680   37.6070 H   0  0  0  0  0  0  0  0  0  0  0  0
   38.0150   33.1290   37.7840 H   0  0  0  0  0  0  0  0  0  0  0  0
   39.3820   30.8780   39.4790 H   0  0  0  0  0  0  0  0  0  0  0  0
   41.7820   31.0260   39.7200 Cl  0  0  0  0  0  0  0  0  0  0  0  0
   41.1630   32.6630   39.9540 C   0  0  0  0  0  0  0  0  0  0  0  0
   39.8260   33.0390   39.7860 C   0  0  0  0  0  0  0  0  0  0  0  0
   39.4790   34.3570   40.0030 C   0  0  0  0  0  0  0  0  0  0  0  0
   38.4320   34.5570   39.8520 H   0  0  0  0  0  0  0  0  0  0  0  0
   40.4520   35.2630   40.3760 C   0  0  0  0  0  0  0  0  0  0  0  0
   40.1040   36.2870   40.5300 H   0  0  0  0  0  0  0  0  0  0  0  0
   41.7730   34.9010   40.5430 C   0  0  0  0  0  3  0  0  0  0  0  0
   42.1290   33.5840   40.3280 C   0  0  0  0  0  3  0  0  0  0  0  0
   37.3770   28.4250   42.8620 C   0  0  0  0  0  0  0  0  0  0  0  0
   38.4660   28.2620   42.7180 H   0  0  0  0  0  0  0  0  0  0  0  0
   37.2950   28.9880   43.8350 H   0  0  0  0  0  0  0  0  0  0  0  0
   36.7320   27.0910   43.0610 C   0  0  0  0  0  0  0  0  0  0  0  0
   36.5610   26.8600   44.1260 H   0  0  0  0  0  0  0  0  0  0  0  0
   35.7310   27.0660   42.5810 H   0  0  0  0  0  0  0  0  0  0  0  0
   39.4730   26.6620   44.1570 Cl  0  0  0  0  0  0  0  0  0  0  0  0
   38.7980   25.6690   42.9070 C   0  0  0  0  0  0  0  0  0  0  0  0
   37.5190   25.9620   42.4800 C   0  0  0  0  0  0  0  0  0  0  0  0
   36.9750   25.1700   41.4810 C   0  0  0  0  0  0  0  0  0  0  0  0
   37.6930   24.1250   40.9360 C   0  0  0  0  0  0  0  0  0  0  0  0
   38.9870   23.8360   41.3750 C   0  0  0  0  0  0  0  0  0  0  0  0
   39.5200   24.6350   42.3740 C   0  0  0  0  0  0  0  0  0  0  0  0
   35.9770   25.3570   41.1100 H   0  0  0  0  0  0  0  0  0  0  0  0
   37.2350   23.5210   40.1500 H   0  0  0  0  0  0  0  0  0  0  0  0
   39.5610   23.0210   40.9570 H   0  0  0  0  0  0  0  0  0  0  0  0
   40.8080   24.4260   42.8810 O   0  0  0  0  0  0  0  0  0  0  0  0
   41.6150   24.5800   42.2920 H   0  0  0  0  0  0  0  0  0  0  0  0
  1 25  1  0  0  0  0
  2  7  1  0  0  0  0
  2  1  2  0  0  0  0
  3  2  1  0  0  0  0
  4  3  2  0  0  0  0
  4  5  1  0  0  0  0
  5  6  2  0  0  0  0
  6  1  1  0  0  0  0
  8  3  1  0  0  0  0
  9  5  1  0  0  0  0
  9 12  1  1  0  0  0
 10 11  1  0  0  0  0
 10  9  1  0  0  0  0
 11 15  1  1  0  0  0
 11  9  1  0  0  0  0
 11 18  1  0  0  0  0
 13 10  1  0  0  0  0
 14 10  1  0  0  0  0
 16 17  1  0  0  0  0
 17 24  1  0  0  0  0
 18 17  2  0  0  0  0
 18 19  1  0  0  0  0
 19 21  2  0  0  0  0
 20 19  1  0  0  0  0
 21 22  1  0  0  0  0
 21 23  1  0  0  0  0
 24 23  2  0  0  0  0
 25 28  1  0  0  0  0
 25 27  1  0  0  0  0
 26 25  1  0  0  0  0
 28 29  1  0  0  0  0
 30 28  1  0  0  0  0
 32 31  1  0  0  0  0
 33 32  1  0  0  0  0
 33 28  1  0  0  0  0
 34 33  2  0  0  0  0
 35 36  2  0  0  0  0
 35 34  1  0  0  0  0
 36 37  1  0  0  0  0
 37 41  1  0  0  0  0
 37 32  2  0  0  0  0
 38 34  1  0  0  0  0
 39 35  1  0  0  0  0
 40 36  1  0  0  0  0
 42 41  1  0  0  0  0
M  END
>  <minimizedAffinity>
-6.45266342

$$$$

 OpenBabel03242519183D

 42 45  0  0  1  0  0  0  0  0999 V2000
   38.9590   31.6560   41.1450 C   0  0  0  0  0  0  0  0  0  0  0  0
   37.9370   32.3350   40.5210 C   0  0  0  0  0  0  0  0  0  0  0  0
   36.6230   31.8510   40.4450 C   0  0  0  0  0  0  0  0  0  0  0  0
   36.4140   30.6420   41.0380 N   0  0  0  0  0  0  0  0  0  0  0  0
   37.4090   29.9820   41.6440 C   0  0  0  0  0  0  0  0  0  0  0  0
   38.6500   30.4850   41.6910 N   0  0  0  0  0  0  0  0  0  0  0  0
   38.2110   33.3030   40.0730 H   0  0  0  0  0  0  0  0  0  0  0  0
   35.8670   32.4190   39.9490 H   0  0  0  0  0  0  0  0  0  0  0  0
   37.1890   28.6670   42.3260 C   0  0  2  0  0  0  0  0  0  0  0  0
   37.4110   28.5820   43.8030 C   0  0  0  0  0  0  0  0  0  0  0  0
   38.4080   27.9620   42.8110 C   0  0  1  0  0  0  0  0  0  0  0  0
   36.3870   28.0710   41.8710 H   0  0  0  0  0  0  0  0  0  0  0  0
   37.8080   29.4630   44.3550 H   0  0  0  0  0  0  0  0  0  0  0  0
   36.8510   27.8360   44.3940 H   0  0  0  0  0  0  0  0  0  0  0  0
   39.3840   28.4770   42.6680 H   0  0  0  0  0  0  0  0  0  0  0  0
   40.7900   26.6930   44.0690 Cl  0  0  0  0  0  0  0  0  0  0  0  0
   39.4940   25.8550   43.2110 C   0  0  0  0  0  0  0  0  0  0  0  0
   38.3880   26.4850   42.6320 C   0  0  0  0  0  0  0  0  0  0  0  0
   37.4480   25.7060   41.9890 C   0  0  0  0  0  0  0  0  0  0  0  0
   36.6320   26.2720   41.5730 H   0  0  0  0  0  0  0  0  0  0  0  0
   37.6210   24.3380   41.9360 C   0  0  0  0  0  0  0  0  0  0  0  0
   36.8370   23.7860   41.4110 H   0  0  0  0  0  0  0  0  0  0  0  0
   38.7090   23.7080   42.5050 C   0  0  0  0  0  3  0  0  0  0  0  0
   39.6550   24.4800   43.1500 C   0  0  0  0  0  3  0  0  0  0  0  0
   40.2970   32.1820   41.2170 C   0  0  0  0  0  0  0  0  0  0  0  0
   40.6280   32.3250   42.2660 H   0  0  0  0  0  0  0  0  0  0  0  0
   41.0800   31.5160   40.7550 H   0  0  0  0  0  0  0  0  0  0  0  0
   40.3700   33.5050   40.5240 C   0  0  0  0  0  0  0  0  0  0  0  0
   39.4210   33.7770   40.0330 H   0  0  0  0  0  0  0  0  0  0  0  0
   40.5790   34.3160   41.2530 H   0  0  0  0  0  0  0  0  0  0  0  0
   42.9790   34.6820   41.3640 Cl  0  0  0  0  0  0  0  0  0  0  0  0
   42.6900   34.0930   39.7590 C   0  0  0  0  0  0  0  0  0  0  0  0
   41.4430   33.5690   39.4870 C   0  0  0  0  0  0  0  0  0  0  0  0
   41.2090   33.0960   38.2050 C   0  0  0  0  0  0  0  0  0  0  0  0
   42.1920   33.1510   37.2380 C   0  0  0  0  0  0  0  0  0  0  0  0
   43.4510   33.6830   37.5240 C   0  0  0  0  0  0  0  0  0  0  0  0
   43.6740   34.1530   38.8080 C   0  0  0  0  0  0  0  0  0  0  0  0
   40.2480   32.6760   37.9390 H   0  0  0  0  0  0  0  0  0  0  0  0
   41.9740   32.7700   36.2380 H   0  0  0  0  0  0  0  0  0  0  0  0
   44.2310   33.7320   36.7770 H   0  0  0  0  0  0  0  0  0  0  0  0
   44.9030   34.7040   39.1930 O   0  0  0  0  0  0  0  0  0  0  0  0
   45.2120   35.5790   38.7920 H   0  0  0  0  0  0  0  0  0  0  0  0
  1 25  1  0  0  0  0
  1  6  1  0  0  0  0
  2  1  2  0  0  0  0
  3  2  1  0  0  0  0
  3  4  2  0  0  0  0
  4  5  1  0  0  0  0
  5  6  2  0  0  0  0
  5  9  1  0  0  0  0
  7  2  1  0  0  0  0
  8  3  1  0  0  0  0
  9 12  1  6  0  0  0
  9 11  1  0  0  0  0
  9 10  1  0  0  0  0
 10 13  1  0  0  0  0
 10 14  1  0  0  0  0
 11 15  1  6  0  0  0
 11 10  1  0  0  0  0
 17 16  1  0  0  0  0
 18 11  1  0  0  0  0
 18 17  2  0  0  0  0
 19 18  1  0  0  0  0
 20 19  1  0  0  0  0
 21 19  2  0  0  0  0
 21 23  1  0  0  0  0
 22 21  1  0  0  0  0
 23 24  2  0  0  0  0
 24 17  1  0  0  0  0
 25 26  1  0  0  0  0
 27 25  1  0  0  0  0
 28 25  1  0  0  0  0
 28 30  1  0  0  0  0
 29 28  1  0  0  0  0
 32 31  1  0  0  0  0
 33 32  1  0  0  0  0
 33 28  1  0  0  0  0
 34 33  2  0  0  0  0
 35 36  2  0  0  0  0
 35 34  1  0  0  0  0
 36 37  1  0  0  0  0
 37 41  1  0  0  0  0
 37 32  2  0  0  0  0
 38 34  1  0  0  0  0
 39 35  1  0  0  0  0
 40 36  1  0  0  0  0
 42 41  1  0  0  0  0
M  END
>  <minimizedAffinity>
-6.44055986

$$$$

 OpenBabel03242519183D

 42 45  0  0  1  0  0  0  0  0999 V2000
   39.9370   33.1970   40.4240 C   0  0  0  0  0  0  0  0  0  0  0  0
   41.2300   33.6710   40.4240 C   0  0  0  0  0  0  0  0  0  0  0  0
   42.2710   33.0710   41.1480 C   0  0  0  0  0  0  0  0  0  0  0  0
   41.9190   31.9680   41.8660 N   0  0  0  0  0  0  0  0  0  0  0  0
   40.6610   31.5090   41.8660 C   0  0  0  0  0  0  0  0  0  0  0  0
   39.6990   32.1160   41.1590 N   0  0  0  0  0  0  0  0  0  0  0  0
   41.4100   34.5680   39.8110 H   0  0  0  0  0  0  0  0  0  0  0  0
   43.2570   33.4790   41.1120 H   0  0  0  0  0  0  0  0  0  0  0  0
   40.2660   30.2810   42.6270 C   0  0  2  0  0  0  0  0  0  0  0  0
   41.0830   29.0390   42.4540 C   0  0  0  0  0  0  0  0  0  0  0  0
   39.6850   29.1670   41.8270 C   0  0  1  0  0  0  0  0  0  0  0  0
   39.8290   30.5010   43.6100 H   0  0  0  0  0  0  0  0  0  0  0  0
   41.9130   29.0220   41.7130 H   0  0  0  0  0  0  0  0  0  0  0  0
   41.1350   28.3050   43.2770 H   0  0  0  0  0  0  0  0  0  0  0  0
   39.6230   29.3100   40.7250 H   0  0  0  0  0  0  0  0  0  0  0  0
   38.7160   26.9150   40.1370 Cl  0  0  0  0  0  0  0  0  0  0  0  0
   38.0770   27.3840   41.7150 C   0  0  0  0  0  0  0  0  0  0  0  0
   38.5580   28.4500   42.4820 C   0  0  0  0  0  0  0  0  0  0  0  0
   37.9620   28.7070   43.7010 C   0  0  0  0  0  0  0  0  0  0  0  0
   38.3950   29.5430   44.2220 H   0  0  0  0  0  0  0  0  0  0  0  0
   36.9180   27.9120   44.1270 C   0  0  0  0  0  0  0  0  0  0  0  0
   36.4970   28.1740   45.1010 H   0  0  0  0  0  0  0  0  0  0  0  0
   36.4370   26.8580   43.3770 C   0  0  0  0  0  3  0  0  0  0  0  0
   37.0280   26.5940   42.1560 C   0  0  0  0  0  3  0  0  0  0  0  0
   38.8900   33.8270   39.6640 C   0  0  0  0  0  0  0  0  0  0  0  0
   38.8010   34.9080   39.9010 H   0  0  0  0  0  0  0  0  0  0  0  0
   39.0430   33.7880   38.5480 H   0  0  0  0  0  0  0  0  0  0  0  0
   37.5750   33.1790   39.9580 C   0  0  0  0  0  0  0  0  0  0  0  0
   37.4920   32.8500   41.0080 H   0  0  0  0  0  0  0  0  0  0  0  0
   36.7430   33.8950   39.7980 H   0  0  0  0  0  0  0  0  0  0  0  0
   36.2000   30.8700   41.2540 Cl  0  0  0  0  0  0  0  0  0  0  0  0
   36.6670   30.8660   39.5850 C   0  0  0  0  0  0  0  0  0  0  0  0
   37.2970   31.9910   39.0950 C   0  0  0  0  0  0  0  0  0  0  0  0
   37.6710   31.9920   37.7600 C   0  0  0  0  0  0  0  0  0  0  0  0
   37.4200   30.9010   36.9540 C   0  0  0  0  0  0  0  0  0  0  0  0
   36.7820   29.7670   37.4580 C   0  0  0  0  0  0  0  0  0  0  0  0
   36.4120   29.7770   38.7940 C   0  0  0  0  0  0  0  0  0  0  0  0
   38.1680   32.8490   37.3270 H   0  0  0  0  0  0  0  0  0  0  0  0
   37.7290   30.9340   35.9070 H   0  0  0  0  0  0  0  0  0  0  0  0
   36.5780   28.9050   36.8390 H   0  0  0  0  0  0  0  0  0  0  0  0
   35.7670   28.6880   39.3930 O   0  0  0  0  0  0  0  0  0  0  0  0
   36.2570   27.8120   39.5100 H   0  0  0  0  0  0  0  0  0  0  0  0
  1  6  1  0  0  0  0
  2  1  2  0  0  0  0
  2  3  1  0  0  0  0
  3  4  2  0  0  0  0
  5  4  1  0  0  0  0
  5  9  1  0  0  0  0
  6  5  2  0  0  0  0
  7  2  1  0  0  0  0
  8  3  1  0  0  0  0
  9 12  1  1  0  0  0
 10  9  1  0  0  0  0
 10 14  1  0  0  0  0
 11 15  1  6  0  0  0
 11 10  1  0  0  0  0
 11 18  1  0  0  0  0
 11  9  1  0  0  0  0
 13 10  1  0  0  0  0
 16 17  1  0  0  0  0
 17 24  2  0  0  0  0
 17 18  1  0  0  0  0
 18 19  2  0  0  0  0
 19 21  1  0  0  0  0
 19 20  1  0  0  0  0
 21 22  1  0  0  0  0
 23 21  2  0  0  0  0
 24 23  1  0  0  0  0
 25 26  1  0  0  0  0
 25 28  1  0  0  0  0
 25  1  1  0  0  0  0
 27 25  1  0  0  0  0
 28 29  1  0  0  0  0
 30 28  1  0  0  0  0
 32 31  1  0  0  0  0
 33 32  1  0  0  0  0
 33 28  1  0  0  0  0
 34 33  2  0  0  0  0
 35 36  2  0  0  0  0
 35 34  1  0  0  0  0
 36 37  1  0  0  0  0
 37 41  1  0  0  0  0
 37 32  2  0  0  0  0
 38 34  1  0  0  0  0
 39 35  1  0  0  0  0
 40 36  1  0  0  0  0
 41 42  1  0  0  0  0
M  END
>  <minimizedAffinity>
-6.3894887

$$$$

 OpenBabel03242519183D

 42 45  0  0  1  0  0  0  0  0999 V2000
   37.2320   29.4960   38.7380 C   0  0  0  0  0  0  0  0  0  0  0  0
   35.8900   29.8030   38.7400 C   0  0  0  0  0  0  0  0  0  0  0  0
   35.0070   29.3950   39.7510 C   0  0  0  0  0  0  0  0  0  0  0  0
   35.5690   28.6600   40.7520 N   0  0  0  0  0  0  0  0  0  0  0  0
   36.8740   28.3620   40.7480 C   0  0  0  0  0  0  0  0  0  0  0  0
   37.6790   28.7750   39.7600 N   0  0  0  0  0  0  0  0  0  0  0  0
   35.5350   30.4020   37.8870 H   0  0  0  0  0  0  0  0  0  0  0  0
   33.9740   29.6610   39.7040 H   0  0  0  0  0  0  0  0  0  0  0  0
   37.5120   27.5800   41.8550 C   0  0  2  0  0  0  0  0  0  0  0  0
   37.0170   27.7860   43.2520 C   0  0  0  0  0  0  0  0  0  0  0  0
   38.3720   28.3510   42.7970 C   0  0  1  0  0  0  0  0  0  0  0  0
   37.8420   26.5800   41.5470 H   0  0  0  0  0  0  0  0  0  0  0  0
   36.2460   28.5630   43.4570 H   0  0  0  0  0  0  0  0  0  0  0  0
   37.1010   26.9650   43.9840 H   0  0  0  0  0  0  0  0  0  0  0  0
   38.4460   29.4500   42.6340 H   0  0  0  0  0  0  0  0  0  0  0  0
   40.7610   30.1110   42.5570 Cl  0  0  0  0  0  0  0  0  0  0  0  0
   40.7500   28.4430   43.1360 C   0  0  0  0  0  0  0  0  0  0  0  0
   39.6060   27.6450   43.2350 C   0  0  0  0  0  0  0  0  0  0  0  0
   39.7410   26.3540   43.7050 C   0  0  0  0  0  0  0  0  0  0  0  0
   38.8110   25.8130   43.7480 H   0  0  0  0  0  0  0  0  0  0  0  0
   40.9910   25.8890   44.0620 C   0  0  0  0  0  0  0  0  0  0  0  0
   41.0210   24.8590   44.4260 H   0  0  0  0  0  0  0  0  0  0  0  0
   42.1250   26.6700   43.9680 C   0  0  0  0  0  3  0  0  0  0  0  0
   41.9970   27.9630   43.4990 C   0  0  0  0  0  3  0  0  0  0  0  0
   38.1170   29.9380   37.6930 C   0  0  0  0  0  0  0  0  0  0  0  0
   39.1540   29.5750   37.8500 H   0  0  0  0  0  0  0  0  0  0  0  0
   37.8350   29.5730   36.6650 H   0  0  0  0  0  0  0  0  0  0  0  0
   38.1520   31.4320   37.6430 C   0  0  0  0  0  0  0  0  0  0  0  0
   38.4650   31.8140   36.6570 H   0  0  0  0  0  0  0  0  0  0  0  0
   37.1410   31.8530   37.8250 H   0  0  0  0  0  0  0  0  0  0  0  0
   36.9330   33.3820   39.5440 Cl  0  0  0  0  0  0  0  0  0  0  0  0
   38.6100   32.9490   39.5940 C   0  0  0  0  0  0  0  0  0  0  0  0
   39.0620   32.0350   38.6640 C   0  0  0  0  0  0  0  0  0  0  0  0
   40.4030   31.6860   38.7010 C   0  0  0  0  0  0  0  0  0  0  0  0
   41.2520   32.2360   39.6390 C   0  0  0  0  0  0  0  0  0  0  0  0
   40.7860   33.1590   40.5770 C   0  0  0  0  0  0  0  0  0  0  0  0
   39.4440   33.5020   40.5300 C   0  0  0  0  0  0  0  0  0  0  0  0
   40.8080   30.9740   37.9950 H   0  0  0  0  0  0  0  0  0  0  0  0
   42.3040   31.9390   39.6410 H   0  0  0  0  0  0  0  0  0  0  0  0
   41.4400   33.5990   41.3170 H   0  0  0  0  0  0  0  0  0  0  0  0
   38.8800   34.4180   41.4260 O   0  0  0  0  0  0  0  0  0  0  0  0
   39.1560   35.3900   41.3950 H   0  0  0  0  0  0  0  0  0  0  0  0
  1  2  2  0  0  0  0
  1  6  1  0  0  0  0
  2  3  1  0  0  0  0
  3  4  2  0  0  0  0
  5  4  1  0  0  0  0
  5  9  1  0  0  0  0
  6  5  2  0  0  0  0
  7  2  1  0  0  0  0
  8  3  1  0  0  0  0
  9 12  1  6  0  0  0
  9 11  1  0  0  0  0
  9 10  1  0  0  0  0
 10 13  1  0  0  0  0
 10 14  1  0  0  0  0
 11 15  1  6  0  0  0
 11 18  1  0  0  0  0
 11 10  1  0  0  0  0
 16 17  1  0  0  0  0
 17 18  2  0  0  0  0
 17 24  1  0  0  0  0
 18 19  1  0  0  0  0
 19 20  1  0  0  0  0
 19 21  2  0  0  0  0
 21 22  1  0  0  0  0
 23 21  1  0  0  0  0
 24 23  2  0  0  0  0
 25 26  1  0  0  0  0
 25  1  1  0  0  0  0
 27 25  1  0  0  0  0
 28 25  1  0  0  0  0
 28 30  1  0  0  0  0
 28 33  1  0  0  0  0
 29 28  1  0  0  0  0
 31 32  1  0  0  0  0
 32 37  1  0  0  0  0
 33 34  1  0  0  0  0
 33 32  2  0  0  0  0
 34 35  2  0  0  0  0
 35 39  1  0  0  0  0
 35 36  1  0  0  0  0
 36 40  1  0  0  0  0
 37 36  2  0  0  0  0
 37 41  1  0  0  0  0
 38 34  1  0  0  0  0
 42 41  1  0  0  0  0
M  END
>  <minimizedAffinity>
-6.38874292

$$$$

 OpenBabel03242519183D

 42 45  0  0  1  0  0  0  0  0999 V2000
   36.5320   28.2770   40.7920 C   0  0  0  0  0  0  0  0  0  0  0  0
   36.2260   27.3760   39.7970 C   0  0  0  0  0  0  0  0  0  0  0  0
   36.2020   27.7110   38.4350 C   0  0  0  0  0  0  0  0  0  0  0  0
   36.5060   29.0090   38.1500 N   0  0  0  0  0  0  0  0  0  0  0  0
   36.8020   29.8830   39.1190 C   0  0  0  0  0  0  0  0  0  0  0  0
   36.8120   29.5170   40.4080 N   0  0  0  0  0  0  0  0  0  0  0  0
   35.9960   26.3530   40.1320 H   0  0  0  0  0  0  0  0  0  0  0  0
   35.9590   26.9730   37.7030 H   0  0  0  0  0  0  0  0  0  0  0  0
   37.1660   31.3050   38.8200 C   0  0  2  0  0  0  0  0  0  0  0  0
   37.7340   31.6290   37.4740 C   0  0  0  0  0  0  0  0  0  0  0  0
   38.6220   31.6090   38.7290 C   0  0  1  0  0  0  0  0  0  0  0  0
   36.5100   32.0350   39.3120 H   0  0  0  0  0  0  0  0  0  0  0  0
   37.9500   30.8080   36.7530 H   0  0  0  0  0  0  0  0  0  0  0  0
   37.5860   32.6370   37.0500 H   0  0  0  0  0  0  0  0  0  0  0  0
   39.3270   30.7570   38.8510 H   0  0  0  0  0  0  0  0  0  0  0  0
   41.4930   32.1890   38.1970 Cl  0  0  0  0  0  0  0  0  0  0  0  0
   40.3700   33.2190   39.0890 C   0  0  0  0  0  0  0  0  0  0  0  0
   39.0250   32.9130   39.3200 C   0  0  0  0  0  0  0  0  0  0  0  0
   38.2580   33.8110   40.0350 C   0  0  0  0  0  0  0  0  0  0  0  0
   37.2370   33.4960   40.1650 H   0  0  0  0  0  0  0  0  0  0  0  0
   38.8340   34.9770   40.4990 C   0  0  0  0  0  0  0  0  0  0  0  0
   38.1670   35.6390   41.0570 H   0  0  0  0  0  0  0  0  0  0  0  0
   40.1600   35.2860   40.2750 C   0  0  0  0  0  3  0  0  0  0  0  0
   40.9340   34.3930   39.5600 C   0  0  0  0  0  3  0  0  0  0  0  0
   36.5590   27.9030   42.1810 C   0  0  0  0  0  0  0  0  0  0  0  0
   35.5490   27.9450   42.6400 H   0  0  0  0  0  0  0  0  0  0  0  0
   36.9170   26.8510   42.3690 H   0  0  0  0  0  0  0  0  0  0  0  0
   37.4540   28.8240   42.9480 C   0  0  0  0  0  0  0  0  0  0  0  0
   37.5570   29.8100   42.4650 H   0  0  0  0  0  0  0  0  0  0  0  0
   37.0370   29.0220   43.9580 H   0  0  0  0  0  0  0  0  0  0  0  0
   39.7240   30.5480   42.0660 Cl  0  0  0  0  0  0  0  0  0  0  0  0
   39.9560   28.9840   42.7780 C   0  0  0  0  0  0  0  0  0  0  0  0
   38.8300   28.2780   43.1480 C   0  0  0  0  0  0  0  0  0  0  0  0
   39.0120   27.0270   43.7180 C   0  0  0  0  0  0  0  0  0  0  0  0
   40.2770   26.5120   43.9070 C   0  0  0  0  0  0  0  0  0  0  0  0
   41.4110   27.2350   43.5300 C   0  0  0  0  0  0  0  0  0  0  0  0
   41.2180   28.4830   42.9610 C   0  0  0  0  0  0  0  0  0  0  0  0
   38.1630   26.4320   44.0250 H   0  0  0  0  0  0  0  0  0  0  0  0
   40.3860   25.5230   44.3580 H   0  0  0  0  0  0  0  0  0  0  0  0
   42.4090   26.8440   43.6710 H   0  0  0  0  0  0  0  0  0  0  0  0
   42.2890   29.2850   42.5490 O   0  0  0  0  0  0  0  0  0  0  0  0
   42.8700   28.9940   41.7750 H   0  0  0  0  0  0  0  0  0  0  0  0
  1 25  1  0  0  0  0
  2  7  1  0  0  0  0
  2  1  2  0  0  0  0
  3  2  1  0  0  0  0
  4  3  2  0  0  0  0
  4  5  1  0  0  0  0
  5  6  2  0  0  0  0
  6  1  1  0  0  0  0
  8  3  1  0  0  0  0
  9  5  1  0  0  0  0
  9 12  1  1  0  0  0
 10 11  1  0  0  0  0
 10  9  1  0  0  0  0
 11  9  1  0  0  0  0
 11 15  1  1  0  0  0
 11 18  1  0  0  0  0
 13 10  1  0  0  0  0
 14 10  1  0  0  0  0
 16 17  1  0  0  0  0
 17 18  2  0  0  0  0
 17 24  1  0  0  0  0
 18 19  1  0  0  0  0
 19 20  1  0  0  0  0
 19 21  2  0  0  0  0
 21 22  1  0  0  0  0
 23 21  1  0  0  0  0
 24 23  2  0  0  0  0
 25 27  1  0  0  0  0
 25 26  1  0  0  0  0
 25 28  1  0  0  0  0
 28 33  1  0  0  0  0
 28 30  1  0  0  0  0
 29 28  1  0  0  0  0
 31 32  1  0  0  0  0
 32 37  2  0  0  0  0
 32 33  1  0  0  0  0
 33 34  2  0  0  0  0
 34 35  1  0  0  0  0
 34 38  1  0  0  0  0
 35 39  1  0  0  0  0
 36 40  1  0  0  0  0
 36 35  2  0  0  0  0
 37 36  1  0  0  0  0
 41 37  1  0  0  0  0
 42 41  1  0  0  0  0
M  END
>  <minimizedAffinity>
-6.36673069

$$$$
