
 OpenBabel03242519593D

 28 30  0  0  0  0  0  0  0  0999 V2000
   39.8820   28.1190   40.6390 Br  0  0  0  0  0  0  0  0  0  0  0  0
   38.2950   29.2000   40.7110 C   0  0  0  0  0  0  0  0  0  0  0  0
   38.3200   30.5730   40.6580 C   0  0  0  0  0  0  0  0  0  0  0  0
   37.1220   31.2430   40.7170 C   0  0  0  0  0  0  0  0  0  0  0  0
   35.9070   30.5920   40.8270 C   0  0  0  0  0  0  0  0  0  0  0  0
   35.8720   29.2040   40.8810 C   0  0  0  0  0  0  0  0  0  0  0  0
   37.0760   28.5440   40.8210 C   0  0  0  0  0  0  0  0  0  0  0  0
   37.1690   32.3280   40.6740 H   0  0  0  0  0  0  0  0  0  0  0  0
   35.0220   31.2160   40.8660 H   0  0  0  0  0  0  0  0  0  0  0  0
   34.9170   28.7010   40.9680 H   0  0  0  0  0  0  0  0  0  0  0  0
   41.4170   32.2200   39.2360 C   0  0  0  0  0  0  0  0  0  0  0  0
   40.1580   31.6080   39.3190 C   0  0  0  0  0  0  0  0  0  0  0  0
   39.6330   31.2150   40.5410 C   0  0  0  0  0  0  0  0  0  0  0  0
   40.3980   31.4550   41.6460 N   0  0  0  0  0  0  0  0  0  0  0  0
   41.6090   32.0460   41.5380 C   0  0  0  0  0  0  0  0  0  0  0  0
   42.1110   32.4240   40.3500 N   0  0  0  0  0  0  0  0  0  0  0  0
   41.6760   32.4630   38.2090 H   0  0  0  0  0  0  0  0  0  0  0  0
   39.5210   31.4000   38.4690 H   0  0  0  0  0  0  0  0  0  0  0  0
   42.2330   32.2450   42.4030 H   0  0  0  0  0  0  0  0  0  0  0  0
   37.2280   27.6290   43.6090 Cl  0  0  0  0  0  0  0  0  0  0  0  0
   37.0440   26.6000   42.1930 C   0  0  0  0  0  0  0  0  0  0  0  0
   36.9760   27.0860   40.8830 C   0  0  0  0  0  0  0  0  0  0  0  0
   36.8300   26.2090   39.8270 C   0  0  0  0  0  0  0  0  0  0  0  0
   36.7880   26.6720   38.8570 H   0  0  0  0  0  0  0  0  0  0  0  0
   36.7550   24.8700   40.0930 C   0  0  0  0  0  0  0  0  0  0  0  0
   36.6390   24.1950   39.2420 H   0  0  0  0  0  0  0  0  0  0  0  0
   36.8180   24.3610   41.3730 C   0  0  0  0  0  3  0  0  0  0  0  0
   36.9660   25.2280   42.4570 C   0  0  0  0  0  3  0  0  0  0  0  0
  1  2  1  0  0  0  0
  2  7  1  0  0  0  0
  3  2  2  0  0  0  0
  3  4  1  0  0  0  0
  4  5  2  0  0  0  0
  5  9  1  0  0  0  0
  5  6  1  0  0  0  0
  6 10  1  0  0  0  0
  7  6  2  0  0  0  0
  7 22  1  0  0  0  0
  8  4  1  0  0  0  0
 11 12  2  0  0  0  0
 11 16  1  0  0  0  0
 12 13  1  0  0  0  0
 13  3  1  0  0  0  0
 13 14  2  0  0  0  0
 15 14  1  0  0  0  0
 15 19  1  0  0  0  0
 16 15  2  0  0  0  0
 17 11  1  0  0  0  0
 18 12  1  0  0  0  0
 21 28  1  0  0  0  0
 21 20  1  0  0  0  0
 22 21  2  0  0  0  0
 23 25  2  0  0  0  0
 23 22  1  0  0  0  0
 24 23  1  0  0  0  0
 25 27  1  0  0  0  0
 26 25  1  0  0  0  0
 27 28  2  0  0  0  0
M  END
>  <minimizedAffinity>
-5.3154211

$$$$

 OpenBabel03242519593D

 28 30  0  0  0  0  0  0  0  0999 V2000
   38.6340   28.1330   39.3170 Br  0  0  0  0  0  0  0  0  0  0  0  0
   37.9430   27.8330   41.0840 C   0  0  0  0  0  0  0  0  0  0  0  0
   37.5730   26.5910   41.5440 C   0  0  0  0  0  0  0  0  0  0  0  0
   37.0910   26.4960   42.8270 C   0  0  0  0  0  0  0  0  0  0  0  0
   36.9680   27.5910   43.6620 C   0  0  0  0  0  0  0  0  0  0  0  0
   37.3400   28.8490   43.2060 C   0  0  0  0  0  0  0  0  0  0  0  0
   37.8200   28.9340   41.9220 C   0  0  0  0  0  0  0  0  0  0  0  0
   36.8050   25.5030   43.1660 H   0  0  0  0  0  0  0  0  0  0  0  0
   36.5770   27.4040   44.6550 H   0  0  0  0  0  0  0  0  0  0  0  0
   37.2400   29.7030   43.8660 H   0  0  0  0  0  0  0  0  0  0  0  0
   36.8730   23.9810   38.8940 C   0  0  0  0  0  0  0  0  0  0  0  0
   36.7030   25.0640   39.7690 C   0  0  0  0  0  0  0  0  0  0  0  0
   37.7230   25.4630   40.6200 C   0  0  0  0  0  0  0  0  0  0  0  0
   38.8880   24.7530   40.5620 N   0  0  0  0  0  0  0  0  0  0  0  0
   39.0250   23.7130   39.7090 C   0  0  0  0  0  0  0  0  0  0  0  0
   38.0330   23.3320   38.8880 N   0  0  0  0  0  0  0  0  0  0  0  0
   35.9820   23.8030   38.3000 H   0  0  0  0  0  0  0  0  0  0  0  0
   35.7980   25.6520   39.8470 H   0  0  0  0  0  0  0  0  0  0  0  0
   39.9420   23.1350   39.6470 H   0  0  0  0  0  0  0  0  0  0  0  0
   35.5750   30.2280   40.5380 Cl  0  0  0  0  0  0  0  0  0  0  0  0
   37.1560   30.9430   40.8320 C   0  0  0  0  0  0  0  0  0  0  0  0
   38.1950   30.2830   41.4980 C   0  0  0  0  0  0  0  0  0  0  0  0
   39.4060   30.9160   41.6870 C   0  0  0  0  0  0  0  0  0  0  0  0
   40.1450   30.3330   42.2080 H   0  0  0  0  0  0  0  0  0  0  0  0
   39.5620   32.1890   41.2140 C   0  0  0  0  0  0  0  0  0  0  0  0
   40.5280   32.6700   41.3750 H   0  0  0  0  0  0  0  0  0  0  0  0
   38.5560   32.8660   40.5540 C   0  0  0  0  0  3  0  0  0  0  0  0
   37.3230   32.2450   40.3500 C   0  0  0  0  0  3  0  0  0  0  0  0
  1  2  1  0  0  0  0
  2  3  2  0  0  0  0
  2  7  1  0  0  0  0
  3  4  1  0  0  0  0
  4  8  1  0  0  0  0
  4  5  2  0  0  0  0
  5  9  1  0  0  0  0
  6  5  1  0  0  0  0
  6 10  1  0  0  0  0
  7  6  2  0  0  0  0
 11 12  1  0  0  0  0
 12 18  1  0  0  0  0
 12 13  2  0  0  0  0
 13  3  1  0  0  0  0
 14 13  1  0  0  0  0
 15 14  2  0  0  0  0
 16 11  2  0  0  0  0
 16 15  1  0  0  0  0
 17 11  1  0  0  0  0
 19 15  1  0  0  0  0
 20 21  1  0  0  0  0
 21 22  1  0  0  0  0
 22 23  2  0  0  0  0
 22  7  1  0  0  0  0
 23 24  1  0  0  0  0
 25 26  1  0  0  0  0
 25 23  1  0  0  0  0
 27 25  2  0  0  0  0
 28 27  1  0  0  0  0
 28 21  2  0  0  0  0
M  END
>  <minimizedAffinity>
-5.28732347

$$$$

 OpenBabel03242519593D

 28 30  0  0  0  0  0  0  0  0999 V2000
   37.8600   27.4750   39.0350 Br  0  0  0  0  0  0  0  0  0  0  0  0
   37.5120   27.6630   40.9150 C   0  0  0  0  0  0  0  0  0  0  0  0
   37.4940   28.8790   41.5560 C   0  0  0  0  0  0  0  0  0  0  0  0
   37.2340   28.8930   42.9050 C   0  0  0  0  0  0  0  0  0  0  0  0
   36.9910   27.7420   43.6300 C   0  0  0  0  0  0  0  0  0  0  0  0
   37.0060   26.5090   42.9910 C   0  0  0  0  0  0  0  0  0  0  0  0
   37.2680   26.5060   41.6420 C   0  0  0  0  0  0  0  0  0  0  0  0
   37.2260   29.8670   43.3880 H   0  0  0  0  0  0  0  0  0  0  0  0
   36.7960   27.8660   44.6890 H   0  0  0  0  0  0  0  0  0  0  0  0
   36.8150   25.6100   43.5660 H   0  0  0  0  0  0  0  0  0  0  0  0
   37.0160   31.9650   39.4180 C   0  0  0  0  0  0  0  0  0  0  0  0
   36.7360   30.8310   40.1940 C   0  0  0  0  0  0  0  0  0  0  0  0
   37.7580   30.0690   40.7420 C   0  0  0  0  0  0  0  0  0  0  0  0
   39.0350   30.4800   40.4910 N   0  0  0  0  0  0  0  0  0  0  0  0
   39.2780   31.5770   39.7400 C   0  0  0  0  0  0  0  0  0  0  0  0
   38.2820   32.3100   39.2110 N   0  0  0  0  0  0  0  0  0  0  0  0
   36.1070   32.4440   39.0670 H   0  0  0  0  0  0  0  0  0  0  0  0
   35.7400   30.4720   40.4160 H   0  0  0  0  0  0  0  0  0  0  0  0
   40.2850   31.9200   39.5270 H   0  0  0  0  0  0  0  0  0  0  0  0
   39.9160   25.2630   41.9100 Cl  0  0  0  0  0  0  0  0  0  0  0  0
   38.5140   24.5450   41.1260 C   0  0  0  0  0  0  0  0  0  0  0  0
   37.2710   25.1800   41.0240 C   0  0  0  0  0  0  0  0  0  0  0  0
   36.2210   24.5460   40.3910 C   0  0  0  0  0  0  0  0  0  0  0  0
   35.3050   25.1090   40.3610 H   0  0  0  0  0  0  0  0  0  0  0  0
   36.4240   23.2970   39.8740 C   0  0  0  0  0  0  0  0  0  0  0  0
   35.5790   22.8150   39.3790 H   0  0  0  0  0  0  0  0  0  0  0  0
   37.6370   22.6450   39.9590 C   0  0  0  0  0  3  0  0  0  0  0  0
   38.7150   23.2670   40.5930 C   0  0  0  0  0  3  0  0  0  0  0  0
  1  2  1  0  0  0  0
  2  3  2  0  0  0  0
  2  7  1  0  0  0  0
  3  4  1  0  0  0  0
  4  8  1  0  0  0  0
  4  5  2  0  0  0  0
  5  9  1  0  0  0  0
  6 10  1  0  0  0  0
  6  5  1  0  0  0  0
  7  6  2  0  0  0  0
 11 12  1  0  0  0  0
 12 18  1  0  0  0  0
 12 13  2  0  0  0  0
 13  3  1  0  0  0  0
 14 13  1  0  0  0  0
 15 14  2  0  0  0  0
 16 11  2  0  0  0  0
 16 15  1  0  0  0  0
 17 11  1  0  0  0  0
 19 15  1  0  0  0  0
 21 20  1  0  0  0  0
 22 21  1  0  0  0  0
 22  7  1  0  0  0  0
 23 22  2  0  0  0  0
 24 23  1  0  0  0  0
 25 27  2  0  0  0  0
 25 23  1  0  0  0  0
 26 25  1  0  0  0  0
 27 28  1  0  0  0  0
 28 21  2  0  0  0  0
M  END
>  <minimizedAffinity>
-5.26271296

$$$$

 OpenBabel03242519593D

 28 30  0  0  0  0  0  0  0  0999 V2000
   38.2130   28.1780   39.1590 Br  0  0  0  0  0  0  0  0  0  0  0  0
   37.7340   27.9350   41.0030 C   0  0  0  0  0  0  0  0  0  0  0  0
   37.5140   26.6990   41.5630 C   0  0  0  0  0  0  0  0  0  0  0  0
   37.1760   26.6450   42.8940 C   0  0  0  0  0  0  0  0  0  0  0  0
   37.0530   27.7760   43.6790 C   0  0  0  0  0  0  0  0  0  0  0  0
   37.2740   29.0300   43.1220 C   0  0  0  0  0  0  0  0  0  0  0  0
   37.6120   29.0720   41.7900 C   0  0  0  0  0  0  0  0  0  0  0  0
   37.0060   25.6570   43.3120 H   0  0  0  0  0  0  0  0  0  0  0  0
   36.7830   27.6210   44.7170 H   0  0  0  0  0  0  0  0  0  0  0  0
   37.1760   29.9110   43.7430 H   0  0  0  0  0  0  0  0  0  0  0  0
   36.7420   23.8540   39.1890 C   0  0  0  0  0  0  0  0  0  0  0  0
   36.5770   24.9720   40.0210 C   0  0  0  0  0  0  0  0  0  0  0  0
   37.6570   25.5320   40.6880 C   0  0  0  0  0  0  0  0  0  0  0  0
   38.8740   24.9440   40.4940 N   0  0  0  0  0  0  0  0  0  0  0  0
   39.0050   23.8680   39.6870 C   0  0  0  0  0  0  0  0  0  0  0  0
   37.9540   23.3300   39.0440 N   0  0  0  0  0  0  0  0  0  0  0  0
   35.8000   23.5440   38.7450 H   0  0  0  0  0  0  0  0  0  0  0  0
   35.6320   25.4660   40.2020 H   0  0  0  0  0  0  0  0  0  0  0  0
   39.9620   23.3850   39.5190 H   0  0  0  0  0  0  0  0  0  0  0  0
   40.3670   29.9390   42.3240 Cl  0  0  0  0  0  0  0  0  0  0  0  0
   39.1340   30.8760   41.4890 C   0  0  0  0  0  0  0  0  0  0  0  0
   37.8320   30.4170   41.2600 C   0  0  0  0  0  0  0  0  0  0  0  0
   36.9240   31.2170   40.5960 C   0  0  0  0  0  0  0  0  0  0  0  0
   35.9490   30.7820   40.4650 H   0  0  0  0  0  0  0  0  0  0  0  0
   37.3250   32.4540   40.1740 C   0  0  0  0  0  0  0  0  0  0  0  0
   36.5900   33.0680   39.6500 H   0  0  0  0  0  0  0  0  0  0  0  0
   38.6010   32.9340   40.3850 C   0  0  0  0  0  3  0  0  0  0  0  0
   39.5370   32.1440   41.0550 C   0  0  0  0  0  3  0  0  0  0  0  0
  1  2  1  0  0  0  0
  2  3  2  0  0  0  0
  2  7  1  0  0  0  0
  3  4  1  0  0  0  0
  4  8  1  0  0  0  0
  4  5  2  0  0  0  0
  5  9  1  0  0  0  0
  6  5  1  0  0  0  0
  6 10  1  0  0  0  0
  7  6  2  0  0  0  0
 11 12  1  0  0  0  0
 12 18  1  0  0  0  0
 12 13  2  0  0  0  0
 13  3  1  0  0  0  0
 14 13  1  0  0  0  0
 15 14  2  0  0  0  0
 16 11  2  0  0  0  0
 16 15  1  0  0  0  0
 17 11  1  0  0  0  0
 19 15  1  0  0  0  0
 21 20  1  0  0  0  0
 22 21  1  0  0  0  0
 22  7  1  0  0  0  0
 23 22  2  0  0  0  0
 24 23  1  0  0  0  0
 25 27  2  0  0  0  0
 25 23  1  0  0  0  0
 26 25  1  0  0  0  0
 27 28  1  0  0  0  0
 28 21  2  0  0  0  0
M  END
>  <minimizedAffinity>
-5.22212029

$$$$

 OpenBabel03242519593D

 28 30  0  0  0  0  0  0  0  0999 V2000
   40.5550   29.5380   40.4870 Br  0  0  0  0  0  0  0  0  0  0  0  0
   39.1230   30.7820   40.1850 C   0  0  0  0  0  0  0  0  0  0  0  0
   39.2490   31.8900   39.3810 C   0  0  0  0  0  0  0  0  0  0  0  0
   38.1560   32.7110   39.2380 C   0  0  0  0  0  0  0  0  0  0  0  0
   36.9490   32.4630   39.8660 C   0  0  0  0  0  0  0  0  0  0  0  0
   36.8130   31.3450   40.6800 C   0  0  0  0  0  0  0  0  0  0  0  0
   37.9110   30.5310   40.8160 C   0  0  0  0  0  0  0  0  0  0  0  0
   38.2820   33.5800   38.5980 H   0  0  0  0  0  0  0  0  0  0  0  0
   36.1520   33.1750   39.6840 H   0  0  0  0  0  0  0  0  0  0  0  0
   35.8640   31.1580   41.1680 H   0  0  0  0  0  0  0  0  0  0  0  0
   42.7800   33.0650   38.6910 C   0  0  0  0  0  0  0  0  0  0  0  0
   41.5450   32.8730   39.3270 C   0  0  0  0  0  0  0  0  0  0  0  0
   40.5480   32.1070   38.7390 C   0  0  0  0  0  0  0  0  0  0  0  0
   40.8310   31.5570   37.5220 N   0  0  0  0  0  0  0  0  0  0  0  0
   42.0310   31.7580   36.9310 C   0  0  0  0  0  0  0  0  0  0  0  0
   42.9910   32.5010   37.5070 N   0  0  0  0  0  0  0  0  0  0  0  0
   43.4430   33.6870   39.2850 H   0  0  0  0  0  0  0  0  0  0  0  0
   41.2800   33.2910   40.2900 H   0  0  0  0  0  0  0  0  0  0  0  0
   42.2760   31.3300   35.9640 H   0  0  0  0  0  0  0  0  0  0  0  0
   36.8670   28.2670   39.2630 Cl  0  0  0  0  0  0  0  0  0  0  0  0
   37.2100   28.2640   40.9890 C   0  0  0  0  0  0  0  0  0  0  0  0
   37.7070   29.3720   41.6840 C   0  0  0  0  0  0  0  0  0  0  0  0
   37.9490   29.2860   43.0400 C   0  0  0  0  0  0  0  0  0  0  0  0
   38.3300   30.1860   43.4900 H   0  0  0  0  0  0  0  0  0  0  0  0
   37.6930   28.1040   43.6780 C   0  0  0  0  0  0  0  0  0  0  0  0
   37.8920   28.0590   44.7500 H   0  0  0  0  0  0  0  0  0  0  0  0
   37.2030   26.9950   43.0210 C   0  0  0  0  0  3  0  0  0  0  0  0
   36.9490   27.0580   41.6490 C   0  0  0  0  0  3  0  0  0  0  0  0
  2  1  1  0  0  0  0
  2  7  1  0  0  0  0
  3  2  2  0  0  0  0
  4  3  1  0  0  0  0
  4  5  2  0  0  0  0
  5  6  1  0  0  0  0
  6  7  2  0  0  0  0
  6 10  1  0  0  0  0
  7 22  1  0  0  0  0
  8  4  1  0  0  0  0
  9  5  1  0  0  0  0
 11 17  1  0  0  0  0
 11 12  1  0  0  0  0
 12 18  1  0  0  0  0
 13 12  2  0  0  0  0
 13  3  1  0  0  0  0
 14 13  1  0  0  0  0
 15 16  1  0  0  0  0
 15 14  2  0  0  0  0
 16 11  2  0  0  0  0
 19 15  1  0  0  0  0
 20 21  1  0  0  0  0
 21 28  2  0  0  0  0
 21 22  1  0  0  0  0
 22 23  2  0  0  0  0
 23 24  1  0  0  0  0
 23 25  1  0  0  0  0
 25 26  1  0  0  0  0
 27 25  2  0  0  0  0
 28 27  1  0  0  0  0
M  END
>  <minimizedAffinity>
-5.22192383

$$$$

 OpenBabel03242519593D

 28 30  0  0  0  0  0  0  0  0999 V2000
   39.5710   27.3020   40.0100 Br  0  0  0  0  0  0  0  0  0  0  0  0
   38.4240   27.5420   41.5320 C   0  0  0  0  0  0  0  0  0  0  0  0
   38.4850   28.6450   42.3510 C   0  0  0  0  0  0  0  0  0  0  0  0
   37.6140   28.7090   43.4110 C   0  0  0  0  0  0  0  0  0  0  0  0
   36.6890   27.7170   43.6800 C   0  0  0  0  0  0  0  0  0  0  0  0
   36.6200   26.6000   42.8570 C   0  0  0  0  0  0  0  0  0  0  0  0
   37.4950   26.5450   41.7990 C   0  0  0  0  0  0  0  0  0  0  0  0
   37.6830   29.5910   44.0430 H   0  0  0  0  0  0  0  0  0  0  0  0
   36.0500   27.8690   44.5420 H   0  0  0  0  0  0  0  0  0  0  0  0
   35.8930   25.8260   43.0740 H   0  0  0  0  0  0  0  0  0  0  0  0
   41.7010   30.6350   42.2180 C   0  0  0  0  0  0  0  0  0  0  0  0
   40.7660   29.6430   42.5490 C   0  0  0  0  0  0  0  0  0  0  0  0
   39.4820   29.6680   42.0230 C   0  0  0  0  0  0  0  0  0  0  0  0
   39.1820   30.6960   41.1770 N   0  0  0  0  0  0  0  0  0  0  0  0
   40.1030   31.6390   40.8750 C   0  0  0  0  0  0  0  0  0  0  0  0
   41.3450   31.6090   41.3880 N   0  0  0  0  0  0  0  0  0  0  0  0
   42.6530   30.4670   42.7140 H   0  0  0  0  0  0  0  0  0  0  0  0
   40.9620   28.8130   43.2140 H   0  0  0  0  0  0  0  0  0  0  0  0
   39.8850   32.4650   40.2050 H   0  0  0  0  0  0  0  0  0  0  0  0
   39.2300   24.4120   42.8350 Cl  0  0  0  0  0  0  0  0  0  0  0  0
   38.1850   24.2980   41.4240 C   0  0  0  0  0  0  0  0  0  0  0  0
   37.3750   25.3460   40.9700 C   0  0  0  0  0  0  0  0  0  0  0  0
   36.5840   25.1740   39.8530 C   0  0  0  0  0  0  0  0  0  0  0  0
   35.9960   26.0320   39.5780 H   0  0  0  0  0  0  0  0  0  0  0  0
   36.6110   23.9680   39.2090 C   0  0  0  0  0  0  0  0  0  0  0  0
   35.9760   23.8540   38.3290 H   0  0  0  0  0  0  0  0  0  0  0  0
   37.3980   22.9160   39.6330 C   0  0  0  0  0  3  0  0  0  0  0  0
   38.2080   23.0670   40.7600 C   0  0  0  0  0  3  0  0  0  0  0  0
  1  2  1  0  0  0  0
  2  7  2  0  0  0  0
  2  3  1  0  0  0  0
  3  4  2  0  0  0  0
  4  5  1  0  0  0  0
  4  8  1  0  0  0  0
  5  9  1  0  0  0  0
  6 10  1  0  0  0  0
  6  5  2  0  0  0  0
  7  6  1  0  0  0  0
 11 12  1  0  0  0  0
 11 17  1  0  0  0  0
 12 18  1  0  0  0  0
 13  3  1  0  0  0  0
 13 12  2  0  0  0  0
 14 13  1  0  0  0  0
 15 14  2  0  0  0  0
 15 16  1  0  0  0  0
 16 11  2  0  0  0  0
 19 15  1  0  0  0  0
 21 20  1  0  0  0  0
 22 21  1  0  0  0  0
 22  7  1  0  0  0  0
 23 22  2  0  0  0  0
 24 23  1  0  0  0  0
 25 27  2  0  0  0  0
 25 23  1  0  0  0  0
 26 25  1  0  0  0  0
 27 28  1  0  0  0  0
 28 21  2  0  0  0  0
M  END
>  <minimizedAffinity>
-5.21880007

$$$$

 OpenBabel03242519593D

 28 30  0  0  0  0  0  0  0  0999 V2000
   38.1280   27.2710   39.0890 Br  0  0  0  0  0  0  0  0  0  0  0  0
   37.6520   27.4310   40.9430 C   0  0  0  0  0  0  0  0  0  0  0  0
   37.3280   26.3510   41.7300 C   0  0  0  0  0  0  0  0  0  0  0  0
   37.0030   26.5850   43.0440 C   0  0  0  0  0  0  0  0  0  0  0  0
   36.9910   27.8520   43.5960 C   0  0  0  0  0  0  0  0  0  0  0  0
   37.3180   28.9490   42.8090 C   0  0  0  0  0  0  0  0  0  0  0  0
   37.6410   28.7050   41.4960 C   0  0  0  0  0  0  0  0  0  0  0  0
   36.7500   25.7140   43.6440 H   0  0  0  0  0  0  0  0  0  0  0  0
   36.7210   27.9240   44.6430 H   0  0  0  0  0  0  0  0  0  0  0  0
   37.3060   29.9390   43.2490 H   0  0  0  0  0  0  0  0  0  0  0  0
   38.4460   22.9190   40.5900 C   0  0  0  0  0  0  0  0  0  0  0  0
   38.4460   24.1790   41.2070 C   0  0  0  0  0  0  0  0  0  0  0  0
   37.3550   25.0290   41.0970 C   0  0  0  0  0  0  0  0  0  0  0  0
   36.2940   24.5790   40.3650 N   0  0  0  0  0  0  0  0  0  0  0  0
   36.3200   23.3590   39.7810 C   0  0  0  0  0  0  0  0  0  0  0  0
   37.3800   22.5420   39.8920 N   0  0  0  0  0  0  0  0  0  0  0  0
   39.3720   22.3840   40.7760 H   0  0  0  0  0  0  0  0  0  0  0  0
   39.2650   24.5740   41.7930 H   0  0  0  0  0  0  0  0  0  0  0  0
   35.4870   22.9820   39.1950 H   0  0  0  0  0  0  0  0  0  0  0  0
   35.2560   29.7210   40.1150 Cl  0  0  0  0  0  0  0  0  0  0  0  0
   36.8690   30.4210   40.0400 C   0  0  0  0  0  0  0  0  0  0  0  0
   37.9750   29.8970   40.7180 C   0  0  0  0  0  0  0  0  0  0  0  0
   39.2080   30.5080   40.6050 C   0  0  0  0  0  0  0  0  0  0  0  0
   39.9990   30.0360   41.1600 H   0  0  0  0  0  0  0  0  0  0  0  0
   39.3180   31.6240   39.8220 C   0  0  0  0  0  0  0  0  0  0  0  0
   40.3020   32.0900   39.7480 H   0  0  0  0  0  0  0  0  0  0  0  0
   38.2450   32.1630   39.1420 C   0  0  0  0  0  3  0  0  0  0  0  0
   36.9890   31.5630   39.2400 C   0  0  0  0  0  3  0  0  0  0  0  0
  1  2  1  0  0  0  0
  2  7  2  0  0  0  0
  2  3  1  0  0  0  0
  3  4  2  0  0  0  0
  4  5  1  0  0  0  0
  4  8  1  0  0  0  0
  5  9  1  0  0  0  0
  6 10  1  0  0  0  0
  6  5  2  0  0  0  0
  7  6  1  0  0  0  0
 11 17  1  0  0  0  0
 11 12  1  0  0  0  0
 12 18  1  0  0  0  0
 13 12  2  0  0  0  0
 13  3  1  0  0  0  0
 14 13  1  0  0  0  0
 15 16  1  0  0  0  0
 15 14  2  0  0  0  0
 16 11  2  0  0  0  0
 19 15  1  0  0  0  0
 21 20  1  0  0  0  0
 21 22  1  0  0  0  0
 22  7  1  0  0  0  0
 23 22  2  0  0  0  0
 23 24  1  0  0  0  0
 25 23  1  0  0  0  0
 26 25  1  0  0  0  0
 27 28  1  0  0  0  0
 27 25  2  0  0  0  0
 28 21  2  0  0  0  0
M  END
>  <minimizedAffinity>
-5.20524693

$$$$

 OpenBabel03242519593D

 28 30  0  0  0  0  0  0  0  0999 V2000
   40.7840   29.7290   40.5880 Br  0  0  0  0  0  0  0  0  0  0  0  0
   38.9780   30.3830   40.5820 C   0  0  0  0  0  0  0  0  0  0  0  0
   38.6050   31.5510   39.9600 C   0  0  0  0  0  0  0  0  0  0  0  0
   37.2830   31.9200   40.0210 C   0  0  0  0  0  0  0  0  0  0  0  0
   36.3270   31.1680   40.6780 C   0  0  0  0  0  0  0  0  0  0  0  0
   36.6940   29.9860   41.3090 C   0  0  0  0  0  0  0  0  0  0  0  0
   38.0190   29.6250   41.2420 C   0  0  0  0  0  0  0  0  0  0  0  0
   37.0150   32.8480   39.5220 H   0  0  0  0  0  0  0  0  0  0  0  0
   35.3130   31.5510   40.6640 H   0  0  0  0  0  0  0  0  0  0  0  0
   35.9400   29.4020   41.8210 H   0  0  0  0  0  0  0  0  0  0  0  0
   41.2540   34.1380   39.1760 C   0  0  0  0  0  0  0  0  0  0  0  0
   40.2500   33.4280   39.8510 C   0  0  0  0  0  0  0  0  0  0  0  0
   39.6560   32.3120   39.2790 C   0  0  0  0  0  0  0  0  0  0  0  0
   40.0970   31.9450   38.0400 N   0  0  0  0  0  0  0  0  0  0  0  0
   41.0670   32.6480   37.4120 C   0  0  0  0  0  0  0  0  0  0  0  0
   41.6370   33.7280   37.9720 N   0  0  0  0  0  0  0  0  0  0  0  0
   41.6090   34.9800   39.7620 H   0  0  0  0  0  0  0  0  0  0  0  0
   39.8710   33.6840   40.8310 H   0  0  0  0  0  0  0  0  0  0  0  0
   41.4320   32.3740   36.4270 H   0  0  0  0  0  0  0  0  0  0  0  0
   37.6020   27.3430   39.4390 Cl  0  0  0  0  0  0  0  0  0  0  0  0
   38.1620   27.2540   41.1050 C   0  0  0  0  0  0  0  0  0  0  0  0
   38.3450   28.3740   41.9240 C   0  0  0  0  0  0  0  0  0  0  0  0
   38.7890   28.2160   43.2210 C   0  0  0  0  0  0  0  0  0  0  0  0
   38.9000   29.1310   43.7760 H   0  0  0  0  0  0  0  0  0  0  0  0
   39.0420   26.9520   43.6790 C   0  0  0  0  0  0  0  0  0  0  0  0
   39.3920   26.8520   44.7080 H   0  0  0  0  0  0  0  0  0  0  0  0
   38.8720   25.8290   42.8950 C   0  0  0  0  0  3  0  0  0  0  0  0
   38.4230   25.9640   41.5800 C   0  0  0  0  0  3  0  0  0  0  0  0
  2  1  1  0  0  0  0
  2  7  1  0  0  0  0
  3  4  1  0  0  0  0
  3  2  2  0  0  0  0
  4  5  2  0  0  0  0
  5  6  1  0  0  0  0
  6 10  1  0  0  0  0
  7  6  2  0  0  0  0
  7 22  1  0  0  0  0
  8  4  1  0  0  0  0
  9  5  1  0  0  0  0
 11 17  1  0  0  0  0
 11 12  1  0  0  0  0
 12 18  1  0  0  0  0
 13 12  2  0  0  0  0
 13  3  1  0  0  0  0
 14 13  1  0  0  0  0
 15 16  1  0  0  0  0
 15 14  2  0  0  0  0
 16 11  2  0  0  0  0
 19 15  1  0  0  0  0
 20 21  1  0  0  0  0
 21 28  2  0  0  0  0
 21 22  1  0  0  0  0
 22 23  2  0  0  0  0
 23 25  1  0  0  0  0
 23 24  1  0  0  0  0
 25 26  1  0  0  0  0
 27 25  2  0  0  0  0
 28 27  1  0  0  0  0
M  END
>  <minimizedAffinity>
-5.20402193

$$$$

 OpenBabel03242519593D

 28 30  0  0  0  0  0  0  0  0999 V2000
   36.3190   26.2020   38.5550 Br  0  0  0  0  0  0  0  0  0  0  0  0
   36.3990   27.7360   39.7080 C   0  0  0  0  0  0  0  0  0  0  0  0
   37.0830   27.7430   40.9010 C   0  0  0  0  0  0  0  0  0  0  0  0
   37.0710   28.8990   41.6440 C   0  0  0  0  0  0  0  0  0  0  0  0
   36.4050   30.0400   41.2390 C   0  0  0  0  0  0  0  0  0  0  0  0
   35.7110   30.0430   40.0350 C   0  0  0  0  0  0  0  0  0  0  0  0
   35.7290   28.8820   39.3000 C   0  0  0  0  0  0  0  0  0  0  0  0
   37.6190   28.8770   42.5820 H   0  0  0  0  0  0  0  0  0  0  0  0
   36.4600   30.8960   41.9010 H   0  0  0  0  0  0  0  0  0  0  0  0
   35.1910   30.9410   39.7250 H   0  0  0  0  0  0  0  0  0  0  0  0
   37.7950   24.2770   42.2440 C   0  0  0  0  0  0  0  0  0  0  0  0
   37.1100   25.4480   41.8870 C   0  0  0  0  0  0  0  0  0  0  0  0
   37.7720   26.5080   41.2840 C   0  0  0  0  0  0  0  0  0  0  0  0
   39.1100   26.3510   41.0590 N   0  0  0  0  0  0  0  0  0  0  0  0
   39.7450   25.2120   41.4130 C   0  0  0  0  0  0  0  0  0  0  0  0
   39.0970   24.1890   41.9970 N   0  0  0  0  0  0  0  0  0  0  0  0
   37.1300   23.5500   42.7020 H   0  0  0  0  0  0  0  0  0  0  0  0
   36.0530   25.6130   42.0470 H   0  0  0  0  0  0  0  0  0  0  0  0
   40.8080   25.0670   41.2440 H   0  0  0  0  0  0  0  0  0  0  0  0
   37.5240   29.5760   37.0800 Cl  0  0  0  0  0  0  0  0  0  0  0  0
   35.7950   29.2730   36.9530 C   0  0  0  0  0  0  0  0  0  0  0  0
   34.9820   28.9450   38.0440 C   0  0  0  0  0  0  0  0  0  0  0  0
   33.6330   28.7220   37.8570 C   0  0  0  0  0  0  0  0  0  0  0  0
   33.0870   28.4760   38.7510 H   0  0  0  0  0  0  0  0  0  0  0  0
   33.1180   28.8290   36.5950 C   0  0  0  0  0  0  0  0  0  0  0  0
   32.0490   28.6480   36.4720 H   0  0  0  0  0  0  0  0  0  0  0  0
   33.8950   29.1500   35.5000 C   0  0  0  0  0  3  0  0  0  0  0  0
   35.2620   29.3810   35.6640 C   0  0  0  0  0  3  0  0  0  0  0  0
  1  2  1  0  0  0  0
  2  3  1  0  0  0  0
  3 13  1  0  0  0  0
  3  4  2  0  0  0  0
  4  8  1  0  0  0  0
  5  4  1  0  0  0  0
  5  9  1  0  0  0  0
  6  5  2  0  0  0  0
  7  2  2  0  0  0  0
  7  6  1  0  0  0  0
 10  6  1  0  0  0  0
 11 17  1  0  0  0  0
 12 18  1  0  0  0  0
 12 11  2  0  0  0  0
 13 12  1  0  0  0  0
 14 13  2  0  0  0  0
 14 15  1  0  0  0  0
 15 16  2  0  0  0  0
 16 11  1  0  0  0  0
 19 15  1  0  0  0  0
 21 20  1  0  0  0  0
 21 22  1  0  0  0  0
 22  7  1  0  0  0  0
 23 22  2  0  0  0  0
 23 24  1  0  0  0  0
 25 23  1  0  0  0  0
 26 25  1  0  0  0  0
 27 28  1  0  0  0  0
 27 25  2  0  0  0  0
 28 21  2  0  0  0  0
M  END
>  <minimizedAffinity>
-5.14015341

$$$$
