
 OpenBabel03242519583D

 28 30  0  0  0  0  0  0  0  0999 V2000
   44.5590   33.1240   41.1760 Br  0  0  0  0  0  0  0  0  0  0  0  0
   46.2690   33.9790   40.9910 C   0  0  0  0  0  0  0  0  0  0  0  0
   46.8260   34.7610   41.9760 C   0  0  0  0  0  0  0  0  0  0  0  0
   48.0560   35.3240   41.7330 C   0  0  0  0  0  0  0  0  0  0  0  0
   48.7430   35.1330   40.5490 C   0  0  0  0  0  0  0  0  0  0  0  0
   48.1880   34.3450   39.5490 C   0  0  0  0  0  0  0  0  0  0  0  0
   46.9580   33.7870   39.8010 C   0  0  0  0  0  0  0  0  0  0  0  0
   48.4740   35.9370   42.5260 H   0  0  0  0  0  0  0  0  0  0  0  0
   49.7060   35.6230   40.4610 H   0  0  0  0  0  0  0  0  0  0  0  0
   48.7330   34.2000   38.6230 H   0  0  0  0  0  0  0  0  0  0  0  0
   44.4720   36.1420   44.5970 C   0  0  0  0  0  0  0  0  0  0  0  0
   45.1960   36.0020   43.4040 C   0  0  0  0  0  0  0  0  0  0  0  0
   46.0570   34.9320   43.2110 C   0  0  0  0  0  0  0  0  0  0  0  0
   46.1590   34.0310   44.2320 N   0  0  0  0  0  0  0  0  0  0  0  0
   45.4490   34.1890   45.3720 C   0  0  0  0  0  0  0  0  0  0  0  0
   44.6180   35.2290   45.5520 N   0  0  0  0  0  0  0  0  0  0  0  0
   43.8480   37.0300   44.5840 H   0  0  0  0  0  0  0  0  0  0  0  0
   45.1450   36.6920   42.5720 H   0  0  0  0  0  0  0  0  0  0  0  0
   45.5160   33.4860   46.1960 H   0  0  0  0  0  0  0  0  0  0  0  0
   48.1000   34.6380   37.2320 Cl  0  0  0  0  0  0  0  0  0  0  0  0
   46.9390   33.3360   37.4650 C   0  0  0  0  0  0  0  0  0  0  0  0
   46.4240   32.9680   38.7130 C   0  0  0  0  0  0  0  0  0  0  0  0
   45.5160   31.9330   38.8090 C   0  0  0  0  0  0  0  0  0  0  0  0
   45.1750   31.7220   39.8070 H   0  0  0  0  0  0  0  0  0  0  0  0
   45.1380   31.2850   37.6660 C   0  0  0  0  0  0  0  0  0  0  0  0
   44.4190   30.4700   37.7660 H   0  0  0  0  0  0  0  0  0  0  0  0
   45.6280   31.6240   36.4210 C   0  0  0  0  0  0  0  0  0  0  0  0
   46.5470   32.6670   36.3000 C   0  0  0  0  0  0  0  0  0  0  0  0
  2  1  1  0  0  0  0
  2  3  1  0  0  0  0
  3 13  1  0  0  0  0
  4  3  2  0  0  0  0
  4  8  1  0  0  0  0
  5  4  1  0  0  0  0
  6  7  1  0  0  0  0
  6  5  2  0  0  0  0
  7  2  2  0  0  0  0
  9  5  1  0  0  0  0
 10  6  1  0  0  0  0
 11 16  1  0  0  0  0
 12 11  2  0  0  0  0
 13 12  1  0  0  0  0
 13 14  2  0  0  0  0
 14 15  1  0  0  0  0
 15 16  2  0  0  0  0
 15 19  1  0  0  0  0
 17 11  1  0  0  0  0
 18 12  1  0  0  0  0
 20 21  1  0  0  0  0
 21 22  1  0  0  0  0
 22 23  2  0  0  0  0
 22  7  1  0  0  0  0
 23 24  1  0  0  0  0
 25 26  1  0  0  0  0
 25 23  1  0  0  0  0
 27 25  2  0  0  0  0
 28 27  1  0  0  0  0
 28 21  2  0  0  0  0
M  END
>  <minimizedAffinity>
-6.09271574

>  <minimizedRMSD>
0.236497581

$$$$
