
 OpenBabel03242519583D

 28 30  0  0  0  0  0  0  0  0999 V2000
   44.5590   33.1240   41.1760 Br  0  0  0  0  0  0  0  0  0  0  0  0
   46.2680   33.9800   40.9900 C   0  0  0  0  0  0  0  0  0  0  0  0
   46.8260   34.7610   41.9750 C   0  0  0  0  0  0  0  0  0  0  0  0
   48.0560   35.3240   41.7320 C   0  0  0  0  0  0  0  0  0  0  0  0
   48.7430   35.1340   40.5480 C   0  0  0  0  0  0  0  0  0  0  0  0
   48.1870   34.3450   39.5480 C   0  0  0  0  0  0  0  0  0  0  0  0
   46.9580   33.7870   39.8000 C   0  0  0  0  0  0  0  0  0  0  0  0
   48.4740   35.9380   42.5250 H   0  0  0  0  0  0  0  0  0  0  0  0
   49.7060   35.6240   40.4600 H   0  0  0  0  0  0  0  0  0  0  0  0
   48.7320   34.2010   38.6220 H   0  0  0  0  0  0  0  0  0  0  0  0
   44.4720   36.1420   44.5970 C   0  0  0  0  0  0  0  0  0  0  0  0
   45.1960   36.0030   43.4040 C   0  0  0  0  0  0  0  0  0  0  0  0
   46.0570   34.9320   43.2110 C   0  0  0  0  0  0  0  0  0  0  0  0
   46.1590   34.0310   44.2310 N   0  0  0  0  0  0  0  0  0  0  0  0
   45.4490   34.1890   45.3710 C   0  0  0  0  0  0  0  0  0  0  0  0
   44.6180   35.2300   45.5510 N   0  0  0  0  0  0  0  0  0  0  0  0
   43.8480   37.0310   44.5840 H   0  0  0  0  0  0  0  0  0  0  0  0
   45.1450   36.6930   42.5720 H   0  0  0  0  0  0  0  0  0  0  0  0
   45.5160   33.4850   46.1950 H   0  0  0  0  0  0  0  0  0  0  0  0
   48.0990   34.6380   37.2310 Cl  0  0  0  0  0  0  0  0  0  0  0  0
   46.9390   33.3360   37.4640 C   0  0  0  0  0  0  0  0  0  0  0  0
   46.4240   32.9680   38.7120 C   0  0  0  0  0  0  0  0  0  0  0  0
   45.5160   31.9340   38.8080 C   0  0  0  0  0  0  0  0  0  0  0  0
   45.1750   31.7210   39.8050 H   0  0  0  0  0  0  0  0  0  0  0  0
   45.1370   31.2840   37.6650 C   0  0  0  0  0  0  0  0  0  0  0  0
   44.4190   30.4700   37.7650 H   0  0  0  0  0  0  0  0  0  0  0  0
   45.6280   31.6230   36.4200 C   0  0  0  0  0  3  0  0  0  0  0  0
   46.5470   32.6680   36.2990 C   0  0  0  0  0  3  0  0  0  0  0  0
  2  1  1  0  0  0  0
  2  3  1  0  0  0  0
  3 13  1  0  0  0  0
  4  3  2  0  0  0  0
  4  8  1  0  0  0  0
  5  4  1  0  0  0  0
  6  7  1  0  0  0  0
  6  5  2  0  0  0  0
  7  2  2  0  0  0  0
  9  5  1  0  0  0  0
 10  6  1  0  0  0  0
 11 16  1  0  0  0  0
 12 11  2  0  0  0  0
 13 12  1  0  0  0  0
 13 14  2  0  0  0  0
 14 15  1  0  0  0  0
 15 16  2  0  0  0  0
 15 19  1  0  0  0  0
 17 11  1  0  0  0  0
 18 12  1  0  0  0  0
 20 21  1  0  0  0  0
 21 22  1  0  0  0  0
 22 23  2  0  0  0  0
 22  7  1  0  0  0  0
 23 24  1  0  0  0  0
 25 26  1  0  0  0  0
 25 23  1  0  0  0  0
 27 25  2  0  0  0  0
 28 27  1  0  0  0  0
 28 21  2  0  0  0  0
M  END
>  <minimizedAffinity>
-6.0922761

>  <minimizedRMSD>
0.208614647

$$$$
