
 OpenBabel03252506183D

 23 24  0  0  0  0  0  0  0  0999 V2000
   44.8290   35.5450   43.6530 C   0  0  0  0  0  0  0  0  0  0  0  0
   43.9670   35.3140   42.5640 C   0  0  0  0  0  0  0  0  0  0  0  0
   43.9330   34.0100   42.0430 C   0  0  0  0  0  0  0  0  0  0  0  0
   44.7110   33.0580   42.5990 N   0  0  0  0  0  0  0  0  0  0  0  0
   45.5280   33.3260   43.6500 C   0  0  0  0  0  0  0  0  0  0  0  0
   45.5850   34.5670   44.1740 N   0  0  0  0  0  0  0  0  0  0  0  0
   43.3660   36.1140   42.1580 H   0  0  0  0  0  0  0  0  0  0  0  0
   43.2750   33.8210   41.2060 H   0  0  0  0  0  0  0  0  0  0  0  0
   48.0330   32.6990   42.0640 Cl  0  0  0  0  0  0  0  0  0  0  0  0
   47.5070   31.8850   43.5030 C   0  0  0  0  0  0  0  0  0  0  0  0
   46.3360   32.2270   44.1860 C   0  0  0  0  0  0  0  0  0  0  0  0
   45.8950   31.6030   45.3260 C   0  0  0  0  0  0  0  0  0  0  0  0
   44.9840   31.8990   45.8260 H   0  0  0  0  0  0  0  0  0  0  0  0
   46.6840   30.5750   45.7990 C   0  0  0  0  0  0  0  0  0  0  0  0
   46.3770   30.0470   46.7020 H   0  0  0  0  0  0  0  0  0  0  0  0
   47.8580   30.1510   45.2090 C   0  0  0  0  0  3  0  0  0  0  0  0
   48.2220   30.8410   44.0630 C   0  0  0  0  0  3  0  0  0  0  0  0
   44.8790   36.9090   44.2160 C   0  0  0  0  0  3  0  0  0  0  0  0
   45.3220   37.8770   43.4430 C   0  0  0  0  0  3  0  0  0  0  0  0
   45.3920   39.2730   43.9650 C   0  0  0  0  0  0  0  0  0  0  0  0
   45.9890   39.2210   44.9100 H   0  0  0  0  0  0  0  0  0  0  0  0
   45.9330   39.9330   43.2740 H   0  0  0  0  0  0  0  0  0  0  0  0
   44.3660   39.6550   44.2020 H   0  0  0  0  0  0  0  0  0  0  0  0
  1  6  1  0  0  0  0
  1 18  1  0  0  0  0
  2  1  2  0  0  0  0
  3  2  1  0  0  0  0
  3  4  2  0  0  0  0
  4  5  1  0  0  0  0
  5  6  2  0  0  0  0
  5 11  1  0  0  0  0
  7  2  1  0  0  0  0
  8  3  1  0  0  0  0
  9 10  1  0  0  0  0
 10 17  2  0  0  0  0
 10 11  1  0  0  0  0
 11 12  2  0  0  0  0
 12 14  1  0  0  0  0
 12 13  1  0  0  0  0
 14 15  1  0  0  0  0
 16 14  2  0  0  0  0
 17 16  1  0  0  0  0
 19 20  1  0  0  0  0
 19 18  2  0  0  0  0
 20 23  1  0  0  0  0
 20 21  1  0  0  0  0
 22 20  1  0  0  0  0
M  END
>  <minimizedAffinity>
-3.30823183

>  <minimizedRMSD>
0.646359861

$$$$
