
 OpenBabel03252507433D

 31 33  0  0  0  0  0  0  0  0999 V2000
   45.6310   34.5670   41.6860 C   0  0  0  0  0  0  0  0  0  0  0  0
   45.8630   35.5920   42.0900 H   0  0  0  0  0  0  0  0  0  0  0  0
   45.6800   33.9000   42.5750 H   0  0  0  0  0  0  0  0  0  0  0  0
   44.2660   34.5650   41.0930 C   0  0  0  0  0  0  0  0  0  0  0  0
   43.3890   35.6870   41.3260 C   0  0  0  0  0  0  0  0  0  0  0  0
   41.8780   35.1770   40.3900 S   0  0  0  0  0  0  0  0  0  0  0  0
   42.7060   33.5690   39.8700 C   0  0  0  0  0  0  0  0  0  0  0  0
   43.7300   33.6280   40.3480 N   0  0  0  0  0  0  0  0  0  0  0  0
   43.6140   36.5590   41.9000 H   0  0  0  0  0  0  0  0  0  0  0  0
   44.1250   32.0720   37.5930 Cl  0  0  0  0  0  0  0  0  0  0  0  0
   42.4400   31.9300   37.9780 C   0  0  0  0  0  0  0  0  0  0  0  0
   41.8930   32.6280   39.0020 C   0  0  0  0  0  0  0  0  0  0  0  0
   40.5910   32.5930   39.3900 C   0  0  0  0  0  0  0  0  0  0  0  0
   40.1700   33.1570   40.2110 H   0  0  0  0  0  0  0  0  0  0  0  0
   39.7440   31.7710   38.6770 C   0  0  0  0  0  0  0  0  0  0  0  0
   38.6920   31.6560   38.8850 H   0  0  0  0  0  0  0  0  0  0  0  0
   40.2560   31.0340   37.6180 C   0  0  0  0  0  3  0  0  0  0  0  0
   41.6020   31.0880   37.2400 C   0  0  0  0  0  3  0  0  0  0  0  0
   46.7180   34.2420   40.7080 C   0  0  0  0  0  0  0  0  0  0  0  0
   46.4570   33.3380   40.1720 H   0  0  0  0  0  0  0  0  0  0  0  0
   46.6930   35.0620   39.9290 H   0  0  0  0  0  0  0  0  0  0  0  0
   48.0630   34.1780   41.3100 C   0  0  0  0  0  0  0  0  0  0  0  0
   48.7670   32.9660   41.1730 C   0  0  0  0  0  0  0  0  0  0  0  0
   50.0300   32.8620   41.7230 C   0  0  0  0  0  0  0  0  0  0  0  0
   50.5520   33.9400   42.3800 N   0  0  0  0  0  0  0  0  0  0  0  0
   49.8450   35.0860   42.4900 C   0  0  0  0  0  0  0  0  0  0  0  0
   48.6370   35.1790   41.9620 N   0  0  0  0  0  0  0  0  0  0  0  0
   50.5390   31.9120   41.5960 H   0  0  0  0  0  0  0  0  0  0  0  0
   50.3550   35.8770   43.0310 H   0  0  0  0  0  0  0  0  0  0  0  0
   48.0160   31.5840   40.2930 S   0  0  0  0  0  0  0  0  0  0  0  0
   47.3000   30.7810   41.2070 H   0  0  0  0  0  0  0  0  0  0  0  0
  1  2  1  0  0  0  0
  1  3  1  0  0  0  0
  4  5  2  0  0  0  0
  4  1  1  0  0  0  0
  5  9  1  0  0  0  0
  6  5  1  0  0  0  0
  7  8  2  0  0  0  0
  7  6  1  0  0  0  0
  8  4  1  0  0  0  0
 10 11  1  0  0  0  0
 11 12  1  0  0  0  0
 12 13  2  0  0  0  0
 12  7  1  0  0  0  0
 13 14  1  0  0  0  0
 15 16  1  0  0  0  0
 15 13  1  0  0  0  0
 17 15  2  0  0  0  0
 18 17  1  0  0  0  0
 18 11  2  0  0  0  0
 19 22  1  0  0  0  0
 19  1  1  0  0  0  0
 20 19  1  0  0  0  0
 21 19  1  0  0  0  0
 22 27  1  0  0  0  0
 23 22  2  0  0  0  0
 23 24  1  0  0  0  0
 24 25  2  0  0  0  0
 25 26  1  0  0  0  0
 26 29  1  0  0  0  0
 27 26  2  0  0  0  0
 28 24  1  0  0  0  0
 30 23  1  0  0  0  0
 30 31  1  0  0  0  0
M  END
>  <minimizedAffinity>
-4.48685455

>  <minimizedRMSD>
1.08509135

$$$$
