
 OpenBabel03252507433D

 31 33  0  0  0  0  0  0  0  0999 V2000
   45.3120   33.8120   41.9510 C   0  0  0  0  0  0  0  0  0  0  0  0
   45.6240   34.3160   42.9080 H   0  0  0  0  0  0  0  0  0  0  0  0
   45.3690   32.7240   42.1780 H   0  0  0  0  0  0  0  0  0  0  0  0
   43.9210   34.2130   41.6090 C   0  0  0  0  0  0  0  0  0  0  0  0
   43.5540   35.6080   41.6430 C   0  0  0  0  0  0  0  0  0  0  0  0
   41.7730   35.5360   41.1480 S   0  0  0  0  0  0  0  0  0  0  0  0
   41.8620   33.6630   40.9910 C   0  0  0  0  0  0  0  0  0  0  0  0
   42.9340   33.4210   41.2620 N   0  0  0  0  0  0  0  0  0  0  0  0
   44.1930   36.4250   41.8980 H   0  0  0  0  0  0  0  0  0  0  0  0
   40.9790   33.8310   38.0520 Cl  0  0  0  0  0  0  0  0  0  0  0  0
   40.1310   32.9720   39.2990 C   0  0  0  0  0  0  0  0  0  0  0  0
   40.5910   32.9480   40.5720 C   0  0  0  0  0  0  0  0  0  0  0  0
   40.0090   32.3120   41.6220 C   0  0  0  0  0  0  0  0  0  0  0  0
   40.3900   32.3030   42.6350 H   0  0  0  0  0  0  0  0  0  0  0  0
   38.8420   31.6220   41.3720 C   0  0  0  0  0  0  0  0  0  0  0  0
   38.2860   31.0770   42.1190 H   0  0  0  0  0  0  0  0  0  0  0  0
   38.3290   31.6150   40.0820 C   0  0  0  0  0  3  0  0  0  0  0  0
   38.9480   32.2800   39.0190 C   0  0  0  0  0  3  0  0  0  0  0  0
   46.3260   34.2010   40.9190 C   0  0  0  0  0  0  0  0  0  0  0  0
   46.1690   33.6120   40.0240 H   0  0  0  0  0  0  0  0  0  0  0  0
   46.0760   35.2630   40.6200 H   0  0  0  0  0  0  0  0  0  0  0  0
   47.7200   34.1420   41.4000 C   0  0  0  0  0  0  0  0  0  0  0  0
   48.4680   33.0010   41.0520 C   0  0  0  0  0  0  0  0  0  0  0  0
   49.7770   32.9040   41.4820 C   0  0  0  0  0  0  0  0  0  0  0  0
   50.3000   33.9210   42.2310 N   0  0  0  0  0  0  0  0  0  0  0  0
   49.5500   35.0000   42.5440 C   0  0  0  0  0  0  0  0  0  0  0  0
   48.2970   35.0860   42.1290 N   0  0  0  0  0  0  0  0  0  0  0  0
   50.3190   32.0100   41.1930 H   0  0  0  0  0  0  0  0  0  0  0  0
   50.0650   35.7460   43.1410 H   0  0  0  0  0  0  0  0  0  0  0  0
   47.7130   31.6970   40.0620 S   0  0  0  0  0  0  0  0  0  0  0  0
   47.1180   30.7450   40.9170 H   0  0  0  0  0  0  0  0  0  0  0  0
  1  3  1  0  0  0  0
  1  2  1  0  0  0  0
  4  5  2  0  0  0  0
  4  1  1  0  0  0  0
  5  9  1  0  0  0  0
  6  5  1  0  0  0  0
  7  6  1  0  0  0  0
  7  8  2  0  0  0  0
  8  4  1  0  0  0  0
 10 11  1  0  0  0  0
 11 12  1  0  0  0  0
 12  7  1  0  0  0  0
 12 13  2  0  0  0  0
 13 14  1  0  0  0  0
 15 13  1  0  0  0  0
 15 16  1  0  0  0  0
 17 15  2  0  0  0  0
 18 11  2  0  0  0  0
 18 17  1  0  0  0  0
 19 22  1  0  0  0  0
 19  1  1  0  0  0  0
 20 19  1  0  0  0  0
 21 19  1  0  0  0  0
 22 27  1  0  0  0  0
 23 22  2  0  0  0  0
 23 24  1  0  0  0  0
 24 25  2  0  0  0  0
 25 26  1  0  0  0  0
 26 29  1  0  0  0  0
 27 26  2  0  0  0  0
 28 24  1  0  0  0  0
 30 31  1  0  0  0  0
 30 23  1  0  0  0  0
M  END
>  <minimizedAffinity>
-4.85615969

>  <minimizedRMSD>
2.41821742

$$$$
