
 OpenBabel03242518463D

 45 48  0  0  1  0  0  0  0  0999 V2000
   47.4740   32.9630   44.3810 C   0  0  2  0  0  0  0  0  0  0  0  0
   47.3990   33.3700   42.9530 C   0  0  1  0  0  0  0  0  0  0  0  0
   47.3430   32.1700   42.0100 C   0  0  0  0  0  0  0  0  0  0  0  0
   48.4600   31.4080   42.3560 O   0  0  0  0  0  0  0  0  0  0  0  0
   48.2930   30.7710   43.5660 C   0  0  0  0  0  0  0  0  0  0  0  0
   47.3120   31.4350   44.4800 C   0  0  1  0  0  0  0  0  0  0  0  0
   48.4600   33.2240   44.8120 H   0  0  0  0  0  0  0  0  0  0  0  0
   48.2880   33.9910   42.7150 H   0  0  0  0  0  0  0  0  0  0  0  0
   46.4020   31.6290   42.0850 H   0  0  0  0  0  0  0  0  0  0  0  0
   47.5440   32.5710   40.9880 H   0  0  0  0  0  0  0  0  0  0  0  0
   47.9130   29.7370   43.3270 H   0  0  0  0  0  0  0  0  0  0  0  0
   49.2890   30.7120   44.0560 H   0  0  0  0  0  0  0  0  0  0  0  0
   46.2640   31.2590   44.1650 H   0  0  0  0  0  0  0  0  0  0  0  0
   45.0290   36.1670   42.8300 C   0  0  0  0  0  0  0  0  0  0  0  0
   44.0030   35.7170   41.9450 C   0  0  0  0  0  0  0  0  0  0  0  0
   44.1840   34.4200   41.4090 C   0  0  0  0  0  0  0  0  0  0  0  0
   45.2780   33.7050   41.7540 N   0  0  0  0  0  0  0  0  0  0  0  0
   46.2150   34.1870   42.5990 C   0  0  0  0  0  0  0  0  0  0  0  0
   46.0880   35.4210   43.1360 N   0  0  0  0  0  0  0  0  0  0  0  0
   43.1470   36.2970   41.6840 H   0  0  0  0  0  0  0  0  0  0  0  0
   43.4440   34.0200   40.7320 H   0  0  0  0  0  0  0  0  0  0  0  0
   44.8630   37.4120   43.3500 O   0  0  0  0  0  0  0  0  0  0  0  0
   44.1030   37.5990   43.9740 H   0  0  0  0  0  0  0  0  0  0  0  0
   46.5000   33.5540   45.1930 O   0  0  0  0  0  0  0  0  0  0  0  0
   45.6650   33.0240   45.1210 H   0  0  0  0  0  0  0  0  0  0  0  0
   47.4820   31.1060   45.8050 O   0  0  0  0  0  0  0  0  0  0  0  0
   46.3560   28.6610   45.5760 F   0  0  0  0  0  0  0  0  0  0  0  0
   46.1680   29.5030   46.6120 C   0  0  0  0  0  0  0  0  0  0  0  0
   46.7000   30.7570   46.8120 C   0  0  0  0  0  0  0  0  0  0  0  0
   46.3240   31.3800   47.9910 C   0  0  0  0  0  0  0  0  0  0  0  0
   45.4810   30.8510   48.9480 C   0  0  0  0  0  0  0  0  0  0  0  0
   44.9820   29.6010   48.6970 C   0  0  0  0  0  0  0  0  0  0  0  0
   45.3080   28.9100   47.5450 C   0  0  0  0  0  0  0  0  0  0  0  0
   46.7890   32.3780   48.0800 H   0  0  0  0  0  0  0  0  0  0  0  0
   45.2870   31.4730   49.8180 H   0  0  0  0  0  0  0  0  0  0  0  0
   44.3180   29.2030   49.4680 H   0  0  0  0  0  0  0  0  0  0  0  0
   43.0550   28.6550   45.5340 Cl  0  0  0  0  0  0  0  0  0  0  0  0
   43.6490   27.3570   46.5650 C   0  0  0  0  0  0  0  0  0  0  0  0
   44.6880   27.6030   47.4460 C   0  0  0  0  0  0  0  0  0  0  0  0
   45.1420   26.5650   48.2500 C   0  0  0  0  0  0  0  0  0  0  0  0
   45.9530   26.6830   48.9640 H   0  0  0  0  0  0  0  0  0  0  0  0
   44.5810   25.3060   48.1880 C   0  0  0  0  0  0  0  0  0  0  0  0
   44.9040   24.4660   48.7970 H   0  0  0  0  0  0  0  0  0  0  0  0
   43.5460   25.0990   47.2970 C   0  0  0  0  0  0  0  0  0  0  0  0
   43.0520   26.0970   46.4700 C   0  0  0  0  0  0  0  0  0  0  0  0
  1  6  1  0  0  0  0
  1  7  1  1  0  0  0
  1 24  1  0  0  0  0
  2  8  1  6  0  0  0
  2  1  1  0  0  0  0
  3  9  1  0  0  0  0
  3  4  1  0  0  0  0
  3  2  1  0  0  0  0
  4  5  1  0  0  0  0
  5 12  1  0  0  0  0
  5  6  1  0  0  0  0
  6 13  1  6  0  0  0
  6 26  1  0  0  0  0
 10  3  1  0  0  0  0
 11  5  1  0  0  0  0
 14 19  1  0  0  0  0
 14 22  1  0  0  0  0
 15 14  2  0  0  0  0
 16 17  2  0  0  0  0
 16 15  1  0  0  0  0
 17 18  1  0  0  0  0
 18  2  1  0  0  0  0
 18 19  2  0  0  0  0
 20 15  1  0  0  0  0
 21 16  1  0  0  0  0
 22 23  1  0  0  0  0
 25 24  1  0  0  0  0
 26 29  1  0  0  0  0
 27 28  1  0  0  0  0
 28 29  2  0  0  0  0
 28 33  1  0  0  0  0
 29 30  1  0  0  0  0
 30 34  1  0  0  0  0
 30 31  2  0  0  0  0
 31 35  1  0  0  0  0
 32 31  1  0  0  0  0
 32 36  1  0  0  0  0
 33 32  2  0  0  0  0
 37 38  1  0  0  0  0
 38 39  1  0  0  0  0
 39 33  1  0  0  0  0
 39 40  2  0  0  0  0
 40 41  1  0  0  0  0
 42 40  1  0  0  0  0
 42 43  1  0  0  0  0
 44 42  2  0  0  0  0
 45 38  2  0  0  0  0
 45 44  1  0  0  0  0
M  END
>  <minimizedAffinity>
-6.07567167

>  <minimizedRMSD>
1.12714708

$$$$
