
 OpenBabel03242523383D

 19 20  0  0  0  0  0  0  0  0999 V2000
   44.8430   35.2220   44.5750 C   0  0  0  0  0  0  0  0  0  0  0  0
   45.6140   35.3990   43.4070 C   0  0  0  0  0  0  0  0  0  0  0  0
   46.7100   34.5410   43.2240 C   0  0  0  0  0  0  0  0  0  0  0  0
   46.9690   33.5960   44.1690 N   0  0  0  0  0  0  0  0  0  0  0  0
   46.2020   33.4580   45.2830 C   0  0  0  0  0  0  0  0  0  0  0  0
   45.1560   34.2600   45.4780 N   0  0  0  0  0  0  0  0  0  0  0  0
   43.9910   35.8790   44.7290 H   0  0  0  0  0  0  0  0  0  0  0  0
   45.3800   36.1600   42.6740 H   0  0  0  0  0  0  0  0  0  0  0  0
   45.4700   30.6180   44.4970 Cl  0  0  0  0  0  0  0  0  0  0  0  0
   46.2540   31.0980   45.9950 C   0  0  0  0  0  0  0  0  0  0  0  0
   46.5420   32.4200   46.2530 C   0  0  0  0  0  0  0  0  0  0  0  0
   47.1590   32.7810   47.4390 C   0  0  0  0  0  0  0  0  0  0  0  0
   47.3970   33.8100   47.6670 H   0  0  0  0  0  0  0  0  0  0  0  0
   47.4870   31.8230   48.3610 C   0  0  0  0  0  0  0  0  0  0  0  0
   47.9720   32.1300   49.2880 H   0  0  0  0  0  0  0  0  0  0  0  0
   47.1960   30.4810   48.1030 C   0  0  0  0  0  3  0  0  0  0  0  0
   46.5820   30.1390   46.9210 C   0  0  0  0  0  3  0  0  0  0  0  0
   47.7440   34.6930   41.7720 S   0  0  0  0  0  0  0  0  0  0  0  0
   48.9610   35.2790   42.1870 H   0  0  0  0  0  0  0  0  0  0  0  0
  1  7  1  0  0  0  0
  1  6  1  0  0  0  0
  2  1  2  0  0  0  0
  3  2  1  0  0  0  0
  3  4  2  0  0  0  0
  4  5  1  0  0  0  0
  5  6  2  0  0  0  0
  5 11  1  0  0  0  0
  8  2  1  0  0  0  0
  9 10  1  0  0  0  0
 10 11  2  0  0  0  0
 10 17  1  0  0  0  0
 11 12  1  0  0  0  0
 12 13  1  0  0  0  0
 12 14  2  0  0  0  0
 14 15  1  0  0  0  0
 16 14  1  0  0  0  0
 17 16  2  0  0  0  0
 18 19  1  0  0  0  0
 18  3  1  0  0  0  0
M  END
>  <minimizedAffinity>
-4.29449129

>  <minimizedRMSD>
1.12465799

$$$$
