
 OpenBabel03242523373D

 19 20  0  0  0  0  0  0  0  0999 V2000
   44.8150   35.3480   43.9150 C   0  0  0  0  0  0  0  0  0  0  0  0
   45.7540   35.5740   42.8870 C   0  0  0  0  0  0  0  0  0  0  0  0
   46.9040   34.7680   42.8790 C   0  0  0  0  0  0  0  0  0  0  0  0
   47.0520   33.8260   43.8500 N   0  0  0  0  0  0  0  0  0  0  0  0
   46.1240   33.6400   44.8250 C   0  0  0  0  0  0  0  0  0  0  0  0
   45.0240   34.3920   44.8530 N   0  0  0  0  0  0  0  0  0  0  0  0
   43.9200   35.9640   43.9330 H   0  0  0  0  0  0  0  0  0  0  0  0
   45.6050   36.3310   42.1290 H   0  0  0  0  0  0  0  0  0  0  0  0
   44.6450   34.0050   47.4520 Cl  0  0  0  0  0  0  0  0  0  0  0  0
   45.7300   32.6790   47.0600 C   0  0  0  0  0  0  0  0  0  0  0  0
   46.3520   32.6090   45.8340 C   0  0  0  0  0  0  0  0  0  0  0  0
   47.2050   31.5550   45.5440 C   0  0  0  0  0  0  0  0  0  0  0  0
   47.7060   31.4750   44.5900 H   0  0  0  0  0  0  0  0  0  0  0  0
   47.4310   30.5790   46.4740 C   0  0  0  0  0  0  0  0  0  0  0  0
   48.1050   29.7600   46.2250 H   0  0  0  0  0  0  0  0  0  0  0  0
   46.8020   30.6460   47.7210 C   0  0  0  0  0  3  0  0  0  0  0  0
   45.9590   31.6980   47.9950 C   0  0  0  0  0  3  0  0  0  0  0  0
   48.1490   34.9830   41.6120 S   0  0  0  0  0  0  0  0  0  0  0  0
   49.2550   35.6190   42.2190 H   0  0  0  0  0  0  0  0  0  0  0  0
  1  7  1  0  0  0  0
  1  6  1  0  0  0  0
  2  1  2  0  0  0  0
  3  2  1  0  0  0  0
  3  4  2  0  0  0  0
  4  5  1  0  0  0  0
  5  6  2  0  0  0  0
  5 11  1  0  0  0  0
  8  2  1  0  0  0  0
 10  9  1  0  0  0  0
 10 17  1  0  0  0  0
 11 10  2  0  0  0  0
 12 11  1  0  0  0  0
 12 14  2  0  0  0  0
 13 12  1  0  0  0  0
 14 16  1  0  0  0  0
 15 14  1  0  0  0  0
 16 17  2  0  0  0  0
 18 19  1  0  0  0  0
 18  3  1  0  0  0  0
M  END
>  <minimizedAffinity>
-4.18508625

>  <minimizedRMSD>
1.08970797

$$$$
