
 OpenBabel03242523203D

 37 40  0  0  0  0  0  0  0  0999 V2000
   44.5230   31.8080   42.8810 Cl  0  0  0  0  0  0  0  0  0  0  0  0
   44.5760   33.5690   42.7750 C   0  0  0  0  0  0  0  0  0  0  0  0
   45.4350   34.1970   43.7010 C   0  0  0  0  0  0  0  0  0  0  0  0
   45.4020   35.5730   43.5330 C   0  0  0  0  0  0  0  0  0  0  0  0
   44.7090   36.3200   42.6630 C   0  0  0  0  0  0  0  0  0  0  0  0
   43.9020   35.6310   41.8010 C   0  0  0  0  0  0  0  0  0  0  0  0
   43.8250   34.2820   41.8430 C   0  0  0  0  0  0  0  0  0  0  0  0
   45.9960   36.2300   44.2050 H   0  0  0  0  0  0  0  0  0  0  0  0
   44.7110   37.3750   42.5620 H   0  0  0  0  0  0  0  0  0  0  0  0
   43.2740   36.0660   41.0350 H   0  0  0  0  0  0  0  0  0  0  0  0
   45.2660   33.3250   39.4330 Cl  0  0  0  0  0  0  0  0  0  0  0  0
   43.5920   32.9380   39.8280 C   0  0  0  0  0  0  0  0  0  0  0  0
   42.9920   33.4210   40.9680 C   0  0  0  0  0  0  0  0  0  0  0  0
   41.6850   33.1080   41.2590 C   0  0  0  0  0  0  0  0  0  0  0  0
   41.2560   33.5100   42.1640 H   0  0  0  0  0  0  0  0  0  0  0  0
   40.9900   32.2970   40.3780 C   0  0  0  0  0  0  0  0  0  0  0  0
   39.9580   32.0360   40.5850 H   0  0  0  0  0  0  0  0  0  0  0  0
   41.6240   31.8240   39.2340 C   0  0  0  0  0  0  0  0  0  0  0  0
   42.9290   32.1250   38.9260 C   0  0  0  0  0  0  0  0  0  0  0  0
   46.2880   33.5330   44.7210 C   0  0  0  0  0  0  0  0  0  0  0  0
   45.7050   33.9100   45.7080 O   0  0  0  0  0  0  0  0  0  0  0  0
   47.3540   32.7920   44.0340 C   0  0  0  0  0  0  0  0  0  0  0  0
   48.2050   33.2830   43.1220 C   0  0  0  0  0  0  0  0  0  0  0  0
   49.0440   32.3530   42.5550 C   0  0  0  0  0  0  0  0  0  0  0  0
   48.9460   31.0110   42.9710 N   0  0  0  0  0  0  0  0  0  0  0  0
   48.0860   30.6050   43.8750 C   0  0  0  0  0  0  0  0  0  0  0  0
   47.2280   31.5090   44.4610 N   0  0  0  0  0  0  0  0  0  0  0  0
   49.7980   32.5590   41.7980 H   0  0  0  0  0  0  0  0  0  0  0  0
   48.1230   29.5410   44.0980 H   0  0  0  0  0  0  0  0  0  0  0  0
   48.3880   34.6550   42.7880 C   0  0  0  0  0  0  0  0  0  0  0  0
   49.4110   35.2310   42.1040 C   0  0  0  0  0  0  0  0  0  0  0  0
   48.1760   35.0520   41.2650 C   0  0  0  0  0  0  0  0  0  0  0  0
   47.9290   35.3560   43.5100 H   0  0  0  0  0  0  0  0  0  0  0  0
   50.2760   34.5780   41.7770 H   0  0  0  0  0  0  0  0  0  0  0  0
   49.7760   36.2820   42.1140 H   0  0  0  0  0  0  0  0  0  0  0  0
   48.1240   34.1670   40.6030 H   0  0  0  0  0  0  0  0  0  0  0  0
   47.4620   35.8810   41.1320 H   0  0  0  0  0  0  0  0  0  0  0  0
  2  1  1  0  0  0  0
  2  3  1  0  0  0  0
  3 20  1  0  0  0  0
  4  3  2  0  0  0  0
  4  8  1  0  0  0  0
  5  4  1  0  0  0  0
  6  7  1  0  0  0  0
  6  5  2  0  0  0  0
  7  2  2  0  0  0  0
  9  5  1  0  0  0  0
 10  6  1  0  0  0  0
 11 12  1  0  0  0  0
 12 13  1  0  0  0  0
 13 14  2  0  0  0  0
 13  7  1  0  0  0  0
 14 15  1  0  0  0  0
 16 17  1  0  0  0  0
 16 14  1  0  0  0  0
 18 16  2  0  0  0  0
 19 18  1  0  0  0  0
 19 12  2  0  0  0  0
 20 21  2  0  0  0  0
 22 27  1  0  0  0  0
 22 20  1  0  0  0  0
 23 22  2  0  0  0  0
 24 25  2  0  0  0  0
 24 23  1  0  0  0  0
 25 26  1  0  0  0  0
 26 29  1  0  0  0  0
 26 27  2  0  0  0  0
 28 24  1  0  0  0  0
 30 23  1  0  0  0  0
 30 33  1  0  0  0  0
 31 35  1  0  0  0  0
 31 30  1  0  0  0  0
 32 31  1  0  0  0  0
 32 30  1  0  0  0  0
 34 31  1  0  0  0  0
 36 32  1  0  0  0  0
 37 32  1  0  0  0  0
M  END
>  <minimizedAffinity>
-5.63432217

>  <minimizedRMSD>
0.941256166

$$$$
