
 OpenBabel03242523393D

 19 20  0  0  0  0  0  0  0  0999 V2000
   36.1970   30.7810   40.9960 C   0  0  0  0  0  0  0  0  0  0  0  0
   37.4270   31.3760   40.6440 C   0  0  0  0  0  0  0  0  0  0  0  0
   38.5150   30.5170   40.4170 C   0  0  0  0  0  0  0  0  0  0  0  0
   38.3290   29.1750   40.5460 N   0  0  0  0  0  0  0  0  0  0  0  0
   37.1270   28.6400   40.8880 C   0  0  0  0  0  0  0  0  0  0  0  0
   36.0800   29.4350   41.1080 N   0  0  0  0  0  0  0  0  0  0  0  0
   35.3470   31.4340   41.1740 H   0  0  0  0  0  0  0  0  0  0  0  0
   37.5400   32.4470   40.5490 H   0  0  0  0  0  0  0  0  0  0  0  0
   37.5440   27.5000   43.6700 Cl  0  0  0  0  0  0  0  0  0  0  0  0
   37.1750   26.5710   42.2250 C   0  0  0  0  0  0  0  0  0  0  0  0
   37.0050   27.1900   41.0070 C   0  0  0  0  0  0  0  0  0  0  0  0
   36.7140   26.4400   39.8780 C   0  0  0  0  0  0  0  0  0  0  0  0
   36.5760   26.8990   38.9100 H   0  0  0  0  0  0  0  0  0  0  0  0
   36.5950   25.0800   39.9700 C   0  0  0  0  0  0  0  0  0  0  0  0
   36.3650   24.5110   39.0690 H   0  0  0  0  0  0  0  0  0  0  0  0
   36.7670   24.4480   41.2040 C   0  0  0  0  0  3  0  0  0  0  0  0
   37.0550   25.2050   42.3150 C   0  0  0  0  0  3  0  0  0  0  0  0
   40.1130   31.1840   39.9670 S   0  0  0  0  0  0  0  0  0  0  0  0
   40.9480   31.0630   41.1000 H   0  0  0  0  0  0  0  0  0  0  0  0
  1  6  1  0  0  0  0
  1  7  1  0  0  0  0
  2  1  2  0  0  0  0
  3  4  2  0  0  0  0
  3  2  1  0  0  0  0
  4  5  1  0  0  0  0
  5 11  1  0  0  0  0
  5  6  2  0  0  0  0
  8  2  1  0  0  0  0
 10 17  1  0  0  0  0
 10  9  1  0  0  0  0
 11 10  2  0  0  0  0
 12 14  2  0  0  0  0
 12 11  1  0  0  0  0
 13 12  1  0  0  0  0
 14 16  1  0  0  0  0
 15 14  1  0  0  0  0
 16 17  2  0  0  0  0
 18  3  1  0  0  0  0
 18 19  1  0  0  0  0
M  END
>  <minimizedAffinity>
-4.3977704

$$$$

 OpenBabel03242523393D

 19 20  0  0  0  0  0  0  0  0999 V2000
   38.2930   34.1260   40.1940 C   0  0  0  0  0  0  0  0  0  0  0  0
   39.5910   33.7720   40.6170 C   0  0  0  0  0  0  0  0  0  0  0  0
   39.8980   32.4030   40.6720 C   0  0  0  0  0  0  0  0  0  0  0  0
   38.9410   31.5010   40.3200 N   0  0  0  0  0  0  0  0  0  0  0  0
   37.7000   31.8830   39.9170 C   0  0  0  0  0  0  0  0  0  0  0  0
   37.3860   33.1770   39.8570 N   0  0  0  0  0  0  0  0  0  0  0  0
   38.0420   35.1830   40.1460 H   0  0  0  0  0  0  0  0  0  0  0  0
   40.3290   34.5150   40.8890 H   0  0  0  0  0  0  0  0  0  0  0  0
   37.5500   31.1840   36.9670 Cl  0  0  0  0  0  0  0  0  0  0  0  0
   36.5770   30.4650   38.2430 C   0  0  0  0  0  0  0  0  0  0  0  0
   36.7260   30.8570   39.5550 C   0  0  0  0  0  0  0  0  0  0  0  0
   35.9490   30.2800   40.5460 C   0  0  0  0  0  0  0  0  0  0  0  0
   36.0450   30.5680   41.5830 H   0  0  0  0  0  0  0  0  0  0  0  0
   35.0320   29.3170   40.2260 C   0  0  0  0  0  0  0  0  0  0  0  0
   34.4330   28.8760   41.0230 H   0  0  0  0  0  0  0  0  0  0  0  0
   34.8790   28.9160   38.8960 C   0  0  0  0  0  3  0  0  0  0  0  0
   35.6560   29.4980   37.9230 C   0  0  0  0  0  3  0  0  0  0  0  0
   41.5200   31.8610   41.1980 S   0  0  0  0  0  0  0  0  0  0  0  0
   41.3800   31.3310   42.5000 H   0  0  0  0  0  0  0  0  0  0  0  0
  1  2  1  0  0  0  0
  2  3  2  0  0  0  0
  2  8  1  0  0  0  0
  3 18  1  0  0  0  0
  4  3  1  0  0  0  0
  5  4  2  0  0  0  0
  6  5  1  0  0  0  0
  6  1  2  0  0  0  0
  7  1  1  0  0  0  0
  9 10  1  0  0  0  0
 10 11  1  0  0  0  0
 11  5  1  0  0  0  0
 11 12  2  0  0  0  0
 12 13  1  0  0  0  0
 14 12  1  0  0  0  0
 14 15  1  0  0  0  0
 16 14  2  0  0  0  0
 17 10  2  0  0  0  0
 17 16  1  0  0  0  0
 18 19  1  0  0  0  0
M  END
>  <minimizedAffinity>
-4.37850475

$$$$

 OpenBabel03242523393D

 19 20  0  0  0  0  0  0  0  0999 V2000
   38.8380   30.6340   38.2700 C   0  0  0  0  0  0  0  0  0  0  0  0
   38.8700   32.0180   38.5400 C   0  0  0  0  0  0  0  0  0  0  0  0
   38.6340   32.4200   39.8650 C   0  0  0  0  0  0  0  0  0  0  0  0
   38.3900   31.4670   40.8070 N   0  0  0  0  0  0  0  0  0  0  0  0
   38.3680   30.1420   40.5060 C   0  0  0  0  0  0  0  0  0  0  0  0
   38.5900   29.7360   39.2550 N   0  0  0  0  0  0  0  0  0  0  0  0
   39.0200   30.3090   37.2490 H   0  0  0  0  0  0  0  0  0  0  0  0
   39.0670   32.7490   37.7690 H   0  0  0  0  0  0  0  0  0  0  0  0
   35.4860   29.2220   40.7650 Cl  0  0  0  0  0  0  0  0  0  0  0  0
   36.8260   28.6960   41.7730 C   0  0  0  0  0  0  0  0  0  0  0  0
   38.1000   29.1780   41.5700 C   0  0  0  0  0  0  0  0  0  0  0  0
   39.1430   28.7510   42.3750 C   0  0  0  0  0  0  0  0  0  0  0  0
   40.1520   29.1130   42.2380 H   0  0  0  0  0  0  0  0  0  0  0  0
   38.9120   27.8490   43.3770 C   0  0  0  0  0  0  0  0  0  0  0  0
   39.7490   27.5270   43.9970 H   0  0  0  0  0  0  0  0  0  0  0  0
   37.6210   27.3570   43.5860 C   0  0  0  0  0  3  0  0  0  0  0  0
   36.5960   27.7890   42.7790 C   0  0  0  0  0  3  0  0  0  0  0  0
   38.6540   34.1550   40.3000 S   0  0  0  0  0  0  0  0  0  0  0  0
   37.3130   34.5470   40.5120 H   0  0  0  0  0  0  0  0  0  0  0  0
  1  2  2  0  0  0  0
  1  6  1  0  0  0  0
  2  3  1  0  0  0  0
  3 18  1  0  0  0  0
  3  4  2  0  0  0  0
  5  4  1  0  0  0  0
  5 11  1  0  0  0  0
  6  5  2  0  0  0  0
  7  1  1  0  0  0  0
  8  2  1  0  0  0  0
  9 10  1  0  0  0  0
 10 17  1  0  0  0  0
 11 10  2  0  0  0  0
 11 12  1  0  0  0  0
 12 14  2  0  0  0  0
 13 12  1  0  0  0  0
 14 16  1  0  0  0  0
 14 15  1  0  0  0  0
 17 16  2  0  0  0  0
 18 19  1  0  0  0  0
M  END
>  <minimizedAffinity>
-4.27257395

$$$$

 OpenBabel03242523393D

 19 20  0  0  0  0  0  0  0  0999 V2000
   37.3230   28.0360   43.5340 C   0  0  0  0  0  0  0  0  0  0  0  0
   37.7090   26.8950   42.8000 C   0  0  0  0  0  0  0  0  0  0  0  0
   38.1960   27.1010   41.4990 C   0  0  0  0  0  0  0  0  0  0  0  0
   38.2690   28.3740   41.0200 N   0  0  0  0  0  0  0  0  0  0  0  0
   37.8850   29.4480   41.7590 C   0  0  0  0  0  0  0  0  0  0  0  0
   37.4210   29.2760   42.9970 N   0  0  0  0  0  0  0  0  0  0  0  0
   36.9450   27.8900   44.5420 H   0  0  0  0  0  0  0  0  0  0  0  0
   37.6400   25.8970   43.2110 H   0  0  0  0  0  0  0  0  0  0  0  0
   40.3620   31.0290   42.5220 Cl  0  0  0  0  0  0  0  0  0  0  0  0
   39.0770   31.5840   41.4580 C   0  0  0  0  0  0  0  0  0  0  0  0
   37.9930   30.7830   41.1770 C   0  0  0  0  0  0  0  0  0  0  0  0
   36.9900   31.2380   40.3370 C   0  0  0  0  0  0  0  0  0  0  0  0
   36.1280   30.6310   40.0990 H   0  0  0  0  0  0  0  0  0  0  0  0
   37.0730   32.4850   39.7820 C   0  0  0  0  0  0  0  0  0  0  0  0
   36.2720   32.8220   39.1220 H   0  0  0  0  0  0  0  0  0  0  0  0
   38.1720   33.3010   40.0630 C   0  0  0  0  0  3  0  0  0  0  0  0
   39.1590   32.8360   40.9000 C   0  0  0  0  0  3  0  0  0  0  0  0
   38.7090   25.7120   40.4950 S   0  0  0  0  0  0  0  0  0  0  0  0
   37.7130   25.5200   39.5110 H   0  0  0  0  0  0  0  0  0  0  0  0
  1  7  1  0  0  0  0
  2  8  1  0  0  0  0
  2  1  2  0  0  0  0
  3  2  1  0  0  0  0
  4  3  2  0  0  0  0
  4  5  1  0  0  0  0
  5  6  2  0  0  0  0
  6  1  1  0  0  0  0
 10  9  1  0  0  0  0
 11 10  1  0  0  0  0
 11  5  1  0  0  0  0
 12 11  2  0  0  0  0
 13 12  1  0  0  0  0
 14 16  2  0  0  0  0
 14 12  1  0  0  0  0
 15 14  1  0  0  0  0
 16 17  1  0  0  0  0
 17 10  2  0  0  0  0
 18  3  1  0  0  0  0
 19 18  1  0  0  0  0
M  END
>  <minimizedAffinity>
-4.25994825

$$$$

 OpenBabel03242523393D

 19 20  0  0  0  0  0  0  0  0999 V2000
   37.1320   27.9850   43.4220 C   0  0  0  0  0  0  0  0  0  0  0  0
   38.1730   28.9360   43.4600 C   0  0  0  0  0  0  0  0  0  0  0  0
   38.4070   29.6800   42.2920 C   0  0  0  0  0  0  0  0  0  0  0  0
   37.6300   29.4470   41.1990 N   0  0  0  0  0  0  0  0  0  0  0  0
   36.6360   28.5200   41.2020 C   0  0  0  0  0  0  0  0  0  0  0  0
   36.3950   27.8020   42.3000 N   0  0  0  0  0  0  0  0  0  0  0  0
   36.9400   27.4030   44.3200 H   0  0  0  0  0  0  0  0  0  0  0  0
   38.7720   29.0970   44.3460 H   0  0  0  0  0  0  0  0  0  0  0  0
   37.5390   26.2710   39.3730 Cl  0  0  0  0  0  0  0  0  0  0  0  0
   36.1670   27.3330   39.0930 C   0  0  0  0  0  0  0  0  0  0  0  0
   35.8430   28.3270   39.9910 C   0  0  0  0  0  0  0  0  0  0  0  0
   34.7580   29.1540   39.7530 C   0  0  0  0  0  0  0  0  0  0  0  0
   34.4810   29.9410   40.4400 H   0  0  0  0  0  0  0  0  0  0  0  0
   34.0030   28.9880   38.6250 C   0  0  0  0  0  0  0  0  0  0  0  0
   33.1530   29.6510   38.4590 H   0  0  0  0  0  0  0  0  0  0  0  0
   34.3270   27.9820   37.7120 C   0  0  0  0  0  3  0  0  0  0  0  0
   35.4070   27.1680   37.9610 C   0  0  0  0  0  3  0  0  0  0  0  0
   39.7070   30.9080   42.2480 S   0  0  0  0  0  0  0  0  0  0  0  0
   40.7600   30.3730   41.4720 H   0  0  0  0  0  0  0  0  0  0  0  0
  1  2  1  0  0  0  0
  1  7  1  0  0  0  0
  2  8  1  0  0  0  0
  3  2  2  0  0  0  0
  4  5  2  0  0  0  0
  4  3  1  0  0  0  0
  5  6  1  0  0  0  0
  6  1  2  0  0  0  0
 10  9  1  0  0  0  0
 10 11  1  0  0  0  0
 11  5  1  0  0  0  0
 12 11  2  0  0  0  0
 12 13  1  0  0  0  0
 14 12  1  0  0  0  0
 15 14  1  0  0  0  0
 16 17  1  0  0  0  0
 16 14  2  0  0  0  0
 17 10  2  0  0  0  0
 18  3  1  0  0  0  0
 19 18  1  0  0  0  0
M  END
>  <minimizedAffinity>
-4.19401073

$$$$

 OpenBabel03242523393D

 19 20  0  0  0  0  0  0  0  0999 V2000
   36.2910   30.7630   41.0970 C   0  0  0  0  0  0  0  0  0  0  0  0
   36.8170   31.1760   39.8550 C   0  0  0  0  0  0  0  0  0  0  0  0
   37.9230   30.4660   39.3580 C   0  0  0  0  0  0  0  0  0  0  0  0
   38.4220   29.4320   40.0890 N   0  0  0  0  0  0  0  0  0  0  0  0
   37.8860   29.0660   41.2830 C   0  0  0  0  0  0  0  0  0  0  0  0
   36.8360   29.7240   41.7750 N   0  0  0  0  0  0  0  0  0  0  0  0
   35.4350   31.3030   41.4930 H   0  0  0  0  0  0  0  0  0  0  0  0
   36.3960   32.0010   39.2990 H   0  0  0  0  0  0  0  0  0  0  0  0
   36.8020   26.3170   40.5870 Cl  0  0  0  0  0  0  0  0  0  0  0  0
   38.0560   26.6550   41.7710 C   0  0  0  0  0  0  0  0  0  0  0  0
   38.4760   27.9450   42.0110 C   0  0  0  0  0  0  0  0  0  0  0  0
   39.4660   28.1920   42.9480 C   0  0  0  0  0  0  0  0  0  0  0  0
   39.8140   29.1930   43.1560 H   0  0  0  0  0  0  0  0  0  0  0  0
   40.0310   27.1560   43.6390 C   0  0  0  0  0  0  0  0  0  0  0  0
   40.8090   27.3750   44.3710 H   0  0  0  0  0  0  0  0  0  0  0  0
   39.6080   25.8460   43.3980 C   0  0  0  0  0  3  0  0  0  0  0  0
   38.6250   25.6160   42.4650 C   0  0  0  0  0  3  0  0  0  0  0  0
   38.6560   30.9200   37.7910 S   0  0  0  0  0  0  0  0  0  0  0  0
   39.8810   31.5640   38.0760 H   0  0  0  0  0  0  0  0  0  0  0  0
  1  7  1  0  0  0  0
  1  6  1  0  0  0  0
  2  1  2  0  0  0  0
  3  2  1  0  0  0  0
  3  4  2  0  0  0  0
  4  5  1  0  0  0  0
  5  6  2  0  0  0  0
  5 11  1  0  0  0  0
  8  2  1  0  0  0  0
  9 10  1  0  0  0  0
 10 11  2  0  0  0  0
 10 17  1  0  0  0  0
 11 12  1  0  0  0  0
 12 13  1  0  0  0  0
 12 14  2  0  0  0  0
 14 15  1  0  0  0  0
 16 14  1  0  0  0  0
 17 16  2  0  0  0  0
 18 19  1  0  0  0  0
 18  3  1  0  0  0  0
M  END
>  <minimizedAffinity>
-4.15679693

$$$$

 OpenBabel03242523393D

 19 20  0  0  0  0  0  0  0  0999 V2000
   38.2240   27.8130   39.6750 C   0  0  0  0  0  0  0  0  0  0  0  0
   37.6980   27.2390   40.8510 C   0  0  0  0  0  0  0  0  0  0  0  0
   37.2810   28.1190   41.8640 C   0  0  0  0  0  0  0  0  0  0  0  0
   37.4040   29.4590   41.6620 N   0  0  0  0  0  0  0  0  0  0  0  0
   37.9170   29.9730   40.5120 C   0  0  0  0  0  0  0  0  0  0  0  0
   38.3190   29.1580   39.5370 N   0  0  0  0  0  0  0  0  0  0  0  0
   38.5500   27.1440   38.8820 H   0  0  0  0  0  0  0  0  0  0  0  0
   37.6130   26.1690   40.9800 H   0  0  0  0  0  0  0  0  0  0  0  0
   40.1840   31.3020   42.0330 Cl  0  0  0  0  0  0  0  0  0  0  0  0
   39.0110   32.1240   41.0150 C   0  0  0  0  0  0  0  0  0  0  0  0
   38.0180   31.4220   40.3670 C   0  0  0  0  0  0  0  0  0  0  0  0
   37.1020   32.0880   39.5690 C   0  0  0  0  0  0  0  0  0  0  0  0
   36.3130   31.5640   39.0490 H   0  0  0  0  0  0  0  0  0  0  0  0
   37.1810   33.4460   39.4200 C   0  0  0  0  0  0  0  0  0  0  0  0
   36.4490   33.9480   38.7860 H   0  0  0  0  0  0  0  0  0  0  0  0
   38.1860   34.1610   40.0750 C   0  0  0  0  0  3  0  0  0  0  0  0
   39.0880   33.4870   40.8640 C   0  0  0  0  0  3  0  0  0  0  0  0
   36.6020   27.4800   43.3910 S   0  0  0  0  0  0  0  0  0  0  0  0
   37.5860   27.6560   44.3900 H   0  0  0  0  0  0  0  0  0  0  0  0
  1  2  1  0  0  0  0
  2  8  1  0  0  0  0
  2  3  2  0  0  0  0
  3 18  1  0  0  0  0
  4  3  1  0  0  0  0
  5  4  2  0  0  0  0
  6  1  2  0  0  0  0
  6  5  1  0  0  0  0
  7  1  1  0  0  0  0
 10  9  1  0  0  0  0
 11  5  1  0  0  0  0
 11 10  2  0  0  0  0
 12 11  1  0  0  0  0
 13 12  1  0  0  0  0
 14 12  2  0  0  0  0
 14 16  1  0  0  0  0
 15 14  1  0  0  0  0
 16 17  2  0  0  0  0
 17 10  1  0  0  0  0
 18 19  1  0  0  0  0
M  END
>  <minimizedAffinity>
-4.15202761

$$$$

 OpenBabel03242523393D

 19 20  0  0  0  0  0  0  0  0999 V2000
   36.0330   30.3910   40.9220 C   0  0  0  0  0  0  0  0  0  0  0  0
   37.2360   31.0090   40.5220 C   0  0  0  0  0  0  0  0  0  0  0  0
   38.3240   30.1690   40.2320 C   0  0  0  0  0  0  0  0  0  0  0  0
   38.1640   28.8230   40.3510 N   0  0  0  0  0  0  0  0  0  0  0  0
   36.9860   28.2660   40.7400 C   0  0  0  0  0  0  0  0  0  0  0  0
   35.9400   29.0420   41.0200 N   0  0  0  0  0  0  0  0  0  0  0  0
   35.1820   31.0290   41.1490 H   0  0  0  0  0  0  0  0  0  0  0  0
   37.3300   32.0830   40.4370 H   0  0  0  0  0  0  0  0  0  0  0  0
   36.2840   26.7990   38.1760 Cl  0  0  0  0  0  0  0  0  0  0  0  0
   36.5770   26.0510   39.7390 C   0  0  0  0  0  0  0  0  0  0  0  0
   36.8900   26.8130   40.8430 C   0  0  0  0  0  0  0  0  0  0  0  0
   37.1180   26.2040   42.0670 C   0  0  0  0  0  0  0  0  0  0  0  0
   37.3650   26.7770   42.9500 H   0  0  0  0  0  0  0  0  0  0  0  0
   37.0330   24.8440   42.1840 C   0  0  0  0  0  0  0  0  0  0  0  0
   37.2170   24.3880   43.1570 H   0  0  0  0  0  0  0  0  0  0  0  0
   36.7160   24.0680   41.0660 C   0  0  0  0  0  3  0  0  0  0  0  0
   36.4930   24.6850   39.8580 C   0  0  0  0  0  3  0  0  0  0  0  0
   39.8900   30.8650   39.7180 S   0  0  0  0  0  0  0  0  0  0  0  0
   40.7790   30.7410   40.8090 H   0  0  0  0  0  0  0  0  0  0  0  0
  1  6  1  0  0  0  0
  1  7  1  0  0  0  0
  2  1  2  0  0  0  0
  3  4  2  0  0  0  0
  3  2  1  0  0  0  0
  4  5  1  0  0  0  0
  5 11  1  0  0  0  0
  5  6  2  0  0  0  0
  8  2  1  0  0  0  0
  9 10  1  0  0  0  0
 10 17  2  0  0  0  0
 10 11  1  0  0  0  0
 11 12  2  0  0  0  0
 12 14  1  0  0  0  0
 12 13  1  0  0  0  0
 14 15  1  0  0  0  0
 16 14  2  0  0  0  0
 17 16  1  0  0  0  0
 18  3  1  0  0  0  0
 18 19  1  0  0  0  0
M  END
>  <minimizedAffinity>
-4.10765362

$$$$

 OpenBabel03242523393D

 19 20  0  0  0  0  0  0  0  0999 V2000
   39.1070   30.6450   38.3550 C   0  0  0  0  0  0  0  0  0  0  0  0
   39.1120   32.0280   38.6310 C   0  0  0  0  0  0  0  0  0  0  0  0
   38.7570   32.4260   39.9300 C   0  0  0  0  0  0  0  0  0  0  0  0
   38.4310   31.4700   40.8430 N   0  0  0  0  0  0  0  0  0  0  0  0
   38.4380   30.1450   40.5370 C   0  0  0  0  0  0  0  0  0  0  0  0
   38.7720   29.7440   39.3100 N   0  0  0  0  0  0  0  0  0  0  0  0
   39.3810   30.3240   37.3530 H   0  0  0  0  0  0  0  0  0  0  0  0
   39.3780   32.7630   37.8830 H   0  0  0  0  0  0  0  0  0  0  0  0
   40.6450   29.3980   42.4820 Cl  0  0  0  0  0  0  0  0  0  0  0  0
   39.0030   28.7700   42.5030 C   0  0  0  0  0  0  0  0  0  0  0  0
   38.0760   29.1780   41.5690 C   0  0  0  0  0  0  0  0  0  0  0  0
   36.7870   28.6710   41.6010 C   0  0  0  0  0  0  0  0  0  0  0  0
   36.0390   28.9730   40.8820 H   0  0  0  0  0  0  0  0  0  0  0  0
   36.4290   27.7650   42.5610 C   0  0  0  0  0  0  0  0  0  0  0  0
   35.4080   27.3810   42.5660 H   0  0  0  0  0  0  0  0  0  0  0  0
   37.3660   27.3490   43.5100 C   0  0  0  0  0  3  0  0  0  0  0  0
   38.6420   27.8600   43.4660 C   0  0  0  0  0  3  0  0  0  0  0  0
   38.7350   34.1590   40.3710 S   0  0  0  0  0  0  0  0  0  0  0  0
   37.3800   34.5490   40.4630 H   0  0  0  0  0  0  0  0  0  0  0  0
  1  2  2  0  0  0  0
  1  6  1  0  0  0  0
  2  3  1  0  0  0  0
  3 18  1  0  0  0  0
  3  4  2  0  0  0  0
  5  4  1  0  0  0  0
  5 11  1  0  0  0  0
  6  5  2  0  0  0  0
  7  1  1  0  0  0  0
  8  2  1  0  0  0  0
  9 10  1  0  0  0  0
 10 17  1  0  0  0  0
 11 12  1  0  0  0  0
 11 10  2  0  0  0  0
 12 14  2  0  0  0  0
 13 12  1  0  0  0  0
 14 15  1  0  0  0  0
 14 16  1  0  0  0  0
 17 16  2  0  0  0  0
 18 19  1  0  0  0  0
M  END
>  <minimizedAffinity>
-4.09222126

$$$$
