
 OpenBabel03242523213D

 37 40  0  0  0  0  0  0  0  0999 V2000
   38.4300   29.9410   42.6440 Cl  0  0  0  0  0  0  0  0  0  0  0  0
   37.6600   29.1730   41.2550 C   0  0  0  0  0  0  0  0  0  0  0  0
   37.1750   27.8680   41.4860 C   0  0  0  0  0  0  0  0  0  0  0  0
   36.5920   27.3590   40.3370 C   0  0  0  0  0  0  0  0  0  0  0  0
   36.4430   27.9130   39.1260 C   0  0  0  0  0  0  0  0  0  0  0  0
   36.9410   29.1790   38.9880 C   0  0  0  0  0  0  0  0  0  0  0  0
   37.5410   29.8110   40.0220 C   0  0  0  0  0  0  0  0  0  0  0  0
   36.1860   26.3240   40.3310 H   0  0  0  0  0  0  0  0  0  0  0  0
   35.9880   27.4920   38.2670 H   0  0  0  0  0  0  0  0  0  0  0  0
   36.9100   29.7780   38.0880 H   0  0  0  0  0  0  0  0  0  0  0  0
   40.4270   29.8440   39.3350 Cl  0  0  0  0  0  0  0  0  0  0  0  0
   39.4570   31.2730   39.6910 C   0  0  0  0  0  0  0  0  0  0  0  0
   38.1210   31.1760   40.0010 C   0  0  0  0  0  0  0  0  0  0  0  0
   37.3810   32.3020   40.2760 C   0  0  0  0  0  0  0  0  0  0  0  0
   36.3360   32.1780   40.5160 H   0  0  0  0  0  0  0  0  0  0  0  0
   38.0140   33.5330   40.2330 C   0  0  0  0  0  0  0  0  0  0  0  0
   37.4530   34.4360   40.4450 H   0  0  0  0  0  0  0  0  0  0  0  0
   39.3660   33.5980   39.9150 C   0  0  0  0  0  3  0  0  0  0  0  0
   40.1230   32.4850   39.6370 C   0  0  0  0  0  3  0  0  0  0  0  0
   37.2360   27.1070   42.7620 C   0  0  0  0  0  0  0  0  0  0  0  0
   36.2450   27.5600   43.2820 O   0  0  0  0  0  0  0  0  0  0  0  0
   38.4160   26.2340   42.7340 C   0  0  0  0  0  0  0  0  0  0  0  0
   38.4280   24.9200   42.4670 C   0  0  0  0  0  0  0  0  0  0  0  0
   39.6550   24.3140   42.6070 C   0  0  0  0  0  0  0  0  0  0  0  0
   40.7560   25.0980   43.0000 N   0  0  0  0  0  0  0  0  0  0  0  0
   40.6660   26.3850   43.2410 C   0  0  0  0  0  0  0  0  0  0  0  0
   39.4530   27.0240   43.1140 N   0  0  0  0  0  0  0  0  0  0  0  0
   39.8620   23.2590   42.4370 H   0  0  0  0  0  0  0  0  0  0  0  0
   41.5980   26.8630   43.5350 H   0  0  0  0  0  0  0  0  0  0  0  0
   37.3450   24.1500   41.9550 C   0  0  0  0  0  0  0  0  0  0  0  0
   36.7630   24.2170   40.7300 C   0  0  0  0  0  0  0  0  0  0  0  0
   37.7040   23.0520   40.8650 C   0  0  0  0  0  0  0  0  0  0  0  0
   36.6340   23.8080   42.7300 H   0  0  0  0  0  0  0  0  0  0  0  0
   37.1250   25.0060   40.0030 H   0  0  0  0  0  0  0  0  0  0  0  0
   35.7440   23.9110   40.4040 H   0  0  0  0  0  0  0  0  0  0  0  0
   38.7320   23.1680   40.4730 H   0  0  0  0  0  0  0  0  0  0  0  0
   37.3240   22.0500   41.1230 H   0  0  0  0  0  0  0  0  0  0  0  0
  2  3  1  0  0  0  0
  2  1  1  0  0  0  0
  3 20  1  0  0  0  0
  4  3  2  0  0  0  0
  5  4  1  0  0  0  0
  6  5  2  0  0  0  0
  6  7  1  0  0  0  0
  7  2  2  0  0  0  0
  8  4  1  0  0  0  0
  9  5  1  0  0  0  0
 10  6  1  0  0  0  0
 11 12  1  0  0  0  0
 12 13  1  0  0  0  0
 13  7  1  0  0  0  0
 13 14  2  0  0  0  0
 14 15  1  0  0  0  0
 16 14  1  0  0  0  0
 16 17  1  0  0  0  0
 18 16  2  0  0  0  0
 19 12  2  0  0  0  0
 19 18  1  0  0  0  0
 20 21  2  0  0  0  0
 22 20  1  0  0  0  0
 22 27  1  0  0  0  0
 23 24  1  0  0  0  0
 23 22  2  0  0  0  0
 24 25  2  0  0  0  0
 25 26  1  0  0  0  0
 26 29  1  0  0  0  0
 27 26  2  0  0  0  0
 28 24  1  0  0  0  0
 30 23  1  0  0  0  0
 30 33  1  0  0  0  0
 31 32  1  0  0  0  0
 31 30  1  0  0  0  0
 32 37  1  0  0  0  0
 32 30  1  0  0  0  0
 34 31  1  0  0  0  0
 35 31  1  0  0  0  0
 36 32  1  0  0  0  0
M  END
>  <minimizedAffinity>
-6.12304735

$$$$

 OpenBabel03242523213D

 37 40  0  0  0  0  0  0  0  0999 V2000
   36.2750   26.8200   39.1930 Cl  0  0  0  0  0  0  0  0  0  0  0  0
   36.8770   27.3990   40.7470 C   0  0  0  0  0  0  0  0  0  0  0  0
   36.4880   28.7110   41.0880 C   0  0  0  0  0  0  0  0  0  0  0  0
   37.0120   29.0660   42.3210 C   0  0  0  0  0  0  0  0  0  0  0  0
   37.7830   28.3660   43.1650 C   0  0  0  0  0  0  0  0  0  0  0  0
   38.1130   27.1030   42.7580 C   0  0  0  0  0  0  0  0  0  0  0  0
   37.6780   26.6140   41.5750 C   0  0  0  0  0  0  0  0  0  0  0  0
   36.8320   30.0840   42.7300 H   0  0  0  0  0  0  0  0  0  0  0  0
   38.1650   28.6710   44.1050 H   0  0  0  0  0  0  0  0  0  0  0  0
   38.7240   26.3990   43.3070 H   0  0  0  0  0  0  0  0  0  0  0  0
   40.1250   26.5390   39.9010 Cl  0  0  0  0  0  0  0  0  0  0  0  0
   39.0860   25.1540   40.2320 C   0  0  0  0  0  0  0  0  0  0  0  0
   37.9650   25.2680   41.0210 C   0  0  0  0  0  0  0  0  0  0  0  0
   37.1670   24.1760   41.2670 C   0  0  0  0  0  0  0  0  0  0  0  0
   36.2960   24.3130   41.8920 H   0  0  0  0  0  0  0  0  0  0  0  0
   37.5180   22.9610   40.7030 C   0  0  0  0  0  0  0  0  0  0  0  0
   36.9050   22.0850   40.8830 H   0  0  0  0  0  0  0  0  0  0  0  0
   38.6580   22.8780   39.9110 C   0  0  0  0  0  3  0  0  0  0  0  0
   39.4690   23.9570   39.6520 C   0  0  0  0  0  3  0  0  0  0  0  0
   35.6270   29.6230   40.2890 C   0  0  0  0  0  0  0  0  0  0  0  0
   34.5630   29.0970   40.5110 O   0  0  0  0  0  0  0  0  0  0  0  0
   36.4750   30.6480   39.6690 C   0  0  0  0  0  0  0  0  0  0  0  0
   36.9200   30.6550   38.4040 C   0  0  0  0  0  0  0  0  0  0  0  0
   37.7840   31.6820   38.1020 C   0  0  0  0  0  0  0  0  0  0  0  0
   38.1110   32.6100   39.1090 N   0  0  0  0  0  0  0  0  0  0  0  0
   37.6300   32.5390   40.3280 C   0  0  0  0  0  0  0  0  0  0  0  0
   36.7640   31.5230   40.6660 N   0  0  0  0  0  0  0  0  0  0  0  0
   38.2510   31.8510   37.1340 H   0  0  0  0  0  0  0  0  0  0  0  0
   37.9680   33.3240   41.0010 H   0  0  0  0  0  0  0  0  0  0  0  0
   36.5000   29.7900   37.3540 C   0  0  0  0  0  0  0  0  0  0  0  0
   36.7350   29.9010   36.0210 C   0  0  0  0  0  0  0  0  0  0  0  0
   37.6200   28.8830   36.6860 C   0  0  0  0  0  0  0  0  0  0  0  0
   35.5500   29.2630   37.5620 H   0  0  0  0  0  0  0  0  0  0  0  0
   37.2980   30.8090   35.6460 H   0  0  0  0  0  0  0  0  0  0  0  0
   36.1720   29.4820   35.1570 H   0  0  0  0  0  0  0  0  0  0  0  0
   38.6420   29.1940   36.9760 H   0  0  0  0  0  0  0  0  0  0  0  0
   37.3540   27.8130   36.6730 H   0  0  0  0  0  0  0  0  0  0  0  0
  1  2  1  0  0  0  0
  2  3  2  0  0  0  0
  2  7  1  0  0  0  0
  3  4  1  0  0  0  0
  4  8  1  0  0  0  0
  4  5  2  0  0  0  0
  5  9  1  0  0  0  0
  6  5  1  0  0  0  0
  6 10  1  0  0  0  0
  7  6  2  0  0  0  0
 11 12  1  0  0  0  0
 12 13  1  0  0  0  0
 13 14  2  0  0  0  0
 13  7  1  0  0  0  0
 14 15  1  0  0  0  0
 16 17  1  0  0  0  0
 16 14  1  0  0  0  0
 18 16  2  0  0  0  0
 19 18  1  0  0  0  0
 19 12  2  0  0  0  0
 20 21  2  0  0  0  0
 20  3  1  0  0  0  0
 22 20  1  0  0  0  0
 22 27  1  0  0  0  0
 23 22  2  0  0  0  0
 24 23  1  0  0  0  0
 24 25  2  0  0  0  0
 25 26  1  0  0  0  0
 26 27  2  0  0  0  0
 26 29  1  0  0  0  0
 28 24  1  0  0  0  0
 30 33  1  0  0  0  0
 30 23  1  0  0  0  0
 31 32  1  0  0  0  0
 31 30  1  0  0  0  0
 32 36  1  0  0  0  0
 32 30  1  0  0  0  0
 34 31  1  0  0  0  0
 35 31  1  0  0  0  0
 37 32  1  0  0  0  0
M  END
>  <minimizedAffinity>
-6.05364895

$$$$

 OpenBabel03242523213D

 37 40  0  0  0  0  0  0  0  0999 V2000
   39.2550   27.2340   39.6320 Cl  0  0  0  0  0  0  0  0  0  0  0  0
   38.5270   27.7330   41.1600 C   0  0  0  0  0  0  0  0  0  0  0  0
   38.8310   29.0500   41.5650 C   0  0  0  0  0  0  0  0  0  0  0  0
   38.2120   29.3390   42.7720 C   0  0  0  0  0  0  0  0  0  0  0  0
   37.4210   28.5780   43.5400 C   0  0  0  0  0  0  0  0  0  0  0  0
   37.1760   27.3160   43.0730 C   0  0  0  0  0  0  0  0  0  0  0  0
   37.7120   26.8860   41.9080 C   0  0  0  0  0  0  0  0  0  0  0  0
   38.3720   30.3270   43.2560 H   0  0  0  0  0  0  0  0  0  0  0  0
   36.9620   28.8350   44.4590 H   0  0  0  0  0  0  0  0  0  0  0  0
   36.5640   26.5680   43.5580 H   0  0  0  0  0  0  0  0  0  0  0  0
   39.5980   24.8510   42.9590 Cl  0  0  0  0  0  0  0  0  0  0  0  0
   38.3670   24.5490   41.7340 C   0  0  0  0  0  0  0  0  0  0  0  0
   37.5260   25.5470   41.2970 C   0  0  0  0  0  0  0  0  0  0  0  0
   36.5720   25.2910   40.3410 C   0  0  0  0  0  0  0  0  0  0  0  0
   35.9360   26.1060   40.0280 H   0  0  0  0  0  0  0  0  0  0  0  0
   36.4780   24.0080   39.8300 C   0  0  0  0  0  0  0  0  0  0  0  0
   35.7340   23.7810   39.0740 H   0  0  0  0  0  0  0  0  0  0  0  0
   37.3420   23.0210   40.2920 C   0  0  0  0  0  3  0  0  0  0  0  0
   38.3020   23.2560   41.2470 C   0  0  0  0  0  3  0  0  0  0  0  0
   39.6710   30.0360   40.8360 C   0  0  0  0  0  0  0  0  0  0  0  0
   40.7170   29.4330   40.8720 O   0  0  0  0  0  0  0  0  0  0  0  0
   38.8360   31.1840   40.4640 C   0  0  0  0  0  0  0  0  0  0  0  0
   37.8310   31.1830   39.5770 C   0  0  0  0  0  0  0  0  0  0  0  0
   37.2730   32.4160   39.3340 C   0  0  0  0  0  0  0  0  0  0  0  0
   37.7830   33.5360   40.0180 N   0  0  0  0  0  0  0  0  0  0  0  0
   38.7720   33.4580   40.8780 C   0  0  0  0  0  0  0  0  0  0  0  0
   39.3550   32.2390   41.1430 N   0  0  0  0  0  0  0  0  0  0  0  0
   36.4530   32.6160   38.6470 H   0  0  0  0  0  0  0  0  0  0  0  0
   39.0610   34.4030   41.3310 H   0  0  0  0  0  0  0  0  0  0  0  0
   37.2350   30.0380   38.9750 C   0  0  0  0  0  0  0  0  0  0  0  0
   36.3010   29.9890   37.9890 C   0  0  0  0  0  0  0  0  0  0  0  0
   37.6890   29.6940   37.4920 C   0  0  0  0  0  0  0  0  0  0  0  0
   37.1700   29.1620   39.6460 H   0  0  0  0  0  0  0  0  0  0  0  0
   35.8800   30.9640   37.5960 H   0  0  0  0  0  0  0  0  0  0  0  0
   35.5730   29.1870   37.7320 H   0  0  0  0  0  0  0  0  0  0  0  0
   38.2590   30.5200   37.0240 H   0  0  0  0  0  0  0  0  0  0  0  0
   38.0370   28.6550   37.3800 H   0  0  0  0  0  0  0  0  0  0  0  0
  1  2  1  0  0  0  0
  2  3  2  0  0  0  0
  2  7  1  0  0  0  0
  3  4  1  0  0  0  0
  4  8  1  0  0  0  0
  4  5  2  0  0  0  0
  5  9  1  0  0  0  0
  6  5  1  0  0  0  0
  6 10  1  0  0  0  0
  7  6  2  0  0  0  0
 12 11  1  0  0  0  0
 13 12  1  0  0  0  0
 13  7  1  0  0  0  0
 14 13  2  0  0  0  0
 15 14  1  0  0  0  0
 16 18  2  0  0  0  0
 16 14  1  0  0  0  0
 17 16  1  0  0  0  0
 18 19  1  0  0  0  0
 19 12  2  0  0  0  0
 20 21  2  0  0  0  0
 20  3  1  0  0  0  0
 22 20  1  0  0  0  0
 22 27  1  0  0  0  0
 23 22  2  0  0  0  0
 24 23  1  0  0  0  0
 24 25  2  0  0  0  0
 25 26  1  0  0  0  0
 26 27  2  0  0  0  0
 26 29  1  0  0  0  0
 28 24  1  0  0  0  0
 30 23  1  0  0  0  0
 30 33  1  0  0  0  0
 31 30  1  0  0  0  0
 32 31  1  0  0  0  0
 32 30  1  0  0  0  0
 34 31  1  0  0  0  0
 35 31  1  0  0  0  0
 36 32  1  0  0  0  0
 37 32  1  0  0  0  0
M  END
>  <minimizedAffinity>
-6.02329683

$$$$

 OpenBabel03242523213D

 37 40  0  0  0  0  0  0  0  0999 V2000
   39.6980   28.7370   39.6820 Cl  0  0  0  0  0  0  0  0  0  0  0  0
   37.9640   28.9720   39.9060 C   0  0  0  0  0  0  0  0  0  0  0  0
   37.3760   29.9290   39.0520 C   0  0  0  0  0  0  0  0  0  0  0  0
   36.0180   30.0360   39.3090 C   0  0  0  0  0  0  0  0  0  0  0  0
   35.2540   29.3890   40.2000 C   0  0  0  0  0  0  0  0  0  0  0  0
   35.9030   28.4780   40.9870 C   0  0  0  0  0  0  0  0  0  0  0  0
   37.2320   28.2620   40.8550 C   0  0  0  0  0  0  0  0  0  0  0  0
   35.4020   30.7720   38.7480 H   0  0  0  0  0  0  0  0  0  0  0  0
   34.2140   29.4950   40.3680 H   0  0  0  0  0  0  0  0  0  0  0  0
   35.4500   27.8660   41.7550 H   0  0  0  0  0  0  0  0  0  0  0  0
   38.4020   29.4700   43.2990 Cl  0  0  0  0  0  0  0  0  0  0  0  0
   38.6270   27.7960   42.7930 C   0  0  0  0  0  0  0  0  0  0  0  0
   38.0500   27.3080   41.6440 C   0  0  0  0  0  0  0  0  0  0  0  0
   38.2370   26.0000   41.2660 C   0  0  0  0  0  0  0  0  0  0  0  0
   37.7650   25.6610   40.3560 H   0  0  0  0  0  0  0  0  0  0  0  0
   39.0200   25.1870   42.0690 C   0  0  0  0  0  0  0  0  0  0  0  0
   39.1830   24.1510   41.7930 H   0  0  0  0  0  0  0  0  0  0  0  0
   39.5890   25.7100   43.2250 C   0  0  0  0  0  3  0  0  0  0  0  0
   39.4140   27.0140   43.6200 C   0  0  0  0  0  3  0  0  0  0  0  0
   38.0590   30.7260   37.9990 C   0  0  0  0  0  0  0  0  0  0  0  0
   37.7420   30.0590   37.0440 O   0  0  0  0  0  0  0  0  0  0  0  0
   38.7370   31.8620   38.6330 C   0  0  0  0  0  0  0  0  0  0  0  0
   39.9900   32.2760   38.3950 C   0  0  0  0  0  0  0  0  0  0  0  0
   40.4210   33.3060   39.1990 C   0  0  0  0  0  0  0  0  0  0  0  0
   39.5380   33.8250   40.1650 N   0  0  0  0  0  0  0  0  0  0  0  0
   38.3200   33.3680   40.3370 C   0  0  0  0  0  0  0  0  0  0  0  0
   37.8570   32.3360   39.5520 N   0  0  0  0  0  0  0  0  0  0  0  0
   41.4030   33.7720   39.1580 H   0  0  0  0  0  0  0  0  0  0  0  0
   37.7500   33.8650   41.1200 H   0  0  0  0  0  0  0  0  0  0  0  0
   40.8410   31.8350   37.3420 C   0  0  0  0  0  0  0  0  0  0  0  0
   42.1660   32.0780   37.1660 C   0  0  0  0  0  0  0  0  0  0  0  0
   41.8920   30.7000   37.7030 C   0  0  0  0  0  0  0  0  0  0  0  0
   40.3190   31.6840   36.3790 H   0  0  0  0  0  0  0  0  0  0  0  0
   42.6930   32.7520   37.9070 H   0  0  0  0  0  0  0  0  0  0  0  0
   42.7790   32.0640   36.2370 H   0  0  0  0  0  0  0  0  0  0  0  0
   41.9820   30.5410   38.7940 H   0  0  0  0  0  0  0  0  0  0  0  0
   41.8380   29.8330   37.0240 H   0  0  0  0  0  0  0  0  0  0  0  0
  1  2  1  0  0  0  0
  2  7  1  0  0  0  0
  3  4  1  0  0  0  0
  3  2  2  0  0  0  0
  4  5  2  0  0  0  0
  5  9  1  0  0  0  0
  5  6  1  0  0  0  0
  6 10  1  0  0  0  0
  7  6  2  0  0  0  0
  7 13  1  0  0  0  0
  8  4  1  0  0  0  0
 12 11  1  0  0  0  0
 12 19  1  0  0  0  0
 13 12  2  0  0  0  0
 14 13  1  0  0  0  0
 14 16  2  0  0  0  0
 15 14  1  0  0  0  0
 16 18  1  0  0  0  0
 17 16  1  0  0  0  0
 18 19  2  0  0  0  0
 20 22  1  0  0  0  0
 20  3  1  0  0  0  0
 21 20  2  0  0  0  0
 22 27  1  0  0  0  0
 23 22  2  0  0  0  0
 23 24  1  0  0  0  0
 24 25  2  0  0  0  0
 25 26  1  0  0  0  0
 26 29  1  0  0  0  0
 27 26  2  0  0  0  0
 28 24  1  0  0  0  0
 30 32  1  0  0  0  0
 30 23  1  0  0  0  0
 31 30  1  0  0  0  0
 31 32  1  0  0  0  0
 31 34  1  0  0  0  0
 32 36  1  0  0  0  0
 33 30  1  0  0  0  0
 35 31  1  0  0  0  0
 37 32  1  0  0  0  0
M  END
>  <minimizedAffinity>
-5.8771863

$$$$

 OpenBabel03242523213D

 37 40  0  0  0  0  0  0  0  0999 V2000
   36.6110   29.1220   40.7470 Cl  0  0  0  0  0  0  0  0  0  0  0  0
   36.7020   27.3640   40.6160 C   0  0  0  0  0  0  0  0  0  0  0  0
   37.1130   26.6980   41.7900 C   0  0  0  0  0  0  0  0  0  0  0  0
   37.1500   25.3280   41.5800 C   0  0  0  0  0  0  0  0  0  0  0  0
   36.8640   24.6150   40.4820 C   0  0  0  0  0  0  0  0  0  0  0  0
   36.4730   25.3390   39.3900 C   0  0  0  0  0  0  0  0  0  0  0  0
   36.3890   26.6880   39.4390 C   0  0  0  0  0  0  0  0  0  0  0  0
   37.4870   24.6500   42.3940 H   0  0  0  0  0  0  0  0  0  0  0  0
   36.9020   23.5640   40.3580 H   0  0  0  0  0  0  0  0  0  0  0  0
   36.2040   24.9350   38.4240 H   0  0  0  0  0  0  0  0  0  0  0  0
   38.6560   27.5160   37.7140 Cl  0  0  0  0  0  0  0  0  0  0  0  0
   36.9800   28.0120   37.4850 C   0  0  0  0  0  0  0  0  0  0  0  0
   35.9810   27.5850   38.3300 C   0  0  0  0  0  0  0  0  0  0  0  0
   34.6800   27.9830   38.1350 C   0  0  0  0  0  0  0  0  0  0  0  0
   33.9300   27.6230   38.8230 H   0  0  0  0  0  0  0  0  0  0  0  0
   34.4000   28.8230   37.0700 C   0  0  0  0  0  0  0  0  0  0  0  0
   33.3810   29.1520   36.8950 H   0  0  0  0  0  0  0  0  0  0  0  0
   35.4310   29.2370   36.2340 C   0  0  0  0  0  3  0  0  0  0  0  0
   36.7370   28.8510   36.4120 C   0  0  0  0  0  3  0  0  0  0  0  0
   37.4520   27.3200   43.0970 C   0  0  0  0  0  0  0  0  0  0  0  0
   36.3290   27.4900   43.5060 O   0  0  0  0  0  0  0  0  0  0  0  0
   38.9130   27.4030   43.2140 C   0  0  0  0  0  0  0  0  0  0  0  0
   39.6750   28.4690   42.9310 C   0  0  0  0  0  0  0  0  0  0  0  0
   41.0300   28.2530   43.0290 C   0  0  0  0  0  0  0  0  0  0  0  0
   41.4860   26.9770   43.4110 N   0  0  0  0  0  0  0  0  0  0  0  0
   40.6750   25.9790   43.6760 C   0  0  0  0  0  0  0  0  0  0  0  0
   39.3130   26.1600   43.5860 N   0  0  0  0  0  0  0  0  0  0  0  0
   41.8040   28.9930   42.8360 H   0  0  0  0  0  0  0  0  0  0  0  0
   41.1670   25.0510   43.9590 H   0  0  0  0  0  0  0  0  0  0  0  0
   39.2170   29.7900   42.6620 C   0  0  0  0  0  0  0  0  0  0  0  0
   39.9180   30.9530   42.6950 C   0  0  0  0  0  0  0  0  0  0  0  0
   39.6950   30.4470   41.2970 C   0  0  0  0  0  0  0  0  0  0  0  0
   38.1470   29.9480   42.8930 H   0  0  0  0  0  0  0  0  0  0  0  0
   41.0020   30.9200   43.0190 H   0  0  0  0  0  0  0  0  0  0  0  0
   39.5630   31.9990   42.8360 H   0  0  0  0  0  0  0  0  0  0  0  0
   40.5110   29.8730   40.8180 H   0  0  0  0  0  0  0  0  0  0  0  0
   38.8600   30.8280   40.6880 H   0  0  0  0  0  0  0  0  0  0  0  0
  2  1  1  0  0  0  0
  2  3  1  0  0  0  0
  3 20  1  0  0  0  0
  4  3  2  0  0  0  0
  4  8  1  0  0  0  0
  5  4  1  0  0  0  0
  6  7  1  0  0  0  0
  6  5  2  0  0  0  0
  7  2  2  0  0  0  0
  9  5  1  0  0  0  0
 10  6  1  0  0  0  0
 12 11  1  0  0  0  0
 12 13  1  0  0  0  0
 13  7  1  0  0  0  0
 14 13  2  0  0  0  0
 14 15  1  0  0  0  0
 16 14  1  0  0  0  0
 17 16  1  0  0  0  0
 18 19  1  0  0  0  0
 18 16  2  0  0  0  0
 19 12  2  0  0  0  0
 20 22  1  0  0  0  0
 20 21  2  0  0  0  0
 22 27  1  0  0  0  0
 23 24  1  0  0  0  0
 23 22  2  0  0  0  0
 24 25  2  0  0  0  0
 25 26  1  0  0  0  0
 26 29  1  0  0  0  0
 27 26  2  0  0  0  0
 28 24  1  0  0  0  0
 30 31  1  0  0  0  0
 30 33  1  0  0  0  0
 30 23  1  0  0  0  0
 31 35  1  0  0  0  0
 31 34  1  0  0  0  0
 32 30  1  0  0  0  0
 32 31  1  0  0  0  0
 36 32  1  0  0  0  0
 37 32  1  0  0  0  0
M  END
>  <minimizedAffinity>
-5.79032612

$$$$

 OpenBabel03242523213D

 37 40  0  0  0  0  0  0  0  0999 V2000
   39.6150   28.0840   41.7990 Cl  0  0  0  0  0  0  0  0  0  0  0  0
   38.1520   28.9680   41.3590 C   0  0  0  0  0  0  0  0  0  0  0  0
   38.2650   30.3730   41.4150 C   0  0  0  0  0  0  0  0  0  0  0  0
   37.0660   30.9690   41.0530 C   0  0  0  0  0  0  0  0  0  0  0  0
   35.9040   30.4140   40.6840 C   0  0  0  0  0  0  0  0  0  0  0  0
   35.8820   29.0460   40.6560 C   0  0  0  0  0  0  0  0  0  0  0  0
   36.9760   28.3230   40.9850 C   0  0  0  0  0  0  0  0  0  0  0  0
   36.9660   32.0760   41.0750 H   0  0  0  0  0  0  0  0  0  0  0  0
   35.0050   30.9020   40.4110 H   0  0  0  0  0  0  0  0  0  0  0  0
   35.0350   28.4310   40.3830 H   0  0  0  0  0  0  0  0  0  0  0  0
   36.5160   27.1400   43.6660 Cl  0  0  0  0  0  0  0  0  0  0  0  0
   36.8800   26.2210   42.2060 C   0  0  0  0  0  0  0  0  0  0  0  0
   37.0810   26.8430   40.9950 C   0  0  0  0  0  0  0  0  0  0  0  0
   37.3640   26.1090   39.8690 C   0  0  0  0  0  0  0  0  0  0  0  0
   37.5140   26.6400   38.9400 H   0  0  0  0  0  0  0  0  0  0  0  0
   37.4420   24.7310   39.9810 C   0  0  0  0  0  0  0  0  0  0  0  0
   37.6630   24.1290   39.1070 H   0  0  0  0  0  0  0  0  0  0  0  0
   37.2330   24.1320   41.2190 C   0  0  0  0  0  3  0  0  0  0  0  0
   36.9500   24.8470   42.3570 C   0  0  0  0  0  3  0  0  0  0  0  0
   39.4720   31.1580   41.7840 C   0  0  0  0  0  0  0  0  0  0  0  0
   39.5740   30.7920   42.9300 O   0  0  0  0  0  0  0  0  0  0  0  0
   39.9010   31.9400   40.6180 C   0  0  0  0  0  0  0  0  0  0  0  0
   40.6120   31.4890   39.5750 C   0  0  0  0  0  0  0  0  0  0  0  0
   40.9710   32.4520   38.6610 C   0  0  0  0  0  0  0  0  0  0  0  0
   40.5710   33.7830   38.8880 N   0  0  0  0  0  0  0  0  0  0  0  0
   39.8700   34.1490   39.9360 C   0  0  0  0  0  0  0  0  0  0  0  0
   39.4960   33.2110   40.8720 N   0  0  0  0  0  0  0  0  0  0  0  0
   41.5490   32.2810   37.7550 H   0  0  0  0  0  0  0  0  0  0  0  0
   39.6310   35.2090   39.9800 H   0  0  0  0  0  0  0  0  0  0  0  0
   40.9160   30.1290   39.2820 C   0  0  0  0  0  0  0  0  0  0  0  0
   41.8360   29.6350   38.4140 C   0  0  0  0  0  0  0  0  0  0  0  0
   42.2910   29.5690   39.8460 C   0  0  0  0  0  0  0  0  0  0  0  0
   40.0580   29.4430   39.4080 H   0  0  0  0  0  0  0  0  0  0  0  0
   42.4320   30.3650   37.7860 H   0  0  0  0  0  0  0  0  0  0  0  0
   41.8800   28.6470   37.9030 H   0  0  0  0  0  0  0  0  0  0  0  0
   42.9530   30.3740   40.2170 H   0  0  0  0  0  0  0  0  0  0  0  0
   42.1700   28.6430   40.4310 H   0  0  0  0  0  0  0  0  0  0  0  0
  2  3  1  0  0  0  0
  2  1  1  0  0  0  0
  3 20  1  0  0  0  0
  4  8  1  0  0  0  0
  4  3  2  0  0  0  0
  5  4  1  0  0  0  0
  6  5  2  0  0  0  0
  6  7  1  0  0  0  0
  7 13  1  0  0  0  0
  7  2  2  0  0  0  0
  9  5  1  0  0  0  0
 10  6  1  0  0  0  0
 12 19  1  0  0  0  0
 12 11  1  0  0  0  0
 13 12  2  0  0  0  0
 14 16  2  0  0  0  0
 14 13  1  0  0  0  0
 15 14  1  0  0  0  0
 16 18  1  0  0  0  0
 17 16  1  0  0  0  0
 18 19  2  0  0  0  0
 20 21  2  0  0  0  0
 22 27  1  0  0  0  0
 22 20  1  0  0  0  0
 23 22  2  0  0  0  0
 24 25  2  0  0  0  0
 24 23  1  0  0  0  0
 25 26  1  0  0  0  0
 26 29  1  0  0  0  0
 26 27  2  0  0  0  0
 28 24  1  0  0  0  0
 30 33  1  0  0  0  0
 30 23  1  0  0  0  0
 30 32  1  0  0  0  0
 31 30  1  0  0  0  0
 31 32  1  0  0  0  0
 32 36  1  0  0  0  0
 32 37  1  0  0  0  0
 34 31  1  0  0  0  0
 35 31  1  0  0  0  0
M  END
>  <minimizedAffinity>
-5.72387457

$$$$

 OpenBabel03242523213D

 37 40  0  0  0  0  0  0  0  0999 V2000
   34.8170   28.8920   40.1500 Cl  0  0  0  0  0  0  0  0  0  0  0  0
   36.0270   29.5970   39.0770 C   0  0  0  0  0  0  0  0  0  0  0  0
   37.0120   30.3770   39.7190 C   0  0  0  0  0  0  0  0  0  0  0  0
   37.9090   30.8820   38.7900 C   0  0  0  0  0  0  0  0  0  0  0  0
   37.9520   30.7280   37.4590 C   0  0  0  0  0  0  0  0  0  0  0  0
   36.9600   29.9570   36.9190 C   0  0  0  0  0  0  0  0  0  0  0  0
   36.0090   29.3950   37.6990 C   0  0  0  0  0  0  0  0  0  0  0  0
   38.7350   31.5490   39.1200 H   0  0  0  0  0  0  0  0  0  0  0  0
   38.6570   31.1290   36.7790 H   0  0  0  0  0  0  0  0  0  0  0  0
   36.8370   29.7250   35.8700 H   0  0  0  0  0  0  0  0  0  0  0  0
   36.6100   26.4940   37.8420 Cl  0  0  0  0  0  0  0  0  0  0  0  0
   35.0900   27.1830   37.2750 C   0  0  0  0  0  0  0  0  0  0  0  0
   34.8850   28.5430   37.2390 C   0  0  0  0  0  0  0  0  0  0  0  0
   33.6920   29.0610   36.7930 C   0  0  0  0  0  0  0  0  0  0  0  0
   33.5770   30.1350   36.7810 H   0  0  0  0  0  0  0  0  0  0  0  0
   32.7040   28.1820   36.3830 C   0  0  0  0  0  0  0  0  0  0  0  0
   31.7540   28.5660   36.0270 H   0  0  0  0  0  0  0  0  0  0  0  0
   32.9400   26.8120   36.4320 C   0  0  0  0  0  3  0  0  0  0  0  0
   34.1250   26.2750   36.8740 C   0  0  0  0  0  3  0  0  0  0  0  0
   37.1320   30.6410   41.1770 C   0  0  0  0  0  0  0  0  0  0  0  0
   36.1500   31.3310   41.3100 O   0  0  0  0  0  0  0  0  0  0  0  0
   38.3290   29.9580   41.6830 C   0  0  0  0  0  0  0  0  0  0  0  0
   38.3990   28.6920   42.1180 C   0  0  0  0  0  0  0  0  0  0  0  0
   39.6190   28.3260   42.6370 C   0  0  0  0  0  0  0  0  0  0  0  0
   40.6570   29.2780   42.6610 N   0  0  0  0  0  0  0  0  0  0  0  0
   40.5130   30.5030   42.2110 C   0  0  0  0  0  0  0  0  0  0  0  0
   39.3040   30.9030   41.6880 N   0  0  0  0  0  0  0  0  0  0  0  0
   39.8670   27.3470   43.0400 H   0  0  0  0  0  0  0  0  0  0  0  0
   41.3990   31.1280   42.2920 H   0  0  0  0  0  0  0  0  0  0  0  0
   37.3910   27.6950   41.9870 C   0  0  0  0  0  0  0  0  0  0  0  0
   37.3610   26.4460   42.5200 C   0  0  0  0  0  0  0  0  0  0  0  0
   36.4900   27.4200   43.2650 C   0  0  0  0  0  0  0  0  0  0  0  0
   36.8290   27.7500   41.0360 H   0  0  0  0  0  0  0  0  0  0  0  0
   38.2550   26.0940   43.1190 H   0  0  0  0  0  0  0  0  0  0  0  0
   36.8070   25.5400   42.1890 H   0  0  0  0  0  0  0  0  0  0  0  0
   36.9010   27.8890   44.1790 H   0  0  0  0  0  0  0  0  0  0  0  0
   35.4110   27.4850   43.0520 H   0  0  0  0  0  0  0  0  0  0  0  0
  2  3  1  0  0  0  0
  2  1  1  0  0  0  0
  3 20  1  0  0  0  0
  4  8  1  0  0  0  0
  4  3  2  0  0  0  0
  5  4  1  0  0  0  0
  6  5  2  0  0  0  0
  6  7  1  0  0  0  0
  7  2  2  0  0  0  0
  9  5  1  0  0  0  0
 10  6  1  0  0  0  0
 12 11  1  0  0  0  0
 13 12  1  0  0  0  0
 13  7  1  0  0  0  0
 14 13  2  0  0  0  0
 15 14  1  0  0  0  0
 16 18  2  0  0  0  0
 16 14  1  0  0  0  0
 17 16  1  0  0  0  0
 18 19  1  0  0  0  0
 19 12  2  0  0  0  0
 20 21  2  0  0  0  0
 20 22  1  0  0  0  0
 22 27  2  0  0  0  0
 22 23  1  0  0  0  0
 23 24  2  0  0  0  0
 24 25  1  0  0  0  0
 24 28  1  0  0  0  0
 26 29  1  0  0  0  0
 26 25  2  0  0  0  0
 27 26  1  0  0  0  0
 30 23  1  0  0  0  0
 30 31  1  0  0  0  0
 30 32  1  0  0  0  0
 31 34  1  0  0  0  0
 31 32  1  0  0  0  0
 32 36  1  0  0  0  0
 33 30  1  0  0  0  0
 35 31  1  0  0  0  0
 37 32  1  0  0  0  0
M  END
>  <minimizedAffinity>
-5.6855669

$$$$

 OpenBabel03242523213D

 37 40  0  0  0  0  0  0  0  0999 V2000
   37.0700   27.6340   39.2030 Cl  0  0  0  0  0  0  0  0  0  0  0  0
   37.2950   27.7170   40.9510 C   0  0  0  0  0  0  0  0  0  0  0  0
   37.1670   29.0070   41.5090 C   0  0  0  0  0  0  0  0  0  0  0  0
   37.3620   28.9610   42.8800 C   0  0  0  0  0  0  0  0  0  0  0  0
   37.6340   27.9200   43.6800 C   0  0  0  0  0  0  0  0  0  0  0  0
   37.7400   26.7070   43.0570 C   0  0  0  0  0  0  0  0  0  0  0  0
   37.5770   26.5900   41.7200 C   0  0  0  0  0  0  0  0  0  0  0  0
   37.3310   29.8980   43.4780 H   0  0  0  0  0  0  0  0  0  0  0  0
   37.7750   27.9230   44.7290 H   0  0  0  0  0  0  0  0  0  0  0  0
   37.9530   25.7630   43.5410 H   0  0  0  0  0  0  0  0  0  0  0  0
   40.3170   26.0280   40.7330 Cl  0  0  0  0  0  0  0  0  0  0  0  0
   38.9090   25.0110   40.4360 C   0  0  0  0  0  0  0  0  0  0  0  0
   37.6670   25.3380   40.9290 C   0  0  0  0  0  0  0  0  0  0  0  0
   36.5810   24.5320   40.6860 C   0  0  0  0  0  0  0  0  0  0  0  0
   35.6250   24.8300   41.0930 H   0  0  0  0  0  0  0  0  0  0  0  0
   36.7670   23.3840   39.9350 C   0  0  0  0  0  0  0  0  0  0  0  0
   35.9260   22.7310   39.7290 H   0  0  0  0  0  0  0  0  0  0  0  0
   38.0340   23.0790   39.4510 C   0  0  0  0  0  3  0  0  0  0  0  0
   39.1330   23.8720   39.6820 C   0  0  0  0  0  3  0  0  0  0  0  0
   36.8540   30.2660   40.7840 C   0  0  0  0  0  0  0  0  0  0  0  0
   35.6530   30.2420   40.9040 O   0  0  0  0  0  0  0  0  0  0  0  0
   38.1090   30.8660   40.3150 C   0  0  0  0  0  0  0  0  0  0  0  0
   38.3640   31.3140   39.0770 C   0  0  0  0  0  0  0  0  0  0  0  0
   39.6560   31.7380   38.8710 C   0  0  0  0  0  0  0  0  0  0  0  0
   40.5680   31.6730   39.9410 N   0  0  0  0  0  0  0  0  0  0  0  0
   40.2430   31.2220   41.1300 C   0  0  0  0  0  0  0  0  0  0  0  0
   38.9580   30.7870   41.3710 N   0  0  0  0  0  0  0  0  0  0  0  0
   40.0510   32.1310   37.9370 H   0  0  0  0  0  0  0  0  0  0  0  0
   41.0490   31.2310   41.8600 H   0  0  0  0  0  0  0  0  0  0  0  0
   37.4160   31.4930   38.0300 C   0  0  0  0  0  0  0  0  0  0  0  0
   37.6440   31.7230   36.7110 C   0  0  0  0  0  0  0  0  0  0  0  0
   37.2600   30.2970   36.9970 C   0  0  0  0  0  0  0  0  0  0  0  0
   36.4580   31.9340   38.3650 H   0  0  0  0  0  0  0  0  0  0  0  0
   38.7140   31.8390   36.3620 H   0  0  0  0  0  0  0  0  0  0  0  0
   36.9920   32.1980   35.9440 H   0  0  0  0  0  0  0  0  0  0  0  0
   38.0720   29.5510   37.0920 H   0  0  0  0  0  0  0  0  0  0  0  0
   36.2170   29.9620   36.8810 H   0  0  0  0  0  0  0  0  0  0  0  0
  1  2  1  0  0  0  0
  2  3  2  0  0  0  0
  2  7  1  0  0  0  0
  3  4  1  0  0  0  0
  4  8  1  0  0  0  0
  4  5  2  0  0  0  0
  5  9  1  0  0  0  0
  6 10  1  0  0  0  0
  6  5  1  0  0  0  0
  7  6  2  0  0  0  0
 12 11  1  0  0  0  0
 12 13  1  0  0  0  0
 13  7  1  0  0  0  0
 14 13  2  0  0  0  0
 14 15  1  0  0  0  0
 16 14  1  0  0  0  0
 17 16  1  0  0  0  0
 18 19  1  0  0  0  0
 18 16  2  0  0  0  0
 19 12  2  0  0  0  0
 20 21  2  0  0  0  0
 20  3  1  0  0  0  0
 22 20  1  0  0  0  0
 22 27  1  0  0  0  0
 23 22  2  0  0  0  0
 24 23  1  0  0  0  0
 24 25  2  0  0  0  0
 25 26  1  0  0  0  0
 26 27  2  0  0  0  0
 26 29  1  0  0  0  0
 28 24  1  0  0  0  0
 30 33  1  0  0  0  0
 30 23  1  0  0  0  0
 31 32  1  0  0  0  0
 31 30  1  0  0  0  0
 32 36  1  0  0  0  0
 32 30  1  0  0  0  0
 34 31  1  0  0  0  0
 35 31  1  0  0  0  0
 37 32  1  0  0  0  0
M  END
>  <minimizedAffinity>
-5.65522289

$$$$

 OpenBabel03242523213D

 37 40  0  0  0  0  0  0  0  0999 V2000
   37.1330   27.4320   40.6910 Cl  0  0  0  0  0  0  0  0  0  0  0  0
   38.2800   26.7510   41.8450 C   0  0  0  0  0  0  0  0  0  0  0  0
   38.8900   27.6880   42.7050 C   0  0  0  0  0  0  0  0  0  0  0  0
   39.7690   27.0520   43.5680 C   0  0  0  0  0  0  0  0  0  0  0  0
   40.0840   25.7540   43.6770 C   0  0  0  0  0  0  0  0  0  0  0  0
   39.4470   24.9140   42.8060 C   0  0  0  0  0  0  0  0  0  0  0  0
   38.5600   25.3870   41.9020 C   0  0  0  0  0  0  0  0  0  0  0  0
   40.3640   27.6480   44.2950 H   0  0  0  0  0  0  0  0  0  0  0  0
   40.7620   25.3020   44.3530 H   0  0  0  0  0  0  0  0  0  0  0  0
   39.5760   23.8420   42.7500 H   0  0  0  0  0  0  0  0  0  0  0  0
   40.1130   24.8290   39.4370 Cl  0  0  0  0  0  0  0  0  0  0  0  0
   38.4630   24.2860   39.7340 C   0  0  0  0  0  0  0  0  0  0  0  0
   37.8070   24.5850   40.9060 C   0  0  0  0  0  0  0  0  0  0  0  0
   36.5200   24.1520   41.1200 C   0  0  0  0  0  0  0  0  0  0  0  0
   36.0450   24.4110   42.0540 H   0  0  0  0  0  0  0  0  0  0  0  0
   35.9010   23.4090   40.1280 C   0  0  0  0  0  0  0  0  0  0  0  0
   34.8860   23.0560   40.2730 H   0  0  0  0  0  0  0  0  0  0  0  0
   36.5900   23.1230   38.9550 C   0  0  0  0  0  3  0  0  0  0  0  0
   37.8770   23.5460   38.7220 C   0  0  0  0  0  3  0  0  0  0  0  0
   38.6510   29.1550   42.7400 C   0  0  0  0  0  0  0  0  0  0  0  0
   37.8940   29.1870   43.6790 O   0  0  0  0  0  0  0  0  0  0  0  0
   39.4250   29.7850   41.6630 C   0  0  0  0  0  0  0  0  0  0  0  0
   38.9780   30.7020   40.7930 C   0  0  0  0  0  0  0  0  0  0  0  0
   39.8780   31.0570   39.8140 C   0  0  0  0  0  0  0  0  0  0  0  0
   41.1490   30.4510   39.8120 N   0  0  0  0  0  0  0  0  0  0  0  0
   41.5160   29.5590   40.7030 C   0  0  0  0  0  0  0  0  0  0  0  0
   40.6390   29.1790   41.6950 N   0  0  0  0  0  0  0  0  0  0  0  0
   39.6980   31.7800   39.0220 H   0  0  0  0  0  0  0  0  0  0  0  0
   42.5260   29.1760   40.5790 H   0  0  0  0  0  0  0  0  0  0  0  0
   37.7410   31.4030   40.8630 C   0  0  0  0  0  0  0  0  0  0  0  0
   37.1420   32.1610   39.9080 C   0  0  0  0  0  0  0  0  0  0  0  0
   36.5290   30.7940   40.0360 C   0  0  0  0  0  0  0  0  0  0  0  0
   37.4740   31.7380   41.8820 H   0  0  0  0  0  0  0  0  0  0  0  0
   37.6850   32.3210   38.9280 H   0  0  0  0  0  0  0  0  0  0  0  0
   36.3940   32.9790   40.0090 H   0  0  0  0  0  0  0  0  0  0  0  0
   36.8560   30.0110   39.3250 H   0  0  0  0  0  0  0  0  0  0  0  0
   35.6260   30.6380   40.6480 H   0  0  0  0  0  0  0  0  0  0  0  0
  1  2  1  0  0  0  0
  2  7  2  0  0  0  0
  2  3  1  0  0  0  0
  3 20  1  0  0  0  0
  3  4  2  0  0  0  0
  4  5  1  0  0  0  0
  4  8  1  0  0  0  0
  5  9  1  0  0  0  0
  6  5  2  0  0  0  0
  7  6  1  0  0  0  0
 10  6  1  0  0  0  0
 11 12  1  0  0  0  0
 12 13  1  0  0  0  0
 13 14  2  0  0  0  0
 13  7  1  0  0  0  0
 14 15  1  0  0  0  0
 16 17  1  0  0  0  0
 16 14  1  0  0  0  0
 18 16  2  0  0  0  0
 19 18  1  0  0  0  0
 19 12  2  0  0  0  0
 20 21  2  0  0  0  0
 22 27  1  0  0  0  0
 22 20  1  0  0  0  0
 23 30  1  0  0  0  0
 23 22  2  0  0  0  0
 24 23  1  0  0  0  0
 25 24  2  0  0  0  0
 25 26  1  0  0  0  0
 26 27  2  0  0  0  0
 28 24  1  0  0  0  0
 29 26  1  0  0  0  0
 30 33  1  0  0  0  0
 31 35  1  0  0  0  0
 31 32  1  0  0  0  0
 31 30  1  0  0  0  0
 32 37  1  0  0  0  0
 32 30  1  0  0  0  0
 34 31  1  0  0  0  0
 36 32  1  0  0  0  0
M  END
>  <minimizedAffinity>
-5.59891129

$$$$
