
 OpenBabel03242523373D

 19 20  0  0  0  0  0  0  0  0999 V2000
   44.5890   35.7750   44.5540 C   0  0  0  0  0  0  0  0  0  0  0  0
   44.6670   35.6320   43.1530 C   0  0  0  0  0  0  0  0  0  0  0  0
   45.2560   34.4560   42.6580 C   0  0  0  0  0  0  0  0  0  0  0  0
   45.7150   33.5300   43.5430 N   0  0  0  0  0  0  0  0  0  0  0  0
   45.6220   33.7060   44.8880 C   0  0  0  0  0  0  0  0  0  0  0  0
   45.0660   34.8130   45.3810 N   0  0  0  0  0  0  0  0  0  0  0  0
   44.1350   36.6790   44.9500 H   0  0  0  0  0  0  0  0  0  0  0  0
   44.2910   36.3880   42.4760 H   0  0  0  0  0  0  0  0  0  0  0  0
   44.5880   33.7700   47.7420 Cl  0  0  0  0  0  0  0  0  0  0  0  0
   45.7320   32.6060   47.0910 C   0  0  0  0  0  0  0  0  0  0  0  0
   46.1360   32.6670   45.7760 C   0  0  0  0  0  0  0  0  0  0  0  0
   47.0390   31.7390   45.2800 C   0  0  0  0  0  0  0  0  0  0  0  0
   47.3730   31.7630   44.2530 H   0  0  0  0  0  0  0  0  0  0  0  0
   47.5340   30.7590   46.0960 C   0  0  0  0  0  0  0  0  0  0  0  0
   48.2420   30.0400   45.6850 H   0  0  0  0  0  0  0  0  0  0  0  0
   47.1260   30.6930   47.4310 C   0  0  0  0  0  3  0  0  0  0  0  0
   46.2290   31.6200   47.9090 C   0  0  0  0  0  3  0  0  0  0  0  0
   45.3970   34.1900   40.8950 S   0  0  0  0  0  0  0  0  0  0  0  0
   46.7570   34.3720   40.5540 H   0  0  0  0  0  0  0  0  0  0  0  0
  1  7  1  0  0  0  0
  1  6  1  0  0  0  0
  2  1  2  0  0  0  0
  3  2  1  0  0  0  0
  3  4  2  0  0  0  0
  4  5  1  0  0  0  0
  5  6  2  0  0  0  0
  5 11  1  0  0  0  0
  8  2  1  0  0  0  0
 10  9  1  0  0  0  0
 10 17  1  0  0  0  0
 11 10  2  0  0  0  0
 12 11  1  0  0  0  0
 12 14  2  0  0  0  0
 13 12  1  0  0  0  0
 14 16  1  0  0  0  0
 15 14  1  0  0  0  0
 16 17  2  0  0  0  0
 18  3  1  0  0  0  0
 19 18  1  0  0  0  0
M  END
>  <minimizedAffinity>
-4.01354742

>  <minimizedRMSD>
1.25834429

$$$$
