
 OpenBabel03242523383D

 19 20  0  0  0  0  0  0  0  0999 V2000
   44.4510   35.9380   44.7230 C   0  0  0  0  0  0  0  0  0  0  0  0
   44.6360   35.6490   43.3550 C   0  0  0  0  0  0  0  0  0  0  0  0
   45.2460   34.4250   43.0340 C   0  0  0  0  0  0  0  0  0  0  0  0
   45.6210   33.5930   44.0440 N   0  0  0  0  0  0  0  0  0  0  0  0
   45.4250   33.9100   45.3520 C   0  0  0  0  0  0  0  0  0  0  0  0
   44.8490   35.0660   45.6810 N   0  0  0  0  0  0  0  0  0  0  0  0
   43.9800   36.8820   44.9860 H   0  0  0  0  0  0  0  0  0  0  0  0
   44.3250   36.3320   42.5760 H   0  0  0  0  0  0  0  0  0  0  0  0
   47.6390   31.9930   44.5510 Cl  0  0  0  0  0  0  0  0  0  0  0  0
   46.8530   32.0540   46.1210 C   0  0  0  0  0  0  0  0  0  0  0  0
   45.8540   32.9670   46.3810 C   0  0  0  0  0  0  0  0  0  0  0  0
   45.2460   32.9990   47.6260 C   0  0  0  0  0  0  0  0  0  0  0  0
   44.4600   33.7040   47.8570 H   0  0  0  0  0  0  0  0  0  0  0  0
   45.6350   32.1230   48.6020 C   0  0  0  0  0  0  0  0  0  0  0  0
   45.1420   32.1670   49.5740 H   0  0  0  0  0  0  0  0  0  0  0  0
   46.6470   31.1960   48.3430 C   0  0  0  0  0  3  0  0  0  0  0  0
   47.2430   31.1750   47.1040 C   0  0  0  0  0  3  0  0  0  0  0  0
   45.5210   33.9740   41.3250 S   0  0  0  0  0  0  0  0  0  0  0  0
   46.9050   34.1110   41.0760 H   0  0  0  0  0  0  0  0  0  0  0  0
  1  7  1  0  0  0  0
  1  6  1  0  0  0  0
  2  1  2  0  0  0  0
  3  2  1  0  0  0  0
  3  4  2  0  0  0  0
  4  5  1  0  0  0  0
  5  6  2  0  0  0  0
  5 11  1  0  0  0  0
  8  2  1  0  0  0  0
  9 10  1  0  0  0  0
 10 11  2  0  0  0  0
 10 17  1  0  0  0  0
 11 12  1  0  0  0  0
 12 13  1  0  0  0  0
 12 14  2  0  0  0  0
 14 15  1  0  0  0  0
 16 14  1  0  0  0  0
 17 16  2  0  0  0  0
 18  3  1  0  0  0  0
 19 18  1  0  0  0  0
M  END
>  <minimizedAffinity>
-4.61802149

>  <minimizedRMSD>
1.00016022

$$$$
