
 OpenBabel03242523383D

 19 20  0  0  0  0  0  0  0  0999 V2000
   44.5170   35.7660   44.8700 C   0  0  0  0  0  0  0  0  0  0  0  0
   45.1990   35.7640   43.6350 C   0  0  0  0  0  0  0  0  0  0  0  0
   46.1310   34.7350   43.4170 C   0  0  0  0  0  0  0  0  0  0  0  0
   46.3260   33.8080   44.3950 N   0  0  0  0  0  0  0  0  0  0  0  0
   45.6480   33.8470   45.5730 C   0  0  0  0  0  0  0  0  0  0  0  0
   44.7590   34.8120   45.8020 N   0  0  0  0  0  0  0  0  0  0  0  0
   43.7930   36.5560   45.0510 H   0  0  0  0  0  0  0  0  0  0  0  0
   45.0200   36.5150   42.8780 H   0  0  0  0  0  0  0  0  0  0  0  0
   47.4550   31.5720   44.6910 Cl  0  0  0  0  0  0  0  0  0  0  0  0
   46.7180   31.7410   46.2780 C   0  0  0  0  0  0  0  0  0  0  0  0
   45.9110   32.8170   46.5740 C   0  0  0  0  0  0  0  0  0  0  0  0
   45.3380   32.9320   47.8310 C   0  0  0  0  0  0  0  0  0  0  0  0
   44.7010   33.7650   48.0910 H   0  0  0  0  0  0  0  0  0  0  0  0
   45.5730   31.9780   48.7820 C   0  0  0  0  0  0  0  0  0  0  0  0
   45.1120   32.0910   49.7640 H   0  0  0  0  0  0  0  0  0  0  0  0
   46.3910   30.8850   48.4860 C   0  0  0  0  0  0  0  0  0  0  0  0
   46.9520   30.7830   47.2350 C   0  0  0  0  0  0  0  0  0  0  0  0
   47.0420   34.6530   41.8800 S   0  0  0  0  0  0  0  0  0  0  0  0
   48.3670   35.0590   42.1590 H   0  0  0  0  0  0  0  0  0  0  0  0
  1  7  1  0  0  0  0
  1  6  1  0  0  0  0
  2  1  2  0  0  0  0
  3  2  1  0  0  0  0
  3  4  2  0  0  0  0
  4  5  1  0  0  0  0
  5  6  2  0  0  0  0
  5 11  1  0  0  0  0
  8  2  1  0  0  0  0
  9 10  1  0  0  0  0
 10 11  2  0  0  0  0
 10 17  1  0  0  0  0
 11 12  1  0  0  0  0
 12 13  1  0  0  0  0
 12 14  2  0  0  0  0
 14 15  1  0  0  0  0
 16 14  1  0  0  0  0
 17 16  2  0  0  0  0
 18 19  1  0  0  0  0
 18  3  1  0  0  0  0
M  END
>  <minimizedAffinity>
-4.8822093

>  <minimizedRMSD>
0.528258562

$$$$
