
 OpenBabel03242510093D

 28 30  0  0  0  0  0  0  0  0999 V2000
   44.4780   32.3530   41.7450 Br  0  0  0  0  0  0  0  0  0  0  0  0
   46.0180   33.3670   41.1820 C   0  0  0  0  0  0  0  0  0  0  0  0
   46.5390   34.3240   42.0030 C   0  0  0  0  0  0  0  0  0  0  0  0
   47.6530   35.0620   41.6020 C   0  0  0  0  0  0  0  0  0  0  0  0
   48.1990   34.8010   40.3780 C   0  0  0  0  0  0  0  0  0  0  0  0
   47.6400   33.8310   39.5920 C   0  0  0  0  0  0  0  0  0  0  0  0
   46.5520   33.0880   39.9460 C   0  0  0  0  0  0  0  0  0  0  0  0
   48.0740   35.8200   42.2390 H   0  0  0  0  0  0  0  0  0  0  0  0
   49.0730   35.3740   40.0550 H   0  0  0  0  0  0  0  0  0  0  0  0
   48.1350   33.6840   38.6310 H   0  0  0  0  0  0  0  0  0  0  0  0
   45.6310   33.9500   45.5270 C   0  0  0  0  0  0  0  0  0  0  0  0
   44.7400   35.0200   45.7600 C   0  0  0  0  0  0  0  0  0  0  0  0
   44.4680   35.8660   44.6690 C   0  0  0  0  0  0  0  0  0  0  0  0
   45.0650   35.6110   43.4800 N   0  0  0  0  0  0  0  0  0  0  0  0
   45.9210   34.5630   43.2930 C   0  0  0  0  0  0  0  0  0  0  0  0
   46.1870   33.7500   44.3310 N   0  0  0  0  0  0  0  0  0  0  0  0
   45.8210   33.3190   46.3750 H   0  0  0  0  0  0  0  0  0  0  0  0
   44.2580   35.2360   46.7000 H   0  0  0  0  0  0  0  0  0  0  0  0
   43.8010   36.7230   44.7220 H   0  0  0  0  0  0  0  0  0  0  0  0
   44.1700   33.8880   38.3700 Cl  0  0  0  0  0  0  0  0  0  0  0  0
   44.8840   32.2830   38.2770 C   0  0  0  0  0  0  0  0  0  0  0  0
   45.9910   32.0620   39.0720 C   0  0  0  0  0  0  0  0  0  0  0  0
   46.5430   30.7880   38.9860 C   0  0  0  0  0  0  0  0  0  0  0  0
   47.4210   30.6160   39.6190 H   0  0  0  0  0  0  0  0  0  0  0  0
   45.9990   29.8300   38.1530 C   0  0  0  0  0  0  0  0  0  0  0  0
   46.5450   28.8810   38.1950 H   0  0  0  0  0  0  0  0  0  0  0  0
   44.9020   30.0820   37.3770 C   0  0  0  0  0  3  0  0  0  0  0  0
   44.3200   31.3460   37.4360 C   0  0  0  0  0  3  0  0  0  0  0  0
  2  1  1  0  0  0  0
  2  3  1  0  0  0  0
  3 15  1  0  0  0  0
  4  3  2  0  0  0  0
  4  8  1  0  0  0  0
  5  4  1  0  0  0  0
  6  7  1  0  0  0  0
  6  5  2  0  0  0  0
  7  2  2  0  0  0  0
  9  5  1  0  0  0  0
 10  6  1  0  0  0  0
 11 12  1  0  0  0  0
 11 17  1  0  0  0  0
 12 18  1  0  0  0  0
 13 19  1  0  0  0  0
 13 12  2  0  0  0  0
 14 13  1  0  0  0  0
 15 14  2  0  0  0  0
 15 16  1  0  0  0  0
 16 11  2  0  0  0  0
 21 20  1  0  0  0  0
 21 22  1  0  0  0  0
 22  7  1  0  0  0  0
 23 22  2  0  0  0  0
 23 24  1  0  0  0  0
 25 26  1  0  0  0  0
 25 23  1  0  0  0  0
 27 28  1  0  0  0  0
 27 25  2  0  0  0  0
 28 21  2  0  0  0  0
M  END
>  <minimizedAffinity>
-4.57521343

>  <minimizedRMSD>
0.971762538

$$$$
