
 OpenBabel03242510093D

 28 29  0  0  0  0  0  0  0  0999 V2000
   44.6790   33.1900   41.1550 Br  0  0  0  0  0 15  0  0  0  0  0  0
   46.4010   34.0400   40.9870 C   0  0  0  0  0  3  0  0  0  0  0  0
   46.9020   34.7730   42.0230 C   0  0  0  0  0  0  0  0  0  0  0  0
   48.1480   35.3910   41.9080 C   0  0  0  0  0  0  0  0  0  0  0  0
   48.8420   35.2410   40.7410 C   0  0  0  0  0  0  0  0  0  0  0  0
   48.2970   34.4970   39.7310 C   0  0  0  0  0  0  0  0  0  0  0  0
   47.0830   33.8770   39.8030 C   0  0  0  0  0  0  0  0  0  0  0  0
   48.5550   35.9710   42.7170 H   0  0  0  0  0  0  0  0  0  0  0  0
   49.8200   35.7220   40.6410 H   0  0  0  0  0  0  0  0  0  0  0  0
   48.9140   34.4260   38.8350 H   0  0  0  0  0  0  0  0  0  0  0  0
   45.5460   34.0850   45.3500 C   0  0  0  0  0  0  0  0  0  0  0  0
   44.6390   35.1450   45.5680 C   0  0  0  0  0  0  0  0  0  0  0  0
   44.5150   36.0940   44.5380 C   0  0  0  0  0  0  0  0  0  0  0  0
   45.2580   35.9410   43.4160 N   0  0  0  0  0  0  0  0  0  0  0  0
   46.1250   34.9000   43.2400 C   0  0  0  0  0  0  0  0  0  0  0  0
   46.2510   33.9880   44.2210 N   0  0  0  0  0  0  0  0  0  0  0  0
   45.6220   33.3740   46.1510 H   0  0  0  0  0  0  0  0  0  0  0  0
   44.0420   35.2800   46.4560 H   0  0  0  0  0  0  0  0  0  0  0  0
   43.8520   36.9550   44.5870 H   0  0  0  0  0  0  0  0  0  0  0  0
   48.0430   34.6150   37.0970 Cl  0  0  0  0  0  0  0  0  0  0  0  0
   46.8930   33.3150   37.3820 C   0  0  0  0  0  0  0  0  0  0  0  0
   46.5430   33.0910   38.6980 C   0  0  0  0  0  0  0  0  0  0  0  0
   45.6320   32.0590   38.9060 C   0  0  0  0  0  0  0  0  0  0  0  0
   45.3550   31.8840   39.9520 H   0  0  0  0  0  0  0  0  0  0  0  0
   45.1320   31.3280   37.8500 C   0  0  0  0  0  0  0  0  0  0  0  0
   44.4280   30.5520   38.1730 H   0  0  0  0  0  0  0  0  0  0  0  0
   45.5000   31.5750   36.5550 C   0  0  0  0  0  3  0  0  0  0  0  0
   46.4100   32.6000   36.3060 C   0  0  0  0  0  3  0  0  0  0  0  0
  2  3  1  0  0  0  0
  3 15  1  0  0  0  0
  4  3  2  0  0  0  0
  4  8  1  0  0  0  0
  5  4  1  0  0  0  0
  6  7  1  0  0  0  0
  6  5  2  0  0  0  0
  7  2  2  0  0  0  0
  9  5  1  0  0  0  0
 10  6  1  0  0  0  0
 11 12  1  0  0  0  0
 11 17  1  0  0  0  0
 12 18  1  0  0  0  0
 13 19  1  0  0  0  0
 13 12  2  0  0  0  0
 14 13  1  0  0  0  0
 15 14  2  0  0  0  0
 15 16  1  0  0  0  0
 16 11  2  0  0  0  0
 20 21  1  0  0  0  0
 21 22  1  0  0  0  0
 22 23  2  0  0  0  0
 22  7  1  0  0  0  0
 23 24  1  0  0  0  0
 25 26  1  0  0  0  0
 25 23  1  0  0  0  0
 27 25  2  0  0  0  0
 28 27  1  0  0  0  0
 28 21  2  0  0  0  0
M  END
>  <minimizedAffinity>
-5.9992609

>  <minimizedRMSD>
0.205592707

$$$$
