
 OpenBabel03242510093D

 28 29  0  0  0  0  0  0  0  0999 V2000
   44.6800   33.1890   41.1560 Br  0  0  0  0  0 15  0  0  0  0  0  0
   46.4020   34.0400   40.9870 C   0  0  0  0  0  3  0  0  0  0  0  0
   46.9020   34.7730   42.0230 C   0  0  0  0  0  0  0  0  0  0  0  0
   48.1480   35.3920   41.9080 C   0  0  0  0  0  0  0  0  0  0  0  0
   48.8420   35.2420   40.7410 C   0  0  0  0  0  0  0  0  0  0  0  0
   48.2970   34.4980   39.7310 C   0  0  0  0  0  0  0  0  0  0  0  0
   47.0830   33.8770   39.8040 C   0  0  0  0  0  0  0  0  0  0  0  0
   48.5540   35.9730   42.7170 H   0  0  0  0  0  0  0  0  0  0  0  0
   49.8190   35.7240   40.6410 H   0  0  0  0  0  0  0  0  0  0  0  0
   48.9140   34.4280   38.8350 H   0  0  0  0  0  0  0  0  0  0  0  0
   45.5470   34.0840   45.3500 C   0  0  0  0  0  0  0  0  0  0  0  0
   44.6390   35.1440   45.5690 C   0  0  0  0  0  0  0  0  0  0  0  0
   44.5150   36.0930   44.5390 C   0  0  0  0  0  0  0  0  0  0  0  0
   45.2580   35.9400   43.4170 N   0  0  0  0  0  0  0  0  0  0  0  0
   46.1250   34.9000   43.2410 C   0  0  0  0  0  0  0  0  0  0  0  0
   46.2510   33.9880   44.2210 N   0  0  0  0  0  0  0  0  0  0  0  0
   45.6230   33.3730   46.1510 H   0  0  0  0  0  0  0  0  0  0  0  0
   44.0420   35.2790   46.4560 H   0  0  0  0  0  0  0  0  0  0  0  0
   43.8510   36.9540   44.5880 H   0  0  0  0  0  0  0  0  0  0  0  0
   48.0430   34.6150   37.0970 Cl  0  0  0  0  0  0  0  0  0  0  0  0
   46.8940   33.3150   37.3830 C   0  0  0  0  0  0  0  0  0  0  0  0
   46.5440   33.0910   38.6980 C   0  0  0  0  0  0  0  0  0  0  0  0
   45.6330   32.0590   38.9070 C   0  0  0  0  0  0  0  0  0  0  0  0
   45.3560   31.8830   39.9530 H   0  0  0  0  0  0  0  0  0  0  0  0
   45.1330   31.3270   37.8490 C   0  0  0  0  0  0  0  0  0  0  0  0
   44.4300   30.5510   38.1730 H   0  0  0  0  0  0  0  0  0  0  0  0
   45.5020   31.5740   36.5560 C   0  0  0  0  0  3  0  0  0  0  0  0
   46.4110   32.6000   36.3070 C   0  0  0  0  0  3  0  0  0  0  0  0
  2  3  1  0  0  0  0
  3 15  1  0  0  0  0
  4  3  2  0  0  0  0
  4  8  1  0  0  0  0
  5  4  1  0  0  0  0
  6  7  1  0  0  0  0
  6  5  2  0  0  0  0
  7  2  2  0  0  0  0
  9  5  1  0  0  0  0
 10  6  1  0  0  0  0
 11 12  1  0  0  0  0
 11 17  1  0  0  0  0
 12 18  1  0  0  0  0
 13 19  1  0  0  0  0
 13 12  2  0  0  0  0
 14 13  1  0  0  0  0
 15 14  2  0  0  0  0
 15 16  1  0  0  0  0
 16 11  2  0  0  0  0
 20 21  1  0  0  0  0
 21 22  1  0  0  0  0
 22 23  2  0  0  0  0
 22  7  1  0  0  0  0
 23 24  1  0  0  0  0
 25 26  1  0  0  0  0
 25 23  1  0  0  0  0
 27 25  2  0  0  0  0
 28 27  1  0  0  0  0
 28 21  2  0  0  0  0
M  END
>  <minimizedAffinity>
-5.9998374

>  <minimizedRMSD>
0.348962486

$$$$
