
 OpenBabel03242510093D

 28 30  0  0  0  0  0  0  0  0999 V2000
   44.8120   32.9860   41.1610 Br  0  0  0  0  0  0  0  0  0  0  0  0
   46.4580   33.9620   40.9270 C   0  0  0  0  0  0  0  0  0  0  0  0
   46.9210   34.7650   41.9280 C   0  0  0  0  0  0  0  0  0  0  0  0
   48.1110   35.4750   41.7650 C   0  0  0  0  0  0  0  0  0  0  0  0
   48.7910   35.3410   40.5880 C   0  0  0  0  0  0  0  0  0  0  0  0
   48.2860   34.5240   39.6150 C   0  0  0  0  0  0  0  0  0  0  0  0
   47.1260   33.8130   39.7340 C   0  0  0  0  0  0  0  0  0  0  0  0
   48.4870   36.1120   42.5460 H   0  0  0  0  0  0  0  0  0  0  0  0
   49.7250   35.8940   40.4510 H   0  0  0  0  0  0  0  0  0  0  0  0
   48.8880   34.4720   38.7070 H   0  0  0  0  0  0  0  0  0  0  0  0
   45.6430   34.0430   45.2790 C   0  0  0  0  0  0  0  0  0  0  0  0
   44.7080   35.0760   45.5110 C   0  0  0  0  0  0  0  0  0  0  0  0
   44.5370   36.0190   44.4810 C   0  0  0  0  0  0  0  0  0  0  0  0
   45.2660   35.8860   43.3470 N   0  0  0  0  0  0  0  0  0  0  0  0
   46.1610   34.8710   43.1580 C   0  0  0  0  0  0  0  0  0  0  0  0
   46.3310   33.9660   44.1380 N   0  0  0  0  0  0  0  0  0  0  0  0
   45.7540   33.3370   46.0790 H   0  0  0  0  0  0  0  0  0  0  0  0
   44.1220   35.1950   46.4080 H   0  0  0  0  0  0  0  0  0  0  0  0
   43.8500   36.8590   44.5400 H   0  0  0  0  0  0  0  0  0  0  0  0
   47.9870   30.9780   39.8450 Cl  0  0  0  0  0  0  0  0  0  0  0  0
   46.9400   31.6110   38.5810 C   0  0  0  0  0  0  0  0  0  0  0  0
   46.6280   32.9520   38.6660 C   0  0  0  0  0  0  0  0  0  0  0  0
   45.7980   33.4370   37.6580 C   0  0  0  0  0  0  0  0  0  0  0  0
   45.5520   34.5020   37.7290 H   0  0  0  0  0  0  0  0  0  0  0  0
   45.3370   32.6090   36.6570 C   0  0  0  0  0  0  0  0  0  0  0  0
   44.6970   33.1360   35.9390 H   0  0  0  0  0  0  0  0  0  0  0  0
   45.6660   31.2820   36.6010 C   0  0  0  0  0  3  0  0  0  0  0  0
   46.4930   30.7580   37.5920 C   0  0  0  0  0  3  0  0  0  0  0  0
  2  1  1  0  0  0  0
  2  3  1  0  0  0  0
  3 15  1  0  0  0  0
  4  3  2  0  0  0  0
  4  8  1  0  0  0  0
  5  4  1  0  0  0  0
  6  7  1  0  0  0  0
  6  5  2  0  0  0  0
  7  2  2  0  0  0  0
  9  5  1  0  0  0  0
 10  6  1  0  0  0  0
 11 12  1  0  0  0  0
 11 17  1  0  0  0  0
 12 18  1  0  0  0  0
 13 19  1  0  0  0  0
 13 12  2  0  0  0  0
 14 13  1  0  0  0  0
 15 14  2  0  0  0  0
 15 16  1  0  0  0  0
 16 11  2  0  0  0  0
 21 22  1  0  0  0  0
 21 20  1  0  0  0  0
 22  7  1  0  0  0  0
 23 24  1  0  0  0  0
 23 22  2  0  0  0  0
 25 23  1  0  0  0  0
 26 25  1  0  0  0  0
 27 25  2  0  0  0  0
 27 28  1  0  0  0  0
 28 21  2  0  0  0  0
M  END
>  <minimizedAffinity>
-5.47193956

>  <minimizedRMSD>
0.996814251

$$$$
