
 OpenBabel03242510093D

 28 30  0  0  0  0  0  0  0  0999 V2000
   44.4820   32.3510   41.7450 Br  0  0  0  0  0  0  0  0  0  0  0  0
   46.0210   33.3670   41.1820 C   0  0  0  0  0  0  0  0  0  0  0  0
   46.5410   34.3250   42.0030 C   0  0  0  0  0  0  0  0  0  0  0  0
   47.6540   35.0640   41.6020 C   0  0  0  0  0  0  0  0  0  0  0  0
   48.2010   34.8030   40.3780 C   0  0  0  0  0  0  0  0  0  0  0  0
   47.6430   33.8330   39.5920 C   0  0  0  0  0  0  0  0  0  0  0  0
   46.5550   33.0880   39.9460 C   0  0  0  0  0  0  0  0  0  0  0  0
   48.0740   35.8220   42.2390 H   0  0  0  0  0  0  0  0  0  0  0  0
   49.0740   35.3780   40.0550 H   0  0  0  0  0  0  0  0  0  0  0  0
   48.1380   33.6860   38.6310 H   0  0  0  0  0  0  0  0  0  0  0  0
   45.6320   33.9490   45.5270 C   0  0  0  0  0  0  0  0  0  0  0  0
   44.7400   35.0190   45.7590 C   0  0  0  0  0  0  0  0  0  0  0  0
   44.4680   35.8640   44.6690 C   0  0  0  0  0  0  0  0  0  0  0  0
   45.0650   35.6100   43.4800 N   0  0  0  0  0  0  0  0  0  0  0  0
   45.9220   34.5630   43.2930 C   0  0  0  0  0  0  0  0  0  0  0  0
   46.1890   33.7490   44.3300 N   0  0  0  0  0  0  0  0  0  0  0  0
   45.8230   33.3180   46.3740 H   0  0  0  0  0  0  0  0  0  0  0  0
   44.2580   35.2340   46.6990 H   0  0  0  0  0  0  0  0  0  0  0  0
   43.8000   36.7210   44.7210 H   0  0  0  0  0  0  0  0  0  0  0  0
   44.1730   33.8860   38.3700 Cl  0  0  0  0  0  0  0  0  0  0  0  0
   44.8890   32.2820   38.2770 C   0  0  0  0  0  0  0  0  0  0  0  0
   45.9960   32.0620   39.0720 C   0  0  0  0  0  0  0  0  0  0  0  0
   46.5500   30.7880   38.9860 C   0  0  0  0  0  0  0  0  0  0  0  0
   47.4280   30.6170   39.6190 H   0  0  0  0  0  0  0  0  0  0  0  0
   46.0070   29.8300   38.1540 C   0  0  0  0  0  0  0  0  0  0  0  0
   46.5540   28.8810   38.1960 H   0  0  0  0  0  0  0  0  0  0  0  0
   44.9090   30.0800   37.3770 C   0  0  0  0  0  3  0  0  0  0  0  0
   44.3250   31.3430   37.4350 C   0  0  0  0  0  3  0  0  0  0  0  0
  2  1  1  0  0  0  0
  2  3  1  0  0  0  0
  3 15  1  0  0  0  0
  4  3  2  0  0  0  0
  4  8  1  0  0  0  0
  5  4  1  0  0  0  0
  6  7  1  0  0  0  0
  6  5  2  0  0  0  0
  7  2  2  0  0  0  0
  9  5  1  0  0  0  0
 10  6  1  0  0  0  0
 11 12  1  0  0  0  0
 11 17  1  0  0  0  0
 12 18  1  0  0  0  0
 13 19  1  0  0  0  0
 13 12  2  0  0  0  0
 14 13  1  0  0  0  0
 15 14  2  0  0  0  0
 15 16  1  0  0  0  0
 16 11  2  0  0  0  0
 21 20  1  0  0  0  0
 21 22  1  0  0  0  0
 22  7  1  0  0  0  0
 23 22  2  0  0  0  0
 23 24  1  0  0  0  0
 25 26  1  0  0  0  0
 25 23  1  0  0  0  0
 27 28  1  0  0  0  0
 27 25  2  0  0  0  0
 28 21  2  0  0  0  0
M  END
>  <minimizedAffinity>
-4.57911825

>  <minimizedRMSD>
0.944307089

$$$$
