
 OpenBabel03242510093D

 28 30  0  0  0  0  0  0  0  0999 V2000
   45.4940   33.4700   40.5090 Br  0  0  0  0  0  0  0  0  0  0  0  0
   47.3180   33.4390   41.1330 C   0  0  0  0  0  0  0  0  0  0  0  0
   47.6300   33.9790   42.3470 C   0  0  0  0  0  0  0  0  0  0  0  0
   48.9480   33.9600   42.8050 C   0  0  0  0  0  0  0  0  0  0  0  0
   49.9040   33.3920   42.0110 C   0  0  0  0  0  0  0  0  0  0  0  0
   49.5400   32.8650   40.8030 C   0  0  0  0  0  0  0  0  0  0  0  0
   48.2640   32.8630   40.3190 C   0  0  0  0  0  0  0  0  0  0  0  0
   49.2080   34.3820   43.7590 H   0  0  0  0  0  0  0  0  0  0  0  0
   50.9400   33.3730   42.3620 H   0  0  0  0  0  0  0  0  0  0  0  0
   50.3610   32.4300   40.2310 H   0  0  0  0  0  0  0  0  0  0  0  0
   45.1860   34.4770   45.0230 C   0  0  0  0  0  0  0  0  0  0  0  0
   44.5660   35.7010   44.6870 C   0  0  0  0  0  0  0  0  0  0  0  0
   45.0180   36.3390   43.5180 C   0  0  0  0  0  0  0  0  0  0  0  0
   46.0030   35.7560   42.7950 N   0  0  0  0  0  0  0  0  0  0  0  0
   46.5780   34.5700   43.1510 C   0  0  0  0  0  0  0  0  0  0  0  0
   46.1530   33.9520   44.2670 N   0  0  0  0  0  0  0  0  0  0  0  0
   44.8240   34.0100   45.9190 H   0  0  0  0  0  0  0  0  0  0  0  0
   43.7820   36.1770   45.2540 H   0  0  0  0  0  0  0  0  0  0  0  0
   44.6210   37.2850   43.1560 H   0  0  0  0  0  0  0  0  0  0  0  0
   48.4720   34.6900   37.9930 Cl  0  0  0  0  0  0  0  0  0  0  0  0
   47.9720   33.0100   37.8480 C   0  0  0  0  0  0  0  0  0  0  0  0
   47.9240   32.2860   39.0210 C   0  0  0  0  0  0  0  0  0  0  0  0
   47.5260   30.9580   38.8890 C   0  0  0  0  0  0  0  0  0  0  0  0
   47.4890   30.3870   39.8230 H   0  0  0  0  0  0  0  0  0  0  0  0
   47.2090   30.4300   37.6540 C   0  0  0  0  0  0  0  0  0  0  0  0
   46.9160   29.3760   37.7130 H   0  0  0  0  0  0  0  0  0  0  0  0
   47.2690   31.1750   36.5080 C   0  0  0  0  0  3  0  0  0  0  0  0
   47.6610   32.5080   36.6000 C   0  0  0  0  0  3  0  0  0  0  0  0
  1  2  1  0  0  0  0
  2  3  1  0  0  0  0
  3  4  2  0  0  0  0
  3 15  1  0  0  0  0
  4  8  1  0  0  0  0
  5  9  1  0  0  0  0
  5  4  1  0  0  0  0
  6  5  2  0  0  0  0
  7  6  1  0  0  0  0
  7  2  2  0  0  0  0
 10  6  1  0  0  0  0
 11 17  1  0  0  0  0
 12 11  1  0  0  0  0
 12 18  1  0  0  0  0
 13 12  2  0  0  0  0
 14 15  2  0  0  0  0
 14 13  1  0  0  0  0
 15 16  1  0  0  0  0
 16 11  2  0  0  0  0
 19 13  1  0  0  0  0
 21 20  1  0  0  0  0
 21 22  1  0  0  0  0
 22  7  1  0  0  0  0
 23 22  2  0  0  0  0
 23 24  1  0  0  0  0
 25 26  1  0  0  0  0
 25 23  1  0  0  0  0
 27 28  1  0  0  0  0
 27 25  2  0  0  0  0
 28 21  2  0  0  0  0
M  END
>  <minimizedAffinity>
-4.91970015

>  <minimizedRMSD>
1.67012143

$$$$
