
 OpenBabel03242519403D

 29 30  0  0  0  0  0  0  0  0999 V2000
   47.9470   32.8250   41.7730 O   0  0  0  0  0  0  0  0  0  0  0  0
   47.0620   34.0140   41.3290 P   0  0  2  0  0  0  0  0  0  0  0  0
   45.4890   33.8080   41.9790 O   0  0  0  0  0  0  0  0  0  0  0  0
   44.3980   35.9510   44.7170 C   0  0  0  0  0  0  0  0  0  0  0  0
   44.6490   35.4850   43.4040 C   0  0  0  0  0  0  0  0  0  0  0  0
   45.2550   34.2310   43.2710 C   0  0  0  0  0  0  0  0  0  0  0  0
   45.5620   33.5440   44.3860 N   0  0  0  0  0  0  0  0  0  0  0  0
   45.3100   34.0170   45.6280 C   0  0  0  0  0  0  0  0  0  0  0  0
   44.7330   35.2100   45.7980 N   0  0  0  0  0  0  0  0  0  0  0  0
   43.9240   36.9320   44.8140 H   0  0  0  0  0  0  0  0  0  0  0  0
   44.3640   36.1100   42.5660 H   0  0  0  0  0  0  0  0  0  0  0  0
   45.5720   33.4350   46.5060 H   0  0  0  0  0  0  0  0  0  0  0  0
   46.9640   34.0460   39.6750 O   0  0  0  0  0  0  0  0  0  0  0  0
   46.7510   33.0180   38.8010 C   0  0  0  0  0  0  0  0  0  0  0  0
   45.8600   32.0630   39.1430 O   0  0  0  0  0  0  0  0  0  0  0  0
   48.4630   34.6620   37.0790 Cl  0  0  0  0  0  0  0  0  0  0  0  0
   47.9480   33.0570   36.5900 C   0  0  0  0  0  0  0  0  0  0  0  0
   47.1010   32.4070   37.4720 C   0  0  0  0  0  0  0  0  0  0  0  0
   46.6810   31.1620   37.1200 C   0  0  0  0  0  0  0  0  0  0  0  0
   46.0180   30.6040   37.7620 H   0  0  0  0  0  0  0  0  0  0  0  0
   47.1070   30.6130   35.9320 C   0  0  0  0  0  0  0  0  0  0  0  0
   46.7570   29.6100   35.6710 H   0  0  0  0  0  0  0  0  0  0  0  0
   47.9500   31.3260   35.1150 C   0  0  0  0  0  0  0  0  0  0  0  0
   48.4230   32.5880   35.3900 C   0  0  0  0  0  0  0  0  0  0  0  0
   47.7320   35.3800   41.9950 O   0  0  0  0  0  0  0  0  0  0  0  0
   48.9680   35.6910   41.4560 C   0  0  0  0  0  0  0  0  0  0  0  0
   49.3960   36.9640   41.7990 F   0  0  0  0  0  0  0  0  0  0  0  0
   49.8780   34.7310   41.7660 F   0  0  0  0  0  0  0  0  0  0  0  0
   48.7950   35.6880   40.0700 F   0  0  0  0  0  0  0  0  0  0  0  0
  2  1  2  1  0  0  0
  2  3  1  0  0  0  0
  2 25  1  0  0  0  0
  3  6  1  0  0  0  0
  4 10  1  0  0  0  0
  4  9  1  0  0  0  0
  5  4  2  0  0  0  0
  6  5  1  0  0  0  0
  6  7  2  0  0  0  0
  7  8  1  0  0  0  0
  8  9  2  0  0  0  0
  8 12  1  0  0  0  0
 11  5  1  0  0  0  0
 13  2  1  0  0  0  0
 14 15  2  0  0  0  0
 14 13  1  0  0  0  0
 17 16  1  0  0  0  0
 17 18  1  0  0  0  0
 18 14  1  0  0  0  0
 19 18  2  0  0  0  0
 19 20  1  0  0  0  0
 21 19  1  0  0  0  0
 22 21  1  0  0  0  0
 23 24  1  0  0  0  0
 23 21  2  0  0  0  0
 24 17  2  0  0  0  0
 26 28  1  0  0  0  0
 26 27  1  0  0  0  0
 26 25  1  0  0  0  0
 29 26  1  0  0  0  0
M  END
>  <minimizedAffinity>
-5.55312538

>  <minimizedRMSD>
2.24248815

$$$$
