
 OpenBabel03252509193D

 43 47  0  0  1  0  0  0  0  0999 V2000
   50.7780   28.3870   45.9870 C   0  0  1  0  0  0  0  0  0  0  0  0
   52.2180   28.6870   45.6890 C   0  0  0  0  0  0  0  0  0  0  0  0
   52.9080   29.5090   46.7560 C   0  0  0  0  0  0  0  0  0  0  0  0
   52.6030   29.0320   48.1540 C   0  0  0  0  0  0  0  0  0  0  0  0
   51.1480   28.7390   48.3450 C   0  0  0  0  0  0  0  0  0  0  0  0
   50.3240   29.2920   47.1460 C   0  0  2  0  0  0  0  0  0  0  0  0
   50.6950   27.3610   46.3390 H   0  0  0  0  0  0  0  0  0  0  0  0
   52.3620   29.2330   44.7310 H   0  0  0  0  0  0  0  0  0  0  0  0
   52.7840   27.7380   45.5840 H   0  0  0  0  0  0  0  0  0  0  0  0
   53.9840   29.3380   46.6110 H   0  0  0  0  0  0  0  0  0  0  0  0
   52.6440   30.5840   46.6510 H   0  0  0  0  0  0  0  0  0  0  0  0
   52.8890   29.8810   48.8330 H   0  0  0  0  0  0  0  0  0  0  0  0
   53.2740   28.2020   48.4530 H   0  0  0  0  0  0  0  0  0  0  0  0
   51.0270   27.6420   48.3310 H   0  0  0  0  0  0  0  0  0  0  0  0
   50.7150   29.2410   49.2190 H   0  0  0  0  0  0  0  0  0  0  0  0
   50.6910   30.3320   46.9620 H   0  0  0  0  0  0  0  0  0  0  0  0
   48.7580   29.4760   42.5760 C   0  0  0  0  0  0  0  0  0  0  0  0
   48.2780   28.3030   43.1580 C   0  0  0  0  0  0  0  0  0  0  0  0
   48.8590   27.8590   44.2620 C   0  0  0  0  0  0  0  0  0  0  0  0
   49.9420   28.5610   44.8440 C   0  0  0  0  0  0  0  0  0  0  0  0
   50.1380   29.9700   43.7030 S   0  0  0  0  0  0  0  0  0  0  0  0
   47.4470   27.7750   42.7060 H   0  0  0  0  0  0  0  0  0  0  0  0
   48.6140   26.9740   44.8290 H   0  0  0  0  0  0  0  0  0  0  0  0
   46.8840   30.3120   39.4710 C   0  0  0  0  0  0  0  0  0  0  0  0
   47.4760   31.5350   39.1470 C   0  0  0  0  0  0  0  0  0  0  0  0
   48.4840   32.0220   39.9950 C   0  0  0  0  0  0  0  0  0  0  0  0
   48.8330   31.2760   41.0890 N   0  0  0  0  0  0  0  0  0  0  0  0
   48.2300   30.1060   41.3550 C   0  0  0  0  0  0  0  0  0  0  0  0
   47.2520   29.6200   40.5440 N   0  0  0  0  0  0  0  0  0  0  0  0
   46.1000   29.8830   38.8590 H   0  0  0  0  0  0  0  0  0  0  0  0
   47.1770   32.0880   38.2840 H   0  0  0  0  0  0  0  0  0  0  0  0
   48.9860   32.9580   39.8070 H   0  0  0  0  0  0  0  0  0  0  0  0
   48.9210   29.1940   47.4120 C   0  0  1  0  0  3  0  0  0  0  0  0
   48.4550   28.2260   47.9790 O   0  0  0  0  0  0  0  0  0  0  0  0
   47.9480   32.0980   48.4370 Cl  0  0  0  0  0  0  0  0  0  0  0  0
   47.0070   30.6980   47.8670 C   0  0  1  0  0  3  0  0  0  0  0  0
   47.5570   29.4860   47.4800 C   0  0  1  0  0  0  0  0  0  0  0  0
   46.5990   28.5790   47.0970 C   0  0  0  0  0  0  0  0  0  0  0  0
   46.8030   27.5970   46.7250 H   0  0  0  0  0  0  0  0  0  0  0  0
   45.2310   28.6650   47.0330 C   0  0  0  0  0  0  0  0  0  0  0  0
   44.4640   27.9950   46.7470 H   0  0  0  0  0  0  0  0  0  0  0  0
   44.8190   29.9000   47.4370 C   0  0  0  0  0  3  0  0  0  0  0  0
   45.6060   30.9320   47.8520 C   0  0  0  0  0  3  0  0  0  0  0  0
  1  7  1  1  0  0  0
  1  6  1  0  0  0  0
  2  1  1  0  0  0  0
  2  3  1  0  0  0  0
  3  4  1  0  0  0  0
  4  5  1  0  0  0  0
  4 13  1  0  0  0  0
  4 12  1  0  0  0  0
  5 15  1  0  0  0  0
  6 16  1  6  0  0  0
  6 33  1  0  0  0  0
  6  5  1  0  0  0  0
  8  2  1  0  0  0  0
  9  2  1  0  0  0  0
 10  3  1  0  0  0  0
 11  3  1  0  0  0  0
 14  5  1  0  0  0  0
 17 18  2  0  0  0  0
 17 21  1  0  0  0  0
 18 19  1  0  0  0  0
 19 23  1  0  0  0  0
 19 20  2  0  0  0  0
 20  1  1  0  0  0  0
 21 20  1  0  0  0  0
 22 18  1  0  0  0  0
 24 29  1  0  0  0  0
 25 24  2  0  0  0  0
 25 26  1  0  0  0  0
 26 27  2  0  0  0  0
 27 28  1  0  0  0  0
 28 17  1  0  0  0  0
 29 28  2  0  0  0  0
 30 24  1  0  0  0  0
 31 25  1  0  0  0  0
 32 26  1  0  0  0  0
 33 37  1  0  0  0  0
 33 34  1  1  0  0  0
 36 35  1  1  0  0  0
 37 38  1  6  0  0  0
 37 36  1  0  0  0  0
 37 34  1  0  0  0  0
 39 38  1  0  0  0  0
 40 38  2  0  0  0  0
 40 42  1  0  0  0  0
 41 40  1  0  0  0  0
 42 43  2  0  0  0  0
 43 36  1  0  0  0  0
M  END
>  <minimizedAffinity>
-3.15354872

>  <minimizedRMSD>
5.50848389

$$$$
