
 OpenBabel03252503583D

 34 37  0  0  0  0  0  0  0  0999 V2000
   46.5350   35.0830   42.8260 C   0  0  0  0  0  0  0  0  0  0  0  0
   45.6460   36.1630   42.8970 C   0  0  0  0  0  0  0  0  0  0  0  0
   44.7510   36.1870   43.9490 C   0  0  0  0  0  0  0  0  0  0  0  0
   44.7780   35.1780   44.8500 N   0  0  0  0  0  0  0  0  0  0  0  0
   45.6590   34.1430   44.7470 C   0  0  0  0  0  0  0  0  0  0  0  0
   46.5410   34.0980   43.7300 N   0  0  0  0  0  0  0  0  0  0  0  0
   45.6700   36.9500   42.1430 H   0  0  0  0  0  0  0  0  0  0  0  0
   44.0570   37.0170   44.0180 H   0  0  0  0  0  0  0  0  0  0  0  0
   46.0190   31.7960   45.2940 C   0  0  0  0  0  0  0  0  0  0  0  0
   45.6700   33.0550   45.7380 C   0  0  0  0  0  0  0  0  0  0  0  0
   45.3480   33.2620   47.0670 C   0  0  0  0  0  0  0  0  0  0  0  0
   45.3850   32.1780   47.9300 C   0  0  0  0  0  0  0  0  0  0  0  0
   45.1310   32.0590   49.2470 N   0  0  0  0  0  0  0  0  0  0  0  0
   45.3100   30.7780   49.6340 C   0  0  0  0  0  0  0  0  0  0  0  0
   45.6900   30.0300   48.5500 C   0  0  0  0  0  0  0  0  0  0  0  0
   45.7350   30.9110   47.4870 C   0  0  0  0  0  0  0  0  0  0  0  0
   46.0540   30.7240   46.1540 C   0  0  0  0  0  0  0  0  0  0  0  0
   46.2740   31.6330   44.2400 H   0  0  0  0  0  0  0  0  0  0  0  0
   45.0760   34.2520   47.4060 H   0  0  0  0  0  0  0  0  0  0  0  0
   44.8370   32.8190   49.9140 H   0  0  0  0  0  0  0  0  0  0  0  0
   45.1800   30.3700   50.6380 H   0  0  0  0  0  0  0  0  0  0  0  0
   45.9220   28.9620   48.4720 H   0  0  0  0  0  0  0  0  0  0  0  0
   46.3320   29.7690   45.7550 H   0  0  0  0  0  0  0  0  0  0  0  0
   47.4560   35.0990   41.7030 C   0  0  0  0  0  0  0  0  0  0  0  0
   48.5600   35.7390   41.7030 O   0  0  0  0  0  0  0  0  0  0  0  0
   44.9050   33.6760   41.4000 Cl  0  0  0  0  0  0  0  0  0  0  0  0
   46.1310   33.7040   40.1510 C   0  0  0  0  0  0  0  0  0  0  0  0
   47.2830   34.4110   40.4270 C   0  0  0  0  0  0  0  0  0  0  0  0
   48.2500   34.4330   39.4430 C   0  0  0  0  0  0  0  0  0  0  0  0
   49.1800   34.9790   39.6130 H   0  0  0  0  0  0  0  0  0  0  0  0
   48.0570   33.7730   38.2470 C   0  0  0  0  0  0  0  0  0  0  0  0
   48.8340   33.8080   37.4930 H   0  0  0  0  0  0  0  0  0  0  0  0
   46.8830   33.0820   38.0300 C   0  0  0  0  0  3  0  0  0  0  0  0
   45.8620   33.0200   38.9860 C   0  0  0  0  0  3  0  0  0  0  0  0
  1  2  2  0  0  0  0
  1  6  1  0  0  0  0
  2  3  1  0  0  0  0
  3  8  1  0  0  0  0
  3  4  2  0  0  0  0
  5  4  1  0  0  0  0
  5 10  1  0  0  0  0
  6  5  2  0  0  0  0
  7  2  1  0  0  0  0
  9 10  2  0  0  0  0
  9 17  1  0  0  0  0
 10 11  1  0  0  0  0
 11 19  1  0  0  0  0
 11 12  2  0  0  0  0
 12 13  1  0  0  0  0
 13 14  1  0  0  0  0
 13 20  1  0  0  0  0
 14 21  1  0  0  0  0
 15 14  2  0  0  0  0
 16 12  1  0  0  0  0
 16 15  1  0  0  0  0
 17 16  2  0  0  0  0
 18  9  1  0  0  0  0
 22 15  1  0  0  0  0
 23 17  1  0  0  0  0
 24  1  1  0  0  0  0
 25 24  2  0  0  0  0
 27 28  1  0  0  0  0
 27 26  1  0  0  0  0
 28 24  1  0  0  0  0
 29 30  1  0  0  0  0
 29 28  2  0  0  0  0
 31 29  1  0  0  0  0
 32 31  1  0  0  0  0
 33 31  2  0  0  0  0
 33 34  1  0  0  0  0
 34 27  2  0  0  0  0
M  END
>  <minimizedAffinity>
-6.54319

>  <minimizedRMSD>
0.902719676

$$$$
