
 OpenBabel03252509193D

 43 47  0  0  1  0  0  0  0  0999 V2000
   49.9060   29.0670   48.3750 C   0  0  1  0  0  0  0  0  0  0  0  0
   51.3240   29.3810   48.7530 C   0  0  0  0  0  0  0  0  0  0  0  0
   51.5050   30.7490   49.3770 C   0  0  0  0  0  0  0  0  0  0  0  0
   50.4540   31.0660   50.4110 C   0  0  0  0  0  0  0  0  0  0  0  0
   49.0790   30.6970   49.9490 C   0  0  0  0  0  0  0  0  0  0  0  0
   49.0890   30.3710   48.4270 C   0  0  2  0  0  0  0  0  0  0  0  0
   49.4800   28.3990   49.1190 H   0  0  0  0  0  0  0  0  0  0  0  0
   52.0280   29.3350   47.8930 H   0  0  0  0  0  0  0  0  0  0  0  0
   51.6910   28.6330   49.4850 H   0  0  0  0  0  0  0  0  0  0  0  0
   52.4560   30.7000   49.9240 H   0  0  0  0  0  0  0  0  0  0  0  0
   51.5210   31.5360   48.5920 H   0  0  0  0  0  0  0  0  0  0  0  0
   50.4960   32.1810   50.5540 H   0  0  0  0  0  0  0  0  0  0  0  0
   50.7240   30.6510   51.4020 H   0  0  0  0  0  0  0  0  0  0  0  0
   48.7950   29.7660   50.4690 H   0  0  0  0  0  0  0  0  0  0  0  0
   48.3550   31.5160   50.0400 H   0  0  0  0  0  0  0  0  0  0  0  0
   49.6730   31.1860   47.9330 H   0  0  0  0  0  0  0  0  0  0  0  0
   50.0560   27.8470   44.4510 C   0  0  0  0  0  0  0  0  0  0  0  0
   49.2890   27.0140   45.2650 C   0  0  0  0  0  0  0  0  0  0  0  0
   49.1750   27.3140   46.5510 C   0  0  0  0  0  0  0  0  0  0  0  0
   49.8130   28.4570   47.0880 C   0  0  0  0  0  0  0  0  0  0  0  0
   50.6480   29.1500   45.6210 S   0  0  0  0  0  0  0  0  0  0  0  0
   48.8020   26.1440   44.8430 H   0  0  0  0  0  0  0  0  0  0  0  0
   48.6270   26.7770   47.3090 H   0  0  0  0  0  0  0  0  0  0  0  0
   50.1210   26.6180   40.9390 C   0  0  0  0  0  0  0  0  0  0  0  0
   50.8960   27.6150   40.3430 C   0  0  0  0  0  0  0  0  0  0  0  0
   51.3630   28.6600   41.1570 C   0  0  0  0  0  0  0  0  0  0  0  0
   51.0350   28.6460   42.4860 N   0  0  0  0  0  0  0  0  0  0  0  0
   50.2860   27.6630   43.0090 C   0  0  0  0  0  0  0  0  0  0  0  0
   49.8260   26.6430   42.2340 N   0  0  0  0  0  0  0  0  0  0  0  0
   49.7300   25.7860   40.3650 H   0  0  0  0  0  0  0  0  0  0  0  0
   51.1300   27.5910   39.3010 H   0  0  0  0  0  0  0  0  0  0  0  0
   51.9670   29.4630   40.7660 H   0  0  0  0  0  0  0  0  0  0  0  0
   47.7550   30.2110   47.9370 C   0  0  1  0  0  3  0  0  0  0  0  0
   46.8130   30.7390   48.4940 O   0  0  0  0  0  0  0  0  0  0  0  0
   47.4090   31.3850   44.9480 Cl  0  0  0  0  0  0  0  0  0  0  0  0
   46.4130   30.2210   45.8570 C   0  0  0  0  0  0  0  0  0  0  0  0
   46.6600   29.8230   47.1600 C   0  0  1  0  0  0  0  0  0  0  0  0
   45.7250   28.9270   47.6180 C   0  0  0  0  0  3  0  0  0  0  0  0
   45.7480   28.4600   48.5790 H   0  0  0  0  0  0  0  0  0  0  0  0
   44.6200   28.3740   47.0220 C   0  0  0  0  0  0  0  0  0  0  0  0
   43.8800   27.6870   47.3360 H   0  0  0  0  0  0  0  0  0  0  0  0
   44.4880   28.8450   45.7480 C   0  0  0  0  0  3  0  0  0  0  0  0
   45.3050   29.7320   45.1130 C   0  0  0  0  0  3  0  0  0  0  0  0
  1  6  1  0  0  0  0
  1  2  1  0  0  0  0
  1  7  1  1  0  0  0
  2  3  1  0  0  0  0
  2  9  1  0  0  0  0
  3 10  1  0  0  0  0
  3  4  1  0  0  0  0
  4 12  1  0  0  0  0
  4 13  1  0  0  0  0
  5 15  1  0  0  0  0
  5  4  1  0  0  0  0
  5 14  1  0  0  0  0
  6 16  1  6  0  0  0
  6  5  1  0  0  0  0
  8  2  1  0  0  0  0
 11  3  1  0  0  0  0
 17 18  2  0  0  0  0
 17 21  1  0  0  0  0
 18 19  1  0  0  0  0
 19 20  2  0  0  0  0
 19 23  1  0  0  0  0
 20  1  1  0  0  0  0
 21 20  1  0  0  0  0
 22 18  1  0  0  0  0
 24 29  1  0  0  0  0
 25 24  2  0  0  0  0
 25 26  1  0  0  0  0
 26 27  2  0  0  0  0
 27 28  1  0  0  0  0
 28 17  1  0  0  0  0
 29 28  2  0  0  0  0
 30 24  1  0  0  0  0
 31 25  1  0  0  0  0
 32 26  1  0  0  0  0
 33  6  1  0  0  0  0
 33 34  1  6  0  0  0
 35 36  1  0  0  0  0
 37 36  1  6  0  0  0
 37 38  1  0  0  0  0
 37 33  1  0  0  0  0
 37 34  1  0  0  0  0
 38 39  1  0  0  0  0
 40 41  1  0  0  0  0
 40 38  1  0  0  0  0
 42 40  2  0  0  0  0
 43 42  1  0  0  0  0
 43 36  2  0  0  0  0
M  END
>  <minimizedAffinity>
-3.29081678

>  <minimizedRMSD>
6.81075001

$$$$
