
 OpenBabel03252501333D

 24 25  0  0  0  0  0  0  0  0999 V2000
   37.4920   28.0830   40.3370 C   0  0  0  0  0  0  0  0  0  0  0  0
   38.4460   28.8590   40.6900 O   0  0  0  0  0  0  0  0  0  0  0  0
   36.5070   28.7510   39.5520 N   0  0  0  0  0  0  0  0  0  0  0  0
   35.6890   28.2530   39.1940 H   0  0  0  0  0  0  0  0  0  0  0  0
   36.5980   27.4580   43.1800 Cl  0  0  0  0  0  0  0  0  0  0  0  0
   36.9940   26.3000   41.9550 C   0  0  0  0  0  0  0  0  0  0  0  0
   37.3940   26.6730   40.6800 C   0  0  0  0  0  0  0  0  0  0  0  0
   37.7040   25.7300   39.7210 C   0  0  0  0  0  0  0  0  0  0  0  0
   38.0140   26.0280   38.7320 H   0  0  0  0  0  0  0  0  0  0  0  0
   37.6090   24.3750   40.0550 C   0  0  0  0  0  0  0  0  0  0  0  0
   37.8490   23.6010   39.3170 H   0  0  0  0  0  0  0  0  0  0  0  0
   37.2070   23.9900   41.3370 C   0  0  0  0  0  3  0  0  0  0  0  0
   36.8990   24.9600   42.2890 C   0  0  0  0  0  3  0  0  0  0  0  0
   36.8920   30.1420   39.4010 C   0  0  0  0  0  0  0  0  0  0  0  0
   36.5620   31.1660   40.2640 C   0  0  0  0  0  0  0  0  0  0  0  0
   37.0310   32.4360   39.9420 C   0  0  0  0  0  0  0  0  0  0  0  0
   37.7640   32.5650   38.8200 N   0  0  0  0  0  0  0  0  0  0  0  0
   38.0690   31.5540   38.0020 C   0  0  0  0  0  0  0  0  0  0  0  0
   37.6350   30.3080   38.2780 N   0  0  0  0  0  0  0  0  0  0  0  0
   36.7620   33.2180   40.6260 H   0  0  0  0  0  0  0  0  0  0  0  0
   38.6680   31.7600   37.1220 H   0  0  0  0  0  0  0  0  0  0  0  0
   35.7820   30.8100   41.3850 N   0  0  0  0  0  0  0  0  0  0  0  0
   35.9240   30.1820   42.1780 H   0  0  0  0  0  0  0  0  0  0  0  0
   34.8540   31.2990   41.4060 H   0  0  0  0  0  0  0  0  0  0  0  0
  1  7  1  0  0  0  0
  1  2  2  0  0  0  0
  3  1  1  0  0  0  0
  4  3  1  0  0  0  0
  6 13  1  0  0  0  0
  6  5  1  0  0  0  0
  7  6  2  0  0  0  0
  8 10  2  0  0  0  0
  8  7  1  0  0  0  0
  9  8  1  0  0  0  0
 10 12  1  0  0  0  0
 11 10  1  0  0  0  0
 12 13  2  0  0  0  0
 14  3  1  0  0  0  0
 14 15  1  0  0  0  0
 15 22  1  0  0  0  0
 16 15  2  0  0  0  0
 16 20  1  0  0  0  0
 17 16  1  0  0  0  0
 18 19  1  0  0  0  0
 18 17  2  0  0  0  0
 19 14  2  0  0  0  0
 21 18  1  0  0  0  0
 22 24  1  0  0  0  0
 22 23  1  0  0  0  0
M  END
>  <minimizedAffinity>
-5.15497684

$$$$

 OpenBabel03252501333D

 24 25  0  0  0  0  0  0  0  0999 V2000
   37.0840   27.9450   39.9890 C   0  0  0  0  0  0  0  0  0  0  0  0
   38.2020   28.5680   39.9830 O   0  0  0  0  0  0  0  0  0  0  0  0
   36.0010   28.7660   39.5630 N   0  0  0  0  0  0  0  0  0  0  0  0
   35.0470   28.3990   39.5120 H   0  0  0  0  0  0  0  0  0  0  0  0
   36.2990   26.0160   37.7670 Cl  0  0  0  0  0  0  0  0  0  0  0  0
   36.5490   25.6110   39.4320 C   0  0  0  0  0  0  0  0  0  0  0  0
   36.9060   26.5560   40.3820 C   0  0  0  0  0  0  0  0  0  0  0  0
   37.1000   26.2080   41.7040 C   0  0  0  0  0  0  0  0  0  0  0  0
   37.3790   26.9480   42.4370 H   0  0  0  0  0  0  0  0  0  0  0  0
   36.9280   24.8710   42.0780 C   0  0  0  0  0  0  0  0  0  0  0  0
   37.0730   24.5600   43.1190 H   0  0  0  0  0  0  0  0  0  0  0  0
   36.5680   23.9120   41.1270 C   0  0  0  0  0  3  0  0  0  0  0  0
   36.3780   24.2870   39.7990 C   0  0  0  0  0  3  0  0  0  0  0  0
   36.5080   30.0910   39.2560 C   0  0  0  0  0  0  0  0  0  0  0  0
   36.4630   31.1830   40.0970 C   0  0  0  0  0  0  0  0  0  0  0  0
   37.0070   32.3710   39.6140 C   0  0  0  0  0  0  0  0  0  0  0  0
   37.5280   32.3600   38.3730 N   0  0  0  0  0  0  0  0  0  0  0  0
   37.5580   31.2850   37.5800 C   0  0  0  0  0  0  0  0  0  0  0  0
   37.0430   30.1160   38.0090 N   0  0  0  0  0  0  0  0  0  0  0  0
   36.9620   33.2070   40.2850 H   0  0  0  0  0  0  0  0  0  0  0  0
   38.0010   31.3780   36.5950 H   0  0  0  0  0  0  0  0  0  0  0  0
   35.8700   30.9750   41.3590 N   0  0  0  0  0  0  0  0  0  0  0  0
   36.0840   30.3670   42.1530 H   0  0  0  0  0  0  0  0  0  0  0  0
   35.0250   31.5760   41.5160 H   0  0  0  0  0  0  0  0  0  0  0  0
  1  7  1  0  0  0  0
  2  1  2  0  0  0  0
  3  1  1  0  0  0  0
  4  3  1  0  0  0  0
  5  6  1  0  0  0  0
  6 13  2  0  0  0  0
  6  7  1  0  0  0  0
  7  8  2  0  0  0  0
  8 10  1  0  0  0  0
  8  9  1  0  0  0  0
 10 11  1  0  0  0  0
 12 10  2  0  0  0  0
 13 12  1  0  0  0  0
 14  3  1  0  0  0  0
 14 15  1  0  0  0  0
 15 22  1  0  0  0  0
 16 15  2  0  0  0  0
 16 20  1  0  0  0  0
 17 16  1  0  0  0  0
 18 19  1  0  0  0  0
 18 17  2  0  0  0  0
 19 14  2  0  0  0  0
 21 18  1  0  0  0  0
 22 24  1  0  0  0  0
 22 23  1  0  0  0  0
M  END
>  <minimizedAffinity>
-5.00896978

$$$$

 OpenBabel03252501333D

 24 25  0  0  0  0  0  0  0  0999 V2000
   38.9130   30.2650   40.9640 C   0  0  0  0  0  0  0  0  0  0  0  0
   40.1850   30.4010   40.9550 O   0  0  0  0  0  0  0  0  0  0  0  0
   38.2500   31.2790   40.2130 N   0  0  0  0  0  0  0  0  0  0  0  0
   37.2310   31.2920   40.1270 H   0  0  0  0  0  0  0  0  0  0  0  0
   37.8960   27.9850   39.2190 Cl  0  0  0  0  0  0  0  0  0  0  0  0
   37.6970   28.1280   40.9330 C   0  0  0  0  0  0  0  0  0  0  0  0
   38.1940   29.2040   41.6530 C   0  0  0  0  0  0  0  0  0  0  0  0
   38.0220   29.2950   43.0190 C   0  0  0  0  0  0  0  0  0  0  0  0
   38.4120   30.1350   43.5720 H   0  0  0  0  0  0  0  0  0  0  0  0
   37.3300   28.2740   43.6790 C   0  0  0  0  0  0  0  0  0  0  0  0
   37.1750   28.3150   44.7630 H   0  0  0  0  0  0  0  0  0  0  0  0
   36.8250   27.1850   42.9610 C   0  0  0  0  0  3  0  0  0  0  0  0
   37.0110   27.1150   41.5820 C   0  0  0  0  0  3  0  0  0  0  0  0
   39.2440   32.1830   39.6660 C   0  0  0  0  0  0  0  0  0  0  0  0
   39.5950   33.4080   40.1950 C   0  0  0  0  0  0  0  0  0  0  0  0
   40.5770   34.1270   39.5190 C   0  0  0  0  0  0  0  0  0  0  0  0
   41.1020   33.5760   38.4090 N   0  0  0  0  0  0  0  0  0  0  0  0
   40.7420   32.3860   37.9190 C   0  0  0  0  0  0  0  0  0  0  0  0
   39.7960   31.6570   38.5440 N   0  0  0  0  0  0  0  0  0  0  0  0
   40.8340   35.0770   39.9480 H   0  0  0  0  0  0  0  0  0  0  0  0
   41.2260   32.0280   37.0170 H   0  0  0  0  0  0  0  0  0  0  0  0
   38.9180   33.7960   41.3700 N   0  0  0  0  0  0  0  0  0  0  0  0
   38.8470   33.4050   42.3110 H   0  0  0  0  0  0  0  0  0  0  0  0
   38.3670   34.6810   41.2480 H   0  0  0  0  0  0  0  0  0  0  0  0
  1  7  1  0  0  0  0
  2  1  2  0  0  0  0
  3  1  1  0  0  0  0
  4  3  1  0  0  0  0
  5  6  1  0  0  0  0
  6 13  2  0  0  0  0
  6  7  1  0  0  0  0
  7  8  2  0  0  0  0
  8  9  1  0  0  0  0
  8 10  1  0  0  0  0
 10 11  1  0  0  0  0
 12 10  2  0  0  0  0
 13 12  1  0  0  0  0
 14 15  1  0  0  0  0
 14  3  1  0  0  0  0
 15 22  1  0  0  0  0
 16 20  1  0  0  0  0
 16 15  2  0  0  0  0
 17 16  1  0  0  0  0
 18 17  2  0  0  0  0
 18 19  1  0  0  0  0
 19 14  2  0  0  0  0
 21 18  1  0  0  0  0
 22 23  1  0  0  0  0
 24 22  1  0  0  0  0
M  END
>  <minimizedAffinity>
-4.99656343

$$$$

 OpenBabel03252501333D

 24 25  0  0  0  0  0  0  0  0999 V2000
   38.0700   30.9030   38.9320 C   0  0  0  0  0  0  0  0  0  0  0  0
   39.1920   30.3390   39.1770 O   0  0  0  0  0  0  0  0  0  0  0  0
   38.1880   32.3170   38.8010 N   0  0  0  0  0  0  0  0  0  0  0  0
   37.3720   32.8990   38.5980 H   0  0  0  0  0  0  0  0  0  0  0  0
   36.5360   30.4000   41.5150 Cl  0  0  0  0  0  0  0  0  0  0  0  0
   36.0370   29.9380   39.9230 C   0  0  0  0  0  0  0  0  0  0  0  0
   36.8000   30.2070   38.7960 C   0  0  0  0  0  0  0  0  0  0  0  0
   36.3790   29.8290   37.5370 C   0  0  0  0  0  0  0  0  0  0  0  0
   36.9780   30.0420   36.6650 H   0  0  0  0  0  0  0  0  0  0  0  0
   35.1570   29.1600   37.4100 C   0  0  0  0  0  0  0  0  0  0  0  0
   34.7940   28.8440   36.4250 H   0  0  0  0  0  0  0  0  0  0  0  0
   34.3820   28.8840   38.5400 C   0  0  0  0  0  3  0  0  0  0  0  0
   34.8270   29.2760   39.8000 C   0  0  0  0  0  3  0  0  0  0  0  0
   39.5750   32.6930   39.0020 C   0  0  0  0  0  0  0  0  0  0  0  0
   40.5540   32.7030   38.0310 C   0  0  0  0  0  0  0  0  0  0  0  0
   41.8290   33.0990   38.4270 C   0  0  0  0  0  0  0  0  0  0  0  0
   42.0050   33.4370   39.7180 N   0  0  0  0  0  0  0  0  0  0  0  0
   41.0360   33.4180   40.6380 C   0  0  0  0  0  0  0  0  0  0  0  0
   39.7880   33.0420   40.2960 N   0  0  0  0  0  0  0  0  0  0  0  0
   42.5750   33.1000   37.6560 H   0  0  0  0  0  0  0  0  0  0  0  0
   41.2790   33.7100   41.6540 H   0  0  0  0  0  0  0  0  0  0  0  0
   40.1530   32.3110   36.7370 N   0  0  0  0  0  0  0  0  0  0  0  0
   39.4750   32.6730   36.0630 H   0  0  0  0  0  0  0  0  0  0  0  0
   40.6640   31.4620   36.3930 H   0  0  0  0  0  0  0  0  0  0  0  0
  1  2  2  0  0  0  0
  3  1  1  0  0  0  0
  3 14  1  0  0  0  0
  4  3  1  0  0  0  0
  6  5  1  0  0  0  0
  7  1  1  0  0  0  0
  7  6  2  0  0  0  0
  8  7  1  0  0  0  0
  9  8  1  0  0  0  0
 10  8  2  0  0  0  0
 10 12  1  0  0  0  0
 11 10  1  0  0  0  0
 12 13  2  0  0  0  0
 13  6  1  0  0  0  0
 14 19  1  0  0  0  0
 15 16  1  0  0  0  0
 15 14  2  0  0  0  0
 16 17  2  0  0  0  0
 17 18  1  0  0  0  0
 18 21  1  0  0  0  0
 19 18  2  0  0  0  0
 20 16  1  0  0  0  0
 22 15  1  0  0  0  0
 23 22  1  0  0  0  0
 24 22  1  0  0  0  0
M  END
>  <minimizedAffinity>
-4.9528966

$$$$

 OpenBabel03252501333D

 24 25  0  0  0  0  0  0  0  0999 V2000
   38.1620   28.4030   41.0830 C   0  0  0  0  0  0  0  0  0  0  0  0
   38.1370   28.7740   39.8590 O   0  0  0  0  0  0  0  0  0  0  0  0
   38.1510   29.5050   41.9870 N   0  0  0  0  0  0  0  0  0  0  0  0
   38.1620   29.3580   42.9990 H   0  0  0  0  0  0  0  0  0  0  0  0
   40.9240   27.2420   41.6270 Cl  0  0  0  0  0  0  0  0  0  0  0  0
   39.4130   26.4140   41.8050 C   0  0  0  0  0  0  0  0  0  0  0  0
   38.1960   27.0210   41.5340 C   0  0  0  0  0  0  0  0  0  0  0  0
   37.0050   26.3400   41.6840 C   0  0  0  0  0  0  0  0  0  0  0  0
   36.0620   26.8180   41.4720 H   0  0  0  0  0  0  0  0  0  0  0  0
   37.0420   25.0100   42.1190 C   0  0  0  0  0  0  0  0  0  0  0  0
   36.1140   24.4400   42.2470 H   0  0  0  0  0  0  0  0  0  0  0  0
   38.2640   24.3900   42.3930 C   0  0  0  0  0  3  0  0  0  0  0  0
   39.4530   25.0980   42.2350 C   0  0  0  0  0  3  0  0  0  0  0  0
   38.1280   30.7380   41.2230 C   0  0  0  0  0  0  0  0  0  0  0  0
   36.9940   31.4020   40.8020 C   0  0  0  0  0  0  0  0  0  0  0  0
   37.1840   32.5760   40.0790 C   0  0  0  0  0  0  0  0  0  0  0  0
   38.4510   32.9690   39.8470 N   0  0  0  0  0  0  0  0  0  0  0  0
   39.5320   32.3050   40.2680 C   0  0  0  0  0  0  0  0  0  0  0  0
   39.3910   31.1650   40.9720 N   0  0  0  0  0  0  0  0  0  0  0  0
   36.2890   33.0750   39.7620 H   0  0  0  0  0  0  0  0  0  0  0  0
   40.5110   32.7050   40.0310 H   0  0  0  0  0  0  0  0  0  0  0  0
   35.7610   30.8140   41.1540 N   0  0  0  0  0  0  0  0  0  0  0  0
   35.3070   30.5940   42.0430 H   0  0  0  0  0  0  0  0  0  0  0  0
   35.1860   30.5460   40.3200 H   0  0  0  0  0  0  0  0  0  0  0  0
  1  7  1  0  0  0  0
  1  3  1  0  0  0  0
  2  1  2  0  0  0  0
  3  4  1  0  0  0  0
  5  6  1  0  0  0  0
  6 13  1  0  0  0  0
  7  8  1  0  0  0  0
  7  6  2  0  0  0  0
  8 10  2  0  0  0  0
  9  8  1  0  0  0  0
 10 11  1  0  0  0  0
 10 12  1  0  0  0  0
 13 12  2  0  0  0  0
 14  3  1  0  0  0  0
 15 22  1  0  0  0  0
 15 14  2  0  0  0  0
 16 15  1  0  0  0  0
 17 16  2  0  0  0  0
 17 18  1  0  0  0  0
 18 19  2  0  0  0  0
 19 14  1  0  0  0  0
 20 16  1  0  0  0  0
 21 18  1  0  0  0  0
 22 23  1  0  0  0  0
 24 22  1  0  0  0  0
M  END
>  <minimizedAffinity>
-4.93679094

$$$$

 OpenBabel03252501333D

 24 25  0  0  0  0  0  0  0  0999 V2000
   38.5560   31.2950   39.3560 C   0  0  0  0  0  0  0  0  0  0  0  0
   39.7190   30.8010   39.5550 O   0  0  0  0  0  0  0  0  0  0  0  0
   38.5970   32.6880   39.0630 N   0  0  0  0  0  0  0  0  0  0  0  0
   37.7400   33.2150   38.8760 H   0  0  0  0  0  0  0  0  0  0  0  0
   37.2560   30.6430   36.6800 Cl  0  0  0  0  0  0  0  0  0  0  0  0
   36.6530   30.2050   38.2430 C   0  0  0  0  0  0  0  0  0  0  0  0
   37.3110   30.5440   39.4160 C   0  0  0  0  0  0  0  0  0  0  0  0
   36.8100   30.1820   40.6500 C   0  0  0  0  0  0  0  0  0  0  0  0
   37.3280   30.4490   41.5580 H   0  0  0  0  0  0  0  0  0  0  0  0
   35.6130   29.4600   40.7040 C   0  0  0  0  0  0  0  0  0  0  0  0
   35.1870   29.1580   41.6680 H   0  0  0  0  0  0  0  0  0  0  0  0
   34.9430   29.1150   39.5270 C   0  0  0  0  0  3  0  0  0  0  0  0
   35.4680   29.4900   38.2930 C   0  0  0  0  0  3  0  0  0  0  0  0
   39.9780   33.1330   39.0920 C   0  0  0  0  0  0  0  0  0  0  0  0
   40.8790   33.0240   38.0530 C   0  0  0  0  0  0  0  0  0  0  0  0
   42.1620   33.5150   38.2800 C   0  0  0  0  0  0  0  0  0  0  0  0
   42.4210   34.0530   39.4860 N   0  0  0  0  0  0  0  0  0  0  0  0
   41.5260   34.1450   40.4750 C   0  0  0  0  0  0  0  0  0  0  0  0
   40.2730   33.6830   40.2960 N   0  0  0  0  0  0  0  0  0  0  0  0
   42.8460   33.4200   37.4590 H   0  0  0  0  0  0  0  0  0  0  0  0
   41.8330   34.5970   41.4120 H   0  0  0  0  0  0  0  0  0  0  0  0
   40.3980   32.4260   36.8700 N   0  0  0  0  0  0  0  0  0  0  0  0
   39.6560   32.6590   36.2070 H   0  0  0  0  0  0  0  0  0  0  0  0
   40.9170   31.5500   36.6180 H   0  0  0  0  0  0  0  0  0  0  0  0
  1  7  1  0  0  0  0
  1  2  2  0  0  0  0
  3 14  1  0  0  0  0
  3  1  1  0  0  0  0
  4  3  1  0  0  0  0
  5  6  1  0  0  0  0
  6 13  2  0  0  0  0
  6  7  1  0  0  0  0
  7  8  2  0  0  0  0
  8 10  1  0  0  0  0
  8  9  1  0  0  0  0
 10 11  1  0  0  0  0
 12 10  2  0  0  0  0
 13 12  1  0  0  0  0
 14 19  1  0  0  0  0
 15 16  1  0  0  0  0
 15 14  2  0  0  0  0
 16 17  2  0  0  0  0
 17 18  1  0  0  0  0
 18 21  1  0  0  0  0
 19 18  2  0  0  0  0
 20 16  1  0  0  0  0
 22 15  1  0  0  0  0
 23 22  1  0  0  0  0
 24 22  1  0  0  0  0
M  END
>  <minimizedAffinity>
-4.90721416

$$$$

 OpenBabel03252501333D

 24 25  0  0  0  0  0  0  0  0999 V2000
   38.7910   29.7670   41.4990 C   0  0  0  0  0  0  0  0  0  0  0  0
   39.0540   30.7160   42.3160 O   0  0  0  0  0  0  0  0  0  0  0  0
   38.7230   30.2130   40.1480 N   0  0  0  0  0  0  0  0  0  0  0  0
   38.5260   29.5610   39.3850 H   0  0  0  0  0  0  0  0  0  0  0  0
   35.9370   28.7310   41.2450 Cl  0  0  0  0  0  0  0  0  0  0  0  0
   37.3090   27.8260   41.7910 C   0  0  0  0  0  0  0  0  0  0  0  0
   38.5790   28.3780   41.8770 C   0  0  0  0  0  0  0  0  0  0  0  0
   39.6560   27.6350   42.3140 C   0  0  0  0  0  0  0  0  0  0  0  0
   40.6410   28.0720   42.3780 H   0  0  0  0  0  0  0  0  0  0  0  0
   39.4490   26.3000   42.6760 C   0  0  0  0  0  0  0  0  0  0  0  0
   40.2830   25.6820   43.0290 H   0  0  0  0  0  0  0  0  0  0  0  0
   38.1730   25.7350   42.5940 C   0  0  0  0  0  3  0  0  0  0  0  0
   37.1010   26.5050   42.1480 C   0  0  0  0  0  3  0  0  0  0  0  0
   38.9680   31.6430   40.1130 C   0  0  0  0  0  0  0  0  0  0  0  0
   38.0180   32.6260   40.2940 C   0  0  0  0  0  0  0  0  0  0  0  0
   38.4560   33.9460   40.2240 C   0  0  0  0  0  0  0  0  0  0  0  0
   39.7640   34.1570   39.9850 N   0  0  0  0  0  0  0  0  0  0  0  0
   40.6630   33.1840   39.8140 C   0  0  0  0  0  0  0  0  0  0  0  0
   40.2800   31.8930   39.8750 N   0  0  0  0  0  0  0  0  0  0  0  0
   37.7010   34.6940   40.3680 H   0  0  0  0  0  0  0  0  0  0  0  0
   41.6960   33.4580   39.6270 H   0  0  0  0  0  0  0  0  0  0  0  0
   36.7000   32.1830   40.5330 N   0  0  0  0  0  0  0  0  0  0  0  0
   36.2610   31.6190   41.2630 H   0  0  0  0  0  0  0  0  0  0  0  0
   36.0240   32.5050   39.7980 H   0  0  0  0  0  0  0  0  0  0  0  0
  1  7  1  0  0  0  0
  1  2  2  0  0  0  0
  3  1  1  0  0  0  0
  4  3  1  0  0  0  0
  5  6  1  0  0  0  0
  6  7  2  0  0  0  0
  6 13  1  0  0  0  0
  7  8  1  0  0  0  0
  8  9  1  0  0  0  0
  8 10  2  0  0  0  0
 10 11  1  0  0  0  0
 12 10  1  0  0  0  0
 13 12  2  0  0  0  0
 14  3  1  0  0  0  0
 14 15  1  0  0  0  0
 15 22  1  0  0  0  0
 16 15  2  0  0  0  0
 16 20  1  0  0  0  0
 17 16  1  0  0  0  0
 18 19  1  0  0  0  0
 18 17  2  0  0  0  0
 19 14  2  0  0  0  0
 21 18  1  0  0  0  0
 22 23  1  0  0  0  0
 24 22  1  0  0  0  0
M  END
>  <minimizedAffinity>
-4.87076902

$$$$

 OpenBabel03252501333D

 24 25  0  0  0  0  0  0  0  0999 V2000
   37.7220   27.9970   40.8790 C   0  0  0  0  0  0  0  0  0  0  0  0
   38.4450   28.5300   39.9680 O   0  0  0  0  0  0  0  0  0  0  0  0
   37.3160   28.9350   41.8720 N   0  0  0  0  0  0  0  0  0  0  0  0
   36.7280   28.6510   42.6590 H   0  0  0  0  0  0  0  0  0  0  0  0
   36.2480   26.9320   38.4350 Cl  0  0  0  0  0  0  0  0  0  0  0  0
   36.6640   26.0290   39.8530 C   0  0  0  0  0  0  0  0  0  0  0  0
   37.3390   26.5940   40.9250 C   0  0  0  0  0  0  0  0  0  0  0  0
   37.6600   25.8530   42.0430 C   0  0  0  0  0  0  0  0  0  0  0  0
   38.1840   26.3000   42.8730 H   0  0  0  0  0  0  0  0  0  0  0  0
   37.2900   24.5040   42.0840 C   0  0  0  0  0  0  0  0  0  0  0  0
   37.5280   23.8870   42.9580 H   0  0  0  0  0  0  0  0  0  0  0  0
   36.6100   23.9250   41.0090 C   0  0  0  0  0  3  0  0  0  0  0  0
   36.2970   24.6940   39.8890 C   0  0  0  0  0  3  0  0  0  0  0  0
   37.8700   30.2350   41.5440 C   0  0  0  0  0  0  0  0  0  0  0  0
   37.1980   31.2580   40.9080 C   0  0  0  0  0  0  0  0  0  0  0  0
   37.9100   32.4340   40.6840 C   0  0  0  0  0  0  0  0  0  0  0  0
   39.1880   32.4800   41.1020 N   0  0  0  0  0  0  0  0  0  0  0  0
   39.8140   31.4720   41.7170 C   0  0  0  0  0  0  0  0  0  0  0  0
   39.1610   30.3170   41.9530 N   0  0  0  0  0  0  0  0  0  0  0  0
   37.3680   33.2160   40.1880 H   0  0  0  0  0  0  0  0  0  0  0  0
   40.8470   31.6080   42.0170 H   0  0  0  0  0  0  0  0  0  0  0  0
   35.8580   30.9990   40.5530 N   0  0  0  0  0  0  0  0  0  0  0  0
   35.0150   30.7690   41.0830 H   0  0  0  0  0  0  0  0  0  0  0  0
   35.6930   31.0540   39.5190 H   0  0  0  0  0  0  0  0  0  0  0  0
  1  7  1  0  0  0  0
  1  3  1  0  0  0  0
  2  1  2  0  0  0  0
  3  4  1  0  0  0  0
  5  6  1  0  0  0  0
  6 13  2  0  0  0  0
  6  7  1  0  0  0  0
  7  8  2  0  0  0  0
  8 10  1  0  0  0  0
  8  9  1  0  0  0  0
 10 11  1  0  0  0  0
 12 10  2  0  0  0  0
 13 12  1  0  0  0  0
 14  3  1  0  0  0  0
 14 19  1  0  0  0  0
 15 14  2  0  0  0  0
 16 15  1  0  0  0  0
 16 17  2  0  0  0  0
 17 18  1  0  0  0  0
 18 19  2  0  0  0  0
 18 21  1  0  0  0  0
 20 16  1  0  0  0  0
 22 15  1  0  0  0  0
 22 23  1  0  0  0  0
 24 22  1  0  0  0  0
M  END
>  <minimizedAffinity>
-4.79977417

$$$$

 OpenBabel03252501333D

 24 25  0  0  0  0  0  0  0  0999 V2000
   38.6300   28.9760   41.8360 C   0  0  0  0  0  0  0  0  0  0  0  0
   37.7400   29.7430   42.3440 O   0  0  0  0  0  0  0  0  0  0  0  0
   39.2770   29.5620   40.7100 N   0  0  0  0  0  0  0  0  0  0  0  0
   40.0150   29.0650   40.2070 H   0  0  0  0  0  0  0  0  0  0  0  0
   36.8940   26.6900   40.8170 Cl  0  0  0  0  0  0  0  0  0  0  0  0
   38.2260   26.5520   41.9150 C   0  0  0  0  0  0  0  0  0  0  0  0
   38.9660   27.6500   42.3290 C   0  0  0  0  0  0  0  0  0  0  0  0
   40.0240   27.5130   43.2050 C   0  0  0  0  0  0  0  0  0  0  0  0
   40.5950   28.3720   43.5230 H   0  0  0  0  0  0  0  0  0  0  0  0
   40.3450   26.2360   43.6780 C   0  0  0  0  0  0  0  0  0  0  0  0
   41.1780   26.0930   44.3750 H   0  0  0  0  0  0  0  0  0  0  0  0
   39.6050   25.1240   43.2660 C   0  0  0  0  0  3  0  0  0  0  0  0
   38.5410   25.2860   42.3810 C   0  0  0  0  0  3  0  0  0  0  0  0
   38.7070   30.8750   40.4720 C   0  0  0  0  0  0  0  0  0  0  0  0
   39.1150   32.0490   41.0710 C   0  0  0  0  0  0  0  0  0  0  0  0
   38.4380   33.2100   40.7060 C   0  0  0  0  0  0  0  0  0  0  0  0
   37.4450   33.0960   39.8040 N   0  0  0  0  0  0  0  0  0  0  0  0
   37.0710   31.9440   39.2400 C   0  0  0  0  0  0  0  0  0  0  0  0
   37.7010   30.7980   39.5660 N   0  0  0  0  0  0  0  0  0  0  0  0
   38.7720   34.1110   41.1830 H   0  0  0  0  0  0  0  0  0  0  0  0
   36.2580   31.9570   38.5230 H   0  0  0  0  0  0  0  0  0  0  0  0
   40.1790   31.9430   41.9910 N   0  0  0  0  0  0  0  0  0  0  0  0
   41.1510   31.6370   41.9200 H   0  0  0  0  0  0  0  0  0  0  0  0
   39.9110   32.2460   42.9590 H   0  0  0  0  0  0  0  0  0  0  0  0
  1  7  1  0  0  0  0
  1  2  2  0  0  0  0
  3  1  1  0  0  0  0
  4  3  1  0  0  0  0
  5  6  1  0  0  0  0
  6  7  2  0  0  0  0
  6 13  1  0  0  0  0
  7  8  1  0  0  0  0
  8  9  1  0  0  0  0
  8 10  2  0  0  0  0
 10 11  1  0  0  0  0
 12 10  1  0  0  0  0
 13 12  2  0  0  0  0
 14  3  1  0  0  0  0
 14 15  1  0  0  0  0
 15 22  1  0  0  0  0
 16 15  2  0  0  0  0
 16 20  1  0  0  0  0
 17 16  1  0  0  0  0
 18 19  1  0  0  0  0
 18 17  2  0  0  0  0
 19 14  2  0  0  0  0
 21 18  1  0  0  0  0
 22 24  1  0  0  0  0
 23 22  1  0  0  0  0
M  END
>  <minimizedAffinity>
-4.78620434

$$$$
