
 OpenBabel03252508493D

 28 30  0  0  0  0  0  0  0  0999 V2000
   43.9810   33.7630   40.7400 C   0  0  0  0  0  0  0  0  0  0  0  0
   45.0950   34.1810   41.4580 C   0  0  0  0  0  0  0  0  0  0  0  0
   46.3390   34.0270   40.8240 C   0  0  0  0  0  0  0  0  0  0  0  0
   46.3690   33.4860   39.5700 N   0  0  0  0  0  0  0  0  0  0  0  0
   45.2690   33.1030   38.9320 C   0  0  0  0  0  0  0  0  0  0  0  0
   44.0610   33.2330   39.5000 N   0  0  0  0  0  0  0  0  0  0  0  0
   47.2200   34.3510   41.3750 H   0  0  0  0  0  0  0  0  0  0  0  0
   45.3570   32.6800   37.9390 H   0  0  0  0  0  0  0  0  0  0  0  0
   44.9400   34.7420   42.7830 C   0  0  0  0  0  0  0  0  0  0  0  0
   44.8470   36.0970   43.0210 C   0  0  0  0  0  0  0  0  0  0  0  0
   44.7140   36.1800   44.3870 C   0  0  0  0  0  0  0  0  0  0  0  0
   44.7250   34.9470   44.9550 N   0  0  0  0  0  0  0  0  0  0  0  0
   44.8630   34.1010   43.9600 N   0  0  0  0  0  0  0  0  0  0  0  0
   44.8690   36.9300   42.3160 H   0  0  0  0  0  0  0  0  0  0  0  0
   44.6110   37.0790   44.9790 H   0  0  0  0  0  0  0  0  0  0  0  0
   44.6490   34.6400   45.9430 H   0  0  0  0  0  0  0  0  0  0  0  0
   42.7340   33.9000   41.3310 O   0  0  0  0  0  0  0  0  0  0  0  0
   41.7650   34.8070   41.0030 C   0  0  0  0  0  0  0  0  0  0  0  0
   41.6490   36.0170   41.4170 O   0  0  0  0  0  0  0  0  0  0  0  0
   42.1250   35.6280   38.1040 Cl  0  0  0  0  0  0  0  0  0  0  0  0
   40.6750   34.8090   38.7060 C   0  0  0  0  0  0  0  0  0  0  0  0
   40.6480   34.4890   40.0670 C   0  0  0  0  0  0  0  0  0  0  0  0
   39.4810   33.8580   40.4270 C   0  0  0  0  0  0  0  0  0  0  0  0
   39.3620   33.5670   41.4690 H   0  0  0  0  0  0  0  0  0  0  0  0
   38.4520   33.5640   39.5820 C   0  0  0  0  0  0  0  0  0  0  0  0
   37.5700   33.0660   39.9460 H   0  0  0  0  0  0  0  0  0  0  0  0
   38.5760   33.9190   38.2600 C   0  0  0  0  0  3  0  0  0  0  0  0
   39.7020   34.5560   37.7950 C   0  0  0  0  0  3  0  0  0  0  0  0
  1 17  1  0  0  0  0
  1  2  1  0  0  0  0
  2  9  1  0  0  0  0
  3  7  1  0  0  0  0
  3  2  2  0  0  0  0
  4  3  1  0  0  0  0
  5  6  1  0  0  0  0
  5  4  2  0  0  0  0
  6  1  2  0  0  0  0
  8  5  1  0  0  0  0
  9 10  1  0  0  0  0
  9 13  2  0  0  0  0
 10 11  2  0  0  0  0
 11 12  1  0  0  0  0
 11 15  1  0  0  0  0
 12 16  1  0  0  0  0
 13 12  1  0  0  0  0
 14 10  1  0  0  0  0
 18 17  1  0  0  0  0
 18 19  2  0  0  0  0
 20 21  1  0  0  0  0
 21 22  1  0  0  0  0
 22 23  2  0  0  0  0
 22 18  1  0  0  0  0
 23 24  1  0  0  0  0
 25 26  1  0  0  0  0
 25 23  1  0  0  0  0
 27 25  2  0  0  0  0
 28 27  1  0  0  0  0
 28 21  2  0  0  0  0
M  END
>  <minimizedAffinity>
-5.99815893

>  <minimizedRMSD>
2.32713151

$$$$
