
 OpenBabel03252508523D

 28 30  0  0  0  0  0  0  0  0999 V2000
   39.1180   31.5440   40.0600 C   0  0  0  0  0  0  0  0  0  0  0  0
   37.7810   31.9180   40.0170 C   0  0  0  0  0  0  0  0  0  0  0  0
   37.5220   33.2980   39.9600 C   0  0  0  0  0  0  0  0  0  0  0  0
   38.5820   34.1610   39.9510 N   0  0  0  0  0  0  0  0  0  0  0  0
   39.8410   33.7440   39.9950 C   0  0  0  0  0  0  0  0  0  0  0  0
   40.1330   32.4350   40.0500 N   0  0  0  0  0  0  0  0  0  0  0  0
   36.4780   33.6050   39.9260 H   0  0  0  0  0  0  0  0  0  0  0  0
   40.6380   34.4760   39.9850 H   0  0  0  0  0  0  0  0  0  0  0  0
   36.7420   30.9120   40.0310 C   0  0  0  0  0  0  0  0  0  0  0  0
   36.4420   30.1230   38.9400 C   0  0  0  0  0  0  0  0  0  0  0  0
   35.4140   29.3260   39.3850 C   0  0  0  0  0  0  0  0  0  0  0  0
   35.1010   29.6100   40.6750 N   0  0  0  0  0  0  0  0  0  0  0  0
   35.9190   30.5710   41.0350 N   0  0  0  0  0  0  0  0  0  0  0  0
   36.8950   30.1100   37.9470 H   0  0  0  0  0  0  0  0  0  0  0  0
   34.8920   28.5630   38.8260 H   0  0  0  0  0  0  0  0  0  0  0  0
   34.3890   29.2120   41.3170 H   0  0  0  0  0  0  0  0  0  0  0  0
   39.4160   30.1900   40.1160 O   0  0  0  0  0  0  0  0  0  0  0  0
   39.6610   29.4490   41.2390 C   0  0  0  0  0  0  0  0  0  0  0  0
   40.7520   29.3830   41.9140 O   0  0  0  0  0  0  0  0  0  0  0  0
   38.7690   27.0310   39.6350 Cl  0  0  0  0  0  0  0  0  0  0  0  0
   38.1280   27.4210   41.2410 C   0  0  0  0  0  0  0  0  0  0  0  0
   38.6320   28.5680   41.8620 C   0  0  0  0  0  0  0  0  0  0  0  0
   38.0690   28.7760   43.0980 C   0  0  0  0  0  0  0  0  0  0  0  0
   38.3970   29.6460   43.6660 H   0  0  0  0  0  0  0  0  0  0  0  0
   37.1280   27.9790   43.6790 C   0  0  0  0  0  0  0  0  0  0  0  0
   36.7370   28.2140   44.6540 H   0  0  0  0  0  0  0  0  0  0  0  0
   36.6960   26.8730   42.9860 C   0  0  0  0  0  3  0  0  0  0  0  0
   37.1940   26.5720   41.7410 C   0  0  0  0  0  3  0  0  0  0  0  0
  1 17  1  0  0  0  0
  2  9  1  0  0  0  0
  2  1  2  0  0  0  0
  3  2  1  0  0  0  0
  4  3  2  0  0  0  0
  4  5  1  0  0  0  0
  5  6  2  0  0  0  0
  6  1  1  0  0  0  0
  7  3  1  0  0  0  0
  8  5  1  0  0  0  0
  9 13  2  0  0  0  0
 10 11  2  0  0  0  0
 10  9  1  0  0  0  0
 11 12  1  0  0  0  0
 12 13  1  0  0  0  0
 12 16  1  0  0  0  0
 14 10  1  0  0  0  0
 15 11  1  0  0  0  0
 17 18  1  0  0  0  0
 18 22  1  0  0  0  0
 18 19  2  0  0  0  0
 20 21  1  0  0  0  0
 21 28  2  0  0  0  0
 21 22  1  0  0  0  0
 22 23  2  0  0  0  0
 23 24  1  0  0  0  0
 23 25  1  0  0  0  0
 25 26  1  0  0  0  0
 27 25  2  0  0  0  0
 28 27  1  0  0  0  0
M  END
>  <minimizedAffinity>
-5.49565601

$$$$

 OpenBabel03252508523D

 28 30  0  0  0  0  0  0  0  0999 V2000
   39.8270   31.2240   40.3220 C   0  0  0  0  0  0  0  0  0  0  0  0
   38.7200   31.1450   39.4850 C   0  0  0  0  0  0  0  0  0  0  0  0
   38.9440   31.4270   38.1280 C   0  0  0  0  0  0  0  0  0  0  0  0
   40.2080   31.7560   37.7290 N   0  0  0  0  0  0  0  0  0  0  0  0
   41.2300   31.8180   38.5760 C   0  0  0  0  0  0  0  0  0  0  0  0
   41.0610   31.5550   39.8810 N   0  0  0  0  0  0  0  0  0  0  0  0
   38.0840   31.3680   37.4610 H   0  0  0  0  0  0  0  0  0  0  0  0
   42.2090   32.0840   38.2000 H   0  0  0  0  0  0  0  0  0  0  0  0
   37.4260   30.7850   40.0220 C   0  0  0  0  0  0  0  0  0  0  0  0
   36.7280   29.6660   39.6190 C   0  0  0  0  0  0  0  0  0  0  0  0
   35.5760   29.7110   40.3690 C   0  0  0  0  0  0  0  0  0  0  0  0
   35.5680   30.7960   41.1850 N   0  0  0  0  0  0  0  0  0  0  0  0
   36.6980   31.4230   40.9510 N   0  0  0  0  0  0  0  0  0  0  0  0
   36.9970   28.9050   38.8840 H   0  0  0  0  0  0  0  0  0  0  0  0
   34.7580   29.0050   40.3500 H   0  0  0  0  0  0  0  0  0  0  0  0
   34.8700   31.1380   41.8730 H   0  0  0  0  0  0  0  0  0  0  0  0
   39.6480   30.9510   41.6700 O   0  0  0  0  0  0  0  0  0  0  0  0
   39.8910   29.7660   42.3070 C   0  0  0  0  0  0  0  0  0  0  0  0
   40.9970   29.3610   42.8180 O   0  0  0  0  0  0  0  0  0  0  0  0
   39.8810   27.4390   40.3580 Cl  0  0  0  0  0  0  0  0  0  0  0  0
   38.7140   27.6010   41.6810 C   0  0  0  0  0  0  0  0  0  0  0  0
   38.8390   28.7260   42.5010 C   0  0  0  0  0  0  0  0  0  0  0  0
   37.8870   28.7530   43.4920 C   0  0  0  0  0  0  0  0  0  0  0  0
   37.9000   29.5920   44.1860 H   0  0  0  0  0  0  0  0  0  0  0  0
   36.9200   27.8100   43.6800 C   0  0  0  0  0  0  0  0  0  0  0  0
   36.2100   27.9070   44.4840 H   0  0  0  0  0  0  0  0  0  0  0  0
   36.8810   26.7400   42.8190 C   0  0  0  0  0  3  0  0  0  0  0  0
   37.7870   26.6160   41.7930 C   0  0  0  0  0  3  0  0  0  0  0  0
  1 17  1  0  0  0  0
  2  9  1  0  0  0  0
  2  1  2  0  0  0  0
  3  2  1  0  0  0  0
  4  3  2  0  0  0  0
  4  5  1  0  0  0  0
  5  6  2  0  0  0  0
  6  1  1  0  0  0  0
  7  3  1  0  0  0  0
  8  5  1  0  0  0  0
  9 13  2  0  0  0  0
 10  9  1  0  0  0  0
 10 11  2  0  0  0  0
 11 12  1  0  0  0  0
 12 16  1  0  0  0  0
 13 12  1  0  0  0  0
 14 10  1  0  0  0  0
 15 11  1  0  0  0  0
 17 18  1  0  0  0  0
 18 22  1  0  0  0  0
 18 19  2  0  0  0  0
 20 21  1  0  0  0  0
 21 28  2  0  0  0  0
 21 22  1  0  0  0  0
 22 23  2  0  0  0  0
 23 25  1  0  0  0  0
 23 24  1  0  0  0  0
 25 26  1  0  0  0  0
 27 25  2  0  0  0  0
 28 27  1  0  0  0  0
M  END
>  <minimizedAffinity>
-5.46836567

$$$$

 OpenBabel03252508523D

 28 30  0  0  0  0  0  0  0  0999 V2000
   37.0010   26.3120   40.0320 C   0  0  0  0  0  0  0  0  0  0  0  0
   37.1220   26.2080   41.4120 C   0  0  0  0  0  0  0  0  0  0  0  0
   36.8970   24.9350   41.9630 C   0  0  0  0  0  0  0  0  0  0  0  0
   36.5800   23.9070   41.1210 N   0  0  0  0  0  0  0  0  0  0  0  0
   36.4780   24.0670   39.8070 C   0  0  0  0  0  0  0  0  0  0  0  0
   36.6850   25.2650   39.2400 N   0  0  0  0  0  0  0  0  0  0  0  0
   36.9890   24.8400   43.0440 H   0  0  0  0  0  0  0  0  0  0  0  0
   36.2230   23.2130   39.1920 H   0  0  0  0  0  0  0  0  0  0  0  0
   37.4640   27.3700   42.2040 C   0  0  0  0  0  0  0  0  0  0  0  0
   38.7500   27.8560   42.3110 C   0  0  0  0  0  0  0  0  0  0  0  0
   38.6200   28.9440   43.1410 C   0  0  0  0  0  0  0  0  0  0  0  0
   37.3290   29.1150   43.5230 N   0  0  0  0  0  0  0  0  0  0  0  0
   36.6570   28.1490   42.9400 N   0  0  0  0  0  0  0  0  0  0  0  0
   39.6720   27.4900   41.8560 H   0  0  0  0  0  0  0  0  0  0  0  0
   39.4060   29.6070   43.4760 H   0  0  0  0  0  0  0  0  0  0  0  0
   36.8760   29.8200   44.1350 H   0  0  0  0  0  0  0  0  0  0  0  0
   37.2170   27.5520   39.4490 O   0  0  0  0  0  0  0  0  0  0  0  0
   36.2950   28.5460   39.2680 C   0  0  0  0  0  0  0  0  0  0  0  0
   35.0320   28.4200   39.0720 O   0  0  0  0  0  0  0  0  0  0  0  0
   37.0200   29.7910   36.5970 Cl  0  0  0  0  0  0  0  0  0  0  0  0
   37.0140   30.6980   38.1200 C   0  0  0  0  0  0  0  0  0  0  0  0
   36.6580   29.9920   39.2740 C   0  0  0  0  0  0  0  0  0  0  0  0
   36.6850   30.7880   40.3950 C   0  0  0  0  0  0  0  0  0  0  0  0
   36.4230   30.3310   41.3480 H   0  0  0  0  0  0  0  0  0  0  0  0
   37.0170   32.1100   40.4130 C   0  0  0  0  0  0  0  0  0  0  0  0
   37.0130   32.6620   41.3380 H   0  0  0  0  0  0  0  0  0  0  0  0
   37.3520   32.7120   39.2250 C   0  0  0  0  0  3  0  0  0  0  0  0
   37.3560   32.0090   38.0450 C   0  0  0  0  0  3  0  0  0  0  0  0
  1  2  1  0  0  0  0
  2  3  2  0  0  0  0
  2  9  1  0  0  0  0
  3  7  1  0  0  0  0
  4  3  1  0  0  0  0
  5  4  2  0  0  0  0
  6  5  1  0  0  0  0
  6  1  2  0  0  0  0
  8  5  1  0  0  0  0
  9 10  1  0  0  0  0
  9 13  2  0  0  0  0
 10 11  2  0  0  0  0
 11 15  1  0  0  0  0
 11 12  1  0  0  0  0
 12 16  1  0  0  0  0
 13 12  1  0  0  0  0
 14 10  1  0  0  0  0
 17  1  1  0  0  0  0
 18 22  1  0  0  0  0
 18 17  1  0  0  0  0
 19 18  2  0  0  0  0
 20 21  1  0  0  0  0
 21 22  1  0  0  0  0
 22 23  2  0  0  0  0
 23 25  1  0  0  0  0
 23 24  1  0  0  0  0
 25 26  1  0  0  0  0
 27 25  2  0  0  0  0
 28 21  2  0  0  0  0
 28 27  1  0  0  0  0
M  END
>  <minimizedAffinity>
-5.35942459

$$$$

 OpenBabel03252508523D

 28 30  0  0  0  0  0  0  0  0999 V2000
   38.7060   30.9650   40.6700 C   0  0  0  0  0  0  0  0  0  0  0  0
   37.5200   31.4210   40.1080 C   0  0  0  0  0  0  0  0  0  0  0  0
   37.4740   32.7840   39.7700 C   0  0  0  0  0  0  0  0  0  0  0  0
   38.5760   33.5540   40.0130 N   0  0  0  0  0  0  0  0  0  0  0  0
   39.6850   33.0620   40.5540 C   0  0  0  0  0  0  0  0  0  0  0  0
   39.7710   31.7660   40.8920 N   0  0  0  0  0  0  0  0  0  0  0  0
   36.5500   33.1540   39.3280 H   0  0  0  0  0  0  0  0  0  0  0  0
   40.5260   33.7230   40.7220 H   0  0  0  0  0  0  0  0  0  0  0  0
   36.4160   30.5100   39.8980 C   0  0  0  0  0  0  0  0  0  0  0  0
   36.1820   29.8740   38.6970 C   0  0  0  0  0  0  0  0  0  0  0  0
   35.0580   29.1210   38.9380 C   0  0  0  0  0  0  0  0  0  0  0  0
   34.6260   29.2860   40.2140 N   0  0  0  0  0  0  0  0  0  0  0  0
   35.4670   30.1290   40.7670 N   0  0  0  0  0  0  0  0  0  0  0  0
   36.7390   29.9330   37.7590 H   0  0  0  0  0  0  0  0  0  0  0  0
   34.5470   28.4710   38.2430 H   0  0  0  0  0  0  0  0  0  0  0  0
   33.8220   28.8800   40.7300 H   0  0  0  0  0  0  0  0  0  0  0  0
   38.7920   29.6250   41.0180 O   0  0  0  0  0  0  0  0  0  0  0  0
   38.6710   29.0920   42.2710 C   0  0  0  0  0  0  0  0  0  0  0  0
   38.1990   29.6580   43.3230 O   0  0  0  0  0  0  0  0  0  0  0  0
   36.9840   26.8340   41.1470 Cl  0  0  0  0  0  0  0  0  0  0  0  0
   38.4180   26.5650   42.1530 C   0  0  0  0  0  0  0  0  0  0  0  0
   39.0980   27.7020   42.6000 C   0  0  0  0  0  0  0  0  0  0  0  0
   40.1910   27.3810   43.3690 C   0  0  0  0  0  0  0  0  0  0  0  0
   40.7900   28.1980   43.7670 H   0  0  0  0  0  0  0  0  0  0  0  0
   40.5910   26.1150   43.6780 C   0  0  0  0  0  0  0  0  0  0  0  0
   41.4630   25.9500   44.2890 H   0  0  0  0  0  0  0  0  0  0  0  0
   39.8540   25.0630   43.1890 C   0  0  0  0  0  3  0  0  0  0  0  0
   38.7430   25.2730   42.4090 C   0  0  0  0  0  3  0  0  0  0  0  0
  1  6  1  0  0  0  0
  1 17  1  0  0  0  0
  2  1  2  0  0  0  0
  3  4  2  0  0  0  0
  3  2  1  0  0  0  0
  4  5  1  0  0  0  0
  5  8  1  0  0  0  0
  5  6  2  0  0  0  0
  7  3  1  0  0  0  0
  9  2  1  0  0  0  0
  9 13  2  0  0  0  0
 10 11  2  0  0  0  0
 10  9  1  0  0  0  0
 11 12  1  0  0  0  0
 12 16  1  0  0  0  0
 12 13  1  0  0  0  0
 14 10  1  0  0  0  0
 15 11  1  0  0  0  0
 17 18  1  0  0  0  0
 18 22  1  0  0  0  0
 18 19  2  0  0  0  0
 20 21  1  0  0  0  0
 21 28  2  0  0  0  0
 21 22  1  0  0  0  0
 22 23  2  0  0  0  0
 23 25  1  0  0  0  0
 23 24  1  0  0  0  0
 25 26  1  0  0  0  0
 27 25  2  0  0  0  0
 28 27  1  0  0  0  0
M  END
>  <minimizedAffinity>
-5.33960295

$$$$

 OpenBabel03252508523D

 28 30  0  0  0  0  0  0  0  0999 V2000
   37.0910   28.3220   39.1630 C   0  0  0  0  0  0  0  0  0  0  0  0
   36.5040   29.4400   38.5840 C   0  0  0  0  0  0  0  0  0  0  0  0
   35.7000   29.2080   37.4560 C   0  0  0  0  0  0  0  0  0  0  0  0
   35.5530   27.9240   37.0130 N   0  0  0  0  0  0  0  0  0  0  0  0
   36.1400   26.8920   37.6070 C   0  0  0  0  0  0  0  0  0  0  0  0
   36.9160   27.0690   38.6870 N   0  0  0  0  0  0  0  0  0  0  0  0
   35.2330   30.0760   36.9920 H   0  0  0  0  0  0  0  0  0  0  0  0
   35.9850   25.8970   37.2090 H   0  0  0  0  0  0  0  0  0  0  0  0
   36.7330   30.7550   39.1430 C   0  0  0  0  0  0  0  0  0  0  0  0
   37.3920   31.7580   38.4640 C   0  0  0  0  0  0  0  0  0  0  0  0
   37.3840   32.8110   39.3480 C   0  0  0  0  0  0  0  0  0  0  0  0
   36.7570   32.4730   40.5040 N   0  0  0  0  0  0  0  0  0  0  0  0
   36.3760   31.2260   40.3480 N   0  0  0  0  0  0  0  0  0  0  0  0
   37.8270   31.7510   37.4630 H   0  0  0  0  0  0  0  0  0  0  0  0
   37.8060   33.7940   39.1950 H   0  0  0  0  0  0  0  0  0  0  0  0
   36.5710   33.0090   41.3720 H   0  0  0  0  0  0  0  0  0  0  0  0
   37.8930   28.5080   40.2790 O   0  0  0  0  0  0  0  0  0  0  0  0
   37.6680   28.0310   41.5400 C   0  0  0  0  0  0  0  0  0  0  0  0
   36.9430   28.5560   42.4610 O   0  0  0  0  0  0  0  0  0  0  0  0
   40.2770   28.2660   43.0740 Cl  0  0  0  0  0  0  0  0  0  0  0  0
   39.4710   26.7180   42.7620 C   0  0  0  0  0  0  0  0  0  0  0  0
   38.2730   26.7630   42.0420 C   0  0  0  0  0  0  0  0  0  0  0  0
   37.7340   25.5130   41.8570 C   0  0  0  0  0  0  0  0  0  0  0  0
   36.7980   25.4390   41.3060 H   0  0  0  0  0  0  0  0  0  0  0  0
   38.2780   24.3470   42.3090 C   0  0  0  0  0  0  0  0  0  0  0  0
   37.7890   23.4060   42.1200 H   0  0  0  0  0  0  0  0  0  0  0  0
   39.4590   24.4090   43.0080 C   0  0  0  0  0  3  0  0  0  0  0  0
   40.0830   25.6090   43.2490 C   0  0  0  0  0  3  0  0  0  0  0  0
  1 17  1  0  0  0  0
  2  9  1  0  0  0  0
  2  1  2  0  0  0  0
  3  2  1  0  0  0  0
  4  3  2  0  0  0  0
  4  5  1  0  0  0  0
  5  6  2  0  0  0  0
  6  1  1  0  0  0  0
  7  3  1  0  0  0  0
  8  5  1  0  0  0  0
  9 13  2  0  0  0  0
 10  9  1  0  0  0  0
 10 11  2  0  0  0  0
 11 12  1  0  0  0  0
 12 16  1  0  0  0  0
 13 12  1  0  0  0  0
 14 10  1  0  0  0  0
 15 11  1  0  0  0  0
 17 18  1  0  0  0  0
 18 22  1  0  0  0  0
 18 19  2  0  0  0  0
 21 20  1  0  0  0  0
 21 28  1  0  0  0  0
 22 21  2  0  0  0  0
 23 22  1  0  0  0  0
 23 25  2  0  0  0  0
 24 23  1  0  0  0  0
 25 27  1  0  0  0  0
 26 25  1  0  0  0  0
 27 28  2  0  0  0  0
M  END
>  <minimizedAffinity>
-5.32291174

$$$$

 OpenBabel03252508523D

 28 30  0  0  0  0  0  0  0  0999 V2000
   36.2730   27.7350   37.9670 C   0  0  0  0  0  0  0  0  0  0  0  0
   35.3470   28.6990   38.3460 C   0  0  0  0  0  0  0  0  0  0  0  0
   34.0860   28.6270   37.7310 C   0  0  0  0  0  0  0  0  0  0  0  0
   33.8600   27.6340   36.8200 N   0  0  0  0  0  0  0  0  0  0  0  0
   34.7850   26.7390   36.4970 C   0  0  0  0  0  0  0  0  0  0  0  0
   36.0030   26.7710   37.0600 N   0  0  0  0  0  0  0  0  0  0  0  0
   33.3500   29.3770   38.0190 H   0  0  0  0  0  0  0  0  0  0  0  0
   34.5460   25.9750   35.7670 H   0  0  0  0  0  0  0  0  0  0  0  0
   35.7000   29.7050   39.3240 C   0  0  0  0  0  0  0  0  0  0  0  0
   36.6030   30.7160   39.0720 C   0  0  0  0  0  0  0  0  0  0  0  0
   36.6370   31.4250   40.2500 C   0  0  0  0  0  0  0  0  0  0  0  0
   35.8040   30.8790   41.1720 N   0  0  0  0  0  0  0  0  0  0  0  0
   35.2540   29.8430   40.5820 N   0  0  0  0  0  0  0  0  0  0  0  0
   37.1710   30.9320   38.1650 H   0  0  0  0  0  0  0  0  0  0  0  0
   37.2290   32.3030   40.4650 H   0  0  0  0  0  0  0  0  0  0  0  0
   35.5840   31.1480   42.1490 H   0  0  0  0  0  0  0  0  0  0  0  0
   37.5300   27.7710   38.5510 O   0  0  0  0  0  0  0  0  0  0  0  0
   37.9610   27.0340   39.6190 C   0  0  0  0  0  0  0  0  0  0  0  0
   38.5390   25.8870   39.6000 O   0  0  0  0  0  0  0  0  0  0  0  0
   39.7630   29.2970   40.5390 Cl  0  0  0  0  0  0  0  0  0  0  0  0
   38.5650   28.5220   41.5910 C   0  0  0  0  0  0  0  0  0  0  0  0
   37.8040   27.4910   41.0300 C   0  0  0  0  0  0  0  0  0  0  0  0
   36.9090   26.9620   41.9290 C   0  0  0  0  0  0  0  0  0  0  0  0
   36.2660   26.1510   41.5890 H   0  0  0  0  0  0  0  0  0  0  0  0
   36.7570   27.3700   43.2210 C   0  0  0  0  0  0  0  0  0  0  0  0
   36.0290   26.9000   43.8610 H   0  0  0  0  0  0  0  0  0  0  0  0
   37.5540   28.3920   43.6770 C   0  0  0  0  0  3  0  0  0  0  0  0
   38.4820   28.9920   42.8610 C   0  0  0  0  0  3  0  0  0  0  0  0
  1  2  1  0  0  0  0
  1 17  1  0  0  0  0
  2  9  1  0  0  0  0
  3  7  1  0  0  0  0
  3  2  2  0  0  0  0
  4  3  1  0  0  0  0
  5  4  2  0  0  0  0
  5  6  1  0  0  0  0
  6  1  2  0  0  0  0
  8  5  1  0  0  0  0
  9 13  2  0  0  0  0
 10  9  1  0  0  0  0
 10 11  2  0  0  0  0
 11 15  1  0  0  0  0
 11 12  1  0  0  0  0
 12 16  1  0  0  0  0
 13 12  1  0  0  0  0
 14 10  1  0  0  0  0
 17 18  1  0  0  0  0
 18 22  1  0  0  0  0
 19 18  2  0  0  0  0
 20 21  1  0  0  0  0
 21 28  1  0  0  0  0
 22 21  2  0  0  0  0
 22 23  1  0  0  0  0
 23 25  2  0  0  0  0
 24 23  1  0  0  0  0
 25 27  1  0  0  0  0
 25 26  1  0  0  0  0
 28 27  2  0  0  0  0
M  END
>  <minimizedAffinity>
-5.20480824

$$$$

 OpenBabel03252508523D

 28 30  0  0  0  0  0  0  0  0999 V2000
   37.6020   28.5400   38.0390 C   0  0  0  0  0  0  0  0  0  0  0  0
   36.5960   29.4980   38.0370 C   0  0  0  0  0  0  0  0  0  0  0  0
   35.4980   29.2470   37.1970 C   0  0  0  0  0  0  0  0  0  0  0  0
   35.4950   28.1020   36.4530 N   0  0  0  0  0  0  0  0  0  0  0  0
   36.4870   27.2200   36.4950 C   0  0  0  0  0  0  0  0  0  0  0  0
   37.5540   27.4200   37.2840 N   0  0  0  0  0  0  0  0  0  0  0  0
   34.7020   29.9910   37.1860 H   0  0  0  0  0  0  0  0  0  0  0  0
   36.4270   26.3310   35.8820 H   0  0  0  0  0  0  0  0  0  0  0  0
   36.7090   30.6750   38.8700 C   0  0  0  0  0  0  0  0  0  0  0  0
   37.2970   31.8470   38.4430 C   0  0  0  0  0  0  0  0  0  0  0  0
   37.1910   32.6820   39.5300 C   0  0  0  0  0  0  0  0  0  0  0  0
   36.5730   32.0580   40.5650 N   0  0  0  0  0  0  0  0  0  0  0  0
   36.2950   30.8490   40.1350 N   0  0  0  0  0  0  0  0  0  0  0  0
   37.7490   32.0870   37.4780 H   0  0  0  0  0  0  0  0  0  0  0  0
   37.5360   33.7040   39.6040 H   0  0  0  0  0  0  0  0  0  0  0  0
   36.3310   32.3810   41.5210 H   0  0  0  0  0  0  0  0  0  0  0  0
   38.7020   28.7500   38.8560 O   0  0  0  0  0  0  0  0  0  0  0  0
   39.0950   27.9830   39.9180 C   0  0  0  0  0  0  0  0  0  0  0  0
   40.0870   27.1680   39.9750 O   0  0  0  0  0  0  0  0  0  0  0  0
   37.0570   25.7820   40.3840 Cl  0  0  0  0  0  0  0  0  0  0  0  0
   37.4150   27.0410   41.5790 C   0  0  0  0  0  0  0  0  0  0  0  0
   38.3790   27.9910   41.2270 C   0  0  0  0  0  0  0  0  0  0  0  0
   38.5800   28.9170   42.2220 C   0  0  0  0  0  0  0  0  0  0  0  0
   39.3140   29.7020   42.0450 H   0  0  0  0  0  0  0  0  0  0  0  0
   37.9320   28.9370   43.4210 C   0  0  0  0  0  0  0  0  0  0  0  0
   38.1490   29.7010   44.1480 H   0  0  0  0  0  0  0  0  0  0  0  0
   37.0000   27.9580   43.6720 C   0  0  0  0  0  3  0  0  0  0  0  0
   36.7230   26.9830   42.7440 C   0  0  0  0  0  3  0  0  0  0  0  0
  1 17  1  0  0  0  0
  2  1  1  0  0  0  0
  2  9  1  0  0  0  0
  3  2  2  0  0  0  0
  4  5  2  0  0  0  0
  4  3  1  0  0  0  0
  5  6  1  0  0  0  0
  6  1  2  0  0  0  0
  7  3  1  0  0  0  0
  8  5  1  0  0  0  0
  9 13  2  0  0  0  0
 10  9  1  0  0  0  0
 10 11  2  0  0  0  0
 11 15  1  0  0  0  0
 11 12  1  0  0  0  0
 12 16  1  0  0  0  0
 13 12  1  0  0  0  0
 14 10  1  0  0  0  0
 17 18  1  0  0  0  0
 18 19  2  0  0  0  0
 18 22  1  0  0  0  0
 20 21  1  0  0  0  0
 21 28  1  0  0  0  0
 22 21  2  0  0  0  0
 22 23  1  0  0  0  0
 23 25  2  0  0  0  0
 24 23  1  0  0  0  0
 25 27  1  0  0  0  0
 25 26  1  0  0  0  0
 28 27  2  0  0  0  0
M  END
>  <minimizedAffinity>
-5.13075209

$$$$

 OpenBabel03252508523D

 28 30  0  0  0  0  0  0  0  0999 V2000
   39.6380   28.9860   40.5140 C   0  0  0  0  0  0  0  0  0  0  0  0
   38.6330   29.3540   39.6280 C   0  0  0  0  0  0  0  0  0  0  0  0
   39.0230   29.5620   38.2940 C   0  0  0  0  0  0  0  0  0  0  0  0
   40.3390   29.3930   37.9660 N   0  0  0  0  0  0  0  0  0  0  0  0
   41.2570   29.0400   38.8570 C   0  0  0  0  0  0  0  0  0  0  0  0
   40.9280   28.8310   40.1410 N   0  0  0  0  0  0  0  0  0  0  0  0
   38.2450   29.8510   37.5890 H   0  0  0  0  0  0  0  0  0  0  0  0
   42.2840   28.9220   38.5360 H   0  0  0  0  0  0  0  0  0  0  0  0
   37.2710   29.5020   40.0920 C   0  0  0  0  0  0  0  0  0  0  0  0
   36.3080   28.5290   39.9260 C   0  0  0  0  0  0  0  0  0  0  0  0
   35.1860   29.0770   40.5020 C   0  0  0  0  0  0  0  0  0  0  0  0
   35.4460   30.3150   40.9940 N   0  0  0  0  0  0  0  0  0  0  0  0
   36.7120   30.5430   40.7300 N   0  0  0  0  0  0  0  0  0  0  0  0
   36.3850   27.5480   39.4540 H   0  0  0  0  0  0  0  0  0  0  0  0
   34.2070   28.6270   40.5800 H   0  0  0  0  0  0  0  0  0  0  0  0
   34.8450   31.0050   41.4830 H   0  0  0  0  0  0  0  0  0  0  0  0
   39.2940   28.7700   41.8390 O   0  0  0  0  0  0  0  0  0  0  0  0
   39.4550   27.6140   42.5520 C   0  0  0  0  0  0  0  0  0  0  0  0
   40.1540   27.4380   43.6150 O   0  0  0  0  0  0  0  0  0  0  0  0
   36.5440   27.2600   43.3330 Cl  0  0  0  0  0  0  0  0  0  0  0  0
   37.4690   26.0290   42.4580 C   0  0  0  0  0  0  0  0  0  0  0  0
   38.8030   26.3300   42.1640 C   0  0  0  0  0  0  0  0  0  0  0  0
   39.4260   25.3100   41.4850 C   0  0  0  0  0  0  0  0  0  0  0  0
   40.4700   25.4480   41.2090 H   0  0  0  0  0  0  0  0  0  0  0  0
   38.8420   24.1320   41.1260 C   0  0  0  0  0  0  0  0  0  0  0  0
   39.4030   23.3830   40.5930 H   0  0  0  0  0  0  0  0  0  0  0  0
   37.5250   23.9310   41.4610 C   0  0  0  0  0  3  0  0  0  0  0  0
   36.8080   24.8870   42.1400 C   0  0  0  0  0  3  0  0  0  0  0  0
  1 17  1  0  0  0  0
  2  9  1  0  0  0  0
  2  1  2  0  0  0  0
  3  2  1  0  0  0  0
  4  3  2  0  0  0  0
  4  5  1  0  0  0  0
  5  6  2  0  0  0  0
  6  1  1  0  0  0  0
  7  3  1  0  0  0  0
  8  5  1  0  0  0  0
  9 13  2  0  0  0  0
 10  9  1  0  0  0  0
 10 11  2  0  0  0  0
 11 15  1  0  0  0  0
 11 12  1  0  0  0  0
 12 16  1  0  0  0  0
 13 12  1  0  0  0  0
 14 10  1  0  0  0  0
 17 18  1  0  0  0  0
 18 19  2  0  0  0  0
 21 20  1  0  0  0  0
 22 21  1  0  0  0  0
 22 18  1  0  0  0  0
 23 22  2  0  0  0  0
 24 23  1  0  0  0  0
 25 27  2  0  0  0  0
 25 23  1  0  0  0  0
 26 25  1  0  0  0  0
 27 28  1  0  0  0  0
 28 21  2  0  0  0  0
M  END
>  <minimizedAffinity>
-5.06236315

$$$$

 OpenBabel03252508523D

 28 30  0  0  0  0  0  0  0  0999 V2000
   37.8290   29.5760   39.7340 C   0  0  0  0  0  0  0  0  0  0  0  0
   37.9620   30.8590   39.2190 C   0  0  0  0  0  0  0  0  0  0  0  0
   37.2700   31.1260   38.0260 C   0  0  0  0  0  0  0  0  0  0  0  0
   36.5290   30.1250   37.4640 N   0  0  0  0  0  0  0  0  0  0  0  0
   36.4390   28.9150   38.0030 C   0  0  0  0  0  0  0  0  0  0  0  0
   37.0840   28.6180   39.1420 N   0  0  0  0  0  0  0  0  0  0  0  0
   37.3650   32.1290   37.6110 H   0  0  0  0  0  0  0  0  0  0  0  0
   35.8360   28.1630   37.5100 H   0  0  0  0  0  0  0  0  0  0  0  0
   38.7760   31.8390   39.9040 C   0  0  0  0  0  0  0  0  0  0  0  0
   40.1030   32.0610   39.6000 C   0  0  0  0  0  0  0  0  0  0  0  0
   40.4770   33.0530   40.4750 C   0  0  0  0  0  0  0  0  0  0  0  0
   39.4410   33.4180   41.2710 N   0  0  0  0  0  0  0  0  0  0  0  0
   38.4290   32.6670   40.9010 N   0  0  0  0  0  0  0  0  0  0  0  0
   40.7340   31.5820   38.8490 H   0  0  0  0  0  0  0  0  0  0  0  0
   41.4510   33.5140   40.5600 H   0  0  0  0  0  0  0  0  0  0  0  0
   39.3660   34.1210   42.0310 H   0  0  0  0  0  0  0  0  0  0  0  0
   38.4960   29.2730   40.9120 O   0  0  0  0  0  0  0  0  0  0  0  0
   37.9900   28.6100   41.9950 C   0  0  0  0  0  0  0  0  0  0  0  0
   37.3600   29.1090   42.9970 O   0  0  0  0  0  0  0  0  0  0  0  0
   40.5780   27.5730   43.1960 Cl  0  0  0  0  0  0  0  0  0  0  0  0
   39.2440   26.5150   42.7040 C   0  0  0  0  0  0  0  0  0  0  0  0
   38.1110   27.1330   42.1660 C   0  0  0  0  0  0  0  0  0  0  0  0
   37.1410   26.2240   41.8200 C   0  0  0  0  0  0  0  0  0  0  0  0
   36.2160   26.6060   41.3910 H   0  0  0  0  0  0  0  0  0  0  0  0
   37.2400   24.8720   41.9700 C   0  0  0  0  0  0  0  0  0  0  0  0
   36.4300   24.2280   41.6720 H   0  0  0  0  0  0  0  0  0  0  0  0
   38.3960   24.3610   42.5090 C   0  0  0  0  0  3  0  0  0  0  0  0
   39.4290   25.1830   42.8900 C   0  0  0  0  0  3  0  0  0  0  0  0
  1 17  1  0  0  0  0
  2  1  1  0  0  0  0
  2  9  1  0  0  0  0
  3  2  2  0  0  0  0
  4  5  2  0  0  0  0
  4  3  1  0  0  0  0
  5  6  1  0  0  0  0
  6  1  2  0  0  0  0
  7  3  1  0  0  0  0
  8  5  1  0  0  0  0
  9 13  2  0  0  0  0
 10  9  1  0  0  0  0
 10 11  2  0  0  0  0
 11 15  1  0  0  0  0
 11 12  1  0  0  0  0
 12 16  1  0  0  0  0
 13 12  1  0  0  0  0
 14 10  1  0  0  0  0
 17 18  1  0  0  0  0
 18 22  1  0  0  0  0
 18 19  2  0  0  0  0
 21 28  1  0  0  0  0
 21 20  1  0  0  0  0
 22 21  2  0  0  0  0
 23 25  2  0  0  0  0
 23 22  1  0  0  0  0
 24 23  1  0  0  0  0
 25 27  1  0  0  0  0
 26 25  1  0  0  0  0
 27 28  2  0  0  0  0
M  END
>  <minimizedAffinity>
-5.03017426

$$$$
