
 OpenBabel03242517013D

 32 34  0  0  0  0  0  0  0  0999 V2000
   40.4660   30.5440   42.1590 C   0  0  0  0  0  0  0  0  0  0  0  0
   41.6540   30.8500   42.8250 C   0  0  0  0  0  0  0  0  0  0  0  0
   42.4100   31.9200   42.3710 C   0  0  0  0  0  0  0  0  0  0  0  0
   41.9910   32.6500   41.2960 C   0  0  0  0  0  0  0  0  0  0  0  0
   40.8240   32.3770   40.6120 C   0  0  0  0  0  0  0  0  0  0  0  0
   40.0880   31.2930   41.0960 C   0  0  0  0  0  0  0  0  0  0  0  0
   41.9760   30.2580   43.6830 H   0  0  0  0  0  0  0  0  0  0  0  0
   43.3400   32.1990   42.8540 H   0  0  0  0  0  0  0  0  0  0  0  0
   42.5640   33.5010   40.9120 H   0  0  0  0  0  0  0  0  0  0  0  0
   40.4380   32.9150   39.7570 H   0  0  0  0  0  0  0  0  0  0  0  0
   39.3720   27.1240   43.3250 C   0  0  0  0  0  0  0  0  0  0  0  0
   40.2060   28.1380   42.8110 C   0  0  0  0  0  0  0  0  0  0  0  0
   39.7130   29.4170   42.6730 C   0  0  0  0  0  0  0  0  0  0  0  0
   38.4090   29.6280   43.0520 N   0  0  0  0  0  0  0  0  0  0  0  0
   37.6170   28.6550   43.5420 C   0  0  0  0  0  0  0  0  0  0  0  0
   38.0990   27.3990   43.6790 N   0  0  0  0  0  0  0  0  0  0  0  0
   39.8220   26.1470   43.4060 H   0  0  0  0  0  0  0  0  0  0  0  0
   41.2260   27.9630   42.5170 H   0  0  0  0  0  0  0  0  0  0  0  0
   36.5970   28.8560   43.8300 H   0  0  0  0  0  0  0  0  0  0  0  0
   37.6450   31.5580   40.1380 C   0  0  0  0  0  0  0  0  0  0  0  0
   37.3730   32.7430   40.3310 O   0  0  0  0  0  0  0  0  0  0  0  0
   38.8660   30.9050   40.4840 N   0  0  0  0  0  0  0  0  0  0  0  0
   39.0480   29.8760   40.2980 H   0  0  0  0  0  0  0  0  0  0  0  0
   37.6540   31.1750   37.1060 Cl  0  0  0  0  0  0  0  0  0  0  0  0
   36.5310   30.3680   38.1470 C   0  0  0  0  0  0  0  0  0  0  0  0
   36.6670   30.6520   39.4900 C   0  0  0  0  0  0  0  0  0  0  0  0
   35.8110   30.0530   40.4110 C   0  0  0  0  0  0  0  0  0  0  0  0
   35.8510   30.2250   41.4970 H   0  0  0  0  0  0  0  0  0  0  0  0
   34.8250   29.1740   40.0110 C   0  0  0  0  0  0  0  0  0  0  0  0
   34.1500   28.7020   40.7330 H   0  0  0  0  0  0  0  0  0  0  0  0
   34.6750   28.8760   38.6560 C   0  0  0  0  0  3  0  0  0  0  0  0
   35.5460   29.4910   37.7540 C   0  0  0  0  0  3  0  0  0  0  0  0
  1 13  1  0  0  0  0
  1  2  1  0  0  0  0
  2  7  1  0  0  0  0
  3  2  2  0  0  0  0
  3  8  1  0  0  0  0
  4  3  1  0  0  0  0
  5  6  1  0  0  0  0
  5  4  2  0  0  0  0
  6  1  2  0  0  0  0
  9  4  1  0  0  0  0
 10  5  1  0  0  0  0
 11 17  1  0  0  0  0
 11 16  1  0  0  0  0
 12 11  2  0  0  0  0
 13 12  1  0  0  0  0
 13 14  2  0  0  0  0
 14 15  1  0  0  0  0
 15 16  2  0  0  0  0
 15 19  1  0  0  0  0
 18 12  1  0  0  0  0
 20 21  2  0  0  0  0
 20 22  1  0  0  0  0
 22  6  1  0  0  0  0
 23 22  1  0  0  0  0
 24 25  1  0  0  0  0
 25 26  1  0  0  0  0
 26 20  1  0  0  0  0
 26 27  2  0  0  0  0
 27 28  1  0  0  0  0
 29 27  1  0  0  0  0
 29 30  1  0  0  0  0
 31 29  2  0  0  0  0
 32 25  2  0  0  0  0
 32 31  1  0  0  0  0
M  END
>  <minimizedAffinity>
-5.88385677

$$$$

 OpenBabel03242517013D

 32 34  0  0  0  0  0  0  0  0999 V2000
   37.3640   31.2730   39.9510 C   0  0  0  0  0  0  0  0  0  0  0  0
   37.3090   32.6040   39.5360 C   0  0  0  0  0  0  0  0  0  0  0  0
   38.2320   33.4980   40.0570 C   0  0  0  0  0  0  0  0  0  0  0  0
   39.1680   33.0730   40.9560 C   0  0  0  0  0  0  0  0  0  0  0  0
   39.2520   31.7660   41.3910 C   0  0  0  0  0  0  0  0  0  0  0  0
   38.3070   30.8930   40.8450 C   0  0  0  0  0  0  0  0  0  0  0  0
   36.5560   32.9300   38.8160 H   0  0  0  0  0  0  0  0  0  0  0  0
   38.2330   34.5430   39.7670 H   0  0  0  0  0  0  0  0  0  0  0  0
   39.9110   33.7520   41.3880 H   0  0  0  0  0  0  0  0  0  0  0  0
   39.9660   31.3660   42.0980 H   0  0  0  0  0  0  0  0  0  0  0  0
   35.3250   29.1220   37.6130 C   0  0  0  0  0  0  0  0  0  0  0  0
   36.3390   29.9970   38.0530 C   0  0  0  0  0  0  0  0  0  0  0  0
   36.3780   30.3790   39.3760 C   0  0  0  0  0  0  0  0  0  0  0  0
   35.4040   29.8710   40.2010 N   0  0  0  0  0  0  0  0  0  0  0  0
   34.4380   29.0340   39.7740 C   0  0  0  0  0  0  0  0  0  0  0  0
   34.3980   28.6580   38.4760 N   0  0  0  0  0  0  0  0  0  0  0  0
   35.3540   28.8640   36.5650 H   0  0  0  0  0  0  0  0  0  0  0  0
   37.0970   30.3900   37.3980 H   0  0  0  0  0  0  0  0  0  0  0  0
   33.6890   28.6540   40.4510 H   0  0  0  0  0  0  0  0  0  0  0  0
   38.0070   28.7820   42.3970 C   0  0  0  0  0  0  0  0  0  0  0  0
   37.6980   29.2550   43.4920 O   0  0  0  0  0  0  0  0  0  0  0  0
   38.2830   29.5200   41.2070 N   0  0  0  0  0  0  0  0  0  0  0  0
   38.5490   29.0610   40.2870 H   0  0  0  0  0  0  0  0  0  0  0  0
   40.3100   27.2340   43.6760 Cl  0  0  0  0  0  0  0  0  0  0  0  0
   39.0920   26.4700   42.7110 C   0  0  0  0  0  0  0  0  0  0  0  0
   38.1250   27.3160   42.2120 C   0  0  0  0  0  0  0  0  0  0  0  0
   37.0990   26.7990   41.4220 C   0  0  0  0  0  0  0  0  0  0  0  0
   36.2900   27.4040   40.9850 H   0  0  0  0  0  0  0  0  0  0  0  0
   37.0260   25.4540   41.1270 C   0  0  0  0  0  0  0  0  0  0  0  0
   36.2220   25.0440   40.5070 H   0  0  0  0  0  0  0  0  0  0  0  0
   37.9990   24.5850   41.6260 C   0  0  0  0  0  3  0  0  0  0  0  0
   39.0160   25.1290   42.4140 C   0  0  0  0  0  3  0  0  0  0  0  0
  1  6  1  0  0  0  0
  2  1  2  0  0  0  0
  2  3  1  0  0  0  0
  3  4  2  0  0  0  0
  4  9  1  0  0  0  0
  4  5  1  0  0  0  0
  5 10  1  0  0  0  0
  6 22  1  0  0  0  0
  6  5  2  0  0  0  0
  7  2  1  0  0  0  0
  8  3  1  0  0  0  0
 11 12  2  0  0  0  0
 11 16  1  0  0  0  0
 12 13  1  0  0  0  0
 13  1  1  0  0  0  0
 13 14  2  0  0  0  0
 15 14  1  0  0  0  0
 15 19  1  0  0  0  0
 16 15  2  0  0  0  0
 17 11  1  0  0  0  0
 18 12  1  0  0  0  0
 20 21  2  0  0  0  0
 22 20  1  0  0  0  0
 23 22  1  0  0  0  0
 25 24  1  0  0  0  0
 26 20  1  0  0  0  0
 26 25  2  0  0  0  0
 27 26  1  0  0  0  0
 28 27  1  0  0  0  0
 29 27  2  0  0  0  0
 29 31  1  0  0  0  0
 30 29  1  0  0  0  0
 31 32  2  0  0  0  0
 32 25  1  0  0  0  0
M  END
>  <minimizedAffinity>
-5.85876369

$$$$

 OpenBabel03242517013D

 32 34  0  0  0  0  0  0  0  0999 V2000
   36.9240   25.8940   40.7720 C   0  0  0  0  0  0  0  0  0  0  0  0
   36.8470   24.5720   41.2150 C   0  0  0  0  0  0  0  0  0  0  0  0
   36.3530   23.6120   40.3450 C   0  0  0  0  0  0  0  0  0  0  0  0
   35.9540   23.9640   39.0870 C   0  0  0  0  0  0  0  0  0  0  0  0
   36.0150   25.2590   38.6160 C   0  0  0  0  0  0  0  0  0  0  0  0
   36.5180   26.2000   39.5180 C   0  0  0  0  0  0  0  0  0  0  0  0
   37.1690   24.3050   42.2220 H   0  0  0  0  0  0  0  0  0  0  0  0
   36.2730   22.5710   40.6400 H   0  0  0  0  0  0  0  0  0  0  0  0
   35.5600   23.2310   38.3760 H   0  0  0  0  0  0  0  0  0  0  0  0
   35.7170   25.6020   37.6340 H   0  0  0  0  0  0  0  0  0  0  0  0
   37.3930   28.2590   43.6770 C   0  0  0  0  0  0  0  0  0  0  0  0
   36.7750   27.3160   42.8310 C   0  0  0  0  0  0  0  0  0  0  0  0
   37.4480   26.8590   41.7190 C   0  0  0  0  0  0  0  0  0  0  0  0
   38.7080   27.3620   41.5010 N   0  0  0  0  0  0  0  0  0  0  0  0
   39.2930   28.2630   42.3150 C   0  0  0  0  0  0  0  0  0  0  0  0
   38.6340   28.7130   43.4060 N   0  0  0  0  0  0  0  0  0  0  0  0
   36.8100   28.5740   44.5290 H   0  0  0  0  0  0  0  0  0  0  0  0
   35.7880   26.9280   43.0100 H   0  0  0  0  0  0  0  0  0  0  0  0
   40.2840   28.6370   42.1120 H   0  0  0  0  0  0  0  0  0  0  0  0
   35.7260   28.6450   38.9230 C   0  0  0  0  0  0  0  0  0  0  0  0
   34.4970   28.5870   38.9890 O   0  0  0  0  0  0  0  0  0  0  0  0
   36.6350   27.5700   39.1590 N   0  0  0  0  0  0  0  0  0  0  0  0
   37.6890   27.6730   39.0850 H   0  0  0  0  0  0  0  0  0  0  0  0
   36.2090   30.7890   41.0460 Cl  0  0  0  0  0  0  0  0  0  0  0  0
   36.7010   30.9780   39.3970 C   0  0  0  0  0  0  0  0  0  0  0  0
   36.4060   29.9130   38.5720 C   0  0  0  0  0  0  0  0  0  0  0  0
   36.7600   29.9670   37.2250 C   0  0  0  0  0  0  0  0  0  0  0  0
   36.5620   29.1630   36.5010 H   0  0  0  0  0  0  0  0  0  0  0  0
   37.4040   31.0660   36.6940 C   0  0  0  0  0  0  0  0  0  0  0  0
   37.6830   31.1110   35.6360 H   0  0  0  0  0  0  0  0  0  0  0  0
   37.7090   32.1510   37.5170 C   0  0  0  0  0  3  0  0  0  0  0  0
   37.3420   32.0710   38.8620 C   0  0  0  0  0  3  0  0  0  0  0  0
  1  2  1  0  0  0  0
  1 13  1  0  0  0  0
  2  7  1  0  0  0  0
  3  8  1  0  0  0  0
  3  2  2  0  0  0  0
  4  3  1  0  0  0  0
  5  4  2  0  0  0  0
  5  6  1  0  0  0  0
  6  1  2  0  0  0  0
  9  4  1  0  0  0  0
 10  5  1  0  0  0  0
 11 17  1  0  0  0  0
 12 18  1  0  0  0  0
 12 11  2  0  0  0  0
 13 12  1  0  0  0  0
 14 13  2  0  0  0  0
 14 15  1  0  0  0  0
 15 16  2  0  0  0  0
 16 11  1  0  0  0  0
 19 15  1  0  0  0  0
 20 21  2  0  0  0  0
 20 22  1  0  0  0  0
 22  6  1  0  0  0  0
 23 22  1  0  0  0  0
 25 24  1  0  0  0  0
 26 20  1  0  0  0  0
 26 25  2  0  0  0  0
 27 26  1  0  0  0  0
 28 27  1  0  0  0  0
 29 27  2  0  0  0  0
 29 31  1  0  0  0  0
 30 29  1  0  0  0  0
 31 32  2  0  0  0  0
 32 25  1  0  0  0  0
M  END
>  <minimizedAffinity>
-5.81120968

$$$$

 OpenBabel03242517013D

 32 34  0  0  0  0  0  0  0  0999 V2000
   36.6580   26.2280   39.9270 C   0  0  0  0  0  0  0  0  0  0  0  0
   36.3350   24.8730   39.8290 C   0  0  0  0  0  0  0  0  0  0  0  0
   36.5910   24.0520   40.9170 C   0  0  0  0  0  0  0  0  0  0  0  0
   37.1460   24.5690   42.0520 C   0  0  0  0  0  0  0  0  0  0  0  0
   37.4790   25.9010   42.1850 C   0  0  0  0  0  0  0  0  0  0  0  0
   37.2070   26.6990   41.0710 C   0  0  0  0  0  0  0  0  0  0  0  0
   35.8910   24.4740   38.9150 H   0  0  0  0  0  0  0  0  0  0  0  0
   36.3580   22.9930   40.8910 H   0  0  0  0  0  0  0  0  0  0  0  0
   37.3600   23.9490   42.9280 H   0  0  0  0  0  0  0  0  0  0  0  0
   37.9190   26.3710   43.0540 H   0  0  0  0  0  0  0  0  0  0  0  0
   36.5410   27.7020   36.4540 C   0  0  0  0  0  0  0  0  0  0  0  0
   36.8980   26.8360   37.5080 C   0  0  0  0  0  0  0  0  0  0  0  0
   36.3700   27.0430   38.7630 C   0  0  0  0  0  0  0  0  0  0  0  0
   35.5080   28.1030   38.9120 N   0  0  0  0  0  0  0  0  0  0  0  0
   35.1710   28.9260   37.9000 C   0  0  0  0  0  0  0  0  0  0  0  0
   35.6890   28.7250   36.6660 N   0  0  0  0  0  0  0  0  0  0  0  0
   36.9920   27.4820   35.4980 H   0  0  0  0  0  0  0  0  0  0  0  0
   37.5740   26.0090   37.3810 H   0  0  0  0  0  0  0  0  0  0  0  0
   34.4920   29.7500   38.0520 H   0  0  0  0  0  0  0  0  0  0  0  0
   37.5600   29.1170   42.0640 C   0  0  0  0  0  0  0  0  0  0  0  0
   37.3350   28.9830   43.2670 O   0  0  0  0  0  0  0  0  0  0  0  0
   37.5010   28.0890   41.0750 N   0  0  0  0  0  0  0  0  0  0  0  0
   37.7020   28.2590   40.0470 H   0  0  0  0  0  0  0  0  0  0  0  0
   40.3310   30.2950   42.5890 Cl  0  0  0  0  0  0  0  0  0  0  0  0
   39.1310   31.1110   41.6440 C   0  0  0  0  0  0  0  0  0  0  0  0
   37.9360   30.4370   41.5060 C   0  0  0  0  0  0  0  0  0  0  0  0
   36.9040   31.0100   40.7640 C   0  0  0  0  0  0  0  0  0  0  0  0
   35.9220   30.5400   40.6050 H   0  0  0  0  0  0  0  0  0  0  0  0
   37.0510   32.2410   40.1590 C   0  0  0  0  0  0  0  0  0  0  0  0
   36.2420   32.6940   39.5760 H   0  0  0  0  0  0  0  0  0  0  0  0
   38.2550   32.9350   40.2910 C   0  0  0  0  0  3  0  0  0  0  0  0
   39.2710   32.3390   41.0400 C   0  0  0  0  0  3  0  0  0  0  0  0
  1  6  1  0  0  0  0
  2  1  2  0  0  0  0
  2  3  1  0  0  0  0
  3  4  2  0  0  0  0
  4  5  1  0  0  0  0
  4  9  1  0  0  0  0
  5 10  1  0  0  0  0
  6 22  1  0  0  0  0
  6  5  2  0  0  0  0
  7  2  1  0  0  0  0
  8  3  1  0  0  0  0
 11 16  2  0  0  0  0
 11 12  1  0  0  0  0
 12 13  2  0  0  0  0
 13 14  1  0  0  0  0
 13  1  1  0  0  0  0
 15 19  1  0  0  0  0
 15 14  2  0  0  0  0
 16 15  1  0  0  0  0
 17 11  1  0  0  0  0
 18 12  1  0  0  0  0
 20 21  2  0  0  0  0
 22 20  1  0  0  0  0
 23 22  1  0  0  0  0
 25 24  1  0  0  0  0
 26 25  1  0  0  0  0
 26 20  1  0  0  0  0
 27 26  2  0  0  0  0
 28 27  1  0  0  0  0
 29 31  2  0  0  0  0
 29 27  1  0  0  0  0
 30 29  1  0  0  0  0
 31 32  1  0  0  0  0
 32 25  2  0  0  0  0
M  END
>  <minimizedAffinity>
-5.5184288

$$$$

 OpenBabel03242517013D

 32 34  0  0  0  0  0  0  0  0999 V2000
   35.9310   27.8960   38.6560 C   0  0  0  0  0  0  0  0  0  0  0  0
   35.0930   28.1940   37.5800 C   0  0  0  0  0  0  0  0  0  0  0  0
   34.6080   27.1480   36.8100 C   0  0  0  0  0  0  0  0  0  0  0  0
   34.9500   25.8610   37.1070 C   0  0  0  0  0  0  0  0  0  0  0  0
   35.7760   25.5270   38.1620 C   0  0  0  0  0  0  0  0  0  0  0  0
   36.2450   26.6050   38.9160 C   0  0  0  0  0  0  0  0  0  0  0  0
   34.8280   29.2290   37.3540 H   0  0  0  0  0  0  0  0  0  0  0  0
   33.9530   27.3270   35.9640 H   0  0  0  0  0  0  0  0  0  0  0  0
   34.5850   25.0120   36.5200 H   0  0  0  0  0  0  0  0  0  0  0  0
   36.0830   24.5310   38.4490 H   0  0  0  0  0  0  0  0  0  0  0  0
   36.2130   30.8730   40.9610 C   0  0  0  0  0  0  0  0  0  0  0  0
   35.6290   29.7980   40.2610 C   0  0  0  0  0  0  0  0  0  0  0  0
   36.4100   29.0250   39.4300 C   0  0  0  0  0  0  0  0  0  0  0  0
   37.7390   29.3590   39.3330 N   0  0  0  0  0  0  0  0  0  0  0  0
   38.2910   30.3880   40.0040 C   0  0  0  0  0  0  0  0  0  0  0  0
   37.5260   31.1480   40.8210 N   0  0  0  0  0  0  0  0  0  0  0  0
   35.5450   31.4360   41.5940 H   0  0  0  0  0  0  0  0  0  0  0  0
   34.5870   29.5440   40.3440 H   0  0  0  0  0  0  0  0  0  0  0  0
   39.3390   30.6230   39.9040 H   0  0  0  0  0  0  0  0  0  0  0  0
   37.1810   25.4620   41.1010 C   0  0  0  0  0  0  0  0  0  0  0  0
   36.4140   24.5190   41.2980 O   0  0  0  0  0  0  0  0  0  0  0  0
   37.1030   26.4020   40.0300 N   0  0  0  0  0  0  0  0  0  0  0  0
   37.7910   27.2020   39.9070 H   0  0  0  0  0  0  0  0  0  0  0  0
   37.1560   27.8710   42.9800 Cl  0  0  0  0  0  0  0  0  0  0  0  0
   38.4720   26.7470   42.9180 C   0  0  0  0  0  0  0  0  0  0  0  0
   38.3190   25.7170   42.0150 C   0  0  0  0  0  0  0  0  0  0  0  0
   39.3230   24.7580   41.8880 C   0  0  0  0  0  0  0  0  0  0  0  0
   39.2810   23.9060   41.1930 H   0  0  0  0  0  0  0  0  0  0  0  0
   40.4710   24.8140   42.6500 C   0  0  0  0  0  0  0  0  0  0  0  0
   41.2620   24.0630   42.5530 H   0  0  0  0  0  0  0  0  0  0  0  0
   40.6390   25.8510   43.5690 C   0  0  0  0  0  3  0  0  0  0  0  0
   39.6190   26.7990   43.6750 C   0  0  0  0  0  3  0  0  0  0  0  0
  1  6  1  0  0  0  0
  1 13  1  0  0  0  0
  2  1  2  0  0  0  0
  3  4  2  0  0  0  0
  3  2  1  0  0  0  0
  4  5  1  0  0  0  0
  5 10  1  0  0  0  0
  5  6  2  0  0  0  0
  6 22  1  0  0  0  0
  7  2  1  0  0  0  0
  8  3  1  0  0  0  0
  9  4  1  0  0  0  0
 11 17  1  0  0  0  0
 12 18  1  0  0  0  0
 12 11  2  0  0  0  0
 13 12  1  0  0  0  0
 14 13  2  0  0  0  0
 14 15  1  0  0  0  0
 15 16  2  0  0  0  0
 16 11  1  0  0  0  0
 19 15  1  0  0  0  0
 20 21  2  0  0  0  0
 20 26  1  0  0  0  0
 22 20  1  0  0  0  0
 23 22  1  0  0  0  0
 25 24  1  0  0  0  0
 25 32  1  0  0  0  0
 26 25  2  0  0  0  0
 27 26  1  0  0  0  0
 27 29  2  0  0  0  0
 28 27  1  0  0  0  0
 29 31  1  0  0  0  0
 30 29  1  0  0  0  0
 31 32  2  0  0  0  0
M  END
>  <minimizedAffinity>
-5.36760044

$$$$

 OpenBabel03242517013D

 32 34  0  0  0  0  0  0  0  0999 V2000
   37.5740   30.5260   39.6390 C   0  0  0  0  0  0  0  0  0  0  0  0
   37.2400   31.7100   38.9770 C   0  0  0  0  0  0  0  0  0  0  0  0
   37.6990   32.9100   39.4980 C   0  0  0  0  0  0  0  0  0  0  0  0
   38.4580   32.9210   40.6320 C   0  0  0  0  0  0  0  0  0  0  0  0
   38.8070   31.7730   41.3140 C   0  0  0  0  0  0  0  0  0  0  0  0
   38.3280   30.5830   40.7620 C   0  0  0  0  0  0  0  0  0  0  0  0
   36.6330   31.6850   38.0710 H   0  0  0  0  0  0  0  0  0  0  0  0
   37.4680   33.8560   39.0210 H   0  0  0  0  0  0  0  0  0  0  0  0
   38.8360   33.8510   41.0690 H   0  0  0  0  0  0  0  0  0  0  0  0
   39.4030   31.7150   42.2140 H   0  0  0  0  0  0  0  0  0  0  0  0
   35.3740   27.7280   38.3810 C   0  0  0  0  0  0  0  0  0  0  0  0
   35.7380   28.9540   38.9730 C   0  0  0  0  0  0  0  0  0  0  0  0
   37.0700   29.2990   39.0540 C   0  0  0  0  0  0  0  0  0  0  0  0
   37.9790   28.4060   38.5410 N   0  0  0  0  0  0  0  0  0  0  0  0
   37.6230   27.2350   37.9760 C   0  0  0  0  0  0  0  0  0  0  0  0
   36.3170   26.8950   37.8950 N   0  0  0  0  0  0  0  0  0  0  0  0
   34.3150   27.5220   38.3500 H   0  0  0  0  0  0  0  0  0  0  0  0
   35.0190   29.6470   39.3720 H   0  0  0  0  0  0  0  0  0  0  0  0
   38.3650   26.5570   37.5830 H   0  0  0  0  0  0  0  0  0  0  0  0
   38.2230   28.6570   42.5620 C   0  0  0  0  0  0  0  0  0  0  0  0
   37.4620   29.0950   43.4250 O   0  0  0  0  0  0  0  0  0  0  0  0
   38.6140   29.3280   41.3640 N   0  0  0  0  0  0  0  0  0  0  0  0
   39.2790   28.9060   40.6520 H   0  0  0  0  0  0  0  0  0  0  0  0
   36.8890   26.2040   41.3210 Cl  0  0  0  0  0  0  0  0  0  0  0  0
   38.3710   26.1130   42.2110 C   0  0  0  0  0  0  0  0  0  0  0  0
   38.8350   27.3150   42.7010 C   0  0  0  0  0  0  0  0  0  0  0  0
   40.0210   27.3490   43.4320 C   0  0  0  0  0  0  0  0  0  0  0  0
   40.4600   28.2640   43.8570 H   0  0  0  0  0  0  0  0  0  0  0  0
   40.7480   26.2020   43.6770 C   0  0  0  0  0  0  0  0  0  0  0  0
   41.6810   26.2250   44.2510 H   0  0  0  0  0  0  0  0  0  0  0  0
   40.2910   24.9780   43.1860 C   0  0  0  0  0  3  0  0  0  0  0  0
   39.0990   24.9720   42.4580 C   0  0  0  0  0  3  0  0  0  0  0  0
  1  6  1  0  0  0  0
  2  3  1  0  0  0  0
  2  1  2  0  0  0  0
  3  4  2  0  0  0  0
  4  9  1  0  0  0  0
  4  5  1  0  0  0  0
  5 10  1  0  0  0  0
  6  5  2  0  0  0  0
  6 22  1  0  0  0  0
  7  2  1  0  0  0  0
  8  3  1  0  0  0  0
 11 12  1  0  0  0  0
 12 13  2  0  0  0  0
 12 18  1  0  0  0  0
 13  1  1  0  0  0  0
 14 13  1  0  0  0  0
 15 14  2  0  0  0  0
 16 15  1  0  0  0  0
 16 11  2  0  0  0  0
 17 11  1  0  0  0  0
 19 15  1  0  0  0  0
 20 26  1  0  0  0  0
 20 21  2  0  0  0  0
 22 20  1  0  0  0  0
 23 22  1  0  0  0  0
 24 25  1  0  0  0  0
 25 32  2  0  0  0  0
 25 26  1  0  0  0  0
 26 27  2  0  0  0  0
 27 29  1  0  0  0  0
 27 28  1  0  0  0  0
 29 30  1  0  0  0  0
 31 29  2  0  0  0  0
 32 31  1  0  0  0  0
M  END
>  <minimizedAffinity>
-5.3670249

$$$$

 OpenBabel03242517013D

 32 34  0  0  0  0  0  0  0  0999 V2000
   36.6400   29.2200   38.5680 C   0  0  0  0  0  0  0  0  0  0  0  0
   35.9270   29.6840   37.4610 C   0  0  0  0  0  0  0  0  0  0  0  0
   35.1060   28.7950   36.7850 C   0  0  0  0  0  0  0  0  0  0  0  0
   35.0070   27.4980   37.2010 C   0  0  0  0  0  0  0  0  0  0  0  0
   35.6970   27.0040   38.2890 C   0  0  0  0  0  0  0  0  0  0  0  0
   36.5140   27.9270   38.9470 C   0  0  0  0  0  0  0  0  0  0  0  0
   36.0160   30.7230   37.1400 H   0  0  0  0  0  0  0  0  0  0  0  0
   34.5300   29.1050   35.9190 H   0  0  0  0  0  0  0  0  0  0  0  0
   34.3680   26.7710   36.6900 H   0  0  0  0  0  0  0  0  0  0  0  0
   35.6620   25.9920   38.6690 H   0  0  0  0  0  0  0  0  0  0  0  0
   37.9490   32.1890   40.4990 C   0  0  0  0  0  0  0  0  0  0  0  0
   37.0260   31.3200   39.8810 C   0  0  0  0  0  0  0  0  0  0  0  0
   37.4840   30.1900   39.2410 C   0  0  0  0  0  0  0  0  0  0  0  0
   38.8410   29.9760   39.2440 N   0  0  0  0  0  0  0  0  0  0  0  0
   39.7170   30.8100   39.8360 C   0  0  0  0  0  0  0  0  0  0  0  0
   39.2700   31.9210   40.4660 N   0  0  0  0  0  0  0  0  0  0  0  0
   37.5220   33.0550   40.9820 H   0  0  0  0  0  0  0  0  0  0  0  0
   35.9650   31.4970   39.8840 H   0  0  0  0  0  0  0  0  0  0  0  0
   40.7770   30.6110   39.8190 H   0  0  0  0  0  0  0  0  0  0  0  0
   37.1240   27.6520   41.4980 C   0  0  0  0  0  0  0  0  0  0  0  0
   36.1710   28.1590   42.0910 O   0  0  0  0  0  0  0  0  0  0  0  0
   37.2790   27.5500   40.0830 N   0  0  0  0  0  0  0  0  0  0  0  0
   38.1250   27.1050   39.6210 H   0  0  0  0  0  0  0  0  0  0  0  0
   37.2010   24.6630   42.1290 Cl  0  0  0  0  0  0  0  0  0  0  0  0
   38.4530   25.7550   42.6180 C   0  0  0  0  0  0  0  0  0  0  0  0
   38.2610   27.0690   42.2500 C   0  0  0  0  0  0  0  0  0  0  0  0
   39.2120   28.0270   42.5960 C   0  0  0  0  0  0  0  0  0  0  0  0
   39.1350   29.0950   42.3410 H   0  0  0  0  0  0  0  0  0  0  0  0
   40.3490   27.6900   43.3000 C   0  0  0  0  0  0  0  0  0  0  0  0
   41.0980   28.4410   43.5740 H   0  0  0  0  0  0  0  0  0  0  0  0
   40.5570   26.3630   43.6800 C   0  0  0  0  0  3  0  0  0  0  0  0
   39.5880   25.4240   43.3210 C   0  0  0  0  0  3  0  0  0  0  0  0
  1  6  1  0  0  0  0
  1 13  1  0  0  0  0
  2  1  2  0  0  0  0
  3  4  2  0  0  0  0
  3  2  1  0  0  0  0
  4  5  1  0  0  0  0
  5 10  1  0  0  0  0
  5  6  2  0  0  0  0
  6 22  1  0  0  0  0
  7  2  1  0  0  0  0
  8  3  1  0  0  0  0
  9  4  1  0  0  0  0
 11 17  1  0  0  0  0
 12 18  1  0  0  0  0
 12 11  2  0  0  0  0
 13 14  2  0  0  0  0
 13 12  1  0  0  0  0
 14 15  1  0  0  0  0
 15 16  2  0  0  0  0
 16 11  1  0  0  0  0
 19 15  1  0  0  0  0
 20 21  2  0  0  0  0
 20 26  1  0  0  0  0
 22 20  1  0  0  0  0
 23 22  1  0  0  0  0
 24 25  1  0  0  0  0
 25 32  1  0  0  0  0
 26 27  1  0  0  0  0
 26 25  2  0  0  0  0
 27 29  2  0  0  0  0
 28 27  1  0  0  0  0
 29 30  1  0  0  0  0
 29 31  1  0  0  0  0
 32 31  2  0  0  0  0
M  END
>  <minimizedAffinity>
-5.33910322

$$$$

 OpenBabel03242517013D

 32 34  0  0  0  0  0  0  0  0999 V2000
   37.6810   27.3300   41.4390 C   0  0  0  0  0  0  0  0  0  0  0  0
   37.5940   26.0120   41.8920 C   0  0  0  0  0  0  0  0  0  0  0  0
   38.5400   25.5620   42.8000 C   0  0  0  0  0  0  0  0  0  0  0  0
   39.5290   26.3970   43.2330 C   0  0  0  0  0  0  0  0  0  0  0  0
   39.6480   27.7040   42.8070 C   0  0  0  0  0  0  0  0  0  0  0  0
   38.6780   28.1240   41.8930 C   0  0  0  0  0  0  0  0  0  0  0  0
   36.7980   25.3550   41.5370 H   0  0  0  0  0  0  0  0  0  0  0  0
   38.5170   24.5470   43.1830 H   0  0  0  0  0  0  0  0  0  0  0  0
   40.2920   26.0730   43.9490 H   0  0  0  0  0  0  0  0  0  0  0  0
   40.4040   28.4150   43.1110 H   0  0  0  0  0  0  0  0  0  0  0  0
   35.4850   27.7300   38.3940 C   0  0  0  0  0  0  0  0  0  0  0  0
   36.5100   27.2340   39.2250 C   0  0  0  0  0  0  0  0  0  0  0  0
   36.6670   27.7510   40.4920 C   0  0  0  0  0  0  0  0  0  0  0  0
   35.7940   28.7400   40.8750 N   0  0  0  0  0  0  0  0  0  0  0  0
   34.8160   29.2100   40.0760 C   0  0  0  0  0  0  0  0  0  0  0  0
   34.6600   28.7030   38.8320 N   0  0  0  0  0  0  0  0  0  0  0  0
   35.4180   27.2800   37.4160 H   0  0  0  0  0  0  0  0  0  0  0  0
   37.1890   26.4590   38.9150 H   0  0  0  0  0  0  0  0  0  0  0  0
   34.1480   29.9880   40.4100 H   0  0  0  0  0  0  0  0  0  0  0  0
   39.3160   30.1140   40.2830 C   0  0  0  0  0  0  0  0  0  0  0  0
   40.0870   29.6050   39.4690 O   0  0  0  0  0  0  0  0  0  0  0  0
   38.6830   29.4470   41.3750 N   0  0  0  0  0  0  0  0  0  0  0  0
   38.0270   29.9350   42.0520 H   0  0  0  0  0  0  0  0  0  0  0  0
   41.2320   32.2640   41.3040 Cl  0  0  0  0  0  0  0  0  0  0  0  0
   39.6940   32.6390   40.6020 C   0  0  0  0  0  0  0  0  0  0  0  0
   38.9560   31.5480   40.1920 C   0  0  0  0  0  0  0  0  0  0  0  0
   37.7030   31.7430   39.6140 C   0  0  0  0  0  0  0  0  0  0  0  0
   37.0510   30.9300   39.2610 H   0  0  0  0  0  0  0  0  0  0  0  0
   37.1810   33.0080   39.4380 C   0  0  0  0  0  0  0  0  0  0  0  0
   36.1960   33.1650   38.9850 H   0  0  0  0  0  0  0  0  0  0  0  0
   37.9170   34.1210   39.8480 C   0  0  0  0  0  3  0  0  0  0  0  0
   39.1690   33.8980   40.4250 C   0  0  0  0  0  3  0  0  0  0  0  0
  1  2  2  0  0  0  0
  1  6  1  0  0  0  0
  2  3  1  0  0  0  0
  3  8  1  0  0  0  0
  3  4  2  0  0  0  0
  4  9  1  0  0  0  0
  5 10  1  0  0  0  0
  5  4  1  0  0  0  0
  6  5  2  0  0  0  0
  7  2  1  0  0  0  0
 11 16  2  0  0  0  0
 11 12  1  0  0  0  0
 12 13  2  0  0  0  0
 13 14  1  0  0  0  0
 13  1  1  0  0  0  0
 15 19  1  0  0  0  0
 15 14  2  0  0  0  0
 16 15  1  0  0  0  0
 17 11  1  0  0  0  0
 18 12  1  0  0  0  0
 20 22  1  0  0  0  0
 21 20  2  0  0  0  0
 22  6  1  0  0  0  0
 22 23  1  0  0  0  0
 25 24  1  0  0  0  0
 26 20  1  0  0  0  0
 26 25  2  0  0  0  0
 27 26  1  0  0  0  0
 28 27  1  0  0  0  0
 29 27  2  0  0  0  0
 29 31  1  0  0  0  0
 30 29  1  0  0  0  0
 31 32  2  0  0  0  0
 32 25  1  0  0  0  0
M  END
>  <minimizedAffinity>
-5.3385148

$$$$

 OpenBabel03242517013D

 32 34  0  0  0  0  0  0  0  0999 V2000
   36.6640   29.2540   38.7460 C   0  0  0  0  0  0  0  0  0  0  0  0
   35.8930   29.6690   37.6590 C   0  0  0  0  0  0  0  0  0  0  0  0
   35.0670   28.7430   37.0420 C   0  0  0  0  0  0  0  0  0  0  0  0
   35.0170   27.4560   37.4970 C   0  0  0  0  0  0  0  0  0  0  0  0
   35.7650   27.0090   38.5680 C   0  0  0  0  0  0  0  0  0  0  0  0
   36.5860   27.9690   39.1650 C   0  0  0  0  0  0  0  0  0  0  0  0
   35.9430   30.7010   37.3060 H   0  0  0  0  0  0  0  0  0  0  0  0
   34.4480   29.0150   36.1940 H   0  0  0  0  0  0  0  0  0  0  0  0
   34.3760   26.7000   37.0330 H   0  0  0  0  0  0  0  0  0  0  0  0
   35.7700   26.0080   38.9760 H   0  0  0  0  0  0  0  0  0  0  0  0
   37.9810   32.2370   40.6490 C   0  0  0  0  0  0  0  0  0  0  0  0
   37.0560   31.3210   40.1100 C   0  0  0  0  0  0  0  0  0  0  0  0
   37.5110   30.2610   39.3560 C   0  0  0  0  0  0  0  0  0  0  0  0
   38.8690   30.1620   39.1740 N   0  0  0  0  0  0  0  0  0  0  0  0
   39.7480   31.0420   39.6920 C   0  0  0  0  0  0  0  0  0  0  0  0
   39.3040   32.0820   40.4320 N   0  0  0  0  0  0  0  0  0  0  0  0
   37.5570   33.0420   41.2290 H   0  0  0  0  0  0  0  0  0  0  0  0
   35.9940   31.4070   40.2580 H   0  0  0  0  0  0  0  0  0  0  0  0
   40.8090   30.9330   39.5280 H   0  0  0  0  0  0  0  0  0  0  0  0
   37.2290   27.5690   41.6910 C   0  0  0  0  0  0  0  0  0  0  0  0
   36.1910   27.8130   42.3080 O   0  0  0  0  0  0  0  0  0  0  0  0
   37.4070   27.6420   40.2770 N   0  0  0  0  0  0  0  0  0  0  0  0
   38.3270   27.4240   39.7950 H   0  0  0  0  0  0  0  0  0  0  0  0
   39.0850   29.6570   42.9310 Cl  0  0  0  0  0  0  0  0  0  0  0  0
   39.3980   27.9560   43.0210 C   0  0  0  0  0  0  0  0  0  0  0  0
   38.4570   27.1540   42.4100 C   0  0  0  0  0  0  0  0  0  0  0  0
   38.6170   25.7700   42.4260 C   0  0  0  0  0  0  0  0  0  0  0  0
   37.9150   25.0600   41.9630 H   0  0  0  0  0  0  0  0  0  0  0  0
   39.6990   25.1780   43.0440 C   0  0  0  0  0  0  0  0  0  0  0  0
   39.8280   24.0910   43.0590 H   0  0  0  0  0  0  0  0  0  0  0  0
   40.6590   25.9780   43.6680 C   0  0  0  0  0  3  0  0  0  0  0  0
   40.4750   27.3610   43.6360 C   0  0  0  0  0  3  0  0  0  0  0  0
  1  6  1  0  0  0  0
  1 13  1  0  0  0  0
  2  1  2  0  0  0  0
  3  4  2  0  0  0  0
  3  2  1  0  0  0  0
  4  5  1  0  0  0  0
  5 10  1  0  0  0  0
  5  6  2  0  0  0  0
  6 22  1  0  0  0  0
  7  2  1  0  0  0  0
  8  3  1  0  0  0  0
  9  4  1  0  0  0  0
 11 17  1  0  0  0  0
 12 18  1  0  0  0  0
 12 11  2  0  0  0  0
 13 12  1  0  0  0  0
 14 13  2  0  0  0  0
 14 15  1  0  0  0  0
 15 16  2  0  0  0  0
 16 11  1  0  0  0  0
 19 15  1  0  0  0  0
 20 21  2  0  0  0  0
 20 26  1  0  0  0  0
 22 20  1  0  0  0  0
 23 22  1  0  0  0  0
 24 25  1  0  0  0  0
 25 32  1  0  0  0  0
 26 27  1  0  0  0  0
 26 25  2  0  0  0  0
 27 29  2  0  0  0  0
 28 27  1  0  0  0  0
 29 30  1  0  0  0  0
 29 31  1  0  0  0  0
 32 31  2  0  0  0  0
M  END
>  <minimizedAffinity>
-5.33623648

$$$$
