
 OpenBabel03242513103D

 20 21  0  0  0  0  0  0  0  0999 V2000
   45.5260   33.1720   46.5900 C   0  0  0  0  0  0  0  0  0  0  0  0
   44.9940   33.4730   47.6850 O   0  0  0  0  0  0  0  0  0  0  0  0
   44.6070   35.9870   44.4820 C   0  0  0  0  0  0  0  0  0  0  0  0
   45.3240   35.8040   43.2950 C   0  0  0  0  0  0  0  0  0  0  0  0
   46.1390   34.6680   43.2480 C   0  0  0  0  0  0  0  0  0  0  0  0
   46.2000   33.8170   44.3230 N   0  0  0  0  0  0  0  0  0  0  0  0
   45.4810   34.0550   45.4380 C   0  0  0  0  0  0  0  0  0  0  0  0
   44.6920   35.1400   45.5020 N   0  0  0  0  0  0  0  0  0  0  0  0
   43.9460   36.8450   44.6090 H   0  0  0  0  0  0  0  0  0  0  0  0
   45.2370   36.4990   42.4910 H   0  0  0  0  0  0  0  0  0  0  0  0
   46.7270   34.4720   42.3400 H   0  0  0  0  0  0  0  0  0  0  0  0
   44.7360   31.2540   48.7020 Cl  0  0  0  0  0  0  0  0  0  0  0  0
   45.9170   30.9210   47.4320 C   0  0  0  0  0  0  0  0  0  0  0  0
   46.2040   31.8800   46.5110 C   0  0  0  0  0  0  0  0  0  0  0  0
   47.1340   31.5690   45.5370 C   0  0  0  0  0  0  0  0  0  0  0  0
   47.3800   32.3190   44.7900 H   0  0  0  0  0  0  0  0  0  0  0  0
   47.7390   30.3320   45.5170 C   0  0  0  0  0  0  0  0  0  0  0  0
   48.4800   30.0860   44.7420 H   0  0  0  0  0  0  0  0  0  0  0  0
   47.4360   29.3530   46.4710 C   0  0  0  0  0  0  0  0  0  0  0  0
   46.5060   29.6760   47.4360 C   0  0  0  0  0  0  0  0  0  0  0  0
  1  2  2  0  0  0  0
  3  9  1  0  0  0  0
  3  8  1  0  0  0  0
  4  3  2  0  0  0  0
  5  4  1  0  0  0  0
  5  6  2  0  0  0  0
  6  7  1  0  0  0  0
  7  8  2  0  0  0  0
  7  1  1  0  0  0  0
 10  4  1  0  0  0  0
 11  5  1  0  0  0  0
 13 20  1  0  0  0  0
 13 12  1  0  0  0  0
 14  1  1  0  0  0  0
 14 13  2  0  0  0  0
 15 14  1  0  0  0  0
 16 15  1  0  0  0  0
 17 15  2  0  0  0  0
 17 19  1  0  0  0  0
 18 17  1  0  0  0  0
 19 20  2  0  0  0  0
M  END
>  <minimizedAffinity>
-4.55785036

>  <minimizedRMSD>
1.00050426

$$$$
