
 OpenBabel03242518513D

 23 24  0  0  0  0  0  0  0  0999 V2000
   37.9910   28.6340   43.2980 C   0  0  0  0  0  0  0  0  0  0  0  0
   38.1650   27.2360   43.2500 C   0  0  0  0  0  0  0  0  0  0  0  0
   37.5120   26.5680   42.1980 C   0  0  0  0  0  0  0  0  0  0  0  0
   36.7830   27.2970   41.3310 N   0  0  0  0  0  0  0  0  0  0  0  0
   36.6370   28.6320   41.4050 C   0  0  0  0  0  0  0  0  0  0  0  0
   37.2470   29.3040   42.3970 N   0  0  0  0  0  0  0  0  0  0  0  0
   38.4820   29.1880   44.0990 H   0  0  0  0  0  0  0  0  0  0  0  0
   38.7670   26.7610   43.9930 H   0  0  0  0  0  0  0  0  0  0  0  0
   37.7040   25.1160   42.1660 C   0  0  0  0  0  0  0  0  0  0  0  0
   37.9080   24.7130   40.8450 F   0  0  0  0  0  0  0  0  0  0  0  0
   36.4660   24.5530   42.5120 F   0  0  0  0  0  0  0  0  0  0  0  0
   38.7140   24.6720   42.9400 F   0  0  0  0  0  0  0  0  0  0  0  0
   35.8380   29.3810   40.4440 C   0  0  0  0  0  0  0  0  0  0  0  0
   34.5960   29.2110   40.3530 O   0  0  0  0  0  0  0  0  0  0  0  0
   36.4070   28.1350   37.8490 Cl  0  0  0  0  0  0  0  0  0  0  0  0
   36.7660   29.7940   38.3170 C   0  0  0  0  0  0  0  0  0  0  0  0
   36.4790   30.3520   39.5640 C   0  0  0  0  0  0  0  0  0  0  0  0
   36.8100   31.6680   39.8110 C   0  0  0  0  0  0  0  0  0  0  0  0
   36.5420   31.9930   40.8070 H   0  0  0  0  0  0  0  0  0  0  0  0
   37.4190   32.4070   38.8170 C   0  0  0  0  0  0  0  0  0  0  0  0
   37.6520   33.4200   39.0640 H   0  0  0  0  0  0  0  0  0  0  0  0
   37.7000   31.8490   37.5830 C   0  0  0  0  0  3  0  0  0  0  0  0
   37.3770   30.5390   37.3210 C   0  0  0  0  0  3  0  0  0  0  0  0
  1  7  1  0  0  0  0
  2  1  1  0  0  0  0
  2  8  1  0  0  0  0
  3  2  2  0  0  0  0
  4  5  2  0  0  0  0
  4  3  1  0  0  0  0
  5  6  1  0  0  0  0
  6  1  2  0  0  0  0
  9  3  1  0  0  0  0
  9 11  1  0  0  0  0
  9 12  1  0  0  0  0
 10  9  1  0  0  0  0
 13  5  1  0  0  0  0
 14 13  2  0  0  0  0
 15 16  1  0  0  0  0
 16 17  1  0  0  0  0
 17 18  2  0  0  0  0
 17 13  1  0  0  0  0
 18 19  1  0  0  0  0
 20 21  1  0  0  0  0
 20 18  1  0  0  0  0
 22 20  2  0  0  0  0
 23 22  1  0  0  0  0
 23 16  2  0  0  0  0
M  END
>  <minimizedAffinity>
-5.47997332

$$$$

 OpenBabel03242518513D

 23 24  0  0  0  0  0  0  0  0999 V2000
   38.4480   28.4940   43.3200 C   0  0  0  0  0  0  0  0  0  0  0  0
   38.3240   27.1020   43.1270 C   0  0  0  0  0  0  0  0  0  0  0  0
   37.4350   26.6960   42.1150 C   0  0  0  0  0  0  0  0  0  0  0  0
   36.7810   27.6460   41.4180 N   0  0  0  0  0  0  0  0  0  0  0  0
   36.9220   28.9670   41.6270 C   0  0  0  0  0  0  0  0  0  0  0  0
   37.7640   29.3920   42.5860 N   0  0  0  0  0  0  0  0  0  0  0  0
   39.1290   28.8480   44.0950 H   0  0  0  0  0  0  0  0  0  0  0  0
   38.8930   26.4390   43.7400 H   0  0  0  0  0  0  0  0  0  0  0  0
   37.3180   25.2480   41.9310 C   0  0  0  0  0  0  0  0  0  0  0  0
   38.5380   24.6480   42.2550 F   0  0  0  0  0  0  0  0  0  0  0  0
   37.1880   25.0410   40.5490 F   0  0  0  0  0  0  0  0  0  0  0  0
   36.3260   24.6750   42.6410 F   0  0  0  0  0  0  0  0  0  0  0  0
   36.1950   29.9600   40.8490 C   0  0  0  0  0  0  0  0  0  0  0  0
   36.1250   31.1590   41.2210 O   0  0  0  0  0  0  0  0  0  0  0  0
   38.0220   30.3400   38.5840 Cl  0  0  0  0  0  0  0  0  0  0  0  0
   36.3690   29.7370   38.5080 C   0  0  0  0  0  0  0  0  0  0  0  0
   35.5290   29.5700   39.6110 C   0  0  0  0  0  0  0  0  0  0  0  0
   34.2500   29.0880   39.4230 C   0  0  0  0  0  0  0  0  0  0  0  0
   33.6910   28.9990   40.3430 H   0  0  0  0  0  0  0  0  0  0  0  0
   33.8280   28.7810   38.1440 C   0  0  0  0  0  0  0  0  0  0  0  0
   32.8300   28.4110   38.0590 H   0  0  0  0  0  0  0  0  0  0  0  0
   34.6650   28.9480   37.0560 C   0  0  0  0  0  3  0  0  0  0  0  0
   35.9420   29.4280   37.2270 C   0  0  0  0  0  3  0  0  0  0  0  0
  1  7  1  0  0  0  0
  2  1  1  0  0  0  0
  2  8  1  0  0  0  0
  3  2  2  0  0  0  0
  4  5  2  0  0  0  0
  4  3  1  0  0  0  0
  5  6  1  0  0  0  0
  6  1  2  0  0  0  0
  9  3  1  0  0  0  0
  9 10  1  0  0  0  0
  9 12  1  0  0  0  0
 11  9  1  0  0  0  0
 13 14  2  0  0  0  0
 13  5  1  0  0  0  0
 16 15  1  0  0  0  0
 16 17  1  0  0  0  0
 17 13  1  0  0  0  0
 18 17  2  0  0  0  0
 18 19  1  0  0  0  0
 20 18  1  0  0  0  0
 21 20  1  0  0  0  0
 22 23  1  0  0  0  0
 22 20  2  0  0  0  0
 23 16  2  0  0  0  0
M  END
>  <minimizedAffinity>
-5.46961021

$$$$

 OpenBabel03242518513D

 23 24  0  0  0  0  0  0  0  0999 V2000
   35.6100   29.5370   40.0620 C   0  0  0  0  0  0  0  0  0  0  0  0
   36.4640   30.6520   39.9440 C   0  0  0  0  0  0  0  0  0  0  0  0
   37.5220   30.7200   40.8690 C   0  0  0  0  0  0  0  0  0  0  0  0
   37.6400   29.7350   41.7810 N   0  0  0  0  0  0  0  0  0  0  0  0
   36.8060   28.6830   41.8670 C   0  0  0  0  0  0  0  0  0  0  0  0
   35.7840   28.5850   40.9990 N   0  0  0  0  0  0  0  0  0  0  0  0
   34.7780   29.4480   39.3630 H   0  0  0  0  0  0  0  0  0  0  0  0
   36.2750   31.3740   39.1810 H   0  0  0  0  0  0  0  0  0  0  0  0
   38.3980   31.8860   40.7310 C   0  0  0  0  0  0  0  0  0  0  0  0
   37.6220   33.0030   40.4130 F   0  0  0  0  0  0  0  0  0  0  0  0
   39.1670   31.6590   39.5790 F   0  0  0  0  0  0  0  0  0  0  0  0
   39.1500   32.1480   41.8180 F   0  0  0  0  0  0  0  0  0  0  0  0
   36.9710   27.6400   42.8700 C   0  0  0  0  0  0  0  0  0  0  0  0
   36.0410   27.3430   43.6620 O   0  0  0  0  0  0  0  0  0  0  0  0
   36.8380   25.1970   41.2490 Cl  0  0  0  0  0  0  0  0  0  0  0  0
   38.2090   25.7460   42.2090 C   0  0  0  0  0  0  0  0  0  0  0  0
   38.2340   26.9170   42.9690 C   0  0  0  0  0  0  0  0  0  0  0  0
   39.3710   27.2400   43.6800 C   0  0  0  0  0  0  0  0  0  0  0  0
   39.2780   28.1650   44.2300 H   0  0  0  0  0  0  0  0  0  0  0  0
   40.4620   26.3950   43.6240 C   0  0  0  0  0  0  0  0  0  0  0  0
   41.3140   26.6960   44.1940 H   0  0  0  0  0  0  0  0  0  0  0  0
   40.4310   25.2370   42.8700 C   0  0  0  0  0  3  0  0  0  0  0  0
   39.3060   24.9010   42.1550 C   0  0  0  0  0  3  0  0  0  0  0  0
  1  6  1  0  0  0  0
  2  1  2  0  0  0  0
  2  3  1  0  0  0  0
  3  4  2  0  0  0  0
  4  5  1  0  0  0  0
  5 13  1  0  0  0  0
  6  5  2  0  0  0  0
  7  1  1  0  0  0  0
  8  2  1  0  0  0  0
  9  3  1  0  0  0  0
  9 12  1  0  0  0  0
 10  9  1  0  0  0  0
 11  9  1  0  0  0  0
 13 17  1  0  0  0  0
 13 14  2  0  0  0  0
 15 16  1  0  0  0  0
 16 17  1  0  0  0  0
 17 18  2  0  0  0  0
 18 19  1  0  0  0  0
 20 18  1  0  0  0  0
 20 21  1  0  0  0  0
 22 20  2  0  0  0  0
 23 16  2  0  0  0  0
 23 22  1  0  0  0  0
M  END
>  <minimizedAffinity>
-5.39102507

$$$$

 OpenBabel03242518513D

 23 24  0  0  0  0  0  0  0  0999 V2000
   37.5080   30.5430   41.1020 C   0  0  0  0  0  0  0  0  0  0  0  0
   36.7760   30.3810   39.9070 C   0  0  0  0  0  0  0  0  0  0  0  0
   36.1140   29.1490   39.7520 C   0  0  0  0  0  0  0  0  0  0  0  0
   36.2240   28.2350   40.7350 N   0  0  0  0  0  0  0  0  0  0  0  0
   36.9310   28.4210   41.8640 C   0  0  0  0  0  0  0  0  0  0  0  0
   37.5770   29.5860   42.0470 N   0  0  0  0  0  0  0  0  0  0  0  0
   38.0350   31.4850   41.2590 H   0  0  0  0  0  0  0  0  0  0  0  0
   36.7590   31.1760   39.1950 H   0  0  0  0  0  0  0  0  0  0  0  0
   35.3600   28.9990   38.5050 C   0  0  0  0  0  0  0  0  0  0  0  0
   35.5180   27.6940   38.0320 F   0  0  0  0  0  0  0  0  0  0  0  0
   36.0200   29.7930   37.5550 F   0  0  0  0  0  0  0  0  0  0  0  0
   34.0480   29.2900   38.6100 F   0  0  0  0  0  0  0  0  0  0  0  0
   37.0220   27.4030   42.9020 C   0  0  0  0  0  0  0  0  0  0  0  0
   36.0610   27.1750   43.6790 O   0  0  0  0  0  0  0  0  0  0  0  0
   36.6610   24.7500   41.7000 Cl  0  0  0  0  0  0  0  0  0  0  0  0
   38.1130   25.3540   42.4920 C   0  0  0  0  0  0  0  0  0  0  0  0
   38.2470   26.6260   43.0530 C   0  0  0  0  0  0  0  0  0  0  0  0
   39.4390   26.9820   43.6480 C   0  0  0  0  0  0  0  0  0  0  0  0
   39.4290   27.9870   44.0470 H   0  0  0  0  0  0  0  0  0  0  0  0
   40.4770   26.0720   43.6750 C   0  0  0  0  0  0  0  0  0  0  0  0
   41.3760   26.4030   44.1480 H   0  0  0  0  0  0  0  0  0  0  0  0
   40.3380   24.8140   43.1170 C   0  0  0  0  0  3  0  0  0  0  0  0
   39.1560   24.4430   42.5210 C   0  0  0  0  0  3  0  0  0  0  0  0
  1  7  1  0  0  0  0
  1  6  1  0  0  0  0
  2  1  2  0  0  0  0
  3  2  1  0  0  0  0
  3  4  2  0  0  0  0
  4  5  1  0  0  0  0
  5  6  2  0  0  0  0
  5 13  1  0  0  0  0
  8  2  1  0  0  0  0
  9 12  1  0  0  0  0
  9  3  1  0  0  0  0
 10  9  1  0  0  0  0
 11  9  1  0  0  0  0
 13 17  1  0  0  0  0
 13 14  2  0  0  0  0
 15 16  1  0  0  0  0
 16 23  2  0  0  0  0
 16 17  1  0  0  0  0
 17 18  2  0  0  0  0
 18 20  1  0  0  0  0
 18 19  1  0  0  0  0
 20 21  1  0  0  0  0
 22 20  2  0  0  0  0
 23 22  1  0  0  0  0
M  END
>  <minimizedAffinity>
-5.26470804

$$$$

 OpenBabel03242518513D

 23 24  0  0  0  0  0  0  0  0999 V2000
   37.3880   28.7200   43.4260 C   0  0  0  0  0  0  0  0  0  0  0  0
   37.1990   27.3280   43.3060 C   0  0  0  0  0  0  0  0  0  0  0  0
   37.6210   26.7500   42.0940 C   0  0  0  0  0  0  0  0  0  0  0  0
   38.1630   27.5520   41.1570 N   0  0  0  0  0  0  0  0  0  0  0  0
   38.3300   28.8780   41.3030 C   0  0  0  0  0  0  0  0  0  0  0  0
   37.9390   29.4650   42.4490 N   0  0  0  0  0  0  0  0  0  0  0  0
   37.0740   29.2040   44.3510 H   0  0  0  0  0  0  0  0  0  0  0  0
   36.7570   26.7900   44.1160 H   0  0  0  0  0  0  0  0  0  0  0  0
   37.4150   25.3040   41.9880 C   0  0  0  0  0  0  0  0  0  0  0  0
   38.5720   24.6460   42.4140 F   0  0  0  0  0  0  0  0  0  0  0  0
   37.3440   25.0220   40.6150 F   0  0  0  0  0  0  0  0  0  0  0  0
   36.3510   24.8410   42.6730 F   0  0  0  0  0  0  0  0  0  0  0  0
   38.9220   29.7070   40.2620 C   0  0  0  0  0  0  0  0  0  0  0  0
   39.6590   29.2120   39.3730 O   0  0  0  0  0  0  0  0  0  0  0  0
   36.6160   30.2640   38.5340 Cl  0  0  0  0  0  0  0  0  0  0  0  0
   37.5690   31.4470   39.4240 C   0  0  0  0  0  0  0  0  0  0  0  0
   38.6620   31.1420   40.2390 C   0  0  0  0  0  0  0  0  0  0  0  0
   39.3300   32.1600   40.8860 C   0  0  0  0  0  0  0  0  0  0  0  0
   40.1560   31.8100   41.4870 H   0  0  0  0  0  0  0  0  0  0  0  0
   38.9020   33.4620   40.7150 C   0  0  0  0  0  0  0  0  0  0  0  0
   39.4560   34.2090   41.2410 H   0  0  0  0  0  0  0  0  0  0  0  0
   37.8190   33.7570   39.9070 C   0  0  0  0  0  3  0  0  0  0  0  0
   37.1420   32.7540   39.2550 C   0  0  0  0  0  3  0  0  0  0  0  0
  1  7  1  0  0  0  0
  2  1  1  0  0  0  0
  2  8  1  0  0  0  0
  3  2  2  0  0  0  0
  4  5  2  0  0  0  0
  4  3  1  0  0  0  0
  5  6  1  0  0  0  0
  6  1  2  0  0  0  0
  9  3  1  0  0  0  0
  9 10  1  0  0  0  0
  9 12  1  0  0  0  0
 11  9  1  0  0  0  0
 13  5  1  0  0  0  0
 14 13  2  0  0  0  0
 15 16  1  0  0  0  0
 16 17  1  0  0  0  0
 17 13  1  0  0  0  0
 17 18  2  0  0  0  0
 18 19  1  0  0  0  0
 20 18  1  0  0  0  0
 20 21  1  0  0  0  0
 22 20  2  0  0  0  0
 23 16  2  0  0  0  0
 23 22  1  0  0  0  0
M  END
>  <minimizedAffinity>
-5.20384121

$$$$

 OpenBabel03242518513D

 23 24  0  0  0  0  0  0  0  0999 V2000
   36.5040   29.3910   39.1590 C   0  0  0  0  0  0  0  0  0  0  0  0
   36.9150   30.7350   39.0580 C   0  0  0  0  0  0  0  0  0  0  0  0
   37.5440   31.2750   40.1960 C   0  0  0  0  0  0  0  0  0  0  0  0
   37.7040   30.4840   41.2740 N   0  0  0  0  0  0  0  0  0  0  0  0
   37.3000   29.2030   41.3380 C   0  0  0  0  0  0  0  0  0  0  0  0
   36.6960   28.6540   40.2690 N   0  0  0  0  0  0  0  0  0  0  0  0
   36.0130   28.9360   38.2970 H   0  0  0  0  0  0  0  0  0  0  0  0
   36.7360   31.2690   38.1510 H   0  0  0  0  0  0  0  0  0  0  0  0
   37.9630   32.6730   40.0730 C   0  0  0  0  0  0  0  0  0  0  0  0
   38.9980   32.7590   39.1390 F   0  0  0  0  0  0  0  0  0  0  0  0
   38.5700   33.0050   41.2930 F   0  0  0  0  0  0  0  0  0  0  0  0
   36.9720   33.5220   39.7340 F   0  0  0  0  0  0  0  0  0  0  0  0
   37.4950   28.3840   42.5260 C   0  0  0  0  0  0  0  0  0  0  0  0
   37.4330   28.8810   43.6790 O   0  0  0  0  0  0  0  0  0  0  0  0
   40.3940   27.9340   42.4620 Cl  0  0  0  0  0  0  0  0  0  0  0  0
   39.1390   26.7030   42.3570 C   0  0  0  0  0  0  0  0  0  0  0  0
   37.7660   26.9570   42.3910 C   0  0  0  0  0  0  0  0  0  0  0  0
   36.8790   25.9050   42.2990 C   0  0  0  0  0  0  0  0  0  0  0  0
   35.8460   26.2180   42.3360 H   0  0  0  0  0  0  0  0  0  0  0  0
   37.3690   24.6200   42.1750 C   0  0  0  0  0  0  0  0  0  0  0  0
   36.6370   23.8450   42.1090 H   0  0  0  0  0  0  0  0  0  0  0  0
   38.7300   24.3750   42.1420 C   0  0  0  0  0  3  0  0  0  0  0  0
   39.6270   25.4130   42.2330 C   0  0  0  0  0  3  0  0  0  0  0  0
  1  6  1  0  0  0  0
  2  1  2  0  0  0  0
  2  3  1  0  0  0  0
  3  4  2  0  0  0  0
  4  5  1  0  0  0  0
  5 13  1  0  0  0  0
  6  5  2  0  0  0  0
  7  1  1  0  0  0  0
  8  2  1  0  0  0  0
  9  3  1  0  0  0  0
  9 11  1  0  0  0  0
 10  9  1  0  0  0  0
 12  9  1  0  0  0  0
 13 14  2  0  0  0  0
 16 17  1  0  0  0  0
 16 15  1  0  0  0  0
 17 13  1  0  0  0  0
 18 19  1  0  0  0  0
 18 17  2  0  0  0  0
 20 18  1  0  0  0  0
 21 20  1  0  0  0  0
 22 20  2  0  0  0  0
 22 23  1  0  0  0  0
 23 16  2  0  0  0  0
M  END
>  <minimizedAffinity>
-5.0642767

$$$$

 OpenBabel03242518513D

 23 24  0  0  0  0  0  0  0  0999 V2000
   37.3910   30.8400   37.3640 C   0  0  0  0  0  0  0  0  0  0  0  0
   38.0700   31.8740   38.0420 C   0  0  0  0  0  0  0  0  0  0  0  0
   37.8910   31.9180   39.4370 C   0  0  0  0  0  0  0  0  0  0  0  0
   37.1020   30.9890   40.0110 N   0  0  0  0  0  0  0  0  0  0  0  0
   36.4690   30.0150   39.3350 C   0  0  0  0  0  0  0  0  0  0  0  0
   36.6160   29.9410   38.0000 N   0  0  0  0  0  0  0  0  0  0  0  0
   37.5060   30.7720   36.2820 H   0  0  0  0  0  0  0  0  0  0  0  0
   38.6700   32.5570   37.4830 H   0  0  0  0  0  0  0  0  0  0  0  0
   38.6020   32.9990   40.1230 C   0  0  0  0  0  0  0  0  0  0  0  0
   37.7930   34.1380   40.1390 F   0  0  0  0  0  0  0  0  0  0  0  0
   39.6750   33.3490   39.2890 F   0  0  0  0  0  0  0  0  0  0  0  0
   38.9920   32.7000   41.3780 F   0  0  0  0  0  0  0  0  0  0  0  0
   35.6240   29.0300   39.9980 C   0  0  0  0  0  0  0  0  0  0  0  0
   34.3810   29.0070   39.8140 O   0  0  0  0  0  0  0  0  0  0  0  0
   36.2470   26.5830   38.5020 Cl  0  0  0  0  0  0  0  0  0  0  0  0
   36.5300   26.8650   40.2180 C   0  0  0  0  0  0  0  0  0  0  0  0
   36.2190   28.0460   40.8950 C   0  0  0  0  0  0  0  0  0  0  0  0
   36.4900   28.1460   42.2430 C   0  0  0  0  0  0  0  0  0  0  0  0
   36.2090   29.1010   42.6630 H   0  0  0  0  0  0  0  0  0  0  0  0
   37.0650   27.0730   42.8960 C   0  0  0  0  0  0  0  0  0  0  0  0
   37.2520   27.2070   43.9390 H   0  0  0  0  0  0  0  0  0  0  0  0
   37.3700   25.9060   42.2200 C   0  0  0  0  0  3  0  0  0  0  0  0
   37.1070   25.7900   40.8750 C   0  0  0  0  0  3  0  0  0  0  0  0
  1  6  2  0  0  0  0
  1  2  1  0  0  0  0
  2  3  2  0  0  0  0
  3  4  1  0  0  0  0
  3  9  1  0  0  0  0
  5 13  1  0  0  0  0
  5  4  2  0  0  0  0
  6  5  1  0  0  0  0
  7  1  1  0  0  0  0
  8  2  1  0  0  0  0
  9 10  1  0  0  0  0
  9 12  1  0  0  0  0
 11  9  1  0  0  0  0
 13 17  1  0  0  0  0
 14 13  2  0  0  0  0
 15 16  1  0  0  0  0
 16 23  2  0  0  0  0
 16 17  1  0  0  0  0
 17 18  2  0  0  0  0
 18 19  1  0  0  0  0
 18 20  1  0  0  0  0
 20 21  1  0  0  0  0
 22 20  2  0  0  0  0
 23 22  1  0  0  0  0
M  END
>  <minimizedAffinity>
-5.04270887

$$$$

 OpenBabel03242518513D

 23 24  0  0  0  0  0  0  0  0999 V2000
   39.6990   29.8570   39.3350 C   0  0  0  0  0  0  0  0  0  0  0  0
   39.6890   31.2590   39.4870 C   0  0  0  0  0  0  0  0  0  0  0  0
   38.5140   31.8130   40.0270 C   0  0  0  0  0  0  0  0  0  0  0  0
   37.5060   30.9810   40.3550 N   0  0  0  0  0  0  0  0  0  0  0  0
   37.5480   29.6460   40.1980 C   0  0  0  0  0  0  0  0  0  0  0  0
   38.6550   29.0810   39.6840 N   0  0  0  0  0  0  0  0  0  0  0  0
   40.5930   29.3900   38.9190 H   0  0  0  0  0  0  0  0  0  0  0  0
   40.5480   31.8200   39.1920 H   0  0  0  0  0  0  0  0  0  0  0  0
   38.5220   33.2700   40.1760 C   0  0  0  0  0  0  0  0  0  0  0  0
   37.3190   33.7840   39.6860 F   0  0  0  0  0  0  0  0  0  0  0  0
   39.4920   33.7460   39.2800 F   0  0  0  0  0  0  0  0  0  0  0  0
   38.7210   33.6990   41.4380 F   0  0  0  0  0  0  0  0  0  0  0  0
   36.4320   28.7840   40.5660 C   0  0  0  0  0  0  0  0  0  0  0  0
   35.2830   29.2520   40.7630 O   0  0  0  0  0  0  0  0  0  0  0  0
   37.1220   28.1650   43.3510 Cl  0  0  0  0  0  0  0  0  0  0  0  0
   36.9700   27.0140   42.0270 C   0  0  0  0  0  0  0  0  0  0  0  0
   36.6400   27.3480   40.7120 C   0  0  0  0  0  0  0  0  0  0  0  0
   36.5510   26.3530   39.7610 C   0  0  0  0  0  0  0  0  0  0  0  0
   36.2900   26.7250   38.7810 H   0  0  0  0  0  0  0  0  0  0  0  0
   36.7920   25.0450   40.1310 C   0  0  0  0  0  0  0  0  0  0  0  0
   36.7100   24.3170   39.3530 H   0  0  0  0  0  0  0  0  0  0  0  0
   37.1190   24.7200   41.4350 C   0  0  0  0  0  3  0  0  0  0  0  0
   37.2110   25.7000   42.3950 C   0  0  0  0  0  3  0  0  0  0  0  0
  1  2  2  0  0  0  0
  1  6  1  0  0  0  0
  2  3  1  0  0  0  0
  3  9  1  0  0  0  0
  3  4  2  0  0  0  0
  5  4  1  0  0  0  0
  5 13  1  0  0  0  0
  6  5  2  0  0  0  0
  7  1  1  0  0  0  0
  8  2  1  0  0  0  0
  9 12  1  0  0  0  0
 10  9  1  0  0  0  0
 11  9  1  0  0  0  0
 13 17  1  0  0  0  0
 13 14  2  0  0  0  0
 16 23  1  0  0  0  0
 16 15  1  0  0  0  0
 17 16  2  0  0  0  0
 18 20  2  0  0  0  0
 18 17  1  0  0  0  0
 19 18  1  0  0  0  0
 20 22  1  0  0  0  0
 21 20  1  0  0  0  0
 22 23  2  0  0  0  0
M  END
>  <minimizedAffinity>
-4.97952509

$$$$

 OpenBabel03242518513D

 23 24  0  0  0  0  0  0  0  0999 V2000
   37.1750   25.7440   38.7120 C   0  0  0  0  0  0  0  0  0  0  0  0
   37.3500   25.3660   40.0590 C   0  0  0  0  0  0  0  0  0  0  0  0
   36.9120   26.2950   41.0220 C   0  0  0  0  0  0  0  0  0  0  0  0
   36.3680   27.4510   40.5960 N   0  0  0  0  0  0  0  0  0  0  0  0
   36.2160   27.7810   39.3010 C   0  0  0  0  0  0  0  0  0  0  0  0
   36.6230   26.9180   38.3530 N   0  0  0  0  0  0  0  0  0  0  0  0
   37.5030   25.0510   37.9360 H   0  0  0  0  0  0  0  0  0  0  0  0
   37.7940   24.4220   40.2820 H   0  0  0  0  0  0  0  0  0  0  0  0
   37.1020   25.8850   42.4150 C   0  0  0  0  0  0  0  0  0  0  0  0
   38.4680   25.8930   42.7100 F   0  0  0  0  0  0  0  0  0  0  0  0
   36.7440   24.5300   42.4740 F   0  0  0  0  0  0  0  0  0  0  0  0
   36.4390   26.6410   43.3130 F   0  0  0  0  0  0  0  0  0  0  0  0
   35.6220   29.0440   38.8850 C   0  0  0  0  0  0  0  0  0  0  0  0
   34.4940   29.0850   38.3320 O   0  0  0  0  0  0  0  0  0  0  0  0
   36.9450   29.8770   36.4010 Cl  0  0  0  0  0  0  0  0  0  0  0  0
   36.9840   30.7230   37.9450 C   0  0  0  0  0  0  0  0  0  0  0  0
   36.3390   30.2940   39.1070 C   0  0  0  0  0  0  0  0  0  0  0  0
   36.4450   31.0470   40.2580 C   0  0  0  0  0  0  0  0  0  0  0  0
   35.9080   30.6220   41.0930 H   0  0  0  0  0  0  0  0  0  0  0  0
   37.1870   32.2110   40.2350 C   0  0  0  0  0  0  0  0  0  0  0  0
   37.2330   32.7530   41.1550 H   0  0  0  0  0  0  0  0  0  0  0  0
   37.8230   32.6310   39.0810 C   0  0  0  0  0  3  0  0  0  0  0  0
   37.7270   31.8920   37.9260 C   0  0  0  0  0  3  0  0  0  0  0  0
  1  2  1  0  0  0  0
  2  8  1  0  0  0  0
  2  3  2  0  0  0  0
  3  9  1  0  0  0  0
  4  3  1  0  0  0  0
  5  4  2  0  0  0  0
  6  1  2  0  0  0  0
  6  5  1  0  0  0  0
  7  1  1  0  0  0  0
  9 11  1  0  0  0  0
  9 10  1  0  0  0  0
  9 12  1  0  0  0  0
 13 17  1  0  0  0  0
 13  5  1  0  0  0  0
 14 13  2  0  0  0  0
 15 16  1  0  0  0  0
 16 17  1  0  0  0  0
 17 18  2  0  0  0  0
 18 19  1  0  0  0  0
 20 18  1  0  0  0  0
 20 21  1  0  0  0  0
 22 20  2  0  0  0  0
 23 16  2  0  0  0  0
 23 22  1  0  0  0  0
M  END
>  <minimizedAffinity>
-4.97061253

$$$$
