
 OpenBabel03242516173D

 43 46  0  0  1  0  0  0  0  0999 V2000
   35.2380   28.6220   38.4160 C   0  0  0  0  0  0  0  0  0  0  0  0
   34.1350   29.1090   39.3350 C   0  0  0  0  0  0  0  0  0  0  0  0
   33.9040   28.7980   37.9270 C   0  0  0  0  0  0  0  0  0  0  0  0
   33.7130   28.4300   40.1100 H   0  0  0  0  0  0  0  0  0  0  0  0
   34.2810   30.1270   39.7510 H   0  0  0  0  0  0  0  0  0  0  0  0
   33.3000   27.8610   37.7280 H   0  0  0  0  0  0  0  0  0  0  0  0
   33.3950   29.6650   37.4890 H   0  0  0  0  0  0  0  0  0  0  0  0
   35.6970   27.2290   38.7530 C   0  0  0  0  0  0  0  0  0  0  0  0
   37.1900   26.9940   38.6320 C   0  0  0  0  0  0  0  0  0  0  0  0
   37.4170   25.5660   39.1160 C   0  0  0  0  0  0  0  0  0  0  0  0
   36.9830   24.7280   38.0680 O   0  0  0  0  0  0  0  0  0  0  0  0
   35.5710   24.8240   38.1800 C   0  0  0  0  0  0  0  0  0  0  0  0
   35.1260   26.2120   37.7280 C   0  0  0  0  0  0  0  0  0  0  0  0
   35.3810   26.8720   39.7460 H   0  0  0  0  0  0  0  0  0  0  0  0
   37.7690   27.6210   39.3430 H   0  0  0  0  0  0  0  0  0  0  0  0
   37.5420   27.0740   37.5960 H   0  0  0  0  0  0  0  0  0  0  0  0
   38.5140   25.3780   39.2350 H   0  0  0  0  0  0  0  0  0  0  0  0
   36.8560   25.3880   40.0370 H   0  0  0  0  0  0  0  0  0  0  0  0
   35.2820   24.7220   39.2470 H   0  0  0  0  0  0  0  0  0  0  0  0
   35.0720   24.0660   37.5630 H   0  0  0  0  0  0  0  0  0  0  0  0
   35.5470   26.4330   36.7210 H   0  0  0  0  0  0  0  0  0  0  0  0
   34.0310   26.2010   37.7410 H   0  0  0  0  0  0  0  0  0  0  0  0
   36.6050   29.8750   36.7310 C   0  0  0  0  0  0  0  0  0  0  0  0
   36.2930   29.6130   38.0710 C   0  0  0  0  0  0  0  0  0  0  0  0
   37.0110   30.3150   39.0380 C   0  0  0  0  0  0  0  0  0  0  0  0
   37.9610   31.2040   38.6540 N   0  0  0  0  0  0  0  0  0  0  0  0
   38.2120   31.4090   37.3550 C   0  0  0  0  0  0  0  0  0  0  0  0
   37.5660   30.7750   36.4040 N   0  0  0  0  0  0  0  0  0  0  0  0
   39.2200   32.3350   36.9190 N   0  0  0  0  0  0  0  0  0  0  0  0
   36.0380   29.3200   36.0060 H   0  0  0  0  0  0  0  0  0  0  0  0
   39.1420   32.8480   36.0300 H   0  0  0  0  0  0  0  0  0  0  0  0
   40.0450   32.4710   37.5440 H   0  0  0  0  0  0  0  0  0  0  0  0
   36.8020   30.1210   40.4480 C   0  0  2  0  0  3  0  0  0  0  0  0
   36.1210   30.9030   41.2280 O   0  0  0  0  0  1  0  0  0  0  0  0
   39.4200   30.6440   41.6370 Cl  0  0  0  0  0  0  0  0  0  0  0  0
   38.3700   29.3260   42.1880 C   0  0  0  0  0  0  0  0  0  0  0  0
   37.1270   29.2190   41.5400 C   0  0  0  0  0  0  0  0  0  0  0  0
   36.3750   28.1750   42.0300 C   0  0  0  0  0  0  0  0  0  0  0  0
   35.3900   28.0570   41.5480 H   0  0  0  0  0  0  0  0  0  0  0  0
   36.8020   27.3370   43.0400 C   0  0  0  0  0  0  0  0  0  0  0  0
   36.1140   26.5390   43.3450 H   0  0  0  0  0  0  0  0  0  0  0  0
   38.0240   27.5330   43.5940 C   0  0  0  0  0  3  0  0  0  0  0  0
   38.8730   28.5370   43.2000 C   0  0  0  0  0  3  0  0  0  0  0  0
  1  8  1  0  0  0  0
  1  2  1  0  0  0  0
  2  5  1  0  0  0  0
  2  4  1  0  0  0  0
  3  1  1  0  0  0  0
  3  2  1  0  0  0  0
  6  3  1  0  0  0  0
  7  3  1  0  0  0  0
  8 14  1  0  0  0  0
  9  8  1  0  0  0  0
  9 10  1  0  0  0  0
  9 15  1  0  0  0  0
 10 17  1  0  0  0  0
 10 18  1  0  0  0  0
 11 12  1  0  0  0  0
 11 10  1  0  0  0  0
 12 19  1  0  0  0  0
 13 22  1  0  0  0  0
 13 12  1  0  0  0  0
 13  8  1  0  0  0  0
 16  9  1  0  0  0  0
 20 12  1  0  0  0  0
 21 13  1  0  0  0  0
 23 24  1  0  0  0  0
 24  1  1  0  0  0  0
 24 25  2  0  0  0  0
 25 33  1  0  0  0  0
 26 25  1  0  0  0  0
 27 26  2  0  0  0  0
 28 23  2  0  0  0  0
 28 27  1  0  0  0  0
 29 27  1  0  0  0  0
 29 32  1  0  0  0  0
 30 23  1  0  0  0  0
 31 29  1  0  0  0  0
 33 34  1  1  0  0  0
 33 37  1  0  0  0  0
 35 36  1  0  0  0  0
 36 43  1  0  0  0  0
 37 38  1  0  0  0  0
 37 36  2  0  0  0  0
 38 40  2  0  0  0  0
 39 38  1  0  0  0  0
 40 41  1  0  0  0  0
 40 42  1  0  0  0  0
 43 42  2  0  0  0  0
M  END
>  <minimizedAffinity>
-6.22463846

$$$$

 OpenBabel03242516173D

 43 46  0  0  1  0  0  0  0  0999 V2000
   38.1610   27.9770   42.2450 C   0  0  0  0  0  0  0  0  0  0  0  0
   38.0780   27.4390   43.6600 C   0  0  0  0  0  0  0  0  0  0  0  0
   36.9270   28.0140   42.9700 C   0  0  0  0  0  0  0  0  0  0  0  0
   38.0980   26.3410   43.8430 H   0  0  0  0  0  0  0  0  0  0  0  0
   38.7090   27.9660   44.4040 H   0  0  0  0  0  0  0  0  0  0  0  0
   36.1240   27.2770   42.6630 H   0  0  0  0  0  0  0  0  0  0  0  0
   36.4980   28.7680   43.6420 H   0  0  0  0  0  0  0  0  0  0  0  0
   38.3550   26.8870   41.2240 C   0  0  0  0  0  0  0  0  0  0  0  0
   39.0000   27.3280   39.9250 C   0  0  0  0  0  0  0  0  0  0  0  0
   39.1810   26.0530   39.1090 C   0  0  0  0  0  0  0  0  0  0  0  0
   37.9030   25.7250   38.6130 O   0  0  0  0  0  0  0  0  0  0  0  0
   37.2610   25.2100   39.7690 C   0  0  0  0  0  0  0  0  0  0  0  0
   36.9800   26.3550   40.7380 C   0  0  0  0  0  0  0  0  0  0  0  0
   38.9100   26.0100   41.5930 H   0  0  0  0  0  0  0  0  0  0  0  0
   40.0330   27.7050   40.0790 H   0  0  0  0  0  0  0  0  0  0  0  0
   38.3650   28.0200   39.3580 H   0  0  0  0  0  0  0  0  0  0  0  0
   39.8210   26.2650   38.2150 H   0  0  0  0  0  0  0  0  0  0  0  0
   39.5880   25.2580   39.7390 H   0  0  0  0  0  0  0  0  0  0  0  0
   37.9490   24.5090   40.2860 H   0  0  0  0  0  0  0  0  0  0  0  0
   36.3160   24.7150   39.5110 H   0  0  0  0  0  0  0  0  0  0  0  0
   36.4380   27.1710   40.2080 H   0  0  0  0  0  0  0  0  0  0  0  0
   36.4030   25.9220   41.5620 H   0  0  0  0  0  0  0  0  0  0  0  0
   40.2650   29.3020   42.5450 C   0  0  0  0  0  0  0  0  0  0  0  0
   38.9530   29.2220   42.0590 C   0  0  0  0  0  0  0  0  0  0  0  0
   38.4480   30.3460   41.4100 C   0  0  0  0  0  0  0  0  0  0  0  0
   39.2260   31.4500   41.2760 N   0  0  0  0  0  0  0  0  0  0  0  0
   40.4720   31.4630   41.7640 C   0  0  0  0  0  0  0  0  0  0  0  0
   40.9980   30.4320   42.3840 N   0  0  0  0  0  0  0  0  0  0  0  0
   41.3150   32.6210   41.6470 N   0  0  0  0  0  0  0  0  0  0  0  0
   40.6300   28.4220   43.0420 H   0  0  0  0  0  0  0  0  0  0  0  0
   42.3390   32.5460   41.5760 H   0  0  0  0  0  0  0  0  0  0  0  0
   40.8450   33.5530   41.6390 H   0  0  0  0  0  0  0  0  0  0  0  0
   37.1090   30.3990   40.8860 C   0  0  2  0  0  3  0  0  0  0  0  0
   36.1410   31.1260   41.3530 O   0  0  0  0  0  1  0  0  0  0  0  0
   38.2570   30.6630   38.2110 Cl  0  0  0  0  0  0  0  0  0  0  0  0
   36.6700   29.9260   38.4980 C   0  0  0  0  0  0  0  0  0  0  0  0
   36.2660   29.8420   39.8410 C   0  0  0  0  0  0  0  0  0  0  0  0
   35.0270   29.2560   39.9750 C   0  0  0  0  0  0  0  0  0  0  0  0
   34.6730   29.1690   41.0160 H   0  0  0  0  0  0  0  0  0  0  0  0
   34.2780   28.8080   38.9070 C   0  0  0  0  0  0  0  0  0  0  0  0
   33.3050   28.3590   39.1390 H   0  0  0  0  0  0  0  0  0  0  0  0
   34.7680   28.9410   37.6490 C   0  0  0  0  0  3  0  0  0  0  0  0
   35.9880   29.5060   37.3770 C   0  0  0  0  0  3  0  0  0  0  0  0
  1  3  1  0  0  0  0
  1  2  1  0  0  0  0
  2  4  1  0  0  0  0
  2  5  1  0  0  0  0
  3  7  1  0  0  0  0
  3  2  1  0  0  0  0
  6  3  1  0  0  0  0
  8 14  1  0  0  0  0
  8  1  1  0  0  0  0
  9 15  1  0  0  0  0
  9  8  1  0  0  0  0
 10 18  1  0  0  0  0
 10  9  1  0  0  0  0
 11 10  1  0  0  0  0
 11 12  1  0  0  0  0
 12 19  1  0  0  0  0
 12 13  1  0  0  0  0
 13  8  1  0  0  0  0
 13 22  1  0  0  0  0
 16  9  1  0  0  0  0
 17 10  1  0  0  0  0
 20 12  1  0  0  0  0
 21 13  1  0  0  0  0
 23 30  1  0  0  0  0
 24  1  1  0  0  0  0
 24 23  2  0  0  0  0
 25 24  1  0  0  0  0
 26 25  2  0  0  0  0
 26 27  1  0  0  0  0
 27 28  2  0  0  0  0
 28 23  1  0  0  0  0
 29 27  1  0  0  0  0
 31 29  1  0  0  0  0
 32 29  1  0  0  0  0
 33 34  1  1  0  0  0
 33 25  1  0  0  0  0
 35 36  1  0  0  0  0
 36 37  1  0  0  0  0
 37 38  2  0  0  0  0
 37 33  1  0  0  0  0
 38 39  1  0  0  0  0
 40 41  1  0  0  0  0
 40 38  1  0  0  0  0
 42 40  2  0  0  0  0
 43 42  1  0  0  0  0
 43 36  2  0  0  0  0
M  END
>  <minimizedAffinity>
-5.7805686

$$$$

 OpenBabel03242516173D

 43 46  0  0  1  0  0  0  0  0999 V2000
   38.0950   29.9490   38.3850 C   0  0  0  0  0  0  0  0  0  0  0  0
   39.0500   28.8170   38.7110 C   0  0  0  0  0  0  0  0  0  0  0  0
   39.1140   29.5630   37.4570 C   0  0  0  0  0  0  0  0  0  0  0  0
   39.8570   28.9660   39.4640 H   0  0  0  0  0  0  0  0  0  0  0  0
   38.5780   27.8220   38.8430 H   0  0  0  0  0  0  0  0  0  0  0  0
   40.0020   30.2570   37.3480 H   0  0  0  0  0  0  0  0  0  0  0  0
   39.1210   28.8230   36.6470 H   0  0  0  0  0  0  0  0  0  0  0  0
   38.3310   31.1660   39.2390 C   0  0  0  0  0  0  0  0  0  0  0  0
   37.4500   32.3580   38.9190 C   0  0  0  0  0  0  0  0  0  0  0  0
   37.7990   33.4130   39.9640 C   0  0  0  0  0  0  0  0  0  0  0  0
   39.0410   33.9520   39.5710 O   0  0  0  0  0  0  0  0  0  0  0  0
   39.9400   32.9150   39.9310 C   0  0  0  0  0  0  0  0  0  0  0  0
   39.7520   31.7360   38.9810 C   0  0  0  0  0  0  0  0  0  0  0  0
   38.2670   30.9840   40.3230 H   0  0  0  0  0  0  0  0  0  0  0  0
   36.3750   32.1420   39.0950 H   0  0  0  0  0  0  0  0  0  0  0  0
   37.6530   32.7710   37.9230 H   0  0  0  0  0  0  0  0  0  0  0  0
   37.0610   34.2530   39.9140 H   0  0  0  0  0  0  0  0  0  0  0  0
   37.8510   32.9560   40.9560 H   0  0  0  0  0  0  0  0  0  0  0  0
   39.6900   32.5530   40.9500 H   0  0  0  0  0  0  0  0  0  0  0  0
   40.9820   33.2570   39.8800 H   0  0  0  0  0  0  0  0  0  0  0  0
   39.8190   32.0880   37.9260 H   0  0  0  0  0  0  0  0  0  0  0  0
   40.5280   31.0090   39.2390 H   0  0  0  0  0  0  0  0  0  0  0  0
   36.1870   29.4830   36.8300 C   0  0  0  0  0  0  0  0  0  0  0  0
   36.6790   29.5640   38.1390 C   0  0  0  0  0  0  0  0  0  0  0  0
   35.7880   29.2730   39.1690 C   0  0  0  0  0  0  0  0  0  0  0  0
   34.5080   28.9300   38.8740 N   0  0  0  0  0  0  0  0  0  0  0  0
   34.1010   28.8710   37.6000 C   0  0  0  0  0  0  0  0  0  0  0  0
   34.8980   29.1360   36.5910 N   0  0  0  0  0  0  0  0  0  0  0  0
   32.7490   28.5220   37.2570 N   0  0  0  0  0  0  0  0  0  0  0  0
   36.8940   29.7140   36.0540 H   0  0  0  0  0  0  0  0  0  0  0  0
   32.5170   28.0360   36.3800 H   0  0  0  0  0  0  0  0  0  0  0  0
   32.0030   28.7830   37.9370 H   0  0  0  0  0  0  0  0  0  0  0  0
   36.1620   29.3410   40.5570 C   0  0  2  0  0  3  0  0  0  0  0  0
   35.8290   30.2830   41.3860 O   0  0  0  0  0  1  0  0  0  0  0  0
   36.4790   26.4930   39.9830 Cl  0  0  0  0  0  0  0  0  0  0  0  0
   37.1200   27.2450   41.4550 C   0  0  0  0  0  0  0  0  0  0  0  0
   36.9160   28.6300   41.5760 C   0  0  0  0  0  0  0  0  0  0  0  0
   37.4470   29.1330   42.7430 C   0  0  0  0  0  0  0  0  0  0  0  0
   37.3090   30.2190   42.8760 H   0  0  0  0  0  0  0  0  0  0  0  0
   38.1010   28.3580   43.6780 C   0  0  0  0  0  0  0  0  0  0  0  0
   38.4800   28.8720   44.5680 H   0  0  0  0  0  0  0  0  0  0  0  0
   38.2400   27.0270   43.4560 C   0  0  0  0  0  3  0  0  0  0  0  0
   37.7590   26.3990   42.3350 C   0  0  0  0  0  3  0  0  0  0  0  0
  1  2  1  0  0  0  0
  1  8  1  0  0  0  0
  2  5  1  0  0  0  0
  2  4  1  0  0  0  0
  3  1  1  0  0  0  0
  3  2  1  0  0  0  0
  6  3  1  0  0  0  0
  7  3  1  0  0  0  0
  8 14  1  0  0  0  0
  9 15  1  0  0  0  0
  9  8  1  0  0  0  0
  9 10  1  0  0  0  0
 10 18  1  0  0  0  0
 11 12  1  0  0  0  0
 11 10  1  0  0  0  0
 12 19  1  0  0  0  0
 13 22  1  0  0  0  0
 13  8  1  0  0  0  0
 13 12  1  0  0  0  0
 16  9  1  0  0  0  0
 17 10  1  0  0  0  0
 20 12  1  0  0  0  0
 21 13  1  0  0  0  0
 23 24  1  0  0  0  0
 24  1  1  0  0  0  0
 24 25  2  0  0  0  0
 25 33  1  0  0  0  0
 26 25  1  0  0  0  0
 27 26  2  0  0  0  0
 28 23  2  0  0  0  0
 28 27  1  0  0  0  0
 29 27  1  0  0  0  0
 29 32  1  0  0  0  0
 30 23  1  0  0  0  0
 31 29  1  0  0  0  0
 33 34  1  6  0  0  0
 33 37  1  0  0  0  0
 35 36  1  0  0  0  0
 36 37  2  0  0  0  0
 36 43  1  0  0  0  0
 37 38  1  0  0  0  0
 38 39  1  0  0  0  0
 38 40  2  0  0  0  0
 40 41  1  0  0  0  0
 42 40  1  0  0  0  0
 43 42  2  0  0  0  0
M  END
>  <minimizedAffinity>
-5.71414709

$$$$

 OpenBabel03242516173D

 43 46  0  0  1  0  0  0  0  0999 V2000
   39.1910   29.3880   38.3920 C   0  0  0  0  0  0  0  0  0  0  0  0
   40.5480   29.2160   37.7390 C   0  0  0  0  0  0  0  0  0  0  0  0
   40.0950   28.3730   38.8420 C   0  0  0  0  0  0  0  0  0  0  0  0
   40.6260   28.7700   36.7220 H   0  0  0  0  0  0  0  0  0  0  0  0
   41.2330   30.0830   37.8340 H   0  0  0  0  0  0  0  0  0  0  0  0
   39.8470   27.3030   38.5670 H   0  0  0  0  0  0  0  0  0  0  0  0
   40.8890   28.3860   39.5990 H   0  0  0  0  0  0  0  0  0  0  0  0
   38.0590   28.9850   37.4850 C   0  0  0  0  0  0  0  0  0  0  0  0
   38.4510   28.0900   36.3250 C   0  0  0  0  0  0  0  0  0  0  0  0
   37.1430   27.7400   35.6230 C   0  0  0  0  0  0  0  0  0  0  0  0
   36.7740   28.8880   34.8940 O   0  0  0  0  0  0  0  0  0  0  0  0
   36.3030   29.7490   35.9180 C   0  0  0  0  0  0  0  0  0  0  0  0
   37.4850   30.2280   36.7540 C   0  0  0  0  0  0  0  0  0  0  0  0
   37.2080   28.5120   38.0000 H   0  0  0  0  0  0  0  0  0  0  0  0
   38.8490   27.1120   36.6680 H   0  0  0  0  0  0  0  0  0  0  0  0
   39.1070   28.5990   35.6090 H   0  0  0  0  0  0  0  0  0  0  0  0
   37.3250   26.9320   34.8700 H   0  0  0  0  0  0  0  0  0  0  0  0
   36.3830   27.4660   36.3600 H   0  0  0  0  0  0  0  0  0  0  0  0
   35.6360   29.1780   36.5970 H   0  0  0  0  0  0  0  0  0  0  0  0
   35.7830   30.6190   35.4960 H   0  0  0  0  0  0  0  0  0  0  0  0
   38.2700   30.6550   36.0880 H   0  0  0  0  0  0  0  0  0  0  0  0
   37.0820   30.9590   37.4630 H   0  0  0  0  0  0  0  0  0  0  0  0
   39.7970   31.7520   38.9590 C   0  0  0  0  0  0  0  0  0  0  0  0
   39.0000   30.6250   39.1970 C   0  0  0  0  0  0  0  0  0  0  0  0
   38.0450   30.7260   40.2070 C   0  0  0  0  0  0  0  0  0  0  0  0
   37.9250   31.8840   40.9040 N   0  0  0  0  0  0  0  0  0  0  0  0
   38.7180   32.9260   40.6260 C   0  0  0  0  0  0  0  0  0  0  0  0
   39.6340   32.8850   39.6870 N   0  0  0  0  0  0  0  0  0  0  0  0
   38.6220   34.1610   41.3550 N   0  0  0  0  0  0  0  0  0  0  0  0
   40.5260   31.6480   38.1760 H   0  0  0  0  0  0  0  0  0  0  0  0
   38.8420   35.0690   40.9220 H   0  0  0  0  0  0  0  0  0  0  0  0
   38.3180   34.1040   42.3510 H   0  0  0  0  0  0  0  0  0  0  0  0
   37.1810   29.6330   40.5650 C   0  0  2  0  0  3  0  0  0  0  0  0
   35.8840   29.6650   40.5760 O   0  0  0  0  0  1  0  0  0  0  0  0
   38.2180   29.3110   43.2790 Cl  0  0  0  0  0  0  0  0  0  0  0  0
   37.7150   27.9340   42.2820 C   0  0  0  0  0  0  0  0  0  0  0  0
   37.2080   28.2490   41.0090 C   0  0  0  0  0  0  0  0  0  0  0  0
   36.8390   27.1250   40.3050 C   0  0  0  0  0  0  0  0  0  0  0  0
   36.4340   27.3300   39.2990 H   0  0  0  0  0  0  0  0  0  0  0  0
   36.9580   25.8430   40.8000 C   0  0  0  0  0  0  0  0  0  0  0  0
   36.6310   25.0280   40.1450 H   0  0  0  0  0  0  0  0  0  0  0  0
   37.4630   25.6560   42.0450 C   0  0  0  0  0  3  0  0  0  0  0  0
   37.8670   26.6890   42.8520 C   0  0  0  0  0  3  0  0  0  0  0  0
  1  3  1  0  0  0  0
  1 24  1  0  0  0  0
  2  5  1  0  0  0  0
  2  1  1  0  0  0  0
  2  3  1  0  0  0  0
  3  7  1  0  0  0  0
  4  2  1  0  0  0  0
  6  3  1  0  0  0  0
  8 14  1  0  0  0  0
  8  1  1  0  0  0  0
  9 15  1  0  0  0  0
  9  8  1  0  0  0  0
 10  9  1  0  0  0  0
 10 18  1  0  0  0  0
 11 10  1  0  0  0  0
 11 12  1  0  0  0  0
 12 19  1  0  0  0  0
 12 13  1  0  0  0  0
 13 22  1  0  0  0  0
 13  8  1  0  0  0  0
 16  9  1  0  0  0  0
 17 10  1  0  0  0  0
 20 12  1  0  0  0  0
 21 13  1  0  0  0  0
 23 24  2  0  0  0  0
 23 28  1  0  0  0  0
 24 25  1  0  0  0  0
 25 33  1  0  0  0  0
 25 26  2  0  0  0  0
 27 26  1  0  0  0  0
 27 29  1  0  0  0  0
 28 27  2  0  0  0  0
 29 32  1  0  0  0  0
 30 23  1  0  0  0  0
 31 29  1  0  0  0  0
 33 34  1  1  0  0  0
 33 37  1  0  0  0  0
 36 43  1  0  0  0  0
 36 35  1  0  0  0  0
 37 36  2  0  0  0  0
 38 40  2  0  0  0  0
 38 37  1  0  0  0  0
 39 38  1  0  0  0  0
 40 42  1  0  0  0  0
 41 40  1  0  0  0  0
 42 43  2  0  0  0  0
M  END
>  <minimizedAffinity>
-5.65549088

$$$$

 OpenBabel03242516173D

 43 46  0  0  1  0  0  0  0  0999 V2000
   37.7150   31.4800   39.3430 C   0  0  0  0  0  0  0  0  0  0  0  0
   37.2520   32.9160   39.1930 C   0  0  0  0  0  0  0  0  0  0  0  0
   36.8450   32.0730   40.3130 C   0  0  0  0  0  0  0  0  0  0  0  0
   37.9600   33.7550   39.3850 H   0  0  0  0  0  0  0  0  0  0  0  0
   36.6410   33.1250   38.2920 H   0  0  0  0  0  0  0  0  0  0  0  0
   37.2960   32.3420   41.3160 H   0  0  0  0  0  0  0  0  0  0  0  0
   35.7500   32.1310   40.3740 H   0  0  0  0  0  0  0  0  0  0  0  0
   39.1810   31.3780   39.6690 C   0  0  0  0  0  0  0  0  0  0  0  0
   39.7700   29.9850   39.5610 C   0  0  0  0  0  0  0  0  0  0  0  0
   41.2610   30.1520   39.8330 C   0  0  0  0  0  0  0  0  0  0  0  0
   41.3840   30.3300   41.2260 O   0  0  0  0  0  0  0  0  0  0  0  0
   40.9320   31.6650   41.3940 C   0  0  0  0  0  0  0  0  0  0  0  0
   39.4250   31.7170   41.1640 C   0  0  0  0  0  0  0  0  0  0  0  0
   39.8260   32.0600   39.0910 H   0  0  0  0  0  0  0  0  0  0  0  0
   39.7220   29.5910   38.5240 H   0  0  0  0  0  0  0  0  0  0  0  0
   39.3530   29.2970   40.3070 H   0  0  0  0  0  0  0  0  0  0  0  0
   41.7980   29.2010   39.5880 H   0  0  0  0  0  0  0  0  0  0  0  0
   41.6500   31.0110   39.2790 H   0  0  0  0  0  0  0  0  0  0  0  0
   41.4010   32.3090   40.6200 H   0  0  0  0  0  0  0  0  0  0  0  0
   41.1570   32.0360   42.4030 H   0  0  0  0  0  0  0  0  0  0  0  0
   38.9210   30.9540   41.7990 H   0  0  0  0  0  0  0  0  0  0  0  0
   39.1160   32.7410   41.3980 H   0  0  0  0  0  0  0  0  0  0  0  0
   37.3430   30.7330   36.9810 C   0  0  0  0  0  0  0  0  0  0  0  0
   37.1760   30.5090   38.3540 C   0  0  0  0  0  0  0  0  0  0  0  0
   36.4920   29.3550   38.7290 C   0  0  0  0  0  0  0  0  0  0  0  0
   36.0250   28.5110   37.7740 N   0  0  0  0  0  0  0  0  0  0  0  0
   36.2180   28.7830   36.4770 C   0  0  0  0  0  0  0  0  0  0  0  0
   36.8550   29.8560   36.0690 N   0  0  0  0  0  0  0  0  0  0  0  0
   35.7260   27.9140   35.4440 N   0  0  0  0  0  0  0  0  0  0  0  0
   37.8740   31.6300   36.7190 H   0  0  0  0  0  0  0  0  0  0  0  0
   36.2050   27.8170   34.5380 H   0  0  0  0  0  0  0  0  0  0  0  0
   34.8530   27.3800   35.6470 H   0  0  0  0  0  0  0  0  0  0  0  0
   36.2340   29.0210   40.1040 C   0  0  2  0  0  3  0  0  0  0  0  0
   35.0870   29.1130   40.7040 O   0  0  0  0  0  1  0  0  0  0  0  0
   36.6430   26.1270   40.1090 Cl  0  0  0  0  0  0  0  0  0  0  0  0
   37.1230   27.1600   41.4690 C   0  0  0  0  0  0  0  0  0  0  0  0
   36.8890   28.5360   41.3070 C   0  0  0  0  0  0  0  0  0  0  0  0
   37.2940   29.2630   42.4050 C   0  0  0  0  0  0  0  0  0  0  0  0
   37.1290   30.3500   42.3170 H   0  0  0  0  0  0  0  0  0  0  0  0
   37.8590   28.6960   43.5280 C   0  0  0  0  0  0  0  0  0  0  0  0
   38.1390   29.3780   44.3390 H   0  0  0  0  0  0  0  0  0  0  0  0
   38.0360   27.3520   43.5750 C   0  0  0  0  0  3  0  0  0  0  0  0
   37.6790   26.5120   42.5510 C   0  0  0  0  0  3  0  0  0  0  0  0
  1  8  1  0  0  0  0
  1  3  1  0  0  0  0
  2  1  1  0  0  0  0
  2  4  1  0  0  0  0
  2  3  1  0  0  0  0
  3  7  1  0  0  0  0
  3  6  1  0  0  0  0
  5  2  1  0  0  0  0
  8 13  1  0  0  0  0
  9  8  1  0  0  0  0
  9 10  1  0  0  0  0
  9 16  1  0  0  0  0
 10 11  1  0  0  0  0
 11 12  1  0  0  0  0
 12 20  1  0  0  0  0
 13 12  1  0  0  0  0
 13 22  1  0  0  0  0
 13 21  1  0  0  0  0
 14  8  1  0  0  0  0
 15  9  1  0  0  0  0
 17 10  1  0  0  0  0
 18 10  1  0  0  0  0
 19 12  1  0  0  0  0
 23 24  1  0  0  0  0
 24 25  2  0  0  0  0
 24  1  1  0  0  0  0
 25 33  1  0  0  0  0
 26 25  1  0  0  0  0
 27 26  2  0  0  0  0
 28 27  1  0  0  0  0
 28 23  2  0  0  0  0
 29 32  1  0  0  0  0
 29 27  1  0  0  0  0
 30 23  1  0  0  0  0
 31 29  1  0  0  0  0
 33 34  1  1  0  0  0
 33 37  1  0  0  0  0
 35 36  1  0  0  0  0
 36 43  1  0  0  0  0
 37 36  2  0  0  0  0
 37 38  1  0  0  0  0
 38 40  2  0  0  0  0
 39 38  1  0  0  0  0
 40 42  1  0  0  0  0
 40 41  1  0  0  0  0
 43 42  2  0  0  0  0
M  END
>  <minimizedAffinity>
-5.65352535

$$$$

 OpenBabel03242516173D

 43 46  0  0  1  0  0  0  0  0999 V2000
   40.1450   28.3350   41.8560 C   0  0  0  0  0  0  0  0  0  0  0  0
   41.1690   28.6590   42.9270 C   0  0  0  0  0  0  0  0  0  0  0  0
   40.0510   27.7490   43.1590 C   0  0  0  0  0  0  0  0  0  0  0  0
   42.1970   28.2360   42.8630 H   0  0  0  0  0  0  0  0  0  0  0  0
   41.2070   29.7220   43.2390 H   0  0  0  0  0  0  0  0  0  0  0  0
   40.3240   26.6550   43.2540 H   0  0  0  0  0  0  0  0  0  0  0  0
   39.5520   28.0860   44.0770 H   0  0  0  0  0  0  0  0  0  0  0  0
   40.7200   27.5030   40.7410 C   0  0  0  0  0  0  0  0  0  0  0  0
   40.0380   27.6670   39.3970 C   0  0  0  0  0  0  0  0  0  0  0  0
   40.8490   26.8180   38.4240 C   0  0  0  0  0  0  0  0  0  0  0  0
   40.4900   25.4800   38.6850 O   0  0  0  0  0  0  0  0  0  0  0  0
   41.1780   25.2220   39.8990 C   0  0  0  0  0  0  0  0  0  0  0  0
   40.5060   25.9930   41.0300 C   0  0  0  0  0  0  0  0  0  0  0  0
   41.8030   27.6340   40.5850 H   0  0  0  0  0  0  0  0  0  0  0  0
   40.1330   28.7020   39.0040 H   0  0  0  0  0  0  0  0  0  0  0  0
   39.0050   27.2990   39.4060 H   0  0  0  0  0  0  0  0  0  0  0  0
   40.5230   27.0330   37.3740 H   0  0  0  0  0  0  0  0  0  0  0  0
   41.9180   26.9890   38.5770 H   0  0  0  0  0  0  0  0  0  0  0  0
   42.2170   25.6040   39.8180 H   0  0  0  0  0  0  0  0  0  0  0  0
   41.1710   24.1500   40.1380 H   0  0  0  0  0  0  0  0  0  0  0  0
   39.4140   25.7740   41.0380 H   0  0  0  0  0  0  0  0  0  0  0  0
   41.0110   25.6860   41.9520 H   0  0  0  0  0  0  0  0  0  0  0  0
   39.7430   30.6900   41.1030 C   0  0  0  0  0  0  0  0  0  0  0  0
   39.2270   29.4400   41.4680 C   0  0  0  0  0  0  0  0  0  0  0  0
   37.8420   29.2950   41.4490 C   0  0  0  0  0  0  0  0  0  0  0  0
   37.0620   30.3450   41.0850 N   0  0  0  0  0  0  0  0  0  0  0  0
   37.6180   31.5150   40.7470 C   0  0  0  0  0  0  0  0  0  0  0  0
   38.9170   31.7060   40.7490 N   0  0  0  0  0  0  0  0  0  0  0  0
   36.8180   32.6480   40.3690 N   0  0  0  0  0  0  0  0  0  0  0  0
   40.8140   30.7750   41.1280 H   0  0  0  0  0  0  0  0  0  0  0  0
   37.1550   33.3550   39.7020 H   0  0  0  0  0  0  0  0  0  0  0  0
   35.8730   32.7290   40.8020 H   0  0  0  0  0  0  0  0  0  0  0  0
   37.1870   28.0700   41.8230 C   0  0  2  0  0  3  0  0  0  0  0  0
   36.4030   27.9120   42.8450 O   0  0  0  0  0  1  0  0  0  0  0  0
   36.4590   27.7410   39.0120 Cl  0  0  0  0  0  0  0  0  0  0  0  0
   36.6640   26.3640   40.1110 C   0  0  0  0  0  0  0  0  0  0  0  0
   37.0460   26.6800   41.4260 C   0  0  0  0  0  0  0  0  0  0  0  0
   37.1860   25.5550   42.2090 C   0  0  0  0  0  0  0  0  0  0  0  0
   37.4870   25.7590   43.2500 H   0  0  0  0  0  0  0  0  0  0  0  0
   36.9730   24.2740   41.7450 C   0  0  0  0  0  0  0  0  0  0  0  0
   37.1160   23.4580   42.4640 H   0  0  0  0  0  0  0  0  0  0  0  0
   36.6050   24.0870   40.4530 C   0  0  0  0  0  3  0  0  0  0  0  0
   36.4320   25.1200   39.5670 C   0  0  0  0  0  3  0  0  0  0  0  0
  1  2  1  0  0  0  0
  1  3  1  0  0  0  0
  2  3  1  0  0  0  0
  2  5  1  0  0  0  0
  3  6  1  0  0  0  0
  3  7  1  0  0  0  0
  4  2  1  0  0  0  0
  8 13  1  0  0  0  0
  8  1  1  0  0  0  0
  9 16  1  0  0  0  0
  9  8  1  0  0  0  0
 10 18  1  0  0  0  0
 10 11  1  0  0  0  0
 10  9  1  0  0  0  0
 11 12  1  0  0  0  0
 12 20  1  0  0  0  0
 12 13  1  0  0  0  0
 13 21  1  0  0  0  0
 13 22  1  0  0  0  0
 14  8  1  0  0  0  0
 15  9  1  0  0  0  0
 17 10  1  0  0  0  0
 19 12  1  0  0  0  0
 23 30  1  0  0  0  0
 23 24  1  0  0  0  0
 24  1  1  0  0  0  0
 25 24  2  0  0  0  0
 25 33  1  0  0  0  0
 26 25  1  0  0  0  0
 27 28  1  0  0  0  0
 27 26  2  0  0  0  0
 28 23  2  0  0  0  0
 29 27  1  0  0  0  0
 29 32  1  0  0  0  0
 31 29  1  0  0  0  0
 33 34  1  1  0  0  0
 35 36  1  0  0  0  0
 36 37  1  0  0  0  0
 37 33  1  0  0  0  0
 37 38  2  0  0  0  0
 38 39  1  0  0  0  0
 40 38  1  0  0  0  0
 40 41  1  0  0  0  0
 42 40  2  0  0  0  0
 43 36  2  0  0  0  0
 43 42  1  0  0  0  0
M  END
>  <minimizedAffinity>
-5.63435078

$$$$

 OpenBabel03242516173D

 43 46  0  0  1  0  0  0  0  0999 V2000
   38.1170   27.9100   42.2270 C   0  0  0  0  0  0  0  0  0  0  0  0
   37.1530   28.4200   43.2800 C   0  0  0  0  0  0  0  0  0  0  0  0
   38.2520   27.5130   43.5960 C   0  0  0  0  0  0  0  0  0  0  0  0
   37.2140   29.4760   43.6290 H   0  0  0  0  0  0  0  0  0  0  0  0
   36.0950   28.1210   43.1380 H   0  0  0  0  0  0  0  0  0  0  0  0
   39.1070   27.9670   44.1840 H   0  0  0  0  0  0  0  0  0  0  0  0
   37.8210   26.6750   44.1590 H   0  0  0  0  0  0  0  0  0  0  0  0
   39.0260   28.9900   41.7060 C   0  0  0  0  0  0  0  0  0  0  0  0
   40.3020   28.4990   41.0510 C   0  0  0  0  0  0  0  0  0  0  0  0
   40.9950   29.7500   40.5210 C   0  0  0  0  0  0  0  0  0  0  0  0
   41.5610   30.3850   41.6450 O   0  0  0  0  0  0  0  0  0  0  0  0
   40.4210   30.9570   42.2660 C   0  0  0  0  0  0  0  0  0  0  0  0
   39.5750   29.8460   42.8800 C   0  0  0  0  0  0  0  0  0  0  0  0
   38.5440   29.6970   41.0110 H   0  0  0  0  0  0  0  0  0  0  0  0
   40.0990   27.8920   40.1430 H   0  0  0  0  0  0  0  0  0  0  0  0
   40.9730   28.0020   41.7640 H   0  0  0  0  0  0  0  0  0  0  0  0
   41.8500   29.4560   39.8600 H   0  0  0  0  0  0  0  0  0  0  0  0
   40.2710   30.3930   40.0130 H   0  0  0  0  0  0  0  0  0  0  0  0
   39.7950   31.4530   41.4950 H   0  0  0  0  0  0  0  0  0  0  0  0
   40.7110   31.6660   43.0520 H   0  0  0  0  0  0  0  0  0  0  0  0
   40.2100   29.2050   43.5330 H   0  0  0  0  0  0  0  0  0  0  0  0
   38.7660   30.3430   43.4250 H   0  0  0  0  0  0  0  0  0  0  0  0
   37.9900   25.6280   41.2010 C   0  0  0  0  0  0  0  0  0  0  0  0
   37.5580   26.9600   41.2280 C   0  0  0  0  0  0  0  0  0  0  0  0
   36.6000   27.3350   40.2880 C   0  0  0  0  0  0  0  0  0  0  0  0
   36.1330   26.4170   39.4040 N   0  0  0  0  0  0  0  0  0  0  0  0
   36.5880   25.1580   39.4310 C   0  0  0  0  0  0  0  0  0  0  0  0
   37.4890   24.7520   40.2940 N   0  0  0  0  0  0  0  0  0  0  0  0
   36.1200   24.1690   38.5000 N   0  0  0  0  0  0  0  0  0  0  0  0
   38.7290   25.3650   41.9360 H   0  0  0  0  0  0  0  0  0  0  0  0
   36.0690   23.1700   38.7450 H   0  0  0  0  0  0  0  0  0  0  0  0
   35.8310   24.5020   37.5550 H   0  0  0  0  0  0  0  0  0  0  0  0
   36.0910   28.6770   40.1960 C   0  0  2  0  0  3  0  0  0  0  0  0
   34.8740   29.0450   40.4540 O   0  0  0  0  0  1  0  0  0  0  0  0
   36.6640   29.0300   37.3510 Cl  0  0  0  0  0  0  0  0  0  0  0  0
   36.8320   30.3460   38.5270 C   0  0  0  0  0  0  0  0  0  0  0  0
   36.4910   30.0320   39.8540 C   0  0  0  0  0  0  0  0  0  0  0  0
   36.6460   31.1090   40.6980 C   0  0  0  0  0  0  0  0  0  0  0  0
   36.3860   30.9040   41.7510 H   0  0  0  0  0  0  0  0  0  0  0  0
   37.0870   32.3470   40.2800 C   0  0  0  0  0  0  0  0  0  0  0  0
   37.1710   33.1270   41.0460 H   0  0  0  0  0  0  0  0  0  0  0  0
   37.3900   32.5370   38.9720 C   0  0  0  0  0  3  0  0  0  0  0  0
   37.2790   31.5490   38.0260 C   0  0  0  0  0  3  0  0  0  0  0  0
  1  2  1  0  0  0  0
  1  3  1  0  0  0  0
  2  3  1  0  0  0  0
  2  4  1  0  0  0  0
  3  7  1  0  0  0  0
  3  6  1  0  0  0  0
  5  2  1  0  0  0  0
  8  1  1  0  0  0  0
  8 13  1  0  0  0  0
  9  8  1  0  0  0  0
  9 16  1  0  0  0  0
 10  9  1  0  0  0  0
 10 11  1  0  0  0  0
 11 12  1  0  0  0  0
 12 13  1  0  0  0  0
 12 20  1  0  0  0  0
 13 22  1  0  0  0  0
 13 21  1  0  0  0  0
 14  8  1  0  0  0  0
 15  9  1  0  0  0  0
 17 10  1  0  0  0  0
 18 10  1  0  0  0  0
 19 12  1  0  0  0  0
 23 24  1  0  0  0  0
 23 30  1  0  0  0  0
 24  1  1  0  0  0  0
 25 24  2  0  0  0  0
 26 27  2  0  0  0  0
 26 25  1  0  0  0  0
 27 28  1  0  0  0  0
 28 23  2  0  0  0  0
 29 31  1  0  0  0  0
 29 27  1  0  0  0  0
 32 29  1  0  0  0  0
 33 25  1  0  0  0  0
 33 34  1  6  0  0  0
 35 36  1  0  0  0  0
 36 37  1  0  0  0  0
 37 33  1  0  0  0  0
 37 38  2  0  0  0  0
 38 39  1  0  0  0  0
 40 38  1  0  0  0  0
 40 41  1  0  0  0  0
 42 40  2  0  0  0  0
 43 36  2  0  0  0  0
 43 42  1  0  0  0  0
M  END
>  <minimizedAffinity>
-5.59107208

$$$$

 OpenBabel03242516173D

 43 46  0  0  1  0  0  0  0  0999 V2000
   37.0340   27.3760   42.3430 C   0  0  0  0  0  0  0  0  0  0  0  0
   36.3180   27.3950   43.6800 C   0  0  0  0  0  0  0  0  0  0  0  0
   37.6550   27.9520   43.4970 C   0  0  0  0  0  0  0  0  0  0  0  0
   35.4660   28.0920   43.8480 H   0  0  0  0  0  0  0  0  0  0  0  0
   36.0920   26.3980   44.1090 H   0  0  0  0  0  0  0  0  0  0  0  0
   37.7230   29.0820   43.5380 H   0  0  0  0  0  0  0  0  0  0  0  0
   38.2910   27.5160   44.2790 H   0  0  0  0  0  0  0  0  0  0  0  0
   36.4020   28.3010   41.3380 C   0  0  0  0  0  0  0  0  0  0  0  0
   36.4070   27.7980   39.9070 C   0  0  0  0  0  0  0  0  0  0  0  0
   35.6350   28.8420   39.1080 C   0  0  0  0  0  0  0  0  0  0  0  0
   36.5090   29.9380   38.9540 O   0  0  0  0  0  0  0  0  0  0  0  0
   36.4810   30.5210   40.2470 C   0  0  0  0  0  0  0  0  0  0  0  0
   37.2230   29.6130   41.2230 C   0  0  0  0  0  0  0  0  0  0  0  0
   35.3710   28.6050   41.5820 H   0  0  0  0  0  0  0  0  0  0  0  0
   35.8140   26.8670   39.7890 H   0  0  0  0  0  0  0  0  0  0  0  0
   37.4220   27.7220   39.4960 H   0  0  0  0  0  0  0  0  0  0  0  0
   35.4320   28.4530   38.0770 H   0  0  0  0  0  0  0  0  0  0  0  0
   34.7220   29.1230   39.6390 H   0  0  0  0  0  0  0  0  0  0  0  0
   35.4290   30.5820   40.5970 H   0  0  0  0  0  0  0  0  0  0  0  0
   36.9520   31.5120   40.2450 H   0  0  0  0  0  0  0  0  0  0  0  0
   38.2350   29.3770   40.8220 H   0  0  0  0  0  0  0  0  0  0  0  0
   37.2550   30.1510   42.1760 H   0  0  0  0  0  0  0  0  0  0  0  0
   36.6150   24.9390   41.9450 C   0  0  0  0  0  0  0  0  0  0  0  0
   37.4720   26.0430   41.8500 C   0  0  0  0  0  0  0  0  0  0  0  0
   38.7250   25.8240   41.2830 C   0  0  0  0  0  0  0  0  0  0  0  0
   39.0610   24.5810   40.8530 N   0  0  0  0  0  0  0  0  0  0  0  0
   38.1950   23.5670   40.9740 C   0  0  0  0  0  0  0  0  0  0  0  0
   37.0020   23.7170   41.5010 N   0  0  0  0  0  0  0  0  0  0  0  0
   38.5260   22.2380   40.5390 N   0  0  0  0  0  0  0  0  0  0  0  0
   35.6540   25.1340   42.3870 H   0  0  0  0  0  0  0  0  0  0  0  0
   37.8120   21.5830   40.1910 H   0  0  0  0  0  0  0  0  0  0  0  0
   39.5300   21.9570   40.5900 H   0  0  0  0  0  0  0  0  0  0  0  0
   39.7050   26.8690   41.1480 C   0  0  2  0  0  3  0  0  0  0  0  0
   40.0220   27.4720   40.0440 O   0  0  0  0  0  1  0  0  0  0  0  0
   41.4710   25.2290   42.8020 Cl  0  0  0  0  0  0  0  0  0  0  0  0
   41.5530   27.0010   42.7870 C   0  0  0  0  0  0  0  0  0  0  0  0
   40.6600   27.6490   41.9170 C   0  0  0  0  0  0  0  0  0  0  0  0
   40.7930   29.0190   41.9650 C   0  0  0  0  0  0  0  0  0  0  0  0
   40.1090   29.5670   41.2940 H   0  0  0  0  0  0  0  0  0  0  0  0
   41.6990   29.6690   42.7760 C   0  0  0  0  0  0  0  0  0  0  0  0
   41.7110   30.7630   42.7280 H   0  0  0  0  0  0  0  0  0  0  0  0
   42.5140   28.9390   43.5790 C   0  0  0  0  0  3  0  0  0  0  0  0
   42.4860   27.5680   43.6270 C   0  0  0  0  0  3  0  0  0  0  0  0
  1  3  1  0  0  0  0
  1  2  1  0  0  0  0
  2  4  1  0  0  0  0
  2  5  1  0  0  0  0
  3  6  1  0  0  0  0
  3  2  1  0  0  0  0
  3  7  1  0  0  0  0
  8 14  1  0  0  0  0
  8  1  1  0  0  0  0
  9  8  1  0  0  0  0
 10 18  1  0  0  0  0
 10  9  1  0  0  0  0
 11 10  1  0  0  0  0
 11 12  1  0  0  0  0
 12 19  1  0  0  0  0
 12 13  1  0  0  0  0
 13  8  1  0  0  0  0
 13 22  1  0  0  0  0
 15  9  1  0  0  0  0
 16  9  1  0  0  0  0
 17 10  1  0  0  0  0
 20 12  1  0  0  0  0
 21 13  1  0  0  0  0
 23 30  1  0  0  0  0
 24 23  1  0  0  0  0
 24  1  1  0  0  0  0
 25 24  2  0  0  0  0
 26 27  2  0  0  0  0
 26 25  1  0  0  0  0
 27 28  1  0  0  0  0
 28 23  2  0  0  0  0
 29 32  1  0  0  0  0
 29 27  1  0  0  0  0
 31 29  1  0  0  0  0
 33 34  1  6  0  0  0
 33 25  1  0  0  0  0
 33 37  1  0  0  0  0
 36 35  1  0  0  0  0
 36 43  1  0  0  0  0
 37 38  1  0  0  0  0
 37 36  2  0  0  0  0
 38 40  2  0  0  0  0
 39 38  1  0  0  0  0
 40 42  1  0  0  0  0
 41 40  1  0  0  0  0
 42 43  2  0  0  0  0
M  END
>  <minimizedAffinity>
-5.55399179

$$$$

 OpenBabel03242516173D

 43 46  0  0  1  0  0  0  0  0999 V2000
   38.0150   29.1570   38.2040 C   0  0  0  0  0  0  0  0  0  0  0  0
   38.8880   28.2020   37.4130 C   0  0  0  0  0  0  0  0  0  0  0  0
   38.5320   27.9670   38.8100 C   0  0  0  0  0  0  0  0  0  0  0  0
   38.4370   27.5510   36.6300 H   0  0  0  0  0  0  0  0  0  0  0  0
   39.8500   28.6230   37.0580 H   0  0  0  0  0  0  0  0  0  0  0  0
   37.8020   27.1210   38.9920 H   0  0  0  0  0  0  0  0  0  0  0  0
   39.4680   27.7690   39.3480 H   0  0  0  0  0  0  0  0  0  0  0  0
   36.5850   29.1540   37.7340 C   0  0  0  0  0  0  0  0  0  0  0  0
   35.7880   27.9180   38.1030 C   0  0  0  0  0  0  0  0  0  0  0  0
   34.3690   28.1890   37.6170 C   0  0  0  0  0  0  0  0  0  0  0  0
   34.3980   28.0170   36.2180 O   0  0  0  0  0  0  0  0  0  0  0  0
   35.0560   29.1990   35.7890 C   0  0  0  0  0  0  0  0  0  0  0  0
   36.5280   29.1250   36.1830 C   0  0  0  0  0  0  0  0  0  0  0  0
   36.0000   30.0340   38.0460 H   0  0  0  0  0  0  0  0  0  0  0  0
   35.6850   27.8000   39.2020 H   0  0  0  0  0  0  0  0  0  0  0  0
   36.1630   27.0160   37.6030 H   0  0  0  0  0  0  0  0  0  0  0  0
   33.6760   27.4060   38.0170 H   0  0  0  0  0  0  0  0  0  0  0  0
   34.0640   29.2020   37.8940 H   0  0  0  0  0  0  0  0  0  0  0  0
   34.6210   30.0720   36.3200 H   0  0  0  0  0  0  0  0  0  0  0  0
   34.9790   29.3230   34.7010 H   0  0  0  0  0  0  0  0  0  0  0  0
   36.9670   28.1680   35.8190 H   0  0  0  0  0  0  0  0  0  0  0  0
   37.0050   30.0080   35.7480 H   0  0  0  0  0  0  0  0  0  0  0  0
   39.5160   31.0820   37.6430 C   0  0  0  0  0  0  0  0  0  0  0  0
   38.6150   30.4790   38.5290 C   0  0  0  0  0  0  0  0  0  0  0  0
   38.3210   31.1700   39.7020 C   0  0  0  0  0  0  0  0  0  0  0  0
   38.9040   32.3730   39.9370 N   0  0  0  0  0  0  0  0  0  0  0  0
   39.7590   32.8950   39.0490 C   0  0  0  0  0  0  0  0  0  0  0  0
   40.0710   32.2870   37.9280 N   0  0  0  0  0  0  0  0  0  0  0  0
   40.4000   34.1610   39.2750 N   0  0  0  0  0  0  0  0  0  0  0  0
   39.7260   30.5280   36.7460 H   0  0  0  0  0  0  0  0  0  0  0  0
   40.6650   34.7850   38.5010 H   0  0  0  0  0  0  0  0  0  0  0  0
   40.5910   34.4280   40.2660 H   0  0  0  0  0  0  0  0  0  0  0  0
   37.4290   30.6490   40.7040 C   0  0  2  0  0  3  0  0  0  0  0  0
   36.3000   31.1790   41.0620 O   0  0  0  0  0  1  0  0  0  0  0  0
   39.4900   30.6330   42.7770 Cl  0  0  0  0  0  0  0  0  0  0  0  0
   38.2210   29.3960   42.6840 C   0  0  0  0  0  0  0  0  0  0  0  0
   37.2830   29.5560   41.6500 C   0  0  0  0  0  0  0  0  0  0  0  0
   36.3340   28.5580   41.6530 C   0  0  0  0  0  0  0  0  0  0  0  0
   35.5770   28.6460   40.8560 H   0  0  0  0  0  0  0  0  0  0  0  0
   36.3170   27.5260   42.5680 C   0  0  0  0  0  0  0  0  0  0  0  0
   35.5110   26.7900   42.4680 H   0  0  0  0  0  0  0  0  0  0  0  0
   37.2760   27.4720   43.5260 C   0  0  0  0  0  3  0  0  0  0  0  0
   38.2780   28.4020   43.6360 C   0  0  0  0  0  3  0  0  0  0  0  0
  1 24  1  0  0  0  0
  1  3  1  0  0  0  0
  2  1  1  0  0  0  0
  2  3  1  0  0  0  0
  3  6  1  0  0  0  0
  3  7  1  0  0  0  0
  4  2  1  0  0  0  0
  5  2  1  0  0  0  0
  8 14  1  0  0  0  0
  8  9  1  0  0  0  0
  8  1  1  0  0  0  0
  9 15  1  0  0  0  0
 10 18  1  0  0  0  0
 10 17  1  0  0  0  0
 10  9  1  0  0  0  0
 11 10  1  0  0  0  0
 12 13  1  0  0  0  0
 12 11  1  0  0  0  0
 12 19  1  0  0  0  0
 13  8  1  0  0  0  0
 16  9  1  0  0  0  0
 20 12  1  0  0  0  0
 21 13  1  0  0  0  0
 22 13  1  0  0  0  0
 23 28  2  0  0  0  0
 23 24  1  0  0  0  0
 24 25  2  0  0  0  0
 25 26  1  0  0  0  0
 25 33  1  0  0  0  0
 27 29  1  0  0  0  0
 27 26  2  0  0  0  0
 28 27  1  0  0  0  0
 29 32  1  0  0  0  0
 30 23  1  0  0  0  0
 31 29  1  0  0  0  0
 33 34  1  1  0  0  0
 33 37  1  0  0  0  0
 36 35  1  0  0  0  0
 36 43  1  0  0  0  0
 37 38  1  0  0  0  0
 37 36  2  0  0  0  0
 38 40  2  0  0  0  0
 39 38  1  0  0  0  0
 40 42  1  0  0  0  0
 41 40  1  0  0  0  0
 42 43  2  0  0  0  0
M  END
>  <minimizedAffinity>
-5.54263687

$$$$
