
 OpenBabel03252508493D

 28 30  0  0  0  0  0  0  0  0999 V2000
   45.8540   34.1960   41.1510 C   0  0  0  0  0  0  0  0  0  0  0  0
   46.4680   34.6710   42.3030 C   0  0  0  0  0  0  0  0  0  0  0  0
   47.8430   34.9430   42.2100 C   0  0  0  0  0  0  0  0  0  0  0  0
   48.4710   34.7270   41.0160 N   0  0  0  0  0  0  0  0  0  0  0  0
   47.8320   34.2700   39.9460 C   0  0  0  0  0  0  0  0  0  0  0  0
   46.5190   33.9970   39.9910 N   0  0  0  0  0  0  0  0  0  0  0  0
   48.3360   35.3170   43.1060 H   0  0  0  0  0  0  0  0  0  0  0  0
   48.3850   34.1180   39.0280 H   0  0  0  0  0  0  0  0  0  0  0  0
   45.6980   34.8620   43.5130 C   0  0  0  0  0  0  0  0  0  0  0  0
   45.0800   36.0530   43.8320 C   0  0  0  0  0  0  0  0  0  0  0  0
   44.4760   35.7940   45.0400 C   0  0  0  0  0  0  0  0  0  0  0  0
   44.7090   34.5180   45.4390 N   0  0  0  0  0  0  0  0  0  0  0  0
   45.4500   33.9820   44.4960 N   0  0  0  0  0  0  0  0  0  0  0  0
   45.0570   36.9940   43.2800 H   0  0  0  0  0  0  0  0  0  0  0  0
   43.8850   36.4780   45.6330 H   0  0  0  0  0  0  0  0  0  0  0  0
   44.4130   33.9920   46.2830 H   0  0  0  0  0  0  0  0  0  0  0  0
   44.4970   33.9150   41.2010 O   0  0  0  0  0  0  0  0  0  0  0  0
   43.4750   34.7210   40.7820 C   0  0  0  0  0  0  0  0  0  0  0  0
   43.4060   36.0020   40.8530 O   0  0  0  0  0  0  0  0  0  0  0  0
   43.7730   33.4010   38.0660 Cl  0  0  0  0  0  0  0  0  0  0  0  0
   42.2200   33.5540   38.9050 C   0  0  0  0  0  0  0  0  0  0  0  0
   42.2340   34.1870   40.1520 C   0  0  0  0  0  0  0  0  0  0  0  0
   40.9810   34.2530   40.7120 C   0  0  0  0  0  0  0  0  0  0  0  0
   40.8850   34.7290   41.6870 H   0  0  0  0  0  0  0  0  0  0  0  0
   39.8400   33.7690   40.1470 C   0  0  0  0  0  0  0  0  0  0  0  0
   38.8940   33.8620   40.6540 H   0  0  0  0  0  0  0  0  0  0  0  0
   39.9290   33.1640   38.9160 C   0  0  0  0  0  3  0  0  0  0  0  0
   41.1360   33.0450   38.2670 C   0  0  0  0  0  3  0  0  0  0  0  0
  1 17  1  0  0  0  0
  1  2  1  0  0  0  0
  2  9  1  0  0  0  0
  3  2  2  0  0  0  0
  3  7  1  0  0  0  0
  4  3  1  0  0  0  0
  5  6  1  0  0  0  0
  5  4  2  0  0  0  0
  6  1  2  0  0  0  0
  8  5  1  0  0  0  0
  9 10  1  0  0  0  0
  9 13  2  0  0  0  0
 10 11  2  0  0  0  0
 11 12  1  0  0  0  0
 11 15  1  0  0  0  0
 12 16  1  0  0  0  0
 13 12  1  0  0  0  0
 14 10  1  0  0  0  0
 18 19  2  0  0  0  0
 18 17  1  0  0  0  0
 20 21  1  0  0  0  0
 21 22  1  0  0  0  0
 22 23  2  0  0  0  0
 22 18  1  0  0  0  0
 23 24  1  0  0  0  0
 25 26  1  0  0  0  0
 25 23  1  0  0  0  0
 27 25  2  0  0  0  0
 28 21  2  0  0  0  0
 28 27  1  0  0  0  0
M  END
>  <minimizedAffinity>
-5.38059187

>  <minimizedRMSD>
1.09213793

$$$$
