
 OpenBabel03242520463D

 22 23  0  0  0  0  0  0  0  0999 V2000
   37.6290   32.5850   40.3130 C   0  0  0  0  0  0  0  0  0  0  0  0
   36.7710   31.4620   40.3170 C   0  0  0  0  0  0  0  0  0  0  0  0
   37.2570   30.2620   40.8690 C   0  0  0  0  0  0  0  0  0  0  0  0
   38.5260   30.2600   41.3650 N   0  0  0  0  0  0  0  0  0  0  0  0
   39.3070   31.3630   41.3380 C   0  0  0  0  0  0  0  0  0  0  0  0
   38.8520   32.5120   40.8130 N   0  0  0  0  0  0  0  0  0  0  0  0
   37.1410   33.7840   39.7590 N   0  0  0  0  0  0  0  0  0  0  0  0
   35.7950   31.5770   39.9010 H   0  0  0  0  0  0  0  0  0  0  0  0
   40.3070   31.3160   41.7430 H   0  0  0  0  0  0  0  0  0  0  0  0
   36.1670   33.9390   39.4420 H   0  0  0  0  0  0  0  0  0  0  0  0
   37.7450   34.6030   39.6360 H   0  0  0  0  0  0  0  0  0  0  0  0
   36.3750   29.1370   40.8640 C   0  0  0  0  0  0  0  0  0  0  0  0
   35.1200   29.2290   40.6880 O   0  0  0  0  0  0  0  0  0  0  0  0
   36.9840   28.1200   43.6790 Cl  0  0  0  0  0  0  0  0  0  0  0  0
   36.9470   27.1200   42.2580 C   0  0  0  0  0  0  0  0  0  0  0  0
   36.6570   27.7110   41.0450 C   0  0  0  0  0  0  0  0  0  0  0  0
   36.6290   26.9120   39.9250 C   0  0  0  0  0  0  0  0  0  0  0  0
   36.4140   27.2620   38.9170 H   0  0  0  0  0  0  0  0  0  0  0  0
   36.8810   25.5380   39.9710 C   0  0  0  0  0  0  0  0  0  0  0  0
   36.8600   24.9090   39.0920 H   0  0  0  0  0  0  0  0  0  0  0  0
   37.1670   24.9830   41.1970 C   0  0  0  0  0  3  0  0  0  0  0  0
   37.2020   25.7570   42.3380 C   0  0  0  0  0  3  0  0  0  0  0  0
  1  2  2  0  0  0  0
  1  6  1  0  0  0  0
  2  3  1  0  0  0  0
  3  4  2  0  0  0  0
  5  4  1  0  0  0  0
  5  9  1  0  0  0  0
  6  5  2  0  0  0  0
  7  1  1  0  0  0  0
  8  2  1  0  0  0  0
 10  7  1  0  0  0  0
 11  7  1  0  0  0  0
 12  3  1  0  0  0  0
 12 16  1  0  0  0  0
 13 12  2  0  0  0  0
 15 22  1  0  0  0  0
 15 14  1  0  0  0  0
 16 15  2  0  0  0  0
 17 19  2  0  0  0  0
 17 16  1  0  0  0  0
 18 17  1  0  0  0  0
 19 21  1  0  0  0  0
 20 19  1  0  0  0  0
 21 22  2  0  0  0  0
M  END
>  <minimizedAffinity>
-5.33256054

$$$$

 OpenBabel03242520463D

 22 23  0  0  0  0  0  0  0  0999 V2000
   36.6040   30.7070   40.4660 C   0  0  0  0  0  0  0  0  0  0  0  0
   36.8140   29.8350   41.5580 C   0  0  0  0  0  0  0  0  0  0  0  0
   36.7480   28.4480   41.3180 C   0  0  0  0  0  0  0  0  0  0  0  0
   36.4870   28.0370   40.0460 N   0  0  0  0  0  0  0  0  0  0  0  0
   36.2950   28.9130   39.0350 C   0  0  0  0  0  0  0  0  0  0  0  0
   36.3550   30.2360   39.2550 N   0  0  0  0  0  0  0  0  0  0  0  0
   36.6690   32.0920   40.7080 N   0  0  0  0  0  0  0  0  0  0  0  0
   37.0100   30.2680   42.5130 H   0  0  0  0  0  0  0  0  0  0  0  0
   36.0910   28.5420   38.0420 H   0  0  0  0  0  0  0  0  0  0  0  0
   36.9550   32.5250   41.6040 H   0  0  0  0  0  0  0  0  0  0  0  0
   36.4290   32.7750   39.9830 H   0  0  0  0  0  0  0  0  0  0  0  0
   36.9620   27.5820   42.4360 C   0  0  0  0  0  0  0  0  0  0  0  0
   36.1990   27.5430   43.4500 O   0  0  0  0  0  0  0  0  0  0  0  0
   36.5870   24.7400   41.3840 Cl  0  0  0  0  0  0  0  0  0  0  0  0
   37.9810   25.2870   42.2660 C   0  0  0  0  0  0  0  0  0  0  0  0
   38.0210   26.6010   42.6840 C   0  0  0  0  0  0  0  0  0  0  0  0
   39.1280   27.0260   43.3820 C   0  0  0  0  0  0  0  0  0  0  0  0
   39.2740   28.0350   43.7620 H   0  0  0  0  0  0  0  0  0  0  0  0
   40.2030   26.1830   43.6790 C   0  0  0  0  0  0  0  0  0  0  0  0
   41.0730   26.5150   44.2280 H   0  0  0  0  0  0  0  0  0  0  0  0
   40.1280   24.8790   43.2480 C   0  0  0  0  0  3  0  0  0  0  0  0
   39.0320   24.4230   42.5460 C   0  0  0  0  0  3  0  0  0  0  0  0
  1  7  1  0  0  0  0
  1  2  1  0  0  0  0
  2  8  1  0  0  0  0
  3  2  2  0  0  0  0
  3 12  1  0  0  0  0
  4  3  1  0  0  0  0
  5  6  1  0  0  0  0
  5  4  2  0  0  0  0
  6  1  2  0  0  0  0
  7 10  1  0  0  0  0
  9  5  1  0  0  0  0
 11  7  1  0  0  0  0
 12 16  1  0  0  0  0
 12 13  2  0  0  0  0
 14 15  1  0  0  0  0
 15 22  2  0  0  0  0
 15 16  1  0  0  0  0
 16 17  2  0  0  0  0
 17 19  1  0  0  0  0
 17 18  1  0  0  0  0
 19 20  1  0  0  0  0
 21 19  2  0  0  0  0
 22 21  1  0  0  0  0
M  END
>  <minimizedAffinity>
-5.22334003

$$$$

 OpenBabel03242520463D

 22 23  0  0  0  0  0  0  0  0999 V2000
   38.3450   24.1150   41.8240 C   0  0  0  0  0  0  0  0  0  0  0  0
   37.4360   25.1910   41.9280 C   0  0  0  0  0  0  0  0  0  0  0  0
   37.8420   26.3310   42.6480 C   0  0  0  0  0  0  0  0  0  0  0  0
   39.0880   26.3230   43.1990 N   0  0  0  0  0  0  0  0  0  0  0  0
   39.9210   25.2670   43.0690 C   0  0  0  0  0  0  0  0  0  0  0  0
   39.5430   24.1750   42.3850 N   0  0  0  0  0  0  0  0  0  0  0  0
   37.9370   22.9750   41.1050 N   0  0  0  0  0  0  0  0  0  0  0  0
   36.4850   25.0880   41.4570 H   0  0  0  0  0  0  0  0  0  0  0  0
   40.9010   25.3040   43.5220 H   0  0  0  0  0  0  0  0  0  0  0  0
   37.0590   22.8990   40.5620 H   0  0  0  0  0  0  0  0  0  0  0  0
   38.5090   22.1250   41.0770 H   0  0  0  0  0  0  0  0  0  0  0  0
   36.9080   27.4100   42.7430 C   0  0  0  0  0  0  0  0  0  0  0  0
   36.0460   27.5130   43.6690 O   0  0  0  0  0  0  0  0  0  0  0  0
   38.7670   29.8080   43.0930 Cl  0  0  0  0  0  0  0  0  0  0  0  0
   37.4810   29.7210   41.9260 C   0  0  0  0  0  0  0  0  0  0  0  0
   36.7150   28.5750   41.8750 C   0  0  0  0  0  0  0  0  0  0  0  0
   35.7000   28.5140   40.9490 C   0  0  0  0  0  0  0  0  0  0  0  0
   35.0310   27.6660   40.8140 H   0  0  0  0  0  0  0  0  0  0  0  0
   35.4190   29.5610   40.0660 C   0  0  0  0  0  0  0  0  0  0  0  0
   34.6210   29.5150   39.3380 H   0  0  0  0  0  0  0  0  0  0  0  0
   36.2030   30.6890   40.1460 C   0  0  0  0  0  3  0  0  0  0  0  0
   37.2280   30.7800   41.0640 C   0  0  0  0  0  3  0  0  0  0  0  0
  1  2  2  0  0  0  0
  1  6  1  0  0  0  0
  2  3  1  0  0  0  0
  3 12  1  0  0  0  0
  3  4  2  0  0  0  0
  5  4  1  0  0  0  0
  5  9  1  0  0  0  0
  6  5  2  0  0  0  0
  7  1  1  0  0  0  0
  8  2  1  0  0  0  0
 10  7  1  0  0  0  0
 11  7  1  0  0  0  0
 12 13  2  0  0  0  0
 15 14  1  0  0  0  0
 16 15  1  0  0  0  0
 16 12  1  0  0  0  0
 17 16  2  0  0  0  0
 18 17  1  0  0  0  0
 19 21  2  0  0  0  0
 19 17  1  0  0  0  0
 20 19  1  0  0  0  0
 21 22  1  0  0  0  0
 22 15  2  0  0  0  0
M  END
>  <minimizedAffinity>
-5.18962002

$$$$

 OpenBabel03242520463D

 22 23  0  0  0  0  0  0  0  0999 V2000
   37.8360   31.2570   37.2400 C   0  0  0  0  0  0  0  0  0  0  0  0
   37.6990   31.2160   38.6450 C   0  0  0  0  0  0  0  0  0  0  0  0
   36.7830   30.2980   39.1930 C   0  0  0  0  0  0  0  0  0  0  0  0
   36.0860   29.5060   38.3310 N   0  0  0  0  0  0  0  0  0  0  0  0
   36.2550   29.5840   36.9920 C   0  0  0  0  0  0  0  0  0  0  0  0
   37.1260   30.4570   36.4610 N   0  0  0  0  0  0  0  0  0  0  0  0
   38.7520   32.1770   36.6940 N   0  0  0  0  0  0  0  0  0  0  0  0
   38.2970   31.8840   39.2250 H   0  0  0  0  0  0  0  0  0  0  0  0
   35.6810   28.9360   36.3460 H   0  0  0  0  0  0  0  0  0  0  0  0
   39.4070   32.7600   37.2440 H   0  0  0  0  0  0  0  0  0  0  0  0
   38.8250   32.3250   35.6820 H   0  0  0  0  0  0  0  0  0  0  0  0
   36.6590   30.2710   40.6180 C   0  0  0  0  0  0  0  0  0  0  0  0
   36.0120   31.1390   41.2820 O   0  0  0  0  0  0  0  0  0  0  0  0
   39.3480   30.8970   41.9240 Cl  0  0  0  0  0  0  0  0  0  0  0  0
   38.3950   29.4830   42.2610 C   0  0  0  0  0  0  0  0  0  0  0  0
   37.1960   29.3240   41.5980 C   0  0  0  0  0  0  0  0  0  0  0  0
   36.4480   28.2020   41.8700 C   0  0  0  0  0  0  0  0  0  0  0  0
   35.4890   27.9670   41.4120 H   0  0  0  0  0  0  0  0  0  0  0  0
   36.8550   27.2280   42.7860 C   0  0  0  0  0  0  0  0  0  0  0  0
   36.2680   26.3450   43.0010 H   0  0  0  0  0  0  0  0  0  0  0  0
   38.0570   27.4190   43.4280 C   0  0  0  0  0  3  0  0  0  0  0  0
   38.8290   28.5330   43.1770 C   0  0  0  0  0  3  0  0  0  0  0  0
  1  2  1  0  0  0  0
  2  3  2  0  0  0  0
  2  8  1  0  0  0  0
  3 12  1  0  0  0  0
  4  3  1  0  0  0  0
  5  4  2  0  0  0  0
  6  5  1  0  0  0  0
  6  1  2  0  0  0  0
  7  1  1  0  0  0  0
  7 10  1  0  0  0  0
  9  5  1  0  0  0  0
 11  7  1  0  0  0  0
 12 13  2  0  0  0  0
 12 16  1  0  0  0  0
 14 15  1  0  0  0  0
 15 22  1  0  0  0  0
 16 17  1  0  0  0  0
 16 15  2  0  0  0  0
 17 19  2  0  0  0  0
 18 17  1  0  0  0  0
 19 20  1  0  0  0  0
 19 21  1  0  0  0  0
 22 21  2  0  0  0  0
M  END
>  <minimizedAffinity>
-5.1840682

$$$$

 OpenBabel03242520463D

 22 23  0  0  0  0  0  0  0  0999 V2000
   39.5210   32.1370   38.3520 C   0  0  0  0  0  0  0  0  0  0  0  0
   38.4580   31.4410   38.9700 C   0  0  0  0  0  0  0  0  0  0  0  0
   38.4450   31.3700   40.3770 C   0  0  0  0  0  0  0  0  0  0  0  0
   39.4600   31.9790   41.0520 N   0  0  0  0  0  0  0  0  0  0  0  0
   40.4540   32.6350   40.4120 C   0  0  0  0  0  0  0  0  0  0  0  0
   40.4750   32.7060   39.0710 N   0  0  0  0  0  0  0  0  0  0  0  0
   39.5330   32.2060   36.9450 N   0  0  0  0  0  0  0  0  0  0  0  0
   37.7170   31.0010   38.3420 H   0  0  0  0  0  0  0  0  0  0  0  0
   41.2380   33.1030   40.9880 H   0  0  0  0  0  0  0  0  0  0  0  0
   38.7720   31.8700   36.3280 H   0  0  0  0  0  0  0  0  0  0  0  0
   40.3250   32.6080   36.4340 H   0  0  0  0  0  0  0  0  0  0  0  0
   37.3620   30.6610   40.9840 C   0  0  0  0  0  0  0  0  0  0  0  0
   36.1870   31.1320   41.0910 O   0  0  0  0  0  0  0  0  0  0  0  0
   36.5240   28.2980   39.2410 Cl  0  0  0  0  0  0  0  0  0  0  0  0
   36.9640   28.1770   40.9180 C   0  0  0  0  0  0  0  0  0  0  0  0
   37.3240   29.3280   41.5890 C   0  0  0  0  0  0  0  0  0  0  0  0
   37.6710   29.2240   42.9160 C   0  0  0  0  0  0  0  0  0  0  0  0
   37.9710   30.0580   43.5480 H   0  0  0  0  0  0  0  0  0  0  0  0
   37.6730   28.0060   43.6020 C   0  0  0  0  0  0  0  0  0  0  0  0
   37.9450   27.9220   44.6460 H   0  0  0  0  0  0  0  0  0  0  0  0
   37.3080   26.8790   42.9020 C   0  0  0  0  0  3  0  0  0  0  0  0
   36.9550   26.9510   41.5710 C   0  0  0  0  0  3  0  0  0  0  0  0
  1  2  2  0  0  0  0
  1  6  1  0  0  0  0
  2  3  1  0  0  0  0
  3 12  1  0  0  0  0
  3  4  2  0  0  0  0
  5  9  1  0  0  0  0
  5  4  1  0  0  0  0
  6  5  2  0  0  0  0
  7  1  1  0  0  0  0
  8  2  1  0  0  0  0
 10  7  1  0  0  0  0
 11  7  1  0  0  0  0
 12 13  2  0  0  0  0
 12 16  1  0  0  0  0
 14 15  1  0  0  0  0
 15 22  2  0  0  0  0
 15 16  1  0  0  0  0
 16 17  2  0  0  0  0
 17 18  1  0  0  0  0
 17 19  1  0  0  0  0
 19 20  1  0  0  0  0
 21 19  2  0  0  0  0
 22 21  1  0  0  0  0
M  END
>  <minimizedAffinity>
-5.12842226

$$$$

 OpenBabel03242520463D

 22 23  0  0  0  0  0  0  0  0999 V2000
   39.1450   31.8510   37.8650 C   0  0  0  0  0  0  0  0  0  0  0  0
   39.5900   31.5090   39.1620 C   0  0  0  0  0  0  0  0  0  0  0  0
   38.6310   31.0770   40.0970 C   0  0  0  0  0  0  0  0  0  0  0  0
   37.3320   31.0140   39.6900 N   0  0  0  0  0  0  0  0  0  0  0  0
   36.9570   31.3510   38.4360 C   0  0  0  0  0  0  0  0  0  0  0  0
   37.8650   31.7660   37.5380 N   0  0  0  0  0  0  0  0  0  0  0  0
   40.1060   32.2850   36.9310 N   0  0  0  0  0  0  0  0  0  0  0  0
   40.6330   31.5970   39.3710 H   0  0  0  0  0  0  0  0  0  0  0  0
   35.9160   31.2860   38.1570 H   0  0  0  0  0  0  0  0  0  0  0  0
   41.1300   32.2810   37.0890 H   0  0  0  0  0  0  0  0  0  0  0  0
   39.8360   32.6400   36.0090 H   0  0  0  0  0  0  0  0  0  0  0  0
   39.1000   30.7360   41.4040 C   0  0  0  0  0  0  0  0  0  0  0  0
   39.7760   31.5250   42.1350 O   0  0  0  0  0  0  0  0  0  0  0  0
   41.4560   28.7970   41.5440 Cl  0  0  0  0  0  0  0  0  0  0  0  0
   39.9220   28.5410   42.3210 C   0  0  0  0  0  0  0  0  0  0  0  0
   38.9420   29.5010   42.1750 C   0  0  0  0  0  0  0  0  0  0  0  0
   37.7310   29.2900   42.7930 C   0  0  0  0  0  0  0  0  0  0  0  0
   36.8850   29.9730   42.7510 H   0  0  0  0  0  0  0  0  0  0  0  0
   37.4610   28.1510   43.5570 C   0  0  0  0  0  0  0  0  0  0  0  0
   36.5100   27.9840   44.0430 H   0  0  0  0  0  0  0  0  0  0  0  0
   38.4620   27.2140   43.6800 C   0  0  0  0  0  3  0  0  0  0  0  0
   39.6860   27.3960   43.0720 C   0  0  0  0  0  3  0  0  0  0  0  0
  1  2  1  0  0  0  0
  2  8  1  0  0  0  0
  2  3  2  0  0  0  0
  3 12  1  0  0  0  0
  4  3  1  0  0  0  0
  5  4  2  0  0  0  0
  6  1  2  0  0  0  0
  6  5  1  0  0  0  0
  7 10  1  0  0  0  0
  7  1  1  0  0  0  0
  9  5  1  0  0  0  0
 11  7  1  0  0  0  0
 12 13  2  0  0  0  0
 12 16  1  0  0  0  0
 14 15  1  0  0  0  0
 15 22  1  0  0  0  0
 16 15  2  0  0  0  0
 16 17  1  0  0  0  0
 17 19  2  0  0  0  0
 18 17  1  0  0  0  0
 19 21  1  0  0  0  0
 19 20  1  0  0  0  0
 22 21  2  0  0  0  0
M  END
>  <minimizedAffinity>
-4.88152695

$$$$

 OpenBabel03242520463D

 22 23  0  0  0  0  0  0  0  0999 V2000
   37.2350   31.6190   40.0320 C   0  0  0  0  0  0  0  0  0  0  0  0
   37.2490   30.7550   41.1490 C   0  0  0  0  0  0  0  0  0  0  0  0
   37.6400   29.4170   40.9450 C   0  0  0  0  0  0  0  0  0  0  0  0
   37.9790   29.0420   39.6810 N   0  0  0  0  0  0  0  0  0  0  0  0
   37.9500   29.9090   38.6440 C   0  0  0  0  0  0  0  0  0  0  0  0
   37.5780   31.1860   38.8290 N   0  0  0  0  0  0  0  0  0  0  0  0
   36.8420   32.9560   40.2370 N   0  0  0  0  0  0  0  0  0  0  0  0
   36.9620   31.1570   42.0950 H   0  0  0  0  0  0  0  0  0  0  0  0
   38.2280   29.5680   37.6580 H   0  0  0  0  0  0  0  0  0  0  0  0
   36.6570   33.3840   41.1620 H   0  0  0  0  0  0  0  0  0  0  0  0
   36.7150   33.6040   39.4550 H   0  0  0  0  0  0  0  0  0  0  0  0
   37.6480   28.5580   42.0880 C   0  0  0  0  0  0  0  0  0  0  0  0
   37.3400   28.9440   43.2590 O   0  0  0  0  0  0  0  0  0  0  0  0
   40.5150   27.7930   42.8090 Cl  0  0  0  0  0  0  0  0  0  0  0  0
   39.2350   26.6530   42.5210 C   0  0  0  0  0  0  0  0  0  0  0  0
   37.9820   27.1370   42.2030 C   0  0  0  0  0  0  0  0  0  0  0  0
   36.9740   26.2280   41.9760 C   0  0  0  0  0  0  0  0  0  0  0  0
   35.9490   26.4880   41.7180 H   0  0  0  0  0  0  0  0  0  0  0  0
   37.1710   24.8470   42.0560 C   0  0  0  0  0  0  0  0  0  0  0  0
   36.3800   24.1310   41.8770 H   0  0  0  0  0  0  0  0  0  0  0  0
   38.4330   24.4000   42.3750 C   0  0  0  0  0  3  0  0  0  0  0  0
   39.4640   25.2860   42.6080 C   0  0  0  0  0  3  0  0  0  0  0  0
  1  7  1  0  0  0  0
  1  2  1  0  0  0  0
  2  8  1  0  0  0  0
  3  2  2  0  0  0  0
  3 12  1  0  0  0  0
  4  3  1  0  0  0  0
  5  6  1  0  0  0  0
  5  4  2  0  0  0  0
  6  1  2  0  0  0  0
  7 10  1  0  0  0  0
  9  5  1  0  0  0  0
 11  7  1  0  0  0  0
 12 16  1  0  0  0  0
 12 13  2  0  0  0  0
 15 22  1  0  0  0  0
 15 14  1  0  0  0  0
 16 15  2  0  0  0  0
 17 19  2  0  0  0  0
 17 16  1  0  0  0  0
 18 17  1  0  0  0  0
 19 21  1  0  0  0  0
 20 19  1  0  0  0  0
 21 22  2  0  0  0  0
M  END
>  <minimizedAffinity>
-4.83960199

$$$$

 OpenBabel03242520463D

 22 23  0  0  0  0  0  0  0  0999 V2000
   39.5840   32.2370   38.3310 C   0  0  0  0  0  0  0  0  0  0  0  0
   38.5360   31.4270   38.8250 C   0  0  0  0  0  0  0  0  0  0  0  0
   38.3350   31.3850   40.2180 C   0  0  0  0  0  0  0  0  0  0  0  0
   39.1660   32.1290   41.0010 N   0  0  0  0  0  0  0  0  0  0  0  0
   40.1540   32.8880   40.4780 C   0  0  0  0  0  0  0  0  0  0  0  0
   40.3530   32.9340   39.1510 N   0  0  0  0  0  0  0  0  0  0  0  0
   39.7840   32.2770   36.9370 N   0  0  0  0  0  0  0  0  0  0  0  0
   37.9480   30.8860   38.1190 H   0  0  0  0  0  0  0  0  0  0  0  0
   40.7880   33.4620   41.1370 H   0  0  0  0  0  0  0  0  0  0  0  0
   39.1630   31.8360   36.2360 H   0  0  0  0  0  0  0  0  0  0  0  0
   40.5860   32.7630   36.5240 H   0  0  0  0  0  0  0  0  0  0  0  0
   37.2710   30.5600   40.6990 C   0  0  0  0  0  0  0  0  0  0  0  0
   36.1480   31.0140   41.0800 O   0  0  0  0  0  0  0  0  0  0  0  0
   38.3640   29.3330   43.2730 Cl  0  0  0  0  0  0  0  0  0  0  0  0
   37.6550   28.4230   41.9730 C   0  0  0  0  0  0  0  0  0  0  0  0
   37.2000   29.1060   40.8640 C   0  0  0  0  0  0  0  0  0  0  0  0
   36.6400   28.3790   39.8390 C   0  0  0  0  0  0  0  0  0  0  0  0
   36.2470   28.8040   38.9170 H   0  0  0  0  0  0  0  0  0  0  0  0
   36.5160   26.9870   39.8810 C   0  0  0  0  0  0  0  0  0  0  0  0
   36.0760   26.4140   39.0760 H   0  0  0  0  0  0  0  0  0  0  0  0
   36.9810   26.3390   41.0020 C   0  0  0  0  0  3  0  0  0  0  0  0
   37.5470   27.0400   42.0460 C   0  0  0  0  0  3  0  0  0  0  0  0
  1  2  2  0  0  0  0
  1  6  1  0  0  0  0
  2  3  1  0  0  0  0
  3 12  1  0  0  0  0
  3  4  2  0  0  0  0
  5  4  1  0  0  0  0
  5  9  1  0  0  0  0
  6  5  2  0  0  0  0
  7  1  1  0  0  0  0
  8  2  1  0  0  0  0
 10  7  1  0  0  0  0
 11  7  1  0  0  0  0
 12 16  1  0  0  0  0
 12 13  2  0  0  0  0
 15 22  1  0  0  0  0
 15 14  1  0  0  0  0
 16 15  2  0  0  0  0
 17 19  2  0  0  0  0
 17 16  1  0  0  0  0
 18 17  1  0  0  0  0
 19 21  1  0  0  0  0
 20 19  1  0  0  0  0
 21 22  2  0  0  0  0
M  END
>  <minimizedAffinity>
-4.83888626

$$$$

 OpenBabel03242520463D

 22 23  0  0  0  0  0  0  0  0999 V2000
   37.2410   30.1270   36.8520 C   0  0  0  0  0  0  0  0  0  0  0  0
   36.7160   29.3890   37.9360 C   0  0  0  0  0  0  0  0  0  0  0  0
   36.5940   30.0390   39.1800 C   0  0  0  0  0  0  0  0  0  0  0  0
   36.9910   31.3400   39.2560 N   0  0  0  0  0  0  0  0  0  0  0  0
   37.4860   32.0020   38.1870 C   0  0  0  0  0  0  0  0  0  0  0  0
   37.6060   31.3900   36.9980 N   0  0  0  0  0  0  0  0  0  0  0  0
   37.3640   29.4740   35.6100 N   0  0  0  0  0  0  0  0  0  0  0  0
   36.4380   28.3740   37.7620 H   0  0  0  0  0  0  0  0  0  0  0  0
   37.7870   33.0330   38.2940 H   0  0  0  0  0  0  0  0  0  0  0  0
   37.0090   28.5240   35.4010 H   0  0  0  0  0  0  0  0  0  0  0  0
   37.8270   29.9210   34.8120 H   0  0  0  0  0  0  0  0  0  0  0  0
   36.0620   29.2760   40.2650 C   0  0  0  0  0  0  0  0  0  0  0  0
   34.8180   29.1110   40.4640 O   0  0  0  0  0  0  0  0  0  0  0  0
   36.5290   26.2770   39.9220 Cl  0  0  0  0  0  0  0  0  0  0  0  0
   37.0200   27.1970   41.3130 C   0  0  0  0  0  0  0  0  0  0  0  0
   36.7460   28.5490   41.3380 C   0  0  0  0  0  0  0  0  0  0  0  0
   37.1380   29.2700   42.4420 C   0  0  0  0  0  0  0  0  0  0  0  0
   36.9770   30.3380   42.5760 H   0  0  0  0  0  0  0  0  0  0  0  0
   37.7990   28.6880   43.5280 C   0  0  0  0  0  0  0  0  0  0  0  0
   38.1070   29.2530   44.3960 H   0  0  0  0  0  0  0  0  0  0  0  0
   38.0550   27.3370   43.4680 C   0  0  0  0  0  3  0  0  0  0  0  0
   37.6750   26.5870   42.3750 C   0  0  0  0  0  3  0  0  0  0  0  0
  1  6  2  0  0  0  0
  1  2  1  0  0  0  0
  2  3  2  0  0  0  0
  3  4  1  0  0  0  0
  3 12  1  0  0  0  0
  5  9  1  0  0  0  0
  5  4  2  0  0  0  0
  6  5  1  0  0  0  0
  7  1  1  0  0  0  0
  8  2  1  0  0  0  0
 10  7  1  0  0  0  0
 11  7  1  0  0  0  0
 12 13  2  0  0  0  0
 12 16  1  0  0  0  0
 14 15  1  0  0  0  0
 15 16  2  0  0  0  0
 15 22  1  0  0  0  0
 16 17  1  0  0  0  0
 17 18  1  0  0  0  0
 17 19  2  0  0  0  0
 19 20  1  0  0  0  0
 21 19  1  0  0  0  0
 22 21  2  0  0  0  0
M  END
>  <minimizedAffinity>
-4.76943827

$$$$
