
 OpenBabel03242519593D

 30 32  0  0  0  0  0  0  0  0999 V2000
   44.6510   33.0050   41.2220 Br  0  0  0  0  0  0  0  0  0  0  0  0
   46.2950   33.9420   41.0050 C   0  0  0  0  0  0  0  0  0  0  0  0
   46.8360   34.7260   42.0090 C   0  0  0  0  0  0  0  0  0  0  0  0
   48.0460   35.3730   41.7520 C   0  0  0  0  0  0  0  0  0  0  0  0
   48.7120   35.2590   40.5490 C   0  0  0  0  0  0  0  0  0  0  0  0
   48.1710   34.4700   39.5360 C   0  0  0  0  0  0  0  0  0  0  0  0
   46.9720   33.8410   39.8170 C   0  0  0  0  0  0  0  0  0  0  0  0
   48.4630   35.9850   42.5400 H   0  0  0  0  0  0  0  0  0  0  0  0
   49.6500   35.7670   40.3650 H   0  0  0  0  0  0  0  0  0  0  0  0
   48.6810   34.3760   38.5990 H   0  0  0  0  0  0  0  0  0  0  0  0
   44.4910   35.9220   44.7240 C   0  0  0  0  0  0  0  0  0  0  0  0
   45.1900   35.8400   43.5140 C   0  0  0  0  0  0  0  0  0  0  0  0
   46.1080   34.8210   43.2560 C   0  0  0  0  0  0  0  0  0  0  0  0
   46.2700   33.9260   44.2590 N   0  0  0  0  0  0  0  0  0  0  0  0
   45.5900   34.0160   45.4210 C   0  0  0  0  0  0  0  0  0  0  0  0
   44.7110   34.9970   45.6580 N   0  0  0  0  0  0  0  0  0  0  0  0
   43.7820   36.7070   44.9260 H   0  0  0  0  0  0  0  0  0  0  0  0
   45.0040   36.5950   42.7610 H   0  0  0  0  0  0  0  0  0  0  0  0
   45.7700   33.2630   46.1800 H   0  0  0  0  0  0  0  0  0  0  0  0
   46.4210   33.0250   38.7560 C   0  0  0  0  0  0  0  0  0  0  0  0
   45.3490   33.3650   38.1530 O   0  0  0  0  0  0  0  0  0  0  0  0
   48.1440   33.1320   36.2370 Cl  0  0  0  0  0  0  0  0  0  0  0  0
   47.7150   31.6590   37.0850 C   0  0  0  0  0  0  0  0  0  0  0  0
   46.9280   31.7710   38.2120 C   0  0  0  0  0  0  0  0  0  0  0  0
   46.5470   30.6530   38.9360 C   0  0  0  0  0  0  0  0  0  0  0  0
   45.9210   30.7030   39.8390 H   0  0  0  0  0  0  0  0  0  0  0  0
   46.9300   29.4010   38.5710 C   0  0  0  0  0  0  0  0  0  0  0  0
   46.6430   28.5200   39.1240 H   0  0  0  0  0  0  0  0  0  0  0  0
   47.7240   29.2840   37.4360 C   0  0  0  0  0  0  0  0  0  0  0  0
   48.1130   30.3920   36.7000 C   0  0  0  0  0  0  0  0  0  0  0  0
  2  1  1  0  0  0  0
  2  3  1  0  0  0  0
  3 13  1  0  0  0  0
  4  3  2  0  0  0  0
  4  8  1  0  0  0  0
  5  4  1  0  0  0  0
  6  7  1  0  0  0  0
  6  5  2  0  0  0  0
  7  2  2  0  0  0  0
  9  5  1  0  0  0  0
 10  6  1  0  0  0  0
 11 17  1  0  0  0  0
 11 16  1  0  0  0  0
 12 11  2  0  0  0  0
 13 12  1  0  0  0  0
 13 14  2  0  0  0  0
 14 15  1  0  0  0  0
 15 16  2  0  0  0  0
 15 19  1  0  0  0  0
 18 12  1  0  0  0  0
 20  7  1  0  0  0  0
 21 20  2  0  0  0  0
 22 23  1  0  0  0  0
 23 24  1  0  0  0  0
 24 20  1  0  0  0  0
 24 25  2  0  0  0  0
 25 26  1  0  0  0  0
 27 25  1  0  0  0  0
 27 28  1  0  0  0  0
 29 27  2  0  0  0  0
 30 23  2  0  0  0  0
 30 29  1  0  0  0  0
M  END
>  <minimizedAffinity>
-5.44568634

>  <minimizedRMSD>
2.08864617

$$$$
