
 OpenBabel03252508493D

 28 30  0  0  0  0  0  0  0  0999 V2000
   43.8250   33.7470   40.6520 C   0  0  0  0  0  0  0  0  0  0  0  0
   44.9660   34.1340   41.3440 C   0  0  0  0  0  0  0  0  0  0  0  0
   46.1900   33.9470   40.6800 C   0  0  0  0  0  0  0  0  0  0  0  0
   46.1760   33.4070   39.4250 N   0  0  0  0  0  0  0  0  0  0  0  0
   45.0510   33.0550   38.8130 C   0  0  0  0  0  0  0  0  0  0  0  0
   43.8610   33.2170   39.4100 N   0  0  0  0  0  0  0  0  0  0  0  0
   47.0920   34.2460   41.2120 H   0  0  0  0  0  0  0  0  0  0  0  0
   45.1050   32.6330   37.8170 H   0  0  0  0  0  0  0  0  0  0  0  0
   44.8570   34.6950   42.6730 C   0  0  0  0  0  0  0  0  0  0  0  0
   44.7780   36.0510   42.9130 C   0  0  0  0  0  0  0  0  0  0  0  0
   44.6910   36.1350   44.2830 C   0  0  0  0  0  0  0  0  0  0  0  0
   44.7140   34.9030   44.8500 N   0  0  0  0  0  0  0  0  0  0  0  0
   44.8150   34.0550   43.8520 N   0  0  0  0  0  0  0  0  0  0  0  0
   44.7820   36.8840   42.2080 H   0  0  0  0  0  0  0  0  0  0  0  0
   44.6120   37.0350   44.8770 H   0  0  0  0  0  0  0  0  0  0  0  0
   44.6690   34.5960   45.8400 H   0  0  0  0  0  0  0  0  0  0  0  0
   42.5960   33.9160   41.2720 O   0  0  0  0  0  0  0  0  0  0  0  0
   41.6180   34.8070   40.9280 C   0  0  0  0  0  0  0  0  0  0  0  0
   41.4710   36.0130   41.3470 O   0  0  0  0  0  0  0  0  0  0  0  0
   42.0050   35.7000   38.0530 Cl  0  0  0  0  0  0  0  0  0  0  0  0
   40.5700   34.8240   38.6120 C   0  0  0  0  0  0  0  0  0  0  0  0
   40.5280   34.4760   39.9650 C   0  0  0  0  0  0  0  0  0  0  0  0
   39.3760   33.8030   40.2900 C   0  0  0  0  0  0  0  0  0  0  0  0
   39.2460   33.4860   41.3240 H   0  0  0  0  0  0  0  0  0  0  0  0
   38.3720   33.4950   39.4210 C   0  0  0  0  0  0  0  0  0  0  0  0
   37.4980   32.9630   39.7580 H   0  0  0  0  0  0  0  0  0  0  0  0
   38.5070   33.8820   38.1100 C   0  0  0  0  0  3  0  0  0  0  0  0
   39.6210   34.5600   37.6780 C   0  0  0  0  0  3  0  0  0  0  0  0
  1 17  1  0  0  0  0
  1  2  1  0  0  0  0
  2  9  1  0  0  0  0
  3  7  1  0  0  0  0
  3  2  2  0  0  0  0
  4  3  1  0  0  0  0
  5  6  1  0  0  0  0
  5  4  2  0  0  0  0
  6  1  2  0  0  0  0
  8  5  1  0  0  0  0
  9 10  1  0  0  0  0
  9 13  2  0  0  0  0
 10 11  2  0  0  0  0
 11 12  1  0  0  0  0
 11 15  1  0  0  0  0
 12 16  1  0  0  0  0
 13 12  1  0  0  0  0
 14 10  1  0  0  0  0
 18 17  1  0  0  0  0
 18 19  2  0  0  0  0
 20 21  1  0  0  0  0
 21 22  1  0  0  0  0
 22 23  2  0  0  0  0
 22 18  1  0  0  0  0
 23 24  1  0  0  0  0
 25 26  1  0  0  0  0
 25 23  1  0  0  0  0
 27 25  2  0  0  0  0
 28 27  1  0  0  0  0
 28 21  2  0  0  0  0
M  END
>  <minimizedAffinity>
-5.99589872

>  <minimizedRMSD>
2.41243386

$$$$
