
 OpenBabel03252501093D

 20 21  0  0  0  0  0  0  0  0999 V2000
   47.4000   33.7690   42.8070 C   0  0  0  0  0  0  0  0  0  0  0  0
   48.3800   33.0860   43.2350 O   0  0  0  0  0  0  0  0  0  0  0  0
   44.7380   36.0370   44.0300 C   0  0  0  0  0  0  0  0  0  0  0  0
   45.7100   35.4710   43.1990 C   0  0  0  0  0  0  0  0  0  0  0  0
   46.3990   34.3440   43.6770 C   0  0  0  0  0  0  0  0  0  0  0  0
   46.0890   33.8590   44.9220 N   0  0  0  0  0  0  0  0  0  0  0  0
   45.1450   34.4500   45.6720 C   0  0  0  0  0  0  0  0  0  0  0  0
   44.4700   35.5320   45.2330 N   0  0  0  0  0  0  0  0  0  0  0  0
   44.1760   36.8960   43.7290 H   0  0  0  0  0  0  0  0  0  0  0  0
   45.8640   35.9390   42.2460 H   0  0  0  0  0  0  0  0  0  0  0  0
   45.0110   33.9480   46.6390 H   0  0  0  0  0  0  0  0  0  0  0  0
   49.1110   35.9770   41.5710 Cl  0  0  0  0  0  0  0  0  0  0  0  0
   48.2710   34.7600   40.6770 C   0  0  0  0  0  0  0  0  0  0  0  0
   47.5320   33.8200   41.3610 C   0  0  0  0  0  0  0  0  0  0  0  0
   46.8440   32.8310   40.6910 C   0  0  0  0  0  0  0  0  0  0  0  0
   46.2340   32.0430   41.1390 H   0  0  0  0  0  0  0  0  0  0  0  0
   46.9020   32.7870   39.3040 C   0  0  0  0  0  0  0  0  0  0  0  0
   46.3860   32.0380   38.7350 H   0  0  0  0  0  0  0  0  0  0  0  0
   47.6380   33.7250   38.6230 C   0  0  0  0  0  0  0  0  0  0  0  0
   48.3330   34.7210   39.2800 C   0  0  0  0  0  0  0  0  0  0  0  0
  1  2  2  0  0  0  0
  1  5  1  0  0  0  0
  3  8  1  0  0  0  0
  4  5  1  0  0  0  0
  4  3  2  0  0  0  0
  5  6  2  0  0  0  0
  6  7  1  0  0  0  0
  7 11  1  0  0  0  0
  8  7  2  0  0  0  0
  9  3  1  0  0  0  0
 10  4  1  0  0  0  0
 13 14  1  0  0  0  0
 13 12  1  0  0  0  0
 14  1  1  0  0  0  0
 15 16  1  0  0  0  0
 15 14  2  0  0  0  0
 17 15  1  0  0  0  0
 18 17  1  0  0  0  0
 19 20  1  0  0  0  0
 19 17  2  0  0  0  0
 20 13  2  0  0  0  0
M  END
>  <minimizedAffinity>
-4.83313799

>  <minimizedRMSD>
1.48090839

$$$$
