
 OpenBabel03252508023D

 42 45  0  0  1  0  0  0  0  0999 V2000
   42.0500   33.2500   41.1280 C   0  0  0  0  0  0  0  0  0  0  0  0
   42.7920   34.3840   41.3090 C   0  0  0  0  0  0  0  0  0  0  0  0
   42.1190   35.6220   41.2720 C   0  0  0  0  0  0  0  0  0  0  0  0
   40.7650   35.7410   41.0650 C   0  0  0  0  0  0  0  0  0  0  0  0
   40.0290   34.5990   40.8870 C   0  0  0  0  0  0  0  0  0  0  0  0
   40.6760   33.3990   40.9220 C   0  0  0  0  0  0  0  0  0  0  0  0
   42.6200   36.5730   41.3950 H   0  0  0  0  0  0  0  0  0  0  0  0
   40.2630   36.6900   41.0390 H   0  0  0  0  0  0  0  0  0  0  0  0
   38.9620   34.5910   40.7200 H   0  0  0  0  0  0  0  0  0  0  0  0
   40.0800   32.4810   40.7770 H   0  0  0  0  0  0  0  0  0  0  0  0
   42.7120   31.7060   41.2420 S   0  0  0  0  0  0  0  0  0  0  0  0
   41.6430   30.8840   40.4550 O   0  0  0  0  0  0  0  0  0  0  0  0
   42.7280   31.1810   42.6290 O   0  0  0  0  0  0  0  0  0  0  0  0
   42.7510   32.6070   38.3320 Cl  0  0  0  0  0  0  0  0  0  0  0  0
   43.8980   31.3940   38.9400 C   0  0  0  0  0  0  0  0  0  0  0  0
   43.8700   30.9390   40.2900 C   0  0  0  0  0  0  0  0  0  0  0  0
   44.8700   29.9980   40.5010 C   0  0  0  0  0  0  0  0  0  0  0  0
   44.8590   29.7020   41.5670 H   0  0  0  0  0  0  0  0  0  0  0  0
   45.8250   29.4590   39.6750 C   0  0  0  0  0  0  0  0  0  0  0  0
   46.5060   28.7290   40.0610 H   0  0  0  0  0  0  0  0  0  0  0  0
   45.6960   30.0100   38.4310 C   0  0  0  0  0  0  0  0  0  0  0  0
   44.7960   30.9440   38.0050 C   0  0  0  0  0  0  0  0  0  0  0  0
   44.2250   34.3670   41.5340 C   0  0  0  0  0  0  0  0  0  0  0  0
   45.0950   34.2890   40.6160 O   0  0  0  0  0  0  0  0  0  0  0  0
   44.5800   34.4490   42.9310 C   0  0  0  0  0  0  0  0  0  0  0  0
   44.3100   35.7110   43.5650 C   0  0  0  0  0  0  0  0  0  0  0  0
   44.6390   35.8140   44.9050 C   0  0  0  0  0  0  0  0  0  0  0  0
   45.1860   34.7370   45.5240 N   0  0  0  0  0  0  0  0  0  0  0  0
   45.4240   33.5540   44.8710 C   0  0  0  0  0  0  0  0  0  0  0  0
   45.1200   33.4500   43.6230 N   0  0  0  0  0  0  0  0  0  0  0  0
   43.8910   36.5900   43.1530 H   0  0  0  0  0  0  0  0  0  0  0  0
   44.4750   36.7230   45.4770 H   0  0  0  0  0  0  0  0  0  0  0  0
   46.0130   32.4320   45.6290 C   0  0  1  0  0  0  0  0  0  0  0  0
   46.9690   32.7310   46.7600 C   0  0  0  0  0  0  0  0  0  0  0  0
   45.5530   32.3220   47.0340 C   0  0  1  0  0  0  0  0  0  0  0  0
   46.1340   31.4870   45.0760 H   0  0  0  0  0  0  0  0  0  0  0  0
   47.3000   33.7690   46.8750 H   0  0  0  0  0  0  0  0  0  0  0  0
   47.7190   31.9190   46.9480 H   0  0  0  0  0  0  0  0  0  0  0  0
   45.3330   31.3270   47.4430 H   0  0  0  0  0  0  0  0  0  0  0  0
   44.7750   33.3940   47.6330 N   0  0  0  0  0  0  0  0  0  0  0  0
   45.2360   33.8060   48.4540 H   0  0  0  0  0  0  0  0  0  0  0  0
   43.7730   33.1650   47.7310 H   0  0  0  0  0  0  0  0  0  0  0  0
  1 11  1  0  0  0  0
  1  2  1  0  0  0  0
  2 23  1  0  0  0  0
  3  2  2  0  0  0  0
  3  7  1  0  0  0  0
  4  3  1  0  0  0  0
  5  6  1  0  0  0  0
  5  4  2  0  0  0  0
  6  1  2  0  0  0  0
  8  4  1  0  0  0  0
  9  5  1  0  0  0  0
 10  6  1  0  0  0  0
 11 13  2  0  0  0  0
 12 11  2  0  0  0  0
 14 15  1  0  0  0  0
 15 16  1  0  0  0  0
 16 17  2  0  0  0  0
 16 11  1  0  0  0  0
 17 18  1  0  0  0  0
 19 20  1  0  0  0  0
 19 17  1  0  0  0  0
 21 19  2  0  0  0  0
 22 21  1  0  0  0  0
 22 15  2  0  0  0  0
 23 25  1  0  0  0  0
 24 23  2  0  0  0  0
 25 26  2  0  0  0  0
 25 30  1  0  0  0  0
 26 27  1  0  0  0  0
 27 32  1  0  0  0  0
 27 28  2  0  0  0  0
 29 28  1  0  0  0  0
 29 33  1  0  0  0  0
 30 29  2  0  0  0  0
 31 26  1  0  0  0  0
 33 36  1  6  0  0  0
 33 34  1  0  0  0  0
 33 35  1  0  0  0  0
 34 37  1  0  0  0  0
 34 38  1  0  0  0  0
 34 35  1  0  0  0  0
 35 39  1  1  0  0  0
 35 40  1  0  0  0  0
 40 42  1  0  0  0  0
 40 41  1  0  0  0  0
M  END
>  <minimizedAffinity>
-5.88277721

>  <minimizedRMSD>
1.27341485

$$$$
