
 OpenBabel03252508023D

 42 45  0  0  1  0  0  0  0  0999 V2000
   42.0780   33.2650   41.1080 C   0  0  0  0  0  0  0  0  0  0  0  0
   42.8050   34.4040   41.3110 C   0  0  0  0  0  0  0  0  0  0  0  0
   42.1160   35.6340   41.2910 C   0  0  0  0  0  0  0  0  0  0  0  0
   40.7620   35.7400   41.0800 C   0  0  0  0  0  0  0  0  0  0  0  0
   40.0410   34.5920   40.8780 C   0  0  0  0  0  0  0  0  0  0  0  0
   40.7030   33.3990   40.8970 C   0  0  0  0  0  0  0  0  0  0  0  0
   42.6050   36.5890   41.4330 H   0  0  0  0  0  0  0  0  0  0  0  0
   40.2480   36.6820   41.0670 H   0  0  0  0  0  0  0  0  0  0  0  0
   38.9750   34.5730   40.7050 H   0  0  0  0  0  0  0  0  0  0  0  0
   40.1200   32.4770   40.7340 H   0  0  0  0  0  0  0  0  0  0  0  0
   42.7590   31.7270   41.1990 S   0  0  0  0  0  0  0  0  0  0  0  0
   41.7160   30.9100   40.3720 O   0  0  0  0  0  0  0  0  0  0  0  0
   42.7560   31.1710   42.5740 O   0  0  0  0  0  0  0  0  0  0  0  0
   42.8240   32.6770   38.3040 Cl  0  0  0  0  0  0  0  0  0  0  0  0
   43.9840   31.4750   38.9110 C   0  0  0  0  0  0  0  0  0  0  0  0
   43.9450   30.9980   40.2520 C   0  0  0  0  0  0  0  0  0  0  0  0
   44.9590   30.0720   40.4630 C   0  0  0  0  0  0  0  0  0  0  0  0
   44.9390   29.7570   41.5240 H   0  0  0  0  0  0  0  0  0  0  0  0
   45.9360   29.5640   39.6420 C   0  0  0  0  0  0  0  0  0  0  0  0
   46.6250   28.8410   40.0270 H   0  0  0  0  0  0  0  0  0  0  0  0
   45.8150   30.1330   38.4060 C   0  0  0  0  0  3  0  0  0  0  0  0
   44.9040   31.0580   37.9820 C   0  0  0  0  0  3  0  0  0  0  0  0
   44.2370   34.4010   41.5430 C   0  0  0  0  0  0  0  0  0  0  0  0
   45.1120   34.3420   40.6290 O   0  0  0  0  0  0  0  0  0  0  0  0
   44.5840   34.4730   42.9430 C   0  0  0  0  0  0  0  0  0  0  0  0
   44.3050   35.7290   43.5860 C   0  0  0  0  0  0  0  0  0  0  0  0
   44.6260   35.8220   44.9290 C   0  0  0  0  0  0  0  0  0  0  0  0
   45.1740   34.7420   45.5420 N   0  0  0  0  0  0  0  0  0  0  0  0
   45.4200   33.5650   44.8810 C   0  0  0  0  0  0  0  0  0  0  0  0
   45.1240   33.4700   43.6300 N   0  0  0  0  0  0  0  0  0  0  0  0
   43.8840   36.6100   43.1800 H   0  0  0  0  0  0  0  0  0  0  0  0
   44.4550   36.7260   45.5080 H   0  0  0  0  0  0  0  0  0  0  0  0
   46.0100   32.4400   45.6320 C   0  0  1  0  0  0  0  0  0  0  0  0
   46.9670   32.7330   46.7650 C   0  0  0  0  0  0  0  0  0  0  0  0
   45.5510   32.3220   47.0370 C   0  0  1  0  0  0  0  0  0  0  0  0
   46.1310   31.4970   45.0750 H   0  0  0  0  0  0  0  0  0  0  0  0
   47.2980   33.7700   46.8850 H   0  0  0  0  0  0  0  0  0  0  0  0
   47.7170   31.9200   46.9470 H   0  0  0  0  0  0  0  0  0  0  0  0
   45.3310   31.3250   47.4410 H   0  0  0  0  0  0  0  0  0  0  0  0
   44.7730   33.3920   47.6410 N   0  0  0  0  0  0  0  0  0  0  0  0
   45.2340   33.7990   48.4650 H   0  0  0  0  0  0  0  0  0  0  0  0
   43.7710   33.1620   47.7390 H   0  0  0  0  0  0  0  0  0  0  0  0
  1 11  1  0  0  0  0
  1  2  1  0  0  0  0
  2 23  1  0  0  0  0
  3  2  2  0  0  0  0
  3  7  1  0  0  0  0
  4  3  1  0  0  0  0
  5  6  1  0  0  0  0
  5  4  2  0  0  0  0
  6  1  2  0  0  0  0
  8  4  1  0  0  0  0
  9  5  1  0  0  0  0
 10  6  1  0  0  0  0
 11 13  2  0  0  0  0
 12 11  2  0  0  0  0
 14 15  1  0  0  0  0
 15 16  1  0  0  0  0
 16 17  2  0  0  0  0
 16 11  1  0  0  0  0
 17 18  1  0  0  0  0
 19 20  1  0  0  0  0
 19 17  1  0  0  0  0
 21 19  2  0  0  0  0
 22 21  1  0  0  0  0
 22 15  2  0  0  0  0
 23 25  1  0  0  0  0
 24 23  2  0  0  0  0
 25 26  2  0  0  0  0
 25 30  1  0  0  0  0
 26 27  1  0  0  0  0
 27 32  1  0  0  0  0
 27 28  2  0  0  0  0
 29 28  1  0  0  0  0
 29 33  1  0  0  0  0
 30 29  2  0  0  0  0
 31 26  1  0  0  0  0
 33 36  1  6  0  0  0
 33 34  1  0  0  0  0
 33 35  1  0  0  0  0
 34 37  1  0  0  0  0
 34 38  1  0  0  0  0
 34 35  1  0  0  0  0
 35 39  1  1  0  0  0
 35 40  1  0  0  0  0
 40 42  1  0  0  0  0
 40 41  1  0  0  0  0
M  END
>  <minimizedAffinity>
-5.87765932

>  <minimizedRMSD>
1.35148108

$$$$
