
 OpenBabel03252508023D

 42 45  0  0  1  0  0  0  0  0999 V2000
   42.0170   33.3180   41.0860 C   0  0  0  0  0  0  0  0  0  0  0  0
   42.7880   34.4260   41.3040 C   0  0  0  0  0  0  0  0  0  0  0  0
   42.1470   35.6810   41.3030 C   0  0  0  0  0  0  0  0  0  0  0  0
   40.7970   35.8420   41.0970 C   0  0  0  0  0  0  0  0  0  0  0  0
   40.0320   34.7250   40.8800 C   0  0  0  0  0  0  0  0  0  0  0  0
   40.6480   33.5080   40.8800 C   0  0  0  0  0  0  0  0  0  0  0  0
   42.6720   36.6150   41.4580 H   0  0  0  0  0  0  0  0  0  0  0  0
   40.3200   36.8030   41.0980 H   0  0  0  0  0  0  0  0  0  0  0  0
   38.9660   34.7500   40.7100 H   0  0  0  0  0  0  0  0  0  0  0  0
   40.0300   32.6110   40.7050 H   0  0  0  0  0  0  0  0  0  0  0  0
   42.6390   31.7550   41.1540 S   0  0  0  0  0  0  0  0  0  0  0  0
   41.4600   30.9570   40.5100 O   0  0  0  0  0  0  0  0  0  0  0  0
   42.7980   31.2520   42.5400 O   0  0  0  0  0  0  0  0  0  0  0  0
   43.1060   28.8280   41.8600 Cl  0  0  0  0  0  0  0  0  0  0  0  0
   43.8390   29.5600   40.4150 C   0  0  0  0  0  0  0  0  0  0  0  0
   43.6550   30.9340   40.0900 C   0  0  0  0  0  0  0  0  0  0  0  0
   44.3290   31.2440   38.9160 C   0  0  0  0  0  0  0  0  0  0  0  0
   44.1280   32.3020   38.6600 H   0  0  0  0  0  0  0  0  0  0  0  0
   45.1020   30.4930   38.0650 C   0  0  0  0  0  0  0  0  0  0  0  0
   45.5340   30.9540   37.2000 H   0  0  0  0  0  0  0  0  0  0  0  0
   45.1630   29.2130   38.5370 C   0  0  0  0  0  3  0  0  0  0  0  0
   44.5820   28.6910   39.6560 C   0  0  0  0  0  3  0  0  0  0  0  0
   44.2190   34.3650   41.5320 C   0  0  0  0  0  0  0  0  0  0  0  0
   45.0870   34.2480   40.6180 O   0  0  0  0  0  0  0  0  0  0  0  0
   44.5730   34.4510   42.9290 C   0  0  0  0  0  0  0  0  0  0  0  0
   44.3010   35.7150   43.5600 C   0  0  0  0  0  0  0  0  0  0  0  0
   44.6290   35.8210   44.9000 C   0  0  0  0  0  0  0  0  0  0  0  0
   45.1780   34.7460   45.5220 N   0  0  0  0  0  0  0  0  0  0  0  0
   45.4180   33.5620   44.8720 C   0  0  0  0  0  0  0  0  0  0  0  0
   45.1150   33.4550   43.6240 N   0  0  0  0  0  0  0  0  0  0  0  0
   43.8810   36.5920   43.1460 H   0  0  0  0  0  0  0  0  0  0  0  0
   44.4640   36.7320   45.4700 H   0  0  0  0  0  0  0  0  0  0  0  0
   46.0090   32.4430   45.6330 C   0  0  1  0  0  0  0  0  0  0  0  0
   46.9640   32.7470   46.7640 C   0  0  0  0  0  0  0  0  0  0  0  0
   45.5480   32.3350   47.0370 C   0  0  1  0  0  0  0  0  0  0  0  0
   46.1330   31.4970   45.0830 H   0  0  0  0  0  0  0  0  0  0  0  0
   47.2920   33.7850   46.8780 H   0  0  0  0  0  0  0  0  0  0  0  0
   47.7150   31.9370   46.9540 H   0  0  0  0  0  0  0  0  0  0  0  0
   45.3300   31.3410   47.4480 H   0  0  0  0  0  0  0  0  0  0  0  0
   44.7670   33.4080   47.6330 N   0  0  0  0  0  0  0  0  0  0  0  0
   45.2260   33.8220   48.4540 H   0  0  0  0  0  0  0  0  0  0  0  0
   43.7660   33.1760   47.7310 H   0  0  0  0  0  0  0  0  0  0  0  0
  1 11  1  0  0  0  0
  1  2  1  0  0  0  0
  2 23  1  0  0  0  0
  3  2  2  0  0  0  0
  3  7  1  0  0  0  0
  4  8  1  0  0  0  0
  4  3  1  0  0  0  0
  5  6  1  0  0  0  0
  5  4  2  0  0  0  0
  6  1  2  0  0  0  0
  9  5  1  0  0  0  0
 10  6  1  0  0  0  0
 11 13  2  0  0  0  0
 12 11  2  0  0  0  0
 15 14  1  0  0  0  0
 16 15  1  0  0  0  0
 16 11  1  0  0  0  0
 17 16  2  0  0  0  0
 18 17  1  0  0  0  0
 19 21  2  0  0  0  0
 19 17  1  0  0  0  0
 20 19  1  0  0  0  0
 21 22  1  0  0  0  0
 22 15  2  0  0  0  0
 23 25  1  0  0  0  0
 24 23  2  0  0  0  0
 25 26  2  0  0  0  0
 25 30  1  0  0  0  0
 26 27  1  0  0  0  0
 27 32  1  0  0  0  0
 27 28  2  0  0  0  0
 29 28  1  0  0  0  0
 29 33  1  0  0  0  0
 30 29  2  0  0  0  0
 31 26  1  0  0  0  0
 33 36  1  6  0  0  0
 33 34  1  0  0  0  0
 33 35  1  0  0  0  0
 34 37  1  0  0  0  0
 34 38  1  0  0  0  0
 34 35  1  0  0  0  0
 35 39  1  1  0  0  0
 35 40  1  0  0  0  0
 40 42  1  0  0  0  0
 40 41  1  0  0  0  0
M  END
>  <minimizedAffinity>
-5.75521326

>  <minimizedRMSD>
1.36760974

$$$$
