
 OpenBabel03252508023D

 42 45  0  0  1  0  0  0  0  0999 V2000
   42.0410   33.2700   41.1280 C   0  0  0  0  0  0  0  0  0  0  0  0
   42.8000   34.3920   41.3110 C   0  0  0  0  0  0  0  0  0  0  0  0
   42.1450   35.6400   41.2700 C   0  0  0  0  0  0  0  0  0  0  0  0
   40.7940   35.7800   41.0580 C   0  0  0  0  0  0  0  0  0  0  0  0
   40.0420   34.6490   40.8770 C   0  0  0  0  0  0  0  0  0  0  0  0
   40.6700   33.4390   40.9160 C   0  0  0  0  0  0  0  0  0  0  0  0
   42.6610   36.5830   41.3960 H   0  0  0  0  0  0  0  0  0  0  0  0
   40.3070   36.7360   41.0300 H   0  0  0  0  0  0  0  0  0  0  0  0
   38.9750   34.6570   40.7060 H   0  0  0  0  0  0  0  0  0  0  0  0
   40.0610   32.5300   40.7690 H   0  0  0  0  0  0  0  0  0  0  0  0
   42.6790   31.7160   41.2450 S   0  0  0  0  0  0  0  0  0  0  0  0
   41.5370   30.8920   40.5690 O   0  0  0  0  0  0  0  0  0  0  0  0
   42.7890   31.2360   42.6450 O   0  0  0  0  0  0  0  0  0  0  0  0
   43.1700   28.8120   42.0290 Cl  0  0  0  0  0  0  0  0  0  0  0  0
   43.9410   29.5280   40.5960 C   0  0  0  0  0  0  0  0  0  0  0  0
   43.7460   30.8920   40.2360 C   0  0  0  0  0  0  0  0  0  0  0  0
   44.4580   31.1910   39.0810 C   0  0  0  0  0  0  0  0  0  0  0  0
   44.2480   32.2390   38.7960 H   0  0  0  0  0  0  0  0  0  0  0  0
   45.2730   30.4370   38.2730 C   0  0  0  0  0  0  0  0  0  0  0  0
   45.7280   30.8860   37.4150 H   0  0  0  0  0  0  0  0  0  0  0  0
   45.3390   29.1670   38.7740 C   0  0  0  0  0  3  0  0  0  0  0  0
   44.7270   28.6570   39.8830 C   0  0  0  0  0  3  0  0  0  0  0  0
   44.2310   34.3530   41.5420 C   0  0  0  0  0  0  0  0  0  0  0  0
   45.1030   34.2510   40.6280 O   0  0  0  0  0  0  0  0  0  0  0  0
   44.5820   34.4420   42.9400 C   0  0  0  0  0  0  0  0  0  0  0  0
   44.3040   35.7060   43.5680 C   0  0  0  0  0  0  0  0  0  0  0  0
   44.6290   35.8150   44.9090 C   0  0  0  0  0  0  0  0  0  0  0  0
   45.1790   34.7430   45.5330 N   0  0  0  0  0  0  0  0  0  0  0  0
   45.4240   33.5580   44.8860 C   0  0  0  0  0  0  0  0  0  0  0  0
   45.1250   33.4480   43.6370 N   0  0  0  0  0  0  0  0  0  0  0  0
   43.8830   36.5810   43.1520 H   0  0  0  0  0  0  0  0  0  0  0  0
   44.4600   36.7260   45.4770 H   0  0  0  0  0  0  0  0  0  0  0  0
   46.0170   32.4420   45.6500 C   0  0  1  0  0  0  0  0  0  0  0  0
   46.9660   32.7500   46.7840 C   0  0  0  0  0  0  0  0  0  0  0  0
   45.5510   32.3340   47.0530 C   0  0  1  0  0  0  0  0  0  0  0  0
   46.1450   31.4960   45.1010 H   0  0  0  0  0  0  0  0  0  0  0  0
   47.2910   33.7900   46.8970 H   0  0  0  0  0  0  0  0  0  0  0  0
   47.7190   31.9420   46.9770 H   0  0  0  0  0  0  0  0  0  0  0  0
   45.3350   31.3390   47.4640 H   0  0  0  0  0  0  0  0  0  0  0  0
   44.7650   33.4050   47.6450 N   0  0  0  0  0  0  0  0  0  0  0  0
   45.2200   33.8210   48.4670 H   0  0  0  0  0  0  0  0  0  0  0  0
   43.7640   33.1700   47.7400 H   0  0  0  0  0  0  0  0  0  0  0  0
  1 11  1  0  0  0  0
  1  2  1  0  0  0  0
  2 23  1  0  0  0  0
  3  2  2  0  0  0  0
  3  7  1  0  0  0  0
  4  3  1  0  0  0  0
  5  6  1  0  0  0  0
  5  4  2  0  0  0  0
  6  1  2  0  0  0  0
  8  4  1  0  0  0  0
  9  5  1  0  0  0  0
 10  6  1  0  0  0  0
 11 13  2  0  0  0  0
 12 11  2  0  0  0  0
 15 14  1  0  0  0  0
 16 15  1  0  0  0  0
 16 11  1  0  0  0  0
 17 16  2  0  0  0  0
 18 17  1  0  0  0  0
 19 21  2  0  0  0  0
 19 17  1  0  0  0  0
 20 19  1  0  0  0  0
 21 22  1  0  0  0  0
 22 15  2  0  0  0  0
 23 25  1  0  0  0  0
 24 23  2  0  0  0  0
 25 26  2  0  0  0  0
 25 30  1  0  0  0  0
 26 27  1  0  0  0  0
 27 32  1  0  0  0  0
 27 28  2  0  0  0  0
 29 28  1  0  0  0  0
 29 33  1  0  0  0  0
 30 29  2  0  0  0  0
 31 26  1  0  0  0  0
 33 36  1  6  0  0  0
 33 34  1  0  0  0  0
 33 35  1  0  0  0  0
 34 37  1  0  0  0  0
 34 38  1  0  0  0  0
 34 35  1  0  0  0  0
 35 39  1  1  0  0  0
 35 40  1  0  0  0  0
 40 42  1  0  0  0  0
 40 41  1  0  0  0  0
M  END
>  <minimizedAffinity>
-5.72407246

>  <minimizedRMSD>
1.22204721

$$$$
