
 OpenBabel03252508023D

 42 45  0  0  1  0  0  0  0  0999 V2000
   42.0800   33.2670   41.1710 C   0  0  0  0  0  0  0  0  0  0  0  0
   42.8230   34.4030   41.3290 C   0  0  0  0  0  0  0  0  0  0  0  0
   42.1530   35.6420   41.2530 C   0  0  0  0  0  0  0  0  0  0  0  0
   40.8020   35.7590   41.0290 C   0  0  0  0  0  0  0  0  0  0  0  0
   40.0650   34.6140   40.8730 C   0  0  0  0  0  0  0  0  0  0  0  0
   40.7080   33.4140   40.9460 C   0  0  0  0  0  0  0  0  0  0  0  0
   42.6560   36.5940   41.3560 H   0  0  0  0  0  0  0  0  0  0  0  0
   40.3030   36.7070   40.9730 H   0  0  0  0  0  0  0  0  0  0  0  0
   38.9990   34.6040   40.6950 H   0  0  0  0  0  0  0  0  0  0  0  0
   40.1120   32.4940   40.8200 H   0  0  0  0  0  0  0  0  0  0  0  0
   42.7360   31.7250   41.3320 S   0  0  0  0  0  0  0  0  0  0  0  0
   41.9890   30.9810   40.1800 O   0  0  0  0  0  0  0  0  0  0  0  0
   42.3520   31.0590   42.6010 O   0  0  0  0  0  0  0  0  0  0  0  0
   44.4130   30.1870   43.3610 Cl  0  0  0  0  0  0  0  0  0  0  0  0
   44.9130   30.3290   41.6620 C   0  0  0  0  0  0  0  0  0  0  0  0
   44.1580   31.0700   40.7100 C   0  0  0  0  0  0  0  0  0  0  0  0
   44.7680   31.0160   39.4640 C   0  0  0  0  0  0  0  0  0  0  0  0
   44.1360   31.5560   38.7340 H   0  0  0  0  0  0  0  0  0  0  0  0
   45.9150   30.4050   39.0190 C   0  0  0  0  0  0  0  0  0  0  0  0
   46.2000   30.5010   37.9910 H   0  0  0  0  0  0  0  0  0  0  0  0
   46.5000   29.7470   40.0640 C   0  0  0  0  0  3  0  0  0  0  0  0
   46.0770   29.6660   41.3600 C   0  0  0  0  0  3  0  0  0  0  0  0
   44.2540   34.3890   41.5700 C   0  0  0  0  0  0  0  0  0  0  0  0
   45.1330   34.3150   40.6610 O   0  0  0  0  0  0  0  0  0  0  0  0
   44.5930   34.4680   42.9700 C   0  0  0  0  0  0  0  0  0  0  0  0
   44.3000   35.7230   43.6090 C   0  0  0  0  0  0  0  0  0  0  0  0
   44.6130   35.8220   44.9530 C   0  0  0  0  0  0  0  0  0  0  0  0
   45.1690   34.7490   45.5710 N   0  0  0  0  0  0  0  0  0  0  0  0
   45.4290   33.5730   44.9140 C   0  0  0  0  0  0  0  0  0  0  0  0
   45.1400   33.4720   43.6620 N   0  0  0  0  0  0  0  0  0  0  0  0
   43.8730   36.5980   43.1980 H   0  0  0  0  0  0  0  0  0  0  0  0
   44.4320   36.7260   45.5290 H   0  0  0  0  0  0  0  0  0  0  0  0
   46.0260   32.4550   45.6720 C   0  0  1  0  0  0  0  0  0  0  0  0
   46.9710   32.7600   46.8110 C   0  0  0  0  0  0  0  0  0  0  0  0
   45.5580   32.3340   47.0730 C   0  0  1  0  0  0  0  0  0  0  0  0
   46.1620   31.5130   45.1170 H   0  0  0  0  0  0  0  0  0  0  0  0
   47.2900   33.8010   46.9320 H   0  0  0  0  0  0  0  0  0  0  0  0
   47.7290   31.9560   47.0000 H   0  0  0  0  0  0  0  0  0  0  0  0
   45.3460   31.3350   47.4770 H   0  0  0  0  0  0  0  0  0  0  0  0
   44.7640   33.3950   47.6710 N   0  0  0  0  0  0  0  0  0  0  0  0
   45.2140   33.8090   48.4970 H   0  0  0  0  0  0  0  0  0  0  0  0
   43.7640   33.1540   47.7610 H   0  0  0  0  0  0  0  0  0  0  0  0
  1  2  1  0  0  0  0
  1 11  1  0  0  0  0
  2 23  1  0  0  0  0
  3  2  2  0  0  0  0
  3  7  1  0  0  0  0
  4  3  1  0  0  0  0
  5  6  1  0  0  0  0
  5  4  2  0  0  0  0
  6  1  2  0  0  0  0
  8  4  1  0  0  0  0
  9  5  1  0  0  0  0
 10  6  1  0  0  0  0
 11 13  2  0  0  0  0
 12 11  2  0  0  0  0
 15 14  1  0  0  0  0
 16 11  1  0  0  0  0
 16 15  2  0  0  0  0
 17 16  1  0  0  0  0
 18 17  1  0  0  0  0
 19 17  2  0  0  0  0
 19 21  1  0  0  0  0
 20 19  1  0  0  0  0
 21 22  2  0  0  0  0
 22 15  1  0  0  0  0
 23 25  1  0  0  0  0
 24 23  2  0  0  0  0
 25 26  2  0  0  0  0
 25 30  1  0  0  0  0
 26 27  1  0  0  0  0
 27 32  1  0  0  0  0
 27 28  2  0  0  0  0
 29 28  1  0  0  0  0
 29 33  1  0  0  0  0
 30 29  2  0  0  0  0
 31 26  1  0  0  0  0
 33 36  1  6  0  0  0
 33 34  1  0  0  0  0
 33 35  1  0  0  0  0
 34 37  1  0  0  0  0
 34 38  1  0  0  0  0
 34 35  1  0  0  0  0
 35 39  1  1  0  0  0
 35 40  1  0  0  0  0
 40 42  1  0  0  0  0
 40 41  1  0  0  0  0
M  END
>  <minimizedAffinity>
-5.79849243

>  <minimizedRMSD>
0.894410491

$$$$
