
 OpenBabel03252508053D

 42 45  0  0  1  0  0  0  0  0999 V2000
   36.6290   27.4810   39.5030 C   0  0  0  0  0  0  0  0  0  0  0  0
   36.2350   28.3280   40.5020 C   0  0  0  0  0  0  0  0  0  0  0  0
   35.0430   29.0560   40.3120 C   0  0  0  0  0  0  0  0  0  0  0  0
   34.2660   28.9550   39.1820 C   0  0  0  0  0  0  0  0  0  0  0  0
   34.6690   28.1030   38.1870 C   0  0  0  0  0  0  0  0  0  0  0  0
   35.8210   27.3960   38.3660 C   0  0  0  0  0  0  0  0  0  0  0  0
   34.6540   29.7560   41.0400 H   0  0  0  0  0  0  0  0  0  0  0  0
   33.3600   29.5150   39.0490 H   0  0  0  0  0  0  0  0  0  0  0  0
   34.1250   27.9560   37.2650 H   0  0  0  0  0  0  0  0  0  0  0  0
   36.1430   26.7110   37.5630 H   0  0  0  0  0  0  0  0  0  0  0  0
   37.9790   26.4850   39.6410 S   0  0  0  0  0  0  0  0  0  0  0  0
   39.1190   27.5220   39.3900 O   0  0  0  0  0  0  0  0  0  0  0  0
   38.0680   25.4730   38.5600 O   0  0  0  0  0  0  0  0  0  0  0  0
   36.6150   24.3230   41.3000 Cl  0  0  0  0  0  0  0  0  0  0  0  0
   38.2110   24.9650   41.7480 C   0  0  0  0  0  0  0  0  0  0  0  0
   38.8460   25.9980   41.0010 C   0  0  0  0  0  0  0  0  0  0  0  0
   40.0780   26.3090   41.5610 C   0  0  0  0  0  0  0  0  0  0  0  0
   40.5710   27.0750   40.9330 H   0  0  0  0  0  0  0  0  0  0  0  0
   40.7490   25.8200   42.6550 C   0  0  0  0  0  0  0  0  0  0  0  0
   41.7090   26.2200   42.9080 H   0  0  0  0  0  0  0  0  0  0  0  0
   39.9900   24.8460   43.2400 C   0  0  0  0  0  3  0  0  0  0  0  0
   38.7630   24.3820   42.8610 C   0  0  0  0  0  3  0  0  0  0  0  0
   36.9820   28.5050   41.7330 C   0  0  0  0  0  0  0  0  0  0  0  0
   36.8190   27.8080   42.7770 O   0  0  0  0  0  0  0  0  0  0  0  0
   37.9500   29.5730   41.6580 C   0  0  0  0  0  0  0  0  0  0  0  0
   38.9650   29.5620   42.6780 C   0  0  0  0  0  0  0  0  0  0  0  0
   39.9070   30.5740   42.6260 C   0  0  0  0  0  0  0  0  0  0  0  0
   39.8140   31.4970   41.6340 N   0  0  0  0  0  0  0  0  0  0  0  0
   38.8250   31.4620   40.6850 C   0  0  0  0  0  0  0  0  0  0  0  0
   37.9430   30.5230   40.7260 N   0  0  0  0  0  0  0  0  0  0  0  0
   39.1010   28.8840   43.4770 H   0  0  0  0  0  0  0  0  0  0  0  0
   40.7140   30.6560   43.3480 H   0  0  0  0  0  0  0  0  0  0  0  0
   38.8100   32.5040   39.6380 C   0  0  1  0  0  0  0  0  0  0  0  0
   37.6040   33.4050   39.5150 C   0  0  0  0  0  0  0  0  0  0  0  0
   38.8730   33.8950   40.1450 C   0  0  1  0  0  0  0  0  0  0  0  0
   39.3960   32.2850   38.7310 H   0  0  0  0  0  0  0  0  0  0  0  0
   36.7240   33.1500   40.1160 H   0  0  0  0  0  0  0  0  0  0  0  0
   37.4330   33.7960   38.4780 H   0  0  0  0  0  0  0  0  0  0  0  0
   39.5070   34.6220   39.6210 H   0  0  0  0  0  0  0  0  0  0  0  0
   38.7150   34.1610   41.5660 N   0  0  0  0  0  0  0  0  0  0  0  0
   37.9110   34.7680   41.7680 H   0  0  0  0  0  0  0  0  0  0  0  0
   39.6040   34.3980   42.0360 H   0  0  0  0  0  0  0  0  0  0  0  0
  1 11  1  0  0  0  0
  1  2  1  0  0  0  0
  2 23  1  0  0  0  0
  3  2  2  0  0  0  0
  3  7  1  0  0  0  0
  4  3  1  0  0  0  0
  5  6  1  0  0  0  0
  5  4  2  0  0  0  0
  6  1  2  0  0  0  0
  8  4  1  0  0  0  0
  9  5  1  0  0  0  0
 10  6  1  0  0  0  0
 11 16  1  0  0  0  0
 12 11  2  0  0  0  0
 13 11  2  0  0  0  0
 14 15  1  0  0  0  0
 15 22  1  0  0  0  0
 16 17  1  0  0  0  0
 16 15  2  0  0  0  0
 17 19  2  0  0  0  0
 18 17  1  0  0  0  0
 19 20  1  0  0  0  0
 19 21  1  0  0  0  0
 22 21  2  0  0  0  0
 23 24  2  0  0  0  0
 25 23  1  0  0  0  0
 25 26  1  0  0  0  0
 26 31  1  0  0  0  0
 27 26  2  0  0  0  0
 27 32  1  0  0  0  0
 28 27  1  0  0  0  0
 29 30  1  0  0  0  0
 29 28  2  0  0  0  0
 30 25  2  0  0  0  0
 33 36  1  6  0  0  0
 33 35  1  0  0  0  0
 33 29  1  0  0  0  0
 34 33  1  0  0  0  0
 34 37  1  0  0  0  0
 34 35  1  0  0  0  0
 35 39  1  6  0  0  0
 35 40  1  0  0  0  0
 38 34  1  0  0  0  0
 40 41  1  0  0  0  0
 40 42  1  0  0  0  0
M  END
>  <minimizedAffinity>
-6.5472641

$$$$

 OpenBabel03252508053D

 42 45  0  0  1  0  0  0  0  0999 V2000
   37.0640   29.5930   38.7600 C   0  0  0  0  0  0  0  0  0  0  0  0
   36.2290   29.4920   39.8370 C   0  0  0  0  0  0  0  0  0  0  0  0
   34.8870   29.1310   39.5960 C   0  0  0  0  0  0  0  0  0  0  0  0
   34.3850   28.8800   38.3410 C   0  0  0  0  0  0  0  0  0  0  0  0
   35.2300   28.9830   37.2670 C   0  0  0  0  0  0  0  0  0  0  0  0
   36.5290   29.3310   37.4950 C   0  0  0  0  0  0  0  0  0  0  0  0
   34.1500   29.0340   40.3820 H   0  0  0  0  0  0  0  0  0  0  0  0
   33.3610   28.6060   38.1700 H   0  0  0  0  0  0  0  0  0  0  0  0
   34.9290   28.8040   36.2460 H   0  0  0  0  0  0  0  0  0  0  0  0
   37.2070   29.4140   36.6280 H   0  0  0  0  0  0  0  0  0  0  0  0
   38.7080   29.9230   38.9150 S   0  0  0  0  0  0  0  0  0  0  0  0
   39.0190   30.4770   37.4880 O   0  0  0  0  0  0  0  0  0  0  0  0
   39.5310   28.7020   39.0960 O   0  0  0  0  0  0  0  0  0  0  0  0
   37.1060   32.5070   38.7150 Cl  0  0  0  0  0  0  0  0  0  0  0  0
   38.7260   32.4760   39.4450 C   0  0  0  0  0  0  0  0  0  0  0  0
   39.4990   31.2830   39.5170 C   0  0  0  0  0  0  0  0  0  0  0  0
   40.7180   31.5350   40.1340 C   0  0  0  0  0  0  0  0  0  0  0  0
   41.2750   30.5830   40.2230 H   0  0  0  0  0  0  0  0  0  0  0  0
   41.2740   32.6770   40.6550 C   0  0  0  0  0  0  0  0  0  0  0  0
   42.2510   32.6380   41.0900 H   0  0  0  0  0  0  0  0  0  0  0  0
   40.3940   33.7110   40.4950 C   0  0  0  0  0  3  0  0  0  0  0  0
   39.1530   33.6890   39.9250 C   0  0  0  0  0  3  0  0  0  0  0  0
   36.6590   29.7350   41.2010 C   0  0  0  0  0  0  0  0  0  0  0  0
   36.5230   30.8380   41.8100 O   0  0  0  0  0  0  0  0  0  0  0  0
   37.2720   28.5820   41.8160 C   0  0  0  0  0  0  0  0  0  0  0  0
   38.4560   28.8480   42.5870 C   0  0  0  0  0  0  0  0  0  0  0  0
   39.0600   27.7580   43.1900 C   0  0  0  0  0  0  0  0  0  0  0  0
   38.5070   26.5300   43.0170 N   0  0  0  0  0  0  0  0  0  0  0  0
   37.3740   26.3320   42.2690 C   0  0  0  0  0  0  0  0  0  0  0  0
   36.8050   27.3410   41.7040 N   0  0  0  0  0  0  0  0  0  0  0  0
   38.9460   29.7670   42.7660 H   0  0  0  0  0  0  0  0  0  0  0  0
   39.9590   27.8500   43.7940 H   0  0  0  0  0  0  0  0  0  0  0  0
   36.8380   24.9610   42.1450 C   0  0  1  0  0  0  0  0  0  0  0  0
   36.6900   24.3520   40.7700 C   0  0  0  0  0  0  0  0  0  0  0  0
   37.8170   23.9520   41.6750 C   0  0  1  0  0  0  0  0  0  0  0  0
   36.1440   24.6410   42.9380 H   0  0  0  0  0  0  0  0  0  0  0  0
   36.8500   25.0110   39.9100 H   0  0  0  0  0  0  0  0  0  0  0  0
   35.8740   23.5860   40.6980 H   0  0  0  0  0  0  0  0  0  0  0  0
   37.8230   22.9610   42.1470 H   0  0  0  0  0  0  0  0  0  0  0  0
   39.1110   24.3740   41.1640 N   0  0  0  0  0  0  0  0  0  0  0  0
   39.2630   24.0870   40.1890 H   0  0  0  0  0  0  0  0  0  0  0  0
   39.8860   24.2000   41.8230 H   0  0  0  0  0  0  0  0  0  0  0  0
  1 11  1  0  0  0  0
  1  2  1  0  0  0  0
  2 23  1  0  0  0  0
  3  2  2  0  0  0  0
  3  7  1  0  0  0  0
  4  3  1  0  0  0  0
  5  6  1  0  0  0  0
  5  4  2  0  0  0  0
  6  1  2  0  0  0  0
  8  4  1  0  0  0  0
  9  5  1  0  0  0  0
 10  6  1  0  0  0  0
 11 13  2  0  0  0  0
 11 16  1  0  0  0  0
 12 11  2  0  0  0  0
 14 15  1  0  0  0  0
 15 16  2  0  0  0  0
 15 22  1  0  0  0  0
 16 17  1  0  0  0  0
 17 18  1  0  0  0  0
 17 19  2  0  0  0  0
 19 20  1  0  0  0  0
 21 19  1  0  0  0  0
 22 21  2  0  0  0  0
 23 24  2  0  0  0  0
 23 25  1  0  0  0  0
 25 26  1  0  0  0  0
 26 31  1  0  0  0  0
 26 27  2  0  0  0  0
 27 32  1  0  0  0  0
 28 27  1  0  0  0  0
 29 28  2  0  0  0  0
 30 25  2  0  0  0  0
 30 29  1  0  0  0  0
 33 29  1  0  0  0  0
 33 36  1  1  0  0  0
 34 35  1  0  0  0  0
 34 33  1  0  0  0  0
 35 33  1  0  0  0  0
 35 39  1  1  0  0  0
 37 34  1  0  0  0  0
 38 34  1  0  0  0  0
 40 35  1  0  0  0  0
 40 42  1  0  0  0  0
 41 40  1  0  0  0  0
M  END
>  <minimizedAffinity>
-6.32200384

$$$$

 OpenBabel03252508053D

 42 45  0  0  1  0  0  0  0  0999 V2000
   37.5770   29.1390   38.9330 C   0  0  0  0  0  0  0  0  0  0  0  0
   37.4500   30.4840   38.7220 C   0  0  0  0  0  0  0  0  0  0  0  0
   37.1290   30.9160   37.4190 C   0  0  0  0  0  0  0  0  0  0  0  0
   36.9400   30.0580   36.3620 C   0  0  0  0  0  0  0  0  0  0  0  0
   37.0690   28.7110   36.5830 C   0  0  0  0  0  0  0  0  0  0  0  0
   37.3780   28.2880   37.8420 C   0  0  0  0  0  0  0  0  0  0  0  0
   37.0160   31.9590   37.1520 H   0  0  0  0  0  0  0  0  0  0  0  0
   36.6960   30.3990   35.3740 H   0  0  0  0  0  0  0  0  0  0  0  0
   36.9380   27.9610   35.8180 H   0  0  0  0  0  0  0  0  0  0  0  0
   37.4810   27.2030   38.0170 H   0  0  0  0  0  0  0  0  0  0  0  0
   37.8630   28.4840   40.4570 S   0  0  0  0  0  0  0  0  0  0  0  0
   36.4480   28.6400   41.1000 O   0  0  0  0  0  0  0  0  0  0  0  0
   38.8010   29.2950   41.2720 O   0  0  0  0  0  0  0  0  0  0  0  0
   40.2910   26.8300   39.6470 Cl  0  0  0  0  0  0  0  0  0  0  0  0
   38.9830   26.1350   40.6270 C   0  0  0  0  0  0  0  0  0  0  0  0
   37.8270   26.8860   40.9870 C   0  0  0  0  0  0  0  0  0  0  0  0
   36.9670   26.1080   41.7530 C   0  0  0  0  0  0  0  0  0  0  0  0
   36.1050   26.7310   42.0600 H   0  0  0  0  0  0  0  0  0  0  0  0
   37.0360   24.8100   42.1950 C   0  0  0  0  0  0  0  0  0  0  0  0
   36.2370   24.4100   42.7840 H   0  0  0  0  0  0  0  0  0  0  0  0
   38.2050   24.2550   41.7550 C   0  0  0  0  0  3  0  0  0  0  0  0
   39.1870   24.8300   41.0000 C   0  0  0  0  0  3  0  0  0  0  0  0
   37.6280   31.4720   39.7690 C   0  0  0  0  0  0  0  0  0  0  0  0
   36.7820   31.7110   40.6810 O   0  0  0  0  0  0  0  0  0  0  0  0
   38.8860   32.1740   39.6770 C   0  0  0  0  0  0  0  0  0  0  0  0
   38.9190   33.4690   40.3000 C   0  0  0  0  0  0  0  0  0  0  0  0
   40.1160   34.1610   40.2280 C   0  0  0  0  0  0  0  0  0  0  0  0
   41.1620   33.5830   39.5850 N   0  0  0  0  0  0  0  0  0  0  0  0
   41.0770   32.3430   39.0050 C   0  0  0  0  0  0  0  0  0  0  0  0
   39.9660   31.6920   39.0680 N   0  0  0  0  0  0  0  0  0  0  0  0
   38.1520   33.9840   40.8150 H   0  0  0  0  0  0  0  0  0  0  0  0
   40.2460   35.1470   40.6660 H   0  0  0  0  0  0  0  0  0  0  0  0
   42.2710   31.7900   38.3350 C   0  0  1  0  0  0  0  0  0  0  0  0
   42.1870   31.4200   36.8730 C   0  0  0  0  0  0  0  0  0  0  0  0
   42.8750   32.6770   37.3130 C   0  0  1  0  0  0  0  0  0  0  0  0
   42.9710   31.2330   38.9780 H   0  0  0  0  0  0  0  0  0  0  0  0
   41.1970   31.4390   36.4070 H   0  0  0  0  0  0  0  0  0  0  0  0
   42.8910   30.6010   36.5710 H   0  0  0  0  0  0  0  0  0  0  0  0
   43.9690   32.7570   37.2610 H   0  0  0  0  0  0  0  0  0  0  0  0
   42.1720   33.8720   36.8760 N   0  0  0  0  0  0  0  0  0  0  0  0
   41.9650   33.8640   35.8700 H   0  0  0  0  0  0  0  0  0  0  0  0
   42.5730   34.7430   37.2580 H   0  0  0  0  0  0  0  0  0  0  0  0
  1 11  1  0  0  0  0
  2  1  1  0  0  0  0
  2 23  1  0  0  0  0
  3  2  2  0  0  0  0
  4  5  2  0  0  0  0
  4  3  1  0  0  0  0
  5  6  1  0  0  0  0
  6 10  1  0  0  0  0
  6  1  2  0  0  0  0
  7  3  1  0  0  0  0
  8  4  1  0  0  0  0
  9  5  1  0  0  0  0
 11 16  1  0  0  0  0
 11 12  2  0  0  0  0
 11 13  2  0  0  0  0
 14 15  1  0  0  0  0
 15 16  2  0  0  0  0
 15 22  1  0  0  0  0
 16 17  1  0  0  0  0
 17 18  1  0  0  0  0
 17 19  2  0  0  0  0
 19 20  1  0  0  0  0
 21 19  1  0  0  0  0
 22 21  2  0  0  0  0
 23 24  2  0  0  0  0
 25 23  1  0  0  0  0
 25 26  1  0  0  0  0
 26 31  1  0  0  0  0
 27 26  2  0  0  0  0
 27 32  1  0  0  0  0
 28 27  1  0  0  0  0
 29 30  1  0  0  0  0
 29 28  2  0  0  0  0
 30 25  2  0  0  0  0
 33 36  1  1  0  0  0
 33 29  1  0  0  0  0
 34 35  1  0  0  0  0
 34 33  1  0  0  0  0
 35 39  1  6  0  0  0
 35 33  1  0  0  0  0
 37 34  1  0  0  0  0
 38 34  1  0  0  0  0
 40 42  1  0  0  0  0
 40 35  1  0  0  0  0
 41 40  1  0  0  0  0
M  END
>  <minimizedAffinity>
-6.02539635

$$$$

 OpenBabel03252508053D

 42 45  0  0  1  0  0  0  0  0999 V2000
   36.2810   26.7700   39.0180 C   0  0  0  0  0  0  0  0  0  0  0  0
   35.4440   27.8280   38.7960 C   0  0  0  0  0  0  0  0  0  0  0  0
   34.4970   27.7090   37.7590 C   0  0  0  0  0  0  0  0  0  0  0  0
   34.3750   26.5900   36.9690 C   0  0  0  0  0  0  0  0  0  0  0  0
   35.2180   25.5340   37.2010 C   0  0  0  0  0  0  0  0  0  0  0  0
   36.1360   25.6440   38.2030 C   0  0  0  0  0  0  0  0  0  0  0  0
   33.7980   28.4940   37.5020 H   0  0  0  0  0  0  0  0  0  0  0  0
   33.6500   26.5110   36.1830 H   0  0  0  0  0  0  0  0  0  0  0  0
   35.1980   24.6140   36.6350 H   0  0  0  0  0  0  0  0  0  0  0  0
   36.8130   24.7920   38.3860 H   0  0  0  0  0  0  0  0  0  0  0  0
   37.3930   26.7440   40.2820 S   0  0  0  0  0  0  0  0  0  0  0  0
   38.7050   26.4320   39.4950 O   0  0  0  0  0  0  0  0  0  0  0  0
   37.1750   25.6210   41.2260 O   0  0  0  0  0  0  0  0  0  0  0  0
   36.4080   27.4670   43.0740 Cl  0  0  0  0  0  0  0  0  0  0  0  0
   37.7900   28.3030   42.3350 C   0  0  0  0  0  0  0  0  0  0  0  0
   38.2420   27.9980   41.0190 C   0  0  0  0  0  0  0  0  0  0  0  0
   39.3340   28.7910   40.6890 C   0  0  0  0  0  0  0  0  0  0  0  0
   39.6950   28.4990   39.6850 H   0  0  0  0  0  0  0  0  0  0  0  0
   40.0120   29.7670   41.3770 C   0  0  0  0  0  0  0  0  0  0  0  0
   40.8420   30.2600   40.9140 H   0  0  0  0  0  0  0  0  0  0  0  0
   39.4390   29.9200   42.6080 C   0  0  0  0  0  3  0  0  0  0  0  0
   38.3720   29.2520   43.1370 C   0  0  0  0  0  3  0  0  0  0  0  0
   35.4900   29.0520   39.5720 C   0  0  0  0  0  0  0  0  0  0  0  0
   34.8930   29.2240   40.6760 O   0  0  0  0  0  0  0  0  0  0  0  0
   36.2960   30.0820   38.9600 C   0  0  0  0  0  0  0  0  0  0  0  0
   36.6470   29.8570   37.5830 C   0  0  0  0  0  0  0  0  0  0  0  0
   37.4160   30.8310   36.9730 C   0  0  0  0  0  0  0  0  0  0  0  0
   37.7850   31.9170   37.7000 N   0  0  0  0  0  0  0  0  0  0  0  0
   37.4240   32.0830   39.0120 C   0  0  0  0  0  0  0  0  0  0  0  0
   36.7070   31.1800   39.5880 N   0  0  0  0  0  0  0  0  0  0  0  0
   36.4010   29.0420   36.9550 H   0  0  0  0  0  0  0  0  0  0  0  0
   37.7350   30.7580   35.9370 H   0  0  0  0  0  0  0  0  0  0  0  0
   37.8630   33.3020   39.7200 C   0  0  1  0  0  0  0  0  0  0  0  0
   38.7110   33.1650   40.9630 C   0  0  0  0  0  0  0  0  0  0  0  0
   39.3200   33.5680   39.6530 C   0  0  1  0  0  0  0  0  0  0  0  0
   37.2000   34.1770   39.6320 H   0  0  0  0  0  0  0  0  0  0  0  0
   38.8420   32.1580   41.3720 H   0  0  0  0  0  0  0  0  0  0  0  0
   38.5950   34.0130   41.6870 H   0  0  0  0  0  0  0  0  0  0  0  0
   39.6640   34.5990   39.4950 H   0  0  0  0  0  0  0  0  0  0  0  0
   40.2230   32.5550   39.1300 N   0  0  0  0  0  0  0  0  0  0  0  0
   40.9240   32.2570   39.8190 H   0  0  0  0  0  0  0  0  0  0  0  0
   40.5690   32.7690   38.1810 H   0  0  0  0  0  0  0  0  0  0  0  0
  1 11  1  0  0  0  0
  2  1  1  0  0  0  0
  2 23  1  0  0  0  0
  3  2  2  0  0  0  0
  4  5  2  0  0  0  0
  4  3  1  0  0  0  0
  5  6  1  0  0  0  0
  6 10  1  0  0  0  0
  6  1  2  0  0  0  0
  7  3  1  0  0  0  0
  8  4  1  0  0  0  0
  9  5  1  0  0  0  0
 11 16  1  0  0  0  0
 11 13  2  0  0  0  0
 12 11  2  0  0  0  0
 15 14  1  0  0  0  0
 15 22  1  0  0  0  0
 16 15  2  0  0  0  0
 17 16  1  0  0  0  0
 17 19  2  0  0  0  0
 18 17  1  0  0  0  0
 19 21  1  0  0  0  0
 20 19  1  0  0  0  0
 21 22  2  0  0  0  0
 23 24  2  0  0  0  0
 25 23  1  0  0  0  0
 25 30  1  0  0  0  0
 26 25  2  0  0  0  0
 27 26  1  0  0  0  0
 27 28  2  0  0  0  0
 28 29  1  0  0  0  0
 29 30  2  0  0  0  0
 29 33  1  0  0  0  0
 31 26  1  0  0  0  0
 32 27  1  0  0  0  0
 33 36  1  6  0  0  0
 33 34  1  0  0  0  0
 34 37  1  0  0  0  0
 34 38  1  0  0  0  0
 35 39  1  6  0  0  0
 35 33  1  0  0  0  0
 35 34  1  0  0  0  0
 40 35  1  0  0  0  0
 40 41  1  0  0  0  0
 42 40  1  0  0  0  0
M  END
>  <minimizedAffinity>
-5.97687531

$$$$

 OpenBabel03252508053D

 42 45  0  0  1  0  0  0  0  0999 V2000
   37.3500   30.4220   39.0640 C   0  0  0  0  0  0  0  0  0  0  0  0
   38.4310   30.2560   39.8840 C   0  0  0  0  0  0  0  0  0  0  0  0
   39.0270   31.4140   40.4250 C   0  0  0  0  0  0  0  0  0  0  0  0
   38.5770   32.6870   40.1700 C   0  0  0  0  0  0  0  0  0  0  0  0
   37.4920   32.8430   39.3470 C   0  0  0  0  0  0  0  0  0  0  0  0
   36.9110   31.7270   38.8210 C   0  0  0  0  0  0  0  0  0  0  0  0
   39.8900   31.3850   41.0770 H   0  0  0  0  0  0  0  0  0  0  0  0
   39.0390   33.5610   40.5880 H   0  0  0  0  0  0  0  0  0  0  0  0
   37.0660   33.8020   39.0890 H   0  0  0  0  0  0  0  0  0  0  0  0
   36.0380   31.8560   38.1590 H   0  0  0  0  0  0  0  0  0  0  0  0
   36.4880   29.1230   38.4280 S   0  0  0  0  0  0  0  0  0  0  0  0
   35.5920   28.7550   39.6530 O   0  0  0  0  0  0  0  0  0  0  0  0
   37.3400   27.9430   38.1430 O   0  0  0  0  0  0  0  0  0  0  0  0
   36.9250   29.5470   35.4420 Cl  0  0  0  0  0  0  0  0  0  0  0  0
   35.3030   29.2590   36.1080 C   0  0  0  0  0  0  0  0  0  0  0  0
   35.0790   29.0910   37.5050 C   0  0  0  0  0  0  0  0  0  0  0  0
   33.7290   28.8780   37.7530 C   0  0  0  0  0  0  0  0  0  0  0  0
   33.5910   28.7000   38.8360 H   0  0  0  0  0  0  0  0  0  0  0  0
   32.6340   28.8100   36.9270 C   0  0  0  0  0  0  0  0  0  0  0  0
   31.6650   28.6360   37.3480 H   0  0  0  0  0  0  0  0  0  0  0  0
   33.0420   28.9940   35.6360 C   0  0  0  0  0  3  0  0  0  0  0  0
   34.3050   29.2130   35.1670 C   0  0  0  0  0  3  0  0  0  0  0  0
   38.9820   28.9570   40.2170 C   0  0  0  0  0  0  0  0  0  0  0  0
   39.9400   28.4040   39.5980 O   0  0  0  0  0  0  0  0  0  0  0  0
   38.3270   28.3350   41.3430 C   0  0  0  0  0  0  0  0  0  0  0  0
   38.1650   29.1690   42.5030 C   0  0  0  0  0  0  0  0  0  0  0  0
   37.5370   28.5960   43.5950 C   0  0  0  0  0  0  0  0  0  0  0  0
   37.1220   27.3070   43.5030 N   0  0  0  0  0  0  0  0  0  0  0  0
   37.3020   26.5540   42.3710 C   0  0  0  0  0  0  0  0  0  0  0  0
   37.8860   27.0800   41.3490 N   0  0  0  0  0  0  0  0  0  0  0  0
   38.4610   30.1730   42.6520 H   0  0  0  0  0  0  0  0  0  0  0  0
   37.3650   29.1400   44.5200 H   0  0  0  0  0  0  0  0  0  0  0  0
   36.8080   25.1620   42.3590 C   0  0  1  0  0  0  0  0  0  0  0  0
   36.8580   24.3760   41.0700 C   0  0  0  0  0  0  0  0  0  0  0  0
   37.8560   24.1330   42.1610 C   0  0  1  0  0  0  0  0  0  0  0  0
   36.0180   24.9240   43.0880 H   0  0  0  0  0  0  0  0  0  0  0  0
   37.1230   24.9230   40.1590 H   0  0  0  0  0  0  0  0  0  0  0  0
   36.0700   23.5810   40.9920 H   0  0  0  0  0  0  0  0  0  0  0  0
   37.8140   23.2120   42.7570 H   0  0  0  0  0  0  0  0  0  0  0  0
   39.2020   24.5270   41.7750 N   0  0  0  0  0  0  0  0  0  0  0  0
   39.4890   24.1220   40.8750 H   0  0  0  0  0  0  0  0  0  0  0  0
   39.8820   24.4650   42.5490 H   0  0  0  0  0  0  0  0  0  0  0  0
  1  2  1  0  0  0  0
  2 23  1  0  0  0  0
  2  3  2  0  0  0  0
  3  7  1  0  0  0  0
  4  3  1  0  0  0  0
  4  8  1  0  0  0  0
  5  4  2  0  0  0  0
  6  1  2  0  0  0  0
  6  5  1  0  0  0  0
  9  5  1  0  0  0  0
 10  6  1  0  0  0  0
 11  1  1  0  0  0  0
 11 12  2  0  0  0  0
 13 11  2  0  0  0  0
 14 15  1  0  0  0  0
 15 16  1  0  0  0  0
 16 17  2  0  0  0  0
 16 11  1  0  0  0  0
 17 18  1  0  0  0  0
 19 20  1  0  0  0  0
 19 17  1  0  0  0  0
 21 19  2  0  0  0  0
 22 21  1  0  0  0  0
 22 15  2  0  0  0  0
 23 25  1  0  0  0  0
 24 23  2  0  0  0  0
 25 30  2  0  0  0  0
 25 26  1  0  0  0  0
 26 31  1  0  0  0  0
 26 27  2  0  0  0  0
 27 32  1  0  0  0  0
 28 27  1  0  0  0  0
 29 28  2  0  0  0  0
 30 29  1  0  0  0  0
 33 29  1  0  0  0  0
 33 36  1  1  0  0  0
 34 35  1  0  0  0  0
 34 33  1  0  0  0  0
 35 33  1  0  0  0  0
 35 39  1  1  0  0  0
 37 34  1  0  0  0  0
 38 34  1  0  0  0  0
 40 35  1  0  0  0  0
 40 42  1  0  0  0  0
 41 40  1  0  0  0  0
M  END
>  <minimizedAffinity>
-5.96522427

$$$$

 OpenBabel03252508053D

 42 45  0  0  1  0  0  0  0  0999 V2000
   36.5340   27.0820   38.9110 C   0  0  0  0  0  0  0  0  0  0  0  0
   35.9780   28.3240   39.0450 C   0  0  0  0  0  0  0  0  0  0  0  0
   35.1480   28.7860   38.0030 C   0  0  0  0  0  0  0  0  0  0  0  0
   34.8750   28.0550   36.8710 C   0  0  0  0  0  0  0  0  0  0  0  0
   35.4360   26.8110   36.7470 C   0  0  0  0  0  0  0  0  0  0  0  0
   36.2400   26.3590   37.7520 C   0  0  0  0  0  0  0  0  0  0  0  0
   34.6700   29.7570   38.0130 H   0  0  0  0  0  0  0  0  0  0  0  0
   34.2410   28.4180   36.0850 H   0  0  0  0  0  0  0  0  0  0  0  0
   35.2800   26.1630   35.8970 H   0  0  0  0  0  0  0  0  0  0  0  0
   36.6910   25.3570   37.6490 H   0  0  0  0  0  0  0  0  0  0  0  0
   37.4670   26.3730   40.1200 S   0  0  0  0  0  0  0  0  0  0  0  0
   38.5600   25.6690   39.2540 O   0  0  0  0  0  0  0  0  0  0  0  0
   36.7470   25.3080   40.8600 O   0  0  0  0  0  0  0  0  0  0  0  0
   36.7890   26.8270   43.0560 Cl  0  0  0  0  0  0  0  0  0  0  0  0
   38.4090   27.1790   42.4150 C   0  0  0  0  0  0  0  0  0  0  0  0
   38.7310   27.0020   41.0390 C   0  0  0  0  0  0  0  0  0  0  0  0
   40.0570   27.3450   40.8070 C   0  0  0  0  0  0  0  0  0  0  0  0
   40.2940   27.1490   39.7440 H   0  0  0  0  0  0  0  0  0  0  0  0
   41.0540   27.8030   41.6330 C   0  0  0  0  0  0  0  0  0  0  0  0
   42.0220   28.0100   41.2270 H   0  0  0  0  0  0  0  0  0  0  0  0
   40.5610   27.9100   42.9030 C   0  0  0  0  0  3  0  0  0  0  0  0
   39.3030   27.6280   43.3530 C   0  0  0  0  0  3  0  0  0  0  0  0
   36.2030   29.1740   40.1980 C   0  0  0  0  0  0  0  0  0  0  0  0
   35.6470   29.0150   41.3250 O   0  0  0  0  0  0  0  0  0  0  0  0
   37.1380   30.2430   39.9410 C   0  0  0  0  0  0  0  0  0  0  0  0
   36.6430   31.5710   40.1860 C   0  0  0  0  0  0  0  0  0  0  0  0
   37.5230   32.6130   39.9490 C   0  0  0  0  0  0  0  0  0  0  0  0
   38.7730   32.3200   39.5080 N   0  0  0  0  0  0  0  0  0  0  0  0
   39.1950   31.0340   39.2890 C   0  0  0  0  0  0  0  0  0  0  0  0
   38.3820   30.0570   39.5070 N   0  0  0  0  0  0  0  0  0  0  0  0
   35.6900   31.8780   40.5260 H   0  0  0  0  0  0  0  0  0  0  0  0
   37.2490   33.6530   40.1030 H   0  0  0  0  0  0  0  0  0  0  0  0
   40.5760   30.8110   38.8170 C   0  0  1  0  0  0  0  0  0  0  0  0
   40.7990   30.0790   37.5150 C   0  0  0  0  0  0  0  0  0  0  0  0
   40.9460   31.5690   37.5980 C   0  0  1  0  0  0  0  0  0  0  0  0
   41.3470   30.7350   39.6010 H   0  0  0  0  0  0  0  0  0  0  0  0
   39.9260   29.6120   37.0460 H   0  0  0  0  0  0  0  0  0  0  0  0
   41.7760   29.5310   37.4640 H   0  0  0  0  0  0  0  0  0  0  0  0
   41.9400   32.0320   37.5430 H   0  0  0  0  0  0  0  0  0  0  0  0
   39.9240   32.2670   36.8350 N   0  0  0  0  0  0  0  0  0  0  0  0
   39.8520   31.9280   35.8680 H   0  0  0  0  0  0  0  0  0  0  0  0
   39.9460   33.2910   36.9660 H   0  0  0  0  0  0  0  0  0  0  0  0
  1  2  1  0  0  0  0
  1 11  1  0  0  0  0
  2 23  1  0  0  0  0
  3  7  1  0  0  0  0
  3  2  2  0  0  0  0
  4  3  1  0  0  0  0
  5  4  2  0  0  0  0
  5  6  1  0  0  0  0
  6  1  2  0  0  0  0
  8  4  1  0  0  0  0
  9  5  1  0  0  0  0
 10  6  1  0  0  0  0
 11 13  2  0  0  0  0
 11 16  1  0  0  0  0
 12 11  2  0  0  0  0
 15 14  1  0  0  0  0
 15 22  1  0  0  0  0
 16 15  2  0  0  0  0
 17 16  1  0  0  0  0
 17 19  2  0  0  0  0
 18 17  1  0  0  0  0
 19 21  1  0  0  0  0
 20 19  1  0  0  0  0
 21 22  2  0  0  0  0
 23 24  2  0  0  0  0
 25 26  1  0  0  0  0
 25 23  1  0  0  0  0
 26 31  1  0  0  0  0
 27 32  1  0  0  0  0
 27 26  2  0  0  0  0
 28 27  1  0  0  0  0
 29 30  1  0  0  0  0
 29 28  2  0  0  0  0
 30 25  2  0  0  0  0
 33 29  1  0  0  0  0
 33 36  1  1  0  0  0
 34 35  1  0  0  0  0
 34 33  1  0  0  0  0
 35 39  1  6  0  0  0
 35 33  1  0  0  0  0
 37 34  1  0  0  0  0
 38 34  1  0  0  0  0
 40 42  1  0  0  0  0
 40 35  1  0  0  0  0
 41 40  1  0  0  0  0
M  END
>  <minimizedAffinity>
-5.81755972

$$$$

 OpenBabel03252508053D

 42 45  0  0  1  0  0  0  0  0999 V2000
   39.3510   27.5770   41.1190 C   0  0  0  0  0  0  0  0  0  0  0  0
   39.2170   28.7270   41.8460 C   0  0  0  0  0  0  0  0  0  0  0  0
   40.2620   29.0710   42.7270 C   0  0  0  0  0  0  0  0  0  0  0  0
   41.3970   28.3130   42.8880 C   0  0  0  0  0  0  0  0  0  0  0  0
   41.5230   27.1620   42.1540 C   0  0  0  0  0  0  0  0  0  0  0  0
   40.5150   26.8250   41.3000 C   0  0  0  0  0  0  0  0  0  0  0  0
   40.2440   29.9560   43.3500 H   0  0  0  0  0  0  0  0  0  0  0  0
   42.1860   28.5850   43.5630 H   0  0  0  0  0  0  0  0  0  0  0  0
   42.3770   26.5030   42.2110 H   0  0  0  0  0  0  0  0  0  0  0  0
   40.6190   25.8980   40.7100 H   0  0  0  0  0  0  0  0  0  0  0  0
   38.2230   27.1000   39.9630 S   0  0  0  0  0  0  0  0  0  0  0  0
   37.0870   26.5580   40.8880 O   0  0  0  0  0  0  0  0  0  0  0  0
   38.6870   25.9610   39.1330 O   0  0  0  0  0  0  0  0  0  0  0  0
   39.2500   28.8430   37.6850 Cl  0  0  0  0  0  0  0  0  0  0  0  0
   37.5210   28.7680   38.0860 C   0  0  0  0  0  0  0  0  0  0  0  0
   37.0300   27.9830   39.1680 C   0  0  0  0  0  0  0  0  0  0  0  0
   35.6480   28.1000   39.2590 C   0  0  0  0  0  0  0  0  0  0  0  0
   35.2900   27.4410   40.0730 H   0  0  0  0  0  0  0  0  0  0  0  0
   34.7270   28.8070   38.5270 C   0  0  0  0  0  0  0  0  0  0  0  0
   33.6900   28.7490   38.7850 H   0  0  0  0  0  0  0  0  0  0  0  0
   35.3790   29.4940   37.5420 C   0  0  0  0  0  3  0  0  0  0  0  0
   36.7170   29.5230   37.2690 C   0  0  0  0  0  3  0  0  0  0  0  0
   38.0600   29.5970   41.7490 C   0  0  0  0  0  0  0  0  0  0  0  0
   36.9630   29.4010   42.3520 O   0  0  0  0  0  0  0  0  0  0  0  0
   38.2760   30.7320   40.8840 C   0  0  0  0  0  0  0  0  0  0  0  0
   37.1020   31.5010   40.5680 C   0  0  0  0  0  0  0  0  0  0  0  0
   37.2840   32.5970   39.7420 C   0  0  0  0  0  0  0  0  0  0  0  0
   38.5350   32.8700   39.2910 N   0  0  0  0  0  0  0  0  0  0  0  0
   39.6220   32.1020   39.6230 C   0  0  0  0  0  0  0  0  0  0  0  0
   39.4620   31.0800   40.3920 N   0  0  0  0  0  0  0  0  0  0  0  0
   36.1020   31.3530   40.8760 H   0  0  0  0  0  0  0  0  0  0  0  0
   36.4630   33.2440   39.4430 H   0  0  0  0  0  0  0  0  0  0  0  0
   40.9470   32.4820   39.0930 C   0  0  1  0  0  0  0  0  0  0  0  0
   41.7090   31.4940   38.2420 C   0  0  0  0  0  0  0  0  0  0  0  0
   40.9990   32.6610   37.6230 C   0  0  1  0  0  0  0  0  0  0  0  0
   41.5190   33.2050   39.6960 H   0  0  0  0  0  0  0  0  0  0  0  0
   41.3090   30.4760   38.1750 H   0  0  0  0  0  0  0  0  0  0  0  0
   42.8220   31.6160   38.2910 H   0  0  0  0  0  0  0  0  0  0  0  0
   41.5710   33.5020   37.2110 H   0  0  0  0  0  0  0  0  0  0  0  0
   39.8760   32.2480   36.7980 N   0  0  0  0  0  0  0  0  0  0  0  0
   40.1330   31.5290   36.1100 H   0  0  0  0  0  0  0  0  0  0  0  0
   39.3140   33.0410   36.4490 H   0  0  0  0  0  0  0  0  0  0  0  0
  1  6  2  0  0  0  0
  1  2  1  0  0  0  0
  2  3  2  0  0  0  0
  3  4  1  0  0  0  0
  3  7  1  0  0  0  0
  4  8  1  0  0  0  0
  5  9  1  0  0  0  0
  5  4  2  0  0  0  0
  6  5  1  0  0  0  0
 10  6  1  0  0  0  0
 11 12  2  0  0  0  0
 11  1  1  0  0  0  0
 13 11  2  0  0  0  0
 14 15  1  0  0  0  0
 15 16  1  0  0  0  0
 16 17  2  0  0  0  0
 16 11  1  0  0  0  0
 17 18  1  0  0  0  0
 19 20  1  0  0  0  0
 19 17  1  0  0  0  0
 21 19  2  0  0  0  0
 22 21  1  0  0  0  0
 22 15  2  0  0  0  0
 23  2  1  0  0  0  0
 23 24  2  0  0  0  0
 25 23  1  0  0  0  0
 26 31  1  0  0  0  0
 26 25  1  0  0  0  0
 27 26  2  0  0  0  0
 28 29  2  0  0  0  0
 28 27  1  0  0  0  0
 29 30  1  0  0  0  0
 30 25  2  0  0  0  0
 32 27  1  0  0  0  0
 33 29  1  0  0  0  0
 33 36  1  1  0  0  0
 34 38  1  0  0  0  0
 34 33  1  0  0  0  0
 35 39  1  6  0  0  0
 35 34  1  0  0  0  0
 35 33  1  0  0  0  0
 37 34  1  0  0  0  0
 40 35  1  0  0  0  0
 41 40  1  0  0  0  0
 42 40  1  0  0  0  0
M  END
>  <minimizedAffinity>
-5.8106575

$$$$

 OpenBabel03252508053D

 42 45  0  0  1  0  0  0  0  0999 V2000
   37.5600   27.3330   41.2400 C   0  0  0  0  0  0  0  0  0  0  0  0
   37.0170   28.5790   41.3820 C   0  0  0  0  0  0  0  0  0  0  0  0
   37.1900   29.2320   42.6200 C   0  0  0  0  0  0  0  0  0  0  0  0
   37.8720   28.6800   43.6780 C   0  0  0  0  0  0  0  0  0  0  0  0
   38.4130   27.4300   43.5250 C   0  0  0  0  0  0  0  0  0  0  0  0
   38.2490   26.7950   42.3300 C   0  0  0  0  0  0  0  0  0  0  0  0
   36.7910   30.2160   42.8310 H   0  0  0  0  0  0  0  0  0  0  0  0
   37.9970   29.1870   44.6160 H   0  0  0  0  0  0  0  0  0  0  0  0
   38.9650   26.9160   44.2980 H   0  0  0  0  0  0  0  0  0  0  0  0
   38.6850   25.7880   42.2100 H   0  0  0  0  0  0  0  0  0  0  0  0
   37.5070   26.4830   39.7870 S   0  0  0  0  0  0  0  0  0  0  0  0
   38.6160   27.2350   38.9830 O   0  0  0  0  0  0  0  0  0  0  0  0
   36.2340   26.6690   39.0500 O   0  0  0  0  0  0  0  0  0  0  0  0
   36.3700   23.9700   41.0810 Cl  0  0  0  0  0  0  0  0  0  0  0  0
   37.7080   23.8860   39.9150 C   0  0  0  0  0  0  0  0  0  0  0  0
   38.2710   25.0540   39.3270 C   0  0  0  0  0  0  0  0  0  0  0  0
   39.2950   24.7070   38.4540 C   0  0  0  0  0  0  0  0  0  0  0  0
   39.6790   25.6270   37.9740 H   0  0  0  0  0  0  0  0  0  0  0  0
   39.8290   23.4970   38.0860 C   0  0  0  0  0  0  0  0  0  0  0  0
   40.6360   23.4680   37.3820 H   0  0  0  0  0  0  0  0  0  0  0  0
   39.1680   22.5020   38.7480 C   0  0  0  0  0  3  0  0  0  0  0  0
   38.1400   22.6120   39.6400 C   0  0  0  0  0  3  0  0  0  0  0  0
   36.2810   29.2500   40.3280 C   0  0  0  0  0  0  0  0  0  0  0  0
   35.0300   29.1540   40.1530 O   0  0  0  0  0  0  0  0  0  0  0  0
   37.1210   30.0560   39.4740 C   0  0  0  0  0  0  0  0  0  0  0  0
   36.7170   30.1280   38.0960 C   0  0  0  0  0  0  0  0  0  0  0  0
   37.5050   30.8970   37.2580 C   0  0  0  0  0  0  0  0  0  0  0  0
   38.5910   31.5230   37.7820 N   0  0  0  0  0  0  0  0  0  0  0  0
   38.9330   31.4200   39.1060 C   0  0  0  0  0  0  0  0  0  0  0  0
   38.2040   30.7060   39.8930 N   0  0  0  0  0  0  0  0  0  0  0  0
   35.8920   29.6720   37.6160 H   0  0  0  0  0  0  0  0  0  0  0  0
   37.2870   31.0170   36.2010 H   0  0  0  0  0  0  0  0  0  0  0  0
   40.1260   32.1450   39.5880 C   0  0  1  0  0  0  0  0  0  0  0  0
   40.2650   33.6180   39.2810 C   0  0  0  0  0  0  0  0  0  0  0  0
   39.8580   33.1480   40.6450 C   0  0  1  0  0  0  0  0  0  0  0  0
   41.0420   31.5440   39.7020 H   0  0  0  0  0  0  0  0  0  0  0  0
   39.5430   34.0550   38.5840 H   0  0  0  0  0  0  0  0  0  0  0  0
   41.3280   33.9710   39.2220 H   0  0  0  0  0  0  0  0  0  0  0  0
   40.5560   33.2270   41.4890 H   0  0  0  0  0  0  0  0  0  0  0  0
   38.4900   33.5180   40.9700 N   0  0  0  0  0  0  0  0  0  0  0  0
   38.3050   34.5180   40.8220 H   0  0  0  0  0  0  0  0  0  0  0  0
   38.1590   33.1140   41.8610 H   0  0  0  0  0  0  0  0  0  0  0  0
  1  2  2  0  0  0  0
  1  6  1  0  0  0  0
  2  3  1  0  0  0  0
  3  7  1  0  0  0  0
  3  4  2  0  0  0  0
  4  8  1  0  0  0  0
  5  4  1  0  0  0  0
  5  9  1  0  0  0  0
  6  5  2  0  0  0  0
 10  6  1  0  0  0  0
 11  1  1  0  0  0  0
 12 11  2  0  0  0  0
 13 11  2  0  0  0  0
 15 14  1  0  0  0  0
 16 11  1  0  0  0  0
 16 15  2  0  0  0  0
 17 16  1  0  0  0  0
 18 17  1  0  0  0  0
 19 17  2  0  0  0  0
 19 21  1  0  0  0  0
 20 19  1  0  0  0  0
 21 22  2  0  0  0  0
 22 15  1  0  0  0  0
 23  2  1  0  0  0  0
 24 23  2  0  0  0  0
 25 30  1  0  0  0  0
 25 23  1  0  0  0  0
 26 25  2  0  0  0  0
 27 28  2  0  0  0  0
 27 26  1  0  0  0  0
 28 29  1  0  0  0  0
 29 33  1  0  0  0  0
 29 30  2  0  0  0  0
 31 26  1  0  0  0  0
 32 27  1  0  0  0  0
 33 36  1  1  0  0  0
 33 35  1  0  0  0  0
 34 33  1  0  0  0  0
 34 35  1  0  0  0  0
 35 40  1  0  0  0  0
 35 39  1  1  0  0  0
 37 34  1  0  0  0  0
 38 34  1  0  0  0  0
 40 42  1  0  0  0  0
 41 40  1  0  0  0  0
M  END
>  <minimizedAffinity>
-5.8057766

$$$$

 OpenBabel03252508053D

 42 45  0  0  1  0  0  0  0  0999 V2000
   37.2680   30.0910   38.6290 C   0  0  0  0  0  0  0  0  0  0  0  0
   36.5550   30.2180   39.7880 C   0  0  0  0  0  0  0  0  0  0  0  0
   36.5590   31.4760   40.4250 C   0  0  0  0  0  0  0  0  0  0  0  0
   37.2390   32.5680   39.9410 C   0  0  0  0  0  0  0  0  0  0  0  0
   37.9510   32.4300   38.7780 C   0  0  0  0  0  0  0  0  0  0  0  0
   37.9500   31.2160   38.1570 C   0  0  0  0  0  0  0  0  0  0  0  0
   36.0320   31.6730   41.3500 H   0  0  0  0  0  0  0  0  0  0  0  0
   37.2350   33.5200   40.4350 H   0  0  0  0  0  0  0  0  0  0  0  0
   38.5150   33.2290   38.3200 H   0  0  0  0  0  0  0  0  0  0  0  0
   38.5240   31.1080   37.2210 H   0  0  0  0  0  0  0  0  0  0  0  0
   37.2720   28.6740   37.7190 S   0  0  0  0  0  0  0  0  0  0  0  0
   38.2600   27.8040   38.5590 O   0  0  0  0  0  0  0  0  0  0  0  0
   37.8780   28.8460   36.3760 O   0  0  0  0  0  0  0  0  0  0  0  0
   34.5410   29.1940   36.4710 Cl  0  0  0  0  0  0  0  0  0  0  0  0
   34.9680   27.6010   37.1320 C   0  0  0  0  0  0  0  0  0  0  0  0
   36.2280   27.3520   37.7470 C   0  0  0  0  0  0  0  0  0  0  0  0
   36.3030   26.0320   38.1730 C   0  0  0  0  0  0  0  0  0  0  0  0
   37.3080   25.8530   38.5990 H   0  0  0  0  0  0  0  0  0  0  0  0
   35.4160   24.9850   38.1080 C   0  0  0  0  0  0  0  0  0  0  0  0
   35.6920   24.0330   38.5130 H   0  0  0  0  0  0  0  0  0  0  0  0
   34.2730   25.4110   37.4920 C   0  0  0  0  0  3  0  0  0  0  0  0
   33.9870   26.6510   36.9970 C   0  0  0  0  0  3  0  0  0  0  0  0
   35.8030   29.1290   40.3810 C   0  0  0  0  0  0  0  0  0  0  0  0
   34.5910   28.8700   40.1220 O   0  0  0  0  0  0  0  0  0  0  0  0
   36.5790   28.3480   41.3150 C   0  0  0  0  0  0  0  0  0  0  0  0
   37.3940   29.1050   42.2270 C   0  0  0  0  0  0  0  0  0  0  0  0
   38.1450   28.3780   43.1350 C   0  0  0  0  0  0  0  0  0  0  0  0
   38.0670   27.0230   43.1060 N   0  0  0  0  0  0  0  0  0  0  0  0
   37.2720   26.3500   42.2140 C   0  0  0  0  0  0  0  0  0  0  0  0
   36.5690   27.0190   41.3650 N   0  0  0  0  0  0  0  0  0  0  0  0
   37.5100   30.1520   42.3100 H   0  0  0  0  0  0  0  0  0  0  0  0
   38.7940   28.8530   43.8660 H   0  0  0  0  0  0  0  0  0  0  0  0
   37.2420   24.8750   42.2640 C   0  0  1  0  0  0  0  0  0  0  0  0
   37.6340   24.0900   41.0340 C   0  0  0  0  0  0  0  0  0  0  0  0
   38.5720   24.2240   42.1950 C   0  0  1  0  0  0  0  0  0  0  0  0
   36.5130   24.4300   42.9600 H   0  0  0  0  0  0  0  0  0  0  0  0
   37.7830   24.6520   40.1060 H   0  0  0  0  0  0  0  0  0  0  0  0
   37.1440   23.0840   40.9620 H   0  0  0  0  0  0  0  0  0  0  0  0
   38.7760   23.3640   42.8460 H   0  0  0  0  0  0  0  0  0  0  0  0
   39.7510   25.0080   41.8630 N   0  0  0  0  0  0  0  0  0  0  0  0
   40.2190   24.6770   41.0110 H   0  0  0  0  0  0  0  0  0  0  0  0
   40.3560   25.1990   42.6780 H   0  0  0  0  0  0  0  0  0  0  0  0
  1  2  1  0  0  0  0
  2 23  1  0  0  0  0
  2  3  2  0  0  0  0
  3  7  1  0  0  0  0
  4  3  1  0  0  0  0
  4  8  1  0  0  0  0
  5  4  2  0  0  0  0
  6  1  2  0  0  0  0
  6  5  1  0  0  0  0
  9  5  1  0  0  0  0
 10  6  1  0  0  0  0
 11 16  1  0  0  0  0
 11 12  2  0  0  0  0
 11  1  1  0  0  0  0
 13 11  2  0  0  0  0
 14 15  1  0  0  0  0
 15 16  1  0  0  0  0
 16 17  2  0  0  0  0
 17 18  1  0  0  0  0
 19 17  1  0  0  0  0
 19 20  1  0  0  0  0
 21 19  2  0  0  0  0
 22 15  2  0  0  0  0
 22 21  1  0  0  0  0
 23 25  1  0  0  0  0
 24 23  2  0  0  0  0
 25 30  2  0  0  0  0
 25 26  1  0  0  0  0
 26 31  1  0  0  0  0
 26 27  2  0  0  0  0
 27 32  1  0  0  0  0
 28 27  1  0  0  0  0
 29 33  1  0  0  0  0
 29 28  2  0  0  0  0
 30 29  1  0  0  0  0
 33 36  1  1  0  0  0
 34 35  1  0  0  0  0
 34 33  1  0  0  0  0
 35 33  1  0  0  0  0
 35 39  1  1  0  0  0
 37 34  1  0  0  0  0
 38 34  1  0  0  0  0
 40 35  1  0  0  0  0
 40 42  1  0  0  0  0
 41 40  1  0  0  0  0
M  END
>  <minimizedAffinity>
-5.79991245

$$$$
