
 OpenBabel03252508023D

 42 45  0  0  1  0  0  0  0  0999 V2000
   42.0530   33.2610   41.1330 C   0  0  0  0  0  0  0  0  0  0  0  0
   42.8030   34.3880   41.3170 C   0  0  0  0  0  0  0  0  0  0  0  0
   42.1380   35.6310   41.2770 C   0  0  0  0  0  0  0  0  0  0  0  0
   40.7860   35.7610   41.0640 C   0  0  0  0  0  0  0  0  0  0  0  0
   40.0430   34.6240   40.8810 C   0  0  0  0  0  0  0  0  0  0  0  0
   40.6810   33.4190   40.9190 C   0  0  0  0  0  0  0  0  0  0  0  0
   42.6460   36.5790   41.4040 H   0  0  0  0  0  0  0  0  0  0  0  0
   40.2920   36.7130   41.0360 H   0  0  0  0  0  0  0  0  0  0  0  0
   38.9770   34.6240   40.7090 H   0  0  0  0  0  0  0  0  0  0  0  0
   40.0800   32.5060   40.7710 H   0  0  0  0  0  0  0  0  0  0  0  0
   42.7030   31.7120   41.2490 S   0  0  0  0  0  0  0  0  0  0  0  0
   41.7300   30.9280   40.3110 O   0  0  0  0  0  0  0  0  0  0  0  0
   42.5670   31.1240   42.6040 O   0  0  0  0  0  0  0  0  0  0  0  0
   44.7170   30.2310   42.9910 Cl  0  0  0  0  0  0  0  0  0  0  0  0
   44.8770   30.2720   41.2220 C   0  0  0  0  0  0  0  0  0  0  0  0
   43.9620   30.9860   40.3970 C   0  0  0  0  0  0  0  0  0  0  0  0
   44.3140   30.8530   39.0600 C   0  0  0  0  0  0  0  0  0  0  0  0
   43.5600   31.3740   38.4410 H   0  0  0  0  0  0  0  0  0  0  0  0
   45.3400   30.1890   38.4340 C   0  0  0  0  0  0  0  0  0  0  0  0
   45.4190   30.2250   37.3660 H   0  0  0  0  0  0  0  0  0  0  0  0
   46.1070   29.5680   39.3790 C   0  0  0  0  0  3  0  0  0  0  0  0
   45.9470   29.5620   40.7350 C   0  0  0  0  0  3  0  0  0  0  0  0
   44.2340   34.3610   41.5500 C   0  0  0  0  0  0  0  0  0  0  0  0
   45.1070   34.2680   40.6370 O   0  0  0  0  0  0  0  0  0  0  0  0
   44.5830   34.4510   42.9480 C   0  0  0  0  0  0  0  0  0  0  0  0
   44.3050   35.7150   43.5750 C   0  0  0  0  0  0  0  0  0  0  0  0
   44.6280   35.8250   44.9160 C   0  0  0  0  0  0  0  0  0  0  0  0
   45.1770   34.7530   45.5420 N   0  0  0  0  0  0  0  0  0  0  0  0
   45.4220   33.5680   44.8960 C   0  0  0  0  0  0  0  0  0  0  0  0
   45.1240   33.4570   43.6470 N   0  0  0  0  0  0  0  0  0  0  0  0
   43.8850   36.5910   43.1570 H   0  0  0  0  0  0  0  0  0  0  0  0
   44.4590   36.7370   45.4830 H   0  0  0  0  0  0  0  0  0  0  0  0
   46.0130   32.4520   45.6610 C   0  0  1  0  0  0  0  0  0  0  0  0
   46.9620   32.7600   46.7960 C   0  0  0  0  0  0  0  0  0  0  0  0
   45.5460   32.3460   47.0640 C   0  0  1  0  0  0  0  0  0  0  0  0
   46.1400   31.5050   45.1140 H   0  0  0  0  0  0  0  0  0  0  0  0
   47.2880   33.8000   46.9080 H   0  0  0  0  0  0  0  0  0  0  0  0
   47.7140   31.9520   46.9900 H   0  0  0  0  0  0  0  0  0  0  0  0
   45.3280   31.3520   47.4760 H   0  0  0  0  0  0  0  0  0  0  0  0
   44.7610   33.4180   47.6550 N   0  0  0  0  0  0  0  0  0  0  0  0
   45.2150   33.8350   48.4760 H   0  0  0  0  0  0  0  0  0  0  0  0
   43.7590   33.1840   47.7490 H   0  0  0  0  0  0  0  0  0  0  0  0
  1 11  1  0  0  0  0
  1  2  1  0  0  0  0
  2 23  1  0  0  0  0
  3  2  2  0  0  0  0
  3  7  1  0  0  0  0
  4  3  1  0  0  0  0
  5  6  1  0  0  0  0
  5  4  2  0  0  0  0
  6  1  2  0  0  0  0
  8  4  1  0  0  0  0
  9  5  1  0  0  0  0
 10  6  1  0  0  0  0
 11 13  2  0  0  0  0
 12 11  2  0  0  0  0
 15 14  1  0  0  0  0
 16 15  2  0  0  0  0
 16 11  1  0  0  0  0
 17 16  1  0  0  0  0
 18 17  1  0  0  0  0
 19 17  2  0  0  0  0
 19 21  1  0  0  0  0
 20 19  1  0  0  0  0
 21 22  2  0  0  0  0
 22 15  1  0  0  0  0
 23 25  1  0  0  0  0
 24 23  2  0  0  0  0
 25 26  2  0  0  0  0
 25 30  1  0  0  0  0
 26 27  1  0  0  0  0
 27 32  1  0  0  0  0
 27 28  2  0  0  0  0
 29 28  1  0  0  0  0
 29 33  1  0  0  0  0
 30 29  2  0  0  0  0
 31 26  1  0  0  0  0
 33 36  1  6  0  0  0
 33 34  1  0  0  0  0
 33 35  1  0  0  0  0
 34 37  1  0  0  0  0
 34 38  1  0  0  0  0
 34 35  1  0  0  0  0
 35 39  1  1  0  0  0
 35 40  1  0  0  0  0
 40 42  1  0  0  0  0
 40 41  1  0  0  0  0
M  END
>  <minimizedAffinity>
-5.74488688

>  <minimizedRMSD>
1.13949919

$$$$
