
 OpenBabel03242523293D

 22 23  0  0  0  0  0  0  0  0999 V2000
   45.5920   33.2540   46.7820 C   0  0  0  0  0  0  0  0  0  0  0  0
   44.5560   32.9710   47.1190 H   0  0  0  0  0  0  0  0  0  0  0  0
   46.0870   33.7670   47.6330 H   0  0  0  0  0  0  0  0  0  0  0  0
   44.6020   35.9320   44.4250 C   0  0  0  0  0  0  0  0  0  0  0  0
   45.3350   35.6270   43.2990 C   0  0  0  0  0  0  0  0  0  0  0  0
   46.1510   34.5140   43.3670 C   0  0  0  0  0  0  0  0  0  0  0  0
   46.2150   33.7660   44.4990 N   0  0  0  0  0  0  0  0  0  0  0  0
   45.4600   34.1140   45.5940 C   0  0  0  0  0  0  0  0  0  0  0  0
   44.6770   35.1830   45.5330 N   0  0  0  0  0  0  0  0  0  0  0  0
   43.9060   36.7740   44.5470 H   0  0  0  0  0  0  0  0  0  0  0  0
   45.2020   36.2860   42.4750 H   0  0  0  0  0  0  0  0  0  0  0  0
   46.7250   34.2800   42.4810 H   0  0  0  0  0  0  0  0  0  0  0  0
   46.5550   31.8210   46.3140 S   0  0  0  0  0  0  0  0  0  0  0  0
   45.1410   30.2950   43.7680 Cl  0  0  0  0  0  0  0  0  0  0  0  0
   45.0930   29.5280   45.3260 C   0  0  0  0  0  0  0  0  0  0  0  0
   45.7200   30.2860   46.2840 C   0  0  0  0  0  0  0  0  0  0  0  0
   45.7150   29.7510   47.5850 C   0  0  0  0  0  0  0  0  0  0  0  0
   46.1350   30.1350   48.5260 H   0  0  0  0  0  0  0  0  0  0  0  0
   45.1040   28.5200   47.8590 C   0  0  0  0  0  0  0  0  0  0  0  0
   45.0420   28.0200   48.8080 H   0  0  0  0  0  0  0  0  0  0  0  0
   44.4910   27.8100   46.8460 C   0  0  0  0  0  3  0  0  0  0  0  0
   44.4860   28.3200   45.5660 C   0  0  0  0  0  3  0  0  0  0  0  0
  1  2  1  0  0  0  0
  1  3  1  0  0  0  0
  4 10  1  0  0  0  0
  4  9  1  0  0  0  0
  5  6  1  0  0  0  0
  5  4  2  0  0  0  0
  6  7  2  0  0  0  0
  7  8  1  0  0  0  0
  8  1  1  0  0  0  0
  9  8  2  0  0  0  0
 11  5  1  0  0  0  0
 12  6  1  0  0  0  0
 13  1  1  0  0  0  0
 14 15  1  0  0  0  0
 15 22  2  0  0  0  0
 15 16  1  0  0  0  0
 16 13  1  0  0  0  0
 16 17  2  0  0  0  0
 17 19  1  0  0  0  0
 17 18  1  0  0  0  0
 19 20  1  0  0  0  0
 21 19  2  0  0  0  0
 22 21  1  0  0  0  0
M  END
>  <minimizedAffinity>
-4.01389074

>  <minimizedRMSD>
1.97119439

$$$$
