
 OpenBabel03242523293D

 22 23  0  0  0  0  0  0  0  0999 V2000
   45.5510   33.3190   46.7210 C   0  0  0  0  0  0  0  0  0  0  0  0
   44.5070   33.0300   47.0270 H   0  0  0  0  0  0  0  0  0  0  0  0
   46.0180   33.8340   47.5870 H   0  0  0  0  0  0  0  0  0  0  0  0
   44.6260   36.0030   44.3440 C   0  0  0  0  0  0  0  0  0  0  0  0
   45.3810   35.6930   43.2340 C   0  0  0  0  0  0  0  0  0  0  0  0
   46.1890   34.5750   43.3190 C   0  0  0  0  0  0  0  0  0  0  0  0
   46.2240   33.8270   44.4510 N   0  0  0  0  0  0  0  0  0  0  0  0
   45.4490   34.1800   45.5310 C   0  0  0  0  0  0  0  0  0  0  0  0
   44.6740   35.2540   45.4530 N   0  0  0  0  0  0  0  0  0  0  0  0
   43.9330   36.8490   44.4510 H   0  0  0  0  0  0  0  0  0  0  0  0
   45.2690   36.3530   42.4070 H   0  0  0  0  0  0  0  0  0  0  0  0
   46.7790   34.3370   42.4450 H   0  0  0  0  0  0  0  0  0  0  0  0
   46.5350   31.8920   46.2800 S   0  0  0  0  0  0  0  0  0  0  0  0
   45.1790   30.2870   43.7510 Cl  0  0  0  0  0  0  0  0  0  0  0  0
   45.1180   29.5560   45.3240 C   0  0  0  0  0  0  0  0  0  0  0  0
   45.7220   30.3450   46.2740 C   0  0  0  0  0  0  0  0  0  0  0  0
   45.7060   29.8400   47.5860 C   0  0  0  0  0  0  0  0  0  0  0  0
   46.1060   30.2510   48.5250 H   0  0  0  0  0  0  0  0  0  0  0  0
   45.1080   28.6080   47.8810 C   0  0  0  0  0  0  0  0  0  0  0  0
   45.0380   28.1290   48.8390 H   0  0  0  0  0  0  0  0  0  0  0  0
   44.5190   27.8660   46.8760 C   0  0  0  0  0  3  0  0  0  0  0  0
   44.5250   28.3450   45.5840 C   0  0  0  0  0  3  0  0  0  0  0  0
  1  2  1  0  0  0  0
  1  3  1  0  0  0  0
  4 10  1  0  0  0  0
  4  9  1  0  0  0  0
  5  6  1  0  0  0  0
  5  4  2  0  0  0  0
  6  7  2  0  0  0  0
  7  8  1  0  0  0  0
  8  1  1  0  0  0  0
  9  8  2  0  0  0  0
 11  5  1  0  0  0  0
 12  6  1  0  0  0  0
 13  1  1  0  0  0  0
 14 15  1  0  0  0  0
 15 22  2  0  0  0  0
 15 16  1  0  0  0  0
 16 13  1  0  0  0  0
 16 17  2  0  0  0  0
 17 19  1  0  0  0  0
 17 18  1  0  0  0  0
 19 20  1  0  0  0  0
 21 19  2  0  0  0  0
 22 21  1  0  0  0  0
M  END
>  <minimizedAffinity>
-4.01148319

>  <minimizedRMSD>
1.94940686

$$$$
