
 OpenBabel03242523303D

 22 23  0  0  0  0  0  0  0  0999 V2000
   45.4410   33.4080   46.7990 C   0  0  0  0  0  0  0  0  0  0  0  0
   44.3900   33.0900   47.0480 H   0  0  0  0  0  0  0  0  0  0  0  0
   45.8350   33.9640   47.6750 H   0  0  0  0  0  0  0  0  0  0  0  0
   44.6330   36.0280   44.3120 C   0  0  0  0  0  0  0  0  0  0  0  0
   45.4030   35.6630   43.2290 C   0  0  0  0  0  0  0  0  0  0  0  0
   46.1810   34.5300   43.3700 C   0  0  0  0  0  0  0  0  0  0  0  0
   46.1740   33.8200   44.5280 N   0  0  0  0  0  0  0  0  0  0  0  0
   45.3850   34.2290   45.5770 C   0  0  0  0  0  0  0  0  0  0  0  0
   44.6380   35.3170   45.4460 N   0  0  0  0  0  0  0  0  0  0  0  0
   43.9580   36.8940   44.3750 H   0  0  0  0  0  0  0  0  0  0  0  0
   45.3240   36.2960   42.3780 H   0  0  0  0  0  0  0  0  0  0  0  0
   46.7840   34.2480   42.5180 H   0  0  0  0  0  0  0  0  0  0  0  0
   46.4990   32.0050   46.4650 S   0  0  0  0  0  0  0  0  0  0  0  0
   45.2790   30.4280   43.8490 Cl  0  0  0  0  0  0  0  0  0  0  0  0
   45.1830   29.6570   45.4020 C   0  0  0  0  0  0  0  0  0  0  0  0
   45.7300   30.4370   46.3920 C   0  0  0  0  0  0  0  0  0  0  0  0
   45.6810   29.8980   47.6900 C   0  0  0  0  0  0  0  0  0  0  0  0
   46.0360   30.2970   48.6520 H   0  0  0  0  0  0  0  0  0  0  0  0
   45.1080   28.6430   47.9320 C   0  0  0  0  0  0  0  0  0  0  0  0
   45.0180   28.1390   48.8760 H   0  0  0  0  0  0  0  0  0  0  0  0
   44.5770   27.9120   46.8890 C   0  0  0  0  0  3  0  0  0  0  0  0
   44.6150   28.4240   45.6100 C   0  0  0  0  0  3  0  0  0  0  0  0
  1  2  1  0  0  0  0
  1  3  1  0  0  0  0
  4 10  1  0  0  0  0
  4  9  1  0  0  0  0
  5  6  1  0  0  0  0
  5  4  2  0  0  0  0
  6  7  2  0  0  0  0
  7  8  1  0  0  0  0
  8  1  1  0  0  0  0
  9  8  2  0  0  0  0
 11  5  1  0  0  0  0
 12  6  1  0  0  0  0
 13  1  1  0  0  0  0
 14 15  1  0  0  0  0
 15 22  2  0  0  0  0
 15 16  1  0  0  0  0
 16 13  1  0  0  0  0
 16 17  2  0  0  0  0
 17 19  1  0  0  0  0
 17 18  1  0  0  0  0
 19 20  1  0  0  0  0
 21 19  2  0  0  0  0
 22 21  1  0  0  0  0
M  END
>  <minimizedAffinity>
-3.99548721

>  <minimizedRMSD>
2.15004182

$$$$
