
 OpenBabel03242516233D

 29 31  0  0  0  0  0  0  0  0999 V2000
   37.4900   30.7360   40.8240 C   0  0  0  0  0  0  0  0  0  0  0  0
   37.6630   29.8830   41.8930 C   0  0  0  0  0  0  0  0  0  0  0  0
   36.8450   28.7890   42.0860 C   0  0  0  0  0  0  0  0  0  0  0  0
   35.8230   28.5240   41.2000 C   0  0  0  0  0  0  0  0  0  0  0  0
   35.6340   29.3580   40.1330 C   0  0  0  0  0  0  0  0  0  0  0  0
   36.4730   30.4590   39.9560 C   0  0  0  0  0  0  0  0  0  0  0  0
   38.4780   30.0940   42.5990 H   0  0  0  0  0  0  0  0  0  0  0  0
   35.2070   27.6520   41.3940 H   0  0  0  0  0  0  0  0  0  0  0  0
   34.8240   29.1210   39.4570 H   0  0  0  0  0  0  0  0  0  0  0  0
   36.2830   31.0870   39.0980 H   0  0  0  0  0  0  0  0  0  0  0  0
   38.5670   34.1580   40.1290 C   0  0  0  0  0  0  0  0  0  0  0  0
   39.9460   34.1240   40.2660 C   0  0  0  0  0  0  0  0  0  0  0  0
   40.5180   32.9050   40.6020 C   0  0  0  0  0  0  0  0  0  0  0  0
   39.7410   31.7830   40.7900 N   0  0  0  0  0  0  0  0  0  0  0  0
   38.3770   31.9000   40.6360 C   0  0  0  0  0  0  0  0  0  0  0  0
   37.7720   33.0840   40.3050 N   0  0  0  0  0  0  0  0  0  0  0  0
   38.0330   35.0630   39.8700 H   0  0  0  0  0  0  0  0  0  0  0  0
   40.5410   35.0140   40.1140 H   0  0  0  0  0  0  0  0  0  0  0  0
   41.5930   32.8170   40.7220 H   0  0  0  0  0  0  0  0  0  0  0  0
   37.1290   27.7340   43.4870 S   0  0  0  0  0  0  0  0  0  0  0  0
   36.9490   24.9070   41.9840 Cl  0  0  0  0  0  0  0  0  0  0  0  0
   38.4840   25.5290   42.5740 C   0  0  0  0  0  0  0  0  0  0  0  0
   38.5980   26.7400   43.2240 C   0  0  0  0  0  0  0  0  0  0  0  0
   39.8210   27.2080   43.6780 C   0  0  0  0  0  0  0  0  0  0  0  0
   39.8400   28.1580   44.1760 H   0  0  0  0  0  0  0  0  0  0  0  0
   40.9500   26.4440   43.4750 C   0  0  0  0  0  0  0  0  0  0  0  0
   41.8650   26.9020   43.8720 H   0  0  0  0  0  0  0  0  0  0  0  0
   40.8550   25.2340   42.8280 C   0  0  0  0  0  3  0  0  0  0  0  0
   39.6320   24.7910   42.3860 C   0  0  0  0  0  3  0  0  0  0  0  0
  1  2  1  0  0  0  0
  2  3  2  0  0  0  0
  2  7  1  0  0  0  0
  3 20  1  0  0  0  0
  4  8  1  0  0  0  0
  4  3  1  0  0  0  0
  5  4  2  0  0  0  0
  6  5  1  0  0  0  0
  6  1  2  0  0  0  0
  9  5  1  0  0  0  0
 10  6  1  0  0  0  0
 11 12  2  0  0  0  0
 11 16  1  0  0  0  0
 12 13  1  0  0  0  0
 13 19  1  0  0  0  0
 13 14  2  0  0  0  0
 15 14  1  0  0  0  0
 15  1  1  0  0  0  0
 16 15  2  0  0  0  0
 17 11  1  0  0  0  0
 18 12  1  0  0  0  0
 21 22  1  0  0  0  0
 22 23  1  0  0  0  0
 23 20  1  0  0  0  0
 23 24  2  0  0  0  0
 24 25  1  0  0  0  0
 26 24  1  0  0  0  0
 26 27  1  0  0  0  0
 28 26  2  0  0  0  0
 29 22  2  0  0  0  0
 29 28  1  0  0  0  0
M  END
>  <minimizedAffinity>
-5.70025444

$$$$

 OpenBabel03242516233D

 29 31  0  0  0  0  0  0  0  0999 V2000
   37.6650   30.9250   40.3910 C   0  0  0  0  0  0  0  0  0  0  0  0
   37.8500   30.1060   41.4840 C   0  0  0  0  0  0  0  0  0  0  0  0
   36.9520   29.1090   41.8020 C   0  0  0  0  0  0  0  0  0  0  0  0
   35.8340   28.9080   41.0200 C   0  0  0  0  0  0  0  0  0  0  0  0
   35.6320   29.7100   39.9300 C   0  0  0  0  0  0  0  0  0  0  0  0
   36.5530   30.7130   39.6270 C   0  0  0  0  0  0  0  0  0  0  0  0
   38.7400   30.2660   42.1080 H   0  0  0  0  0  0  0  0  0  0  0  0
   35.1580   28.1120   41.3110 H   0  0  0  0  0  0  0  0  0  0  0  0
   34.7460   29.5260   39.3380 H   0  0  0  0  0  0  0  0  0  0  0  0
   36.3490   31.3190   38.7560 H   0  0  0  0  0  0  0  0  0  0  0  0
   39.3610   34.1610   40.4360 C   0  0  0  0  0  0  0  0  0  0  0  0
   40.4040   34.0210   39.5340 C   0  0  0  0  0  0  0  0  0  0  0  0
   40.5280   32.7940   38.8970 C   0  0  0  0  0  0  0  0  0  0  0  0
   39.6490   31.7660   39.1570 N   0  0  0  0  0  0  0  0  0  0  0  0
   38.6390   31.9860   40.0680 C   0  0  0  0  0  0  0  0  0  0  0  0
   38.4800   33.1810   40.7190 N   0  0  0  0  0  0  0  0  0  0  0  0
   39.1860   35.0800   40.9800 H   0  0  0  0  0  0  0  0  0  0  0  0
   41.0850   34.8390   39.3410 H   0  0  0  0  0  0  0  0  0  0  0  0
   41.3260   32.6250   38.1800 H   0  0  0  0  0  0  0  0  0  0  0  0
   37.2570   28.0930   43.2280 S   0  0  0  0  0  0  0  0  0  0  0  0
   40.3410   27.3100   43.6300 Cl  0  0  0  0  0  0  0  0  0  0  0  0
   39.2010   26.1830   42.9090 C   0  0  0  0  0  0  0  0  0  0  0  0
   37.8690   26.4870   42.7210 C   0  0  0  0  0  0  0  0  0  0  0  0
   36.9910   25.5790   42.1500 C   0  0  0  0  0  0  0  0  0  0  0  0
   35.9670   25.8780   42.0320 H   0  0  0  0  0  0  0  0  0  0  0  0
   37.4620   24.3430   41.7610 C   0  0  0  0  0  0  0  0  0  0  0  0
   36.6890   23.6990   41.3200 H   0  0  0  0  0  0  0  0  0  0  0  0
   38.7870   24.0240   41.9400 C   0  0  0  0  0  3  0  0  0  0  0  0
   39.6390   24.9390   42.5090 C   0  0  0  0  0  3  0  0  0  0  0  0
  1  2  1  0  0  0  0
  2  3  2  0  0  0  0
  2  7  1  0  0  0  0
  3 20  1  0  0  0  0
  4  8  1  0  0  0  0
  4  3  1  0  0  0  0
  5  4  2  0  0  0  0
  6  5  1  0  0  0  0
  6  1  2  0  0  0  0
  9  5  1  0  0  0  0
 10  6  1  0  0  0  0
 11 16  1  0  0  0  0
 11 17  1  0  0  0  0
 12 11  2  0  0  0  0
 13 14  2  0  0  0  0
 13 12  1  0  0  0  0
 14 15  1  0  0  0  0
 15  1  1  0  0  0  0
 15 16  2  0  0  0  0
 18 12  1  0  0  0  0
 19 13  1  0  0  0  0
 22 21  1  0  0  0  0
 23 22  1  0  0  0  0
 23 20  1  0  0  0  0
 24 23  2  0  0  0  0
 25 24  1  0  0  0  0
 26 28  2  0  0  0  0
 26 24  1  0  0  0  0
 27 26  1  0  0  0  0
 28 29  1  0  0  0  0
 29 22  2  0  0  0  0
M  END
>  <minimizedAffinity>
-5.63133097

$$$$

 OpenBabel03242516233D

 29 31  0  0  0  0  0  0  0  0999 V2000
   38.2310   31.1170   39.8980 C   0  0  0  0  0  0  0  0  0  0  0  0
   38.4740   30.4220   41.0630 C   0  0  0  0  0  0  0  0  0  0  0  0
   37.4840   29.6960   41.6930 C   0  0  0  0  0  0  0  0  0  0  0  0
   36.2130   29.6510   41.1600 C   0  0  0  0  0  0  0  0  0  0  0  0
   35.9520   30.3340   40.0030 C   0  0  0  0  0  0  0  0  0  0  0  0
   36.9680   31.0620   39.3840 C   0  0  0  0  0  0  0  0  0  0  0  0
   39.4860   30.4580   41.4890 H   0  0  0  0  0  0  0  0  0  0  0  0
   35.4690   29.0660   41.6900 H   0  0  0  0  0  0  0  0  0  0  0  0
   34.9460   30.2770   39.6120 H   0  0  0  0  0  0  0  0  0  0  0  0
   36.7120   31.5840   38.4730 H   0  0  0  0  0  0  0  0  0  0  0  0
   40.7250   32.1090   37.4180 C   0  0  0  0  0  0  0  0  0  0  0  0
   41.3010   33.2560   37.9410 C   0  0  0  0  0  0  0  0  0  0  0  0
   40.8260   33.6970   39.1680 C   0  0  0  0  0  0  0  0  0  0  0  0
   39.8250   33.0200   39.8290 N   0  0  0  0  0  0  0  0  0  0  0  0
   39.3050   31.8880   39.2410 C   0  0  0  0  0  0  0  0  0  0  0  0
   39.7440   31.4180   38.0320 N   0  0  0  0  0  0  0  0  0  0  0  0
   41.0300   31.6900   36.4670 H   0  0  0  0  0  0  0  0  0  0  0  0
   42.0860   33.7760   37.4090 H   0  0  0  0  0  0  0  0  0  0  0  0
   41.2390   34.5900   39.6280 H   0  0  0  0  0  0  0  0  0  0  0  0
   37.8710   28.8250   43.1920 S   0  0  0  0  0  0  0  0  0  0  0  0
   40.6880   27.3700   43.6780 Cl  0  0  0  0  0  0  0  0  0  0  0  0
   39.2950   26.4820   43.0760 C   0  0  0  0  0  0  0  0  0  0  0  0
   38.0700   27.0760   42.8560 C   0  0  0  0  0  0  0  0  0  0  0  0
   36.9870   26.3520   42.3810 C   0  0  0  0  0  0  0  0  0  0  0  0
   36.0630   26.8740   42.2310 H   0  0  0  0  0  0  0  0  0  0  0  0
   37.1410   25.0070   42.1230 C   0  0  0  0  0  0  0  0  0  0  0  0
   36.2260   24.5260   41.7500 H   0  0  0  0  0  0  0  0  0  0  0  0
   38.3550   24.3990   42.3370 C   0  0  0  0  0  3  0  0  0  0  0  0
   39.4140   25.1360   42.8090 C   0  0  0  0  0  3  0  0  0  0  0  0
  1  2  1  0  0  0  0
  2  7  1  0  0  0  0
  2  3  2  0  0  0  0
  3 20  1  0  0  0  0
  4  8  1  0  0  0  0
  4  3  1  0  0  0  0
  5  4  2  0  0  0  0
  6  1  2  0  0  0  0
  6  5  1  0  0  0  0
  9  5  1  0  0  0  0
 10  6  1  0  0  0  0
 11 12  2  0  0  0  0
 11 16  1  0  0  0  0
 12 13  1  0  0  0  0
 13 19  1  0  0  0  0
 13 14  2  0  0  0  0
 15 14  1  0  0  0  0
 15  1  1  0  0  0  0
 16 15  2  0  0  0  0
 17 11  1  0  0  0  0
 18 12  1  0  0  0  0
 22 21  1  0  0  0  0
 23 22  1  0  0  0  0
 23 20  1  0  0  0  0
 24 23  2  0  0  0  0
 25 24  1  0  0  0  0
 26 28  2  0  0  0  0
 26 24  1  0  0  0  0
 27 26  1  0  0  0  0
 28 29  1  0  0  0  0
 29 22  2  0  0  0  0
M  END
>  <minimizedAffinity>
-5.49314117

$$$$

 OpenBabel03242516233D

 29 31  0  0  0  0  0  0  0  0999 V2000
   37.9930   31.3910   38.5950 C   0  0  0  0  0  0  0  0  0  0  0  0
   37.3220   30.7150   39.5920 C   0  0  0  0  0  0  0  0  0  0  0  0
   36.3240   29.8060   39.3050 C   0  0  0  0  0  0  0  0  0  0  0  0
   35.9730   29.5530   37.9960 C   0  0  0  0  0  0  0  0  0  0  0  0
   36.6280   30.2140   36.9930 C   0  0  0  0  0  0  0  0  0  0  0  0
   37.6340   31.1280   37.3050 C   0  0  0  0  0  0  0  0  0  0  0  0
   37.6000   30.9160   40.6350 H   0  0  0  0  0  0  0  0  0  0  0  0
   35.1840   28.8310   37.8210 H   0  0  0  0  0  0  0  0  0  0  0  0
   36.3290   29.9920   35.9770 H   0  0  0  0  0  0  0  0  0  0  0  0
   38.1200   31.6240   36.4770 H   0  0  0  0  0  0  0  0  0  0  0  0
   41.1880   33.1590   38.4670 C   0  0  0  0  0  0  0  0  0  0  0  0
   41.0960   34.1190   39.4630 C   0  0  0  0  0  0  0  0  0  0  0  0
   39.9170   34.1600   40.1930 C   0  0  0  0  0  0  0  0  0  0  0  0
   38.8880   33.2830   39.9320 N   0  0  0  0  0  0  0  0  0  0  0  0
   39.0580   32.3580   38.9240 C   0  0  0  0  0  0  0  0  0  0  0  0
   40.2050   32.2830   38.1800 N   0  0  0  0  0  0  0  0  0  0  0  0
   42.0690   33.0520   37.8470 H   0  0  0  0  0  0  0  0  0  0  0  0
   41.9140   34.8000   39.6560 H   0  0  0  0  0  0  0  0  0  0  0  0
   39.7870   34.8900   40.9870 H   0  0  0  0  0  0  0  0  0  0  0  0
   35.5030   28.9740   40.6430 S   0  0  0  0  0  0  0  0  0  0  0  0
   36.6150   26.0710   39.8550 Cl  0  0  0  0  0  0  0  0  0  0  0  0
   37.1610   26.8910   41.3120 C   0  0  0  0  0  0  0  0  0  0  0  0
   36.7030   28.1400   41.6800 C   0  0  0  0  0  0  0  0  0  0  0  0
   37.1500   28.7650   42.8330 C   0  0  0  0  0  0  0  0  0  0  0  0
   36.7540   29.7360   43.0620 H   0  0  0  0  0  0  0  0  0  0  0  0
   38.0740   28.1240   43.6300 C   0  0  0  0  0  0  0  0  0  0  0  0
   38.3620   28.7020   44.5180 H   0  0  0  0  0  0  0  0  0  0  0  0
   38.5400   26.8790   43.2780 C   0  0  0  0  0  3  0  0  0  0  0  0
   38.0840   26.2780   42.1300 C   0  0  0  0  0  3  0  0  0  0  0  0
  1 15  1  0  0  0  0
  1  2  1  0  0  0  0
  2  7  1  0  0  0  0
  3  2  2  0  0  0  0
  3 20  1  0  0  0  0
  4  3  1  0  0  0  0
  5  6  1  0  0  0  0
  5  4  2  0  0  0  0
  6  1  2  0  0  0  0
  8  4  1  0  0  0  0
  9  5  1  0  0  0  0
 10  6  1  0  0  0  0
 11 12  1  0  0  0  0
 12 18  1  0  0  0  0
 12 13  2  0  0  0  0
 13 19  1  0  0  0  0
 14 13  1  0  0  0  0
 15 14  2  0  0  0  0
 16 11  2  0  0  0  0
 16 15  1  0  0  0  0
 17 11  1  0  0  0  0
 20 23  1  0  0  0  0
 21 22  1  0  0  0  0
 22 23  2  0  0  0  0
 22 29  1  0  0  0  0
 23 24  1  0  0  0  0
 24 25  1  0  0  0  0
 24 26  2  0  0  0  0
 26 27  1  0  0  0  0
 28 26  1  0  0  0  0
 29 28  2  0  0  0  0
M  END
>  <minimizedAffinity>
-5.38717175

$$$$

 OpenBabel03242516233D

 29 31  0  0  0  0  0  0  0  0999 V2000
   35.6530   29.1480   38.1310 C   0  0  0  0  0  0  0  0  0  0  0  0
   34.3170   28.9640   37.8480 C   0  0  0  0  0  0  0  0  0  0  0  0
   33.8480   28.9370   36.5500 C   0  0  0  0  0  0  0  0  0  0  0  0
   34.7220   29.0950   35.4960 C   0  0  0  0  0  0  0  0  0  0  0  0
   36.0530   29.2790   35.7560 C   0  0  0  0  0  0  0  0  0  0  0  0
   36.5040   29.3030   37.0750 C   0  0  0  0  0  0  0  0  0  0  0  0
   33.6200   28.8380   38.6880 H   0  0  0  0  0  0  0  0  0  0  0  0
   34.3070   29.0660   34.4940 H   0  0  0  0  0  0  0  0  0  0  0  0
   36.7100   29.3990   34.9060 H   0  0  0  0  0  0  0  0  0  0  0  0
   37.5640   29.4510   37.2280 H   0  0  0  0  0  0  0  0  0  0  0  0
   36.7250   27.9650   41.4180 C   0  0  0  0  0  0  0  0  0  0  0  0
   37.0220   29.1200   42.1250 C   0  0  0  0  0  0  0  0  0  0  0  0
   36.8510   30.3280   41.4620 C   0  0  0  0  0  0  0  0  0  0  0  0
   36.4060   30.3670   40.1590 N   0  0  0  0  0  0  0  0  0  0  0  0
   36.1330   29.1740   39.5260 C   0  0  0  0  0  0  0  0  0  0  0  0
   36.2880   27.9600   40.1430 N   0  0  0  0  0  0  0  0  0  0  0  0
   36.8270   26.9790   41.8520 H   0  0  0  0  0  0  0  0  0  0  0  0
   37.3700   29.0720   43.1480 H   0  0  0  0  0  0  0  0  0  0  0  0
   37.0670   31.2650   41.9650 H   0  0  0  0  0  0  0  0  0  0  0  0
   32.1120   28.6960   36.2630 S   0  0  0  0  0  0  0  0  0  0  0  0
   30.4580   30.0270   38.6670 Cl  0  0  0  0  0  0  0  0  0  0  0  0
   30.5940   30.8220   37.1050 C   0  0  0  0  0  0  0  0  0  0  0  0
   31.2970   30.2780   36.0500 C   0  0  0  0  0  0  0  0  0  0  0  0
   31.3880   30.9250   34.8280 C   0  0  0  0  0  0  0  0  0  0  0  0
   31.9500   30.4480   34.0490 H   0  0  0  0  0  0  0  0  0  0  0  0
   30.7610   32.1430   34.6640 C   0  0  0  0  0  0  0  0  0  0  0  0
   30.8940   32.5710   33.6620 H   0  0  0  0  0  0  0  0  0  0  0  0
   30.0560   32.6990   35.7060 C   0  0  0  0  0  3  0  0  0  0  0  0
   29.9800   32.0390   36.9080 C   0  0  0  0  0  3  0  0  0  0  0  0
  1 15  1  0  0  0  0
  2  1  1  0  0  0  0
  2  7  1  0  0  0  0
  3  2  2  0  0  0  0
  4  5  2  0  0  0  0
  4  3  1  0  0  0  0
  5  6  1  0  0  0  0
  6 10  1  0  0  0  0
  6  1  2  0  0  0  0
  8  4  1  0  0  0  0
  9  5  1  0  0  0  0
 11 17  1  0  0  0  0
 11 12  1  0  0  0  0
 12 18  1  0  0  0  0
 13 19  1  0  0  0  0
 13 12  2  0  0  0  0
 14 13  1  0  0  0  0
 15 16  1  0  0  0  0
 15 14  2  0  0  0  0
 16 11  2  0  0  0  0
 20  3  1  0  0  0  0
 22 21  1  0  0  0  0
 23 20  1  0  0  0  0
 23 22  2  0  0  0  0
 24 23  1  0  0  0  0
 25 24  1  0  0  0  0
 26 24  2  0  0  0  0
 26 28  1  0  0  0  0
 27 26  1  0  0  0  0
 28 29  2  0  0  0  0
 29 22  1  0  0  0  0
M  END
>  <minimizedAffinity>
-5.28689384

$$$$

 OpenBabel03242516233D

 29 31  0  0  0  0  0  0  0  0999 V2000
   37.3900   26.5810   41.6930 C   0  0  0  0  0  0  0  0  0  0  0  0
   38.3120   27.5430   41.3390 C   0  0  0  0  0  0  0  0  0  0  0  0
   38.5460   28.6480   42.1310 C   0  0  0  0  0  0  0  0  0  0  0  0
   37.8520   28.8140   43.3100 C   0  0  0  0  0  0  0  0  0  0  0  0
   36.9330   27.8710   43.6800 C   0  0  0  0  0  0  0  0  0  0  0  0
   36.7120   26.7610   42.8640 C   0  0  0  0  0  0  0  0  0  0  0  0
   38.8650   27.4110   40.3990 H   0  0  0  0  0  0  0  0  0  0  0  0
   38.0710   29.6990   43.8990 H   0  0  0  0  0  0  0  0  0  0  0  0
   36.4060   28.0310   44.6110 H   0  0  0  0  0  0  0  0  0  0  0  0
   35.9760   26.0450   43.2000 H   0  0  0  0  0  0  0  0  0  0  0  0
   36.2510   24.5670   38.8650 C   0  0  0  0  0  0  0  0  0  0  0  0
   36.6720   23.2800   39.1610 C   0  0  0  0  0  0  0  0  0  0  0  0
   37.3590   23.0990   40.3530 C   0  0  0  0  0  0  0  0  0  0  0  0
   37.6080   24.1580   41.1980 N   0  0  0  0  0  0  0  0  0  0  0  0
   37.1550   25.4070   40.8310 C   0  0  0  0  0  0  0  0  0  0  0  0
   36.4740   25.6300   39.6640 N   0  0  0  0  0  0  0  0  0  0  0  0
   35.7080   24.8050   37.9590 H   0  0  0  0  0  0  0  0  0  0  0  0
   36.4680   22.4600   38.4860 H   0  0  0  0  0  0  0  0  0  0  0  0
   37.7130   22.1130   40.6390 H   0  0  0  0  0  0  0  0  0  0  0  0
   39.7500   29.8460   41.6090 S   0  0  0  0  0  0  0  0  0  0  0  0
   41.3950   32.5020   40.8830 Cl  0  0  0  0  0  0  0  0  0  0  0  0
   39.6700   32.3830   40.5650 C   0  0  0  0  0  0  0  0  0  0  0  0
   38.9320   31.2570   40.8640 C   0  0  0  0  0  0  0  0  0  0  0  0
   37.5730   31.1890   40.6020 C   0  0  0  0  0  0  0  0  0  0  0  0
   37.0570   30.2840   40.8590 H   0  0  0  0  0  0  0  0  0  0  0  0
   36.9450   32.2740   40.0290 C   0  0  0  0  0  0  0  0  0  0  0  0
   35.8700   32.1210   39.8630 H   0  0  0  0  0  0  0  0  0  0  0  0
   37.6660   33.4050   39.7240 C   0  0  0  0  0  3  0  0  0  0  0  0
   39.0120   33.4500   39.9920 C   0  0  0  0  0  3  0  0  0  0  0  0
  1  6  1  0  0  0  0
  2  1  2  0  0  0  0
  2  3  1  0  0  0  0
  3  4  2  0  0  0  0
  4  5  1  0  0  0  0
  4  8  1  0  0  0  0
  5  9  1  0  0  0  0
  6 10  1  0  0  0  0
  6  5  2  0  0  0  0
  7  2  1  0  0  0  0
 11 12  2  0  0  0  0
 11 16  1  0  0  0  0
 12 13  1  0  0  0  0
 13 19  1  0  0  0  0
 13 14  2  0  0  0  0
 15 14  1  0  0  0  0
 15  1  1  0  0  0  0
 16 15  2  0  0  0  0
 17 11  1  0  0  0  0
 18 12  1  0  0  0  0
 20  3  1  0  0  0  0
 22 23  1  0  0  0  0
 22 21  1  0  0  0  0
 23 20  1  0  0  0  0
 24 25  1  0  0  0  0
 24 23  2  0  0  0  0
 26 24  1  0  0  0  0
 27 26  1  0  0  0  0
 28 29  1  0  0  0  0
 28 26  2  0  0  0  0
 29 22  2  0  0  0  0
M  END
>  <minimizedAffinity>
-5.28418493

$$$$

 OpenBabel03242516233D

 29 31  0  0  0  0  0  0  0  0999 V2000
   37.2690   31.1890   38.8830 C   0  0  0  0  0  0  0  0  0  0  0  0
   37.9000   30.5730   39.9430 C   0  0  0  0  0  0  0  0  0  0  0  0
   38.5360   31.3000   40.9290 C   0  0  0  0  0  0  0  0  0  0  0  0
   38.5510   32.6780   40.8720 C   0  0  0  0  0  0  0  0  0  0  0  0
   37.9300   33.3080   39.8280 C   0  0  0  0  0  0  0  0  0  0  0  0
   37.2940   32.5540   38.8430 C   0  0  0  0  0  0  0  0  0  0  0  0
   37.8890   29.4760   39.9880 H   0  0  0  0  0  0  0  0  0  0  0  0
   39.0630   33.2050   41.6700 H   0  0  0  0  0  0  0  0  0  0  0  0
   37.9600   34.3890   39.8150 H   0  0  0  0  0  0  0  0  0  0  0  0
   36.8170   33.0980   38.0400 H   0  0  0  0  0  0  0  0  0  0  0  0
   36.5120   29.7510   35.6100 C   0  0  0  0  0  0  0  0  0  0  0  0
   35.4080   28.9440   35.8310 C   0  0  0  0  0  0  0  0  0  0  0  0
   34.9120   28.8910   37.1260 C   0  0  0  0  0  0  0  0  0  0  0  0
   35.4990   29.6130   38.1410 N   0  0  0  0  0  0  0  0  0  0  0  0
   36.5950   30.3930   37.8400 C   0  0  0  0  0  0  0  0  0  0  0  0
   37.1160   30.4730   36.5760 N   0  0  0  0  0  0  0  0  0  0  0  0
   36.9680   29.8550   34.6340 H   0  0  0  0  0  0  0  0  0  0  0  0
   34.9580   28.3840   35.0220 H   0  0  0  0  0  0  0  0  0  0  0  0
   34.0490   28.2760   37.3590 H   0  0  0  0  0  0  0  0  0  0  0  0
   39.3290   30.4370   42.2640 S   0  0  0  0  0  0  0  0  0  0  0  0
   40.5310   27.8130   40.8640 Cl  0  0  0  0  0  0  0  0  0  0  0  0
   39.1040   27.7280   41.8880 C   0  0  0  0  0  0  0  0  0  0  0  0
   38.5610   28.8360   42.5050 C   0  0  0  0  0  0  0  0  0  0  0  0
   37.4350   28.7410   43.3080 C   0  0  0  0  0  0  0  0  0  0  0  0
   37.0630   29.6410   43.7580 H   0  0  0  0  0  0  0  0  0  0  0  0
   36.8450   27.5090   43.4940 C   0  0  0  0  0  0  0  0  0  0  0  0
   35.9610   27.5410   44.1450 H   0  0  0  0  0  0  0  0  0  0  0  0
   37.3730   26.3940   42.8860 C   0  0  0  0  0  3  0  0  0  0  0  0
   38.4900   26.5120   42.0950 C   0  0  0  0  0  3  0  0  0  0  0  0
  1  2  1  0  0  0  0
  2  7  1  0  0  0  0
  2  3  2  0  0  0  0
  3 20  1  0  0  0  0
  4  3  1  0  0  0  0
  4  8  1  0  0  0  0
  5  4  2  0  0  0  0
  6  1  2  0  0  0  0
  6  5  1  0  0  0  0
  9  5  1  0  0  0  0
 10  6  1  0  0  0  0
 11 12  2  0  0  0  0
 11 16  1  0  0  0  0
 12 13  1  0  0  0  0
 13 19  1  0  0  0  0
 13 14  2  0  0  0  0
 15 14  1  0  0  0  0
 15  1  1  0  0  0  0
 16 15  2  0  0  0  0
 17 11  1  0  0  0  0
 18 12  1  0  0  0  0
 20 23  1  0  0  0  0
 21 22  1  0  0  0  0
 22 29  2  0  0  0  0
 22 23  1  0  0  0  0
 23 24  2  0  0  0  0
 24 26  1  0  0  0  0
 24 25  1  0  0  0  0
 26 27  1  0  0  0  0
 28 26  2  0  0  0  0
 29 28  1  0  0  0  0
M  END
>  <minimizedAffinity>
-5.26457834

$$$$

 OpenBabel03242516233D

 29 31  0  0  0  0  0  0  0  0999 V2000
   37.2280   26.6560   41.6070 C   0  0  0  0  0  0  0  0  0  0  0  0
   36.8030   27.8750   41.1220 C   0  0  0  0  0  0  0  0  0  0  0  0
   36.9650   29.0380   41.8470 C   0  0  0  0  0  0  0  0  0  0  0  0
   37.5630   29.0030   43.0880 C   0  0  0  0  0  0  0  0  0  0  0  0
   37.9920   27.8030   43.5860 C   0  0  0  0  0  0  0  0  0  0  0  0
   37.8180   26.6390   42.8370 C   0  0  0  0  0  0  0  0  0  0  0  0
   36.3260   27.9030   40.1330 H   0  0  0  0  0  0  0  0  0  0  0  0
   37.6680   29.9430   43.6190 H   0  0  0  0  0  0  0  0  0  0  0  0
   38.4580   27.8110   44.5620 H   0  0  0  0  0  0  0  0  0  0  0  0
   38.1740   25.7170   43.2740 H   0  0  0  0  0  0  0  0  0  0  0  0
   36.2110   24.4390   38.8850 C   0  0  0  0  0  0  0  0  0  0  0  0
   36.6590   23.1860   39.2710 C   0  0  0  0  0  0  0  0  0  0  0  0
   37.3220   23.0980   40.4870 C   0  0  0  0  0  0  0  0  0  0  0  0
   37.5220   24.2130   41.2690 N   0  0  0  0  0  0  0  0  0  0  0  0
   37.0450   25.4240   40.8150 C   0  0  0  0  0  0  0  0  0  0  0  0
   36.3870   25.5550   39.6210 N   0  0  0  0  0  0  0  0  0  0  0  0
   35.6850   24.6050   37.9540 H   0  0  0  0  0  0  0  0  0  0  0  0
   36.4930   22.3200   38.6440 H   0  0  0  0  0  0  0  0  0  0  0  0
   37.6950   22.1420   40.8410 H   0  0  0  0  0  0  0  0  0  0  0  0
   36.3920   30.5720   41.1580 S   0  0  0  0  0  0  0  0  0  0  0  0
   39.3380   31.7890   41.5050 Cl  0  0  0  0  0  0  0  0  0  0  0  0
   38.6400   31.5330   39.9120 C   0  0  0  0  0  0  0  0  0  0  0  0
   37.3770   31.0110   39.7260 C   0  0  0  0  0  0  0  0  0  0  0  0
   36.8500   30.8180   38.4580 C   0  0  0  0  0  0  0  0  0  0  0  0
   35.8620   30.4090   38.3840 H   0  0  0  0  0  0  0  0  0  0  0  0
   37.6090   31.1560   37.3580 C   0  0  0  0  0  0  0  0  0  0  0  0
   37.1020   30.9650   36.4030 H   0  0  0  0  0  0  0  0  0  0  0  0
   38.8700   31.6770   37.5250 C   0  0  0  0  0  3  0  0  0  0  0  0
   39.3720   31.8590   38.7910 C   0  0  0  0  0  3  0  0  0  0  0  0
  1  6  1  0  0  0  0
  2  1  2  0  0  0  0
  2  3  1  0  0  0  0
  3  4  2  0  0  0  0
  4  5  1  0  0  0  0
  4  8  1  0  0  0  0
  5  9  1  0  0  0  0
  6 10  1  0  0  0  0
  6  5  2  0  0  0  0
  7  2  1  0  0  0  0
 11 12  2  0  0  0  0
 11 16  1  0  0  0  0
 12 13  1  0  0  0  0
 13 19  1  0  0  0  0
 13 14  2  0  0  0  0
 15 14  1  0  0  0  0
 15  1  1  0  0  0  0
 16 15  2  0  0  0  0
 17 11  1  0  0  0  0
 18 12  1  0  0  0  0
 20  3  1  0  0  0  0
 22 21  1  0  0  0  0
 23 22  1  0  0  0  0
 23 20  1  0  0  0  0
 24 23  2  0  0  0  0
 25 24  1  0  0  0  0
 26 28  2  0  0  0  0
 26 24  1  0  0  0  0
 27 26  1  0  0  0  0
 28 29  1  0  0  0  0
 29 22  2  0  0  0  0
M  END
>  <minimizedAffinity>
-5.25292253

$$$$

 OpenBabel03242516233D

 29 31  0  0  0  0  0  0  0  0999 V2000
   35.9910   29.4530   37.3130 C   0  0  0  0  0  0  0  0  0  0  0  0
   35.8680   29.6420   38.6730 C   0  0  0  0  0  0  0  0  0  0  0  0
   36.6380   30.5680   39.3480 C   0  0  0  0  0  0  0  0  0  0  0  0
   37.5580   31.3340   38.6640 C   0  0  0  0  0  0  0  0  0  0  0  0
   37.6940   31.1610   37.3130 C   0  0  0  0  0  0  0  0  0  0  0  0
   36.9070   30.2190   36.6520 C   0  0  0  0  0  0  0  0  0  0  0  0
   35.1360   29.0320   39.2190 H   0  0  0  0  0  0  0  0  0  0  0  0
   38.1380   32.0480   39.2370 H   0  0  0  0  0  0  0  0  0  0  0  0
   38.4240   31.7780   36.8080 H   0  0  0  0  0  0  0  0  0  0  0  0
   37.0520   30.1210   35.5850 H   0  0  0  0  0  0  0  0  0  0  0  0
   33.6770   26.6770   36.7730 C   0  0  0  0  0  0  0  0  0  0  0  0
   33.5780   26.5680   35.3950 C   0  0  0  0  0  0  0  0  0  0  0  0
   34.3180   27.4640   34.6360 C   0  0  0  0  0  0  0  0  0  0  0  0
   35.1140   28.4150   35.2350 N   0  0  0  0  0  0  0  0  0  0  0  0
   35.1580   28.4570   36.6110 C   0  0  0  0  0  0  0  0  0  0  0  0
   34.4430   27.5930   37.3980 N   0  0  0  0  0  0  0  0  0  0  0  0
   33.1370   26.0230   37.4460 H   0  0  0  0  0  0  0  0  0  0  0  0
   32.9480   25.8150   34.9410 H   0  0  0  0  0  0  0  0  0  0  0  0
   34.2810   27.4270   33.5510 H   0  0  0  0  0  0  0  0  0  0  0  0
   36.4240   30.7560   41.1010 S   0  0  0  0  0  0  0  0  0  0  0  0
   39.3980   30.9300   42.2900 Cl  0  0  0  0  0  0  0  0  0  0  0  0
   38.4320   29.4710   42.4620 C   0  0  0  0  0  0  0  0  0  0  0  0
   37.1500   29.3620   41.9640 C   0  0  0  0  0  0  0  0  0  0  0  0
   36.4090   28.2000   42.1130 C   0  0  0  0  0  0  0  0  0  0  0  0
   35.4190   28.1810   41.7020 H   0  0  0  0  0  0  0  0  0  0  0  0
   36.9680   27.1290   42.7770 C   0  0  0  0  0  0  0  0  0  0  0  0
   36.3020   26.2580   42.8420 H   0  0  0  0  0  0  0  0  0  0  0  0
   38.2450   27.2210   43.2810 C   0  0  0  0  0  3  0  0  0  0  0  0
   38.9600   28.3830   43.1210 C   0  0  0  0  0  3  0  0  0  0  0  0
  1  2  1  0  0  0  0
  2  7  1  0  0  0  0
  2  3  2  0  0  0  0
  3 20  1  0  0  0  0
  4  8  1  0  0  0  0
  4  3  1  0  0  0  0
  5  4  2  0  0  0  0
  6  1  2  0  0  0  0
  6  5  1  0  0  0  0
  9  5  1  0  0  0  0
 10  6  1  0  0  0  0
 11 16  1  0  0  0  0
 11 17  1  0  0  0  0
 12 11  2  0  0  0  0
 13 14  2  0  0  0  0
 13 12  1  0  0  0  0
 14 15  1  0  0  0  0
 15  1  1  0  0  0  0
 15 16  2  0  0  0  0
 18 12  1  0  0  0  0
 19 13  1  0  0  0  0
 20 23  1  0  0  0  0
 21 22  1  0  0  0  0
 22 29  1  0  0  0  0
 23 24  1  0  0  0  0
 23 22  2  0  0  0  0
 24 26  2  0  0  0  0
 25 24  1  0  0  0  0
 26 27  1  0  0  0  0
 26 28  1  0  0  0  0
 29 28  2  0  0  0  0
M  END
>  <minimizedAffinity>
-5.25270081

$$$$
