
 OpenBabel03242519373D

 27 28  0  0  0  0  0  0  0  0999 V2000
   48.2720   32.9580   42.4120 O   0  0  0  0  0  0  0  0  0  0  0  0
   47.3920   33.9290   41.6190 P   0  0  2  0  0  0  0  0  0  0  0  0
   45.7640   33.7340   42.1490 O   0  0  0  0  0  0  0  0  0  0  0  0
   44.3580   35.9690   44.6850 C   0  0  0  0  0  0  0  0  0  0  0  0
   44.7350   35.4760   43.4170 C   0  0  0  0  0  0  0  0  0  0  0  0
   45.3840   34.2370   43.3810 C   0  0  0  0  0  0  0  0  0  0  0  0
   45.6080   33.5970   44.5490 N   0  0  0  0  0  0  0  0  0  0  0  0
   45.2360   34.0940   45.7430 C   0  0  0  0  0  0  0  0  0  0  0  0
   44.6080   35.2830   45.8160 N   0  0  0  0  0  0  0  0  0  0  0  0
   43.8460   36.9360   44.7670 H   0  0  0  0  0  0  0  0  0  0  0  0
   44.5050   36.0770   42.5330 H   0  0  0  0  0  0  0  0  0  0  0  0
   45.5150   33.4130   46.5390 H   0  0  0  0  0  0  0  0  0  0  0  0
   47.4600   33.6660   39.9780 O   0  0  0  0  0  0  0  0  0  0  0  0
   47.1450   33.7170   37.0480 Cl  0  0  0  0  0  0  0  0  0  0  0  0
   46.7010   32.3990   38.0760 C   0  0  0  0  0  0  0  0  0  0  0  0
   46.9020   32.5040   39.4390 C   0  0  0  0  0  0  0  0  0  0  0  0
   46.5400   31.4350   40.2640 C   0  0  0  0  0  0  0  0  0  0  0  0
   46.6960   31.5060   41.3500 H   0  0  0  0  0  0  0  0  0  0  0  0
   45.9820   30.2660   39.7470 C   0  0  0  0  0  0  0  0  0  0  0  0
   45.7330   29.4860   40.4830 H   0  0  0  0  0  0  0  0  0  0  0  0
   45.7790   30.1580   38.3910 C   0  0  0  0  0  3  0  0  0  0  0  0
   46.1500   31.2310   37.6220 C   0  0  0  0  0  3  0  0  0  0  0  0
   47.8690   35.5000   42.0240 O   0  0  0  0  0  0  0  0  0  0  0  0
   49.0830   35.8470   41.4640 C   0  0  0  0  0  0  0  0  0  0  0  0
   49.5040   37.1210   41.8030 F   0  0  0  0  0  0  0  0  0  0  0  0
   50.0280   34.8760   41.7580 F   0  0  0  0  0  0  0  0  0  0  0  0
   48.8980   35.8420   40.0830 F   0  0  0  0  0  0  0  0  0  0  0  0
  2 23  1  0  0  0  0
  2  3  1  0  0  0  0
  2  1  2  1  0  0  0
  3  6  1  0  0  0  0
  4 10  1  0  0  0  0
  4  9  1  0  0  0  0
  5  4  2  0  0  0  0
  6  5  1  0  0  0  0
  6  7  2  0  0  0  0
  7  8  1  0  0  0  0
  8  9  2  0  0  0  0
  8 12  1  0  0  0  0
 11  5  1  0  0  0  0
 13  2  1  0  0  0  0
 14 15  1  0  0  0  0
 15 16  1  0  0  0  0
 16 13  1  0  0  0  0
 16 17  2  0  0  0  0
 17 18  1  0  0  0  0
 19 17  1  0  0  0  0
 19 20  1  0  0  0  0
 21 19  2  0  0  0  0
 22 15  2  0  0  0  0
 22 21  1  0  0  0  0
 24 26  1  0  0  0  0
 24 25  1  0  0  0  0
 24 23  1  0  0  0  0
 27 24  1  0  0  0  0
M  END
>  <minimizedAffinity>
-4.91482019

>  <minimizedRMSD>
0.928951085

$$$$
