
 OpenBabel03242523303D

 22 23  0  0  0  0  0  0  0  0999 V2000
   45.7160   33.1470   46.8450 C   0  0  0  0  0  0  0  0  0  0  0  0
   44.7050   32.9210   47.2870 H   0  0  0  0  0  0  0  0  0  0  0  0
   46.3260   33.6210   47.6430 H   0  0  0  0  0  0  0  0  0  0  0  0
   44.5530   35.8390   44.5850 C   0  0  0  0  0  0  0  0  0  0  0  0
   45.2530   35.5820   43.4260 C   0  0  0  0  0  0  0  0  0  0  0  0
   46.1070   34.4950   43.4410 C   0  0  0  0  0  0  0  0  0  0  0  0
   46.2370   33.7260   44.5520 N   0  0  0  0  0  0  0  0  0  0  0  0
   45.5120   34.0270   45.6820 C   0  0  0  0  0  0  0  0  0  0  0  0
   44.6940   35.0700   45.6720 N   0  0  0  0  0  0  0  0  0  0  0  0
   43.8350   36.6550   44.7500 H   0  0  0  0  0  0  0  0  0  0  0  0
   45.0680   36.2530   42.6220 H   0  0  0  0  0  0  0  0  0  0  0  0
   46.6550   34.2980   42.5290 H   0  0  0  0  0  0  0  0  0  0  0  0
   46.5390   31.6660   46.2720 S   0  0  0  0  0  0  0  0  0  0  0  0
   45.0930   29.7430   48.5120 Cl  0  0  0  0  0  0  0  0  0  0  0  0
   44.8750   29.3670   46.8320 C   0  0  0  0  0  0  0  0  0  0  0  0
   45.5390   30.2550   46.0220 C   0  0  0  0  0  0  0  0  0  0  0  0
   45.4330   30.0180   44.6400 C   0  0  0  0  0  0  0  0  0  0  0  0
   45.8540   30.5580   43.7790 H   0  0  0  0  0  0  0  0  0  0  0  0
   44.6900   28.9380   44.1450 C   0  0  0  0  0  0  0  0  0  0  0  0
   44.5420   28.6630   43.1180 H   0  0  0  0  0  0  0  0  0  0  0  0
   44.0460   28.0830   45.0180 C   0  0  0  0  0  3  0  0  0  0  0  0
   44.1390   28.3000   46.3760 C   0  0  0  0  0  3  0  0  0  0  0  0
  1  2  1  0  0  0  0
  1  3  1  0  0  0  0
  4 10  1  0  0  0  0
  4  9  1  0  0  0  0
  5  6  1  0  0  0  0
  5  4  2  0  0  0  0
  6  7  2  0  0  0  0
  7  8  1  0  0  0  0
  8  1  1  0  0  0  0
  9  8  2  0  0  0  0
 11  5  1  0  0  0  0
 12  6  1  0  0  0  0
 13  1  1  0  0  0  0
 15 14  1  0  0  0  0
 16 13  1  0  0  0  0
 16 15  2  0  0  0  0
 17 16  1  0  0  0  0
 18 17  1  0  0  0  0
 19 17  2  0  0  0  0
 19 21  1  0  0  0  0
 20 19  1  0  0  0  0
 21 22  2  0  0  0  0
 22 15  1  0  0  0  0
M  END
>  <minimizedAffinity>
-3.96833682

>  <minimizedRMSD>
1.58708668

$$$$
