
 OpenBabel03242523393D

 37 41  0  0  1  0  0  0  0  0999 V2000
   46.7650   32.6660   45.0280 C   0  0  2  0  0  0  0  0  0  0  0  0
   47.3730   31.5470   44.9490 N   0  0  2  0  0  4  0  0  0  0  0  0
   47.3770   30.3120   44.7320 C   0  0  0  0  0  0  0  0  0  0  0  0
   47.7790   30.2030   46.0410 N   0  0  0  0  0  0  0  0  0  0  0  0
   46.9990   30.9770   46.8720 C   0  0  2  0  0  3  0  0  0  0  0  0
   46.7940   30.4520   48.1810 C   0  0  0  0  0  0  0  0  0  0  0  0
   45.9820   31.1510   48.9860 C   0  0  0  0  0  0  0  0  0  0  0  0
   45.3570   32.3010   48.6420 C   0  0  0  0  0  0  0  0  0  0  0  0
   45.6480   32.7000   47.3340 C   0  0  0  0  0  0  0  0  0  0  0  0
   46.4430   32.1560   46.3300 C   0  0  1  0  0  0  0  0  0  0  0  0
   47.6480   33.4090   45.3930 H   0  0  0  0  0  0  0  0  0  0  0  0
   48.2250   31.7970   44.2850 H   0  0  0  0  0  0  0  0  0  0  0  0
   46.4160   29.7890   44.5380 H   0  0  0  0  0  0  0  0  0  0  0  0
   48.0880   29.7160   44.0770 H   0  0  0  0  0  0  0  0  0  0  0  0
   48.5940   29.5890   46.3700 H   0  0  0  0  0  0  0  0  0  0  0  0
   47.2560   29.5520   48.5280 H   0  0  0  0  0  0  0  0  0  0  0  0
   45.8310   30.7360   50.0000 H   0  0  0  0  0  0  0  0  0  0  0  0
   44.7270   32.8010   49.3230 H   0  0  0  0  0  0  0  0  0  0  0  0
   45.0810   33.6200   47.2030 H   0  0  0  0  0  0  0  0  0  0  0  0
   44.5110   35.5980   45.0190 C   0  0  0  0  0  0  0  0  0  0  0  0
   44.1750   35.5360   43.6490 C   0  0  0  0  0  0  0  0  0  0  0  0
   44.7290   34.5090   42.9100 C   0  0  0  0  0  0  0  0  0  0  0  0
   45.5450   33.6500   43.5640 N   0  0  0  0  0  0  0  0  0  0  0  0
   45.8600   33.7280   44.8920 C   0  0  0  0  0  0  0  0  0  0  0  0
   45.3140   34.6920   45.4960 N   0  0  0  0  0  0  0  0  0  0  0  0
   44.1110   36.3760   45.6540 H   0  0  0  0  0  0  0  0  0  0  0  0
   43.5070   36.3050   43.2880 H   0  0  0  0  0  0  0  0  0  0  0  0
   44.3100   34.4130   41.2110 S   0  0  0  0  0  0  0  0  0  0  0  0
   42.5800   31.7970   41.8850 Cl  0  0  0  0  0  0  0  0  0  0  0  0
   41.7830   33.2460   41.3480 C   0  0  0  0  0  0  0  0  0  0  0  0
   42.5110   34.3920   41.0500 C   0  0  0  0  0  0  0  0  0  0  0  0
   41.8340   35.5280   40.6240 C   0  0  0  0  0  0  0  0  0  0  0  0
   42.4060   36.4370   40.3880 H   0  0  0  0  0  0  0  0  0  0  0  0
   40.4600   35.5370   40.4930 C   0  0  0  0  0  0  0  0  0  0  0  0
   39.9730   36.4390   40.1600 H   0  0  0  0  0  0  0  0  0  0  0  0
   39.7700   34.3770   40.7990 C   0  0  0  0  0  3  0  0  0  0  0  0
   40.4070   33.2360   41.2230 C   0  0  0  0  0  3  0  0  0  0  0  0
  1 11  1  1  0  0  0
  1 10  1  0  0  0  0
  2 12  1  1  0  0  0
  2  1  1  0  0  0  0
  2 10  1  0  0  0  0
  3  2  1  0  0  0  0
  3  4  1  0  0  0  0
  4 15  1  0  0  0  0
  4  5  1  0  0  0  0
  5  6  1  6  0  0  0
  6 16  1  0  0  0  0
  6  7  2  0  0  0  0
  7 17  1  0  0  0  0
  8  7  1  0  0  0  0
  8 18  1  0  0  0  0
  9  8  2  0  0  0  0
 10  5  1  0  0  0  0
 10  9  1  6  0  0  0
 13  3  1  0  0  0  0
 14  3  1  0  0  0  0
 19  9  1  0  0  0  0
 20 25  1  0  0  0  0
 20 26  1  0  0  0  0
 21 20  2  0  0  0  0
 22 23  2  0  0  0  0
 22 21  1  0  0  0  0
 23 24  1  0  0  0  0
 24  1  1  0  0  0  0
 24 25  2  0  0  0  0
 27 21  1  0  0  0  0
 28 22  1  0  0  0  0
 30 29  1  0  0  0  0
 31 28  1  0  0  0  0
 31 30  2  0  0  0  0
 32 31  1  0  0  0  0
 33 32  1  0  0  0  0
 34 32  2  0  0  0  0
 34 36  1  0  0  0  0
 35 34  1  0  0  0  0
 36 37  2  0  0  0  0
 37 30  1  0  0  0  0
M  END
>  <minimizedAffinity>
-6.35611773

>  <minimizedRMSD>
1.38531268

$$$$
